data_functionalizedCrystal
_audit_creation_method	'MofGen! by Chris Wilmer'
_symmetry_space_group_name_H-M	'P1'
_symmetry_Int_Tables_number	1
_symmetry_cell_setting	triclinic
loop_
_symmetry_equiv_pos_as_xyz
  x,y,z
_cell_length_a	14.446369
_cell_length_b	19.377372
_cell_length_c	19.377369
_cell_angle_alpha	82.773744
_cell_angle_beta	48.635090
_cell_angle_gamma	89.998519
loop_
_atom_site_label
_atom_site_type_symbol
_atom_site_fract_x
_atom_site_fract_y
_atom_site_fract_z
Zr1	Zr	0.692791	0.044231	0.795997
O2	O	0.534922	-0.033366	0.916290
O3	O	0.771075	0.051096	0.649863
O4	O	0.771144	-0.057767	0.758726
O5	O	0.500799	0.180621	0.845838
O6	O	0.923482	-0.057764	0.758720
O7	O	0.534852	0.075497	0.807427
O8	O	0.923358	0.136971	0.563984
O9	O	0.500923	-0.014115	1.040574
O10	O	0.882040	0.074472	0.719536
O11	O	0.742938	0.152922	0.748206
O12	O	0.743020	0.024750	0.876378
O13	O	0.603918	0.103201	0.905048
Zr14	Zr	0.881441	0.211896	0.857249
Zr15	Zr	0.935752	0.044236	0.795988
Zr16	Zr	0.638480	0.211892	0.857258
Zr17	Zr	0.638567	0.074934	0.994215
Zr18	Zr	0.935665	0.181193	0.659031
O19	O	0.803157	0.205032	1.003383
O20	O	0.880381	-0.033360	0.916278
O21	O	0.457698	0.205026	1.003395
O22	O	1.039311	0.289494	0.736956
O23	O	1.116535	0.051102	0.649851
O24	O	0.693851	0.289487	0.736968
O25	O	1.073434	0.075507	0.807408
O26	O	0.803088	0.313895	0.894520
O27	O	0.650750	0.313892	0.894526
O28	O	1.039380	0.180631	0.845819
O29	O	0.694045	-0.014111	1.040567
O30	O	0.880188	0.270239	0.612679
O31	O	1.073310	0.270243	0.612672
O32	O	1.116480	0.136975	0.563978
O33	O	0.457753	0.119153	1.089268
O34	O	0.650874	0.119156	1.089262
O35	O	0.831213	0.231377	0.776868
O36	O	0.970314	0.152927	0.748198
O37	O	0.831294	0.103205	0.905040
O38	O	0.692193	0.181656	0.933710
C39	C	0.483209	0.128058	0.826634
C40	C	0.380066	0.128056	0.826637
C41	C	0.854942	0.089659	0.578682
C42	C	0.877962	0.076625	0.494533
C43	C	0.719181	0.337781	0.903251
C44	C	0.696125	0.408958	0.929258
C45	C	0.145642	0.096945	0.925636
C46	C	0.252942	0.096680	0.925614
C47	C	0.404331	0.082963	0.755335
C48	C	0.296476	0.082717	0.755946
C49	C	0.259031	0.204184	0.798055
C50	C	0.364440	0.204391	0.800211
C51	C	1.091024	0.128069	0.826612
C52	C	1.194167	0.128071	0.826609
C53	C	0.855051	-0.081654	0.749995
C54	C	0.878108	-0.152830	0.723988
C55	C	0.983165	0.772814	0.605453
C56	C	0.961490	0.839689	0.629912
C57	C	0.816363	0.787774	0.793642
C58	C	0.838022	0.720894	0.769197
C59	C	0.921425	0.713421	0.675101
C60	C	0.776282	0.661500	0.838845
C61	C	0.797944	0.594626	0.814401
C62	C	0.881346	0.587146	0.720309
C63	C	0.943087	0.646547	0.650657
C64	C	0.692886	0.668975	0.932941
C65	C	0.631146	0.609581	1.002589
C66	C	0.652801	0.542706	0.978146
C67	C	0.736203	0.535226	0.884054
C68	C	0.591060	0.483305	1.047799
C69	C	0.612721	0.416431	1.023355
C70	C	0.757864	0.468352	0.859610
C71	C	0.591033	0.238731	0.292376
C72	C	0.612800	0.226539	0.213235
C73	C	0.758012	0.144643	0.183315
C74	C	0.736261	0.156830	0.262453
C75	C	0.652769	0.203874	0.316978
C76	C	0.797997	0.121974	0.287055
C77	C	0.776243	0.134158	0.366189
C78	C	0.692752	0.181198	0.420720
C79	C	0.631014	0.216058	0.396112
C80	C	0.881482	0.074926	0.232532
C81	C	0.943218	0.040069	0.257134
C82	C	0.921471	0.052257	0.336265
C83	C	0.837980	0.099297	0.390797
C84	C	0.983208	0.017396	0.360874
C85	C	0.961454	0.029580	0.440007
C86	C	0.816226	0.111481	0.469930
C87	C	0.719290	0.166469	1.074564
C88	C	0.696271	0.179503	1.158713
C89	C	1.158850	0.089665	0.578671
C90	C	1.285013	0.076632	0.494518
C91	C	0.787007	0.299377	0.655310
C92	C	0.786970	0.357519	0.597168
C93	C	1.090915	0.299382	0.655299
C94	C	1.194021	0.357526	0.597154
C95	C	0.483318	-0.043255	0.997947
C96	C	0.380212	-0.101399	1.056092
C97	C	0.415383	0.166463	1.074575
C98	C	0.289220	0.179495	1.158728
C99	C	0.787225	-0.043249	0.997936
C100	C	0.787262	-0.101391	1.056078
C101	C	1.298184	0.029553	0.440036
C102	C	1.416720	0.017293	0.360971
C103	C	1.522084	0.052118	0.336386
C104	C	1.508907	0.099201	0.390877
C105	C	1.390373	0.111455	0.469944
C106	C	0.833029	0.425782	0.584828
C107	C	0.832985	0.480421	0.530210
C108	C	0.786889	0.466794	0.487929
C109	C	0.740824	0.398523	0.500274
C110	C	0.740861	0.343887	0.554896
C111	C	1.315061	0.343881	0.554882
C112	C	1.411948	0.398508	0.500257
C113	C	1.387795	0.466780	0.487899
C114	C	1.266743	0.480425	0.530177
C115	C	1.169856	0.425799	0.584807
C116	C	0.259169	-0.087752	1.098373
C117	C	0.162275	-0.142375	1.153023
C118	C	0.186427	-0.210647	1.165386
C119	C	0.307481	-0.224293	1.123102
C120	C	0.404371	-0.169668	1.068459
C121	C	0.276048	0.226569	1.213216
C122	C	0.157512	0.238814	1.292296
C123	C	0.052149	0.203987	1.316883
C124	C	0.065325	0.156907	1.262389
C125	C	0.183860	0.144660	1.183314
C126	C	0.833368	-0.087742	1.098343
C127	C	0.833426	-0.142368	1.152966
C128	C	0.787369	-0.210641	1.165327
C129	C	0.741264	-0.224290	1.123054
C130	C	0.741214	-0.169665	1.068428
H131	H	0.230864	0.127800	0.980220
C132	C	0.690470	-0.184688	1.021954
N133	N	0.652243	-0.196009	0.986954
C134	C	1.341657	0.268786	0.568470
N135	N	1.361699	0.212227	0.578705
C136	C	0.539412	0.617811	1.106092
N137	N	0.470317	0.624009	1.184052
H138	H	0.502929	-0.180789	1.034031
H139	H	1.051178	-0.020912	0.316475
C140	C	0.499335	0.491537	1.151301
N141	N	0.430249	0.497737	1.229260
H142	H	0.787416	-0.255114	1.209810
H143	H	0.415580	0.026993	0.772965
H144	H	0.188997	0.240134	0.846515
C145	C	0.849853	0.092897	0.123328
N146	N	0.919033	0.053923	0.078143
H147	H	0.703294	0.387438	0.465841
H148	H	0.748461	0.793869	0.870255
C149	C	0.544810	0.351094	1.099971
N150	N	0.493662	0.301882	1.157681
H151	H	0.675253	0.723430	0.952840
C152	C	0.690207	0.268795	0.568451
N153	N	0.652054	0.212236	0.578655
C154	C	1.545100	0.383482	0.453749
N155	N	1.645387	0.372162	0.418718
C156	C	0.045246	0.139101	0.999574
N157	N	-0.030373	0.170859	1.055264
H158	H	1.011725	0.001196	0.460038
C159	C	1.494390	0.526862	0.427794
N160	N	1.574683	0.572113	0.382517
H161	H	-0.020478	0.128554	1.282420
H162	H	1.071303	0.436919	0.619218
C163	C	0.232570	-0.012656	1.084794
N164	N	0.212524	0.043906	1.074576
C165	C	1.240196	0.555529	0.516565
N166	N	1.220207	0.612097	0.506305
C167	C	0.539159	0.267804	0.456100
N168	N	0.469969	0.306773	0.501287
C169	C	0.690662	-0.299402	1.136623
N170	N	0.652565	-0.355979	1.146834
C171	C	-0.078235	0.217470	1.403867
N172	N	-0.176437	0.227631	1.469383
C173	C	0.029125	-0.127350	1.199525
N174	N	-0.071160	-0.116031	1.234549
H175	H	0.870501	0.536005	0.520167
H176	H	0.523046	0.277039	0.336774
C177	C	0.349526	0.110081	0.656519
N178	N	0.389488	0.130687	0.581631
H179	H	0.107521	-0.255119	1.209882
C180	C	0.143046	0.290610	1.352220
N181	N	0.132154	0.329624	1.397351
C182	C	1.035059	-0.011676	0.197147
N183	N	1.104239	-0.050650	0.151963
H184	H	0.870871	-0.032155	1.088290
C185	C	0.905173	0.513582	0.693421
N186	N	0.923117	0.458174	0.673168
C187	C	0.786873	0.526902	0.427836
N188	N	0.786870	0.572178	0.382570
H189	H	0.343596	0.237916	0.852436
H190	H	0.327132	-0.279885	1.133175
H191	H	0.361827	0.254937	1.193207
C192	C	0.240686	0.006495	0.780735
N193	N	0.198668	-0.050917	0.799408
H194	H	0.098430	0.041432	0.948471
H195	H	0.258345	0.040814	0.948480
H196	H	0.495085	0.103777	0.681736
H197	H	0.454075	0.230946	0.729341
H198	H	0.298108	0.227702	0.725322
H199	H	0.194568	0.106330	1.138951
H200	H	1.379664	0.149796	0.514297
H201	H	0.825768	0.462268	0.782987
C202	C	1.624822	0.137508	0.363816
N203	N	1.712133	0.166365	0.343426
H204	H	0.870967	-0.131242	1.187382
H205	H	1.010990	0.640463	0.574034
H206	H	1.051068	0.766731	0.528830
H207	H	0.748239	0.149790	0.514329
C208	C	1.029411	0.905024	0.553285
N209	N	1.080569	0.954233	0.495571
C210	C	1.431186	-0.034493	0.301037
N211	N	1.442078	-0.073497	0.255895
H212	H	0.562518	0.254925	0.193211
H213	H	0.675037	0.191115	0.485158
C214	C	1.652468	0.038635	0.249401
N215	N	1.750670	0.028479	0.183881
H216	H	0.899184	0.065003	0.168101
H217	H	1.212406	0.001183	0.460046
H218	H	0.870564	0.436892	0.619250
