data_functionalizedCrystal
_audit_creation_method	'MofGen! by Chris Wilmer'
_symmetry_space_group_name_H-M	'P1'
_symmetry_Int_Tables_number	1
_symmetry_cell_setting	triclinic
loop_
_symmetry_equiv_pos_as_xyz
  x,y,z
_cell_length_a	18.215407
_cell_length_b	12.645330
_cell_length_c	18.215399
_cell_angle_alpha	89.976970
_cell_angle_beta	89.980167
_cell_angle_gamma	90.018140
loop_
_atom_site_label
_atom_site_type_symbol
_atom_site_fract_x
_atom_site_fract_y
_atom_site_fract_z
Zn1	Zn	1.125109	-0.422038	-0.416141
Zn2	Zn	1.125033	-0.599320	-0.293085
Zn3	Zn	1.002041	-0.422072	-0.293088
Zn4	Zn	1.002023	-0.599261	-0.416110
O5	O	1.063551	-0.510673	-0.354606
O6	O	1.228083	-0.445565	-0.399829
O7	O	1.108693	-0.575847	-0.190101
O8	O	1.018406	-0.273720	-0.309426
O9	O	1.228027	-0.575813	-0.309421
O10	O	1.108823	-0.273695	-0.399832
O11	O	1.018332	-0.445624	-0.190104
O12	O	0.899055	-0.445566	-0.309396
O13	O	1.018374	-0.575713	-0.519099
O14	O	0.899041	-0.575746	-0.399780
O15	O	1.108805	-0.445507	-0.519121
O16	O	1.108675	-0.747659	-0.309391
O17	O	1.018300	-0.747616	-0.399777
C18	C	0.872345	-0.510654	-0.354585
C19	C	0.790546	-0.510672	-0.354594
C20	C	0.602364	-0.578563	-0.401597
C21	C	0.525506	-0.578567	-0.401606
C22	C	0.525490	-0.442801	-0.307631
C23	C	0.602348	-0.442793	-0.307626
C24	C	0.640783	-0.510680	-0.354608
C25	C	0.487067	-0.510692	-0.354622
C26	C	0.403733	-0.510695	-0.354632
C27	C	0.724122	-0.510676	-0.354600
C28	C	1.063498	-0.786102	-0.354596
C29	C	1.063542	-0.903932	-0.354616
C30	C	1.006922	-1.071513	-0.411653
C31	C	1.006632	-0.948954	-0.411470
C32	C	1.042549	-0.948523	-0.277058
C33	C	1.042203	-1.071122	-0.277404
C34	C	1.141502	-1.071022	-0.374509
C35	C	1.141024	-0.948415	-0.376205
C36	C	1.255504	-0.510692	-0.354628
C37	C	1.337303	-0.510700	-0.354637
C38	C	1.063596	-0.510600	-0.546559
C39	C	1.063615	-0.510568	-0.628358
C40	C	1.063625	-0.234167	-0.354633
C41	C	1.063657	-0.116337	-0.354644
C42	C	1.110720	-0.442707	-0.816565
C43	C	1.110728	-0.442676	-0.893424
C44	C	1.016563	-0.578266	-0.893389
C45	C	1.016551	-0.578290	-0.816532
C46	C	1.063634	-0.510513	-0.778122
C47	C	1.063654	-0.510457	-0.931838
C48	C	1.063663	-0.510424	-1.015172
C49	C	1.063624	-0.510544	-0.694783
C50	C	1.063549	-0.510669	-0.163400
C51	C	1.063672	-0.510401	-0.081602
H52	H	0.494187	-0.387531	-0.269379
H53	H	0.985298	-1.099813	-0.260576
C54	C	0.967486	-0.907793	-0.254064
C55	C	0.949663	-0.948336	-0.184774
C56	C	0.880523	-0.910831	-0.163570
H57	H	0.931722	-0.929899	-0.288761
H58	H	0.968446	-0.832736	-0.251974
H59	H	0.948697	-1.023377	-0.186870
H60	H	0.985408	-0.926234	-0.150062
H61	H	0.881483	-0.835774	-0.161479
H62	H	0.844765	-0.932939	-0.198271
H63	H	0.868424	-0.938326	-0.116552
C64	C	0.643932	-0.369048	-0.256525
C65	C	0.593824	-0.309623	-0.215363
C66	C	0.632105	-0.241689	-0.168279
H67	H	0.673936	-0.322813	-0.284648
H68	H	0.673879	-0.409517	-0.224373
H69	H	0.563890	-0.269156	-0.247511
H70	H	0.563819	-0.355829	-0.187226
H71	H	0.662052	-0.282158	-0.136127
H72	H	0.662108	-0.195461	-0.196407
H73	H	0.598113	-0.201368	-0.140340
H74	H	0.494229	-0.633842	-0.439871
H75	H	0.978203	-0.633505	-0.785230
H76	H	0.633656	-0.633839	-0.439855
H77	H	1.081734	-1.100776	-0.233479
C78	C	0.965373	-0.651899	-0.934961
C79	C	0.924120	-0.711267	-0.884840
C80	C	0.876951	-0.779103	-0.923107
H81	H	0.993438	-0.698175	-0.964943
H82	H	0.933282	-0.611362	-0.964927
H83	H	0.956207	-0.751801	-0.854886
H84	H	0.896041	-0.665019	-0.854856
H85	H	0.844860	-0.738566	-0.953073
H86	H	0.905022	-0.825371	-0.953088
H87	H	0.848951	-0.819385	-0.889106
H88	H	1.019766	-0.918802	-0.468979
H89	H	1.160652	-1.101868	-0.430103
H90	H	1.149069	-0.387460	-0.924721
H91	H	0.949572	-1.102414	-0.398661
C92	C	1.024360	-1.110896	-0.488529
C93	C	1.086398	-1.176144	-0.486083
C94	C	1.102478	-1.212464	-0.556887
H95	H	1.033775	-1.052293	-0.519788
H96	H	0.983770	-1.149896	-0.506954
H97	H	1.126980	-1.137144	-0.467669
H98	H	1.077000	-1.234762	-0.454839
H99	H	1.061887	-1.251465	-0.575312
H100	H	1.111890	-1.153855	-0.588140
H101	H	1.144568	-1.256746	-0.555236
H102	H	0.948921	-0.919719	-0.398309
H103	H	1.082562	-0.919362	-0.233421
H104	H	1.156855	-0.919267	-0.433284
H105	H	1.183771	-1.100007	-0.332986
C106	C	1.200305	-0.907685	-0.324757
C107	C	1.184290	-0.939293	-0.252836
C108	C	1.238885	-0.901804	-0.205418
H109	H	1.202008	-0.832680	-0.327091
H110	H	1.246501	-0.935838	-0.339038
H111	H	1.138107	-0.911136	-0.238559
H112	H	1.182593	-1.014292	-0.250479
H113	H	1.285081	-0.929957	-0.219698
H114	H	1.240585	-0.826800	-0.207758
H115	H	1.228031	-0.923253	-0.156616
H116	H	1.149055	-0.387515	-0.785294
