data_functionalizedCrystal
_audit_creation_method	'MofGen! by Chris Wilmer'
_symmetry_space_group_name_H-M	'P1'
_symmetry_Int_Tables_number	1
_symmetry_cell_setting	triclinic
loop_
_symmetry_equiv_pos_as_xyz
  x,y,z
_cell_length_a	16.109301
_cell_length_b	19.188924
_cell_length_c	14.586319
_cell_angle_alpha	89.994146
_cell_angle_beta	89.998857
_cell_angle_gamma	83.301774
loop_
_atom_site_label
_atom_site_type_symbol
_atom_site_fract_x
_atom_site_fract_y
_atom_site_fract_z
O1	O	1.102831	0.089745	-0.076194
O2	O	0.860731	0.100913	-0.076208
O3	O	0.988770	-0.006310	-0.076190
O4	O	0.974792	0.196969	-0.076212
O5	O	0.988762	-0.006312	0.076291
O6	O	0.860722	0.100912	0.076273
O7	O	1.102822	0.089743	0.076287
Cu8	Cu	0.981771	0.095328	0.090203
Cu9	Cu	0.981782	0.095329	-0.090124
O10	O	0.974783	0.196967	0.076269
C11	C	0.829754	0.100460	0.000031
C12	C	0.737463	0.099104	0.000026
C13	C	0.428267	0.158294	0.000036
C14	C	0.514983	0.159575	0.000030
C15	C	0.535281	0.032358	0.000032
C16	C	0.448567	0.031077	0.000031
C17	C	0.395061	0.094048	0.000038
C18	C	0.568492	0.096609	0.000033
C19	C	0.662513	0.097997	0.000027
C20	C	0.301034	0.092660	0.000042
C21	C	0.988314	-0.032323	0.000051
C22	C	0.986958	-0.109831	0.000054
C23	C	0.986330	-0.146231	-0.083064
C24	C	0.985044	-0.219057	-0.083071
C25	C	0.984403	-0.255482	0.000045
C26	C	0.985027	-0.219073	0.083173
C27	C	0.986304	-0.146248	0.083178
N28	N	1.029706	-0.375040	0.061908
N29	N	1.028494	-0.444221	0.061898
C30	C	0.980552	-0.474900	0.000035
N31	N	0.933878	-0.433786	-0.061830
N32	N	0.935094	-0.364598	-0.061823
C33	C	0.983017	-0.334448	0.000049
C34	C	0.978528	-0.590265	-0.083095
C35	C	0.977237	-0.663092	-0.083099
C36	C	0.977228	-0.663108	0.083147
C37	C	0.978511	-0.590282	0.083148
C38	C	0.979165	-0.553865	0.000024
C39	C	1.133800	0.090197	0.000046
C40	C	1.226090	0.091553	0.000044
C41	C	0.975239	0.222980	0.000025
C42	C	0.976595	0.300488	0.000017
N43	N	0.981770	0.095326	0.217034
N44	N	0.981790	0.095326	-0.216955
C45	C	1.038484	0.047863	0.452049
C46	C	1.038487	0.047861	0.548030
C47	C	0.925069	0.142791	0.548024
C48	C	0.925064	0.142788	0.452044
C49	C	0.981776	0.095325	0.404059
C50	C	0.981784	0.095326	0.596020
C51	C	0.981786	0.095324	0.700087
C52	C	0.981773	0.095326	0.299985
H53	H	0.986860	-0.116585	-0.150750
H54	H	0.878897	0.181435	0.587102
H55	H	0.878881	0.181438	0.412968
N56	N	0.548899	0.225202	0.000053
N57	N	0.595019	0.240103	0.064331
H58	H	0.618972	0.286455	0.064349
H59	H	0.421532	-0.021243	0.000030
H60	H	0.984528	-0.248698	-0.150757
N61	N	0.976583	-0.700296	0.168057
N62	N	0.977153	-0.667784	0.242266
H63	H	0.976696	-0.694051	0.302237
H64	H	1.084662	0.009215	0.412982
N65	N	0.373624	0.222620	0.000044
N66	N	0.403287	0.279978	0.000043
H67	H	0.364698	0.325412	0.000047
N68	N	1.096396	-0.000631	0.597055
N69	N	1.070169	-0.043980	0.650608
H70	H	1.111066	-0.078236	0.685230
H71	H	0.984502	-0.248735	0.150846
H72	H	0.578855	-0.018910	0.000029
H73	H	0.986812	-0.116611	0.150864
H74	H	0.979056	-0.560613	-0.150780
N75	N	0.976606	-0.700261	-0.168018
N76	N	1.035352	-0.698568	-0.223658
H77	H	1.034909	-0.724818	-0.283636
N78	N	0.979155	-0.553107	0.168060
N79	N	0.978578	-0.585635	0.242266
H80	H	0.979030	-0.559381	0.302240
