data_functionalizedCrystal
_audit_creation_method	'MofGen! by Chris Wilmer'
_symmetry_space_group_name_H-M	'P1'
_symmetry_Int_Tables_number	1
_symmetry_cell_setting	triclinic
loop_
_symmetry_equiv_pos_as_xyz
  x,y,z
_cell_length_a	14.853558
_cell_length_b	13.930277
_cell_length_c	14.853567
_cell_angle_alpha	89.999243
_cell_angle_beta	96.366968
_cell_angle_gamma	90.006691
loop_
_atom_site_label
_atom_site_type_symbol
_atom_site_fract_x
_atom_site_fract_y
_atom_site_fract_z
O1	O	1.196374	0.079811	-0.117664
O2	O	1.696374	0.579811	0.382336
O3	O	0.933913	0.079814	-0.131694
O4	O	1.433913	0.579814	0.368306
O5	O	1.072154	0.079815	0.006551
O6	O	1.572154	0.579815	0.506551
O7	O	1.058133	0.079810	-0.255909
O8	O	1.558133	0.579810	0.244091
O9	O	1.072135	-0.079846	0.006554
O10	O	1.572135	0.420154	0.506554
O11	O	0.933894	-0.079847	-0.131691
O12	O	1.433894	0.420153	0.368309
O13	O	1.196354	-0.079851	-0.117661
O14	O	1.696354	0.420149	0.382339
Zn15	Zn	1.065121	-0.105199	-0.124675
Zn16	Zn	1.565121	0.394801	0.375325
Zn17	Zn	1.065146	0.105162	-0.124679
Zn18	Zn	1.565146	0.605162	0.375321
O19	O	1.058113	-0.079852	-0.255906
O20	O	1.558113	0.420148	0.244094
C21	C	0.900314	-0.000016	-0.131058
C22	C	1.400314	0.499984	0.368942
C23	C	0.800230	-0.000014	-0.129158
C24	C	1.300230	0.499986	0.370842
C25	C	0.753221	0.087021	-0.128268
C26	C	1.253221	0.587021	0.371732
C27	C	0.753198	-0.087048	-0.128254
C28	C	1.253198	0.412952	0.371746
C29	C	0.659164	-0.087050	-0.126464
C30	C	1.159164	0.412950	0.373536
C31	C	0.612155	-0.000015	-0.125574
C32	C	1.112155	0.499985	0.374426
C33	C	0.659179	0.087022	-0.126475
C34	C	1.159179	0.587022	0.373525
C35	C	0.612135	-0.174085	-0.125553
C36	C	1.112135	0.325915	0.374447
C37	C	0.518095	-0.174090	-0.123762
C38	C	1.018095	0.325910	0.376238
C39	C	0.471083	-0.087054	-0.122879
C40	C	0.971083	0.412946	0.377121
C41	C	0.518113	-0.000014	-0.123781
C42	C	1.018113	0.499986	0.376219
C43	C	0.471103	0.087022	-0.122891
C44	C	0.971103	0.587022	0.377109
C45	C	0.518130	0.174063	-0.123799
C46	C	1.018130	0.674063	0.376201
C47	C	0.612166	0.174059	-0.125591
C48	C	1.112166	0.674059	0.374409
C49	C	0.377047	-0.087049	-0.121087
C50	C	0.877047	0.412951	0.378913
C51	C	0.377061	0.087023	-0.121098
C52	C	0.877061	0.587023	0.378902
N53	N	1.065110	-0.248765	-0.124672
N54	N	1.565110	0.251235	0.375328
C55	C	1.003931	-0.701035	-0.185870
C56	C	1.503931	-0.201035	0.314130
C57	C	1.126387	-0.701003	-0.063481
C58	C	1.626387	-0.201003	0.436519
C59	C	1.126376	-0.600508	-0.063478
C60	C	1.626376	-0.100508	0.436522
C61	C	1.065143	-0.550271	-0.124673
C62	C	1.565143	-0.050271	0.375327
C63	C	1.003920	-0.600530	-0.185871
C64	C	1.503920	-0.100530	0.314129
C65	C	1.187604	-0.550241	-0.002288
C66	C	1.687604	-0.050241	0.497712
C67	C	1.187596	-0.449739	-0.002283
C68	C	1.687596	0.050261	0.497717
C69	C	1.126358	-0.399501	-0.063475
C70	C	1.626358	0.100499	0.436525
C71	C	1.065132	-0.449766	-0.124674
C72	C	1.565132	0.050234	0.375326
C73	C	1.003898	-0.399529	-0.185869
C74	C	1.503898	0.100471	0.314131
C75	C	0.942668	-0.449792	-0.247065
C76	C	1.442668	0.050208	0.252935
C77	C	0.942682	-0.550291	-0.247062
C78	C	1.442682	-0.050291	0.252938
C79	C	1.126344	-0.299002	-0.063477
C80	C	1.626344	0.200998	0.436523
C81	C	1.003888	-0.299024	-0.185870
C82	C	1.503888	0.200976	0.314130
C83	C	1.229953	-0.000019	-0.118296
C84	C	1.729953	0.499981	0.381704
C85	C	1.330037	-0.000014	-0.120197
C86	C	1.830037	0.499986	0.379803
C87	C	1.071509	-0.000013	0.040141
C88	C	1.571509	0.499987	0.540141
C89	C	1.069605	-0.000004	0.140225
C90	C	1.569605	0.499996	0.640225
N91	N	1.065164	0.248728	-0.124675
N92	N	1.565164	0.748728	0.375325
C93	C	1.058758	-0.000022	-0.289496
C94	C	1.558758	0.499978	0.210504
C95	C	1.060662	-0.000024	-0.389580
C96	C	1.560662	0.499976	0.110420
C97	C	0.979439	-0.000021	0.552756
C98	C	1.479439	0.499979	1.052756
C99	C	1.143673	-0.000024	0.574042
C100	C	1.643673	0.499976	1.074042
C101	C	1.145463	-0.000018	0.480009
C102	C	1.645463	0.499982	0.980009
C103	C	1.064240	-0.000015	0.422344
C104	C	1.564240	0.499985	0.922344
C105	C	0.981227	-0.000019	0.458713
C106	C	1.481227	0.499981	0.958713
C107	C	1.228474	-0.000024	0.443632
C108	C	1.728474	0.499976	0.943632
C109	C	1.230268	-0.000020	0.349593
C110	C	1.730268	0.499980	0.849593
C111	C	1.149044	-0.000011	0.291927
C112	C	1.649044	0.499989	0.791927
C113	C	1.066027	-0.000013	0.328301
C114	C	1.566027	0.499987	0.828301
C115	C	0.984805	-0.000010	0.270637
C116	C	1.484805	0.499990	0.770637
C117	C	0.901787	-0.000006	0.307009
C118	C	1.401787	0.499994	0.807009
C119	C	0.900003	-0.000009	0.401047
C120	C	1.400003	0.499991	0.901047
C121	C	1.150828	-0.000007	0.197890
C122	C	1.650828	0.499993	0.697890
C123	C	0.986592	-0.000008	0.176594
C124	C	1.486592	0.499992	0.676594
H125	H	0.650418	-0.244945	-0.126270
H126	H	1.150418	0.255055	0.373730
Cl127	Cl	0.799683	-0.000011	0.234506
Cl128	Cl	1.299683	0.499989	0.734506
H129	H	0.479843	0.244927	-0.123070
H130	H	0.979843	0.744927	0.376930
Cl131	Cl	0.317970	0.196446	-0.119986
Cl132	Cl	0.817970	0.696446	0.380014
H133	H	0.832414	-0.000007	0.430670
H134	H	1.332414	0.499993	0.930670
Cl135	Cl	1.264566	-0.386558	0.074649
Cl136	Cl	1.764566	0.113442	0.574649
Cl137	Cl	1.203319	-0.235820	0.013443
Cl138	Cl	1.703319	0.264180	0.513443
H139	H	0.892815	-0.408878	-0.296894
H140	H	1.392815	0.091122	0.203106
H141	H	0.650464	0.244923	-0.126329
H142	H	1.150464	0.744923	0.373671
H143	H	1.218419	-0.000017	0.168279
H144	H	1.718419	0.499983	0.668279
Cl145	Cl	1.264585	-0.613393	0.074634
Cl146	Cl	1.764585	-0.113393	0.574634
Cl147	Cl	0.865715	-0.613481	-0.323991
Cl148	Cl	1.365715	-0.113481	0.176009
H149	H	0.791514	0.157888	-0.129011
H150	H	1.291514	0.657888	0.370989
H151	H	0.791480	-0.157909	-0.128971
H152	H	1.291480	0.342091	0.371029
H153	H	0.911848	-0.000014	0.582375
H154	H	1.411848	0.499986	1.082375
Cl155	Cl	0.884477	0.000003	0.104108
Cl156	Cl	1.384477	0.500003	0.604108
Cl157	Cl	0.458983	-0.283511	-0.122632
Cl158	Cl	0.958983	0.216489	0.377368
H159	H	0.338760	-0.157917	-0.120355
H160	H	0.838760	0.342083	0.379645
H161	H	1.209801	-0.000033	0.620998
H162	H	1.709801	0.499967	1.120998
H163	H	0.954075	-0.741962	-0.235693
H164	H	1.454075	-0.241962	0.264307
H165	H	0.954021	-0.258127	-0.235699
H166	H	1.454021	0.241873	0.264301
Cl167	Cl	1.334630	-0.000010	0.303876
Cl168	Cl	1.834630	0.499990	0.803876
Cl169	Cl	1.203368	-0.764155	0.013440
Cl170	Cl	1.703368	-0.264155	0.513440
H171	H	1.294601	-0.000035	0.490589
H172	H	1.794601	0.499965	0.990589
