data_functionalizedCrystal
_audit_creation_method	'MofGen! by Chris Wilmer'
_symmetry_space_group_name_H-M	'P1'
_symmetry_Int_Tables_number	1
_symmetry_cell_setting	triclinic
loop_
_symmetry_equiv_pos_as_xyz
  x,y,z
_cell_length_a	12.759401
_cell_length_b	13.032721
_cell_length_c	12.759393
_cell_angle_alpha	82.851972
_cell_angle_beta	90.018496
_cell_angle_gamma	97.204304
loop_
_atom_site_label
_atom_site_type_symbol
_atom_site_fract_x
_atom_site_fract_y
_atom_site_fract_z
Zn1	Zn	1.553098	-0.415970	0.647064
Zn2	Zn	1.530656	-0.590752	0.493688
Zn3	Zn	1.377393	-0.416025	0.471410
Zn4	Zn	1.355063	-0.590671	0.669319
O5	O	1.454052	-0.503355	0.570370
O6	O	1.697140	-0.439166	0.626728
O7	O	1.510279	-0.567631	0.343719
O8	O	1.419437	-0.269780	0.476074
O9	O	1.680653	-0.567577	0.514043
O10	O	1.548527	-0.269740	0.605126
O11	O	1.397677	-0.439259	0.327352
O12	O	1.227411	-0.439181	0.497654
O13	O	1.381379	-0.567440	0.813381
O14	O	1.211005	-0.567493	0.643057
O15	O	1.526875	-0.439088	0.797030
O16	O	1.488626	-0.736978	0.535623
O17	O	1.359619	-0.736919	0.664659
C18	C	1.181087	-0.503335	0.570354
C19	C	1.064309	-0.503352	0.570375
C20	C	1.000918	-0.570271	0.645989
C21	C	0.891192	-0.570285	0.646002
C22	C	0.908258	-0.436457	0.494778
C23	C	1.017982	-0.436439	0.494770
C24	C	0.991064	-0.647539	0.733294
C25	C	0.881338	-0.647552	0.733307
C26	C	1.419293	-0.774866	0.604997
C27	C	1.404519	-0.891020	0.619845
C28	C	1.461819	-0.942800	0.562668
C29	C	1.446551	-1.062851	0.578013
C30	C	1.728083	-0.503375	0.570388
C31	C	1.844859	-0.503383	0.570395
C32	C	1.454139	-0.503249	0.844390
C33	C	1.454176	-0.503204	0.961161
C34	C	1.488976	-0.230782	0.535632
C35	C	1.503859	-0.114628	0.520829
C36	C	1.454036	-0.503384	0.297407
C37	C	1.454240	-0.503135	0.180599
C38	C	1.529946	-0.436365	1.007510
C39	C	1.529976	-0.436327	1.117230
C40	C	1.378462	-0.569977	1.134243
C41	C	1.378429	-0.570009	1.024525
C42	C	1.617424	-0.359206	0.997689
C43	C	1.617454	-0.359168	1.107409
H44	H	0.870525	-0.381977	0.433224
C45	C	1.716804	-0.398385	0.956701
H46	H	1.761087	-0.415805	1.014371
H47	H	1.696629	-0.458330	0.922428
H48	H	1.754021	-0.345176	0.908026
C49	C	1.591355	-0.255312	1.140165
H50	H	1.592237	-0.258840	1.214975
H51	H	1.642450	-0.200155	1.110173
H52	H	1.523240	-0.242889	1.115571
H53	H	1.023631	-0.625956	0.811946
C54	C	1.023757	-0.751341	0.706989
H55	H	0.962388	-0.797581	0.695286
H56	H	1.067239	-0.738846	0.645159
H57	H	1.061802	-0.781646	0.764309
C58	C	1.295149	-0.643462	1.203940
H59	H	1.250014	-0.683269	1.160619
H60	H	1.329512	-0.688985	1.252547
H61	H	1.254504	-0.603460	1.241640
H62	H	1.564228	-1.070087	0.460517
H63	H	1.386190	-1.107394	0.638333
C64	C	1.543363	-0.882631	0.481192
H65	H	1.542923	-0.809837	0.481563
H66	H	1.611702	-0.900397	0.498882
H67	H	1.525758	-0.900532	0.412856
C68	C	1.322976	-0.951189	0.701322
H69	H	1.323407	-1.023984	0.700943
H70	H	1.340571	-0.933285	0.769654
H71	H	1.254632	-0.933427	0.683623
H72	H	1.316727	-0.624432	0.986792
C73	C	0.827111	-0.756854	0.717621
H74	H	0.879269	-0.801794	0.711150
H75	H	0.782326	-0.783817	0.776708
H76	H	0.786295	-0.752380	0.655312
C77	C	1.601982	-0.249886	0.943528
H78	H	1.601971	-0.249911	0.869073
H79	H	1.536508	-0.231790	0.966028
H80	H	1.657958	-0.200514	0.962055
C81	C	1.087709	-0.362826	0.411598
H82	H	1.044400	-0.322988	0.366568
H83	H	1.136347	-0.317336	0.446059
H84	H	1.125385	-0.402746	0.370836
C85	C	0.840389	-0.608528	0.832816
H86	H	0.898079	-0.591146	0.877126
H87	H	0.806148	-0.548583	0.812792
H88	H	0.791684	-0.661792	0.869931
H89	H	1.696054	-0.380844	1.139953
