data_functionalizedCrystal
_audit_creation_method	'MofGen! by Chris Wilmer'
_symmetry_space_group_name_H-M	'P1'
_symmetry_Int_Tables_number	1
_symmetry_cell_setting	triclinic
loop_
_symmetry_equiv_pos_as_xyz
  x,y,z
_cell_length_a	14.971482
_cell_length_b	9.065218
_cell_length_c	14.048226
_cell_angle_alpha	90.013832
_cell_angle_beta	89.994098
_cell_angle_gamma	95.685720
loop_
_atom_site_label
_atom_site_type_symbol
_atom_site_fract_x
_atom_site_fract_y
_atom_site_fract_z
O1	O	1.188382	-0.192235	-0.079164
O2	O	0.928153	-0.215264	-0.079171
O3	O	1.063646	0.011002	-0.079143
O4	O	1.052889	-0.418501	-0.079192
O5	O	1.063630	0.011015	0.079178
O6	O	0.928136	-0.215251	0.079150
O7	O	1.188365	-0.192222	0.079157
Zn8	Zn	1.058248	-0.203734	0.104291
Zn9	Zn	1.058270	-0.203752	-0.104305
O10	O	1.052872	-0.418488	0.079129
C11	C	0.894812	-0.214229	-0.000011
C12	C	0.795492	-0.211145	-0.000012
C13	C	0.748827	-0.209686	0.086290
C14	C	0.655507	-0.206765	0.086291
C15	C	0.608852	-0.205314	-0.000010
C16	C	0.655524	-0.206770	-0.086319
C17	C	0.748843	-0.209680	-0.086320
C18	C	0.461017	-0.200708	-0.086312
C19	C	0.367691	-0.197800	-0.086312
C20	C	0.367681	-0.197793	0.086299
C21	C	0.461000	-0.200703	0.086298
C22	C	0.507665	-0.202161	-0.000011
C23	C	1.062604	0.065974	0.000022
C24	C	1.059513	0.229754	0.000034
C25	C	1.221706	-0.193257	-0.000005
C26	C	1.321026	-0.196341	-0.000010
N27	N	1.058240	-0.203721	0.246651
C28	C	1.053914	0.526540	-0.000012
C29	C	1.057005	0.362760	0.000048
N30	N	1.058285	-0.203753	-0.246665
C31	C	1.118256	-0.103572	0.296482
C32	C	1.118262	-0.103571	0.396139
C33	C	1.058255	-0.203728	0.445965
C34	C	0.998233	-0.303882	0.396127
C35	C	0.998223	-0.303874	0.296472
C36	C	0.998259	-0.303893	0.603842
C37	C	0.998270	-0.303902	0.703504
C38	C	1.118297	-0.103589	0.703509
C39	C	1.118287	-0.103582	0.603853
C40	C	1.058266	-0.203738	0.554023
H41	H	0.786806	-0.210879	0.156567
Br42	Br	0.524316	-0.202694	0.203423
H43	H	0.617531	-0.205578	-0.156588
Br44	Br	1.199757	0.032328	0.771139
Br45	Br	0.916764	-0.439788	0.228844
Br46	Br	0.916795	-0.439815	0.536218
H47	H	0.329707	-0.196620	-0.156587
H48	H	0.949405	-0.385459	0.744067
H49	H	0.499008	-0.201895	-0.156595
Br50	Br	0.812176	-0.211647	-0.203449
H51	H	0.329682	-0.196606	0.156575
Br52	Br	1.199732	0.032331	0.536230
H53	H	0.617519	-0.205552	0.156567
Br54	Br	0.916787	-0.439802	0.463744
Br55	Br	1.199704	0.032353	0.228872
H56	H	1.167130	-0.022021	0.436711
