data_functionalizedCrystal
_audit_creation_method	'MofGen! by Chris Wilmer'
_symmetry_space_group_name_H-M	'P1'
_symmetry_Int_Tables_number	1
_symmetry_cell_setting	triclinic
loop_
_symmetry_equiv_pos_as_xyz
  x,y,z
_cell_length_a	14.971490
_cell_length_b	14.048226
_cell_length_c	14.971494
_cell_angle_alpha	89.995286
_cell_angle_beta	96.383397
_cell_angle_gamma	90.008793
loop_
_atom_site_label
_atom_site_type_symbol
_atom_site_fract_x
_atom_site_fract_y
_atom_site_fract_z
O1	O	-1.186948	-0.079208	0.116580
O2	O	-0.686948	0.420792	0.616580
O3	O	-0.926549	-0.079199	0.130535
O4	O	-0.426549	0.420801	0.630535
O5	O	-1.063724	-0.079202	-0.006642
O6	O	-0.563724	0.420798	0.493358
O7	O	-1.049773	-0.079205	0.253757
O8	O	-0.549773	0.420795	0.753757
O9	O	-1.063708	0.079120	-0.006650
O10	O	-0.563708	0.579120	0.493350
O11	O	-0.926533	0.079123	0.130527
O12	O	-0.426533	0.579123	0.630527
O13	O	-1.186932	0.079113	0.116572
O14	O	-0.686932	0.579113	0.616572
Zn15	Zn	-1.056730	0.104255	0.123548
Zn16	Zn	-0.556730	0.604255	0.623548
Zn17	Zn	-1.056751	-0.104340	0.123559
Zn18	Zn	-0.556751	0.395660	0.623559
O19	O	-1.049757	0.079116	0.253749
O20	O	-0.549757	0.579116	0.753749
C21	C	-0.893216	-0.000037	0.129907
C22	C	-0.393216	0.499963	0.629907
C23	C	-0.793919	-0.000033	0.128034
C24	C	-0.293919	0.499967	0.628034
C25	C	-0.366222	-0.086352	0.119961
C26	C	0.133778	0.413648	0.619961
C27	C	-0.459523	-0.086349	0.121717
C28	C	0.040477	0.413651	0.621717
C29	C	-0.506159	-0.000045	0.122597
C30	C	-0.006159	0.499955	0.622597
C31	C	-0.459492	0.086261	0.121711
C32	C	0.040508	0.586261	0.621711
C33	C	-0.366194	0.086258	0.119948
C34	C	0.133806	0.586258	0.619948
C35	C	-0.653954	0.086263	0.125387
C36	C	-0.153954	0.586263	0.625387
C37	C	-0.747258	0.086267	0.127151
C38	C	-0.247258	0.586267	0.627151
C39	C	-0.747282	-0.086344	0.127156
C40	C	-0.247282	0.413656	0.627156
C41	C	-0.653985	-0.086348	0.125393
C42	C	-0.153985	0.413652	0.625393
C43	C	-0.607324	-0.000040	0.124509
C44	C	-0.107324	0.499960	0.624509
C45	C	-1.063091	-0.000042	-0.039970
C46	C	-0.563091	0.499958	0.460030
C47	C	-1.061217	-0.000047	-0.139267
C48	C	-0.561217	0.499953	0.360733
N49	N	-1.056721	0.246615	0.123540
N50	N	-0.556721	0.746615	0.623540
C51	C	-0.220265	-0.000049	0.117202
C52	C	0.279735	0.499951	0.617202
C53	C	-0.319561	-0.000052	0.119078
C54	C	0.180439	0.499948	0.619078
N55	N	-1.056767	-0.246701	0.123560
N56	N	-0.556767	0.253299	0.623560
C57	C	-1.117482	0.296432	0.062823
C58	C	-0.617482	0.796432	0.562823
C59	C	-1.117488	0.396090	0.062823
C60	C	-0.617488	0.896090	0.562823
C61	C	-1.056737	0.445929	0.123544
C62	C	-0.556737	0.945929	0.623544
C63	C	-0.995970	0.396105	0.184264
C64	C	-0.495970	0.896105	0.684264
C65	C	-0.995961	0.296449	0.184260
C66	C	-0.495961	0.796449	0.684260
C67	C	-0.995996	0.603819	0.184271
C68	C	-0.495996	1.103819	0.684271
C69	C	-0.996007	0.703482	0.184277
C70	C	-0.496007	1.203482	0.684277
C71	C	-1.117523	0.703460	0.062834
C72	C	-0.617523	1.203460	0.562834
C73	C	-1.117513	0.603804	0.062829
C74	C	-0.617513	1.103804	0.562829
C75	C	-1.056748	0.553987	0.123551
C76	C	-0.556748	1.053987	0.623551
C77	C	-1.060348	-0.086349	-0.185908
C78	C	-0.560348	0.413651	0.314092
C79	C	-1.058582	-0.086350	-0.279207
C80	C	-0.558582	0.413650	0.220793
C81	C	-1.057691	-0.000048	-0.325864
C82	C	-0.557691	0.499952	0.174136
C83	C	-1.058558	0.086261	-0.279217
C84	C	-0.558558	0.586261	0.220783
C85	C	-1.060317	0.086261	-0.185919
C86	C	-0.560317	0.586261	0.314081
C87	C	-1.054892	0.086254	-0.473680
C88	C	-0.554892	0.586254	0.026320
C89	C	-1.053133	0.086255	-0.566985
C90	C	-0.553133	0.586255	-0.066985
C91	C	-1.053156	-0.086356	-0.566968
C92	C	-0.553156	0.413644	-0.066968
C93	C	-1.054916	-0.086356	-0.473670
C94	C	-0.554916	0.413644	0.026330
C95	C	-1.055784	-0.000047	-0.427029
C96	C	-0.555784	0.499953	0.072971
C97	C	-1.050390	-0.000045	0.287078
C98	C	-0.550390	0.499955	0.787078
C99	C	-1.052264	-0.000047	0.386374
C100	C	-0.552264	0.499953	0.886374
H101	H	-0.785227	0.156543	0.127872
H102	H	-0.285227	0.656543	0.627872
H103	H	-0.615964	0.156543	0.124678
H104	H	-0.115964	0.656543	0.624678
N105	N	-0.930444	0.449863	0.249751
N106	N	-0.430444	0.949863	0.749751
H107	H	-0.964667	0.491193	0.289415
H108	H	-0.464667	0.991193	0.789415
H109	H	-0.891962	0.403122	0.288153
H110	H	-0.391962	0.903122	0.788153
N111	N	-1.052307	-0.179447	-0.617281
N112	N	-0.552307	0.320553	-0.117281
H113	H	-1.053176	-0.234118	-0.573571
H114	H	-0.553176	0.265882	-0.073571
H115	H	-1.107015	-0.183132	-0.663148
H116	H	-0.607015	0.316868	-0.163148
N117	N	-0.930472	0.757226	0.249767
N118	N	-0.430472	1.257226	0.749767
H119	H	-0.890845	0.798592	0.215517
H120	H	-0.390845	1.298592	0.715517
H121	H	-0.964753	0.798500	0.289423
H122	H	-0.464753	1.298500	0.789423
N123	N	-1.183054	0.449808	-0.002644
N124	N	-0.683054	0.949808	0.497356
H125	H	-1.172715	0.432478	-0.066153
H126	H	-0.672715	0.932478	0.433847
H127	H	-1.246497	0.432400	0.007878
H128	H	-0.746497	0.932400	0.507878
H129	H	-1.052400	0.156529	-0.604971
H130	H	-0.552400	0.656529	-0.104971
H131	H	-0.497472	0.156531	0.122421
H132	H	0.002528	0.656531	0.622421
N133	N	-1.061294	-0.179413	-0.135554
N134	N	-0.561294	0.320587	0.364446
H135	H	-1.116390	-0.217168	-0.158956
H136	H	-0.616390	0.282832	0.341044
H137	H	-1.005544	-0.217061	-0.144602
H138	H	-0.505544	0.282939	0.355398
N139	N	-1.061257	0.179339	-0.135604
N140	N	-0.561257	0.679339	0.364396
H141	H	-1.005542	0.217072	-0.144654
H142	H	-0.505542	0.717072	0.355346
H143	H	-1.116388	0.216995	-0.159054
H144	H	-0.616388	0.716995	0.340946
N145	N	-0.603680	-0.179429	0.124447
N146	N	-0.103680	0.320571	0.624447
H147	H	-0.647395	-0.234104	0.125271
H148	H	-0.147395	0.265896	0.625271
H149	H	-0.572164	-0.183180	0.068308
H150	H	-0.072164	0.316820	0.568308
N151	N	-0.930422	0.242713	0.249742
N152	N	-0.430422	0.742713	0.749742
H153	H	-0.891938	0.289406	0.288210
H154	H	-0.391938	0.789406	0.788210
H155	H	-0.964696	0.201347	0.289342
H156	H	-0.464696	0.701347	0.789342
H157	H	-0.328203	0.156532	0.119238
H158	H	0.171797	0.656532	0.619238
H159	H	-1.057878	-0.156626	-0.317177
H160	H	-0.557878	0.343374	0.182823
H161	H	-1.055579	0.156537	-0.435706
H162	H	-0.555579	0.656537	0.064294
N163	N	-0.930462	0.550083	0.249764
N164	N	-0.430462	1.050083	0.749764
H165	H	-0.890820	0.508752	0.215516
H166	H	-0.390820	1.008752	0.715516
H167	H	-0.892040	0.596834	0.288220
H168	H	-0.392040	1.096834	0.788220
N169	N	-1.055886	-0.179436	-0.423344
N170	N	-0.555886	0.320564	0.076656
H171	H	-1.055067	-0.234113	-0.467045
H172	H	-0.555067	0.265887	0.032955
H173	H	-1.001211	-0.183192	-0.377442
H174	H	-0.501211	0.316808	0.122558
H175	H	-1.057827	0.156529	-0.317213
H176	H	-0.557827	0.656529	0.182787
H177	H	-0.497511	-0.156624	0.122431
H178	H	0.002489	0.343376	0.622431
N179	N	-0.315919	-0.179435	0.119012
N180	N	0.184081	0.320565	0.619012
H181	H	-0.324971	-0.217171	0.174722
H182	H	0.175029	0.282829	0.674722
H183	H	-0.339378	-0.217083	0.063877
H184	H	0.160622	0.282917	0.563877
N185	N	-0.797602	-0.179435	0.128114
N186	N	-0.297602	0.320565	0.628114
H187	H	-0.863783	-0.166340	0.129360
H188	H	-0.363783	0.333660	0.629360
H189	H	-0.788490	-0.217125	0.072404
H190	H	-0.288490	0.282875	0.572404
H191	H	-1.166955	0.255860	0.013381
H192	H	-0.666955	0.755860	0.513381
H193	H	-1.166985	0.563225	0.013390
H194	H	-0.666985	1.063225	0.513390
H195	H	-1.167000	0.744027	0.013393
H196	H	-0.667000	1.244027	0.513393
