data_functionalizedCrystal
_audit_creation_method	'MofGen! by Chris Wilmer'
_symmetry_space_group_name_H-M	'P1'
_symmetry_Int_Tables_number	1
_symmetry_cell_setting	triclinic
loop_
_symmetry_equiv_pos_as_xyz
  x,y,z
_cell_length_a	11.792241
_cell_length_b	12.837942
_cell_length_c	11.892095
_cell_angle_alpha	85.697431
_cell_angle_beta	93.921548
_cell_angle_gamma	89.511178
loop_
_atom_site_label
_atom_site_type_symbol
_atom_site_fract_x
_atom_site_fract_y
_atom_site_fract_z
O1	O	-1.527863	-0.135586	-0.093891
O2	O	-1.199010	-0.150236	-0.093918
O3	O	-1.356144	0.008033	-0.093898
O4	O	-1.370729	-0.293854	-0.093911
O5	O	-1.343041	-0.005143	0.094108
O6	O	-1.185906	-0.163411	0.094088
O7	O	-1.514760	-0.148761	0.094114
Zn8	Zn	-1.348253	-0.158178	0.123951
Zn9	Zn	-1.365517	-0.140819	-0.123755
O10	O	-1.357626	-0.307030	0.094095
C11	C	-1.150074	-0.155903	0.000082
C12	C	-1.023782	-0.153148	0.000072
C13	C	-1.563696	-0.143094	0.000112
C14	C	-1.689989	-0.145849	0.000115
C15	C	-1.344666	0.040093	0.000104
C16	C	-1.329972	0.155253	0.000101
C17	C	-0.792554	-0.148084	0.000105
C18	C	-0.921226	-0.150898	0.000087
C19	C	-1.369104	-0.339090	0.000091
C20	C	-1.383798	-0.454249	0.000086
N21	N	-1.336478	-0.170025	0.293004
C22	C	-1.506619	0.395219	0.000091
C23	C	-1.492818	0.503423	0.000088
C24	C	-1.288572	0.479866	0.000084
C25	C	-1.302373	0.371663	0.000087
C26	C	-1.411399	0.329343	0.000092
C27	C	-1.425198	0.221137	0.000103
C28	C	-1.220954	0.197583	0.000091
C29	C	-1.207153	0.305787	0.000088
N30	N	-1.377300	-0.128964	-0.292807
C31	C	-1.459226	-0.046469	0.529667
C32	C	-1.451005	-0.054757	0.648008
C33	C	-1.311809	-0.194885	0.648029
C34	C	-1.320030	-0.186596	0.529688
C35	C	-1.393742	-0.112387	0.470511
C36	C	-1.401969	-0.104104	0.352168
C37	C	-1.262768	-0.244226	0.352191
C38	C	-1.254547	-0.252515	0.470532
H39	H	-1.513973	0.186683	0.000112
Cl40	Cl	-1.494637	-0.010816	0.277777
Cl41	Cl	-1.219135	-0.288160	0.722434
Cl42	Cl	-1.643674	0.342011	0.000126
H43	H	-1.209450	-0.297904	0.304013
H44	H	-1.570356	0.557056	0.000084
H45	H	-1.118387	0.340259	0.000079
H46	H	-1.199808	0.514343	0.000067
Cl47	Cl	-1.101241	0.114760	0.000106
H48	H	-1.519254	0.013949	0.481484
H49	H	-1.504327	-0.001079	0.696169
Cl50	Cl	-1.161882	-0.345800	0.544933
