data_functionalizedCrystal
_audit_creation_method	'MofGen! by Chris Wilmer'
_symmetry_space_group_name_H-M	'P1'
_symmetry_Int_Tables_number	1
_symmetry_cell_setting	triclinic
loop_
_symmetry_equiv_pos_as_xyz
  x,y,z
_cell_length_a	15.995300
_cell_length_b	15.072220
_cell_length_c	14.853567
_cell_angle_alpha	90.002676
_cell_angle_beta	96.446631
_cell_angle_gamma	90.014083
loop_
_atom_site_label
_atom_site_type_symbol
_atom_site_fract_x
_atom_site_fract_y
_atom_site_fract_z
O1	O	1.111157	0.073807	-0.115984
O2	O	1.611157	0.573807	0.384016
O3	O	0.867393	0.073801	-0.130382
O4	O	1.367393	0.573801	0.369618
O5	O	0.995786	0.073807	0.008057
O6	O	1.495786	0.573807	0.508057
O7	O	0.982764	0.073801	-0.254423
O8	O	1.482764	0.573801	0.245577
O9	O	0.995754	-0.073758	0.008049
O10	O	1.495754	0.426242	0.508049
O11	O	0.867361	-0.073764	-0.130389
O12	O	1.367361	0.426236	0.369611
O13	O	1.111125	-0.073758	-0.115992
O14	O	1.611125	0.426242	0.384008
Zn15	Zn	0.989238	-0.097190	-0.123192
Zn16	Zn	1.489238	0.402810	0.376808
Zn17	Zn	0.989280	0.097233	-0.123182
Zn18	Zn	1.489280	0.597233	0.376818
O19	O	0.982732	-0.073764	-0.254431
O20	O	1.482732	0.426236	0.245569
C21	C	0.836181	0.000018	-0.129798
C22	C	1.336181	0.500018	0.370202
C23	C	0.743226	0.000016	-0.128038
C24	C	1.243226	0.500016	0.371962
C25	C	0.573039	0.000023	-0.124787
C26	C	1.073039	0.500023	0.375213
C27	C	0.525688	0.000019	-0.223358
C28	C	1.025688	0.500019	0.276642
C29	C	0.428998	0.000356	-0.221560
C30	C	0.928998	0.500356	0.278440
C31	C	0.405479	0.000029	-0.121587
C32	C	0.905479	0.500029	0.378413
C33	C	0.446573	0.084130	-0.072678
C34	C	0.946573	0.584130	0.427322
C35	C	0.543209	0.084199	-0.075172
C36	C	1.043209	0.584199	0.424828
C37	C	0.543450	-0.083616	-0.073722
C38	C	1.043450	0.416384	0.426278
C39	C	0.446506	-0.084719	-0.073731
C40	C	0.946506	0.415281	0.426269
C41	C	0.310781	0.000035	-0.119773
C42	C	0.810781	0.500035	0.380227
C43	C	0.667737	0.000023	-0.126597
C44	C	1.167737	0.500023	0.373403
N45	N	0.989216	-0.229879	-0.123198
N46	N	1.489216	0.270121	0.376802
C47	C	0.989278	-0.589080	-0.123178
C48	C	1.489278	-0.089080	0.376822
C49	C	0.920346	-0.551477	-0.197006
C50	C	1.420346	-0.051477	0.302994
C51	C	0.920505	-0.448651	-0.197275
C52	C	1.420505	0.051349	0.302725
C53	C	0.989246	-0.410876	-0.123188
C54	C	1.489246	0.089124	0.376812
C55	C	1.076637	-0.448166	-0.143717
C56	C	1.576637	0.051834	0.356283
C57	C	1.076251	-0.551024	-0.144241
C58	C	1.576251	-0.051024	0.355759
C59	C	0.971598	-0.551179	-0.028603
C60	C	1.471598	-0.051179	0.471397
C61	C	0.969594	-0.448316	-0.029235
C62	C	1.469594	0.051684	0.470765
C63	C	0.989234	-0.310163	-0.123192
C64	C	1.489234	0.189837	0.376808
C65	C	0.989296	-0.689794	-0.123176
C66	C	1.489296	-0.189794	0.376824
C67	C	1.142337	0.000028	-0.116575
C68	C	1.642337	0.500028	0.383425
C69	C	1.235292	0.000035	-0.118336
C70	C	1.735292	0.500035	0.381664
C71	C	0.995180	0.000027	0.041641
C72	C	1.495180	0.500027	0.541641
C73	C	0.993412	0.000035	0.141722
C74	C	1.493412	0.500035	0.641722
N75	N	0.989309	0.229922	-0.123168
N76	N	1.489309	0.729922	0.376832
C77	C	0.983338	0.000018	-0.288014
C78	C	1.483338	0.500018	0.211986
C79	C	0.985106	0.000016	-0.388095
C80	C	1.485106	0.500016	0.111905
C81	C	0.909669	0.000016	0.554126
C82	C	1.409669	0.500016	1.054126
C83	C	1.062203	0.000020	0.575643
C84	C	1.562203	0.500020	1.075643
C85	C	1.063866	0.000025	0.481611
C86	C	1.563866	0.500025	0.981611
C87	C	0.988429	0.000024	0.423833
C88	C	1.488429	0.500024	0.923833
C89	C	0.911329	0.000018	0.460086
C90	C	1.411329	0.500018	0.960086
C91	C	1.140964	0.000022	0.445351
C92	C	1.640964	0.500022	0.945351
C93	C	1.142630	0.000026	0.351315
C94	C	1.642630	0.500026	0.851315
C95	C	1.067192	0.000032	0.293535
C96	C	1.567192	0.500032	0.793535
C97	C	0.990089	0.000027	0.329793
C98	C	1.490089	0.500027	0.829793
C99	C	0.914652	0.000026	0.272015
C100	C	1.414652	0.500026	0.772015
C101	C	0.837548	0.000028	0.308271
C102	C	1.337548	0.500028	0.808271
C103	C	0.835891	0.000024	0.402306
C104	C	1.335891	0.500024	0.902306
C105	C	1.068849	0.000036	0.199500
C106	C	1.568849	0.500036	0.699500
C107	C	0.916312	0.000029	0.177975
C108	C	1.416312	0.500029	0.677975
H109	H	0.418240	0.146953	-0.106203
H110	H	0.918240	0.646953	0.393797
Cl111	Cl	0.742718	0.000019	0.235625
Cl112	Cl	1.242718	0.500019	0.735625
H113	H	0.855549	-0.423441	-0.185047
H114	H	1.355549	0.076559	0.314953
H115	H	1.123621	0.000013	0.622691
H116	H	1.623621	0.500013	1.122691
H117	H	1.131626	0.000029	0.169984
H118	H	1.631626	0.500029	0.669984
H119	H	1.129153	-0.575896	-0.092588
H120	H	1.629153	-0.075896	0.407412
Cl121	Cl	0.592911	0.089745	0.036576
Cl122	Cl	1.092911	0.589745	0.536576
Cl123	Cl	0.385097	-0.092697	-0.280902
Cl124	Cl	0.885097	0.407303	0.219098
H125	H	1.202381	0.000014	0.492401
H126	H	1.702381	0.500014	0.992401
Cl127	Cl	1.100277	-0.588055	-0.250729
Cl128	Cl	1.600277	-0.088055	0.249271
H129	H	0.561583	0.147302	-0.110414
H130	H	1.061583	0.647302	0.389586
Cl131	Cl	1.101238	-0.408385	-0.248991
Cl132	Cl	1.601238	0.091615	0.251009
H133	H	0.544212	-0.060282	-0.262974
H134	H	1.044212	0.439718	0.237026
H135	H	0.773118	0.000024	0.431835
H136	H	1.273118	0.500024	0.931835
H137	H	0.563975	-0.147381	-0.106177
H138	H	1.063975	0.352619	0.393823
H139	H	0.431082	-0.090045	-0.000844
H140	H	0.931082	0.409955	0.499156
H141	H	0.432388	0.087023	0.000780
H142	H	0.932388	0.587023	0.500780
Cl143	Cl	1.239558	0.000040	0.305744
Cl144	Cl	1.739558	0.500040	0.805744
H145	H	0.909251	-0.577170	-0.008859
H146	H	1.409251	-0.077170	0.491141
H147	H	0.401208	0.060993	-0.259818
H148	H	0.901208	0.560993	0.240182
Cl149	Cl	0.556046	0.092991	-0.283605
Cl150	Cl	1.056046	0.592991	0.216395
H151	H	0.419194	-0.146939	-0.109447
H152	H	0.919194	0.353061	0.390553
Cl153	Cl	0.592403	-0.084877	0.038475
Cl154	Cl	1.092403	0.415123	0.538475
Cl155	Cl	0.819728	-0.589687	-0.178426
Cl156	Cl	1.319728	-0.089687	0.321574
Cl157	Cl	0.870341	-0.410690	-0.005177
Cl158	Cl	1.370341	0.089310	0.494823
Cl159	Cl	0.937563	-0.591350	-0.304758
Cl160	Cl	1.437563	-0.091350	0.195242
Cl161	Cl	0.821471	0.000035	0.105346
Cl162	Cl	1.321471	0.500035	0.605346
Cl163	Cl	0.812744	0.000026	0.599703
Cl164	Cl	1.312744	0.500026	1.099703
Cl165	Cl	1.157734	-0.410390	-0.062905
Cl166	Cl	1.657734	0.089610	0.437095
Cl167	Cl	1.042070	-0.408635	0.059561
Cl168	Cl	1.542070	0.091365	0.559561
Cl169	Cl	0.937919	-0.410644	-0.305642
Cl170	Cl	1.437919	0.089356	0.194358
Cl171	Cl	1.049205	-0.588721	0.056220
Cl172	Cl	1.549205	-0.088721	0.556220
