data_functionalizedCrystal
_audit_creation_method	'MofGen! by Chris Wilmer'
_symmetry_space_group_name_H-M	'P1'
_symmetry_Int_Tables_number	1
_symmetry_cell_setting	triclinic
loop_
_symmetry_equiv_pos_as_xyz
  x,y,z
_cell_length_a	23.532355
_cell_length_b	23.532407
_cell_length_c	22.010155
_cell_angle_alpha	89.995744
_cell_angle_beta	89.997414
_cell_angle_gamma	82.838123
loop_
_atom_site_label
_atom_site_type_symbol
_atom_site_fract_x
_atom_site_fract_y
_atom_site_fract_z
O1	O	0.755283	0.068986	-0.050454
O2	O	1.005283	0.318986	0.199546
O3	O	1.255283	0.568986	0.449546
O4	O	1.505283	0.818986	0.699546
O5	O	0.589415	0.079020	-0.050474
O6	O	0.839415	0.329020	0.199526
O7	O	1.089415	0.579020	0.449526
O8	O	1.339415	0.829020	0.699526
O9	O	0.677351	-0.008929	-0.050446
O10	O	0.927351	0.241071	0.199554
O11	O	1.177351	0.491071	0.449554
O12	O	1.427351	0.741071	0.699554
O13	O	0.667347	0.156936	-0.050482
O14	O	0.917347	0.406936	0.199518
O15	O	1.167347	0.656936	0.449518
O16	O	1.417347	0.906936	0.699518
O17	O	0.677335	-0.008916	0.050604
O18	O	0.927335	0.241084	0.300604
O19	O	1.177335	0.491084	0.550604
O20	O	1.427335	0.741084	0.800604
O21	O	0.589399	0.079033	0.050576
O22	O	0.839399	0.329033	0.300576
O23	O	1.089399	0.579033	0.550576
O24	O	1.339399	0.829033	0.800576
O25	O	0.755267	0.068999	0.050597
O26	O	1.005267	0.318999	0.300597
O27	O	1.255267	0.568999	0.550597
O28	O	1.505267	0.818999	0.800597
Cu29	Cu	0.672332	0.074018	0.059813
Cu30	Cu	0.922332	0.324018	0.309813
Cu31	Cu	1.172332	0.574018	0.559813
Cu32	Cu	1.422332	0.824018	0.809813
Cu33	Cu	0.672351	0.074002	-0.059691
Cu34	Cu	0.922351	0.324002	0.190309
Cu35	Cu	1.172351	0.574002	0.440309
Cu36	Cu	1.422351	0.824002	0.690309
O37	O	0.667331	0.156949	0.050569
O38	O	0.917331	0.406949	0.300569
O39	O	1.167331	0.656949	0.550569
O40	O	1.417331	0.906949	0.800569
C41	C	0.568191	0.078776	0.000048
C42	C	0.818191	0.328776	0.250048
C43	C	1.068191	0.578776	0.500048
C44	C	1.318191	0.828776	0.750048
C45	C	0.504972	0.078022	0.000041
C46	C	0.754972	0.328022	0.250041
C47	C	1.004972	0.578022	0.500041
C48	C	1.254972	0.828022	0.750041
C49	C	0.112950	0.073291	0.055150
C50	C	0.362950	0.323291	0.305150
C51	C	0.612950	0.573291	0.555150
C52	C	0.862950	0.823291	0.805150
C53	C	0.053550	0.072574	0.055153
C54	C	0.303550	0.322574	0.305153
C55	C	0.553550	0.572574	0.555153
C56	C	0.803550	0.822574	0.805153
O57	O	0.022824	0.072189	0.101998
O58	O	0.272824	0.322189	0.351998
O59	O	0.522824	0.572189	0.601998
O60	O	0.772824	0.822189	0.851998
N61	N	0.023850	0.072211	0.000070
N62	N	0.273850	0.322211	0.250070
N63	N	0.523850	0.572211	0.500070
N64	N	0.773850	0.822211	0.750070
C65	C	0.053554	0.072559	-0.055018
C66	C	0.303554	0.322559	0.194982
C67	C	0.553554	0.572559	0.444982
C68	C	0.803554	0.822559	0.694982
O69	O	0.022838	0.072184	-0.101870
O70	O	0.272838	0.322184	0.148130
O71	O	0.522838	0.572184	0.398130
O72	O	0.772838	0.822184	0.648130
C73	C	0.112953	0.073273	-0.055020
C74	C	0.362953	0.323273	0.194980
C75	C	0.612953	0.573273	0.444980
C76	C	0.862953	0.823273	0.694980
C77	C	0.142649	0.073641	0.000066
C78	C	0.392649	0.323641	0.250066
C79	C	0.642649	0.573641	0.500066
C80	C	0.892649	0.823641	0.750066
C81	C	0.142646	0.073659	0.110231
C82	C	0.392646	0.323659	0.360231
C83	C	0.642646	0.573659	0.610231
C84	C	0.892646	0.823659	0.860231
C85	C	0.202041	0.074378	0.110229
C86	C	0.452041	0.324378	0.360229
C87	C	0.702041	0.574378	0.610229
C88	C	0.952041	0.824378	0.860229
C89	C	0.231740	0.074728	0.055145
C90	C	0.481740	0.324728	0.305145
C91	C	0.731740	0.574728	0.555145
C92	C	0.981740	0.824728	0.805145
C93	C	0.202044	0.074360	0.000063
C94	C	0.452044	0.324360	0.250063
C95	C	0.702044	0.574360	0.500063
C96	C	0.952044	0.824360	0.750063
C97	C	0.142656	0.073617	-0.110108
C98	C	0.392656	0.323617	0.139892
C99	C	0.642656	0.573617	0.389892
C100	C	0.892656	0.823617	0.639892
C101	C	0.202059	0.074330	-0.110105
C102	C	0.452059	0.324330	0.139895
C103	C	0.702059	0.574330	0.389895
C104	C	0.952059	0.824330	0.639895
C105	C	0.231755	0.074699	-0.055019
C106	C	0.481755	0.324699	0.194981
C107	C	0.731755	0.574699	0.444981
C108	C	0.981755	0.824699	0.694981
C109	C	0.291138	0.075429	-0.055024
C110	C	0.541138	0.325429	0.194976
C111	C	0.791138	0.575429	0.444976
C112	C	1.041138	0.825429	0.694976
N113	N	0.320838	0.075792	0.000059
N114	N	0.570838	0.325792	0.250059
N115	N	0.820838	0.575792	0.500059
N116	N	1.070838	0.825792	0.750059
C117	C	0.291139	0.075441	0.055143
C118	C	0.541139	0.325441	0.305143
C119	C	0.791139	0.575441	0.555143
C120	C	1.041139	0.825441	0.805143
C121	C	-0.071188	0.071060	-0.055010
C122	C	0.178812	0.321060	0.194990
C123	C	0.428812	0.571060	0.444990
C124	C	0.678812	0.821060	0.694990
C125	C	-0.130586	0.070351	-0.055009
C126	C	0.119414	0.320351	0.194991
C127	C	0.369414	0.570351	0.444991
C128	C	0.619414	0.820351	0.694991
C129	C	-0.130585	0.070364	0.055162
C130	C	0.119415	0.320364	0.305162
C131	C	0.369415	0.570364	0.555162
C132	C	0.619415	0.820364	0.805162
C133	C	-0.071187	0.071078	0.055160
C134	C	0.178813	0.321078	0.305160
C135	C	0.428813	0.571078	0.555160
C136	C	0.678813	0.821078	0.805160
C137	C	-0.041488	0.071423	0.000072
C138	C	0.208512	0.321423	0.250072
C139	C	0.458512	0.571423	0.500072
C140	C	0.708512	0.821423	0.750072
C141	C	0.415873	0.076951	0.055133
C142	C	0.665873	0.326951	0.305133
C143	C	0.915873	0.576951	0.555133
C144	C	1.165873	0.826951	0.805133
C145	C	0.475273	0.077672	0.055125
C146	C	0.725273	0.327672	0.305125
C147	C	0.975273	0.577672	0.555125
C148	C	1.225273	0.827672	0.805125
C149	C	0.475268	0.077655	-0.055045
C150	C	0.725268	0.327655	0.194955
C151	C	0.975268	0.577655	0.444955
C152	C	1.225268	0.827655	0.694955
C153	C	0.415872	0.076938	-0.055038
C154	C	0.665872	0.326938	0.194962
C155	C	0.915872	0.576938	0.444962
C156	C	1.165872	0.826938	0.694962
C157	C	0.386177	0.076583	0.000056
C158	C	0.636177	0.326583	0.250056
C159	C	0.886177	0.576583	0.500056
C160	C	1.136177	0.826583	0.750056
O161	O	0.321902	0.075811	-0.101845
O162	O	0.571902	0.325811	0.148155
O163	O	0.821902	0.575811	0.398155
O164	O	1.071902	0.825811	0.648155
O165	O	0.321863	0.075809	0.101986
O166	O	0.571863	0.325809	0.351986
O167	O	0.821863	0.575809	0.601986
O168	O	1.071863	0.825809	0.851986
C169	C	0.677088	-0.030139	0.000082
C170	C	0.927088	0.219861	0.250082
C171	C	1.177088	0.469861	0.500082
C172	C	1.427088	0.719861	0.750082
C173	C	0.676322	-0.093356	0.000091
C174	C	0.926322	0.156644	0.250091
C175	C	1.176322	0.406644	0.500091
C176	C	1.426322	0.656644	0.750091
C177	C	0.621125	-0.359513	0.000046
C178	C	0.871125	-0.109513	0.250046
C179	C	1.121125	0.140487	0.500046
C180	C	1.371125	0.390487	0.750046
C181	C	0.621837	-0.300113	0.000051
C182	C	0.871837	-0.050113	0.250051
C183	C	1.121837	0.199887	0.500051
C184	C	1.371837	0.449887	0.750051
O185	O	0.578050	-0.263360	0.000026
O186	O	0.828050	-0.013360	0.250026
O187	O	1.078050	0.236640	0.500026
O188	O	1.328050	0.486640	0.750026
N189	N	0.674114	-0.277496	0.000064
N190	N	0.924114	-0.027496	0.250064
N191	N	1.174114	0.222504	0.500064
N192	N	1.424114	0.472504	0.750064
C193	C	0.725684	-0.314283	0.000067
C194	C	0.975684	-0.064283	0.250067
C195	C	1.225684	0.185717	0.500067
C196	C	1.475684	0.435717	0.750067
O197	O	0.770216	-0.289592	0.000079
O198	O	1.020216	-0.039592	0.250079
O199	O	1.270216	0.210408	0.500079
O200	O	1.520216	0.460408	0.750079
C201	C	0.724972	-0.373682	0.000058
C202	C	0.974972	-0.123682	0.250058
C203	C	1.224972	0.126318	0.500058
C204	C	1.474972	0.376318	0.750058
C205	C	0.672691	-0.396295	0.000051
C206	C	0.922691	-0.146295	0.250051
C207	C	1.172691	0.103705	0.500051
C208	C	1.422691	0.353705	0.750051
C209	C	0.568849	-0.382126	0.000038
C210	C	0.818849	-0.132126	0.250038
C211	C	1.068849	0.117874	0.500038
C212	C	1.318849	0.367874	0.750038
C213	C	0.568137	-0.441522	0.000034
C214	C	0.818137	-0.191522	0.250034
C215	C	1.068137	0.058478	0.500034
C216	C	1.318137	0.308478	0.750034
C217	C	0.619703	-0.478305	0.000039
C218	C	0.869703	-0.228305	0.250039
C219	C	1.119703	0.021695	0.500039
C220	C	1.369703	0.271695	0.750039
C221	C	0.671980	-0.455691	0.000047
C222	C	0.921980	-0.205691	0.250047
C223	C	1.171980	0.044309	0.500047
C224	C	1.421980	0.294309	0.750047
C225	C	0.776541	-0.410468	0.000056
C226	C	1.026541	-0.160468	0.250056
C227	C	1.276541	0.089532	0.500056
C228	C	1.526541	0.339532	0.750056
C229	C	0.775824	-0.469871	0.000047
C230	C	1.025824	-0.219871	0.250047
C231	C	1.275824	0.030129	0.500047
C232	C	1.525824	0.280129	0.750047
C233	C	0.723543	-0.492484	0.000039
C234	C	0.973543	-0.242484	0.250039
C235	C	1.223543	0.007516	0.500039
C236	C	1.473543	0.257516	0.750039
C237	C	0.722834	-0.551870	0.000048
C238	C	0.972834	-0.301870	0.250048
C239	C	1.222834	-0.051870	0.500048
C240	C	1.472834	0.198130	0.750048
N241	N	0.670556	-0.574486	0.000034
N242	N	0.920556	-0.324486	0.250034
N243	N	1.170556	-0.074486	0.500034
N244	N	1.420556	0.175514	0.750034
C245	C	0.618991	-0.537704	0.000030
C246	C	0.868991	-0.287704	0.250030
C247	C	1.118991	-0.037704	0.500030
C248	C	1.368991	0.212296	0.750030
C249	C	0.727175	-0.189541	0.000085
C250	C	0.977175	0.060459	0.250085
C251	C	1.227175	0.310459	0.500085
C252	C	1.477175	0.560459	0.750085
C253	C	0.727888	-0.130143	0.000099
C254	C	0.977888	0.119857	0.250099
C255	C	1.227888	0.369857	0.500099
C256	C	1.477888	0.619857	0.750099
C257	C	0.624041	-0.115977	0.000081
C258	C	0.874041	0.134023	0.250081
C259	C	1.124041	0.384023	0.500081
C260	C	1.374041	0.634023	0.750081
C261	C	0.623329	-0.175376	0.000072
C262	C	0.873329	0.074624	0.250072
C263	C	1.123329	0.324624	0.500072
C264	C	1.373329	0.574624	0.750072
C265	C	0.674898	-0.212158	0.000072
C266	C	0.924898	0.037842	0.250072
C267	C	1.174898	0.287842	0.500072
C268	C	1.424898	0.537842	0.750072
C269	C	0.617501	-0.662440	0.000023
C270	C	0.867501	-0.412440	0.250023
C271	C	1.117501	-0.162440	0.500023
C272	C	1.367501	0.087560	0.750023
C273	C	0.616795	-0.721842	0.000022
C274	C	0.866795	-0.471842	0.250022
C275	C	1.116795	-0.221842	0.500022
C276	C	1.366795	0.028158	0.750022
C277	C	0.720642	-0.736004	0.000036
C278	C	0.970642	-0.486004	0.250036
C279	C	1.220642	-0.236004	0.500036
C280	C	1.470642	0.013996	0.750036
C281	C	0.721349	-0.676607	0.000040
C282	C	0.971349	-0.426607	0.250040
C283	C	1.221349	-0.176607	0.500040
C284	C	1.471349	0.073393	0.750040
C285	C	0.669774	-0.639826	0.000031
C286	C	0.919774	-0.389826	0.250031
C287	C	1.169774	-0.139826	0.500031
C288	C	1.419774	0.110174	0.750031
O289	O	0.766598	-0.588657	0.000070
O290	O	1.016598	-0.338657	0.250070
O291	O	1.266598	-0.088657	0.500070
O292	O	1.516598	0.161343	0.750070
O293	O	0.574467	-0.562403	0.000010
O294	O	0.824467	-0.312403	0.250010
O295	O	1.074467	-0.062403	0.500010
O296	O	1.324467	0.187597	0.750010
C297	C	0.776492	0.069244	0.000073
C298	C	1.026492	0.319244	0.250073
C299	C	1.276492	0.569244	0.500073
C300	C	1.526492	0.819244	0.750073
C301	C	0.839710	0.069998	0.000076
C302	C	1.089710	0.319998	0.250076
C303	C	1.339710	0.569998	0.500076
C304	C	1.589710	0.819998	0.750076
C305	C	0.667594	0.178158	0.000039
C306	C	0.917594	0.428158	0.250039
C307	C	1.167594	0.678158	0.500039
C308	C	1.417594	0.928158	0.750039
C309	C	0.668360	0.241375	0.000026
C310	C	0.918360	0.491375	0.250026
C311	C	1.168360	0.741375	0.500026
C312	C	1.418360	0.991375	0.750026
N313	N	0.672323	0.074028	0.143866
N314	N	0.922323	0.324028	0.393866
N315	N	1.172323	0.574028	0.643866
N316	N	1.422323	0.824028	0.893866
N317	N	0.672364	0.073987	-0.143743
N318	N	0.922364	0.323987	0.106257
N319	N	1.172364	0.573987	0.356257
N320	N	1.422364	0.823987	0.606257
C321	C	0.711291	0.035063	0.563657
C322	C	0.961291	0.285063	0.813657
C323	C	1.211291	0.535063	1.063657
C324	C	1.461291	0.785063	1.313657
C325	C	0.711293	0.035059	0.627265
C326	C	0.961293	0.285059	0.877265
C327	C	1.211293	0.535059	1.127265
C328	C	1.461293	0.785059	1.377265
O329	O	0.744402	0.001938	0.660167
O330	O	0.994402	0.251938	0.910167
O331	O	1.244402	0.501938	1.160167
O332	O	1.494402	0.751938	1.410167
N333	N	0.672350	0.073990	0.659073
N334	N	0.922350	0.323990	0.909073
N335	N	1.172350	0.573990	1.159073
N336	N	1.422350	0.823990	1.409073
C337	C	0.633398	0.112923	0.627269
C338	C	0.883398	0.362923	0.877269
C339	C	1.133398	0.612923	1.127269
C340	C	1.383398	0.862923	1.377269
O341	O	0.600274	0.146036	0.660165
O342	O	0.850274	0.396036	0.910165
O343	O	1.100274	0.646036	1.160165
O344	O	1.350274	0.896036	1.410165
C345	C	0.633393	0.112924	0.563663
C346	C	0.883393	0.362924	0.813663
C347	C	1.133393	0.612924	1.063663
C348	C	1.383393	0.862924	1.313663
C349	C	0.672343	0.073995	0.531859
C350	C	0.922343	0.323995	0.781859
C351	C	1.172343	0.573995	1.031859
C352	C	1.422343	0.823995	1.281859
C353	C	0.750236	-0.003863	0.531853
C354	C	1.000236	0.246137	0.781853
C355	C	1.250236	0.496137	1.031853
C356	C	1.500236	0.746137	1.281853
C357	C	0.750234	-0.003858	0.468250
C358	C	1.000234	0.246142	0.718250
C359	C	1.250234	0.496142	0.968250
C360	C	1.500234	0.746142	1.218250
C361	C	0.711286	0.035073	0.436451
C362	C	0.961286	0.285073	0.686451
C363	C	1.211286	0.535073	0.936451
C364	C	1.461286	0.785073	1.186451
C365	C	0.672341	0.074000	0.468255
C366	C	0.922341	0.324000	0.718255
C367	C	1.172341	0.574000	0.968255
C368	C	1.422341	0.824000	1.218255
C369	C	0.594439	0.151854	0.531861
C370	C	0.844439	0.401854	0.781861
C371	C	1.094439	0.651854	1.031861
C372	C	1.344439	0.901854	1.281861
C373	C	0.594437	0.151851	0.468250
C374	C	0.844437	0.401851	0.718250
C375	C	1.094437	0.651851	0.968250
C376	C	1.344437	0.901851	1.218250
C377	C	0.633387	0.112922	0.436446
C378	C	0.883387	0.362922	0.686446
C379	C	1.133387	0.612922	0.936446
C380	C	1.383387	0.862922	1.186446
C381	C	0.633391	0.112936	0.372853
C382	C	0.883391	0.362936	0.622853
C383	C	1.133391	0.612936	0.872853
C384	C	1.383391	0.862936	1.122853
N385	N	0.672334	0.074005	0.341046
N386	N	0.922334	0.324005	0.591046
N387	N	1.172334	0.574005	0.841046
N388	N	1.422334	0.824005	1.091046
C389	C	0.711282	0.035074	0.372844
C390	C	0.961282	0.285074	0.622844
C391	C	1.211282	0.535074	0.872844
C392	C	1.461282	0.785074	1.122844
C393	C	0.633411	0.112918	0.760847
C394	C	0.883411	0.362918	1.010847
C395	C	1.133411	0.612918	1.260847
C396	C	1.383411	0.862918	1.510847
C397	C	0.633418	0.112921	0.824452
C398	C	0.883418	0.362921	1.074452
C399	C	1.133418	0.612921	1.324452
C400	C	1.383418	0.862921	1.574452
C401	C	0.711313	0.035056	0.824444
C402	C	0.961313	0.285056	1.074444
C403	C	1.211313	0.535056	1.324444
C404	C	1.461313	0.785056	1.574444
C405	C	0.711308	0.035057	0.760837
C406	C	0.961308	0.285057	1.010837
C407	C	1.211308	0.535057	1.260837
C408	C	1.461308	0.785057	1.510837
C409	C	0.672354	0.073988	0.729040
C410	C	0.922354	0.323988	0.979040
C411	C	1.172354	0.573988	1.229040
C412	C	1.422354	0.823988	1.479040
C413	C	0.711275	0.035087	0.239273
C414	C	0.961275	0.285087	0.489273
C415	C	1.211275	0.535087	0.739273
C416	C	1.461275	0.785087	0.989273
C417	C	0.711271	0.035097	0.175664
C418	C	0.961271	0.285097	0.425664
C419	C	1.211271	0.535097	0.675664
C420	C	1.461271	0.785097	0.925664
C421	C	0.633374	0.112959	0.175679
C422	C	0.883374	0.362959	0.425679
C423	C	1.133374	0.612959	0.675679
C424	C	1.383374	0.862959	0.925679
C425	C	0.633380	0.112952	0.239282
C426	C	0.883380	0.362952	0.489282
C427	C	1.133380	0.612952	0.739282
C428	C	1.383380	0.862952	0.989282
C429	C	0.672332	0.074011	0.271078
C430	C	0.922332	0.324011	0.521078
C431	C	1.172332	0.574011	0.771078
C432	C	1.422332	0.824011	1.021078
O433	O	0.600297	0.146039	0.339911
O434	O	0.850297	0.396039	0.589911
O435	O	1.100297	0.646039	0.839911
O436	O	1.350297	0.896039	1.089911
O437	O	0.744395	0.001961	0.339941
O438	O	0.994395	0.251961	0.589941
O439	O	1.244395	0.501961	0.839941
O440	O	1.494395	0.751961	1.089941
H441	H	0.118471	0.073373	0.155090
H442	H	0.368471	0.323373	0.405090
H443	H	0.618471	0.573373	0.655090
H444	H	0.868471	0.823373	0.905090
Br445	Br	0.803100	-0.056706	0.574998
Br446	Br	1.053100	0.193294	0.824998
Br447	Br	1.303100	0.443294	1.074998
Br448	Br	1.553100	0.693294	1.324998
Br449	Br	0.102369	0.073117	-0.184872
Br450	Br	0.352369	0.323117	0.065128
Br451	Br	0.602369	0.573117	0.315128
Br452	Br	0.852369	0.823117	0.565128
Br453	Br	0.498857	-0.332217	0.000029
Br454	Br	0.748857	-0.082217	0.250029
Br455	Br	0.998857	0.167783	0.500029
Br456	Br	1.248857	0.417783	0.750029
Br457	Br	0.541566	0.204687	0.425101
Br458	Br	0.791566	0.454687	0.675101
Br459	Br	1.041566	0.704687	0.925101
Br460	Br	1.291566	0.954687	1.175101
Br461	Br	0.545837	-0.752527	0.000015
Br462	Br	0.795837	-0.502527	0.250015
Br463	Br	1.045837	-0.252527	0.500015
Br464	Br	1.295837	-0.002527	0.750015
Br465	Br	0.541577	0.204689	0.575011
Br466	Br	0.791577	0.454689	0.825011
Br467	Br	1.041577	0.704689	1.075011
Br468	Br	1.291577	0.954689	1.325011
Br469	Br	0.375568	0.076449	-0.129798
Br470	Br	0.625568	0.326449	0.120202
Br471	Br	0.875568	0.576449	0.370202
Br472	Br	1.125568	0.826449	0.620202
H473	H	0.743023	0.003357	0.734946
H474	H	0.993023	0.253357	0.984946
H475	H	1.243023	0.503357	1.234946
H476	H	1.493023	0.753357	1.484946
H477	H	0.525565	-0.459928	0.000023
H478	H	0.775565	-0.209928	0.250023
H479	H	1.025565	0.040072	0.500023
H480	H	1.275565	0.290072	0.750023
Br481	Br	0.764171	-0.017780	0.867613
Br482	Br	1.014171	0.232220	1.117613
Br483	Br	1.264171	0.482220	1.367613
Br484	Br	1.514171	0.732220	1.617613
Br485	Br	0.580520	0.165795	0.132513
Br486	Br	0.830520	0.415795	0.382513
Br487	Br	1.080520	0.665795	0.632513
Br488	Br	1.330520	0.915795	0.882513
Br489	Br	0.580566	0.165764	0.867608
Br490	Br	0.830566	0.415764	1.117608
Br491	Br	1.080566	0.665764	1.367608
Br492	Br	1.330566	0.915764	1.617608
Br493	Br	0.547506	-0.612533	0.000011
Br494	Br	0.797506	-0.362533	0.250011
Br495	Br	1.047506	-0.112533	0.500011
Br496	Br	1.297506	0.137467	0.750011
H497	H	0.742990	0.003396	0.149771
H498	H	0.992990	0.253396	0.399771
H499	H	1.242990	0.503396	0.649771
H500	H	1.492990	0.753396	0.899771
H501	H	0.580757	-0.193783	0.000069
H502	H	0.830757	0.056217	0.250069
H503	H	1.080757	0.306217	0.500069
H504	H	1.330757	0.556217	0.750069
Br505	Br	0.554058	-0.066046	0.000077
Br506	Br	0.804058	0.183954	0.250077
Br507	Br	1.054058	0.433954	0.500077
Br508	Br	1.304058	0.683954	0.750077
Br509	Br	0.845815	-0.519786	0.000042
Br510	Br	1.095815	-0.269786	0.250042
Br511	Br	1.345815	-0.019786	0.500042
Br512	Br	1.595815	0.230214	0.750042
H513	H	0.770460	-0.111738	0.000114
H514	H	1.020460	0.138262	0.250114
H515	H	1.270460	0.388262	0.500114
H516	H	1.520460	0.638262	0.750114
H517	H	0.499459	0.077943	-0.099893
H518	H	0.749459	0.327943	0.150107
H519	H	0.999459	0.577943	0.400107
H520	H	1.249459	0.827943	0.650107
Br521	Br	0.580526	0.165793	0.282443
Br522	Br	0.830526	0.415793	0.532443
Br523	Br	1.080526	0.665793	0.782443
Br524	Br	1.330526	0.915793	1.032443
Br525	Br	0.515571	0.078176	0.129890
Br526	Br	0.765571	0.328176	0.379890
Br527	Br	1.015571	0.578176	0.629890
Br528	Br	1.265571	0.828176	0.879890
Br529	Br	0.375581	0.076468	0.129904
Br530	Br	0.625581	0.326468	0.379904
Br531	Br	0.875581	0.576468	0.629904
Br532	Br	1.125581	0.826468	0.879904
Br533	Br	0.797169	-0.239454	0.000091
Br534	Br	1.047169	0.010546	0.250091
Br535	Br	1.297169	0.260546	0.500091
Br536	Br	1.547169	0.510546	0.750091
Br537	Br	0.847498	-0.379795	0.000052
Br538	Br	1.097498	-0.129795	0.250052
Br539	Br	1.347498	0.120205	0.500052
Br540	Br	1.597498	0.370205	0.750052
H541	H	0.763920	-0.658195	0.000055
H542	H	1.013920	-0.408195	0.250055
H543	H	1.263920	-0.158195	0.500055
H544	H	1.513920	0.091805	0.750055
H545	H	0.762625	-0.765962	0.000042
H546	H	1.012625	-0.515962	0.250042
H547	H	1.262625	-0.265962	0.500042
H548	H	1.512625	-0.015962	0.750042
Br549	Br	0.764139	-0.017762	0.282414
Br550	Br	1.014139	0.232238	0.532414
Br551	Br	1.264139	0.482238	0.782414
Br552	Br	1.514139	0.732238	1.032414
H553	H	0.781949	-0.035559	0.442358
H554	H	1.031949	0.214441	0.692358
H555	H	1.281949	0.464441	0.942358
H556	H	1.531949	0.714441	1.192358
Br557	Br	0.242361	0.074796	-0.184871
Br558	Br	0.492361	0.324796	0.065129
Br559	Br	0.742361	0.574796	0.315129
Br560	Br	0.992361	0.824796	0.565129
H561	H	0.601691	0.144625	0.734961
H562	H	0.851691	0.394625	0.984961
H563	H	1.101691	0.644625	1.234961
H564	H	1.351691	0.894625	1.484961
H565	H	0.226215	0.074674	0.155085
H566	H	0.476215	0.324674	0.405085
H567	H	0.726215	0.574674	0.655085
H568	H	0.976215	0.824674	0.905085
Br569	Br	-0.030889	0.071535	-0.129779
Br570	Br	0.219111	0.321535	0.120221
Br571	Br	0.469111	0.571535	0.370221
Br572	Br	0.719111	0.821535	0.620221
H573	H	-0.047012	0.071378	0.100016
H574	H	0.202988	0.321378	0.350016
H575	H	0.452988	0.571378	0.600016
H576	H	0.702988	0.821378	0.850016
H577	H	-0.154777	0.070078	0.100015
H578	H	0.095223	0.320078	0.350015
H579	H	0.345223	0.570078	0.600015
H580	H	0.595223	0.820078	0.850015
H581	H	-0.154761	0.070060	-0.099865
H582	H	0.095239	0.320060	0.150135
H583	H	0.345239	0.570060	0.400135
H584	H	0.595239	0.820060	0.650135
