data_functionalizedCrystal
_audit_creation_method	'MofGen! by Chris Wilmer'
_symmetry_space_group_name_H-M	'P1'
_symmetry_Int_Tables_number	1
_symmetry_cell_setting	triclinic
loop_
_symmetry_equiv_pos_as_xyz
  x,y,z
_cell_length_a	10.489741
_cell_length_b	8.965430
_cell_length_c	10.489741
_cell_angle_alpha	89.999293
_cell_angle_beta	95.460826
_cell_angle_gamma	89.998843
loop_
_atom_site_label
_atom_site_type_symbol
_atom_site_fract_x
_atom_site_fract_y
_atom_site_fract_z
O1	O	1.694053	-0.123946	-0.179958
O2	O	1.322858	-0.123969	-0.196851
O3	O	1.516902	-0.123948	-0.002807
O4	O	1.500009	-0.123967	-0.374003
O5	O	1.516886	0.124130	-0.002820
O6	O	1.322841	0.124110	-0.196864
O7	O	1.694037	0.124133	-0.179971
Cu8	Cu	1.508438	0.146773	-0.188419
Cu9	Cu	1.508457	-0.146609	-0.188404
O10	O	1.499993	0.124112	-0.374016
C11	C	1.275318	0.000067	-0.195582
C12	C	1.133688	0.000059	-0.191765
N13	N	1.508433	0.353122	-0.188429
N14	N	1.508471	-0.352958	-0.188384
C15	C	1.065548	0.000079	-0.068300
C16	C	0.973430	-0.122237	-0.126617
C17	C	0.973447	0.122349	-0.126659
C18	C	1.043435	-0.122358	-0.250133
C19	C	1.043462	0.122338	-0.250158
C20	C	0.951371	-0.000007	-0.308564
C21	C	1.741577	0.000093	-0.181241
C22	C	1.883206	0.000092	-0.185058
C23	C	1.515618	0.000090	0.044718
C24	C	1.511801	0.000087	0.186348
C25	C	1.418666	0.450418	-0.278138
C26	C	1.534163	0.549838	-0.303949
C27	C	1.392986	0.549830	-0.162629
C28	C	1.623988	0.450352	-0.214298
C29	C	1.482735	0.450336	-0.072927
C30	C	1.598314	0.549711	-0.098690
C31	C	1.501277	0.000070	-0.421541
C32	C	1.505094	0.000063	-0.563170
C33	C	1.388336	0.000069	0.254488
C34	C	1.446652	0.122388	0.346604
C35	C	1.446697	-0.122198	0.346591
C36	C	1.570167	0.122508	0.276599
C37	C	1.570195	-0.122189	0.276576
C38	C	1.628600	0.000161	0.368665
H39	H	1.115238	-0.000069	0.033196
H40	H	1.730204	0.000235	0.418089
F41	F	1.255653	0.000214	0.189591
F42	F	1.083733	-0.257675	-0.318355
F43	F	0.886766	-0.000098	-0.441365
H44	H	1.074502	0.225749	-0.302361
H45	H	1.342824	0.406821	-0.354072
H46	H	1.394404	0.225794	0.377610
H47	H	1.555925	0.593543	-0.401606
H48	H	0.942463	0.225758	-0.074402
H49	H	0.942422	-0.225643	-0.074371
F50	F	1.378395	-0.257358	0.387098
H51	H	1.721659	0.406840	-0.236216
H52	H	1.674327	0.593034	-0.022803
F53	F	1.265354	0.606947	-0.134130
F54	F	1.454244	0.393161	0.054679
F55	F	1.638386	0.257824	0.236297
F56	F	1.638430	-0.257355	0.236003
