data_functionalizedCrystal
_audit_creation_method	'MofGen! by Chris Wilmer'
_symmetry_space_group_name_H-M	'P1'
_symmetry_Int_Tables_number	1
_symmetry_cell_setting	triclinic
loop_
_symmetry_equiv_pos_as_xyz
  x,y,z
_cell_length_a	19.121725
_cell_length_b	16.120530
_cell_length_c	16.120256
_cell_angle_alpha	89.871735
_cell_angle_beta	95.431140
_cell_angle_gamma	95.185879
loop_
_atom_site_label
_atom_site_type_symbol
_atom_site_fract_x
_atom_site_fract_y
_atom_site_fract_z
Zn1	Zn	-0.357359	-1.264536	-0.553523
Zn2	Zn	-0.469640	-1.276859	-0.420420
Zn3	Zn	-0.345436	-1.131956	-0.406808
Zn4	Zn	-0.468994	-1.130784	-0.552356
O5	O	-0.410357	-1.201034	-0.483277
O6	O	-0.377513	-1.382789	-0.542052
O7	O	-0.448445	-1.263284	-0.301998
O8	O	-0.248318	-1.144877	-0.421061
O9	O	-0.460006	-1.391842	-0.444262
O10	O	-0.257077	-1.242283	-0.528852
O11	O	-0.357192	-1.156825	-0.291997
O12	O	-0.356566	-1.015183	-0.419930
O13	O	-0.458904	-1.142879	-0.669127
O14	O	-0.447343	-1.014321	-0.526863
O15	O	-0.376886	-1.241146	-0.669984
O16	O	-0.568254	-1.262148	-0.443131
O17	O	-0.567779	-1.154827	-0.540063
C18	C	-0.593610	-1.209719	-0.492967
C19	C	-0.672011	-1.213510	-0.497144
C20	C	-0.400591	-0.984514	-0.471793
C21	C	-0.396431	-0.891886	-0.466901
C22	C	-0.419153	-1.190507	-0.700638
C23	C	-0.422902	-1.186021	-0.793265
C24	C	-0.704347	-1.164627	-0.442954
C25	C	-0.778013	-1.168197	-0.446883
C26	C	-0.819343	-1.220646	-0.505007
C27	C	-0.787002	-1.269535	-0.559200
C28	C	-0.713337	-1.265968	-0.555266
C29	C	-1.041989	-1.233952	-0.519690
C30	C	-1.115659	-1.237513	-0.523621
C31	C	-1.106665	-1.136176	-0.411303
C32	C	-1.032999	-1.132610	-0.407378
C33	C	-1.000665	-1.181502	-0.461568
C34	C	-0.894642	-1.224294	-0.509026
C35	C	-0.925367	-1.177858	-0.457544
C36	C	-0.226390	-1.192336	-0.473568
C37	C	-0.147995	-1.188630	-0.469431
C38	C	-0.420161	-1.418398	-0.494805
C39	C	-0.424339	-1.511026	-0.499718
C40	C	-0.388820	-0.722293	-0.457976
C41	C	-0.431948	-0.680615	-0.508641
C42	C	-0.427713	-0.586247	-0.503675
C43	C	-0.393054	-0.816669	-0.462941
C44	C	-0.390791	-1.224424	-1.004546
C45	C	-0.429715	-1.177802	-0.962846
C46	C	-0.425923	-1.182377	-0.868482
C47	C	-0.394582	-1.219851	-1.098918
C48	C	-0.401546	-1.211565	-0.266760
C49	C	-0.397606	-1.216202	-0.174132
H50	H	-0.670700	-1.121913	-0.395626
O51	O	-0.479819	-0.722459	-0.564906
C52	C	-0.573359	-0.712682	-0.674689
C53	C	-0.519169	-0.665184	-0.611028
H54	H	-0.605198	-0.666398	-0.711983
H55	H	-0.544635	-0.749781	-0.718780
H56	H	-0.610396	-0.757046	-0.640384
H57	H	-0.482117	-0.620778	-0.645262
H58	H	-0.547938	-0.628141	-0.566939
O59	O	-1.137994	-1.088733	-0.358544
C60	C	-1.153097	-1.056395	-0.215826
C61	C	-1.117560	-1.110164	-0.275486
H62	H	-1.136601	-1.073715	-0.148661
H63	H	-1.136204	-0.987770	-0.225999
H64	H	-1.212844	-1.067935	-0.228660
H65	H	-1.057808	-1.098697	-0.262688
H66	H	-1.134510	-1.178771	-0.265301
H67	H	-0.348720	-0.687104	-0.410874
O68	O	-1.010621	-1.281349	-0.572448
C69	C	-0.995595	-1.313771	-0.715168
C70	C	-1.031153	-1.260021	-0.655510
H71	H	-1.012193	-1.296560	-0.782337
H72	H	-0.935839	-1.302218	-0.702450
H73	H	-1.012469	-1.382379	-0.704876
H74	H	-1.014336	-1.191396	-0.665768
H75	H	-1.090902	-1.271646	-0.668242
O76	O	-0.472866	-1.126169	-1.004930
C77	C	-0.515996	-1.074434	-1.138716
C78	C	-0.467106	-1.132946	-1.091158
H79	H	-0.511344	-1.079880	-1.208438
H80	H	-0.572871	-1.092584	-1.125513
H81	H	-0.499929	-1.007468	-1.117392
H82	H	-0.483109	-1.199930	-1.112454
H83	H	-0.410242	-1.114724	-1.104362
H84	H	-1.149308	-1.280211	-0.570968
O85	O	-0.347602	-1.276031	-0.962497
C86	C	-0.248990	-1.287426	-0.859670
C87	C	-0.297856	-1.228888	-0.907230
H88	H	-0.208749	-1.249332	-0.814989
H89	H	-0.281701	-1.334449	-0.822898
H90	H	-0.220314	-1.321836	-0.905966
H91	H	-0.326543	-1.194422	-0.860992
H92	H	-0.265108	-1.181917	-0.944015
O93	O	-0.809386	-1.120580	-0.394325
C94	C	-0.823978	-0.981913	-0.347428
C95	C	-0.788419	-1.035744	-0.407012
H96	H	-0.807028	-0.913314	-0.357652
H97	H	-0.883733	-0.993394	-0.360213
H98	H	-0.807458	-0.999193	-0.280257
H99	H	-0.804883	-1.018497	-0.474203
H100	H	-0.728670	-1.024256	-0.394155
O101	O	-0.992931	-1.081553	-0.350946
C102	C	-0.962464	-0.940709	-0.301681
C103	C	-1.007891	-0.998440	-0.365628
H104	H	-0.974532	-0.873498	-0.313540
H105	H	-0.974921	-0.959293	-0.236037
H106	H	-0.904262	-0.946598	-0.308162
H107	H	-1.066106	-0.992580	-0.359224
H108	H	-0.995374	-0.979840	-0.431247
O109	O	-0.827077	-1.320424	-0.615777
C110	C	-0.857117	-1.354919	-0.760910
C111	C	-0.811678	-1.297249	-0.696918
H112	H	-0.844694	-1.336193	-0.826528
H113	H	-0.845026	-1.422146	-0.749200
H114	H	-0.915316	-1.349077	-0.754371
H115	H	-0.753465	-1.303019	-0.703421
H116	H	-0.823829	-1.230046	-0.708647
H117	H	-0.687010	-1.305775	-0.599393
H118	H	-0.891714	-1.135157	-0.410216
H119	H	-0.928300	-1.266997	-0.556352
