data_functionalizedCrystal
_audit_creation_method	'MofGen! by Chris Wilmer'
_symmetry_space_group_name_H-M	'P1'
_symmetry_Int_Tables_number	1
_symmetry_cell_setting	triclinic
loop_
_symmetry_equiv_pos_as_xyz
  x,y,z
_cell_length_a	17.699083
_cell_length_b	14.185569
_cell_length_c	17.699083
_cell_angle_alpha	103.128506
_cell_angle_beta	83.283015
_cell_angle_gamma	76.866969
loop_
_atom_site_label
_atom_site_type_symbol
_atom_site_fract_x
_atom_site_fract_y
_atom_site_fract_z
O1	O	0.986904	0.083282	0.112875
O2	O	0.766518	0.083316	0.125334
O3	O	0.882939	0.083289	0.008913
O4	O	0.870483	0.083309	0.229296
O5	O	0.917331	-0.083553	-0.025475
O6	O	0.800910	-0.083527	0.090946
O7	O	1.021295	-0.083560	0.078487
Cu8	Cu	0.914243	-0.098777	0.081577
Cu9	Cu	0.873571	0.098533	0.122244
O10	O	0.904874	-0.083534	0.194908
C11	C	0.755516	-0.000101	0.107695
C12	C	0.671496	-0.000089	0.106359
C13	C	0.622874	-0.000083	0.174693
C14	C	0.543933	-0.000096	0.173428
C15	C	0.513615	-0.000108	0.103829
C16	C	0.562244	-0.000117	0.035489
C17	C	0.641184	-0.000111	0.036753
C18	C	0.243886	-0.000142	0.030389
C19	C	0.164938	-0.000145	0.029130
C20	C	0.146635	-0.000128	0.167064
C21	C	0.225575	-0.000122	0.168328
C22	C	0.274198	-0.000136	0.099987
C23	C	0.359795	-0.000123	0.101359
C24	C	0.428018	-0.000113	0.102458
N25	N	0.942855	-0.237555	0.052973
C26	C	0.760902	-0.605164	0.234848
C27	C	0.782581	-0.710190	0.213186
C28	C	0.885692	-0.710174	0.110134
C29	C	0.864020	-0.605146	0.131785
C30	C	0.801625	-0.552649	0.194143
C31	C	0.904742	-0.552631	0.091079
C32	C	0.883074	-0.447611	0.112732
C33	C	0.820683	-0.395107	0.175089
C34	C	0.779956	-0.447629	0.215795
C35	C	0.967141	-0.605130	0.028725
C36	C	1.007863	-0.552615	-0.011980
C37	C	0.986192	-0.447594	0.009668
C38	C	0.923801	-0.395089	0.072026
C39	C	1.026918	-0.395071	-0.031038
C40	C	1.005250	-0.290052	-0.009386
C41	C	0.902132	-0.290070	0.093678
C42	C	1.032297	-0.000141	0.096127
C43	C	1.116316	-0.000146	0.097464
C44	C	0.899689	-0.000132	-0.036478
C45	C	0.898350	-0.000132	-0.120496
N46	N	0.844965	0.237311	0.150842
C47	C	0.966686	-0.000144	-0.169119
C48	C	0.965422	-0.000135	-0.248061
C49	C	0.895823	-0.000121	-0.278379
C50	C	0.827481	-0.000107	-0.229748
C51	C	0.828744	-0.000108	-0.150807
C52	C	0.822384	-0.000098	-0.548110
C53	C	0.821126	-0.000099	-0.627058
C54	C	0.959061	-0.000124	-0.645363
C55	C	0.960325	-0.000126	-0.566422
C56	C	0.891983	-0.000106	-0.517798
C57	C	0.893354	-0.000114	-0.432200
C58	C	0.894452	-0.000121	-0.363976
C59	C	0.888124	-0.000110	0.240299
C60	C	0.889461	-0.000103	0.324319
H61	H	0.504347	-0.000091	0.229074
H62	H	0.749414	-0.752943	0.246340
H63	H	0.766735	-0.000082	-0.508529
H64	H	0.729143	-0.404884	0.266568
H65	H	1.023363	-0.000161	-0.144442
C66	C	1.076494	-0.610374	-0.080575
N67	N	1.128185	-0.653877	-0.132245
C68	C	0.258922	-0.000115	0.244890
N69	N	0.284038	-0.000117	0.302558
C70	C	0.796847	-0.279582	0.198906
N71	N	0.778892	-0.192568	0.216844
H72	H	0.680772	-0.000115	-0.018892
C73	C	0.131593	-0.000170	-0.047440
N74	N	0.106478	-0.000191	-0.105110
H75	H	1.038412	-0.247294	-0.042532
H76	H	0.710088	-0.562418	0.285621
H77	H	0.773098	-0.000099	-0.111218
H78	H	0.283466	-0.000154	-0.025259
C79	C	0.528891	-0.000132	-0.041071
N80	N	0.503770	-0.000139	-0.098737
H81	H	0.647552	-0.000073	0.231369
H82	H	0.851319	-0.247325	0.144451
H83	H	0.107037	-0.000122	0.222709
C84	C	0.990974	-0.720655	0.004908
N85	N	1.008924	-0.807669	-0.013031
H86	H	0.936497	-0.752930	0.059362
C87	C	1.095554	-0.452833	-0.099628
N88	N	1.147250	-0.496338	-0.151291
C89	C	1.040600	-0.000164	-0.301547
N90	N	1.097229	-0.000191	-0.341834
H91	H	1.014708	-0.000135	-0.684962
C92	C	1.036889	-0.000141	-0.533077
N93	N	1.094558	-0.000148	-0.507962
C94	C	0.744556	-0.000076	-0.660403
N95	N	0.686887	-0.000057	-0.685519
H96	H	0.770811	-0.000089	-0.254438
