data_functionalizedCrystal
_audit_creation_method	'MofGen! by Chris Wilmer'
_symmetry_space_group_name_H-M	'P1'
_symmetry_Int_Tables_number	1
_symmetry_cell_setting	triclinic
loop_
_symmetry_equiv_pos_as_xyz
  x,y,z
_cell_length_a	19.288859
_cell_length_b	19.288857
_cell_length_c	17.766277
_cell_angle_alpha	89.991474
_cell_angle_beta	89.989768
_cell_angle_gamma	83.133417
loop_
_atom_site_label
_atom_site_type_symbol
_atom_site_fract_x
_atom_site_fract_y
_atom_site_fract_z
O1	O	0.921353	0.086629	-0.062613
O2	O	0.719092	0.098322	-0.062611
O3	O	0.826070	-0.008656	-0.062603
O4	O	0.814375	0.193606	-0.062621
O5	O	0.826051	-0.008661	0.062586
O6	O	0.719073	0.098316	0.062577
O7	O	0.921335	0.086623	0.062576
Cu8	Cu	0.820202	0.092469	0.074007
Cu9	Cu	0.820224	0.092476	-0.074043
O10	O	0.814357	0.193601	0.062568
C11	C	0.693206	0.097944	-0.000017
C12	C	0.616102	0.096816	-0.000016
C13	C	0.052060	0.151960	-0.000022
C14	C	0.124506	0.153025	-0.000026
C15	C	0.169215	0.090256	-0.000019
C16	C	0.141472	0.026416	-0.000027
C17	C	0.069026	0.025353	-0.000031
C18	C	0.290480	0.043441	0.043847
C19	C	0.362923	0.044507	0.043855
C20	C	0.392661	0.093533	-0.000012
C21	C	0.349944	0.141505	-0.043877
C22	C	0.277498	0.140442	-0.043880
C23	C	0.247771	0.091402	-0.000016
C24	C	0.498950	0.158524	-0.000013
C25	C	0.571399	0.159587	-0.000022
C26	C	0.588363	0.032976	-0.000015
C27	C	0.515916	0.031915	-0.000014
C28	C	0.471214	0.094691	-0.000009
C29	C	0.825685	-0.034535	-0.000008
C30	C	0.824558	-0.111639	-0.000006
C31	C	0.824042	-0.147846	-0.068246
C32	C	0.822974	-0.220292	-0.068252
C33	C	0.822435	-0.256530	-0.000013
C34	C	0.822947	-0.220313	0.068236
C35	C	0.824008	-0.147867	0.068240
C36	C	0.861429	-0.376764	0.052262
C37	C	0.860371	-0.449209	0.052255
C38	C	0.819157	-0.479975	-0.000022
C39	C	0.779009	-0.438289	-0.052304
C40	C	0.780071	-0.365844	-0.052301
C41	C	0.821283	-0.335085	-0.000009
C42	C	0.817481	-0.594737	-0.068273
C43	C	0.816408	-0.667184	-0.068275
C44	C	0.816388	-0.667204	0.068215
C45	C	0.817454	-0.594758	0.068215
C46	C	0.818004	-0.558529	-0.000030
C47	C	0.947220	0.087001	-0.000020
C48	C	1.024324	0.088129	-0.000026
C49	C	0.814741	0.219480	-0.000029
C50	C	0.815868	0.296584	-0.000036
N51	N	0.820192	0.092464	0.178138
N52	N	0.820240	0.092475	-0.178173
C53	C	0.867577	0.045118	0.217528
C54	C	0.867581	0.045115	0.296330
C55	C	0.820206	0.092470	0.335738
C56	C	0.772812	0.139820	0.296338
C57	C	0.772805	0.139817	0.217538
C58	C	0.810906	0.155758	0.460571
C59	C	0.810918	0.155762	0.539369
C60	C	0.820225	0.092478	0.578785
C61	C	0.829534	0.029188	0.539391
C62	C	0.829527	0.029186	0.460591
C63	C	0.820209	0.092478	0.421184
C64	C	0.867617	0.045124	0.703621
C65	C	0.867616	0.045120	0.782424
C66	C	0.772851	0.139832	0.782431
C67	C	0.772848	0.139830	0.703629
C68	C	0.820235	0.092477	0.664229
H69	H	0.624764	-0.018133	-0.000016
C70	C	0.720739	0.191924	0.825775
N71	N	0.681486	0.231161	0.858426
C72	C	0.824580	-0.108038	0.143313
N73	N	0.825013	-0.078038	0.199859
H74	H	0.015667	0.203077	-0.000022
H75	H	0.397698	0.005448	0.079577
C76	C	0.919735	-0.006979	0.825754
N77	N	0.958988	-0.046225	0.858390
H78	H	0.906200	0.006565	0.671540
H79	H	0.374153	0.181429	-0.079595
C80	C	0.257778	-0.010497	0.092105
N81	N	0.233147	-0.051123	0.128451
H82	H	0.593978	0.211568	-0.000025
H83	H	0.734266	0.178386	0.671555
H84	H	0.906160	0.006559	0.185451
H85	H	0.177878	-0.024691	-0.000024
H86	H	0.906169	0.006558	0.328408
C87	C	0.449776	0.227578	-0.000022
N88	N	0.412739	0.279591	-0.000032
C89	C	0.038517	-0.044870	-0.000026
N90	N	0.015536	-0.097762	-0.000018
H91	H	0.803342	0.207296	0.571438
C92	C	0.824641	-0.107998	-0.143319
N93	N	0.825090	-0.077983	-0.199864
H94	H	0.822549	-0.249778	-0.123823
C95	C	0.800667	0.225379	0.417222
N96	N	0.792955	0.277817	0.384573
C97	C	0.839758	-0.040432	0.417261
N98	N	0.847460	-0.092869	0.384625
C99	C	0.485406	-0.038305	-0.000003
N100	N	0.462426	-0.091199	0.000007
H101	H	0.837113	-0.022343	0.571481
C102	C	0.155023	0.223247	-0.000016
N103	N	0.178005	0.276139	-0.000007
C104	C	0.720697	0.191908	0.339689
N105	N	0.681440	0.231140	0.372340
C106	C	0.906773	-0.342930	0.109771
N107	N	0.940927	-0.317447	0.153085
H108	H	0.817880	-0.565278	0.123784
H109	H	0.734217	0.178373	0.185465
C110	C	0.815876	-0.707017	-0.143349
N111	N	0.815489	-0.737022	-0.199897
C112	C	0.735903	-0.319991	-0.109805
N113	N	0.702633	-0.285455	-0.153116
C114	C	0.733668	-0.472126	-0.109812
N115	N	0.699519	-0.497615	-0.153126
C116	C	0.230514	0.193203	-0.092139
N117	N	0.195125	0.232941	-0.128492
C118	C	0.815795	-0.707061	0.143278
N119	N	0.815348	-0.737085	0.199818
C120	C	0.818076	-0.554882	-0.143344
N121	N	0.818521	-0.524865	-0.199888
H122	H	0.893065	-0.483145	0.094824
H123	H	0.822506	-0.249822	0.123797
