data_functionalizedCrystal
_audit_creation_method	'MofGen! by Chris Wilmer'
_symmetry_space_group_name_H-M	'P1'
_symmetry_Int_Tables_number	1
_symmetry_cell_setting	triclinic
loop_
_symmetry_equiv_pos_as_xyz
  x,y,z
_cell_length_a	10.654541
_cell_length_b	10.654558
_cell_length_c	9.730223
_cell_angle_alpha	90.004361
_cell_angle_beta	89.997011
_cell_angle_gamma	95.515103
loop_
_atom_site_label
_atom_site_type_symbol
_atom_site_fract_x
_atom_site_fract_y
_atom_site_fract_z
O1	O	-1.667845	0.176351	0.114361
O2	O	-1.302366	0.193168	0.114347
O3	O	-1.493503	0.002021	0.114349
O4	O	-1.476708	0.367498	0.114360
O5	O	-1.493501	0.002011	-0.114231
O6	O	-1.302363	0.193158	-0.114232
O7	O	-1.667843	0.176341	-0.114219
Zn8	Zn	-1.485103	0.184748	-0.150518
Zn9	Zn	-1.485106	0.184761	0.150646
O10	O	-1.476705	0.367489	-0.114220
C11	C	-1.255566	0.191930	0.000056
C12	C	-1.116123	0.188243	0.000050
C13	C	-0.919580	0.183032	-0.124546
C14	C	-1.050601	0.186504	-0.124549
C15	C	-1.050614	0.186521	0.124661
C16	C	-0.919594	0.183058	0.124663
C17	C	-0.919574	0.183016	-0.268426
C18	C	-1.050596	0.186488	-0.268429
C19	C	-1.492267	-0.044782	0.000060
C20	C	-1.488571	-0.184225	0.000064
C21	C	-0.714641	0.177589	0.000067
C22	C	-0.854081	0.181307	0.000055
C23	C	-1.486830	-0.249743	-0.124533
C24	C	-1.483368	-0.380766	-0.124527
C25	C	-1.483382	-0.380739	0.124683
C26	C	-1.486853	-0.249720	0.124676
C27	C	-1.486817	-0.249759	-0.268413
C28	C	-1.483355	-0.380782	-0.268407
C29	C	-1.477942	0.414291	0.000072
C30	C	-1.481638	0.553734	0.000077
N31	N	-1.485109	0.184760	0.356183
N32	N	-1.485110	0.184739	-0.356054
C33	C	-1.569904	0.100287	0.428109
C34	C	-1.569907	0.100279	0.571992
C35	C	-1.400311	0.269222	0.572009
C36	C	-1.400314	0.269235	0.428129
C37	C	-1.667815	0.002745	0.428101
C38	C	-1.667819	0.002737	0.571984
H39	H	-0.889998	0.091418	-0.313069
N40	N	-1.488655	-0.182816	0.251961
N41	N	-1.487123	-0.241313	0.363206
H42	H	-1.488397	-0.194063	0.453107
N43	N	-1.641116	-0.118417	0.620983
N44	N	-1.636601	-0.138930	0.747284
H45	H	-1.617740	-0.224490	0.781893
N46	N	-1.782128	0.041341	0.627943
N47	N	-1.885225	-0.019811	0.600966
H48	H	-1.965950	0.007474	0.640476
N49	N	-1.481637	-0.447664	0.251952
N50	N	-1.478550	-0.564645	0.251944
H51	H	-1.477318	-0.611911	0.341830
N52	N	-1.108671	0.077621	-0.337748
N53	N	-1.082677	0.058239	-0.460740
H54	H	-1.123694	-0.018644	-0.509698
H55	H	-0.866268	0.181670	0.226125
N56	N	-1.598053	-0.218630	-0.337726
N57	N	-1.673584	-0.304144	-0.386546
H58	H	-1.752144	-0.282160	-0.435498
N59	N	-1.374628	-0.184867	-0.324428
N60	N	-1.363512	-0.067179	-0.331433
H61	H	-1.284277	-0.021346	-0.370990
N62	N	-1.788794	0.030000	0.379098
N63	N	-1.809269	0.034634	0.252796
H64	H	-1.894704	0.053894	0.218185
N65	N	-0.861494	0.291781	-0.337908
N66	N	-0.744210	0.307292	-0.349772
H67	H	-0.703193	0.384064	-0.398919
H68	H	-1.572799	-0.432491	-0.313059
H69	H	-1.637467	-0.088534	0.383453
N70	N	-1.117555	0.188314	0.251926
N71	N	-1.234535	0.191414	0.251910
H72	H	-1.281813	0.192679	0.341793
H73	H	-1.080163	0.278087	-0.313072
H74	H	-1.394681	-0.405619	-0.323658
H75	H	-1.331279	0.338031	0.369567
H76	H	-1.331274	0.338000	0.630603
