data_functionalizedCrystal
_audit_creation_method	'MofGen! by Chris Wilmer'
_symmetry_space_group_name_H-M	'P1'
_symmetry_Int_Tables_number	1
_symmetry_cell_setting	triclinic
loop_
_symmetry_equiv_pos_as_xyz
  x,y,z
_cell_length_a	17.917603
_cell_length_b	21.606444
_cell_length_c	21.606444
_cell_angle_alpha	90.001146
_cell_angle_beta	57.013278
_cell_angle_gamma	63.033015
loop_
_atom_site_label
_atom_site_type_symbol
_atom_site_fract_x
_atom_site_fract_y
_atom_site_fract_z
Zr1	Zr	0.818590	0.627138	-0.112102
O2	O	0.974616	0.534200	-0.216815
O3	O	0.662564	0.651546	-0.075918
O4	O	0.818584	0.657434	-0.210923
O5	O	0.818602	0.528312	0.020040
O6	O	0.818578	0.759288	-0.210921
O7	O	0.818597	0.528312	-0.081810
O8	O	0.539488	0.748755	0.030579
O9	O	1.097693	0.538844	-0.221460
O10	O	0.726736	0.742901	-0.065418
O11	O	0.726744	0.666889	0.010590
O12	O	0.910437	0.673821	-0.148362
O13	O	0.910445	0.597809	-0.072354
Zr14	Zr	0.818590	0.789584	0.050340
Zr15	Zr	0.818582	0.789584	-0.112098
Zr16	Zr	0.818599	0.627139	0.050337
Zr17	Zr	1.014883	0.634546	-0.119510
Zr18	Zr	0.622298	0.782176	0.057749
O19	O	0.974616	0.765176	0.014157
O20	O	0.974604	0.765176	-0.216810
O21	O	0.974628	0.534200	0.014151
O22	O	0.662564	0.882522	0.155054
O23	O	0.662552	0.882522	-0.075912
O24	O	0.662576	0.651546	0.155048
O25	O	0.818578	0.888410	-0.081801
O26	O	0.818597	0.759288	0.149162
O27	O	0.818602	0.657434	0.149160
O28	O	0.818584	0.888410	0.020048
O29	O	1.097686	0.667967	-0.221457
O30	O	0.539495	0.748756	0.159696
O31	O	0.539488	0.877878	0.159699
O32	O	0.539481	0.877878	0.030582
O33	O	1.097699	0.538844	-0.092343
O34	O	1.097693	0.667967	-0.092340
O35	O	0.726744	0.742901	0.086601
O36	O	0.726736	0.818914	0.010593
O37	O	0.910437	0.749834	-0.072351
O38	O	0.910445	0.673821	0.003657
C39	C	0.573059	0.699095	-0.021614
C40	C	0.489727	0.695951	-0.018469
C41	C	0.818601	0.708361	0.172305
C42	C	0.818604	0.708361	0.241264
C43	C	0.818580	0.911555	-0.030876
C44	C	0.818576	0.980518	-0.030874
C45	C	0.337158	0.690205	-0.012725
C46	C	0.300017	0.726515	-0.049034
C47	C	0.215123	0.723318	-0.045838
C48	C	0.422061	0.693401	-0.015920
C49	C	1.064122	0.717627	-0.040147
C50	C	1.147453	0.720772	-0.043292
C51	C	0.818601	0.505167	-0.030885
C52	C	0.818604	0.436205	-0.030887
C53	C	0.722687	1.048975	0.012423
C54	C	0.722690	1.113770	0.012419
C55	C	0.818583	1.110106	-0.030879
C56	C	0.914480	1.041641	-0.074182
C57	C	0.914476	0.976847	-0.074181
C58	C	0.914498	1.302945	-0.074185
C59	C	0.914495	1.367745	-0.074180
C60	C	0.722712	1.439867	0.012415
C61	C	0.722708	1.375074	0.012415
C62	C	0.818604	1.306615	-0.030890
C63	C	0.818600	1.236357	-0.030886
C64	C	0.818589	1.180362	-0.030879
C65	C	0.818580	0.708361	-0.234066
C66	C	0.818576	0.708361	-0.303025
C67	C	0.914494	0.672304	0.230368
C68	C	0.914491	0.672300	0.295165
C69	C	0.818597	0.708359	0.370858
C70	C	0.722701	0.744418	0.381754
C71	C	0.722705	0.744416	0.316957
C72	C	0.722682	0.744423	0.643073
C73	C	0.722686	0.744424	0.707871
C74	C	0.914468	0.672307	0.621281
C75	C	0.914472	0.672305	0.556484
C76	C	0.818576	0.708361	0.567385
C77	C	0.818581	0.708363	0.497123
C78	C	0.818592	0.708362	0.441119
C79	C	0.573048	0.902290	-0.021609
C80	C	0.489713	0.968107	-0.018462
C81	C	0.573069	0.699095	0.181572
C82	C	0.489741	0.695951	0.253676
C83	C	0.573059	0.902290	0.181576
C84	C	0.489727	0.968107	0.253682
C85	C	1.064122	0.514433	-0.243338
C86	C	1.147453	0.448615	-0.315444
C87	C	1.064133	0.514433	-0.040152
C88	C	1.147467	0.448615	-0.043299
C89	C	1.064111	0.717627	-0.243333
C90	C	1.147439	0.720771	-0.315437
C91	C	0.450578	0.959338	-0.056668
C92	C	0.372287	1.021175	-0.053727
C93	C	0.333127	1.091780	-0.012575
C94	C	0.372270	1.100548	0.025632
C95	C	0.450565	1.038712	0.022686
C96	C	0.450610	0.734152	0.327221
C97	C	0.372326	0.731194	0.394976
C98	C	0.333169	0.690040	0.389186
C99	C	0.372308	0.651835	0.315633
C100	C	0.450596	0.654788	0.247879
C101	C	0.450590	1.038700	0.247869
C102	C	0.372302	1.100550	0.315614
C103	C	0.333148	1.091804	0.389171
C104	C	0.372293	1.021203	0.394983
C105	C	0.450585	0.959356	0.327239
C106	C	1.186600	0.378022	-0.309631
C107	C	1.264912	0.316174	-0.377376
C108	C	1.304070	0.324920	-0.450934
C109	C	1.264920	0.395520	-0.456745
C110	C	1.186615	0.457367	-0.389000
C111	C	1.186610	0.457385	-0.005100
C112	C	1.264923	0.395549	-0.008060
C113	C	1.304086	0.324944	-0.049214
C114	C	1.264940	0.316176	-0.087418
C115	C	1.186634	0.378011	-0.084462
C116	C	1.186571	0.761933	-0.309621
C117	C	1.264856	0.764902	-0.377364
C118	C	1.304013	0.726705	-0.450923
C119	C	1.264873	0.685542	-0.456737
C120	C	1.186584	0.682578	-0.388994
H121	H	0.305200	0.656720	0.020756
H122	H	0.340438	1.158030	0.310868
C123	C	1.307992	0.405133	-0.537662
C124	C	1.264937	0.482779	-0.544071
C125	C	1.308005	0.492389	-0.624989
C126	C	1.394127	0.424353	-0.699498
C127	C	1.437187	0.346701	-0.693092
C128	C	1.394119	0.337091	-0.612174
H129	H	1.201180	0.533149	-0.488912
H130	H	1.276129	0.549873	-0.629731
H131	H	1.426008	0.431467	-0.759399
H132	H	1.500944	0.296332	-0.748250
H133	H	1.425995	0.279608	-0.607431
C134	C	1.307958	0.238519	-0.370972
C135	C	1.297204	0.182649	-0.404200
C136	C	1.340246	0.104997	-0.397794
C137	C	1.394043	0.083215	-0.358160
C138	C	1.404799	0.139087	-0.324928
C139	C	1.361757	0.216739	-0.331334
H140	H	1.257378	0.198772	-0.433543
H141	H	1.332283	0.063638	-0.422395
H142	H	1.425905	0.025733	-0.353417
H143	H	1.444625	0.122964	-0.295586
H144	H	1.369721	0.258098	-0.306734
C145	C	0.247020	1.159841	0.463687
C146	C	0.139357	1.169607	0.525208
C147	C	0.053226	1.237646	0.599720
C148	C	0.074758	1.295920	0.612711
C149	C	0.182425	1.286156	0.551188
C150	C	0.268556	1.218117	0.476676
H151	H	0.123414	1.126467	0.515593
H152	H	-0.026477	1.244873	0.645264
H153	H	0.010998	1.346287	0.667870
H154	H	0.198368	1.329296	0.560803
H155	H	0.348259	1.210889	0.431133
H156	H	0.644599	1.051968	0.047685
H157	H	0.992587	1.364754	-0.109437
H158	H	1.154701	0.793037	-0.249733
H159	H	1.296715	0.798420	-0.372615
H160	H	1.154742	0.514845	-0.393743
H161	H	0.331979	0.760002	-0.082519
H162	H	1.367761	0.729125	-0.506077
C163	C	0.493649	0.881677	-0.101944
C164	C	0.450596	0.872047	-0.143974
C165	C	0.493667	0.794389	-0.189257
C166	C	0.579790	0.726361	-0.192511
C167	C	0.622848	0.735989	-0.150480
C168	C	0.579778	0.813647	-0.105197
H169	H	0.386838	0.922408	-0.141567
H170	H	0.461792	0.787263	-0.220371
H171	H	0.611673	0.668874	-0.226032
H172	H	0.686606	0.685629	-0.152887
H173	H	0.611652	0.820774	-0.074082
H174	H	1.296838	0.258681	-0.120925
H175	H	0.340415	0.618327	0.310930
C176	C	1.143568	0.368357	-0.126473
C177	C	1.186645	0.290690	-0.171732
C178	C	1.143582	0.281029	-0.213744
C179	C	1.057443	0.349035	-0.210498
C180	C	1.014361	0.426708	-0.165237
C181	C	1.057423	0.436369	-0.123225
H182	H	1.250415	0.240343	-0.174136
H183	H	1.175475	0.223531	-0.247249
H184	H	1.025565	0.341884	-0.241598
H185	H	0.950590	0.477055	-0.162833
H186	H	1.025530	0.493867	-0.089720
H187	H	1.154730	0.514869	0.028418
C188	C	0.329173	1.178217	0.070906
C189	C	0.339914	1.234087	0.027965
C190	C	0.296806	1.311759	0.073246
C191	C	0.242957	1.333560	0.161468
C192	C	0.232214	1.277688	0.204414
C193	C	0.275322	1.200017	0.159133
H194	H	0.379779	1.217950	-0.037346
H195	H	0.304760	1.353118	0.041455
H196	H	0.211046	1.391057	0.194988
H197	H	0.192350	1.293826	0.269725
H198	H	0.267369	1.158658	0.190925
C199	C	0.493621	0.881704	0.333641
C200	C	0.579735	0.813664	0.259136
C201	C	0.622766	0.736012	0.265546
C202	C	0.579684	0.726401	0.346461
C203	C	0.493565	0.794444	0.420972
C204	C	0.450534	0.872095	0.414562
H205	H	0.611631	0.820776	0.199233
H206	H	0.686517	0.685643	0.210387
H207	H	0.611538	0.668919	0.351205
H208	H	0.461669	0.787331	0.480875
H209	H	0.386783	0.922464	0.469721
C210	C	1.307958	0.643526	-0.537657
C211	C	1.232624	0.661393	-0.558660
C212	C	1.275717	0.619375	-0.639582
C213	C	1.394145	0.559489	-0.699501
C214	C	1.469487	0.541619	-0.678499
C215	C	1.426393	0.583638	-0.597576
H216	H	1.144950	0.705727	-0.514304
H217	H	1.219944	0.632603	-0.655129
H218	H	1.426045	0.528384	-0.759404
H219	H	1.557161	0.497285	-0.722855
H220	H	1.482167	0.570409	-0.582030
H221	H	1.154732	0.649057	-0.393741
H222	H	1.154722	0.370887	-0.249742
C223	C	0.617210	1.189075	0.060053
C224	C	0.511729	1.193107	0.107688
C225	C	0.406244	1.268413	0.155324
C226	C	0.406240	1.339687	0.155326
C227	C	0.511724	1.335657	0.107689
C228	C	0.617209	1.260351	0.060052
H229	H	0.511729	1.140344	0.107689
H230	H	0.328158	1.271396	0.190588
H231	H	0.328153	1.395433	0.190589
H232	H	0.511724	1.388420	0.107688
H233	H	0.695296	1.257368	0.024788
H234	H	0.644622	1.378064	0.047676
H235	H	0.644629	1.495616	0.047674
H236	H	1.296783	0.402702	0.023054
C237	C	0.329232	1.011518	-0.095750
C238	C	0.404597	0.972695	-0.184776
C239	C	0.361543	0.963035	-0.226797
C240	C	0.243125	0.992198	-0.179791
C241	C	0.167753	1.031024	-0.090759
C242	C	0.210807	1.040683	-0.048738
H243	H	0.492264	0.951104	-0.219578
H244	H	0.417339	0.934294	-0.292704
H245	H	0.211254	0.985048	-0.210897
H246	H	0.080087	1.052614	-0.055957
H247	H	0.155011	1.069424	0.017169
C248	C	1.019990	1.227652	-0.121812
C249	C	1.046395	1.173180	-0.187185
C250	C	1.151897	1.097885	-0.234812
C251	C	1.230993	1.077061	-0.217065
C252	C	1.204590	1.131534	-0.151689
C253	C	1.099088	1.206829	-0.104062
H254	H	0.987841	1.188594	-0.200325
H255	H	1.171442	1.057560	-0.283208
H256	H	1.309092	1.021323	-0.252322
H257	H	1.263144	1.116121	-0.138549
H258	H	1.079543	1.247154	-0.055666
H259	H	0.269373	1.142124	-0.010182
H260	H	0.992558	0.921106	-0.109440
C261	C	1.019980	0.632637	0.147106
C262	C	1.125456	0.592970	0.135123
C263	C	1.230945	0.553300	0.051862
C264	C	1.230959	0.553297	-0.019415
C265	C	1.125479	0.592965	-0.007435
C266	C	1.019989	0.632635	0.075826
H267	H	1.125450	0.592971	0.187889
H268	H	1.309029	0.523935	0.042994
H269	H	1.309048	0.523931	-0.081050
H270	H	1.125485	0.592964	-0.060201
H271	H	0.941906	0.662000	0.084695
H272	H	0.992558	1.038662	-0.109439
C273	C	0.329204	1.011594	0.475902
C274	C	0.404531	0.972804	0.496912
C275	C	0.361430	0.963199	0.577834
C276	C	0.243002	0.992384	0.637746
C277	C	0.167668	1.031177	0.616738
C278	C	0.210769	1.040782	0.535815
H279	H	0.492205	0.951198	0.452561
H280	H	0.417198	0.934482	0.593386
H281	H	0.211096	0.985274	0.697650
H282	H	0.079994	1.052783	0.661089
H283	H	0.155001	1.069499	0.520263
C284	C	0.493628	0.612770	0.166981
C285	C	0.450544	0.567508	0.160621
C286	C	0.493572	0.525486	0.079725
C287	C	0.579683	0.528726	0.005188
C288	C	0.622772	0.573990	0.011545
C289	C	0.579744	0.616012	0.092442
H290	H	0.386795	0.565107	0.215800
H291	H	0.461675	0.491978	0.075019
H292	H	0.611535	0.497619	-0.054697
H293	H	0.686521	0.576391	-0.043634
H294	H	0.611642	0.649520	0.097147
C295	C	1.019974	0.632634	0.283173
C296	C	1.099079	0.656342	0.238552
C297	C	1.204568	0.616671	0.226556
C298	C	1.230953	0.553293	0.259181
C299	C	1.151846	0.529581	0.303805
C300	C	1.046356	0.569252	0.315801
H301	H	1.079549	0.703262	0.214398
H302	H	1.263128	0.634224	0.193522
H303	H	1.309042	0.523926	0.250300
H304	H	1.171375	0.482662	0.327959
H305	H	0.987796	0.551699	0.348835
H306	H	0.992558	0.642945	0.494853
C307	C	0.329276	0.773230	0.475877
C308	C	0.210857	0.833129	0.535808
C309	C	0.167809	0.875166	0.616706
C310	C	0.243181	0.857304	0.637672
C311	C	0.361607	0.797402	0.577739
C312	C	0.404655	0.755366	0.496842
H313	H	0.155056	0.846354	0.520289
H314	H	0.080142	0.919509	0.661072
H315	H	0.211314	0.888422	0.697557
H316	H	0.417408	0.784177	0.593258
H317	H	0.492322	0.711022	0.452475
H318	H	0.992551	0.642946	0.612411
H319	H	0.644593	0.773787	0.769506
H320	H	0.644598	0.773784	0.651959
H321	H	1.367848	0.274599	-0.051614
H322	H	0.644623	0.773774	0.443389
H323	H	0.644622	0.773777	0.325834
H324	H	0.482483	0.767664	0.331951
H325	H	0.482418	1.045862	0.053803
H326	H	0.269422	0.687641	0.444361
H327	H	0.482458	1.045835	0.187981
H328	H	1.367831	0.274554	-0.506089
