data_functionalizedCrystal
_audit_creation_method	'MofGen! by Chris Wilmer'
_symmetry_space_group_name_H-M	'P1'
_symmetry_Int_Tables_number	1
_symmetry_cell_setting	triclinic
loop_
_symmetry_equiv_pos_as_xyz
  x,y,z
_cell_length_a	11.792241
_cell_length_b	27.732048
_cell_length_c	10.268362
_cell_angle_alpha	89.989776
_cell_angle_beta	89.999626
_cell_angle_gamma	83.418036
loop_
_atom_site_label
_atom_site_type_symbol
_atom_site_fract_x
_atom_site_fract_y
_atom_site_fract_z
O1	O	1.504790	0.066248	-0.108189
O2	O	1.174230	0.073076	-0.108221
O3	O	1.349776	-0.000675	-0.108179
O4	O	1.329243	0.139999	-0.108231
O5	O	1.349761	-0.000678	0.108421
O6	O	1.174215	0.073073	0.108379
O7	O	1.504775	0.066245	0.108411
Cu8	Cu	1.339493	0.069659	0.128173
Cu9	Cu	1.339511	0.069662	-0.127983
O10	O	1.329228	0.139996	0.108370
C11	C	1.131945	0.072645	0.000075
C12	C	1.005973	0.071362	0.000064
C13	C	0.775336	0.069001	0.000103
C14	C	0.903679	0.070313	0.000082
C15	C	1.349338	-0.018686	0.000124
C16	C	1.348040	-0.072348	0.000135
C17	C	1.443606	-0.410609	0.000077
C18	C	1.438790	-0.612297	0.000059
O19	O	1.526178	-0.643045	0.000010
N20	N	1.334698	-0.632024	0.000050
C21	C	1.231803	-0.601327	0.000037
O22	O	1.143157	-0.622734	0.000016
C23	C	1.236620	-0.399640	0.000046
C24	C	1.340718	-0.379915	0.000069
C25	C	1.547695	-0.390884	0.000098
C26	C	1.548898	-0.340465	0.000110
C27	C	1.446011	-0.309771	0.000101
C28	C	1.341921	-0.329496	0.000080
C29	C	1.133726	-0.368943	0.000024
C30	C	1.134940	-0.318519	0.000023
C31	C	1.239038	-0.298794	0.000045
C32	C	1.240237	-0.248384	0.000083
N33	N	1.344328	-0.228656	0.000092
C34	C	1.447215	-0.259350	0.000101
C35	C	1.229282	-0.707215	0.000035
C36	C	1.228077	-0.757637	0.000035
C37	C	1.435065	-0.768603	0.000054
C38	C	1.436268	-0.718181	0.000063
C39	C	1.333374	-0.687488	0.000044
C40	C	1.449733	-0.153466	0.000127
C41	C	1.450927	-0.103042	0.000144
C42	C	1.243941	-0.092080	0.000118
C43	C	1.242746	-0.142500	0.000108
C44	C	1.345652	-0.173192	0.000108
O45	O	1.152896	-0.217607	0.000117
O46	O	1.535849	-0.237933	0.000093
C47	C	1.442403	-0.461028	0.000066
C48	C	1.338313	-0.480753	0.000045
C49	C	1.235426	-0.450060	0.000036
C50	C	1.337108	-0.531175	0.000045
C51	C	1.439996	-0.561868	0.000054
C52	C	1.544087	-0.542141	0.000063
C53	C	1.545290	-0.491722	0.000074
C54	C	1.131334	-0.469787	0.000027
C55	C	1.130140	-0.520207	0.000017
C56	C	1.233027	-0.550900	0.000026
C57	C	1.547059	0.066676	0.000112
C58	C	1.673032	0.067959	0.000114
C59	C	1.329667	0.158007	0.000063
C60	C	1.330965	0.211669	0.000044
N61	N	1.339489	0.069656	0.308339
N62	N	1.339525	0.069661	-0.308148
C63	C	1.339506	0.069661	0.574009
C64	C	1.339493	0.069660	0.426171
H65	H	1.535700	-0.086985	0.000165
O66	O	1.035015	-0.288684	-0.000223
C67	C	0.916282	-0.225363	-0.112406
C68	C	1.029473	-0.259130	-0.112308
H69	H	0.911775	-0.201453	-0.203003
H70	H	0.841637	-0.248102	-0.112506
H71	H	0.911672	-0.201513	-0.021714
H72	H	1.034194	-0.282987	-0.202985
H73	H	1.104064	-0.236363	-0.112140
H74	H	1.157981	-0.158560	0.000126
O75	O	1.646341	-0.472508	-0.000089
C76	C	1.767885	-0.421974	-0.112333
C77	C	1.653388	-0.443687	-0.112291
H78	H	1.773630	-0.398676	-0.203053
H79	H	1.773649	-0.398618	-0.021746
H80	H	1.841184	-0.452587	-0.112268
H81	H	1.580023	-0.413105	-0.112402
H82	H	1.647723	-0.467056	-0.202870
H83	H	1.045364	-0.536261	0.000010
O84	O	1.549798	-0.183207	0.000189
C85	C	1.755226	-0.188749	0.000148
C86	C	1.641989	-0.155013	0.000097
H87	H	1.829792	-0.165968	0.000046
H88	H	1.759915	-0.212627	0.090814
H89	H	1.759795	-0.212632	-0.090480
H90	H	1.637344	-0.131100	0.090664
H91	H	1.637348	-0.131167	-0.090628
H92	H	1.160173	-0.067080	0.000115
H93	H	1.631483	-0.415870	0.000100
O94	O	1.032634	-0.388120	0.000219
C95	C	0.911128	-0.438706	0.112334
C96	C	1.025649	-0.417012	0.112298
H97	H	0.905453	-0.462078	0.202926
H98	H	0.837762	-0.408121	0.112400
H99	H	0.905419	-0.462008	0.021636
H100	H	1.031469	-0.393716	0.202981
H101	H	1.098960	-0.447621	0.112164
O102	O	1.537488	-0.699102	0.000014
C103	C	1.742662	-0.715315	0.000107
C104	C	1.628106	-0.736982	0.000139
H105	H	1.815956	-0.745930	0.000236
H106	H	1.748489	-0.691998	-0.090565
H107	H	1.748341	-0.691971	0.090729
H108	H	1.622350	-0.760348	-0.090422
H109	H	1.622328	-0.760271	0.090871
O110	O	1.127057	-0.776874	0.000082
C111	C	1.033445	-0.849684	-0.000023
C112	C	1.147934	-0.827964	-0.000034
H113	H	1.050284	-0.890993	-0.000144
H114	H	0.982621	-0.837105	0.090638
H115	H	0.982662	-0.837027	-0.090657
H116	H	1.198809	-0.840611	0.090539
H117	H	1.198671	-0.840541	-0.090754
O118	O	1.644003	-0.571981	-0.000163
C119	C	1.762718	-0.635291	-0.112349
C120	C	1.649543	-0.601514	-0.112261
H121	H	1.767222	-0.659184	-0.202957
H122	H	1.837377	-0.612561	-0.112424
H123	H	1.767304	-0.659158	-0.021667
H124	H	1.644845	-0.577641	-0.202928
H125	H	1.574936	-0.624274	-0.112118
O126	O	1.031413	-0.439956	-0.000207
C127	C	0.912651	-0.376639	-0.112368
C128	C	1.025850	-0.410399	-0.112289
H129	H	0.908128	-0.352727	-0.202963
H130	H	0.838014	-0.399382	-0.112461
H131	H	0.908043	-0.352790	-0.021673
H132	H	1.030570	-0.434255	-0.202969
H133	H	1.100434	-0.387628	-0.112128
O134	O	1.649950	-0.321252	-0.000060
C135	C	1.771492	-0.270722	-0.112320
C136	C	1.656993	-0.292433	-0.112266
H137	H	1.777234	-0.247424	-0.203043
H138	H	1.777263	-0.247365	-0.021737
H139	H	1.844789	-0.301336	-0.112258
H140	H	1.583630	-0.261849	-0.112375
H141	H	1.651321	-0.315802	-0.202842
H142	H	1.518839	-0.793603	0.000062
H143	H	1.145488	-0.682229	0.000019
