data_functionalizedCrystal
_audit_creation_method	'MofGen! by Chris Wilmer'
_symmetry_space_group_name_H-M	'P1'
_symmetry_Int_Tables_number	1
_symmetry_cell_setting	triclinic
loop_
_symmetry_equiv_pos_as_xyz
  x,y,z
_cell_length_a	19.188930
_cell_length_b	27.732048
_cell_length_c	17.666332
_cell_angle_alpha	89.988553
_cell_angle_beta	89.976766
_cell_angle_gamma	82.893716
loop_
_atom_site_label
_atom_site_type_symbol
_atom_site_fract_x
_atom_site_fract_y
_atom_site_fract_z
O1	O	0.925765	0.060348	-0.063200
O2	O	0.722402	0.068472	-0.063149
O3	O	0.830399	-0.005968	-0.063161
O4	O	0.817767	0.134787	-0.063187
O5	O	0.830380	-0.005971	0.062735
O6	O	0.722383	0.068468	0.062748
O7	O	0.925746	0.060344	0.062697
Cu8	Cu	0.824063	0.064406	0.074218
Cu9	Cu	0.824085	0.064410	-0.074670
O10	O	0.817748	0.134783	0.062710
C11	C	0.696383	0.068207	-0.000194
C12	C	0.618883	0.067417	-0.000174
C13	C	0.573681	0.111096	-0.000194
C14	C	0.500862	0.110354	-0.000202
C15	C	0.473249	0.065931	-0.000205
C16	C	0.518461	0.022246	-0.000181
C17	C	0.591278	0.022990	-0.000165
N18	N	0.365491	0.031976	-0.043078
N19	N	0.296317	0.031273	-0.043094
C20	C	0.253854	0.063689	-0.000251
N21	N	0.283177	0.096841	0.042600
N22	N	0.352357	0.097546	0.042613
C23	C	0.394291	0.065120	-0.000222
C24	C	0.129692	0.106566	-0.000279
C25	C	0.056872	0.105822	-0.000282
C26	C	0.074473	0.017714	-0.000269
C27	C	0.147292	0.018459	-0.000258
C28	C	0.174897	0.062886	-0.000267
C29	C	0.830125	-0.023977	-0.000211
C30	C	0.829326	-0.077635	-0.000204
C31	C	0.888119	-0.416270	-0.000258
C32	C	0.885157	-0.617939	-0.000268
O33	O	0.938918	-0.649030	-0.000314
N34	N	0.821118	-0.637258	-0.000251
C35	C	0.757816	-0.606157	-0.000237
O36	O	0.703280	-0.627217	-0.000231
C37	C	0.760780	-0.404489	-0.000233
C38	C	0.824822	-0.385173	-0.000242
C39	C	0.952156	-0.396953	-0.000268
C40	C	0.952896	-0.346539	-0.000261
C41	C	0.889599	-0.315441	-0.000245
C42	C	0.825562	-0.334759	-0.000235
C43	C	0.697478	-0.373389	-0.000224
C44	C	0.698225	-0.322969	-0.000225
C45	C	0.762267	-0.303653	-0.000234
C46	C	0.763005	-0.253247	-0.000212
N47	N	0.827043	-0.233928	-0.000229
C48	C	0.890340	-0.265025	-0.000245
C49	C	0.756265	-0.712036	-0.000238
C50	C	0.755524	-0.762452	-0.000238
C51	C	0.882865	-0.774231	-0.000270
C52	C	0.883605	-0.723813	-0.000265
C53	C	0.820303	-0.692716	-0.000254
C54	C	0.891889	-0.159151	-0.000231
C55	C	0.892623	-0.108732	-0.000221
C56	C	0.765283	-0.096958	-0.000193
C57	C	0.764549	-0.147373	-0.000198
C58	C	0.827857	-0.178468	-0.000220
O59	O	0.709272	-0.222127	-0.000174
O60	O	0.944868	-0.243956	-0.000268
C61	C	0.887379	-0.466684	-0.000265
C62	C	0.823342	-0.486001	-0.000255
C63	C	0.760045	-0.454904	-0.000238
C64	C	0.822601	-0.536418	-0.000254
C65	C	0.885898	-0.567515	-0.000271
C66	C	0.949936	-0.548195	-0.000288
C67	C	0.950676	-0.497781	-0.000281
C68	C	0.696007	-0.474223	-0.000222
C69	C	0.695272	-0.524638	-0.000227
C70	C	0.758569	-0.555735	-0.000244
C71	C	0.951765	0.060609	-0.000260
C72	C	1.029264	0.061399	-0.000285
C73	C	0.818023	0.152793	-0.000243
C74	C	0.818821	0.206450	-0.000254
N75	N	0.824052	0.064402	0.178937
N76	N	0.824101	0.064410	-0.179389
C77	C	0.871889	0.031456	0.218541
C78	C	0.871893	0.031454	0.297789
C79	C	0.824067	0.064406	0.337429
C80	C	0.776221	0.097354	0.297816
C81	C	0.776214	0.097352	0.218570
N82	N	0.814718	0.107196	0.461842
N83	N	0.814729	0.107196	0.537122
C84	C	0.824085	0.064412	0.576193
N85	N	0.833444	0.021627	0.537140
N86	N	0.833436	0.021628	0.461853
C87	C	0.824069	0.064411	0.423359
C88	C	0.871929	0.031462	0.701727
C89	C	0.871928	0.031459	0.780976
C90	C	0.776260	0.097363	0.781001
C91	C	0.776257	0.097361	0.701754
C92	C	0.824096	0.064411	0.662121
H93	H	0.628083	-0.012580	-0.000150
C94	C	0.197021	-0.029589	-0.000246
C95	C	0.249538	-0.041189	-0.065608
C96	C	0.299268	-0.089239	-0.065593
C97	C	0.296481	-0.125688	-0.000215
C98	C	0.243962	-0.114088	0.065151
C99	C	0.194232	-0.066038	0.065136
H100	H	0.251603	-0.014207	-0.114008
H101	H	0.338147	-0.097826	-0.113982
H102	H	0.333294	-0.161257	-0.000204
H103	H	0.241897	-0.141070	0.113552
H104	H	0.155353	-0.057451	0.113525
C105	C	0.723595	0.133597	0.174999
C106	C	0.671004	0.169858	0.218595
C107	C	0.618385	0.206104	0.175023
C108	C	0.618357	0.206089	0.087855
C109	C	0.670950	0.169826	0.044255
C110	C	0.723569	0.133580	0.087827
H111	H	0.671022	0.169870	0.283126
H112	H	0.579452	0.232948	0.207299
H113	H	0.579406	0.232920	0.055600
H114	H	0.670932	0.169814	-0.020276
H115	H	0.762502	0.106737	0.055551
H116	H	0.934404	-0.799559	-0.000283
C117	C	1.019564	-0.582409	-0.000308
C118	C	1.036551	-0.618703	0.065056
C119	C	1.106175	-0.652918	0.065030
C120	C	1.158811	-0.650840	-0.000359
C121	C	1.141826	-0.614545	-0.065727
C122	C	1.072202	-0.580329	-0.065702
H123	H	0.997585	-0.620242	0.113465
H124	H	1.118748	-0.679787	0.113421
H125	H	1.210351	-0.676169	-0.000378
H126	H	1.180791	-0.613005	-0.114137
H127	H	1.059629	-0.553461	-0.114093
H128	H	0.495974	-0.013923	-0.000195
C129	C	1.023346	-0.325297	-0.000286
C130	C	1.075768	-0.337104	0.065067
C131	C	1.146223	-0.315867	0.065036
C132	C	1.164255	-0.282823	-0.000348
C133	C	1.111831	-0.271015	-0.065706
C134	C	1.041376	-0.292252	-0.065675
H135	H	1.062421	-0.361566	0.113472
H136	H	1.185030	-0.324609	0.113418
H137	H	1.216409	-0.267103	-0.000371
H138	H	1.125178	-0.246553	-0.114111
H139	H	1.002569	-0.283510	-0.114058
C140	C	0.451126	0.158402	-0.000229
C141	C	0.398683	0.169999	-0.065621
C142	C	0.348949	0.218047	-0.065650
C143	C	0.351657	0.254497	-0.000287
C144	C	0.404101	0.242901	0.065109
C145	C	0.453836	0.194853	0.065139
H146	H	0.396677	0.143016	-0.114011
H147	H	0.310126	0.226631	-0.114062
H148	H	0.314841	0.290065	-0.000309
H149	H	0.406108	0.269884	0.113499
H150	H	0.492658	0.186269	0.113550
C151	C	0.723643	0.133607	0.658182
C152	C	0.671052	0.169868	0.701777
C153	C	0.618433	0.206114	0.658205
C154	C	0.618406	0.206099	0.571037
C155	C	0.670999	0.169836	0.527437
C156	C	0.723617	0.133590	0.571010
H157	H	0.671071	0.169880	0.766308
H158	H	0.579501	0.232958	0.690481
H159	H	0.579454	0.232930	0.538783
H160	H	0.670980	0.169824	0.462906
H161	H	0.762550	0.106746	0.538733
C162	C	0.924502	-0.004791	0.174944
C163	C	0.924494	-0.004795	0.087776
C164	C	0.977105	-0.041043	0.044175
C165	C	1.029725	-0.077287	0.087742
C166	C	1.029735	-0.077285	0.174914
C167	C	0.977123	-0.041037	0.218515
H168	H	0.885540	0.022036	0.055521
H169	H	0.977098	-0.041045	-0.020356
H170	H	1.068671	-0.104120	0.055466
H171	H	1.068689	-0.104116	0.207169
H172	H	0.977131	-0.041035	0.283046
H173	H	0.596152	0.147272	-0.000202
H174	H	0.712400	-0.163101	-0.000170
H175	H	0.703375	-0.778175	-0.000217
H176	H	0.152169	0.142741	-0.000275
H177	H	0.910880	0.004630	0.669457
H178	H	0.704714	-0.686720	-0.000229
C179	C	1.021125	-0.476538	-0.000299
C180	C	1.073541	-0.488346	0.065060
C181	C	1.143994	-0.467107	0.065039
C182	C	1.162031	-0.434061	-0.000339
C183	C	1.109613	-0.422252	-0.065702
C184	C	1.039160	-0.443490	-0.065682
H185	H	1.060191	-0.512810	0.113461
H186	H	1.182797	-0.475849	0.113426
H187	H	1.214185	-0.418339	-0.000354
H188	H	1.122964	-0.397788	-0.114104
H189	H	1.000357	-0.434748	-0.114069
H190	H	0.645328	-0.389107	-0.000221
H191	H	0.020068	0.141392	-0.000294
H192	H	0.943441	-0.184464	-0.000251
H193	H	0.737280	0.124183	0.330095
C194	C	0.628590	-0.288763	-0.000211
C195	C	0.575975	-0.290829	-0.065576
C196	C	0.506342	-0.256624	-0.065561
C197	C	0.489324	-0.220353	-0.000180
C198	C	0.541940	-0.218286	0.065190
C199	C	0.611574	-0.252491	0.065174
H200	H	0.588572	-0.317680	-0.113979
H201	H	0.467392	-0.258154	-0.113952
H202	H	0.437777	-0.195032	-0.000169
H203	H	0.529344	-0.191435	0.113593
H204	H	0.650524	-0.250961	0.113566
H205	H	1.003703	-0.422268	-0.000284
H206	H	0.910880	0.004628	0.813222
C207	C	0.624818	-0.545881	-0.000217
C208	C	0.572379	-0.534096	0.065165
C209	C	0.501927	-0.555337	0.065168
C210	C	0.483916	-0.588362	-0.000211
C211	C	0.536357	-0.600149	-0.065598
C212	C	0.606808	-0.578909	-0.065601
H213	H	0.585711	-0.509647	0.113567
H214	H	0.463107	-0.546611	0.113572
H215	H	0.431763	-0.604086	-0.000209
H216	H	0.523025	-0.624598	-0.114000
H217	H	0.645628	-0.587634	-0.114005
H218	H	0.051991	-0.018456	-0.000319
H219	H	0.944776	-0.093007	-0.000226
C220	C	0.626374	-0.440022	-0.000196
C221	C	0.573749	-0.442088	-0.065551
C222	C	0.504110	-0.407889	-0.065519
C223	C	0.487096	-0.371623	-0.000131
C224	C	0.539722	-0.369556	0.065230
C225	C	0.609361	-0.403755	0.065197
H226	H	0.586342	-0.468935	-0.113960
H227	H	0.465153	-0.409420	-0.113903
H228	H	0.435545	-0.346307	-0.000107
H229	H	0.527129	-0.342708	0.113638
H230	H	0.648318	-0.402224	0.113582
H231	H	0.935754	-0.708089	-0.000273
H232	H	0.713749	-0.071630	-0.000177
H233	H	0.910848	0.004625	0.330041
H234	H	0.737317	0.124191	0.813276
