data_functionalizedCrystal
_audit_creation_method	'MofGen! by Chris Wilmer'
_symmetry_space_group_name_H-M	'P1'
_symmetry_Int_Tables_number	1
_symmetry_cell_setting	triclinic
loop_
_symmetry_equiv_pos_as_xyz
  x,y,z
_cell_length_a	17.699083
_cell_length_b	16.992695
_cell_length_c	16.176319
_cell_angle_alpha	89.993125
_cell_angle_beta	89.998611
_cell_angle_gamma	86.975619
loop_
_atom_site_label
_atom_site_type_symbol
_atom_site_fract_x
_atom_site_fract_y
_atom_site_fract_z
O1	O	1.010252	0.099146	-0.068631
O2	O	1.510252	0.599146	0.431369
O3	O	0.790676	0.112045	-0.068658
O4	O	1.290676	0.612045	0.431342
O5	O	0.899584	-0.008546	-0.068638
O6	O	1.399584	0.491454	0.431362
O7	O	0.901344	0.219736	-0.068651
O8	O	1.401344	0.719736	0.431349
O9	O	0.899567	-0.008553	0.068855
O10	O	1.399567	0.491447	0.568855
O11	O	0.790660	0.112037	0.068835
O12	O	1.290660	0.612037	0.568835
O13	O	1.010235	0.099138	0.068862
O14	O	1.510235	0.599138	0.568862
Cu15	Cu	0.900446	0.105587	0.081403
Cu16	Cu	1.400446	0.605587	0.581403
Cu17	Cu	0.900465	0.105596	-0.081199
Cu18	Cu	1.400465	0.605596	0.418801
O19	O	0.901328	0.219729	0.068842
O20	O	1.401328	0.719729	0.568842
C21	C	0.762442	0.111579	0.000085
C22	C	1.262442	0.611579	0.500085
C23	C	0.678338	0.110192	0.000075
C24	C	1.178338	0.610192	0.500075
C25	C	0.634124	0.180976	0.000071
C26	C	1.134124	0.680976	0.500071
C27	C	0.555099	0.179669	0.000082
C28	C	1.055099	0.679669	0.500082
C29	C	0.520290	0.107576	0.000091
C30	C	1.020290	0.607576	0.500091
C31	C	0.564510	0.036787	0.000097
C32	C	1.064510	0.536787	0.500097
C33	C	0.643533	0.038095	0.000092
C34	C	1.143533	0.538095	0.500092
C35	C	0.245818	0.031509	0.000118
C36	C	0.745818	0.531509	0.500118
C37	C	0.166789	0.030206	0.000120
C38	C	0.666789	0.530206	0.500120
C39	C	0.157384	0.173082	0.000108
C40	C	0.657384	0.673082	0.500108
C41	C	0.236408	0.174391	0.000103
C42	C	0.736408	0.674391	0.500103
C43	C	0.280621	0.103602	0.000113
C44	C	0.780621	0.603602	0.500113
C45	C	0.366308	0.105020	0.000103
C46	C	0.866308	0.605020	0.500103
C47	C	0.434604	0.106157	0.000095
C48	C	0.934604	0.606157	0.500095
C49	C	0.897311	-0.037758	0.000108
C50	C	1.397311	0.462242	0.500108
C51	C	0.890554	-0.124789	0.000107
C52	C	1.390554	0.375211	0.500107
C53	C	0.955751	-0.175154	0.000116
C54	C	1.455751	0.324846	0.500116
C55	C	0.949398	-0.256928	0.000107
C56	C	1.449398	0.243072	0.500107
C57	C	0.877846	-0.288336	0.000096
C58	C	1.377846	0.211664	0.500096
C59	C	0.812643	-0.237965	0.000084
C60	C	1.312643	0.262035	0.500084
C61	C	0.818998	-0.156192	0.000087
C62	C	1.318998	0.343808	0.500087
C63	C	0.851510	-0.531884	0.000081
C64	C	1.351510	-0.031884	0.500081
C65	C	0.845160	-0.613663	0.000081
C66	C	1.345160	-0.113663	0.500081
C67	C	0.981915	-0.632621	0.000102
C68	C	1.481915	-0.132621	0.500102
C69	C	0.988263	-0.550845	0.000110
C70	C	1.488263	-0.050845	0.500110
C71	C	0.923061	-0.500481	0.000094
C72	C	1.423061	-0.000481	0.500094
N73	N	0.871350	-0.371923	0.000090
N74	N	1.371350	0.128077	0.500090
N75	N	0.929558	-0.416897	0.000095
N76	N	1.429558	0.083103	0.500095
C77	C	1.038469	0.099604	0.000117
C78	C	1.538469	0.599604	0.500117
C79	C	1.122574	0.100991	0.000122
C80	C	1.622574	0.600991	0.500122
C81	C	0.903601	0.248941	0.000094
C82	C	1.403601	0.748941	0.500094
C83	C	0.910358	0.335972	0.000090
C84	C	1.410358	0.835972	0.500090
N85	N	0.900438	0.105580	0.195768
N86	N	1.400438	0.605580	0.695768
N87	N	0.900479	0.105597	-0.195564
N88	N	1.400479	0.605597	0.304436
C89	C	0.948679	0.052204	0.239041
C90	C	1.448679	0.552204	0.739041
C91	C	0.948683	0.052203	0.325588
C92	C	1.448683	0.552203	0.825588
C93	C	0.900449	0.105583	0.368861
C94	C	1.400449	0.605583	0.868861
C95	C	0.852202	0.158961	0.325582
C96	C	1.352202	0.658961	0.825582
C97	C	0.852195	0.158957	0.239036
C98	C	1.352195	0.658957	0.739036
C99	C	0.852229	0.158976	0.674610
C100	C	1.352229	0.658976	1.174610
C101	C	0.852242	0.158977	0.761161
C102	C	1.352242	0.658977	1.261161
C103	C	0.948717	0.052222	0.761162
C104	C	1.448717	0.552222	1.261162
C105	C	0.948709	0.052218	0.674617
C106	C	1.448709	0.552218	1.174617
C107	C	0.900461	0.105593	0.631345
C108	C	1.400461	0.605593	1.131345
C109	C	0.900456	0.105593	0.537501
C110	C	1.400456	0.605593	1.037501
C111	C	0.900457	0.105588	0.462703
C112	C	1.400457	0.605588	0.962703
H113	H	0.662460	0.239682	0.000064
H114	H	1.162460	0.739682	0.500064
H115	H	0.519103	0.237308	0.000078
H116	H	1.019103	0.737308	0.500078
H117	H	0.679531	-0.019545	0.000095
H118	H	1.179531	0.480455	0.500095
H119	H	0.987989	0.008755	0.639387
H120	H	1.487989	0.508755	1.139387
H121	H	1.046528	-0.525279	0.000120
H122	H	1.546528	-0.025279	0.500120
C123	C	0.125030	0.294467	-0.070586
C124	C	0.625030	0.794467	0.429414
C125	C	0.108782	0.250897	0.000103
C126	C	0.608782	0.750897	0.500103
H127	H	0.095022	0.342502	-0.070592
H128	H	0.595022	0.842502	0.429408
H129	H	0.177069	0.305560	-0.070586
H130	H	0.677069	0.805560	0.429414
H131	H	0.114005	0.264890	-0.118522
H132	H	0.614005	0.764890	0.381478
H133	H	0.119812	0.280472	0.048039
H134	H	0.619812	0.780472	0.548039
H135	H	0.056731	0.239806	0.000110
H136	H	0.556731	0.739806	0.500110
H137	H	0.765906	-0.115186	0.000080
H138	H	1.265906	0.384814	0.500080
C139	C	1.044038	-0.053327	0.247744
C140	C	1.544038	0.446673	0.747744
C141	C	1.001699	-0.006475	0.191480
C142	C	1.501699	0.493525	0.691480
H143	H	1.076766	-0.089557	0.218382
H144	H	1.576766	0.410443	0.718382
H145	H	1.073234	-0.020726	0.281488
H146	H	1.573234	0.479274	0.781488
H147	H	1.010826	-0.081482	0.281511
H148	H	1.510826	0.418518	0.781511
H149	H	1.034910	0.021686	0.157717
H150	H	1.534910	0.521686	0.657717
H151	H	0.972501	-0.039080	0.157722
H152	H	1.472501	0.460920	0.657722
C153	C	0.184019	-0.110903	0.000152
C154	C	0.684019	0.389097	0.500152
C155	C	0.128525	-0.049044	0.000138
C156	C	0.628525	0.450956	0.500138
H157	H	0.160394	-0.159824	0.000167
H158	H	0.660394	0.340176	0.500167
H159	H	0.214644	-0.107427	-0.047794
H160	H	0.714644	0.392573	0.452206
H161	H	0.214647	-0.107415	0.048100
H162	H	0.714647	0.392585	0.548100
H163	H	0.097901	-0.052529	-0.047814
H164	H	0.597901	0.447471	0.452186
H165	H	0.097887	-0.052522	0.048088
H166	H	0.597887	0.447478	0.548088
H167	H	0.987964	0.008741	0.360821
H168	H	1.487964	0.508741	0.860821
H169	H	0.812945	0.202437	0.639385
H170	H	1.312945	0.702437	1.139385
H171	H	0.812925	0.202421	0.360819
H172	H	1.312925	0.702421	0.860819
C173	C	0.984959	-0.083568	0.787817
C174	C	1.484959	0.416432	1.287817
C175	C	1.001745	-0.006460	0.808729
C176	C	1.501745	0.493540	1.308729
H177	H	1.017700	-0.119792	0.817179
H178	H	1.517700	0.380208	1.317179
H179	H	0.933946	-0.092011	0.802010
H180	H	1.433946	0.407989	1.302010
H181	H	0.991862	-0.091196	0.730080
H182	H	1.491862	0.408804	1.230080
H183	H	0.994837	0.001169	0.866466
H184	H	1.494837	0.501169	1.366466
H185	H	1.052770	0.001986	0.794541
H186	H	1.552770	0.501986	1.294541
C187	C	0.548203	-0.085398	-0.070572
C188	C	1.048203	0.414602	0.429428
C189	C	0.526250	-0.042460	0.000105
C190	C	1.026250	0.457540	0.500105
H191	H	0.524587	-0.134324	-0.070565
H192	H	1.024587	0.365676	0.429435
H193	H	0.533315	-0.056256	-0.118511
H194	H	1.033315	0.443744	0.381489
H195	H	0.601595	-0.094743	-0.070562
H196	H	1.101595	0.405257	0.429438
H197	H	0.472858	-0.033110	0.000093
H198	H	0.972858	0.466890	0.500093
H199	H	0.541133	-0.071608	0.048056
H200	H	1.041133	0.428392	0.548056
H201	H	0.812961	0.202446	0.796393
H202	H	1.312961	0.702446	1.296393
C203	C	0.340133	-0.049910	-0.070563
C204	C	0.840133	0.450090	0.429437
C205	C	0.294409	-0.046302	0.000118
C206	C	0.794409	0.453698	0.500118
H207	H	0.370135	-0.097949	-0.070560
H208	H	0.870135	0.402051	0.429440
H209	H	0.309107	-0.047445	-0.118499
H210	H	0.809107	0.452555	0.381501
H211	H	0.372174	-0.006788	-0.070556
H212	H	0.872174	0.493212	0.429444
H213	H	0.262363	-0.089421	0.000107
H214	H	0.762363	0.410579	0.500107
H215	H	0.325437	-0.048775	0.048066
H216	H	0.825437	0.451225	0.548066
C217	C	0.800520	-0.398121	0.000061
C218	C	1.300520	0.101879	0.500061
C219	C	0.779840	-0.476530	0.000065
C220	C	1.279840	0.023470	0.500065
H221	H	0.756271	-0.363947	0.000045
H222	H	1.256271	0.136053	0.500045
H223	H	0.829640	-0.388619	0.048010
H224	H	1.329640	0.111381	0.548010
H225	H	0.829664	-0.388619	-0.047884
H226	H	1.329664	0.111381	0.452116
H227	H	0.750701	-0.486034	0.048013
H228	H	1.250701	0.013966	0.548013
H229	H	0.750707	-0.486036	-0.047889
H230	H	1.250707	0.013964	0.452111
C231	C	0.815959	0.294742	0.212364
C232	C	1.315959	0.794742	0.712364
C233	C	0.799171	0.217632	0.191465
C234	C	1.299171	0.717632	0.691465
H235	H	0.783224	0.330963	0.182991
H236	H	1.283224	0.830963	0.682991
H237	H	0.809057	0.302380	0.270092
H238	H	1.309057	0.802380	0.770092
H239	H	0.866980	0.303181	0.198167
H240	H	1.366980	0.803181	0.698167
H241	H	0.748152	0.209192	0.205667
H242	H	1.248152	0.709192	0.705667
H243	H	0.806067	0.209991	0.133724
H244	H	1.306067	0.709991	0.633724
C245	C	0.319804	0.258756	-0.070605
C246	C	0.819804	0.758756	0.429395
C247	C	0.274663	0.253640	0.000083
C248	C	0.774663	0.753640	0.500083
H249	H	0.343414	0.307686	-0.070619
H250	H	0.843414	0.807686	0.429381
H251	H	0.357446	0.216795	-0.070596
H252	H	0.857446	0.716795	0.429404
H253	H	0.289159	0.255270	-0.118542
H254	H	0.789159	0.755270	0.381458
H255	H	0.305309	0.257120	0.048019
H256	H	0.805309	0.757120	0.548019
H257	H	0.237016	0.295613	0.000081
H258	H	0.737016	0.795613	0.500081
H259	H	1.014017	-0.149588	0.000131
H260	H	1.514017	0.350412	0.500131
H261	H	1.002489	-0.297933	0.000117
H262	H	1.502489	0.202067	0.500117
H263	H	1.034999	-0.673635	0.000114
H264	H	1.534999	-0.173635	0.500114
H265	H	0.786891	-0.639232	0.000085
H266	H	1.286891	-0.139232	0.500085
H267	H	0.754384	-0.263544	0.000070
H268	H	1.254384	0.236456	0.500070
