data_functionalizedCrystal
_audit_creation_method	'MofGen! by Chris Wilmer'
_symmetry_space_group_name_H-M	'P1'
_symmetry_Int_Tables_number	1
_symmetry_cell_setting	triclinic
loop_
_symmetry_equiv_pos_as_xyz
  x,y,z
_cell_length_a	14.908783
_cell_length_b	14.908520
_cell_length_c	14.908308
_cell_angle_alpha	83.639235
_cell_angle_beta	90.211273
_cell_angle_gamma	96.791586
loop_
_atom_site_label
_atom_site_type_symbol
_atom_site_fract_x
_atom_site_fract_y
_atom_site_fract_z
Zn1	Zn	1.325980	-0.317645	0.605030
Zn2	Zn	1.325877	-0.460296	0.462395
Zn3	Zn	1.184353	-0.316662	0.445949
Zn4	Zn	1.165844	-0.477686	0.604959
O5	O	1.250514	-0.393072	0.529583
O6	O	1.452212	-0.329701	0.593023
O7	O	1.314807	-0.433553	0.333974
O8	O	1.210929	-0.189703	0.460198
O9	O	1.452137	-0.434506	0.488229
O10	O	1.314982	-0.190425	0.577075
O11	O	1.210830	-0.328026	0.321891
O12	O	1.055652	-0.344889	0.460128
O13	O	1.179384	-0.464145	0.731208
O14	O	1.042054	-0.463192	0.576952
O15	O	1.297035	-0.346564	0.731260
O16	O	1.296860	-0.589691	0.488159
O17	O	1.179284	-0.602468	0.592900
C18	C	1.016119	-0.405822	0.516749
C19	C	0.915841	-0.411299	0.511280
C20	C	0.727464	-0.312628	0.610312
C21	C	0.633244	-0.317772	0.605177
C22	C	0.633180	-0.426725	0.495871
C23	C	0.727400	-0.421581	0.501006
C24	C	0.774539	-0.364532	0.558229
C25	C	0.868760	-0.359394	0.563369
C26	C	0.868694	-0.468341	0.454059
C27	C	0.774474	-0.473485	0.448924
C28	C	1.236076	-0.629032	0.542328
C29	C	1.229980	-0.729974	0.547814
C30	C	1.341070	-0.906289	0.449158
C31	C	1.335345	-1.001133	0.454310
C32	C	1.212812	-1.014508	0.563277
C33	C	1.218536	-0.919664	0.558124
C34	C	1.282666	-0.865558	0.501062
C35	C	1.288386	-0.770712	0.495905
C36	C	1.165857	-0.784088	0.604875
C37	C	1.160133	-0.878932	0.610028
C38	C	1.485824	-0.380273	0.542468
C39	C	1.586099	-0.374819	0.547959
C40	C	1.236156	-0.407404	0.764882
C41	C	1.230038	-0.413511	0.865152
C42	C	1.265031	-0.156190	0.516810
C43	C	1.271218	-0.055245	0.511367
C44	C	1.264871	-0.378727	0.295199
C45	C	1.271180	-0.372355	0.194925
C46	C	1.341049	-0.302529	1.053626
C47	C	1.335303	-0.308264	1.147839
C48	C	1.212797	-0.430712	1.147792
C49	C	1.218542	-0.424977	1.053579
C50	C	1.282672	-0.360884	1.006499
C51	C	1.288421	-0.355154	0.912285
C52	C	1.165911	-0.477597	0.912240
C53	C	1.160165	-0.483332	1.006452
H54	H	0.594785	-0.473160	0.449272
C55	C	0.779318	-0.249879	0.673261
N56	N	0.818374	-0.202615	0.720675
C57	C	1.411610	-0.846771	0.386388
N58	N	1.464744	-0.801942	0.339109
C59	C	1.089589	-0.938459	0.672788
N60	N	1.036450	-0.983294	0.720055
C61	C	1.399525	-0.244072	1.199675
N62	N	1.447901	-0.195719	1.238718
H63	H	1.393270	-0.250347	1.015294
H64	H	1.107951	-0.535512	1.044797
C65	C	1.101692	-0.541792	0.860393
N66	N	1.053325	-0.590144	0.821341
H67	H	1.340602	-0.726660	0.449439
C68	C	1.358961	-0.284649	0.860499
N69	N	1.412091	-0.231539	0.821496
C70	C	0.722611	-0.536236	0.385983
N71	N	0.683548	-0.583504	0.338576
C72	C	0.920484	-0.525440	0.396766
N73	N	0.959492	-0.568449	0.353616
C74	C	0.581466	-0.260677	0.662474
N75	N	0.542466	-0.217670	0.705634
C76	C	1.142273	-1.074040	0.626038
N77	N	1.089140	-1.118881	0.673308
C78	C	0.920611	-0.296636	0.626312
N79	N	0.959664	-0.249362	0.673719
H80	H	1.382905	-1.034293	0.412047
C81	C	1.101609	-0.739276	0.661973
N82	N	1.053218	-0.705523	0.704977
H83	H	1.160586	-0.482893	1.186140
