data_functionalizedCrystal
_audit_creation_method	'MofGen! by Chris Wilmer'
_symmetry_space_group_name_H-M	'P1'
_symmetry_Int_Tables_number	1
_symmetry_cell_setting	triclinic
loop_
_symmetry_equiv_pos_as_xyz
  x,y,z
_cell_length_a	16.109301
_cell_length_b	16.992695
_cell_length_c	15.186229
_cell_angle_alpha	89.995943
_cell_angle_beta	89.999362
_cell_angle_gamma	87.064852
loop_
_atom_site_label
_atom_site_type_symbol
_atom_site_fract_x
_atom_site_fract_y
_atom_site_fract_z
O1	O	1.109856	0.100784	-0.073174
O2	O	0.868631	0.113326	-0.073188
O3	O	0.988276	-0.007088	-0.073174
O4	O	0.990210	0.221197	-0.073188
O5	O	0.988268	-0.007089	0.073284
O6	O	0.868622	0.113324	0.073270
O7	O	1.109847	0.100782	0.073284
Zn8	Zn	0.989233	0.107053	0.096530
Zn9	Zn	0.989245	0.107055	-0.096434
O10	O	0.990202	0.221196	0.073270
C11	C	0.837618	0.112817	0.000039
C12	C	0.745221	0.111294	0.000034
C13	C	0.527480	0.179203	0.000040
C14	C	0.440664	0.177766	0.000046
C15	C	0.451005	0.034899	0.000051
C16	C	0.537819	0.036337	0.000051
C17	C	0.576055	0.108492	0.000042
C18	C	0.402424	0.105616	0.000047
C19	C	0.308294	0.104057	0.000053
C20	C	0.670191	0.110051	0.000037
C21	C	0.985784	-0.036300	0.000055
C22	C	0.978361	-0.123343	0.000054
C23	C	1.049987	-0.173601	0.000059
C24	C	1.043007	-0.255386	0.000050
C25	C	0.964400	-0.286911	0.000043
C26	C	0.892768	-0.236645	0.000035
C27	C	0.899749	-0.154862	0.000038
C28	C	0.935467	-0.530501	0.000029
C29	C	0.928491	-0.612291	0.000029
C30	C	1.078731	-0.631026	0.000043
C31	C	1.085704	-0.549240	0.000051
C32	C	1.014073	-0.498982	0.000038
N33	N	0.957263	-0.370508	0.000037
N34	N	1.021210	-0.415387	0.000038
C35	C	1.140860	0.101291	0.000055
C36	C	1.233257	0.102814	0.000054
C37	C	0.992694	0.250408	0.000039
C38	C	1.000118	0.337451	0.000034
N39	N	0.989232	0.107051	0.228223
N40	N	0.989253	0.107051	-0.228127
C41	C	1.042231	0.053750	0.453952
C42	C	1.042234	0.053748	0.546141
C43	C	0.936247	0.160355	0.546138
C44	C	0.936241	0.160352	0.453950
C45	C	0.989238	0.107051	0.407859
C46	C	0.989246	0.107051	0.592237
C47	C	0.989249	0.107050	0.692193
C48	C	0.989235	0.107051	0.307897
H49	H	0.419863	-0.023846	0.000064
O50	O	1.093791	0.001943	0.590779
C51	C	1.198881	-0.103826	0.581047
C52	C	1.140547	-0.045184	0.530387
H53	H	1.236686	-0.141954	0.532242
H54	H	1.242718	-0.070002	0.624178
H55	H	1.160375	-0.142972	0.624236
H56	H	1.178986	-0.006022	0.487150
H57	H	1.096707	-0.079056	0.487311
H58	H	1.113997	-0.147941	0.000071
H59	H	0.893100	0.203753	0.583674
H60	H	0.401118	0.235347	0.000046
H61	H	0.841423	-0.113942	0.000033
O62	O	0.585046	-0.032335	0.000206
C63	C	0.689105	-0.113600	0.076056
C64	C	0.635656	-0.035814	0.075998
H65	H	0.730048	-0.116432	0.137318
H66	H	0.646907	-0.165449	0.076112
H67	H	0.729971	-0.116482	0.014737
H68	H	0.594782	-0.032856	0.137307
H69	H	0.677902	0.015998	0.075896
H70	H	0.558608	0.237956	0.000039
O71	O	0.884851	0.212242	0.409211
C72	C	0.845154	0.348566	0.381027
C73	C	0.903418	0.289894	0.431732
H74	H	0.860134	0.411361	0.399230
H75	H	0.854255	0.339475	0.307210
H76	H	0.777893	0.338291	0.399149
H77	H	0.970702	0.300134	0.413683
H78	H	0.894246	0.298999	0.505536
O79	O	1.112669	-0.304095	0.000101
C80	C	1.262421	-0.314047	0.000075
C81	C	1.183594	-0.258795	0.000039
H82	H	1.319784	-0.277444	0.000006
H83	H	1.262958	-0.352795	0.061380
H84	H	1.262873	-0.352815	-0.061204
H85	H	1.183090	-0.219978	0.061276
H86	H	1.183087	-0.220101	-0.061307
H87	H	1.149714	-0.523580	0.000057
H88	H	1.137048	-0.671954	0.000051
O89	O	0.852064	-0.642784	-0.000027
C90	C	0.703784	-0.615576	-0.000008
C91	C	0.790279	-0.580937	0.000036
H92	H	0.653807	-0.565589	0.000061
H93	H	0.696721	-0.653365	-0.061316
H94	H	0.696794	-0.653427	0.061268
H95	H	0.797328	-0.543050	-0.061199
H96	H	0.797302	-0.543192	0.061384
O97	O	0.865909	-0.481658	-0.000133
C98	C	0.786613	-0.378421	-0.075990
C99	C	0.865417	-0.433706	-0.075926
H100	H	0.786198	-0.339626	-0.137252
H101	H	0.729208	-0.414968	-0.076048
H102	H	0.786124	-0.339702	-0.014671
H103	H	0.865987	-0.472436	-0.137234
H104	H	0.922786	-0.397111	-0.075821
H105	H	1.085383	0.010347	0.416427
O106	O	0.816455	-0.267360	-0.000090
C107	C	0.721370	-0.348778	-0.075998
C108	C	0.807828	-0.314064	-0.075958
H109	H	0.714360	-0.386533	-0.137340
H110	H	0.714326	-0.386653	-0.014747
H111	H	0.671390	-0.298794	-0.075959
H112	H	0.857860	-0.363998	-0.076028
H113	H	0.814801	-0.276168	-0.137204
