data_functionalizedCrystal
_audit_creation_method	'MofGen! by Chris Wilmer'
_symmetry_space_group_name_H-M	'P1'
_symmetry_Int_Tables_number	1
_symmetry_cell_setting	triclinic
loop_
_symmetry_equiv_pos_as_xyz
  x,y,z
_cell_length_a	21.295420
_cell_length_b	25.639240
_cell_length_c	21.295411
_cell_angle_alpha	90.021594
_cell_angle_beta	89.975408
_cell_angle_gamma	89.961055
loop_
_atom_site_label
_atom_site_type_symbol
_atom_site_fract_x
_atom_site_fract_y
_atom_site_fract_z
Zn1	Zn	0.962300	0.208269	-0.355912
Zn2	Zn	1.462300	0.708269	0.144088
Zn3	Zn	0.962179	0.295689	-0.250638
Zn4	Zn	1.462179	0.795689	0.249362
Zn5	Zn	0.857023	0.208263	-0.250657
Zn6	Zn	1.357023	0.708263	0.249343
Zn7	Zn	0.856969	0.295669	-0.355869
Zn8	Zn	1.356969	0.795669	0.144131
O9	O	0.909618	0.251973	-0.303269
O10	O	1.409618	0.751973	0.196731
O11	O	1.050373	0.219877	-0.341957
O12	O	1.550373	0.719877	0.158043
O13	O	0.948202	0.284098	-0.162551
O14	O	1.448202	0.784098	0.337449
O15	O	0.871061	0.135099	-0.264645
O16	O	1.371061	0.635099	0.235355
O17	O	1.050284	0.284104	-0.264612
O18	O	1.550284	0.784104	0.235388
O19	O	0.948408	0.135103	-0.341976
O20	O	1.448408	0.635103	0.158024
O21	O	0.870944	0.219866	-0.162565
O22	O	1.370944	0.719866	0.337435
O23	O	0.768927	0.219847	-0.264604
O24	O	1.268927	0.719847	0.235396
O25	O	0.870970	0.284069	-0.443964
O26	O	1.370970	0.784069	0.056036
O27	O	0.768887	0.284063	-0.341903
O28	O	1.268887	0.784063	0.158097
O29	O	0.948356	0.219857	-0.443996
O30	O	1.448356	0.719857	0.056004
O31	O	0.948150	0.368852	-0.264571
O32	O	1.448150	0.868852	0.235429
O33	O	0.870852	0.368837	-0.341884
O34	O	1.370852	0.868837	0.158116
C35	C	0.746066	0.251953	-0.303251
C36	C	1.246066	0.751953	0.196749
C37	C	0.676098	0.251957	-0.303259
C38	C	1.176098	0.751957	0.196741
C39	C	0.176686	0.218608	-0.343617
C40	C	0.676686	0.718608	0.156383
C41	C	0.242428	0.218605	-0.343617
C42	C	0.742428	0.718605	0.156383
C43	C	0.275259	0.251989	-0.303284
C44	C	0.775259	0.751989	0.196716
C45	C	0.242341	0.285388	-0.262959
C46	C	0.742341	0.785388	0.237041
C47	C	0.176600	0.285395	-0.262964
C48	C	0.676600	0.785395	0.237036
N49	N	0.378448	0.255922	-0.248164
N50	N	0.878448	0.755922	0.251836
N51	N	0.440899	0.255913	-0.248160
N52	N	0.940899	0.755913	0.251840
C53	C	0.473333	0.251971	-0.303265
C54	C	0.973333	0.751971	0.196735
N55	N	0.440957	0.248030	-0.358375
N56	N	0.940957	0.748030	0.141625
N57	N	0.378500	0.248036	-0.358378
N58	N	0.878500	0.748036	0.141622
C59	C	0.346544	0.251985	-0.303273
C60	C	0.846544	0.751985	0.196727
C61	C	0.577529	0.218572	-0.343591
C62	C	1.077529	0.718572	0.156409
C63	C	0.643272	0.218572	-0.343592
C64	C	1.143272	0.718572	0.156408
C65	C	0.643184	0.285353	-0.262927
C66	C	1.143184	0.785353	0.237073
C67	C	0.577441	0.285356	-0.262932
C68	C	1.077441	0.785356	0.237068
C69	C	0.544618	0.251963	-0.303263
C70	C	1.044618	0.751963	0.196737
C71	C	0.909499	0.387815	-0.303234
C72	C	1.409499	0.887815	0.196766
C73	C	0.909506	0.445929	-0.303240
C74	C	1.409506	0.945929	0.196760
C75	C	0.949919	0.806287	-0.263057
C76	C	1.449919	1.306287	0.236943
C77	C	0.949939	0.860892	-0.263063
C78	C	1.449939	1.360892	0.236937
O79	O	0.984216	0.889124	-0.228877
O80	O	1.484216	1.389124	0.271123
N81	N	0.909669	0.888212	-0.303283
N82	N	1.409669	1.388212	0.196717
C83	C	0.869381	0.860925	-0.343505
C84	C	1.369381	1.360925	0.156495
O85	O	0.835131	0.889176	-0.377716
O86	O	1.335131	1.389176	0.122284
C87	C	0.869366	0.806321	-0.343501
C88	C	1.369366	1.306321	0.156499
C89	C	0.909634	0.779004	-0.303274
C90	C	1.409634	1.279004	0.196726
C91	C	0.990185	0.778970	-0.222833
C92	C	1.490185	1.278970	0.277167
C93	C	0.990164	0.724370	-0.222826
C94	C	1.490164	1.224370	0.277174
C95	C	0.949879	0.697086	-0.263043
C96	C	1.449879	1.197086	0.236957
C97	C	0.909614	0.724404	-0.303267
C98	C	1.409614	1.224404	0.196733
C99	C	0.829082	0.779035	-0.383726
C100	C	1.329082	1.279035	0.116274
C101	C	0.829070	0.724428	-0.383719
C102	C	1.329070	1.224428	0.116281
C103	C	0.869338	0.697111	-0.343492
C104	C	1.369338	1.197111	0.156508
C105	C	0.869308	0.642520	-0.343477
C106	C	1.369308	1.142520	0.156523
N107	N	0.909578	0.615200	-0.303257
N108	N	1.409578	1.115200	0.196743
C109	C	0.949863	0.642483	-0.263040
C110	C	1.449863	1.142483	0.236960
C111	C	0.869418	0.975595	-0.343509
C112	C	1.369418	1.475595	0.156491
C113	C	0.869430	1.030197	-0.343510
C114	C	1.369430	1.530197	0.156490
C115	C	0.949988	1.030161	-0.263069
C116	C	1.449988	1.530161	0.236931
C117	C	0.949973	0.975558	-0.263065
C118	C	1.449973	1.475558	0.236935
C119	C	0.909688	0.948275	-0.303289
C120	C	1.409688	1.448275	0.196711
C121	C	0.949817	0.527818	-0.263028
C122	C	1.449817	1.027818	0.236972
C123	C	0.949792	0.473213	-0.263023
C124	C	1.449792	0.973213	0.236977
C125	C	0.869236	0.473254	-0.343467
C126	C	1.369236	0.973254	0.156533
C127	C	0.869259	0.527855	-0.343470
C128	C	1.369259	1.027855	0.156530
C129	C	0.909555	0.555135	-0.303248
C130	C	1.409555	1.055135	0.196752
O131	O	0.835050	0.614252	-0.377647
O132	O	1.335050	1.114252	0.122353
O133	O	0.984114	0.614225	-0.228840
O134	O	1.484114	1.114225	0.271160
C135	C	1.073808	0.251993	-0.303287
C136	C	1.573808	0.751993	0.196713
C137	C	1.143776	0.252002	-0.303295
C138	C	1.643776	0.752002	0.196705
C139	C	0.909670	0.251962	-0.467459
C140	C	1.409670	0.751962	0.032541
C141	C	0.909692	0.251957	-0.537427
C142	C	1.409692	0.751957	-0.037427
C143	C	0.909730	1.115600	-0.303307
C144	C	1.409730	1.615600	0.196693
C145	C	0.909718	1.057486	-0.303295
C146	C	1.409718	1.557486	0.196705
C147	C	0.949985	0.218520	-0.570312
C148	C	1.449985	0.718520	-0.070312
C149	C	0.949985	0.218497	-0.636054
C150	C	1.449985	0.718497	-0.136054
C151	C	0.909697	0.251921	-0.668910
C152	C	1.409697	0.751921	-0.168910
C153	C	0.869396	0.285360	-0.636018
C154	C	1.369396	0.785360	-0.136018
C155	C	0.869394	0.285378	-0.570277
C156	C	1.369394	0.785378	-0.070277
N157	N	0.904828	0.297659	-0.772125
N158	N	1.404828	0.797659	-0.272125
N159	N	0.904834	0.297640	-0.834577
N160	N	1.404834	0.797640	-0.334577
C161	C	0.909701	0.251868	-0.866985
C162	C	1.409701	0.751868	-0.366985
N163	N	0.914574	0.206114	-0.834582
N164	N	1.414574	0.706114	-0.334582
N165	N	0.914571	0.206133	-0.772125
N166	N	1.414571	0.706133	-0.272125
C167	C	0.909695	0.251905	-0.740195
C168	C	1.409695	0.751905	-0.240195
C169	C	0.949996	0.218404	-0.971155
C170	C	1.449996	0.718404	-0.471155
C171	C	0.949990	0.218380	-1.036898
C172	C	1.449990	0.718380	-0.536898
C173	C	0.869405	0.285247	-1.036861
C174	C	1.369405	0.785247	-0.536861
C175	C	0.869407	0.285266	-0.971118
C176	C	1.369407	0.785266	-0.471118
C177	C	0.909706	0.251845	-0.938269
C178	C	1.409706	0.751845	-0.438269
C179	C	0.909602	0.251946	-0.139717
C180	C	1.409602	0.751946	0.360283
C181	C	0.909702	0.251803	-0.069750
C182	C	1.409702	0.751803	0.430250
H183	H	0.669914	0.312539	-0.230092
H184	H	1.169914	0.812539	0.269908
C185	C	0.278452	0.322108	-0.218591
C186	C	0.778452	0.822108	0.281409
H187	H	0.322319	0.317318	-0.224358
H188	H	0.822319	0.817318	0.275642
H189	H	0.267661	0.357250	-0.227727
H190	H	0.767661	0.857250	0.272273
H191	H	0.267659	0.314404	-0.176312
H192	H	0.767659	0.814404	0.323688
H193	H	1.022994	0.801179	-0.190083
H194	H	1.522994	1.301179	0.309917
H195	H	0.550646	0.312546	-0.230095
H196	H	1.050646	0.812546	0.269905
C197	C	0.994321	0.181605	-1.073074
C198	C	1.494321	0.681605	-0.573074
H199	H	0.988549	0.186377	-1.116932
H200	H	1.488549	0.686377	-0.616932
H201	H	1.036605	0.189274	-1.062314
H202	H	1.536605	0.689274	-0.562314
H203	H	0.985151	0.146472	-1.062300
H204	H	1.485151	0.646472	-0.562300
C205	C	0.824930	0.443238	-0.387710
C206	C	1.324930	0.943238	0.112290
H207	H	0.800948	0.467324	-0.411668
H208	H	1.300948	0.967324	0.088332
H209	H	0.849000	0.421909	-0.415151
H210	H	1.349000	0.921909	0.084849
H211	H	0.797504	0.421966	-0.363604
H212	H	1.297504	0.921966	0.136396
H213	H	0.550802	0.191381	-0.376430
H214	H	1.050802	0.691381	0.123570
H215	H	0.982799	0.191305	-0.543570
H216	H	1.482799	0.691305	-0.043570
H217	H	0.670066	0.191380	-0.376432
H218	H	1.170066	0.691380	0.123568
H219	H	0.982583	0.450973	-0.230263
H220	H	1.482583	0.950973	0.269737
H221	H	0.269228	0.191409	-0.376452
H222	H	0.769228	0.691409	0.123548
H223	H	0.982631	0.550024	-0.230278
H224	H	1.482631	1.050024	0.269722
C225	C	0.825089	0.322051	-0.934944
C226	C	1.325089	0.822051	-0.434944
H227	H	0.801097	0.341957	-0.963926
H228	H	1.301097	0.841957	-0.463926
H229	H	0.797681	0.302055	-0.909288
H230	H	1.297681	0.802055	-0.409288
H231	H	0.849149	0.344845	-0.909308
H232	H	1.349149	0.844845	-0.409308
H233	H	1.022956	0.702131	-0.190071
H234	H	1.522956	1.202131	0.309929
C235	C	0.140580	0.181884	-0.387985
C236	C	0.640580	0.681884	0.112015
H237	H	0.096713	0.186668	-0.382213
H238	H	0.596713	0.686668	0.117787
H239	H	0.151374	0.189585	-0.430262
H240	H	0.651374	0.689585	0.069738
H241	H	0.151372	0.146741	-0.378844
H242	H	0.651372	0.646741	0.121156
C243	C	0.994272	0.945514	-0.218820
C244	C	1.494272	1.445514	0.281180
H245	H	1.018267	0.969588	-0.194874
H246	H	1.518267	1.469588	0.305126
H247	H	0.970204	0.924239	-0.191368
H248	H	1.470204	1.424239	0.308632
H249	H	1.021687	0.924186	-0.242928
H250	H	1.521687	1.424186	0.257072
C251	C	0.994300	1.060180	-0.218828
C252	C	1.494300	1.560180	0.281172
H253	H	0.988542	1.096611	-0.224598
H254	H	1.488542	1.596611	0.275402
H255	H	0.985105	1.051255	-0.176524
H256	H	1.485105	1.551255	0.323476
H257	H	1.036593	1.051199	-0.228080
H258	H	1.536593	1.551199	0.271920
C259	C	0.140398	0.322126	-0.218604
C260	C	0.640398	0.822126	0.281396
H261	H	0.169364	0.342007	-0.194579
H262	H	0.669364	0.842007	0.305421
H263	H	0.114746	0.344936	-0.242634
H264	H	0.614746	0.844936	0.257366
H265	H	0.114756	0.302090	-0.191218
H266	H	0.614756	0.802090	0.308782
C267	C	0.825131	1.060240	-0.387756
C268	C	1.325131	1.560240	0.112244
H269	H	0.801141	1.036166	-0.411708
H270	H	1.301141	1.536166	0.088292
H271	H	0.797721	1.081574	-0.363658
H272	H	1.297721	1.581574	0.136342
H273	H	0.849208	1.081509	-0.415214
H274	H	1.349208	1.581509	0.084786
H275	H	0.836608	0.953384	-0.376262
H276	H	1.336608	1.453384	0.123738
C277	C	0.994315	0.181640	-0.935015
C278	C	1.494315	0.681640	-0.435015
H279	H	0.988549	0.186445	-0.891151
H280	H	1.488549	0.686445	-0.391151
H281	H	0.985138	0.146506	-0.945784
H282	H	1.485138	0.646506	-0.445784
H283	H	1.036605	0.189297	-0.945808
H284	H	1.536605	0.689297	-0.445808
H285	H	0.796288	0.801267	-0.416480
H286	H	1.296288	1.301267	0.083520
H287	H	0.796266	0.702217	-0.416476
H288	H	1.296266	1.202217	0.083524
H289	H	0.836579	0.312606	-0.543503
H290	H	1.336579	0.812606	-0.043503
C291	C	0.825094	0.322016	-1.072995
C292	C	1.325094	0.822016	-0.572995
H293	H	0.830869	0.317220	-1.116858
H294	H	1.330869	0.817220	-0.616858
H295	H	0.782805	0.314367	-1.062206
H296	H	1.282805	0.814367	-0.562206
H297	H	0.834280	0.357151	-1.062221
H298	H	1.334280	0.857151	-0.562221
H299	H	0.836471	0.550097	-0.376228
H300	H	1.336471	1.050097	0.123772
H301	H	0.982795	0.191266	-0.662834
H302	H	1.482795	0.691266	-0.162834
C303	C	0.825084	0.322127	-0.672157
C304	C	1.325084	0.822127	-0.172157
H305	H	0.830862	0.317332	-0.716020
H306	H	1.330862	0.817332	-0.216020
H307	H	0.782796	0.314475	-0.661369
H308	H	1.282796	0.814475	-0.161369
H309	H	0.834267	0.357262	-0.661382
H310	H	1.334267	0.857262	-0.161382
