data_functionalizedCrystal
_audit_creation_method	'MofGen! by Chris Wilmer'
_symmetry_space_group_name_H-M	'P1'
_symmetry_Int_Tables_number	1
_symmetry_cell_setting	triclinic
loop_
_symmetry_equiv_pos_as_xyz
  x,y,z
_cell_length_a	6.817900
_cell_length_b	11.452831
_cell_length_c	10.773894
_cell_angle_alpha	83.899974
_cell_angle_beta	96.645922
_cell_angle_gamma	108.696887
loop_
_atom_site_label
_atom_site_type_symbol
_atom_site_fract_x
_atom_site_fract_y
_atom_site_fract_z
V1	V	-3.967650	-0.164839	-0.353163
O2	O	-3.936515	0.012549	-0.384264
O3	O	-3.938588	-0.331299	-0.314370
O4	O	-3.884792	-0.160273	-0.523786
O5	O	-3.990683	-0.159661	-0.173398
V6	V	-4.453237	-0.143861	-0.336081
O7	O	-4.224380	-0.210855	-0.390634
O8	O	-4.646703	-0.097845	-0.298610
O9	O	-4.259092	0.022599	-0.374874
O10	O	-4.601768	-0.321249	-0.304980
O11	O	-4.547600	-0.149039	-0.515846
O12	O	-4.312888	-0.148428	-0.165458
C13	C	-3.789408	-0.371942	-0.299412
C14	C	-3.846704	-0.508012	-0.268831
C15	C	-3.949740	-0.724671	-0.328823
C16	C	-3.890521	-0.584036	-0.360437
C17	C	-3.720785	-0.153779	-0.566542
C18	C	-3.734452	-0.151147	-0.705788
C19	C	-3.913056	-0.155709	-0.772660
C20	C	-3.927185	-0.152989	-0.916579
C21	C	-4.071615	0.063235	-0.389827
C22	C	-3.993556	0.199304	-0.420416
C23	C	-4.140238	-0.154925	-0.122695
C24	C	-4.105810	-0.157551	0.016552
H25	H	-3.884185	-0.545014	-0.462264
C26	C	-4.348225	-0.272844	-0.835902
C27	C	-4.298153	-0.165550	-0.916929
H28	H	-4.466976	-0.277785	-0.794844
H29	H	-4.234355	-0.270322	-0.775300
H30	H	-4.377336	-0.343193	-0.882619
H31	H	-4.269027	-0.095200	-0.870211
H32	H	-4.412048	-0.168061	-0.977538
H33	H	-3.956059	-0.763698	-0.227003
C34	C	-3.492074	-0.035866	-0.853357
C35	C	-3.542137	-0.143156	-0.772325
H36	H	-3.373350	-0.030938	-0.894436
H37	H	-3.462939	0.034479	-0.806651
H38	H	-3.605976	-0.038388	-0.913953
H39	H	-3.428240	-0.140629	-0.711722
H40	H	-3.571262	-0.213518	-0.819033
C41	C	-3.912323	-0.689801	-0.126651
C42	C	-3.855287	-0.560677	-0.131366
H43	H	-3.917647	-0.722313	-0.041788
H44	H	-3.812858	-0.713399	-0.164322
H45	H	-4.045167	-0.721262	-0.170632
H46	H	-3.722436	-0.529216	-0.087393
H47	H	-3.954757	-0.537069	-0.093679
C48	C	-3.928026	-0.618901	-0.562586
C49	C	-3.985032	-0.748024	-0.557875
H50	H	-3.922782	-0.586390	-0.647451
H51	H	-3.795176	-0.587430	-0.518643
H52	H	-4.027487	-0.595316	-0.524876
H53	H	-3.885563	-0.771610	-0.595577
H54	H	-4.117901	-0.779506	-0.601836
C55	C	-4.155443	-0.270993	-0.625098
C56	C	-4.105375	-0.163702	-0.706128
H57	H	-4.274185	-0.275929	-0.584033
H58	H	-4.041567	-0.268473	-0.564502
H59	H	-4.184569	-0.341344	-0.671813
H60	H	-4.076235	-0.093350	-0.659411
H61	H	-4.219277	-0.166212	-0.766732
C62	C	-3.684794	-0.037707	-1.064142
C63	C	-3.734857	-0.144997	-0.983110
H64	H	-3.566071	-0.032779	-1.105221
H65	H	-3.655659	0.032638	-1.017437
H66	H	-3.798696	-0.040229	-1.124739
H67	H	-3.620960	-0.142470	-0.922508
H68	H	-3.763982	-0.215359	-1.029819
