data_functionalizedCrystal
_audit_creation_method	'MofGen! by Chris Wilmer'
_symmetry_space_group_name_H-M	'P1'
_symmetry_Int_Tables_number	1
_symmetry_cell_setting	triclinic
loop_
_symmetry_equiv_pos_as_xyz
  x,y,z
_cell_length_a	17.077404
_cell_length_b	21.295417
_cell_length_c	21.295411
_cell_angle_alpha	89.978356
_cell_angle_beta	89.976695
_cell_angle_gamma	90.028477
loop_
_atom_site_label
_atom_site_type_symbol
_atom_site_fract_x
_atom_site_fract_y
_atom_site_fract_z
Zn1	Zn	1.200051	-0.250715	-0.355890
Zn2	Zn	1.199930	-0.355967	-0.250616
Zn3	Zn	1.068772	-0.250712	-0.250638
Zn4	Zn	1.068734	-0.355947	-0.355850
O5	O	1.134372	-0.303335	-0.303248
O6	O	1.309882	-0.264687	-0.341933
O7	O	1.182496	-0.342012	-0.162529
O8	O	1.086253	-0.162623	-0.264626
O9	O	1.309793	-0.342015	-0.264588
O10	O	1.182704	-0.162625	-0.341954
O11	O	1.086135	-0.264681	-0.162545
O12	O	0.958920	-0.264662	-0.264586
O13	O	1.086188	-0.341980	-0.443945
O14	O	0.958892	-0.341977	-0.341885
O15	O	1.182667	-0.264667	-0.443974
O16	O	1.182459	-0.444054	-0.264549
O17	O	1.086070	-0.444039	-0.341864
C18	C	0.930424	-0.303317	-0.303234
C19	C	0.843174	-0.303325	-0.303243
C20	C	0.802231	-0.263132	-0.343578
C21	C	0.720251	-0.263136	-0.343581
C22	C	0.679214	-0.303336	-0.303252
C23	C	0.720163	-0.343531	-0.262912
C24	C	0.802142	-0.343524	-0.262907
C25	C	0.549293	-0.343546	-0.262928
C26	C	0.467308	-0.343554	-0.262934
C27	C	0.467402	-0.263158	-0.343602
C28	C	0.549381	-0.263150	-0.343597
C29	C	0.590323	-0.303346	-0.303258
C30	C	1.134269	-0.466887	-0.303214
C31	C	1.134296	-0.536855	-0.303220
C32	C	1.184531	-0.569708	-0.263003
C33	C	1.184568	-0.635451	-0.263017
C34	C	1.134356	-0.668337	-0.303241
C35	C	1.084118	-0.635476	-0.343466
C36	C	1.084088	-0.569735	-0.343455
N37	N	1.065688	-0.771602	-0.308036
N38	N	1.065718	-0.834053	-0.308042
C39	C	1.134444	-0.866412	-0.303277
N40	N	1.203139	-0.833960	-0.298494
N41	N	1.203108	-0.771503	-0.298484
C42	C	1.134383	-0.739623	-0.303258
C43	C	1.184722	-0.970551	-0.263074
C44	C	1.184761	-1.036295	-0.263093
C45	C	1.084304	-1.036318	-0.343538
C46	C	1.084273	-0.970576	-0.343523
C47	C	1.134481	-0.937696	-0.303287
C48	C	1.339116	-0.303353	-0.303263
C49	C	1.426366	-0.303361	-0.303269
C50	C	1.134437	-0.303322	-0.467439
C51	C	1.134464	-0.303316	-0.537407
C52	C	1.134496	-0.139145	-0.303297
C53	C	1.134549	-0.069177	-0.303318
C54	C	1.184699	-0.263057	-0.570290
C55	C	1.184698	-0.263030	-0.636033
C56	C	1.134471	-0.303273	-0.668889
C57	C	1.084227	-0.343534	-0.635998
C58	C	1.084224	-0.343556	-0.570257
N59	N	1.128414	-0.358340	-0.772105
N60	N	1.128422	-0.358318	-0.834556
C61	C	1.134476	-0.303209	-0.866964
N62	N	1.140537	-0.248122	-0.834561
N63	N	1.140533	-0.248145	-0.772104
C64	C	1.134468	-0.303253	-0.740175
C65	C	1.184711	-0.262917	-0.971133
C66	C	1.184705	-0.262889	-1.036877
C67	C	1.084238	-0.343399	-1.036841
C68	C	1.084240	-0.343421	-0.971099
C69	C	1.134481	-0.303182	-0.938249
C70	C	1.134352	-0.303303	-0.139697
C71	C	1.134476	-0.303131	-0.069729
H72	H	0.835637	-0.230397	-0.376421
H73	H	1.043237	-0.662256	-0.376218
H74	H	1.225608	-0.230290	-0.543547
C75	C	1.239966	-0.218744	-0.672211
N76	N	1.281597	-0.185390	-0.699459
C77	C	0.422170	-0.387776	-0.218569
N78	N	0.388172	-0.421085	-0.185152
C79	C	1.028834	-0.533595	-0.387706
N80	N	0.987218	-0.506373	-0.421040
C81	C	1.029026	-0.934436	-0.387778
N82	N	0.987421	-0.907215	-0.421120
H83	H	1.043329	-0.376298	-0.662755
C84	C	0.422363	-0.218944	-0.387977
N85	N	0.388436	-0.185646	-0.421402
H86	H	1.043339	-0.376208	-0.944325
C87	C	1.028961	-0.387847	-0.534084
N88	N	0.987338	-0.421209	-0.506838
C89	C	1.028988	-0.387667	-1.072980
N90	N	0.987371	-0.421011	-1.100203
H91	H	0.686919	-0.230408	-0.376427
C92	C	0.594328	-0.387765	-0.218555
N93	N	0.628249	-0.421074	-0.185136
C94	C	0.847179	-0.387741	-0.218536
N95	N	0.881099	-0.421045	-0.185114
C96	C	1.239753	-0.533544	-0.218736
N97	N	1.281344	-0.506305	-0.185391
H98	H	0.582790	-0.230419	-0.376440
C99	C	1.239963	-0.934381	-0.218824
N100	N	1.281574	-0.907140	-0.185497
C101	C	1.239827	-0.671597	-0.218771
N102	N	1.281447	-0.698820	-0.185442
C103	C	1.240025	-1.072433	-0.218848
N104	N	1.281649	-1.099654	-0.185521
H105	H	0.686745	-0.376261	-0.230072
H106	H	1.043424	-1.063094	-0.376292
H107	H	1.225616	-0.230148	-0.944385
C108	C	1.239968	-0.218597	-1.073048
N109	N	1.281594	-0.185237	-1.100293
