data_functionalizedCrystal
_audit_creation_method	'MofGen! by Chris Wilmer'
_symmetry_space_group_name_H-M	'P1'
_symmetry_Int_Tables_number	1
_symmetry_cell_setting	triclinic
loop_
_symmetry_equiv_pos_as_xyz
  x,y,z
_cell_length_a	8.965430
_cell_length_b	16.109301
_cell_length_c	16.109301
_cell_angle_alpha	83.461481
_cell_angle_beta	90.001002
_cell_angle_gamma	90.001088
loop_
_atom_site_label
_atom_site_type_symbol
_atom_site_fract_x
_atom_site_fract_y
_atom_site_fract_z
O1	O	-0.123950	-1.103132	-0.106861
O2	O	-0.123974	-0.861070	-0.120160
O3	O	-0.123946	-0.988750	0.007520
O4	O	-0.123978	-0.975451	-0.234542
O5	O	0.124133	-0.988740	0.007512
O6	O	0.124105	-0.861059	-0.120169
O7	O	0.124129	-1.103121	-0.106869
Cu8	Cu	0.146768	-0.982089	-0.113520
Cu9	Cu	-0.146614	-0.982102	-0.113510
O10	O	0.124101	-0.975440	-0.234550
C11	C	0.000062	-0.830090	-0.119626
C12	C	0.000054	-0.737794	-0.118011
N13	N	0.353118	-0.982086	-0.113526
N14	N	-0.352963	-0.982111	-0.113497
C15	C	0.450411	-0.923020	-0.172555
C16	C	0.549829	-0.998145	-0.188668
C17	C	0.549826	-0.906992	-0.097421
C18	C	0.450348	-1.057249	-0.129676
C19	C	0.450336	-0.966047	-0.038397
C20	C	0.549710	-1.041227	-0.054477
C21	C	0.000094	-0.988206	0.038491
C22	C	0.000096	-0.986591	0.130786
C23	C	0.000089	-1.134101	-0.107404
C24	C	0.000088	-1.226397	-0.109019
C25	C	0.000061	-0.515522	-0.190018
C26	C	0.000071	-0.428801	-0.188494
C27	C	0.000085	-0.448676	-0.037006
C28	C	0.000086	-0.535394	-0.038530
C29	C	0.000067	-0.568815	-0.115039
C30	C	0.000075	-0.395376	-0.111990
C31	C	0.000086	-0.301350	-0.110337
C32	C	0.000059	-0.662847	-0.116693
C33	C	0.000058	-0.975984	-0.265521
C34	C	0.000046	-0.977600	-0.357816
C35	C	0.000080	-1.058599	0.353059
C36	C	0.000067	-1.057075	0.439779
C37	C	0.000058	-0.905586	0.419905
C38	C	0.000060	-0.907111	0.333186
C39	C	0.000078	-0.983620	0.299766
C40	C	0.000064	-0.980571	0.473205
C41	C	0.000050	-0.978918	0.567231
C42	C	0.000089	-0.985273	0.205734
H43	H	0.406811	-0.873115	-0.222519
C44	C	0.000099	-1.206966	0.450707
C45	C	0.000079	-1.139494	0.498359
H46	H	0.000114	-1.257849	0.486874
H47	H	-0.086404	-1.204414	0.416471
H48	H	0.086618	-1.204397	0.416470
H49	H	-0.086446	-1.142059	0.532592
H50	H	0.086591	-1.142047	0.532610
H51	H	0.000070	-0.385413	-0.249550
C52	C	0.000074	-0.324566	0.032597
C53	C	0.000086	-0.411936	0.047090
H54	H	0.000062	-0.301888	0.084517
H55	H	0.086578	-0.306274	0.001732
H56	H	-0.086444	-0.306283	0.001724
H57	H	0.086611	-0.430220	0.077958
H58	H	-0.086426	-0.430236	0.077968
H59	H	0.406599	-0.952440	0.025105
H60	H	0.000094	-0.578788	0.022530
C61	C	-0.127442	-1.148194	0.267059
C62	C	0.000082	-1.142694	0.316318
H63	H	-0.127437	-1.200110	0.244375
H64	H	-0.213937	-1.144454	0.300476
H65	H	-0.127423	-1.103752	0.222910
H66	H	0.000056	-1.187132	0.360471
H67	H	0.086599	-1.146442	0.282899
H68	H	0.000054	-0.846050	0.289792
H69	H	0.593527	-0.843477	-0.083812
C70	C	0.000067	-0.487163	-0.339604
C71	C	0.000061	-0.552259	-0.274115
H72	H	0.000079	-0.509843	-0.391522
H73	H	-0.086439	-0.453757	-0.335860
H74	H	0.086583	-0.453751	-0.335850
H75	H	-0.086461	-0.585667	-0.277866
H76	H	0.086576	-0.585679	-0.277861
H77	H	0.000046	-0.843295	0.447127
H78	H	0.593531	-1.011729	-0.252190
H79	H	0.406834	-1.120779	-0.143362
H80	H	0.593036	-1.091242	-0.004543
