data_functionalizedCrystal
_audit_creation_method	'MofGen! by Chris Wilmer'
_symmetry_space_group_name_H-M	'P1'
_symmetry_Int_Tables_number	1
_symmetry_cell_setting	triclinic
loop_
_symmetry_equiv_pos_as_xyz
  x,y,z
_cell_length_a	12.759401
_cell_length_b	13.897448
_cell_length_c	13.897441
_cell_angle_alpha	90.029627
_cell_angle_beta	90.017946
_cell_angle_gamma	90.019217
loop_
_atom_site_label
_atom_site_type_symbol
_atom_site_fract_x
_atom_site_fract_y
_atom_site_fract_z
Zn1	Zn	1.606213	-0.383954	0.545364
Zn2	Zn	1.606105	-0.545273	0.384066
Zn3	Zn	1.430521	-0.383998	0.384085
Zn4	Zn	1.430495	-0.545213	0.545320
O5	O	1.518334	-0.464610	0.464709
O6	O	1.753220	-0.405360	0.523978
O7	O	1.582779	-0.523923	0.249087
O8	O	1.453884	-0.249011	0.405505
O9	O	1.753140	-0.523881	0.405473
O10	O	1.582964	-0.248978	0.523997
O11	O	1.453778	-0.405435	0.249100
O12	O	1.283497	-0.405377	0.405462
O13	O	1.453839	-0.523778	0.680308
O14	O	1.283477	-0.523821	0.523921
O15	O	1.582939	-0.405302	0.680340
O16	O	1.582753	-0.680247	0.405430
O17	O	1.453733	-0.680203	0.523903
C18	C	1.245366	-0.464598	0.464690
C19	C	1.128590	-0.464616	0.464704
C20	C	1.073745	-0.526384	0.526289
C21	C	0.964021	-0.526387	0.526308
C22	C	0.963996	-0.402853	0.403150
C23	C	1.073718	-0.402845	0.403136
C24	C	0.814116	-0.561004	0.640025
C25	C	0.759268	-0.622787	0.701601
C26	C	0.794860	-0.716922	0.716240
C27	C	0.885298	-0.749294	0.669289
C28	C	0.940141	-0.687516	0.607705
C29	C	0.904551	-0.593368	0.593085
C30	C	1.223624	-0.368239	0.289418
C31	C	1.278469	-0.306465	0.227829
C32	C	1.242879	-0.212328	0.213181
C33	C	1.152438	-0.179960	0.260115
C34	C	1.097593	-0.241733	0.321704
C35	C	1.133190	-0.335869	0.336354
C36	C	1.518257	-0.715224	0.464681
C37	C	1.518320	-0.822438	0.464701
C38	C	1.518431	-1.018733	0.464762
C39	C	1.518366	-0.909500	0.464731
C40	C	1.792367	-0.464622	0.464729
C41	C	1.909143	-0.464628	0.464737
C42	C	1.518398	-0.464529	0.716302
C43	C	1.518425	-0.464494	0.823516
C44	C	1.518439	-0.213017	0.464758
C45	C	1.518484	-0.105803	0.464779
C46	C	1.518330	-0.464621	0.214094
C47	C	1.518506	-0.464383	0.106881
C48	C	1.518447	-0.464467	0.910586
C49	C	1.518477	-0.464423	1.019818
H50	H	1.023956	-0.215368	0.359927
H51	H	0.750195	-0.767226	0.766378
H52	H	0.785136	-0.484348	0.628121
F53	F	0.905588	-0.337117	0.337627
F54	F	1.374717	-0.340922	0.177866
H55	H	1.252617	-0.444890	0.301349
H56	H	1.123448	-0.103311	0.248172
F57	F	1.132140	-0.592123	0.591818
H58	H	1.287539	-0.162036	0.163021
F59	F	1.036384	-0.721964	0.557736
H60	H	0.685634	-0.596420	0.739829
F61	F	0.923162	-0.849492	0.684861
