data_functionalizedCrystal
_audit_creation_method	'MofGen! by Chris Wilmer'
_symmetry_space_group_name_H-M	'P1'
_symmetry_Int_Tables_number	1
_symmetry_cell_setting	triclinic
loop_
_symmetry_equiv_pos_as_xyz
  x,y,z
_cell_length_a	13.897449
_cell_length_b	13.897448
_cell_length_c	21.395355
_cell_angle_alpha	90.015629
_cell_angle_beta	90.023390
_cell_angle_gamma	90.018972
loop_
_atom_site_label
_atom_site_type_symbol
_atom_site_fract_x
_atom_site_fract_y
_atom_site_fract_z
Zn1	Zn	1.474728	-0.384094	0.354255
Zn2	Zn	1.474614	-0.545373	0.249482
Zn3	Zn	1.313410	-0.384097	0.249493
Zn4	Zn	1.313399	-0.545352	0.354225
O5	O	1.394038	-0.464729	0.301864
O6	O	1.609694	-0.405495	0.340364
O7	O	1.453187	-0.523990	0.161806
O8	O	1.334861	-0.249115	0.263407
O9	O	1.609611	-0.523986	0.263389
O10	O	1.453381	-0.249113	0.340375
O11	O	1.334751	-0.405502	0.161814
O12	O	1.178426	-0.405481	0.263378
O13	O	1.334842	-0.523950	0.441907
O14	O	1.178419	-0.523954	0.340324
O15	O	1.453370	-0.405474	0.441929
O16	O	1.453177	-0.680352	0.263360
O17	O	1.334732	-0.680336	0.340313
C18	C	1.143423	-0.464716	0.301849
C19	C	1.036209	-0.464734	0.301858
C20	C	0.839914	-0.464737	0.301875
C21	C	0.949147	-0.464733	0.301864
C22	C	1.393967	-0.715343	0.301846
C23	C	1.394025	-0.822557	0.301859
C24	C	1.394127	-1.018852	0.301898
C25	C	1.394068	-0.909620	0.301878
C26	C	1.645631	-0.464743	0.301878
C27	C	1.752844	-0.464749	0.301885
C28	C	1.394118	-0.464710	0.465287
C29	C	1.394152	-0.464701	0.534928
C30	C	1.394135	-0.213136	0.301896
C31	C	1.394176	-0.105922	0.301909
C32	C	1.394013	-0.464679	0.139076
C33	C	1.394166	-0.464416	0.069435
C34	C	1.455867	-0.403008	0.567654
C35	C	1.455865	-0.402967	0.633089
C36	C	1.394159	-0.464636	0.665797
C37	C	1.332433	-0.526333	0.633063
C38	C	1.332429	-0.526366	0.567629
C39	C	1.386518	-0.551488	0.769465
C40	C	1.386529	-0.551457	0.834898
C41	C	1.394165	-0.464534	0.867618
C42	C	1.401811	-0.377639	0.834896
C43	C	1.401807	-0.377672	0.769462
C44	C	1.394156	-0.464606	0.736749
C45	C	1.455882	-0.402790	0.971296
C46	C	1.455874	-0.402747	1.036732
C47	C	1.332446	-0.526122	1.036705
C48	C	1.332449	-0.526156	0.971270
C49	C	1.394172	-0.464492	0.938569
H50	H	1.506125	-0.352795	0.541033
H51	H	1.506135	-0.352574	0.944669
C52	C	1.410204	-0.282089	0.733470
N53	N	1.416523	-0.210094	0.706362
H54	H	1.380309	-0.622212	0.861535
C55	C	1.264551	-0.594164	0.669043
N56	N	1.213418	-0.645253	0.696142
H57	H	1.506128	-0.352504	1.063376
H58	H	1.380042	-0.622253	0.742831
C59	C	1.264569	-0.593959	1.072679
N60	N	1.213442	-0.645056	1.099778
H61	H	1.506119	-0.352724	0.659740
C62	C	1.264537	-0.594238	0.531630
N63	N	1.213401	-0.645362	0.504514
H64	H	1.282200	-0.576399	0.944624
C65	C	1.410210	-0.282015	0.870882
N66	N	1.416536	-0.209994	0.897990
