data_functionalizedCrystal
_audit_creation_method	'MofGen! by Chris Wilmer'
_symmetry_space_group_name_H-M	'P1'
_symmetry_Int_Tables_number	1
_symmetry_cell_setting	triclinic
loop_
_symmetry_equiv_pos_as_xyz
  x,y,z
_cell_length_a	15.298068
_cell_length_b	15.298853
_cell_length_c	12.759393
_cell_angle_alpha	99.705489
_cell_angle_beta	99.710563
_cell_angle_gamma	88.373576
loop_
_atom_site_label
_atom_site_type_symbol
_atom_site_fract_x
_atom_site_fract_y
_atom_site_fract_z
Zn1	Zn	1.399674	-0.117155	0.853069
Zn2	Zn	1.899674	0.382845	1.353069
Zn3	Zn	1.424944	-0.263670	0.652980
Zn4	Zn	1.924944	0.236330	1.152980
Zn5	Zn	1.253182	-0.142524	0.642712
Zn6	Zn	1.753182	0.357476	1.142712
Zn7	Zn	1.278511	-0.288912	0.793963
Zn8	Zn	1.778511	0.211088	1.293963
O9	O	1.339078	-0.203065	0.735681
O10	O	1.839078	0.296935	1.235681
O11	O	1.525617	-0.115410	0.855560
O12	O	2.025617	0.384590	1.355560
O13	O	1.402135	-0.247653	0.504581
O14	O	1.902135	0.252347	1.004581
O15	O	1.251439	-0.016577	0.691055
O16	O	1.751439	0.483423	1.191055
O17	O	1.544182	-0.223054	0.708556
O18	O	2.044182	0.276946	1.208556
O19	O	1.359066	0.002061	0.845604
O20	O	1.859066	0.502061	1.345604
O21	O	1.275942	-0.158647	0.497037
O22	O	1.775942	0.341353	0.997037
O23	O	1.133952	-0.183123	0.633742
O24	O	1.633952	0.316877	1.133742
O25	O	1.294608	-0.266075	0.948840
O26	O	1.794608	0.233925	1.448840
O27	O	1.152561	-0.290674	0.744866
O28	O	1.652561	0.209326	1.244866
O29	O	1.383627	-0.139886	0.992265
O30	O	1.883627	0.360114	1.492265
O31	O	1.426695	-0.389599	0.651243
O32	O	1.926695	0.110401	1.151243
O33	O	1.319111	-0.408145	0.754822
O34	O	1.819111	0.091855	1.254822
C35	C	1.378417	-0.430652	0.697762
C36	C	1.878417	0.069348	1.197762
C37	C	1.395327	-0.528000	0.681594
C38	C	1.895327	-0.028000	1.181594
C39	C	1.111470	-0.242391	0.681776
C40	C	1.611470	0.257609	1.181776
C41	C	1.014102	-0.259236	0.658737
C42	C	1.514102	0.240764	1.158737
C43	C	1.459325	-0.564038	0.620138
C44	C	1.959325	-0.064038	1.120138
C45	C	1.475220	-0.655501	0.604953
C46	C	1.975220	-0.155501	1.104953
C47	C	1.427114	-0.710935	0.651216
C48	C	1.927114	-0.210935	1.151216
C49	C	1.363110	-0.674899	0.712667
C50	C	1.863110	-0.174899	1.212667
C51	C	1.347218	-0.583426	0.727860
C52	C	1.847218	-0.083426	1.227860
C53	C	1.315007	-0.730323	0.758938
C54	C	1.815007	-0.230323	1.258938
C55	C	1.251003	-0.694286	0.820390
C56	C	1.751003	-0.194286	1.320390
C57	C	1.235113	-0.602823	0.835579
C58	C	1.735113	-0.102823	1.335579
C59	C	1.283220	-0.547388	0.789316
C60	C	1.783220	-0.047388	1.289316
C61	C	1.330898	-0.821796	0.743745
C62	C	1.830898	-0.321796	1.243745
C63	C	1.218791	-0.841183	0.851468
C64	C	1.718791	-0.341183	1.351468
C65	C	1.202896	-0.749721	0.866652
C66	C	1.702896	-0.249721	1.366652
C67	C	0.701037	-0.082892	0.900312
C68	C	1.201037	0.417108	1.400312
C69	C	0.792520	-0.067068	0.921964
C70	C	1.292520	0.432932	1.421964
C71	C	0.847920	-0.115108	0.856159
C72	C	1.347920	0.384892	1.356159
C73	C	0.811828	-0.178976	0.768698
C74	C	1.311828	0.321024	1.268698
C75	C	0.720338	-0.194807	0.747049
C76	C	1.220338	0.305193	1.247049
C77	C	0.867220	-0.227023	0.702896
C78	C	1.367220	0.272977	1.202896
C79	C	0.831129	-0.290891	0.615436
C80	C	1.331129	0.209109	1.115436
C81	C	0.739647	-0.306718	0.593790
C82	C	1.239647	0.193282	1.093790
C83	C	0.684247	-0.258678	0.659595
C84	C	1.184247	0.241322	1.159595
C85	C	0.958711	-0.211192	0.724546
C86	C	1.458711	0.288808	1.224546
C87	C	0.978011	-0.323107	0.571283
C88	C	1.478011	0.176893	1.071283
C89	C	0.886529	-0.338931	0.549631
C90	C	1.386529	0.161069	1.049631
C91	C	1.567575	-0.163586	0.789797
C92	C	2.067575	0.336414	1.289797
C93	C	1.664946	-0.146763	0.812858
C94	C	2.164946	0.353237	1.312858
C95	C	1.339124	-0.202966	1.009744
C96	C	1.839124	0.297034	1.509744
C97	C	1.339144	-0.202924	1.126533
C98	C	1.839144	0.297076	1.626533
C99	C	1.299609	0.025414	0.773777
C100	C	1.799609	0.525414	1.273777
C101	C	1.282789	0.122779	0.790012
C102	C	1.782789	0.622779	1.290012
C103	C	1.339071	-0.203092	0.462707
C104	C	1.839071	0.296908	0.962707
C105	C	1.339179	-0.202858	0.346000
C106	C	1.839179	0.297142	0.846000
C107	C	1.385502	-0.137211	1.204011
C108	C	1.885502	0.362789	1.704011
C109	C	1.385518	-0.137175	1.313745
C110	C	1.885518	0.362825	1.813745
C111	C	1.292814	-0.268575	1.268512
C112	C	1.792814	0.231425	1.768512
C113	C	1.292794	-0.268606	1.158780
C114	C	1.792794	0.231394	1.658780
C115	C	1.431851	-0.071529	1.171764
C116	C	1.931851	0.428471	1.671764
C117	C	1.478215	-0.005811	1.249244
C118	C	1.978215	0.494189	1.749244
C119	C	1.478230	-0.005776	1.358978
C120	C	1.978230	0.494224	1.858978
C121	C	1.431882	-0.071459	1.391233
C122	C	1.931882	0.428541	1.891233
H123	H	1.383012	-0.851128	0.693712
H124	H	1.883012	-0.351128	1.193712
H125	H	1.431846	-0.071552	1.082416
H126	H	1.931846	0.428448	1.582416
H127	H	1.515974	0.047740	1.422060
H128	H	2.015974	0.547740	1.922060
H129	H	0.821899	-0.015069	0.993177
H130	H	1.321899	0.484931	1.493177
F131	F	0.642074	-0.031781	0.970345
F132	F	1.142074	0.468219	1.470345
F133	F	1.431888	-0.071409	1.508024
F134	F	1.931888	0.428591	2.008024
H135	H	0.922408	-0.102217	0.873791
H136	H	1.422408	0.397783	1.373791
H137	H	0.857130	-0.390934	0.478420
H138	H	1.357130	0.109066	0.978420
H139	H	1.179621	-0.886318	0.889142
H140	H	1.679621	-0.386318	1.389142
H141	H	0.710266	-0.358730	0.522581
H142	H	1.210266	0.141270	1.022581
H143	H	1.527332	-0.684835	0.554919
H144	H	2.027332	-0.184835	1.054919
F145	F	1.243494	-0.338476	1.302845
F146	F	1.743494	0.161524	1.802845
F147	F	0.586878	-0.275514	0.636553
F148	F	1.086878	0.224486	1.136553
H149	H	1.023119	-0.362230	0.517703
H150	H	1.523119	0.137770	1.017703
F151	F	1.243453	-0.338544	1.076318
F152	F	1.743453	0.161456	1.576318
F153	F	0.997111	-0.143221	0.817625
F154	F	1.497111	0.356779	1.317625
H155	H	1.515943	0.047670	1.222974
H156	H	2.015943	0.547670	1.722974
H157	H	1.498493	-0.518898	0.582482
H158	H	1.998493	-0.018898	1.082482
F159	F	1.443762	-0.808324	0.634664
F160	F	1.943762	-0.308324	1.134664
F161	F	1.266493	-0.450009	0.805743
F162	F	1.766493	0.049991	1.305743
H163	H	1.150783	-0.720368	0.916687
H164	H	1.650783	-0.220368	1.416687
F165	F	1.167004	-0.564470	0.900996
F166	F	1.667004	-0.064470	1.400996
