data_functionalizedCrystal
_audit_creation_method	'MofGen! by Chris Wilmer'
_symmetry_space_group_name_H-M	'P1'
_symmetry_Int_Tables_number	1
_symmetry_cell_setting	triclinic
loop_
_symmetry_equiv_pos_as_xyz
  x,y,z
_cell_length_a	8.559649
_cell_length_b	10.489741
_cell_length_c	7.088929
_cell_angle_alpha	83.712943
_cell_angle_beta	95.325015
_cell_angle_gamma	77.158919
loop_
_atom_site_label
_atom_site_type_symbol
_atom_site_fract_x
_atom_site_fract_y
_atom_site_fract_z
O1	O	2.103400	-0.028523	-0.158957
O2	O	1.638952	0.037276	-0.158967
O3	O	1.881746	-0.182335	-0.158950
O4	O	1.860607	0.191088	-0.158973
O5	O	1.914192	-0.211743	0.159027
O6	O	1.671399	0.007868	0.159010
O7	O	2.135846	-0.057931	0.159021
Cu8	Cu	1.906585	-0.027717	0.188049
Cu9	Cu	1.868214	0.007062	-0.187996
O10	O	1.893053	0.161680	0.159004
C11	C	1.595703	0.027558	0.000020
C12	C	1.418493	0.042401	0.000017
C13	C	1.896372	-0.244403	0.000037
C14	C	1.891596	-0.385529	0.000034
C15	C	1.737113	-0.437401	0.000016
C16	C	1.826086	-0.551707	0.156797
C17	C	1.794133	-0.522692	-0.156703
C18	C	1.980646	-0.497989	0.156944
C19	C	1.948657	-0.468948	-0.156697
C20	C	2.037747	-0.583242	0.000122
C21	C	2.179096	-0.048213	0.000029
C22	C	2.356304	-0.063054	0.000020
C23	C	1.878426	0.223748	0.000012
C24	C	1.883201	0.364876	0.000003
N25	N	1.933585	-0.052180	0.452539
N26	N	1.841226	0.031513	-0.452486
H27	H	1.336155	0.144049	-0.000000
H28	H	2.029323	-0.138908	0.534202
C29	C	1.565550	-0.352281	0.000194
H30	H	1.538247	-0.288894	-0.111261
H31	H	1.561647	-0.308327	0.110522
H32	H	1.490905	-0.407118	0.001397
C33	C	1.756061	-0.600873	0.335846
H34	H	1.649237	-0.550147	0.335658
H35	H	1.821277	-0.591721	0.447180
H36	H	1.754435	-0.691080	0.335134
C37	C	2.087150	-0.482214	0.336213
H38	H	2.089488	-0.392016	0.335166
H39	H	2.193669	-0.533583	0.336677
H40	H	2.043965	-0.511289	0.447405
H41	H	2.164884	-0.646061	0.000212
C42	C	2.018608	-0.419724	-0.335756
H43	H	1.952214	-0.427335	-0.447052
H44	H	2.124684	-0.471474	-0.336883
H45	H	2.022042	-0.329970	-0.333823
H46	H	1.715223	-0.534512	-0.289262
C47	C	1.711913	0.148679	0.437218
H48	H	1.713750	0.146993	0.303712
H49	H	1.733686	0.228971	0.469922
H50	H	1.608511	0.142342	0.469945
H51	H	1.438631	-0.164693	0.000017
