data_functionalizedCrystal
_audit_creation_method	'MofGen! by Chris Wilmer'
_symmetry_space_group_name_H-M	'P1'
_symmetry_Int_Tables_number	1
_symmetry_cell_setting	triclinic
loop_
_symmetry_equiv_pos_as_xyz
  x,y,z
_cell_length_a	13.897449
_cell_length_b	11.169416
_cell_length_c	13.897449
_cell_angle_alpha	90.004562
_cell_angle_beta	90.003875
_cell_angle_gamma	90.011620
loop_
_atom_site_label
_atom_site_type_symbol
_atom_site_fract_x
_atom_site_fract_y
_atom_site_fract_z
Zn1	Zn	1.474591	-0.477981	0.545412
Zn2	Zn	1.807925	-0.144647	0.878746
Zn3	Zn	2.141258	0.188686	1.212079
Zn4	Zn	1.474554	-0.678629	0.384127
Zn5	Zn	1.807887	-0.345296	0.717460
Zn6	Zn	2.141220	-0.011962	1.050794
Zn7	Zn	1.313328	-0.477963	0.384131
Zn8	Zn	1.646661	-0.144630	0.717464
Zn9	Zn	1.979995	0.188704	1.050797
Zn10	Zn	1.313283	-0.678625	0.545380
Zn11	Zn	1.646616	-0.345292	0.878713
Zn12	Zn	1.979950	-0.011958	1.212046
O13	O	1.393939	-0.578299	0.464762
O14	O	1.727272	-0.244966	0.798096
O15	O	2.060606	0.088367	1.131429
O16	O	1.609568	-0.504606	0.524030
O17	O	1.942901	-0.171273	0.857363
O18	O	2.276235	0.162061	1.190696
O19	O	1.453170	-0.652005	0.249146
O20	O	1.786503	-0.318671	0.582479
O21	O	2.119836	0.014662	0.915813
O22	O	1.334755	-0.310016	0.405540
O23	O	1.668088	0.023318	0.738874
O24	O	2.001421	0.356651	1.072207
O25	O	1.609540	-0.652022	0.405534
O26	O	1.942873	-0.318688	0.738867
O27	O	2.276207	0.014645	1.072201
O28	O	1.453234	-0.310029	0.524033
O29	O	1.786567	0.023305	0.857367
O30	O	2.119901	0.356638	1.190700
O31	O	1.334718	-0.504576	0.249149
O32	O	1.668051	-0.171243	0.582482
O33	O	2.001385	0.162091	0.915815
O34	O	1.178340	-0.504572	0.405509
O35	O	1.511674	-0.171239	0.738842
O36	O	1.845007	0.162095	1.072175
O37	O	1.334678	-0.652015	0.680365
O38	O	1.668011	-0.318681	1.013699
O39	O	2.001344	0.014652	1.347032
O40	O	1.178307	-0.651998	0.523977
O41	O	1.511641	-0.318664	0.857311
O42	O	1.844974	0.014669	1.190644
O43	O	1.453190	-0.504602	0.680390
O44	O	1.786524	-0.171269	1.013723
O45	O	2.119857	0.162065	1.347056
O46	O	1.453126	-0.846578	0.405502
O47	O	1.786459	-0.513245	0.738836
O48	O	2.119793	-0.179911	1.072169
O49	O	1.334641	-0.846575	0.523974
O50	O	1.667974	-0.513242	0.857307
O51	O	2.001308	-0.179908	1.190640
C52	C	1.393901	-0.890124	0.464755
C53	C	1.727234	-0.556791	0.798088
C54	C	2.060567	-0.223457	1.131422
C55	C	1.393973	-1.023524	0.464784
C56	C	1.727306	-0.690191	0.798118
C57	C	2.060639	-0.356857	1.131451
C58	C	1.143325	-0.578283	0.464740
C59	C	1.476658	-0.244950	0.798074
C60	C	1.809991	0.088383	1.131407
C61	C	1.036111	-0.578305	0.464754
C62	C	1.369444	-0.244972	0.798087
C63	C	1.702777	0.088361	1.131421
C64	C	0.839816	-0.578310	0.464779
C65	C	1.173149	-0.244976	0.798113
C66	C	1.506482	0.088357	1.131446
C67	C	0.949048	-0.578304	0.464762
C68	C	1.282381	-0.244970	0.798096
C69	C	1.615715	0.088363	1.131429
C70	C	1.645532	-0.578316	0.464785
C71	C	1.978865	-0.244983	0.798118
C72	C	2.312199	0.088350	1.131452
C73	C	1.752746	-0.578324	0.464795
C74	C	2.086079	-0.244990	0.798128
C75	C	2.419412	0.088343	1.131461
C76	C	1.393933	-0.578310	0.716355
C77	C	1.727267	-0.244977	1.049689
C78	C	2.060600	0.088357	1.383022
C79	C	1.393931	-0.578314	0.823569
C80	C	1.727264	-0.244981	1.156903
C81	C	2.060598	0.088352	1.490236
C82	C	1.394004	-0.265257	0.464791
C83	C	1.727337	0.068076	0.798124
C84	C	2.060670	0.401410	1.131458
C85	C	1.394031	-0.131857	0.464803
C86	C	1.727364	0.201476	0.798136
C87	C	2.060698	0.534810	1.131470
C88	C	1.393928	-0.578319	0.910639
C89	C	1.727262	-0.244986	1.243972
C90	C	2.060595	0.088348	1.577306
C91	C	1.393928	-0.578313	1.019872
C92	C	1.727261	-0.244980	1.353205
C93	C	2.060595	0.088354	1.686538
C94	C	1.393935	-0.578313	1.214148
C95	C	1.727269	-0.244980	1.547481
C96	C	2.060602	0.088353	1.880815
C97	C	1.393932	-0.578302	1.106934
C98	C	1.727266	-0.244969	1.440268
C99	C	2.060599	0.088365	1.773601
