data_functionalizedCrystal
_audit_creation_method	'MofGen! by Chris Wilmer'
_symmetry_space_group_name_H-M	'P1'
_symmetry_Int_Tables_number	1
_symmetry_cell_setting	triclinic
loop_
_symmetry_equiv_pos_as_xyz
  x,y,z
_cell_length_a	14.853567
_cell_length_b	10.540539
_cell_length_c	13.930277
_cell_angle_alpha	89.997612
_cell_angle_beta	89.995755
_cell_angle_gamma	84.080211
loop_
_atom_site_label
_atom_site_type_symbol
_atom_site_fract_x
_atom_site_fract_y
_atom_site_fract_z
O1	O	1.197288	0.165727	-0.079760
O2	O	0.934938	0.185470	-0.079776
O3	O	1.072098	-0.009174	-0.079766
O4	O	1.060128	0.360371	-0.079770
O5	O	1.072079	-0.009178	0.079895
O6	O	0.934919	0.185465	0.079886
O7	O	1.197269	0.165723	0.079902
Zn8	Zn	1.066091	0.175594	0.105244
Zn9	Zn	1.066116	0.175599	-0.105118
O10	O	1.060108	0.360367	0.079892
C11	C	0.901335	0.184573	0.000053
C12	C	0.801236	0.181892	0.000047
C13	C	0.387998	0.054938	0.000069
C14	C	0.368000	0.286179	0.000066
C15	C	0.462048	0.288700	0.000063
C16	C	0.519075	0.174338	0.000062
C17	C	0.482055	0.057455	0.000063
C18	C	0.499075	0.405580	0.000052
C19	C	0.593129	0.408105	0.000048
C20	C	0.650158	0.293742	0.000053
C21	C	0.613132	0.176855	0.000056
C22	C	0.670159	0.062493	0.000054
C23	C	0.633135	-0.054396	0.000064
C24	C	0.539084	-0.056908	0.000069
C25	C	0.744209	0.296254	0.000048
C26	C	0.764216	0.065010	0.000048
C27	C	1.071191	-0.056469	0.000063
C28	C	1.068505	-0.197388	0.000057
C29	C	0.965588	-0.379682	-0.000307
C30	C	0.968311	-0.233094	0.000052
C31	C	1.116712	-0.259578	0.091235
C32	C	1.113293	-0.406085	0.091312
C33	C	1.115353	-0.406621	-0.090254
C34	C	1.116276	-0.259649	-0.091459
C35	C	1.230872	0.166620	0.000071
C36	C	1.330971	0.169300	0.000071
C37	C	1.061016	0.407662	0.000061
C38	C	1.063702	0.548580	0.000060
N39	N	1.066080	0.175589	0.248810
N40	N	1.066134	0.175594	-0.248684
C41	C	1.005379	0.261753	0.701075
C42	C	1.126878	0.089435	0.701053
C43	C	1.126867	0.089431	0.600557
C44	C	1.066112	0.175591	0.550315
C45	C	1.005368	0.261755	0.600570
C46	C	1.187617	0.003277	0.550295
C47	C	1.187609	0.003271	0.449793
C48	C	1.126849	0.089426	0.399550
C49	C	1.066102	0.175592	0.449810
C50	C	1.005347	0.261752	0.399569
C51	C	0.944594	0.347913	0.449828
C52	C	0.944608	0.347909	0.550327
C53	C	1.126835	0.089429	0.299051
C54	C	1.005336	0.261753	0.299064
H55	H	0.357849	-0.040229	0.000081
C56	C	0.912334	-0.419867	0.087544
N57	N	0.872230	-0.450124	0.153722
H58	H	0.895146	0.418060	0.591253
H59	H	0.895131	0.418070	0.408910
H60	H	0.930378	-0.190072	-0.065308
H61	H	1.189326	-0.236231	-0.096960
H62	H	0.321563	0.379287	0.000060
H63	H	0.452638	0.498687	0.000043
C64	C	1.254442	-0.091492	0.605566
N65	N	1.304776	-0.162878	0.647201
H66	H	0.926017	-0.407845	-0.065692
H67	H	0.930096	-0.190919	0.065517
H68	H	1.237076	-0.066887	0.408879
H69	H	0.955913	0.331901	0.741998
H70	H	1.077649	-0.433894	0.159465
C71	C	0.633846	0.536684	0.000052
N72	N	0.664515	0.633530	0.000062
C73	C	0.826939	-0.060801	0.000047
N74	N	0.874182	-0.155562	0.000045
H75	H	1.185351	-0.454846	0.095452
C76	C	1.193705	-0.005335	0.756321
N77	N	1.244039	-0.076722	0.797954
H78	H	1.176303	0.019284	0.258135
C79	C	1.216110	-0.230448	0.095837
N80	N	1.290974	-0.208496	0.099305
C81	C	0.695877	-0.180189	0.000064
N82	N	0.743137	-0.274934	0.000068
H83	H	0.508930	-0.152072	0.000099
H84	H	1.081003	-0.218401	-0.158910
C85	C	0.784932	0.424823	0.000036
N86	N	0.815602	0.521669	0.000030
C87	C	1.071447	-0.201544	0.182896
N88	N	1.037347	-0.157835	0.251932
C89	C	1.071552	-0.448756	-0.183614
N90	N	1.038551	-0.480490	-0.253929
H91	H	1.187723	-0.454643	-0.090862
H92	H	0.955858	0.331910	0.258163
