data_functionalizedCrystal
_audit_creation_method	'MofGen! by Chris Wilmer'
_symmetry_space_group_name_H-M	'P1'
_symmetry_Int_Tables_number	1
_symmetry_cell_setting	triclinic
loop_
_symmetry_equiv_pos_as_xyz
  x,y,z
_cell_length_a	12.759401
_cell_length_b	12.759394
_cell_length_c	12.759393
_cell_angle_alpha	89.967706
_cell_angle_beta	89.981504
_cell_angle_gamma	90.014998
loop_
_atom_site_label
_atom_site_type_symbol
_atom_site_fract_x
_atom_site_fract_y
_atom_site_fract_z
Zn1	Zn	1.606254	-0.418200	-0.593976
Zn2	Zn	1.606148	-0.593919	-0.418294
Zn3	Zn	1.430556	-0.418255	-0.418315
Zn4	Zn	1.430545	-0.593838	-0.593935
O5	O	1.518376	-0.506053	-0.506130
O6	O	1.753261	-0.441520	-0.570679
O7	O	1.582816	-0.570674	-0.271276
O8	O	1.453912	-0.271227	-0.441643
O9	O	1.753183	-0.570620	-0.441607
O10	O	1.582997	-0.271186	-0.570700
O11	O	1.453810	-0.441614	-0.271291
O12	O	1.283534	-0.441536	-0.441604
O13	O	1.453892	-0.570482	-0.740962
O14	O	1.283525	-0.570536	-0.570631
O15	O	1.582986	-0.441442	-0.740992
O16	O	1.582805	-0.740929	-0.441567
O17	O	1.453789	-0.740870	-0.570610
C18	C	1.245409	-0.506034	-0.506116
C19	C	1.128632	-0.506051	-0.506135
C20	C	1.073793	-0.573329	-0.573208
C21	C	0.964069	-0.573342	-0.573219
C22	C	0.964032	-0.438796	-0.439075
C23	C	1.073755	-0.438779	-0.439070
C24	C	1.073813	-0.651011	-0.650652
C25	C	0.964089	-0.651024	-0.650664
C26	C	1.518313	-0.779021	-0.506105
C27	C	1.518382	-0.895797	-0.506129
C28	C	1.652826	-0.895806	-0.371857
C29	C	1.720076	-0.950671	-0.304734
C30	C	1.720138	-1.060392	-0.304762
C31	C	1.652945	-1.115251	-0.371924
C32	C	1.585695	-1.060386	-0.439047
C33	C	1.585638	-0.950662	-0.439009
C34	C	1.451257	-1.060378	-0.573323
C35	C	1.451189	-0.950656	-0.573291
C36	C	1.384064	-1.115237	-0.640484
C37	C	1.316808	-1.060372	-0.707604
C38	C	1.316748	-0.950644	-0.707572
C39	C	1.383939	-0.895791	-0.640414
C40	C	1.792409	-0.506073	-0.506145
C41	C	1.909186	-0.506082	-0.506151
C42	C	1.518449	-0.505947	-0.780164
C43	C	1.518481	-0.505902	-0.896940
C44	C	1.518468	-0.232020	-0.506179
C45	C	1.518507	-0.115243	-0.506199
C46	C	1.585709	-0.438704	-0.951820
C47	C	1.585734	-0.438666	-1.061544
C48	C	1.451300	-0.573033	-1.061500
C49	C	1.451270	-0.573065	-0.951778
C50	C	1.663327	-0.361132	-0.951846
C51	C	1.663352	-0.361094	-1.061570
C52	C	1.518363	-0.506083	-0.233163
C53	C	1.518535	-0.505832	-0.116387
H54	H	1.107827	-0.728263	-0.621367
H55	H	1.634238	-0.283785	-1.095619
H56	H	1.744722	-0.382886	-1.091348
H57	H	1.396577	-0.627712	-1.106161
H58	H	1.118400	-0.383988	-0.384459
H59	H	1.383890	-0.806450	-0.640375
H60	H	1.641558	-0.279767	-0.922091
O61	O	1.378707	-0.645487	-0.892581
H62	H	1.331969	-0.692171	-0.949149
O63	O	1.765683	-0.399748	-0.906745
H64	H	1.819974	-0.420192	-0.971568
H65	H	1.103621	-0.629311	-0.732059
O66	O	0.904830	-0.366269	-0.366725
H67	H	0.854850	-0.312884	-0.413835
O68	O	0.919039	-0.612547	-0.753115
H69	H	0.983888	-0.592144	-0.807428
O70	O	1.653011	-1.233594	-0.371952
H71	H	1.732262	-1.262442	-0.393248
H72	H	1.652770	-0.806465	-0.371814
H73	H	0.934293	-0.732374	-0.628730
H74	H	1.774786	-0.905995	-0.250053
O75	O	1.792664	-1.119579	-0.232365
H76	H	1.839373	-1.063005	-0.185653
H77	H	1.384124	-1.204578	-0.640507
O78	O	1.244344	-1.119535	-0.780040
H79	H	1.161884	-1.098557	-0.761952
H80	H	1.261990	-0.905978	-0.762236
