data_functionalizedCrystal
_audit_creation_method	'MofGen! by Chris Wilmer'
_symmetry_space_group_name_H-M	'P1'
_symmetry_Int_Tables_number	1
_symmetry_cell_setting	triclinic
loop_
_symmetry_equiv_pos_as_xyz
  x,y,z
_cell_length_a	19.188930
_cell_length_b	14.971486
_cell_length_c	18.266242
_cell_angle_alpha	90.001879
_cell_angle_beta	89.979776
_cell_angle_gamma	96.620546
loop_
_atom_site_label
_atom_site_type_symbol
_atom_site_fract_x
_atom_site_fract_y
_atom_site_fract_z
O1	O	0.926507	-0.111664	-0.061117
O2	O	1.426507	0.388336	0.438883
O3	O	0.723244	-0.126697	-0.061067
O4	O	1.223244	0.373303	0.438933
O5	O	0.830323	0.011048	-0.061088
O6	O	1.330323	0.511048	0.438912
O7	O	0.819427	-0.249409	-0.061096
O8	O	1.319427	0.250591	0.438904
O9	O	0.830309	0.011044	0.060674
O10	O	1.330309	0.511044	0.560674
O11	O	0.723230	-0.126701	0.060695
O12	O	1.223230	0.373299	0.560695
O13	O	0.926493	-0.111669	0.060645
O14	O	1.426493	0.388331	0.560645
Zn15	Zn	0.824859	-0.119186	0.080003
Zn16	Zn	1.324859	0.380814	0.580003
Zn17	Zn	0.824877	-0.119180	-0.080424
Zn18	Zn	1.324877	0.380820	0.419576
O19	O	0.819413	-0.249414	0.060666
O20	O	1.319413	0.250586	0.560666
C21	C	0.697224	-0.126212	-0.000179
C22	C	1.197224	0.373788	0.499821
C23	C	0.619715	-0.124751	-0.000160
C24	C	1.119715	0.375249	0.499840
N25	N	0.824852	-0.119189	0.189490
N26	N	1.324852	0.380811	0.689490
C27	C	0.829829	0.044368	-0.000207
C28	C	1.329829	0.544368	0.499793
C29	C	0.828369	0.143658	-0.000207
C30	C	1.328369	0.643658	0.499793
C31	C	0.575051	-0.205575	-0.000174
C32	C	1.075051	0.294425	0.499826
C33	C	0.502223	-0.204202	-0.000182
C34	C	1.002223	0.295798	0.499818
C35	C	0.474062	-0.122000	-0.000191
C36	C	0.974062	0.378000	0.499809
C37	C	0.518735	-0.041165	-0.000173
C38	C	1.018735	0.458835	0.499827
C39	C	0.591562	-0.042541	-0.000157
C40	C	1.091562	0.457459	0.499843
N41	N	0.365884	-0.059166	-0.041659
N42	N	0.865884	0.440834	0.458341
N43	N	0.296701	-0.057865	-0.041675
N44	N	0.796701	0.442135	0.458325
C45	C	0.254640	-0.117852	-0.000235
C46	C	0.754640	0.382148	0.499765
N47	N	0.284373	-0.179203	0.041212
N48	N	0.784373	0.320797	0.541212
N49	N	0.353562	-0.180506	0.041225
N50	N	0.853562	0.319494	0.541225
C51	C	0.395094	-0.120500	-0.000207
C52	C	0.895094	0.379500	0.499793
C53	C	0.131007	-0.197193	-0.000257
C54	C	0.631007	0.302807	0.499743
C55	C	0.058178	-0.195817	-0.000260
C56	C	0.558178	0.304183	0.499740
C57	C	0.074692	-0.032778	-0.000258
C58	C	0.574692	0.467222	0.499742
C59	C	0.147519	-0.034157	-0.000248
C60	C	0.647519	0.465843	0.499752
C61	C	0.175672	-0.116367	-0.000250
C62	C	0.675672	0.383633	0.499750
C63	C	0.952512	-0.112153	-0.000244
C64	C	1.452512	0.387847	0.499756
C65	C	1.030021	-0.113615	-0.000268
C66	C	1.530021	0.386385	0.499732
C67	C	0.819907	-0.282734	-0.000216
C68	C	1.319907	0.217266	0.499784
C69	C	0.821368	-0.382023	-0.000221
C70	C	1.321368	0.117977	0.499779
C71	C	0.891275	0.201215	-0.000222
C72	C	1.391275	0.701215	0.499778
C73	C	0.889899	0.294507	-0.000229
C74	C	1.389899	0.794507	0.499771
C75	C	0.825615	0.330240	-0.000216
C76	C	1.325615	0.830240	0.499784
C77	C	0.762704	0.272675	-0.000203
C78	C	1.262704	0.772675	0.499797
C79	C	0.764081	0.179385	-0.000201
C80	C	1.264081	0.679385	0.499799
C81	C	0.759839	0.467123	-0.000205
C82	C	1.259839	0.967123	0.499795
C83	C	0.758461	0.560419	-0.000206
C84	C	1.258461	1.060419	0.499794
C85	C	0.885656	0.582245	-0.000233
C86	C	1.385656	1.082245	0.499767
C87	C	0.887033	0.488955	-0.000231
C88	C	1.387033	0.988955	0.499769
C89	C	0.824122	0.431396	-0.000217
C90	C	1.324122	0.931396	0.499783
N91	N	0.824890	-0.119169	-0.189911
N92	N	1.324890	0.380831	0.310089
C93	C	0.867278	-0.173276	0.771753
C94	C	1.367278	0.326724	1.271753
C95	C	0.867271	-0.173285	0.695108
C96	C	1.367271	0.326715	1.195108
C97	C	0.824884	-0.119171	0.656802
C98	C	1.324884	0.380829	1.156802
C99	C	0.782487	-0.065060	0.695147
C100	C	1.282487	0.434940	1.195147
C101	C	0.782490	-0.065059	0.771791
C102	C	1.282490	0.434941	1.271791
N103	N	0.822940	-0.040819	0.536468
N104	N	1.322940	0.459181	1.036468
N105	N	0.822941	-0.040822	0.463660
N106	N	1.322941	0.459178	0.963660
C107	C	0.824870	-0.119171	0.425880
C108	C	1.324870	0.380829	0.925880
N109	N	0.826812	-0.197517	0.463659
N110	N	1.326812	0.302483	0.963659
N111	N	0.826815	-0.197513	0.536473
N112	N	1.326815	0.302487	1.036473
C113	C	0.824875	-0.119166	0.573695
C114	C	1.324875	0.380834	1.073695
C115	C	0.867253	-0.173292	0.304437
C116	C	1.367253	0.326708	0.804437
C117	C	0.867241	-0.173303	0.227791
C118	C	1.367241	0.326697	0.727791
C119	C	0.782460	-0.065070	0.227831
C120	C	1.282460	0.434930	0.727831
C121	C	0.782469	-0.065067	0.304476
C122	C	1.282469	0.434933	0.804476
C123	C	0.824869	-0.119177	0.342774
C124	C	1.324869	0.380823	0.842774
H125	H	0.597968	-0.272517	-0.000177
H126	H	1.097968	0.227483	0.499823
H127	H	0.627928	0.023278	-0.000146
H128	H	1.127928	0.523278	0.499854
H129	H	0.901802	-0.217339	0.802931
H130	H	1.401802	0.282661	1.302931
H131	H	0.747943	-0.021014	0.196643
H132	H	1.247943	0.478986	0.696643
Cl133	Cl	0.729198	0.002968	0.819987
Cl134	Cl	1.229198	0.502968	1.319987
Cl135	Cl	0.483334	0.062174	-0.000179
Cl136	Cl	0.983334	0.562174	0.499821
H137	H	0.183886	0.031659	-0.000240
H138	H	0.683886	0.531659	0.499760
H139	H	0.901788	-0.217350	0.663889
H140	H	1.401788	0.282650	1.163889
H141	H	0.465851	-0.270021	-0.000191
H142	H	0.965851	0.229979	0.499809
Cl143	Cl	0.166403	-0.300541	-0.000253
Cl144	Cl	0.666403	0.199459	0.499747
Cl145	Cl	0.681890	0.317597	-0.000196
Cl146	Cl	1.181890	0.817597	0.499804
Cl147	Cl	0.729180	0.002962	0.352672
Cl148	Cl	1.229180	0.502962	0.852672
H149	H	0.936881	0.629114	-0.000247
H150	H	1.436881	1.129114	0.499753
Cl151	Cl	0.002027	-0.297435	-0.000274
Cl152	Cl	0.502027	0.202565	0.499726
H153	H	0.708609	0.420260	-0.000196
H154	H	1.208609	0.920260	0.499804
Cl155	Cl	0.729196	0.002966	0.646992
Cl156	Cl	1.229196	0.502966	1.146992
H157	H	0.051764	0.034152	-0.000311
H158	H	0.551764	0.534152	0.499689
H159	H	0.706116	0.589510	-0.000183
H160	H	1.206116	1.089510	0.499817
H161	H	0.939378	0.459865	-0.000237
H162	H	1.439378	0.959865	0.499763
Cl163	Cl	0.972093	0.156304	-0.000231
Cl164	Cl	1.472093	0.656304	0.499769
Cl165	Cl	0.968985	0.366862	-0.000246
Cl166	Cl	1.468985	0.866862	0.499754
Cl167	Cl	0.920518	-0.241351	0.179596
Cl168	Cl	1.420518	0.258649	0.679596
Cl169	Cl	0.684996	0.107026	-0.000185
Cl170	Cl	1.184996	0.607026	0.499815
H171	H	0.901774	-0.217356	0.335621
H172	H	1.401774	0.282644	0.835621
