data_functionalizedCrystal
_audit_creation_method	'MofGen! by Chris Wilmer'
_symmetry_space_group_name_H-M	'P1'
_symmetry_Int_Tables_number	1
_symmetry_cell_setting	triclinic
loop_
_symmetry_equiv_pos_as_xyz
  x,y,z
_cell_length_a	6.817900
_cell_length_b	17.982783
_cell_length_c	17.078481
_cell_angle_alpha	96.483949
_cell_angle_beta	99.306161
_cell_angle_gamma	102.448572
loop_
_atom_site_label
_atom_site_type_symbol
_atom_site_fract_x
_atom_site_fract_y
_atom_site_fract_z
V1	V	-3.974463	-0.105234	-0.247690
V2	V	-3.474463	0.394766	0.252310
O3	O	-3.968303	0.005240	-0.242636
O4	O	-3.468303	0.505240	0.257364
O5	O	-3.921211	-0.208837	-0.246322
O6	O	-3.421211	0.291163	0.253678
O7	O	-3.905592	-0.103535	-0.355568
O8	O	-3.405592	0.396465	0.144432
O9	O	-3.984029	-0.100791	-0.132634
O10	O	-3.484029	0.399209	0.367366
V11	V	-4.461372	-0.092029	-0.233889
V12	V	-3.961372	0.407971	0.266111
O13	O	-4.228294	-0.134199	-0.277964
O14	O	-3.728294	0.365801	0.222036
O15	O	-4.657739	-0.063064	-0.203615
O16	O	-4.157739	0.436936	0.296385
O17	O	-4.291418	0.011574	-0.235257
O18	O	-3.791418	0.511574	0.264743
O19	O	-4.584930	-0.202503	-0.238943
O20	O	-4.084930	0.297497	0.261057
O21	O	-4.569203	-0.096472	-0.348945
O22	O	-4.069203	0.403528	0.151055
O23	O	-4.307037	-0.093728	-0.126012
O24	O	-3.807037	0.406272	0.373988
C25	C	-3.765694	-0.234096	-0.242499
C26	C	-3.265694	0.265904	0.257501
C27	C	-3.803304	-0.318792	-0.242099
C28	C	-3.303304	0.181208	0.257901
C29	C	-3.795100	-0.347755	-0.169225
C30	C	-3.295100	0.152245	0.330775
C31	C	-3.830458	-0.427337	-0.168853
C32	C	-3.330458	0.072663	0.331147
C33	C	-3.874006	-0.477955	-0.241355
C34	C	-3.374006	0.022045	0.258645
C35	C	-3.882216	-0.448988	-0.314235
C36	C	-3.382216	0.051012	0.185765
C37	C	-3.846872	-0.369407	-0.314607
C38	C	-3.346872	0.130593	0.185393
C39	C	-4.024756	-0.769927	-0.312736
C40	C	-3.524756	-0.269927	0.187264
C41	C	-4.060094	-0.849512	-0.312358
C42	C	-3.560094	-0.349512	0.187642
C43	C	-4.008342	-0.827856	-0.166981
C44	C	-3.508342	-0.327856	0.333019
C45	C	-3.972998	-0.748276	-0.167354
C46	C	-3.472998	-0.248276	0.332646
C47	C	-3.981221	-0.719316	-0.240233
C48	C	-3.481221	-0.219316	0.259767
C49	C	-3.942885	-0.633024	-0.240637
C50	C	-3.442885	-0.133024	0.259363
C51	C	-3.912327	-0.564245	-0.240952
C52	C	-3.412327	-0.064245	0.259048
C53	C	-3.745770	-0.099771	-0.381852
C54	C	-3.245770	0.400229	0.118148
C55	C	-3.770712	-0.099068	-0.470044
C56	C	-3.270712	0.400932	0.029956
C57	C	-3.963584	-0.102540	-0.515531
C58	C	-3.463584	0.397460	-0.015531
C59	C	-3.987007	-0.101879	-0.598397
C60	C	-3.487007	0.398121	-0.098397
C61	C	-3.817559	-0.097750	-0.635776
C62	C	-3.317559	0.402250	-0.135776
C63	C	-3.624671	-0.094275	-0.590283
C64	C	-3.124671	0.405725	-0.090283
C65	C	-3.601247	-0.094931	-0.507417
C66	C	-3.101247	0.405069	-0.007417
C67	C	-3.868186	-0.095375	-0.883172
C68	C	-3.368186	0.404625	-0.383172
C69	C	-3.891627	-0.094721	-0.966044
C70	C	-3.391627	0.405279	-0.466044
C71	C	-4.253962	-0.102324	-0.974152
C72	C	-3.753962	0.397676	-0.474152
C73	C	-4.230523	-0.102985	-0.891285
C74	C	-3.730523	0.397015	-0.391285
C75	C	-4.037636	-0.099505	-0.845799
C76	C	-3.537636	0.400495	-0.345799
N77	N	-3.841499	-0.097076	-0.720479
N78	N	-3.341499	0.402924	-0.220479
N79	N	-4.013696	-0.100174	-0.761097
N80	N	-3.513696	0.399826	-0.261097
C81	C	-4.110278	0.036829	-0.239078
C82	C	-3.610278	0.536829	0.260922
C83	C	-4.051904	0.121524	-0.239483
C84	C	-3.551904	0.621524	0.260517
C85	C	-4.130202	-0.097494	-0.099724
C86	C	-3.630202	0.402506	0.400276
C87	C	-4.084499	-0.098194	-0.011530
C88	C	-3.584499	0.401806	0.488470
H89	H	-3.917690	-0.490208	-0.373268
H90	H	-3.417690	0.009792	0.126732
H91	H	-4.411004	-0.105156	-1.011196
H92	H	-3.911004	0.394844	-0.511196
C93	C	-3.705370	-0.090470	-1.007207
C94	C	-3.205370	0.409530	-0.507207
H95	H	-3.587179	-0.088574	-0.968263
H96	H	-3.087179	0.411426	-0.468263
H97	H	-3.729622	-0.134787	-1.046661
H98	H	-3.229622	0.365213	-0.546661
H99	H	-3.684433	-0.045500	-1.032096
H100	H	-3.184433	0.454500	-0.532096
H101	H	-4.368509	-0.106346	-0.860857
H102	H	-3.868509	0.393654	-0.360857
H103	H	-3.711143	-0.092569	-0.846151
H104	H	-3.211143	0.407431	-0.346151
H105	H	-3.937530	-0.707065	-0.108315
H106	H	-3.437530	-0.207065	0.391685
H107	H	-3.823780	-0.450913	-0.109511
H108	H	-3.323780	0.049087	0.390489
H109	H	-3.486703	-0.090908	-0.620722
H110	H	-2.986703	0.409092	-0.120722
C111	C	-3.389091	-0.091116	-0.457383
C112	C	-2.889091	0.408884	0.042617
H113	H	-3.291531	-0.088570	-0.491512
H114	H	-2.791531	0.411430	0.008488
H115	H	-3.350276	-0.046584	-0.417502
H116	H	-2.850276	0.453416	0.082498
H117	H	-3.394572	-0.135850	-0.432276
H118	H	-2.894572	0.364150	0.067724
H119	H	-4.095556	-0.890725	-0.371402
H120	H	-3.595556	-0.390725	0.128598
C121	C	-4.033517	-0.738070	-0.392891
C122	C	-3.533517	-0.238070	0.107109
H123	H	-4.006173	-0.683425	-0.382733
H124	H	-3.506173	-0.183425	0.117267
H125	H	-3.933951	-0.753107	-0.420085
H126	H	-3.433951	-0.253107	0.079915
H127	H	-4.165781	-0.758014	-0.425303
H128	H	-3.665781	-0.258014	0.074697
C129	C	-3.747195	-0.292078	-0.089474
C130	C	-3.247195	0.207922	0.410526
H131	H	-3.727301	-0.240534	-0.100129
H132	H	-3.227301	0.259466	0.399871
H133	H	-3.858255	-0.303151	-0.062085
H134	H	-3.358255	0.196849	0.437915
H135	H	-3.626443	-0.298194	-0.057007
H136	H	-3.126443	0.201806	0.442993
C137	C	-3.999331	-0.859715	-0.086815
C138	C	-3.499331	-0.359715	0.413185
H139	H	-4.026641	-0.914360	-0.096973
H140	H	-3.526641	-0.414360	0.403027
H141	H	-3.867009	-0.839747	-0.054467
H142	H	-3.367009	-0.339747	0.445533
H143	H	-4.098822	-0.844700	-0.059553
H144	H	-3.598822	-0.344700	0.440447
H145	H	-3.853576	-0.345829	-0.373949
H146	H	-3.353576	0.154171	0.126051
H147	H	-4.101574	-0.105908	-0.485104
H148	H	-3.601574	0.394092	0.014896
H149	H	-4.144058	-0.104702	-0.635428
H150	H	-3.644058	0.395298	-0.135428
