data_functionalizedCrystal
_audit_creation_method	'MofGen! by Chris Wilmer'
_symmetry_space_group_name_H-M	'P1'
_symmetry_Int_Tables_number	1
_symmetry_cell_setting	triclinic
loop_
_symmetry_equiv_pos_as_xyz
  x,y,z
_cell_length_a	14.044220
_cell_length_b	11.792254
_cell_length_c	10.268362
_cell_angle_alpha	89.994545
_cell_angle_beta	90.000433
_cell_angle_gamma	88.693738
loop_
_atom_site_label
_atom_site_type_symbol
_atom_site_fract_x
_atom_site_fract_y
_atom_site_fract_z
O1	O	1.259124	0.273770	-0.108163
O2	O	1.509124	0.523770	0.141837
O3	O	1.759124	0.773770	0.391837
O4	O	2.009124	1.023770	0.641837
O5	O	0.983104	0.263891	-0.108196
O6	O	1.233104	0.513891	0.141804
O7	O	1.483104	0.763891	0.391804
O8	O	1.733104	1.013891	0.641804
O9	O	1.127806	0.104289	-0.108169
O10	O	1.377806	0.354289	0.141831
O11	O	1.627806	0.604289	0.391831
O12	O	1.877806	0.854289	0.641831
O13	O	1.114422	0.433372	-0.108189
O14	O	1.364422	0.683372	0.141811
O15	O	1.614422	0.933372	0.391811
O16	O	1.864422	1.183372	0.641811
O17	O	1.127793	0.104281	0.108431
O18	O	1.377793	0.354281	0.358431
O19	O	1.627793	0.604281	0.608431
O20	O	1.877793	0.854281	0.858431
O21	O	0.983091	0.263883	0.108405
O22	O	1.233091	0.513883	0.358405
O23	O	1.483091	0.763883	0.608405
O24	O	1.733091	1.013883	0.858405
O25	O	1.259111	0.273762	0.108438
O26	O	1.509111	0.523762	0.358438
O27	O	1.759111	0.773762	0.608438
O28	O	2.009111	1.023762	0.858438
Cu29	Cu	1.121100	0.268821	0.128199
Cu30	Cu	1.371100	0.518821	0.378199
Cu31	Cu	1.621100	0.768821	0.628199
Cu32	Cu	1.871100	1.018821	0.878199
Cu33	Cu	1.121115	0.268831	-0.127957
Cu34	Cu	1.371115	0.518831	0.122043
Cu35	Cu	1.621115	0.768831	0.372043
Cu36	Cu	1.871115	1.018831	0.622043
O37	O	1.114409	0.433364	0.108411
O38	O	1.364409	0.683364	0.358411
O39	O	1.614409	0.933364	0.608411
O40	O	1.864409	1.183364	0.858411
C41	C	0.947761	0.259563	0.000100
C42	C	1.197761	0.509563	0.250100
C43	C	1.447761	0.759563	0.500100
C44	C	1.697761	1.009563	0.750100
C45	C	0.842468	0.246664	0.000088
C46	C	1.092468	0.496664	0.250088
C47	C	1.342468	0.746664	0.500088
C48	C	1.592468	0.996664	0.750088
C49	C	1.126956	0.061915	0.000130
C50	C	1.376956	0.311915	0.250130
C51	C	1.626956	0.561915	0.500130
C52	C	1.876956	0.811915	0.750130
C53	C	1.124433	-0.064335	0.000129
C54	C	1.374433	0.185665	0.250129
C55	C	1.624433	0.435665	0.500129
C56	C	1.874433	0.685665	0.750129
C57	C	1.122383	-0.166864	0.000124
C58	C	1.372383	0.083136	0.250124
C59	C	1.622383	0.333136	0.500124
C60	C	1.872383	0.583136	0.750124
C61	C	1.119819	-0.295491	0.000112
C62	C	1.369819	-0.045491	0.250112
C63	C	1.619819	0.204509	0.500112
C64	C	1.869819	0.454509	0.750112
C65	C	0.649685	0.223082	0.000115
C66	C	0.899685	0.473082	0.250115
C67	C	1.149685	0.723082	0.500115
C68	C	1.399685	0.973082	0.750115
C69	C	0.592525	0.314566	0.000115
C70	C	0.842525	0.564566	0.250115
C71	C	1.092525	0.814566	0.500115
C72	C	1.342525	1.064566	0.750115
C73	C	0.485254	0.301445	0.000130
C74	C	0.735254	0.551445	0.250130
C75	C	0.985254	0.801445	0.500130
C76	C	1.235254	1.051445	0.750130
C77	C	0.756966	0.236201	0.000100
C78	C	1.006966	0.486201	0.250100
C79	C	1.256966	0.736201	0.500100
C80	C	1.506966	0.986201	0.750100
C81	C	1.294455	0.278090	0.000139
C82	C	1.544455	0.528090	0.250139
C83	C	1.794455	0.778090	0.500139
C84	C	2.044455	1.028090	0.750139
C85	C	1.399747	0.290989	0.000142
C86	C	1.649747	0.540989	0.250142
C87	C	1.899747	0.790989	0.500142
C88	C	2.149747	1.040989	0.750142
C89	C	1.115259	0.475738	0.000108
C90	C	1.365259	0.725738	0.250108
C91	C	1.615259	0.975738	0.500108
C92	C	1.865259	1.225738	0.750108
C93	C	1.117782	0.601988	0.000101
C94	C	1.367782	0.851988	0.250101
C95	C	1.617782	1.101988	0.500101
C96	C	1.867782	1.351988	0.750101
N97	N	1.121096	0.268814	0.308364
N98	N	1.371096	0.518814	0.558364
N99	N	1.621096	0.768814	0.808364
N100	N	1.871096	1.018814	1.058364
N101	N	1.121126	0.268830	-0.308123
N102	N	1.371126	0.518830	-0.058123
N103	N	1.621126	0.768830	0.191877
N104	N	1.871126	1.018830	0.441877
C105	C	1.121110	0.268829	0.574035
C106	C	1.371110	0.518829	0.824035
C107	C	1.621110	0.768829	1.074035
C108	C	1.871110	1.018829	1.324035
C109	C	1.121099	0.268824	0.426197
C110	C	1.371099	0.518824	0.676197
C111	C	1.621099	0.768824	0.926197
C112	C	1.871099	1.018824	1.176197
H113	H	0.624152	0.402743	0.000103
H114	H	0.874152	0.652743	0.250103
H115	H	1.124152	0.902743	0.500103
H116	H	1.374152	1.152743	0.750103
C117	C	0.606965	0.103970	0.000114
C118	C	0.856965	0.353970	0.250114
C119	C	1.106965	0.603970	0.500114
C120	C	1.356965	0.853970	0.750114
H121	H	0.539425	0.110668	0.000109
H122	H	0.789425	0.360668	0.250109
H123	H	1.039425	0.610668	0.500109
H124	H	1.289425	0.860668	0.750109
H125	H	0.627551	0.063868	0.075641
H126	H	0.877551	0.313868	0.325641
H127	H	1.127551	0.563868	0.575641
H128	H	1.377551	0.813868	0.825641
H129	H	0.627544	0.063897	-0.075435
H130	H	0.877544	0.313897	0.174565
H131	H	1.127544	0.563897	0.424565
H132	H	1.377544	0.813897	0.674565
