data_functionalizedCrystal
_audit_creation_method	'MofGen! by Chris Wilmer'
_symmetry_space_group_name_H-M	'P1'
_symmetry_Int_Tables_number	1
_symmetry_cell_setting	triclinic
loop_
_symmetry_equiv_pos_as_xyz
  x,y,z
_cell_length_a	10.489689
_cell_length_b	9.730223
_cell_length_c	10.654550
_cell_angle_alpha	90.001631
_cell_angle_beta	95.498638
_cell_angle_gamma	89.992375
loop_
_atom_site_label
_atom_site_type_symbol
_atom_site_fract_x
_atom_site_fract_y
_atom_site_fract_z
O1	O	-1.694007	0.114388	0.176876
O2	O	-1.322795	0.114368	0.193577
O3	O	-1.516936	0.114374	0.002490
O4	O	-1.499866	0.114383	0.367964
O5	O	-1.516918	-0.114206	0.002491
O6	O	-1.322777	-0.114212	0.193578
O7	O	-1.693990	-0.114192	0.176877
Zn8	Zn	-1.508381	-0.150494	0.185228
Zn9	Zn	-1.508404	0.150670	0.185227
O10	O	-1.499849	-0.114197	0.367965
C11	C	-1.275254	0.000076	0.192330
C12	C	-1.133623	0.000068	0.188598
N13	N	-1.508374	-0.356030	0.185228
C14	C	-0.951179	0.000081	0.303517
C15	C	-1.043362	0.112782	0.246113
C16	C	-1.043318	-0.112580	0.246083
C17	C	-0.973469	0.112884	0.124481
C18	C	-0.973415	-0.112580	0.124468
C19	C	-1.065571	0.000149	0.066976
C20	C	-1.422397	-0.427994	0.269804
C21	C	-1.422423	-0.571877	0.269802
C22	C	-1.594406	-0.571820	0.100637
C23	C	-1.594386	-0.427939	0.100646
C24	C	-1.323100	-0.428028	0.367466
C25	C	-1.323126	-0.571911	0.367464
C26	C	-0.741528	0.000096	0.178144
C27	C	-0.883152	0.000090	0.181936
C28	C	-1.515674	0.000085	-0.044308
C29	C	-1.511924	0.000090	-0.183752
N30	N	-1.508420	0.356207	0.185217
C31	C	-1.626231	0.000092	-0.263205
C32	C	-1.622700	0.000101	-0.394227
C33	C	-1.390545	0.000101	-0.366330
C34	C	-1.394077	0.000101	-0.235311
C35	C	-1.760264	0.000086	-0.279313
C36	C	-1.756733	0.000095	-0.410335
C37	C	-1.501111	0.000094	0.414762
C38	C	-1.504861	0.000099	0.554207
H39	H	-0.901440	0.000194	0.403457
Cl40	Cl	-1.841212	0.147768	-0.233953
H41	H	-0.942410	-0.207866	0.073067
H42	H	-1.074242	-0.207857	0.297548
H43	H	-1.230481	-0.383427	0.336854
Cl44	Cl	-1.250371	0.000133	-0.135429
H45	H	-1.354128	-0.616528	0.458689
H46	H	-1.664406	-0.369348	0.031789
H47	H	-1.074340	0.208060	0.297560
Cl48	Cl	-1.702530	-0.662228	-0.005689
Cl49	Cl	-0.925962	0.260150	0.045116
Cl50	Cl	-1.171796	-0.632257	0.334196
Cl51	Cl	-1.142021	0.000236	-0.087459
Cl52	Cl	-1.826127	-0.152297	-0.224275
H53	H	-1.797247	0.098792	-0.455967
Cl54	Cl	-1.356711	-0.367728	0.516518
H55	H	-1.294598	0.000111	-0.408325
Cl56	Cl	-1.834686	-0.147586	-0.474795
