data_functionalizedCrystal
_audit_creation_method	'MofGen! by Chris Wilmer'
_symmetry_space_group_name_H-M	'P1'
_symmetry_Int_Tables_number	1
_symmetry_cell_setting	triclinic
loop_
_symmetry_equiv_pos_as_xyz
  x,y,z
_cell_length_a	10.489741
_cell_length_b	10.489741
_cell_length_c	9.565339
_cell_angle_alpha	89.995461
_cell_angle_beta	89.998853
_cell_angle_gamma	95.460826
loop_
_atom_site_label
_atom_site_type_symbol
_atom_site_fract_x
_atom_site_fract_y
_atom_site_fract_z
O1	O	-1.694054	0.179957	0.116161
O2	O	-1.322858	0.196850	0.116182
O3	O	-1.516902	0.002806	0.116175
O4	O	-1.500009	0.374002	0.116169
O5	O	-1.516885	0.002821	-0.116346
O6	O	-1.322841	0.196865	-0.116338
O7	O	-1.694037	0.179972	-0.116359
Zn8	Zn	-1.508436	0.188421	-0.153266
Zn9	Zn	-1.508458	0.188401	0.153089
O10	O	-1.499993	0.374017	-0.116351
C11	C	-1.275318	0.195582	-0.000075
C12	C	-1.133688	0.191765	-0.000067
C13	C	-1.741577	0.181241	-0.000098
C14	C	-1.883206	0.185058	-0.000098
C15	C	-1.515618	-0.044718	-0.000082
C16	C	-1.511801	-0.186348	-0.000070
C17	C	-1.065548	0.068300	-0.000078
C18	C	-0.973430	0.126616	0.114563
C19	C	-0.973447	0.126660	-0.114684
C20	C	-1.043435	0.250131	0.114669
C21	C	-1.043462	0.250159	-0.114681
C22	C	-0.951371	0.308564	-0.000012
C23	C	-1.501277	0.421541	-0.000092
C24	C	-1.505094	0.563170	-0.000094
N25	N	-1.508431	0.188434	-0.362345
C26	C	-1.628559	0.631310	-0.000090
C27	C	-1.570227	0.723439	-0.114731
C28	C	-1.570214	0.723402	0.114516
C29	C	-1.446711	0.653433	-0.114829
C30	C	-1.446716	0.653387	0.114520
C31	C	-1.388294	0.745487	-0.000148
C32	C	-1.419439	0.278873	-0.546715
C33	C	-1.392583	0.163729	-0.453485
C34	C	-1.535229	0.303568	-0.453506
C35	C	-1.481560	0.073176	-0.546653
C36	C	-1.624258	0.213091	-0.546682
C37	C	-1.597450	0.097864	-0.453495
N38	N	-1.508474	0.188379	0.362169
H39	H	-0.942422	0.074369	0.211486
H40	H	-1.115238	-0.033196	0.000067
H41	H	-1.074270	0.302325	0.211698
O42	O	-0.885910	0.443151	0.000040
H43	H	-0.913954	0.494075	0.095291
H44	H	-1.344111	0.355289	-0.587645
O45	O	-1.639407	0.764533	-0.243121
H46	H	-1.640794	0.870203	-0.242439
O47	O	-1.377575	0.612616	-0.243370
H48	H	-1.375332	0.507044	-0.242401
H49	H	-1.730072	0.581662	-0.000210
H50	H	-1.294650	0.142846	-0.412538
H51	H	-1.458798	-0.024236	-0.587399
O52	O	-1.377568	0.612227	0.242893
H53	H	-1.374576	0.506754	0.241120
O54	O	-1.084612	0.319303	-0.243064
H55	H	-1.056892	0.267862	-0.338097
H56	H	-1.286691	0.794911	-0.000205
O57	O	-1.639431	0.764427	0.242909
H58	H	-1.739134	0.718257	0.242653
H59	H	-0.942462	0.074403	-0.211604
O60	O	-1.697167	-0.003572	-0.399599
H61	H	-1.674632	-0.099012	-0.437106
H62	H	-1.722161	0.234017	-0.587654
H63	H	-1.557895	0.400963	-0.412615
