data_functionalizedCrystal
_audit_creation_method	'MofGen! by Chris Wilmer'
_symmetry_space_group_name_H-M	'P1'
_symmetry_Int_Tables_number	1
_symmetry_cell_setting	triclinic
loop_
_symmetry_equiv_pos_as_xyz
  x,y,z
_cell_length_a	16.992694
_cell_length_b	16.109301
_cell_length_c	14.586319
_cell_angle_alpha	90.005214
_cell_angle_beta	89.997873
_cell_angle_gamma	87.064852
loop_
_atom_site_label
_atom_site_type_symbol
_atom_site_fract_x
_atom_site_fract_y
_atom_site_fract_z
O1	O	-1.040345	-0.176288	-0.076131
O2	O	-0.790345	0.073712	0.173869
O3	O	-0.540345	0.323712	0.423869
O4	O	-0.290345	0.573712	0.673869
O5	O	-0.812060	-0.174354	-0.076158
O6	O	-0.562060	0.075646	0.173842
O7	O	-0.312060	0.325646	0.423842
O8	O	-0.062060	0.575646	0.673842
O9	O	-0.932474	-0.054709	-0.076134
O10	O	-0.682474	0.195291	0.173866
O11	O	-0.432474	0.445291	0.423866
O12	O	-0.182474	0.695291	0.673866
O13	O	-0.919932	-0.295934	-0.076154
O14	O	-0.669932	-0.045934	0.173846
O15	O	-0.419932	0.204066	0.423846
O16	O	-0.169932	0.454066	0.673846
O17	O	-0.932466	-0.054706	0.076347
O18	O	-0.682466	0.195294	0.326347
O19	O	-0.432466	0.445294	0.576347
O20	O	-0.182466	0.695294	0.826347
O21	O	-0.812052	-0.174352	0.076323
O22	O	-0.562052	0.075648	0.326323
O23	O	-0.312052	0.325648	0.576323
O24	O	-0.062052	0.575648	0.826323
O25	O	-1.040337	-0.176286	0.076350
O26	O	-0.790337	0.073714	0.326350
O27	O	-0.540337	0.323714	0.576350
O28	O	-0.290337	0.573714	0.826350
Cu29	Cu	-0.926194	-0.175318	0.090259
Cu30	Cu	-0.676194	0.074682	0.340259
Cu31	Cu	-0.426194	0.324682	0.590259
Cu32	Cu	-0.176194	0.574682	0.840259
Cu33	Cu	-0.926204	-0.175321	-0.090067
Cu34	Cu	-0.676204	0.074679	0.159933
Cu35	Cu	-0.426204	0.324679	0.409933
Cu36	Cu	-0.176204	0.574679	0.659933
O37	O	-0.919923	-0.295931	0.076327
O38	O	-0.669923	-0.045931	0.326327
O39	O	-0.419923	0.204069	0.576327
O40	O	-0.169923	0.454069	0.826327
C41	C	-0.782844	-0.171865	0.000080
C42	C	-0.532844	0.078135	0.250080
C43	C	-0.282844	0.328135	0.500080
C44	C	-0.032844	0.578135	0.750080
C45	C	-0.695802	-0.164441	0.000070
C46	C	-0.445802	0.085559	0.250070
C47	C	-0.195802	0.335559	0.500070
C48	C	0.054198	0.585559	0.750070
C49	C	-0.931962	-0.023699	0.000107
C50	C	-0.681962	0.226301	0.250107
C51	C	-0.431962	0.476301	0.500107
C52	C	-0.181962	0.726301	0.750107
C53	C	-0.930439	0.068698	0.000108
C54	C	-0.680439	0.318698	0.250108
C55	C	-0.430439	0.568698	0.500108
C56	C	-0.180439	0.818698	0.750108
C57	C	-1.069553	-0.178775	0.000111
C58	C	-0.819553	0.071225	0.250111
C59	C	-0.569553	0.321225	0.500111
C60	C	-0.319553	0.571225	0.750111
C61	C	-1.156595	-0.186198	0.000115
C62	C	-0.906595	0.063802	0.250115
C63	C	-0.656595	0.313802	0.500115
C64	C	-0.406595	0.563802	0.750115
C65	C	-0.645543	-0.236067	0.000064
C66	C	-0.395543	0.013933	0.250064
C67	C	-0.145543	0.263933	0.500064
C68	C	0.104457	0.513933	0.750064
C69	C	-0.563758	-0.229087	0.000078
C70	C	-0.313758	0.020913	0.250078
C71	C	-0.063758	0.270913	0.500078
C72	C	0.186242	0.520913	0.750078
C73	C	-0.532234	-0.150481	0.000090
C74	C	-0.282234	0.099519	0.250090
C75	C	-0.032234	0.349519	0.500090
C76	C	0.217766	0.599519	0.750090
C77	C	-0.582499	-0.078849	0.000098
C78	C	-0.332499	0.171151	0.250098
C79	C	-0.082499	0.421151	0.500098
C80	C	0.167501	0.671151	0.750098
C81	C	-0.664282	-0.085830	0.000091
C82	C	-0.414282	0.164170	0.250091
C83	C	-0.164282	0.414170	0.500091
C84	C	0.085718	0.664170	0.750091
C85	C	-0.288644	-0.121548	0.000116
C86	C	-0.038644	0.128452	0.250116
C87	C	0.211356	0.378452	0.500116
C88	C	0.461356	0.628452	0.750116
C89	C	-0.206854	-0.114572	0.000120
C90	C	0.043146	0.135428	0.250120
C91	C	0.293146	0.385428	0.500120
C92	C	0.543146	0.635428	0.750120
C93	C	-0.188119	-0.264811	0.000102
C94	C	0.061881	-0.014811	0.250102
C95	C	0.311881	0.235189	0.500102
C96	C	0.561881	0.485189	0.750102
C97	C	-0.269904	-0.271785	0.000090
C98	C	-0.019904	-0.021785	0.250090
C99	C	0.230096	0.228215	0.500090
C100	C	0.480096	0.478215	0.750090
C101	C	-0.320163	-0.200154	0.000103
C102	C	-0.070163	0.049846	0.250103
C103	C	0.179837	0.299846	0.500103
C104	C	0.429837	0.549846	0.750103
N105	N	-0.448637	-0.143344	0.000100
N106	N	-0.198637	0.106656	0.250100
N107	N	0.051363	0.356656	0.500100
N108	N	0.301363	0.606656	0.750100
N109	N	-0.403758	-0.207291	0.000099
N110	N	-0.153758	0.042709	0.250099
N111	N	0.096242	0.292709	0.500099
N112	N	0.346242	0.542709	0.750099
C113	C	-0.920435	-0.326941	0.000084
C114	C	-0.670435	-0.076941	0.250084
C115	C	-0.420435	0.173059	0.500084
C116	C	-0.170435	0.423059	0.750084
C117	C	-0.921959	-0.419338	0.000077
C118	C	-0.671959	-0.169338	0.250077
C119	C	-0.421959	0.080662	0.500077
C120	C	-0.171959	0.330662	0.750077
N121	N	-0.926192	-0.175316	0.217091
N122	N	-0.676192	0.074684	0.467091
N123	N	-0.426192	0.324684	0.717091
N124	N	-0.176192	0.574684	0.967091
C125	C	-0.998348	0.286439	0.000101
C126	C	-0.748348	0.536439	0.250101
C127	C	-0.498348	0.786439	0.500101
C128	C	-0.248348	1.036439	0.750101
C129	C	-0.996911	0.373256	0.000094
C130	C	-0.746911	0.623256	0.250094
C131	C	-0.496911	0.873256	0.500094
C132	C	-0.246911	1.123256	0.750094
C133	C	-0.854044	0.362915	0.000080
C134	C	-0.604044	0.612915	0.250080
C135	C	-0.354044	0.862915	0.500080
C136	C	-0.104044	1.112915	0.750080
C137	C	-0.855482	0.276100	0.000082
C138	C	-0.605482	0.526100	0.250082
C139	C	-0.355482	0.776100	0.500082
C140	C	-0.105482	1.026100	0.750082
C141	C	-0.927636	0.237865	0.000097
C142	C	-0.677636	0.487865	0.250097
C143	C	-0.427636	0.737865	0.500097
C144	C	-0.177636	0.987865	0.750097
C145	C	-0.924761	0.411496	0.000088
C146	C	-0.674761	0.661496	0.250088
C147	C	-0.424761	0.911496	0.500088
C148	C	-0.174761	1.161496	0.750088
C149	C	-0.923202	0.505626	0.000080
C150	C	-0.673202	0.755626	0.250080
C151	C	-0.423202	1.005626	0.500080
C152	C	-0.173202	1.255626	0.750080
C153	C	-0.929196	0.143729	0.000103
C154	C	-0.679196	0.393729	0.250103
C155	C	-0.429196	0.643729	0.500103
C156	C	-0.179196	0.893729	0.750103
N157	N	-0.926211	-0.175317	-0.216898
N158	N	-0.676211	0.074683	0.033102
N159	N	-0.426211	0.324683	0.283102
N160	N	-0.176211	0.574683	0.533102
C161	C	-0.979529	-0.122357	0.452108
C162	C	-0.729529	0.127643	0.702108
C163	C	-0.479529	0.377643	0.952108
C164	C	-0.229529	0.627643	1.202108
C165	C	-0.979531	-0.122355	0.548089
C166	C	-0.729531	0.127645	0.798089
C167	C	-0.479531	0.377645	1.048089
C168	C	-0.229531	0.627645	1.298089
C169	C	-0.872869	-0.228278	0.548078
C170	C	-0.622869	0.021722	0.798078
C171	C	-0.372869	0.271722	1.048078
C172	C	-0.122869	0.521722	1.298078
C173	C	-0.872863	-0.228276	0.452098
C174	C	-0.622863	0.021724	0.702098
C175	C	-0.372863	0.271724	0.952098
C176	C	-0.122863	0.521724	1.202098
C177	C	-0.926198	-0.175316	0.404116
C178	C	-0.676198	0.074684	0.654116
C179	C	-0.426198	0.324684	0.904116
C180	C	-0.176198	0.574684	1.154116
C181	C	-0.926206	-0.175317	0.596077
C182	C	-0.676206	0.074683	0.846077
C183	C	-0.426206	0.324683	1.096077
C184	C	-0.176206	0.574683	1.346077
C185	C	-0.926208	-0.175316	0.700144
C186	C	-0.676208	0.074684	0.950144
C187	C	-0.426208	0.324684	1.200144
C188	C	-0.176208	0.574684	1.450144
C189	C	-0.926195	-0.175316	0.300042
C190	C	-0.676195	0.074684	0.550042
C191	C	-0.426195	0.324684	0.800042
C192	C	-0.176195	0.574684	1.050042
H193	H	-0.671204	-0.300077	0.000054
H194	H	-0.421204	-0.050077	0.250054
H195	H	-0.171204	0.199923	0.500054
H196	H	0.078796	0.449923	0.750054
H197	H	-0.295565	-0.335795	0.000070
H198	H	-0.045565	-0.085795	0.250070
H199	H	0.204435	0.164205	0.500070
H200	H	0.454435	0.414205	0.750070
Br201	Br	-0.800490	-0.300151	0.613200
Br202	Br	-0.550490	-0.050151	0.863200
Br203	Br	-0.300490	0.199849	1.113200
Br204	Br	-0.050490	0.449849	1.363200
Br205	Br	-0.800474	-0.300146	0.386959
Br206	Br	-0.550474	-0.050146	0.636959
Br207	Br	-0.300474	0.199854	0.886959
Br208	Br	-0.050474	0.449854	1.136959
Br209	Br	-0.756125	0.414811	0.000057
Br210	Br	-0.506125	0.664811	0.250057
Br211	Br	-0.256125	0.914811	0.500057
Br212	Br	-0.006125	1.164811	0.750057
H213	H	-0.797897	0.236549	0.000075
H214	H	-0.547897	0.486549	0.250075
H215	H	-0.297897	0.736549	0.500075
H216	H	-0.047897	0.986549	0.750075
H217	H	-0.522840	-0.287413	0.000072
H218	H	-0.272840	-0.037413	0.250072
H219	H	-0.022840	0.212587	0.500072
H220	H	0.227160	0.462587	0.750072
H221	H	-0.147190	-0.323129	0.000094
H222	H	0.102810	-0.073129	0.250094
H223	H	0.352810	0.176871	0.500094
H224	H	0.602810	0.426871	0.750094
H225	H	-1.022957	-0.079233	0.413043
H226	H	-0.772957	0.170767	0.663043
H227	H	-0.522957	0.420767	0.913043
H228	H	-0.272957	0.670767	1.163043
Br229	Br	-0.164072	-0.007884	0.000156
Br230	Br	0.085928	0.242116	0.250156
Br231	Br	0.335928	0.492116	0.500156
Br232	Br	0.585928	0.742116	0.750156
H233	H	-0.329554	-0.063220	0.000128
H234	H	-0.079554	0.186780	0.250128
H235	H	0.170446	0.436780	0.500128
H236	H	0.420446	0.686780	0.750128
Br237	Br	-1.092881	0.439176	0.000095
Br238	Br	-0.842881	0.689176	0.250095
Br239	Br	-0.592881	0.939176	0.500095
Br240	Br	-0.342881	1.189176	0.750095
H241	H	-0.556826	-0.014846	0.000120
H242	H	-0.306826	0.235154	0.250120
H243	H	-0.056826	0.485154	0.500120
H244	H	0.193174	0.735154	0.750120
Br245	Br	-0.732493	0.011381	0.000106
Br246	Br	-0.482493	0.261381	0.250106
Br247	Br	-0.232493	0.511381	0.500106
Br248	Br	0.017507	0.761381	0.750106
H249	H	-1.022958	-0.079231	0.587162
H250	H	-0.772958	0.170769	0.837162
H251	H	-0.522958	0.420769	1.087162
H252	H	-0.272958	0.670769	1.337162
Br253	Br	-1.096271	0.234551	0.000123
Br254	Br	-0.846271	0.484551	0.250123
Br255	Br	-0.596271	0.734551	0.500123
Br256	Br	-0.346271	0.984551	0.750123
