data_functionalizedCrystal
_audit_creation_method	'MofGen! by Chris Wilmer'
_symmetry_space_group_name_H-M	'P1'
_symmetry_Int_Tables_number	1
_symmetry_cell_setting	triclinic
loop_
_symmetry_equiv_pos_as_xyz
  x,y,z
_cell_length_a	14.971482
_cell_length_b	15.995350
_cell_length_c	14.048226
_cell_angle_alpha	89.995798
_cell_angle_beta	89.994098
_cell_angle_gamma	83.552491
loop_
_atom_site_label
_atom_site_type_symbol
_atom_site_fract_x
_atom_site_fract_y
_atom_site_fract_z
O1	O	1.186824	0.109101	-0.079143
O2	O	0.926409	0.122172	-0.079147
O3	O	1.063735	-0.006244	-0.079144
O4	O	1.049498	0.237517	-0.079146
O5	O	1.063719	-0.006252	0.079177
O6	O	0.926392	0.122164	0.079174
O7	O	1.186808	0.109094	0.079178
Zn8	Zn	1.056598	0.115628	0.104313
Zn9	Zn	1.056619	0.115638	-0.104282
O10	O	1.049482	0.237510	0.079175
C11	C	0.893077	0.121584	0.000013
C12	C	0.793781	0.119834	0.000011
C13	C	0.747129	0.119006	0.086313
C14	C	0.653832	0.117348	0.086314
C15	C	0.607189	0.116525	0.000012
C16	C	0.653849	0.117351	-0.086297
C17	C	0.747144	0.119002	-0.086297
C18	C	0.459391	0.113910	-0.086291
C19	C	0.366088	0.112260	-0.086291
C20	C	0.366078	0.112256	0.086320
C21	C	0.459374	0.113907	0.086320
C22	C	0.506027	0.114735	0.000011
C23	C	1.063138	-0.037443	0.000014
C24	C	1.061374	-0.130395	0.000009
C25	C	1.055037	-0.468149	0.000012
C26	C	0.957235	-0.420812	-0.000345
C27	C	0.959000	-0.324120	0.000012
C28	C	1.058180	-0.300585	0.000010
C29	C	1.106410	-0.341620	0.090418
C30	C	1.103953	-0.438258	0.090494
C31	C	1.105992	-0.438605	-0.089547
C32	C	1.105969	-0.341660	-0.090742
C33	C	1.059962	-0.205886	0.000012
C34	C	1.053258	-0.562849	0.000016
C35	C	1.220140	0.109682	0.000016
C36	C	1.319436	0.111432	0.000011
C37	C	1.050078	0.268709	0.000014
C38	C	1.051843	0.361661	0.000013
N39	N	1.056589	0.115620	0.246673
N40	N	1.056635	0.115638	-0.246643
C41	C	1.117416	0.058781	0.296493
C42	C	1.117422	0.058781	0.396150
C43	C	1.056605	0.115624	0.445987
C44	C	0.995771	0.172466	0.396161
C45	C	0.995762	0.172462	0.296505
C46	C	0.995797	0.172472	0.603875
C47	C	0.995808	0.172477	0.703538
C48	C	1.117458	0.058791	0.703521
C49	C	1.117448	0.058787	0.603865
C50	C	1.056615	0.115630	0.554045
H51	H	0.785128	0.119678	-0.156573
H52	H	1.166975	0.012505	0.563288
Br53	Br	0.590519	0.116238	0.203443
Br54	Br	0.522674	0.115038	0.203445
Br55	Br	0.302765	0.111137	0.203454
Br56	Br	0.892087	-0.451753	-0.108408
Br57	Br	1.045309	-0.468829	0.203134
H58	H	1.179274	-0.327422	0.093779
H59	H	0.946283	0.218764	0.744109
Br60	Br	0.522706	0.115028	-0.203425
Br61	Br	0.302787	0.111143	-0.203416
Br62	Br	1.226177	-0.491422	-0.090565
H63	H	0.615865	0.116674	-0.156565
H64	H	0.921088	-0.295732	-0.064796
Br65	Br	1.223626	-0.491894	0.097340
Br66	Br	0.892172	-0.453937	0.106783
Br67	Br	0.895357	-0.277736	0.108209
Br68	Br	1.050559	-0.294380	0.202561
Br69	Br	1.052700	-0.472874	-0.203760
H70	H	1.070707	-0.314443	-0.157623
H71	H	1.178296	-0.326226	-0.096202
Br72	Br	0.913232	0.249614	0.536266
Br73	Br	1.199966	-0.018361	0.228868
H74	H	1.166952	0.012498	0.436713
H75	H	1.166990	0.012508	0.744089
H76	H	0.946229	0.218745	0.255943
Br77	Br	0.810420	0.120131	0.203444
Br78	Br	0.913224	0.249606	0.463792
