data_functionalizedCrystal
_audit_creation_method	'MofGen! by Chris Wilmer'
_symmetry_space_group_name_H-M	'P1'
_symmetry_Int_Tables_number	1
_symmetry_cell_setting	triclinic
loop_
_symmetry_equiv_pos_as_xyz
  x,y,z
_cell_length_a	12.759401
_cell_length_b	21.295417
_cell_length_c	12.759393
_cell_angle_alpha	89.962952
_cell_angle_beta	89.979062
_cell_angle_gamma	90.031227
loop_
_atom_site_label
_atom_site_type_symbol
_atom_site_fract_x
_atom_site_fract_y
_atom_site_fract_z
Zn1	Zn	1.606157	-0.250553	-0.593972
Zn2	Zn	1.606002	-0.355835	-0.418272
Zn3	Zn	1.430456	-0.250587	-0.418307
Zn4	Zn	1.430401	-0.355791	-0.593909
O5	O	1.518254	-0.303192	-0.506115
O6	O	1.753157	-0.264523	-0.570677
O7	O	1.582673	-0.341906	-0.271256
O8	O	1.453850	-0.162493	-0.441651
O9	O	1.753043	-0.341874	-0.441591
O10	O	1.582937	-0.162468	-0.570711
O11	O	1.453700	-0.264581	-0.271282
O12	O	1.283427	-0.264538	-0.441590
O13	O	1.453758	-0.341799	-0.740939
O14	O	1.283388	-0.341831	-0.570604
O15	O	1.582885	-0.264481	-0.740985
O16	O	1.582621	-0.443919	-0.441530
O17	O	1.453608	-0.443886	-0.570570
C18	C	1.245287	-0.303184	-0.506095
C19	C	1.128510	-0.303196	-0.506111
C20	C	1.073655	-0.343504	-0.573182
C21	C	0.963931	-0.343506	-0.573203
C22	C	0.963927	-0.262891	-0.439071
C23	C	1.073649	-0.262886	-0.439057
C24	C	1.518120	-0.466743	-0.506062
C25	C	1.518159	-0.536711	-0.506075
C26	C	1.585336	-0.569508	-0.573324
C27	C	1.585373	-0.635250	-0.573350
C28	C	1.518244	-0.668194	-0.506108
C29	C	1.451054	-0.635389	-0.438853
C30	C	1.451011	-0.569648	-0.438837
N31	N	1.510303	-0.771462	-0.414161
N32	N	1.510350	-0.833913	-0.414180
C33	C	1.518367	-0.866268	-0.506155
N34	N	1.526356	-0.833813	-0.598113
N35	N	1.526315	-0.771356	-0.598093
C36	C	1.518282	-0.739479	-0.506119
C37	C	1.585588	-0.970351	-0.573439
C38	C	1.585617	-1.036094	-0.573466
C39	C	1.451304	-1.036232	-0.438960
C40	C	1.451269	-0.970489	-0.438942
C41	C	1.518416	-0.937553	-0.506180
C42	C	1.792287	-0.303200	-0.506137
C43	C	1.909064	-0.303203	-0.506146
C44	C	1.518333	-0.303131	-0.780149
C45	C	1.518366	-0.303105	-0.896926
C46	C	1.518417	-0.139001	-0.506192
C47	C	1.518486	-0.069033	-0.506224
C48	C	1.585607	-0.262839	-0.951813
C49	C	1.585625	-0.262812	-1.061537
C50	C	1.451157	-0.343322	-1.061477
C51	C	1.451135	-0.343346	-0.951754
C52	C	1.518236	-0.303206	-0.233148
C53	C	1.518406	-0.303055	-0.116372
H54	H	0.919245	-0.230073	-0.384477
O55	O	1.132823	-0.386965	-0.645531
H56	H	1.218337	-0.380191	-0.634255
H57	H	1.396372	-0.376135	-0.907064
H58	H	1.118313	-0.230058	-0.384438
O59	O	1.378647	-0.670915	-0.366325
H60	H	1.396696	-0.658318	-0.283883
O61	O	0.904830	-0.387016	-0.645540
H62	H	0.854887	-0.358921	-0.699140
O63	O	1.378893	-1.071754	-0.366435
H64	H	1.396943	-1.059161	-0.283992
O65	O	1.657830	-0.670631	-0.645893
H66	H	1.646570	-0.721879	-0.634613
H67	H	1.640009	-0.542693	-0.628076
H68	H	1.396306	-0.542944	-0.384073
O69	O	1.657997	-0.934818	-0.645962
H70	H	1.704706	-0.968672	-0.692744
H71	H	1.640321	-1.062796	-0.628234
O72	O	1.378829	-0.935114	-0.366384
H73	H	1.296369	-0.947772	-0.384319
O74	O	1.658108	-0.219435	-0.892671
H75	H	1.704861	-0.191427	-0.949276
H76	H	1.396423	-0.376086	-1.106132
O77	O	1.658155	-0.219387	-1.120742
H78	H	1.704903	-0.191415	-1.064179
