data_functionalizedCrystal
_audit_creation_method	'MofGen! by Chris Wilmer'
_symmetry_space_group_name_H-M	'P1'
_symmetry_Int_Tables_number	1
_symmetry_cell_setting	triclinic
loop_
_symmetry_equiv_pos_as_xyz
  x,y,z
_cell_length_a	14.519731
_cell_length_b	17.699083
_cell_length_c	16.176319
_cell_angle_alpha	89.994467
_cell_angle_beta	89.995132
_cell_angle_gamma	96.514066
loop_
_atom_site_label
_atom_site_type_symbol
_atom_site_fract_x
_atom_site_fract_y
_atom_site_fract_z
O1	O	-1.223434	0.099278	0.068769
O2	O	-0.954910	0.110945	0.068767
O3	O	-1.096759	-0.005056	0.068761
O4	O	-1.081586	0.215278	0.068775
O5	O	-1.096745	-0.005034	-0.068732
O6	O	-0.954897	0.110966	-0.068727
O7	O	-1.223420	0.099299	-0.068724
Cu8	Cu	-1.089157	0.105134	-0.081279
Cu9	Cu	-1.089173	0.105110	0.081322
O10	O	-1.081572	0.215300	-0.068718
C11	C	-0.920546	0.110409	0.000020
C12	C	-0.818173	0.108771	0.000018
C13	C	-1.096208	-0.033244	0.000014
C14	C	-1.094577	-0.117266	0.000014
C15	C	-0.735035	0.107440	0.000020
C16	C	-0.630733	0.105776	0.000019
C17	C	-0.547599	0.104456	0.000017
C18	C	-0.443291	0.102793	0.000017
C19	C	-1.177839	-0.165644	0.000014
C20	C	-1.176301	-0.244592	0.000021
C21	C	-1.091500	-0.275161	0.000022
C22	C	-1.008232	-0.226777	0.000025
C23	C	-1.009771	-0.147831	0.000024
C24	C	-1.002023	-0.545158	0.000032
C25	C	-1.000491	-0.624111	0.000031
C26	C	-1.168554	-0.641919	0.000029
C27	C	-1.170093	-0.562973	0.000027
C28	C	-1.086825	-0.514596	0.000035
C29	C	-1.088493	-0.428992	0.000028
C30	C	-1.089830	-0.360763	0.000023
C31	C	-0.257784	0.099835	0.000021
C32	C	-0.360158	0.101473	0.000016
C33	C	-1.082123	0.243488	0.000031
C34	C	-1.083754	0.327510	0.000036
N35	N	-1.089153	0.105151	-0.195645
C36	C	-1.033358	0.059082	-0.761038
C37	C	-1.033356	0.059088	-0.674491
C38	C	-1.089177	0.105103	-0.631220
C39	C	-1.145011	0.151109	-0.674500
C40	C	-1.145017	0.151099	-0.761046
C41	C	-1.144988	0.151152	-0.325472
C42	C	-1.144976	0.151160	-0.238920
C43	C	-1.033327	0.059141	-0.238917
C44	C	-1.033333	0.059131	-0.325463
C45	C	-1.089170	0.105134	-0.368736
C46	C	-1.089173	0.105126	-0.462580
C47	C	-1.089170	0.105116	-0.537377
N48	N	-1.089185	0.105087	0.195688
H49	H	-1.246894	-0.140761	0.000007
Br50	Br	-1.281563	-0.707577	0.000020
Br51	Br	-0.957548	-0.003294	-0.180186
H52	H	-0.931431	-0.648996	0.000031
Br53	Br	-1.220736	0.213616	-0.180195
H54	H	-1.239146	-0.538088	0.000022
Br55	Br	-0.889017	-0.479514	0.000047
Br56	Br	-1.289305	-0.310245	0.000021
H57	H	-1.190454	0.188611	-0.360694
Br58	Br	-0.896768	-0.082174	0.000031
Br59	Br	-0.893143	-0.268262	0.000041
Br60	Br	-0.957589	-0.003364	-0.819755
Br61	Br	-0.957557	-0.003325	-0.615765
Br62	Br	-1.220793	0.213529	-0.819776
H63	H	-0.987875	0.021664	-0.360690
Br64	Br	-1.220777	0.213553	-0.615776
