data_functionalizedCrystal
_audit_creation_method	'MofGen! by Chris Wilmer'
_symmetry_space_group_name_H-M	'P1'
_symmetry_Int_Tables_number	1
_symmetry_cell_setting	triclinic
loop_
_symmetry_equiv_pos_as_xyz
  x,y,z
_cell_length_a	13.339070
_cell_length_b	27.732048
_cell_length_c	12.376457
_cell_angle_alpha	101.176348
_cell_angle_beta	75.589755
_cell_angle_gamma	99.135974
loop_
_atom_site_label
_atom_site_type_symbol
_atom_site_fract_x
_atom_site_fract_y
_atom_site_fract_z
O1	O	1.358025	0.235161	-0.094094
O2	O	1.063992	0.203422	-0.094081
O3	O	1.220136	0.150154	-0.094066
O4	O	1.201881	0.288430	-0.094108
O5	O	1.181114	0.163448	0.093942
O6	O	1.024970	0.216716	0.093928
O7	O	1.319003	0.248455	0.093915
Zn8	Zn	1.165791	0.234696	0.123772
Zn9	Zn	1.217204	0.217181	-0.123938
O10	O	1.162859	0.301723	0.093900
C11	C	1.006875	0.204708	-0.000074
C12	C	0.894822	0.188727	-0.000068
C13	C	0.528098	0.312985	-0.000124
C14	C	0.633378	0.328001	-0.000133
C15	C	0.698744	0.293184	-0.000117
C16	C	0.658820	0.243348	-0.000092
C17	C	0.553531	0.228330	-0.000092
C18	C	0.724177	0.208529	-0.000084
C19	C	0.684253	0.158693	-0.000059
C20	C	0.578975	0.143677	-0.000058
C21	C	0.513609	0.178494	-0.000075
C22	C	0.829466	0.223547	-0.000084
C23	C	0.854899	0.138891	-0.000052
C24	C	0.749619	0.123875	-0.000042
C25	C	1.200241	0.138741	-0.000059
C26	C	1.199085	0.084928	-0.000049
C27	C	1.284103	-0.242187	-0.000111
C28	C	1.279823	-0.444437	-0.000127
O29	O	1.357565	-0.464994	-0.000180
N30	N	1.187233	-0.476309	-0.000122
C31	C	1.095708	-0.457617	-0.000120
O32	O	1.016858	-0.489367	-0.000127
C33	C	1.099990	-0.255368	-0.000112
C34	C	1.192584	-0.223497	-0.000106
C35	C	1.376689	-0.210317	-0.000106
C36	C	1.377757	-0.159757	-0.000096
C37	C	1.286238	-0.141067	-0.000091
C38	C	1.193652	-0.172937	-0.000096
C39	C	1.008468	-0.236676	-0.000119
C40	C	1.009548	-0.186111	-0.000120
C41	C	1.102141	-0.154240	-0.000114
C42	C	1.103201	-0.103687	-0.000081
N43	N	1.195791	-0.071815	-0.000086
C44	C	1.287310	-0.090505	-0.000091
C45	C	1.093465	-0.563800	-0.000122
C46	C	1.092394	-0.614362	-0.000121
C47	C	1.276510	-0.601179	-0.000130
C48	C	1.277578	-0.550616	-0.000122
C49	C	1.186055	-0.531928	-0.000127
C50	C	1.289545	0.015674	-0.000069
C51	C	1.290603	0.066238	-0.000054
C52	C	1.106489	0.053051	-0.000051
C53	C	1.105429	0.002491	-0.000060
C54	C	1.196966	-0.016195	-0.000073
O55	O	1.025503	-0.083098	-0.000041
O56	O	1.366153	-0.058748	-0.000109
C57	C	1.283035	-0.292747	-0.000121
C58	C	1.190449	-0.324617	-0.000126
C59	C	1.098930	-0.305927	-0.000121
C60	C	1.189377	-0.375179	-0.000126
C61	C	1.280896	-0.393869	-0.000131
C62	C	1.373486	-0.361997	-0.000136
C63	C	1.374554	-0.311437	-0.000126
C64	C	1.006340	-0.337799	-0.000116
C65	C	1.005279	-0.388358	-0.000125
C66	C	1.096798	-0.407048	-0.000130
C67	C	1.376121	0.247169	-0.000094
C68	C	1.488175	0.263150	-0.000107
C69	C	1.182754	0.313136	-0.000110
C70	C	1.183912	0.366948	-0.000126
N71	N	1.130710	0.246650	0.292827
N72	N	1.252293	0.205224	-0.292993
C73	C	1.333726	0.177465	0.647831
C74	C	1.358274	0.169097	0.529493
C75	C	1.301385	0.188485	0.470321
C76	C	1.219945	0.216241	0.529497
C77	C	1.195400	0.224613	0.647847
C78	C	1.163058	0.235633	0.470337
C79	C	1.081618	0.263390	0.529513
C80	C	1.057077	0.271760	0.647851
C81	C	1.113967	0.252372	0.707023
C82	C	1.187603	0.227261	0.351987
C83	C	1.049277	0.274410	0.352003
C84	C	1.024729	0.282777	0.470341
H85	H	0.861960	0.264124	-0.000100
O86	O	1.089953	0.260529	0.821980
C87	C	0.978871	0.298431	0.991816
C88	C	1.005939	0.289224	0.861629
H89	H	0.910958	0.321640	1.023912
H90	H	0.956135	0.261491	1.024017
H91	H	1.049543	0.319007	1.023901
H92	H	0.935308	0.268664	0.829448
H93	H	1.028716	0.326179	0.829506
H94	H	1.424582	0.146499	0.481316
H95	H	0.784467	0.305413	-0.000127
O96	O	0.918251	0.104998	-0.000083
C97	C	0.932363	0.019453	0.000014
C98	C	0.860500	0.057779	0.000028
H99	H	0.885695	-0.018731	0.000127
H100	H	0.998610	0.018767	-0.078684
H101	H	0.965978	0.029960	0.078679
H102	H	0.826810	0.047299	-0.078583
H103	H	0.794311	0.058457	0.078778
H104	H	0.665878	0.368577	-0.000163
O105	O	0.464759	0.346862	-0.000197
C106	C	0.450614	0.432415	-0.000176
C107	C	0.522466	0.394096	-0.000115
H108	H	0.497237	0.470614	-0.000085
H109	H	0.417051	0.421968	-0.078880
H110	H	0.384333	0.433033	0.078482
H111	H	0.588801	0.393458	-0.078719
H112	H	0.555950	0.404558	0.078642
O113	O	0.540351	0.095251	0.000009
C114	C	0.576705	0.012865	-0.000023
C115	C	0.620574	0.067693	-0.000074
H116	H	0.641549	-0.009433	-0.000114
H117	H	0.511749	0.009256	0.078678
H118	H	0.544345	-0.001823	-0.078685
H119	H	0.652990	0.082416	0.078535
H120	H	0.685483	0.071269	-0.078827
O121	O	0.945561	0.309733	0.527656
C122	C	0.810983	0.355637	0.515192
C123	C	0.900599	0.325110	0.450143
H124	H	0.774619	0.368087	0.452552
H125	H	0.749330	0.331964	0.570584
H126	H	0.842708	0.389491	0.570612
H127	H	0.868969	0.291254	0.394662
H128	H	0.962236	0.348818	0.394823
H129	H	1.018931	-0.548590	-0.000125
H130	H	0.933070	-0.262618	-0.000131
H131	H	0.427880	0.166270	-0.000067
H132	H	0.717100	0.083297	-0.000031
O133	O	1.467805	-0.128874	-0.000150
C134	C	1.650294	-0.121150	-0.000097
C135	C	1.548386	-0.156177	-0.000059
H136	H	1.715466	-0.143208	-0.000000
H137	H	1.671808	-0.102717	-0.078797
H138	H	1.639027	-0.091581	0.078566
H139	H	1.559573	-0.185772	-0.078669
H140	H	1.526905	-0.174573	0.078692
O141	O	0.920536	-0.168036	-0.000074
C142	C	0.737825	-0.186458	-0.000153
C143	C	0.838548	-0.206990	-0.000181
H144	H	0.671516	-0.217944	-0.000264
H145	H	0.717308	-0.157577	0.078549
H146	H	0.750108	-0.168655	-0.078813
H147	H	0.826343	-0.224819	0.078426
H148	H	0.859033	-0.235848	-0.078935
H149	H	1.030025	-0.023457	-0.000034
O150	O	1.465614	-0.228504	-0.000309
C151	C	1.591472	-0.284829	-0.097666
C152	C	1.490766	-0.264274	-0.097601
H153	H	1.611827	-0.313760	-0.176305
H154	H	1.657873	-0.253381	-0.097737
H155	H	1.579229	-0.302587	-0.018947
H156	H	1.502907	-0.246521	-0.176307
H157	H	1.424400	-0.295740	-0.097471
O158	O	1.389128	0.158693	0.705253
C159	C	1.557602	0.156547	0.741376
C160	C	1.494976	0.177857	0.676299
H161	H	1.643194	0.172024	0.717972
H162	H	1.526159	0.167309	0.836137
H163	H	1.549817	0.114499	0.718135
H164	H	1.502734	0.219906	0.699444
H165	H	1.526434	0.167056	0.581553
O166	O	1.367492	-0.519621	-0.000277
C167	C	1.495817	-0.461798	-0.097726
C168	C	1.393966	-0.496870	-0.097674
H169	H	1.517264	-0.443402	-0.176475
H170	H	1.484624	-0.432206	-0.019101
H171	H	1.561009	-0.483853	-0.097672
H172	H	1.328723	-0.474857	-0.097768
H173	H	1.405245	-0.526462	-0.176292
H174	H	1.366007	0.092186	-0.000046
O175	O	1.325329	0.180290	0.355369
C176	C	1.436488	0.142432	0.185536
C177	C	1.409465	0.151669	0.315723
H178	H	1.504527	0.119300	0.153443
H179	H	1.365895	0.121801	0.153372
H180	H	1.459090	0.179390	0.153412
H181	H	1.386885	0.114734	0.347944
H182	H	1.480079	0.172322	0.347811
O183	O	1.002367	-0.645252	-0.000165
C184	C	0.819852	-0.652973	-0.000096
C185	C	0.921742	-0.617938	-0.000065
H186	H	0.754635	-0.630902	0.000009
H187	H	0.831009	-0.682525	-0.078797
H188	H	0.798469	-0.671427	0.078565
H189	H	0.943182	-0.599449	-0.078673
H190	H	0.910531	-0.588416	0.078688
O191	O	0.977846	0.298656	0.705284
C192	C	0.794372	0.305910	0.741475
C193	C	0.883999	0.275397	0.676387
H194	H	0.718479	0.287123	0.718118
H195	H	0.786510	0.308554	0.836235
H196	H	0.811797	0.344668	0.718199
H197	H	0.866640	0.236624	0.699568
H198	H	0.891838	0.272793	0.581643
H199	H	1.031976	0.068278	-0.000043
H200	H	1.364084	0.000466	-0.000084
H201	H	1.449953	-0.285492	-0.000122
H202	H	1.002954	0.290198	0.303826
H203	H	1.351028	-0.616405	-0.000134
H204	H	1.448003	-0.377222	-0.000135
O205	O	0.917397	-0.319717	-0.000255
C206	C	0.780594	-0.322380	-0.097665
C207	C	0.881310	-0.342905	-0.097644
H208	H	0.751400	-0.341112	-0.176407
H209	H	0.718608	-0.330038	-0.019034
H210	H	0.797257	-0.280764	-0.097601
H211	H	0.864748	-0.384524	-0.097748
H212	H	0.943265	-0.335209	-0.176268
H213	H	0.929871	-0.414304	-0.000120
H214	H	1.253912	0.204662	0.303816
