data_functionalizedCrystal
_audit_creation_method	'MofGen! by Chris Wilmer'
_symmetry_space_group_name_H-M	'P1'
_symmetry_Int_Tables_number	1
_symmetry_cell_setting	triclinic
loop_
_symmetry_equiv_pos_as_xyz
  x,y,z
_cell_length_a	17.640112
_cell_length_b	13.897448
_cell_length_c	17.639477
_cell_angle_alpha	78.759262
_cell_angle_beta	114.276174
_cell_angle_gamma	101.242525
loop_
_atom_site_label
_atom_site_type_symbol
_atom_site_fract_x
_atom_site_fract_y
_atom_site_fract_z
Zn1	Zn	1.165549	-0.043924	-0.211674
Zn2	Zn	1.665549	0.456076	0.288326
Zn3	Zn	1.193320	-0.232378	-0.073889
Zn4	Zn	1.693320	0.267622	0.426111
Zn5	Zn	1.055609	-0.098247	-0.101698
Zn6	Zn	1.555609	0.401753	0.398302
Zn7	Zn	1.027743	-0.232359	-0.239450
Zn8	Zn	1.527743	0.267641	0.260550
O9	O	1.110555	-0.151727	-0.156678
O10	O	1.610555	0.348273	0.343322
O11	O	1.284538	-0.046196	-0.170134
O12	O	1.784538	0.453804	0.329866
O13	O	1.198337	-0.237327	0.037735
O14	O	1.698337	0.262673	0.537735
O15	O	1.070232	0.043954	-0.116300
O16	O	1.570232	0.543954	0.383700
O17	O	1.304941	-0.184652	-0.068904
O18	O	1.804941	0.315348	0.431096
O19	O	1.151005	0.083865	-0.197099
O20	O	1.651005	0.583865	0.302901
O21	O	1.097161	-0.138782	0.017304
O22	O	1.597161	0.361218	0.517304
O23	O	0.936607	-0.138764	-0.143234
O24	O	1.436607	0.361236	0.356766
O25	O	1.022738	-0.184620	-0.351079
O26	O	1.522738	0.315380	0.148921
O27	O	0.916134	-0.237295	-0.244440
O28	O	1.416134	0.262705	0.255560
O29	O	1.123984	-0.046178	-0.330671
O30	O	1.623984	0.453822	0.169329
O31	O	1.171316	-0.367370	-0.095838
O32	O	1.671316	0.132630	0.404162
O33	O	1.049667	-0.367356	-0.217475
O34	O	1.549667	0.132644	0.282525
C35	C	0.896473	-0.193923	-0.199869
C36	C	1.396473	0.306077	0.300131
C37	C	0.804884	-0.211994	-0.218366
C38	C	1.304884	0.288006	0.281634
C39	C	0.556760	-0.014425	-0.016165
C40	C	1.056760	0.485575	0.483835
C41	C	0.470696	-0.031423	-0.033557
C42	C	0.970696	0.468577	0.466443
C43	C	0.449468	-0.134230	-0.138761
C44	C	0.949468	0.365770	0.361239
C45	C	0.535532	-0.117237	-0.121381
C46	C	1.035532	0.382763	0.378619
C47	C	0.589171	-0.057335	-0.060081
C48	C	1.089171	0.442665	0.439919
C49	C	0.567943	-0.160146	-0.165297
C50	C	1.067943	0.339854	0.334703
C51	C	0.654000	-0.143158	-0.147915
C52	C	1.154000	0.356842	0.352085
C53	C	0.707645	-0.083261	-0.086617
C54	C	1.207645	0.416739	0.413383
C55	C	0.675228	-0.040347	-0.042699
C56	C	1.175228	0.459653	0.457301
C57	C	0.514303	-0.220053	-0.226592
C58	C	1.014303	0.279947	0.273408
C59	C	0.546714	-0.262962	-0.270508
C60	C	1.046714	0.237038	0.229492
C61	C	0.632771	-0.245969	-0.253130
C62	C	1.132771	0.254031	0.246870
C63	C	0.686416	-0.186072	-0.191832
C64	C	1.186416	0.313928	0.308168
C65	C	0.665188	-0.288883	-0.297048
C66	C	1.165188	0.211117	0.202952
C67	C	0.751245	-0.271896	-0.279666
C68	C	1.251245	0.228104	0.220334
C69	C	0.772473	-0.169085	-0.174450
C70	C	1.272473	0.330915	0.325550
C71	C	1.110500	-0.402358	-0.156666
C72	C	1.610500	0.097642	0.343334
C73	C	1.110546	-0.509558	-0.156673
C74	C	1.610546	-0.009558	0.343327
C75	C	1.110622	-0.705826	-0.156708
C76	C	1.610622	-0.205826	0.343292
C77	C	1.110577	-0.596609	-0.156692
C78	C	1.610577	-0.096609	0.343308
C79	C	1.325473	-0.109367	-0.113318
C80	C	1.825473	0.390633	0.386682
C81	C	1.417058	-0.091315	-0.094841
C82	C	1.917058	0.408685	0.405159
C83	C	1.067155	-0.109338	-0.371610
C84	C	1.567155	0.390662	0.128390
C85	C	1.048661	-0.091274	-0.463202
C86	C	1.548661	0.408726	0.036798
C87	C	1.110629	0.099891	-0.156703
C88	C	1.610629	0.599891	0.343297
C89	C	1.110661	0.207115	-0.156714
C90	C	1.610661	0.707115	0.343286
C91	C	1.251231	-0.288401	-0.711221
C92	C	1.751231	0.211599	-0.211221
C93	C	1.233842	-0.271418	-0.797287
C94	C	1.733842	0.228582	-0.297287
C95	C	1.128495	-0.168810	-0.818560
C96	C	1.628495	0.331190	-0.318560
C97	C	1.145872	-0.185787	-0.732494
C98	C	1.645872	0.314213	-0.232494
C99	C	1.207241	-0.245583	-0.678831
C100	C	1.707241	0.254417	-0.178831
C101	C	1.101882	-0.142970	-0.700104
C102	C	1.601882	0.357030	-0.200104
C103	C	1.119261	-0.159942	-0.614046
C104	C	1.619261	0.340058	-0.114046
C105	C	1.180630	-0.219732	-0.560377
C106	C	1.680630	0.280268	-0.060377
C107	C	1.224620	-0.262555	-0.592772
C108	C	1.724620	0.237445	-0.092772
C109	C	1.040517	-0.083169	-0.753768
C110	C	1.540517	0.416831	-0.253768
C111	C	0.996528	-0.040351	-0.721378
C112	C	1.496528	0.459649	-0.221378
C113	C	1.013902	-0.057329	-0.635319
C114	C	1.513902	0.442671	-0.135319
C115	C	1.075271	-0.117119	-0.581650
C116	C	1.575271	0.382881	-0.081650
C117	C	0.969912	-0.014506	-0.602923
C118	C	1.469912	0.485494	-0.102923
C119	C	0.987291	-0.031478	-0.516865
C120	C	1.487291	0.468522	-0.016865
C121	C	1.092650	-0.134092	-0.495592
C122	C	1.592650	0.365908	0.004408
C123	C	1.153834	-0.193872	0.057428
C124	C	1.653834	0.306128	0.557428
C125	C	1.172488	-0.211633	0.149051
C126	C	1.672488	0.288367	0.649051
H127	H	0.777718	-0.069433	-0.072464
H128	H	1.277718	0.430567	0.427536
H129	H	0.444311	0.003531	0.002204
H130	H	0.944311	0.503531	0.502204
C131	C	1.060991	-0.103042	-0.877593
C132	C	1.560991	0.396958	-0.377593
H133	H	1.056936	-0.099070	-0.933486
H134	H	1.556936	0.400930	-0.433486
H135	H	1.075911	-0.038631	-0.861063
H136	H	1.575911	0.461369	-0.361063
H137	H	1.008471	-0.130867	-0.874657
H138	H	1.508471	0.369133	-0.374657
C139	C	0.929024	0.025418	-0.780408
C140	C	1.429024	0.525418	-0.280408
H141	H	0.905318	0.048492	-0.748789
H142	H	1.405318	0.548492	-0.248789
H143	H	0.886335	-0.011939	-0.821219
H144	H	1.386335	0.488061	-0.321219
H145	H	0.953780	0.080292	-0.807621
H146	H	1.453780	0.580292	-0.307621
H147	H	1.026373	-0.069347	-0.823841
H148	H	1.526373	0.430653	-0.323841
H149	H	1.269669	-0.306288	-0.823654
H150	H	1.769669	0.193712	-0.323654
C151	C	0.902414	0.051271	-0.661953
C152	C	1.402414	0.551271	-0.161953
H153	H	0.878708	0.074347	-0.630336
H154	H	1.378708	0.574347	-0.130336
H155	H	0.859724	0.013920	-0.702769
H156	H	1.359724	0.513920	-0.202769
H157	H	0.927178	0.106143	-0.689162
H158	H	1.427178	0.606143	-0.189162
C159	C	0.390461	-0.200113	-0.206189
C160	C	0.890461	0.299887	0.293811
H161	H	0.334565	-0.204080	-0.210256
H162	H	0.834565	0.295920	0.289744
H163	H	0.407010	-0.264515	-0.191194
H164	H	0.907010	0.235485	0.308806
H165	H	0.393394	-0.172371	-0.258726
H166	H	0.893394	0.327629	0.241274
C167	C	0.938891	0.015601	-0.481235
C168	C	1.438891	0.515601	0.018765
H169	H	0.899844	0.053630	-0.525522
H170	H	1.399844	0.553630	-0.025522
H171	H	0.977193	0.057225	-0.441305
H172	H	1.477193	0.557225	0.058695
H173	H	0.909760	-0.035019	-0.454909
H174	H	1.409760	0.464981	0.045091
H175	H	0.816148	-0.120290	-0.124546
H176	H	1.316148	0.379710	0.375454
H177	H	0.600435	0.034370	0.033739
H178	H	1.100435	0.534370	0.533739
C179	C	0.734235	0.025560	0.024718
C180	C	1.234235	0.525560	0.524718
H181	H	0.702608	0.048686	0.048386
H182	H	1.202608	0.548686	0.548386
H183	H	0.761434	0.080382	-0.000093
H184	H	1.261434	0.580382	0.499907
H185	H	0.775058	-0.011741	0.067462
H186	H	1.275058	0.488259	0.567462
H187	H	0.444230	-0.233883	-0.240742
H188	H	0.944230	0.266117	0.259258
H189	H	0.503030	-0.311738	-0.320416
H190	H	1.003030	0.188262	0.179584
H191	H	0.621503	-0.337663	-0.346951
H192	H	1.121503	0.162337	0.153049
H193	H	1.274601	-0.311236	-0.549075
H194	H	1.774601	0.188764	-0.049075
H195	H	1.142631	-0.182773	-0.451894
H196	H	1.642631	0.317227	0.048106
H197	H	0.777634	-0.306835	-0.315427
H198	H	1.277634	0.193165	0.184573
H199	H	1.194781	-0.233547	-0.490302
H200	H	1.694781	0.266453	0.009698
C201	C	1.318728	-0.354186	-0.652188
C202	C	1.818728	0.145814	-0.152188
H203	H	1.342440	-0.377260	-0.683802
H204	H	1.842440	0.122740	-0.183802
H205	H	1.293968	-0.409046	-0.624973
H206	H	1.793968	0.090954	-0.124973
H207	H	1.361425	-0.316827	-0.611377
H208	H	1.861425	0.183173	-0.111377
