data_functionalizedCrystal
_audit_creation_method	'MofGen! by Chris Wilmer'
_symmetry_space_group_name_H-M	'P1'
_symmetry_Int_Tables_number	1
_symmetry_cell_setting	triclinic
loop_
_symmetry_equiv_pos_as_xyz
  x,y,z
_cell_length_a	15.298206
_cell_length_b	13.897447
_cell_length_c	15.296720
_cell_angle_alpha	80.352969
_cell_angle_beta	69.221745
_cell_angle_gamma	80.357664
loop_
_atom_site_label
_atom_site_type_symbol
_atom_site_fract_x
_atom_site_fract_y
_atom_site_fract_z
Zn1	Zn	1.330658	-0.681644	0.279377
Zn2	Zn	1.357483	-0.819147	0.123880
Zn3	Zn	1.202071	-0.634130	0.150835
Zn4	Zn	1.175125	-0.819132	0.306300
O5	O	1.266334	-0.738513	0.215098
O6	O	1.464348	-0.719775	0.236202
O7	O	1.359370	-0.774726	-0.002683
O8	O	1.219178	-0.505463	0.167900
O9	O	1.484056	-0.820798	0.121959
O10	O	1.313651	-0.540371	0.262339
O11	O	1.245189	-0.638794	0.017121
O12	O	1.068365	-0.638780	0.194006
O13	O	1.173254	-0.820772	0.432867
O14	O	1.048568	-0.774700	0.308226
O15	O	1.287523	-0.719760	0.413087
O16	O	1.333242	-0.954115	0.148066
O17	O	1.199265	-0.954104	0.282089
C18	C	1.024725	-0.701583	0.256963
C19	C	0.921359	-0.685811	0.274895
C20	C	0.862527	-0.625914	0.342896
C21	C	0.765410	-0.611087	0.359746
C22	C	0.727114	-0.656161	0.308602
C23	C	0.785946	-0.716064	0.240604
C24	C	0.883074	-0.730887	0.223747
C25	C	0.747661	-0.761134	0.189452
C26	C	0.806493	-0.821038	0.121454
C27	C	0.903611	-0.835858	0.104600
C28	C	0.941906	-0.790784	0.155745
C29	C	0.650534	-0.746311	0.206309
C30	C	0.671081	-0.851284	0.087159
C31	C	0.768198	-0.866111	0.070309
C32	C	1.266262	-0.989113	0.215090
C33	C	1.266311	-1.096338	0.215102
C34	C	1.266352	-1.183418	0.215116
C35	C	1.266413	-1.292664	0.215128
C36	C	1.508887	-0.775588	0.173071
C37	C	1.612248	-0.791387	0.155161
C38	C	1.224390	-0.775565	0.457664
C39	C	1.206516	-0.791354	0.561031
C40	C	1.266428	-0.486942	0.215123
C41	C	1.266468	-0.379737	0.215133
C42	C	1.308168	-0.701544	-0.026533
C43	C	1.326222	-0.685511	-0.129931
C44	C	1.394116	-0.625502	0.811210
C45	C	1.410915	-0.610670	0.714091
C46	C	1.359817	-0.655839	0.675821
C47	C	1.291917	-0.715844	0.734681
C48	C	1.275121	-0.730684	0.831809
C49	C	1.240822	-0.761021	0.696419
C50	C	1.172921	-0.821026	0.755279
C51	C	1.156128	-0.835862	0.852397
C52	C	1.207227	-0.790693	0.890667
C53	C	1.257617	-0.746181	0.599291
C54	C	1.138622	-0.851363	0.619890
C55	C	1.121823	-0.866195	0.717009
H56	H	0.816112	-0.914886	0.014944
Cl57	Cl	1.064000	-0.809429	0.134570
Cl58	Cl	1.458354	-0.568736	0.859324
Cl59	Cl	1.496271	-0.535239	0.640103
H60	H	0.717515	-0.562314	0.415112
Cl61	Cl	1.342974	-0.670748	0.525309
Cl62	Cl	1.380934	-0.637188	0.553726
H63	H	0.639901	-0.887988	0.045514
H64	H	1.193553	-0.802766	0.969749
Cl65	Cl	1.070783	-0.911315	0.926388
Cl66	Cl	0.910675	-0.569252	0.407179
Cl67	Cl	1.036467	-0.941629	0.791014
H68	H	0.602642	-0.697535	0.261673
Cl69	Cl	0.605022	-0.637523	0.329789
H70	H	1.097015	-0.888145	0.588731
H71	H	0.951511	-0.884627	0.049224
