data_functionalizedCrystal
_audit_creation_method	'MofGen! by Chris Wilmer'
_symmetry_space_group_name_H-M	'P1'
_symmetry_Int_Tables_number	1
_symmetry_cell_setting	triclinic
loop_
_symmetry_equiv_pos_as_xyz
  x,y,z
_cell_length_a	16.109301
_cell_length_b	14.971486
_cell_length_c	14.586319
_cell_angle_alpha	89.995999
_cell_angle_beta	90.000787
_cell_angle_gamma	96.462195
loop_
_atom_site_label
_atom_site_type_symbol
_atom_site_fract_x
_atom_site_fract_y
_atom_site_fract_z
O1	O	1.103274	-0.114970	0.076183
O2	O	1.603274	0.385030	0.576183
O3	O	0.861230	-0.129278	0.076197
O4	O	1.361230	0.370722	0.576197
O5	O	0.988739	0.008085	0.076183
O6	O	1.488739	0.508085	0.576183
O7	O	0.975765	-0.252334	0.076197
O8	O	1.475765	0.247666	0.576197
O9	O	0.988731	0.008087	-0.076298
O10	O	1.488731	0.508087	0.423702
O11	O	0.861221	-0.129276	-0.076283
O12	O	1.361221	0.370724	0.423717
O13	O	1.103265	-0.114968	-0.076298
O14	O	1.603265	0.385032	0.423702
Cu15	Cu	0.982242	-0.122122	-0.090213
Cu16	Cu	1.482242	0.377878	0.409787
Cu17	Cu	0.982253	-0.122124	0.090113
Cu18	Cu	1.482253	0.377876	0.590113
O19	O	0.975756	-0.252332	-0.076284
O20	O	1.475756	0.247668	0.423716
C21	C	0.830250	-0.128698	-0.000041
C22	C	1.330250	0.371302	0.499959
C23	C	0.737952	-0.126960	-0.000036
C24	C	1.237952	0.373040	0.499964
C25	C	0.515777	-0.204428	-0.000042
C26	C	1.015777	0.295572	0.499958
C27	C	0.429054	-0.202789	-0.000048
C28	C	0.929054	0.297211	0.499952
C29	C	0.448725	-0.039812	-0.000053
C30	C	0.948725	0.460188	0.499947
C31	C	0.535446	-0.041452	-0.000054
C32	C	1.035446	0.458548	0.499946
C33	C	0.568969	-0.123763	-0.000044
C34	C	1.068969	0.376237	0.499956
C35	C	0.395526	-0.120483	-0.000049
C36	C	0.895526	0.379517	0.499951
C37	C	0.301498	-0.118705	-0.000055
C38	C	0.801498	0.381295	0.499945
C39	C	0.663003	-0.125542	-0.000039
C40	C	1.163003	0.374458	0.499961
C41	C	0.988155	0.041410	-0.000057
C42	C	1.488155	0.541410	0.499943
C43	C	0.986416	0.140705	-0.000056
C44	C	1.486416	0.640705	0.499944
C45	C	1.134245	-0.115549	-0.000057
C46	C	1.634245	0.384451	0.499943
C47	C	1.226543	-0.117286	-0.000057
C48	C	1.726543	0.382714	0.499943
C49	C	0.976340	-0.285657	-0.000042
C50	C	1.476340	0.214343	0.499958
C51	C	0.978079	-0.384951	-0.000037
C52	C	1.478079	0.115049	0.499963
N53	N	0.982241	-0.122120	-0.217045
N54	N	1.482241	0.377880	0.282955
C55	C	1.061324	0.198038	-0.000061
C56	C	1.561324	0.698038	0.499939
C57	C	1.059685	0.291335	-0.000052
C58	C	1.559685	0.791335	0.499948
C59	C	0.983137	0.327297	-0.000044
C60	C	1.483137	0.827297	0.499956
C61	C	0.908223	0.269956	-0.000036
C62	C	1.408223	0.769956	0.499964
C63	C	0.909863	0.176661	-0.000039
C64	C	1.409863	0.676661	0.499961
C65	C	0.904811	0.464414	-0.000032
C66	C	1.404811	0.964414	0.499968
C67	C	0.903171	0.557716	-0.000031
C68	C	1.403171	1.057716	0.499969
C69	C	1.054633	0.579088	-0.000046
C70	C	1.554633	1.079088	0.499954
C71	C	1.056273	0.485793	-0.000048
C72	C	1.556273	0.985793	0.499952
C73	C	0.981359	0.428458	-0.000042
C74	C	1.481359	0.928458	0.499958
C75	C	1.038721	-0.061316	-0.452058
C76	C	1.538721	0.438684	0.047942
C77	C	1.038723	-0.061314	-0.548039
C78	C	1.538723	0.438686	-0.048039
C79	C	0.925775	-0.182927	-0.548036
C80	C	1.425775	0.317073	-0.048036
C81	C	0.925769	-0.182924	-0.452056
C82	C	1.425769	0.317076	0.047944
C83	C	0.982247	-0.122119	-0.404070
C84	C	1.482247	0.377881	0.095930
C85	C	0.982255	-0.122120	-0.596031
C86	C	1.482255	0.377880	-0.096031
C87	C	0.982257	-0.122118	-0.700098
C88	C	1.482257	0.377882	-0.200098
C89	C	0.982244	-0.122120	-0.299996
C90	C	1.482244	0.377880	0.200004
N91	N	0.982261	-0.122120	0.216945
N92	N	1.482261	0.377880	0.716945
H93	H	0.421420	0.027203	-0.000067
H94	H	0.921420	0.527203	0.499933
H95	H	0.843807	0.417734	-0.000025
H96	H	1.343807	0.917734	0.499975
H97	H	1.084707	-0.011804	-0.412989
H98	H	1.584707	0.488196	0.087011
H99	H	1.084709	-0.011801	-0.587108
H100	H	1.584709	0.488199	-0.087108
H101	H	0.578758	0.024239	-0.000057
H102	H	1.078758	0.524239	0.499943
H103	H	1.123658	0.168766	-0.000073
H104	H	1.623658	0.668766	0.499927
H105	H	1.120683	0.338013	-0.000058
H106	H	1.620683	0.838013	0.499942
H107	H	0.848865	0.129980	-0.000034
H108	H	1.348865	0.629980	0.499966
H109	H	1.118605	0.456516	-0.000061
H110	H	1.618605	0.956516	0.499939
H111	H	0.879793	-0.232434	-0.587116
H112	H	1.379793	0.267566	-0.087116
H113	H	1.115632	0.625774	-0.000048
H114	H	1.615632	1.125774	0.499952
H115	H	0.385748	-0.268475	-0.000049
H116	H	0.885748	0.231525	0.499951
H117	H	0.840839	0.586992	-0.000040
H118	H	1.340839	1.086992	0.499960
H119	H	0.543068	-0.271451	-0.000041
H120	H	1.043068	0.228549	0.499959
H121	H	0.845896	0.299244	-0.000024
H122	H	1.345896	0.799244	0.499976
H123	H	0.879777	-0.232438	-0.412982
H124	H	1.379777	0.267562	0.087018
