data_functionalizedCrystal
_audit_creation_method	'MofGen! by Chris Wilmer'
_symmetry_space_group_name_H-M	'P1'
_symmetry_Int_Tables_number	1
_symmetry_cell_setting	triclinic
loop_
_symmetry_equiv_pos_as_xyz
  x,y,z
_cell_length_a	19.188905
_cell_length_b	14.472311
_cell_length_c	19.188924
_cell_angle_alpha	90.001488
_cell_angle_beta	96.861740
_cell_angle_gamma	90.013148
loop_
_atom_site_label
_atom_site_type_symbol
_atom_site_fract_x
_atom_site_fract_y
_atom_site_fract_z
O1	O	0.926156	0.076997	-0.087076
O2	O	0.722842	0.076966	-0.098829
O3	O	0.830369	0.076972	0.008704
O4	O	0.818630	0.076992	-0.194609
O5	O	0.830355	-0.076710	0.008690
O6	O	0.722828	-0.076716	-0.098843
O7	O	0.926142	-0.076685	-0.087090
Cu8	Cu	0.824484	-0.090733	-0.092968
Cu9	Cu	0.824501	0.091014	-0.092951
O10	O	0.818615	-0.076690	-0.194623
C11	C	0.696824	0.000121	-0.098458
C12	C	0.619318	0.000109	-0.097324
N13	N	0.824477	-0.218563	-0.092979
C14	C	0.824489	-0.407064	-0.092964
C15	C	0.766944	-0.446297	-0.150481
C16	C	0.766748	-0.553385	-0.150326
C17	C	0.824501	-0.592655	-0.092950
C18	C	0.809111	-0.553775	-0.020059
C19	C	0.808691	-0.446653	-0.020404
C20	C	0.897602	-0.446509	-0.107678
C21	C	0.897113	-0.553638	-0.109327
C22	C	0.824509	-0.697543	-0.092937
C23	C	0.824479	-0.302175	-0.092971
C24	C	0.582934	0.083883	-0.096772
C25	C	0.510111	0.083895	-0.095699
C26	C	0.473676	0.000127	-0.095164
C27	C	0.510068	-0.083659	-0.095720
C28	C	0.582889	-0.083668	-0.096800
N29	N	0.364651	-0.062217	-0.053741
N30	N	0.295474	-0.062203	-0.052714
C31	C	0.254269	0.000149	-0.091911
N32	N	0.284856	0.062500	-0.132167
N33	N	0.354040	0.062489	-0.133191
C34	C	0.394713	0.000127	-0.093993
C35	C	0.138922	0.083942	-0.090197
C36	C	0.066096	0.083949	-0.089128
C37	C	0.066056	-0.083606	-0.089142
C38	C	0.138879	-0.083612	-0.090218
C39	C	0.175308	0.000165	-0.090742
C40	C	0.952160	0.000162	-0.087461
C41	C	1.029666	0.000181	-0.088594
C42	C	0.829982	0.000130	0.034708
C43	C	0.828844	0.000127	0.112213
N44	N	0.824513	0.218845	-0.092934
C45	C	0.819002	0.000154	-0.220627
C46	C	0.820141	0.000162	-0.298132
C47	C	0.828320	0.083899	0.148619
C48	C	0.827240	0.083906	0.221442
C49	C	0.826698	0.000136	0.257857
C50	C	0.827218	-0.083647	0.221441
C51	C	0.828291	-0.083651	0.148619
N52	N	0.864740	-0.062206	0.377518
N53	N	0.863723	-0.062196	0.446696
C54	C	0.823464	0.000145	0.477266
N55	N	0.784270	0.062489	0.436045
N56	N	0.785291	0.062482	0.366861
C57	C	0.825534	0.000132	0.336821
C58	C	0.821768	0.083930	0.592635
C59	C	0.820684	0.083933	0.665458
C60	C	0.820669	-0.083622	0.665457
C61	C	0.821746	-0.083623	0.592634
C62	C	0.822299	0.000155	0.556228
H63	H	0.775838	-0.579674	-0.204506
F64	F	0.917092	-0.411196	-0.175676
H65	H	0.820254	0.152154	0.695099
H66	H	0.756426	-0.580636	-0.006777
F67	F	0.695825	-0.586921	-0.138024
H68	H	0.908796	-0.579035	-0.162954
H69	H	0.755387	-0.421695	-0.007446
H70	H	0.822178	-0.151840	0.562993
F71	F	0.828847	-0.172817	0.109871
H72	H	0.612591	0.152101	-0.097198
H73	H	0.036390	-0.151812	-0.088711
H74	H	0.941908	-0.580368	-0.070150
F75	F	0.820088	-0.172778	0.704208
H76	H	0.775874	-0.420540	-0.204847
F77	F	0.861424	-0.412724	0.037224
H78	H	0.712983	-0.419406	-0.141209
H79	H	0.940419	-0.421129	-0.065735
F80	F	0.822353	0.173093	0.553886
H81	H	0.612513	-0.151889	-0.097251
F82	F	0.177694	0.173102	-0.090759
H83	H	0.480398	-0.151863	-0.095287
H84	H	0.480481	0.152116	-0.095250
F85	F	0.027373	0.173119	-0.088546
H86	H	0.849936	-0.579208	0.023779
F87	F	0.177603	-0.172777	-0.090802
F88	F	0.828905	0.173065	0.109877
H89	H	0.826809	0.152126	0.251090
H90	H	0.826774	-0.151853	0.251095
