data_functionalizedCrystal
_audit_creation_method	'MofGen! by Chris Wilmer'
_symmetry_space_group_name_H-M	'P1'
_symmetry_Int_Tables_number	1
_symmetry_cell_setting	triclinic
loop_
_symmetry_equiv_pos_as_xyz
  x,y,z
_cell_length_a	27.732066
_cell_length_b	26.210047
_cell_length_c	10.540539
_cell_angle_alpha	89.993305
_cell_angle_beta	96.412204
_cell_angle_gamma	89.999675
loop_
_atom_site_label
_atom_site_type_symbol
_atom_site_fract_x
_atom_site_fract_y
_atom_site_fract_z
O1	O	-0.641877	0.042324	0.151119
O2	O	-0.501229	0.042347	0.174058
O3	O	-0.574762	0.042334	-0.022257
O4	O	-0.568344	0.042337	0.347434
O5	O	-0.574748	-0.042524	-0.022226
O6	O	-0.501215	-0.042511	0.174089
O7	O	-0.641863	-0.042534	0.151149
Cu8	Cu	-0.571537	-0.050271	0.162622
Cu9	Cu	-0.571554	0.050084	0.162586
O10	O	-0.568330	-0.042521	0.347464
C11	C	-0.483212	-0.000079	0.173588
C12	C	-0.429549	-0.000070	0.172128
N13	N	-0.571529	-0.120855	0.162647
C14	C	-0.051683	-0.000093	0.046171
C15	C	-0.253377	-0.000083	0.051547
O16	O	-0.284014	-0.000103	-0.046187
N17	N	-0.273237	-0.000081	0.167959
C18	C	-0.242671	-0.000084	0.283035
O19	O	-0.264192	-0.000087	0.382175
C20	C	-0.040978	-0.000097	0.277658
C21	C	-0.021121	-0.000094	0.161238
C22	C	-0.031825	-0.000091	-0.070240
C23	C	0.018595	-0.000090	-0.071582
C24	C	0.049158	-0.000092	0.043485
C25	C	0.029300	-0.000094	0.159896
C26	C	-0.010413	-0.000104	0.392733
C27	C	0.040013	-0.000108	0.391378
C28	C	0.059871	-0.000106	0.274959
C29	C	0.110283	-0.000095	0.273620
N30	N	0.130144	-0.000098	0.157208
C31	C	0.099581	-0.000096	0.042141
C32	C	-0.348563	-0.000076	0.285851
C33	C	-0.398986	-0.000072	0.287195
C34	C	-0.409689	-0.000072	0.055706
C35	C	-0.359265	-0.000073	0.054363
C36	C	-0.328703	-0.000078	0.169438
C37	C	0.205468	-0.000095	0.039329
C38	C	0.255894	-0.000092	0.037997
C39	C	0.266592	-0.000095	0.269485
C40	C	0.216171	-0.000095	0.270818
C41	C	0.185610	-0.000096	0.155730
O42	O	0.140949	-0.000081	0.371301
O43	O	0.121111	-0.000105	-0.056984
C44	C	-0.102104	-0.000093	0.047514
C45	C	-0.121962	-0.000095	0.163924
C46	C	-0.091399	-0.000097	0.278991
C47	C	-0.172385	-0.000091	0.165269
C48	C	-0.202947	-0.000089	0.050201
C49	C	-0.183087	-0.000092	-0.066211
C50	C	-0.132666	-0.000092	-0.067554
C51	C	-0.111259	-0.000094	0.395404
C52	C	-0.161681	-0.000094	0.396737
C53	C	-0.192243	-0.000092	0.281669
C54	C	-0.604111	-0.473374	0.075677
C55	C	-0.604122	-0.687033	0.075659
O56	O	-0.631806	-0.714660	0.001720
N57	N	-0.571557	-0.713749	0.162558
C58	C	-0.538985	-0.687046	0.249462
O59	O	-0.511283	-0.714672	0.323365
C60	C	-0.538972	-0.473389	0.249472
C61	C	-0.571543	-0.446676	0.162576
C62	C	-0.636679	-0.446661	-0.011213
C63	C	-0.636678	-0.393250	-0.011203
C64	C	-0.604109	-0.366551	0.075697
C65	C	-0.571541	-0.393264	0.162586
C66	C	-0.506398	-0.446687	0.336369
C67	C	-0.506397	-0.393270	0.336362
C68	C	-0.538967	-0.366557	0.249466
C69	C	-0.538971	-0.313154	0.249496
N70	N	-0.571537	-0.286439	0.162597
C71	C	-0.604105	-0.313137	0.075698
C72	C	-0.538994	-0.799220	0.249451
C73	C	-0.538998	-0.852634	0.249450
C74	C	-0.604135	-0.852617	0.075646
C75	C	-0.604133	-0.799202	0.075654
C76	C	-0.571559	-0.772504	0.162553
C77	C	-0.604101	-0.200969	0.075726
C78	C	-0.604098	-0.147553	0.075747
C79	C	-0.538960	-0.147575	0.249546
C80	C	-0.538964	-0.200986	0.249530
C81	C	-0.571536	-0.227682	0.162609
O82	O	-0.511298	-0.285495	0.323387
O83	O	-0.631796	-0.285502	0.001787
C84	C	-0.604112	-0.526786	0.075667
C85	C	-0.571545	-0.553499	0.162557
C86	C	-0.538976	-0.526800	0.249456
C87	C	-0.571549	-0.606913	0.162556
C88	C	-0.604117	-0.633611	0.075656
C89	C	-0.636682	-0.606896	-0.011242
C90	C	-0.636681	-0.553484	-0.011233
C91	C	-0.506411	-0.553516	0.336355
C92	C	-0.506415	-0.606927	0.336339
C93	C	-0.538984	-0.633626	0.249439
C94	C	0.340120	-0.000102	0.151615
C95	C	0.286456	-0.000094	0.153064
C96	C	-0.574273	-0.000094	-0.069524
C97	C	-0.572834	-0.000091	-0.210409
N98	N	-0.571566	0.120668	0.162551
C99	C	-0.517659	0.000109	-0.391450
C100	C	-0.519118	-0.000082	-0.244895
C101	C	-0.598675	-0.048553	-0.273168
C102	C	-0.596842	-0.048594	-0.419633
C103	C	-0.597951	0.047906	-0.420233
C104	C	-0.598446	0.048546	-0.273273
C105	C	-0.568818	-0.000092	0.394731
C106	C	-0.570258	-0.000092	0.535617
H107	H	0.180591	-0.000096	-0.054387
O108	O	-0.503874	-0.881435	0.343207
H109	H	-0.480198	-0.905774	0.290221
O110	O	-0.492182	0.045933	-0.187307
H111	H	-0.493201	0.045844	-0.082338
H112	H	0.034758	-0.000090	-0.166383
H113	H	-0.663198	-0.371504	-0.081964
O114	O	-0.639237	-0.229754	-0.018016
H115	H	-0.618690	-0.254084	-0.079371
O116	O	-0.031823	-0.000119	0.518301
H117	H	-0.002093	-0.000132	0.598075
O118	O	-0.337849	-0.000074	-0.071204
H119	H	-0.315134	-0.034662	-0.077343
H120	H	-0.663200	-0.468395	-0.081983
O121	O	-0.639256	-0.770398	-0.018098
H122	H	-0.618692	-0.746065	-0.079422
H123	H	-0.496446	0.034862	-0.419145
H124	H	-0.116503	-0.000090	-0.162355
H125	H	-0.496521	-0.034443	-0.420731
O126	O	-0.216055	-0.000096	-0.190325
H127	H	-0.254451	-0.000101	-0.169818
O128	O	-0.639260	-0.881417	-0.018094
H129	H	-0.633785	-0.923046	-0.003495
O130	O	-0.420397	-0.000071	0.412769
H131	H	-0.443108	0.034519	0.418931
O132	O	-0.503863	-0.770426	0.343194
H133	H	-0.481227	-0.797982	0.403621
O134	O	-0.471254	-0.364477	0.430076
H135	H	-0.476717	-0.322846	0.415478
H136	H	-0.479876	-0.468430	0.407126
O137	O	-0.503837	-0.229803	0.343252
H138	H	-0.481188	-0.202262	0.403676
O139	O	-0.503820	-0.118774	0.343242
H140	H	-0.509287	-0.077145	0.328620
H141	H	-0.056705	-0.000091	-0.163947
O142	O	-0.491990	-0.046173	-0.188379
H143	H	-0.477780	-0.068414	-0.265742
H144	H	-0.663203	-0.531739	-0.081991
H145	H	-0.638122	-0.050361	-0.252519
O146	O	-0.183097	-0.000103	0.522312
H147	H	-0.153369	-0.000112	0.602092
O148	O	-0.078298	-0.000094	0.519518
H149	H	-0.100584	-0.000089	0.600682
O150	O	-0.571524	-0.096566	-0.455890
H151	H	-0.560700	-0.119517	-0.368852
H152	H	-0.630622	-0.125805	0.004986
O153	O	0.299563	-0.000097	0.393586
H154	H	0.277287	-0.000095	0.474770
O155	O	-0.648009	-0.051527	-0.485401
H156	H	-0.673952	-0.052914	-0.412549
O157	O	-0.671810	-0.635696	-0.104978
H158	H	-0.666332	-0.677325	-0.090381
O159	O	-0.442656	-0.000078	-0.068408
H160	H	-0.481053	-0.000081	-0.047902
O161	O	-0.574887	-0.096320	-0.215703
H162	H	-0.544663	-0.085667	-0.142464
O163	O	-0.471297	-0.635738	0.430102
H164	H	-0.448653	-0.608193	0.490529
H165	H	-0.479889	-0.531782	0.407118
O166	O	-0.574932	0.096563	-0.461032
H167	H	-0.543493	0.087078	-0.513239
H168	H	-0.323683	-0.000080	0.379564
O169	O	-0.573440	0.096041	-0.217986
H170	H	-0.542898	0.085058	-0.146029
O171	O	-0.650324	0.052418	-0.243452
H172	H	-0.658701	0.019588	-0.183097
O173	O	-0.649344	0.048338	-0.485003
H174	H	-0.648734	0.049797	-0.590052
O175	O	0.277312	-0.000096	-0.087574
H176	H	0.247586	-0.000103	-0.167358
H177	H	0.200002	-0.000096	0.365617
O178	O	0.072978	-0.000112	0.515498
H179	H	0.050695	-0.000109	0.596668
