data_functionalizedCrystal
_audit_creation_method	'MofGen! by Chris Wilmer'
_symmetry_space_group_name_H-M	'P1'
_symmetry_Int_Tables_number	1
_symmetry_cell_setting	triclinic
loop_
_symmetry_equiv_pos_as_xyz
  x,y,z
_cell_length_a	12.759401
_cell_length_b	12.759400
_cell_length_c	12.759386
_cell_angle_alpha	89.938242
_cell_angle_beta	89.957659
_cell_angle_gamma	90.013808
loop_
_atom_site_label
_atom_site_type_symbol
_atom_site_fract_x
_atom_site_fract_y
_atom_site_fract_z
Zn1	Zn	1.606490	-0.417908	-0.594021
Zn2	Zn	1.606316	-0.593721	-0.418343
Zn3	Zn	1.430723	-0.418054	-0.418357
Zn4	Zn	1.430781	-0.593543	-0.593981
O5	O	1.518578	-0.505806	-0.506176
O6	O	1.753488	-0.441243	-0.570728
O7	O	1.582925	-0.570555	-0.271324
O8	O	1.454088	-0.271014	-0.441681
O9	O	1.753360	-0.570412	-0.441658
O10	O	1.583223	-0.270906	-0.570741
O11	O	1.453918	-0.441493	-0.271334
O12	O	1.283710	-0.441320	-0.441643
O13	O	1.454187	-0.570108	-0.741008
O14	O	1.283752	-0.570250	-0.570673
O15	O	1.583280	-0.441070	-0.741037
O16	O	1.582982	-0.740718	-0.441620
O17	O	1.454017	-0.740587	-0.570660
C18	C	1.245610	-0.505782	-0.506156
C19	C	1.128834	-0.505797	-0.506172
C20	C	1.073919	-0.438575	-0.439109
C21	C	0.964195	-0.438600	-0.439122
C22	C	0.964310	-0.573071	-0.573271
C23	C	1.074032	-0.573051	-0.573252
C24	C	0.814133	-0.401009	-0.315308
C25	C	0.759214	-0.333771	-0.248254
C26	C	0.794816	-0.231240	-0.232294
C27	C	0.885335	-0.195926	-0.283403
C28	C	0.940248	-0.263159	-0.350465
C29	C	0.904648	-0.365705	-0.366405
C30	C	1.224096	-0.610631	-0.697067
C31	C	1.279011	-0.677859	-0.764135
C32	C	1.243411	-0.780392	-0.780106
C33	C	1.152889	-0.815702	-0.729015
C34	C	1.097973	-0.748474	-0.661948
C35	C	1.133581	-0.645942	-0.645975
C36	C	1.518515	-0.778774	-0.506157
C37	C	1.518585	-0.895550	-0.506184
C38	C	1.585797	-0.950266	-0.573443
C39	C	1.585856	-1.059990	-0.573471
C40	C	1.451488	-1.060273	-0.438973
C41	C	1.451425	-0.950551	-0.438951
C42	C	1.623464	-1.209751	-0.697440
C43	C	1.690692	-1.264470	-0.764690
C44	C	1.793183	-1.228755	-0.780903
C45	C	1.828468	-1.138321	-0.729850
C46	C	1.761245	-1.083607	-0.662593
C47	C	1.658739	-1.119321	-0.646400
C48	C	1.413827	-0.800788	-0.314980
C49	C	1.346609	-0.746072	-0.247717
C50	C	1.244116	-0.781786	-0.231494
C51	C	1.208836	-0.872223	-0.282528
C52	C	1.276054	-0.926939	-0.349791
C53	C	1.378546	-0.891218	-0.366016
C54	C	1.792611	-0.505831	-0.506196
C55	C	1.909387	-0.505842	-0.506205
C56	C	1.518759	-0.505553	-0.780209
C57	C	1.518837	-0.505445	-0.896986
C58	C	1.518669	-0.231773	-0.506217
C59	C	1.518707	-0.114996	-0.506235
C60	C	1.518457	-0.505983	-0.233208
C61	C	1.518583	-0.505795	-0.116432
C62	C	1.450991	-0.439005	-0.061624
C63	C	1.451120	-0.438827	0.048099
C64	C	1.586436	-0.572238	0.048199
C65	C	1.586311	-0.572410	-0.061523
C66	C	1.412893	-0.314959	0.197794
C67	C	1.345285	-0.248178	0.252604
C68	C	1.242620	-0.232841	0.217145
C69	C	1.207543	-0.284300	0.126877
C70	C	1.275146	-0.351089	0.072072
C71	C	1.377825	-0.366406	0.107529
C72	C	1.624528	-0.696280	-0.211219
C73	C	1.692126	-0.763074	-0.266026
C74	C	1.794792	-0.778422	-0.230569
C75	C	1.829866	-0.726982	-0.140298
C76	C	1.762268	-0.660187	-0.085490
C77	C	1.659602	-0.644837	-0.120955
H78	H	1.013941	-0.234404	-0.392085
Br79	Br	1.227553	-0.420923	-0.050428
H80	H	0.914310	-0.112431	-0.270409
Br81	Br	1.401870	-0.629941	-0.833468
Br82	Br	1.809121	-0.960886	-0.593307
H83	H	1.849828	-0.832819	-0.275201
Br84	Br	1.676940	-0.875626	-0.664689
Br85	Br	1.068200	-0.263493	0.078766
Br86	Br	0.975119	-0.796394	-0.592608
H87	H	1.911931	-1.109256	-0.743047
Br88	Br	0.889930	-0.664349	-0.664295
Br89	Br	1.484353	-1.258214	-0.675464
Br90	Br	1.104561	-0.954855	-0.750697
H91	H	1.396811	-1.105067	-0.384233
H92	H	1.288125	-0.835123	-0.834732
Br93	Br	1.969199	-0.747818	-0.092164
Br94	Br	1.069738	-0.920706	-0.260501
Br95	Br	1.272426	-0.471477	-0.675382
Br96	Br	0.720277	-0.139987	-0.141298
H97	H	1.790833	-0.618301	-0.011986
H98	H	1.395846	-0.384760	-0.106328
H99	H	1.497281	-0.771691	-0.328199
H100	H	1.847921	-1.273315	-0.835659
Br101	Br	1.644529	-0.832882	-0.388545
Br102	Br	1.150869	-0.142211	0.291535
Br103	Br	1.228172	-1.049675	-0.419057
Br104	Br	1.642810	-1.387201	-0.833967
Br105	Br	1.148289	-0.347306	-0.348069
Br106	Br	0.636369	-0.381693	-0.178898
H107	H	0.785144	-0.484502	-0.328286
Br108	Br	1.152898	-0.707538	-0.140189
Br109	Br	1.394497	-0.623345	-0.178439
Br110	Br	1.392887	-0.178343	0.375107
H111	H	1.496493	-0.327430	0.226666
Br112	Br	1.678350	-0.662637	0.122724
Br113	Br	1.485192	-0.675444	-0.259352
