data_functionalizedCrystal
_audit_creation_method	'MofGen! by Chris Wilmer'
_symmetry_space_group_name_H-M	'P1'
_symmetry_Int_Tables_number	1
_symmetry_cell_setting	triclinic
loop_
_symmetry_equiv_pos_as_xyz
  x,y,z
_cell_length_a	12.759401
_cell_length_b	18.215406
_cell_length_c	18.215399
_cell_angle_alpha	89.984834
_cell_angle_beta	89.983502
_cell_angle_gamma	90.000960
loop_
_atom_site_label
_atom_site_type_symbol
_atom_site_fract_x
_atom_site_fract_y
_atom_site_fract_z
Zn1	Zn	1.606336	-0.292989	-0.416116
Zn2	Zn	1.606279	-0.416060	-0.293077
Zn3	Zn	1.430644	-0.293012	-0.293070
Zn4	Zn	1.430669	-0.416018	-0.416109
O5	O	1.518482	-0.354520	-0.354593
O6	O	1.753350	-0.309322	-0.399800
O7	O	1.582947	-0.399765	-0.190092
O8	O	1.453963	-0.190025	-0.309393
O9	O	1.753308	-0.399742	-0.309404
O10	O	1.583044	-0.190007	-0.399794
O11	O	1.453908	-0.309362	-0.190087
O12	O	1.283627	-0.309322	-0.309386
O13	O	1.454006	-0.399671	-0.519094
O14	O	1.283645	-0.399694	-0.399782
O15	O	1.583068	-0.309282	-0.519099
O16	O	1.582971	-0.519039	-0.309397
O17	O	1.453951	-0.519008	-0.399789
C18	C	1.245515	-0.354506	-0.354583
C19	C	1.128738	-0.354518	-0.354596
C20	C	1.518486	-0.545726	-0.354609
C21	C	1.518584	-0.627525	-0.354640
C22	C	1.518546	-0.354469	-0.546546
C23	C	1.518574	-0.354447	-0.628345
C24	C	1.073913	-0.401650	-0.401588
C25	C	0.964189	-0.401659	-0.401596
C26	C	0.964125	-0.307403	-0.307615
C27	C	1.073847	-0.307390	-0.307611
C28	C	1.128805	-0.448778	-0.448573
C29	C	1.073980	-0.495915	-0.495568
C30	C	0.964256	-0.495924	-0.495576
C31	C	0.909357	-0.448797	-0.448589
C32	C	1.792516	-0.354534	-0.354603
C33	C	1.909292	-0.354540	-0.354608
C34	C	1.518507	-0.162567	-0.354593
C35	C	1.518518	-0.080768	-0.354593
C36	C	1.451339	0.107418	-0.307548
C37	C	1.451348	0.184277	-0.307557
C38	C	1.585765	0.184284	-0.401691
C39	C	1.585751	0.107426	-0.401685
C40	C	1.518539	0.068996	-0.354609
C41	C	1.518562	0.222712	-0.354624
C42	C	1.518572	0.306045	-0.354634
C43	C	1.518527	-0.014343	-0.354600
C44	C	1.585800	-0.307338	-0.816543
C45	C	1.585813	-0.307316	-0.893402
C46	C	1.451421	-0.401443	-0.893385
C47	C	1.451404	-0.401460	-0.816528
C48	C	1.518600	-0.354409	-0.778109
C49	C	1.518629	-0.354370	-0.931825
C50	C	1.518642	-0.354347	-1.015158
C51	C	1.518585	-0.354430	-0.694770
C52	C	1.518479	-0.354517	-0.163387
C53	C	1.518655	-0.354331	-0.081588
H54	H	1.218148	-0.448777	-0.448570
H55	H	1.396608	0.076130	-0.269217
H56	H	1.640473	0.076142	-0.440013
H57	H	1.396715	-0.439753	-0.924675
H58	H	0.820012	-0.448802	-0.448606
H59	H	1.396674	-0.439791	-0.785234
O60	O	1.378877	0.225716	-0.256787
H61	H	1.296422	0.210967	-0.269396
O62	O	1.658270	0.225733	-0.452455
H63	H	1.647002	0.285632	-0.444547
O64	O	1.658267	-0.256590	-0.775100
H65	H	1.640249	-0.198827	-0.789846
O66	O	1.133182	-0.546728	-0.546260
H67	H	1.218690	-0.538805	-0.538362
O68	O	0.904920	-0.256595	-0.256917
H69	H	0.819412	-0.264533	-0.264804
H70	H	0.919620	-0.534299	-0.533846
O71	O	1.658298	-0.256551	-0.934859
H72	H	1.705023	-0.223843	-0.895228
H73	H	1.118486	-0.269006	-0.269352
