data_functionalizedCrystal
_audit_creation_method	'MofGen! by Chris Wilmer'
_symmetry_space_group_name_H-M	'P1'
_symmetry_Int_Tables_number	1
_symmetry_cell_setting	triclinic
loop_
_symmetry_equiv_pos_as_xyz
  x,y,z
_cell_length_a	10.654550
_cell_length_b	9.798715
_cell_length_c	10.723024
_cell_angle_alpha	89.997785
_cell_angle_beta	84.476386
_cell_angle_gamma	89.993019
loop_
_atom_site_label
_atom_site_type_symbol
_atom_site_fract_x
_atom_site_fract_y
_atom_site_fract_z
O1	O	1.667813	-0.113600	0.175272
O2	O	1.302332	-0.113577	0.191971
O3	O	1.493503	-0.113584	0.002047
O4	O	1.476642	-0.113593	0.365197
O5	O	1.493490	0.113398	0.002046
O6	O	1.302319	0.113405	0.191970
O7	O	1.667800	0.113383	0.175271
Zn8	Zn	1.485057	0.149432	0.183620
Zn9	Zn	1.485075	-0.149627	0.183622
O10	O	1.476629	0.113389	0.365195
C11	C	1.255528	-0.000083	0.190745
C12	C	1.116085	-0.000075	0.187076
C13	C	1.492269	-0.000094	-0.044454
C14	C	1.488598	-0.000099	-0.183008
N15	N	1.485054	0.353532	0.183618
C16	C	1.036583	-0.000098	0.298901
C17	C	0.905562	-0.000121	0.295446
C18	C	0.933560	-0.000105	0.068333
C19	C	1.064578	-0.000072	0.071789
C20	C	1.088090	-0.000101	0.414188
C21	C	1.008586	-0.000125	0.526022
C22	C	0.877566	-0.000149	0.522567
C23	C	0.826049	-0.000148	0.407279
C24	C	1.714604	-0.000114	0.176498
C25	C	1.854047	-0.000132	0.180166
N26	N	1.485088	-0.353726	0.183614
C27	C	1.404803	0.421345	0.263711
C28	C	1.404820	0.578507	0.263710
C29	C	1.595568	-0.000107	-0.257975
C30	C	1.591776	-0.000112	-0.401179
C31	C	1.477863	-0.000103	0.411696
C32	C	1.481534	-0.000108	0.550251
H33	H	1.194772	-0.000088	0.417014
C34	C	1.577912	0.567518	0.090970
H35	H	1.628266	0.630422	0.040714
H36	H	1.630660	0.511756	0.136231
H37	H	1.532066	0.511796	0.038789
H38	H	1.683350	-0.000113	-0.465598
C39	C	1.357811	-0.000097	-0.362747
H40	H	1.288156	-0.000086	-0.411797
H41	H	1.354475	-0.079246	-0.311379
H42	H	1.354467	0.079071	-0.311396
H43	H	0.891604	-0.000127	-0.025529
H44	H	1.050540	-0.000114	0.619885
H45	H	1.394211	-0.000102	-0.224844
C46	C	1.311967	0.342613	0.356355
H47	H	1.261626	0.405538	0.406611
H48	H	1.259206	0.286881	0.311095
H49	H	1.357802	0.286863	0.408536
C50	C	1.312002	0.657278	0.356348
H51	H	1.324196	0.752575	0.344201
H52	H	1.227984	0.633950	0.342285
H53	H	1.326582	0.633921	0.439723
H54	H	0.812837	-0.000155	0.613628
H55	H	0.719363	-0.000146	0.404476
C56	C	1.723081	-0.000110	-0.201471
H57	H	1.708901	-0.000097	-0.112634
H58	H	1.769512	-0.079264	-0.228450
H59	H	1.769493	0.079053	-0.228457
H60	H	1.129311	-0.000057	-0.019269
H61	H	1.553778	0.411825	0.115051
