data_functionalizedCrystal
_audit_creation_method	'MofGen! by Chris Wilmer'
_symmetry_space_group_name_H-M	'P1'
_symmetry_Int_Tables_number	1
_symmetry_cell_setting	triclinic
loop_
_symmetry_equiv_pos_as_xyz
  x,y,z
_cell_length_a	10.685980
_cell_length_b	15.297510
_cell_length_c	10.686551
_cell_angle_alpha	96.044406
_cell_angle_beta	98.408259
_cell_angle_gamma	75.260271
loop_
_atom_site_label
_atom_site_type_symbol
_atom_site_fract_x
_atom_site_fract_y
_atom_site_fract_z
Zn1	Zn	1.950262	0.202210	0.912126
Zn2	Zn	1.897043	0.365645	0.736575
Zn3	Zn	1.716036	0.227319	0.689231
Zn4	Zn	1.701187	0.365557	0.932465
O5	O	1.816132	0.290183	0.817599
O6	O	2.123194	0.213418	0.900140
O7	O	1.856974	0.357841	0.555031
O8	O	1.775593	0.097737	0.690473
O9	O	2.084094	0.333493	0.771164
O10	O	1.947678	0.079289	0.854233
O11	O	1.723989	0.256213	0.520248
O12	O	1.534075	0.256128	0.710195
O13	O	1.750285	0.333344	1.105031
O14	O	1.523165	0.357691	0.888898
O15	O	1.933280	0.213333	1.090087
O16	O	1.842576	0.491885	0.790886
O17	O	1.698681	0.491820	0.934806
C18	C	1.481950	0.309626	0.796617
C19	C	1.338984	0.317963	0.787675
C20	C	1.763279	0.524584	0.870220
C21	C	1.740790	0.624853	0.892781
C22	C	1.977376	0.907473	0.656884
C23	C	1.998504	0.813266	0.635680
C24	C	1.934078	0.766158	0.699954
C25	C	1.848519	0.813266	0.785434
C26	C	1.827381	0.907484	0.806632
C27	C	1.784083	0.766169	0.849702
C28	C	1.698524	0.813277	0.935182
C29	C	1.677390	0.907485	0.956376
C30	C	1.741816	0.954593	0.892103
C31	C	1.805221	0.671952	0.828504
C32	C	1.655226	0.671962	0.978252
C33	C	1.634098	0.766169	0.999455
C34	C	2.151618	0.270665	0.838664
C35	C	2.294583	0.262347	0.847641
C36	C	1.846062	0.270528	1.144274
C37	C	1.858817	0.262152	1.283483
C38	C	1.869218	1.054862	0.764816
C39	C	1.891812	0.954582	0.742355
C40	C	1.786407	0.309692	0.492186
C41	C	1.773959	0.317799	0.352936
H42	H	1.267616	0.371961	0.729486
C43	C	1.627492	0.927374	1.170987
C44	C	1.583338	0.959268	1.050331
H45	H	1.569430	0.959346	1.228990
H46	H	1.630853	0.864532	1.167554
H47	H	1.712133	0.936628	1.198253
H48	H	1.498700	0.950008	1.023061
H49	H	1.579962	1.022125	1.053761
C50	C	1.542574	0.376843	1.308625
C51	C	1.662708	0.390774	1.289457
H52	H	1.473895	0.421902	1.269438
H53	H	1.535490	0.318603	1.272451
H54	H	1.536859	0.380593	1.396988
H55	H	1.668427	0.387017	1.201094
H56	H	1.669794	0.449029	1.325626
H57	H	1.365944	0.208348	0.905817
H58	H	1.724622	1.031303	0.909365
H59	H	1.874884	0.633604	0.758905
H60	H	1.951285	0.689451	0.682684
H61	H	1.602762	0.633608	1.030586
H62	H	2.068164	0.774914	0.566082
C63	C	1.917409	0.130988	1.404636
C64	C	1.970075	0.189176	1.346971
H65	H	1.986095	0.085934	1.443822
H66	H	1.865900	0.164776	1.466859
H67	H	1.864530	0.102781	1.342326
H68	H	2.022946	0.217389	1.409283
H69	H	2.021605	0.155384	1.284742
C70	C	2.011488	1.051902	0.622832
C71	C	2.048136	0.959260	0.586195
H72	H	2.055168	1.083872	0.579177
H73	H	1.919922	1.073505	0.602533
H74	H	2.034542	1.061156	0.711635
H75	H	2.025073	0.950005	0.497393
H76	H	2.139722	0.937650	0.606485
C77	C	1.415290	0.804314	1.053184
C78	C	1.540046	0.817954	1.093409
H79	H	1.357232	0.836280	1.111194
H80	H	1.385360	0.825947	0.971336
H81	H	1.418670	0.741462	1.049764
H82	H	1.536668	0.880806	1.096821
H83	H	1.569984	0.796325	1.175280
