data_functionalizedCrystal
_audit_creation_method	'MofGen! by Chris Wilmer'
_symmetry_space_group_name_H-M	'P1'
_symmetry_Int_Tables_number	1
_symmetry_cell_setting	triclinic
loop_
_symmetry_equiv_pos_as_xyz
  x,y,z
_cell_length_a	17.699083
_cell_length_b	17.699083
_cell_length_c	16.776229
_cell_angle_alpha	90.004308
_cell_angle_beta	89.999727
_cell_angle_gamma	83.283015
loop_
_atom_site_label
_atom_site_type_symbol
_atom_site_fract_x
_atom_site_fract_y
_atom_site_fract_z
O1	O	1.004077	0.095710	0.066178
O2	O	1.337411	0.429043	0.399511
O3	O	1.670744	0.762376	0.732845
O4	O	0.783699	0.108162	0.066204
O5	O	1.117032	0.441495	0.399538
O6	O	1.450366	0.774829	0.732871
O7	O	0.900114	-0.008253	0.066183
O8	O	1.233448	0.325080	0.399517
O9	O	1.566781	0.658413	0.732850
O10	O	0.887662	0.212125	0.066199
O11	O	1.220995	0.545458	0.399532
O12	O	1.554329	0.878792	0.732866
O13	O	0.900101	-0.008254	-0.066393
O14	O	1.233435	0.325080	0.266940
O15	O	1.566768	0.658413	0.600274
O16	O	0.783686	0.108162	-0.066372
O17	O	1.117019	0.441495	0.266961
O18	O	1.450352	0.774828	0.600295
O19	O	1.004064	0.095709	-0.066398
O20	O	1.337398	0.429043	0.266935
O21	O	1.670731	0.762376	0.600268
Zn22	Zn	0.893873	0.101935	-0.087435
Zn23	Zn	1.227206	0.435269	0.245899
Zn24	Zn	1.560540	0.768602	0.579232
Zn25	Zn	0.893890	0.101936	0.087241
Zn26	Zn	1.227224	0.435269	0.420574
Zn27	Zn	1.560557	0.768603	0.753907
O28	O	0.887649	0.212125	-0.066378
O29	O	1.220982	0.545458	0.266956
O30	O	1.554315	0.878791	0.600289
C31	C	0.755495	0.107716	-0.000081
C32	C	1.088829	0.441049	0.333253
C33	C	1.422162	0.774382	0.666586
C34	C	0.671477	0.106377	-0.000071
C35	C	1.004811	0.439710	0.333263
C36	C	1.338144	0.773044	0.666596
C37	C	0.899662	-0.036451	-0.000105
C38	C	1.232995	0.296883	0.333228
C39	C	1.566328	0.630216	0.666562
C40	C	0.898323	-0.120469	-0.000105
C41	C	1.231656	0.212865	0.333228
C42	C	1.564990	0.546198	0.666562
C43	C	0.622856	0.174710	-0.000066
C44	C	0.956190	0.508044	0.333267
C45	C	1.289523	0.841377	0.666600
C46	C	0.543913	0.173448	-0.000077
C47	C	0.877246	0.506782	0.333257
C48	C	1.210580	0.840115	0.666590
C49	C	0.513592	0.103852	-0.000086
C50	C	0.846926	0.437185	0.333247
C51	C	1.180259	0.770518	0.666581
C52	C	0.562219	0.035513	-0.000093
C53	C	0.895553	0.368846	0.333240
C54	C	1.228886	0.702180	0.666574
C55	C	0.641161	0.036776	-0.000088
C56	C	0.974495	0.370110	0.333245
C57	C	1.307828	0.703443	0.666579
C58	C	0.243856	0.030418	-0.000113
C59	C	0.577190	0.363751	0.333220
C60	C	0.910523	0.697085	0.666554
C61	C	0.164908	0.029160	-0.000115
C62	C	0.498242	0.362493	0.333218
C63	C	0.831575	0.695827	0.666551
C64	C	0.146608	0.167090	-0.000101
C65	C	0.479942	0.500423	0.333232
C66	C	0.813275	0.833757	0.666565
C67	C	0.225550	0.168353	-0.000097
C68	C	0.558883	0.501686	0.333237
C69	C	0.892217	0.835020	0.666570
C70	C	0.274170	0.100015	-0.000108
C71	C	0.607504	0.433348	0.333226
C72	C	0.940837	0.766681	0.666559
C73	C	0.359769	0.101384	-0.000098
C74	C	0.693103	0.434718	0.333235
C75	C	1.026436	0.768051	0.666569
C76	C	0.427995	0.102481	-0.000090
C77	C	0.761328	0.435815	0.333243
C78	C	1.094661	0.769148	0.666577
C79	C	0.966656	-0.169090	-0.000114
C80	C	1.299990	0.164244	0.333219
C81	C	1.633323	0.497577	0.666552
C82	C	0.965394	-0.248033	-0.000107
C83	C	1.298727	0.085300	0.333226
C84	C	1.632061	0.418634	0.666560
C85	C	0.895798	-0.278354	-0.000096
C86	C	1.229131	0.054980	0.333237
C87	C	1.562464	0.388313	0.666570
C88	C	0.827459	-0.229727	-0.000085
C89	C	1.160792	0.103607	0.333249
C90	C	1.494126	0.436940	0.666582
C91	C	0.828722	-0.150785	-0.000086
C92	C	1.162055	0.182549	0.333247
C93	C	1.495389	0.515882	0.666580
C94	C	0.822364	-0.548090	-0.000078
C95	C	1.155697	-0.214756	0.333256
C96	C	1.489030	0.118577	0.666589
C97	C	0.821106	-0.627038	-0.000078
C98	C	1.154439	-0.293704	0.333255
C99	C	1.487773	0.039629	0.666588
C100	C	0.959036	-0.645338	-0.000099
C101	C	1.292369	-0.312004	0.333235
C102	C	1.625703	0.021329	0.666568
C103	C	0.960299	-0.566396	-0.000100
C104	C	1.293632	-0.233063	0.333233
C105	C	1.626966	0.100271	0.666567
C106	C	0.891961	-0.517776	-0.000084
C107	C	1.225294	-0.184442	0.333249
C108	C	1.558627	0.148891	0.666582
C109	C	0.893330	-0.432177	-0.000090
C110	C	1.226664	-0.098843	0.333243
C111	C	1.559997	0.234490	0.666576
C112	C	0.894427	-0.363951	-0.000096
C113	C	1.227761	-0.030618	0.333238
C114	C	1.561094	0.302715	0.666571
C115	C	1.032268	0.096156	-0.000112
C116	C	1.365601	0.429489	0.333222
C117	C	1.698934	0.762822	0.666555
C118	C	1.116286	0.097494	-0.000116
C119	C	1.449619	0.430828	0.333217
C120	C	1.782953	0.764161	0.666550
C121	C	0.888102	0.240322	-0.000087
C122	C	1.221435	0.573655	0.333246
C123	C	1.554768	0.906989	0.666579
C124	C	0.889440	0.324340	-0.000082
C125	C	1.222773	0.657673	0.333251
C126	C	1.556107	0.991007	0.666585
N127	N	0.893867	0.101935	-0.206646
N128	N	1.227200	0.435268	0.126687
N129	N	1.560533	0.768601	0.460021
C130	C	0.939682	0.147783	-0.248362
C131	C	1.273015	0.481117	0.084971
C132	C	1.606348	0.814450	0.418305
C133	C	0.939690	0.147781	-0.331814
C134	C	1.273023	0.481114	0.001519
C135	C	1.606357	0.814447	0.334853
C136	C	0.893879	0.101933	-0.373549
C137	C	1.227212	0.435266	-0.040215
C138	C	1.560546	0.768599	0.293118
C139	C	0.848062	0.056079	-0.331827
C140	C	1.181395	0.389412	0.001506
C141	C	1.514729	0.722745	0.334840
C142	C	0.848058	0.056078	-0.248376
C143	C	1.181392	0.389411	0.084957
C144	C	1.514725	0.722745	0.418290
C145	C	0.848077	0.056080	-0.668374
C146	C	1.181411	0.389413	-0.335041
C147	C	1.514744	0.722746	-0.001707
C148	C	0.848083	0.056085	-0.751831
C149	C	1.181416	0.389419	-0.418497
C150	C	1.514750	0.722752	-0.085164
C151	C	0.939709	0.147782	-0.751812
C152	C	1.273042	0.481115	-0.418479
C153	C	1.606376	0.814449	-0.085145
C154	C	0.939705	0.147781	-0.668361
C155	C	1.273039	0.481115	-0.335028
C156	C	1.606372	0.814448	-0.001695
C157	C	0.893892	0.101925	-0.626647
C158	C	1.227225	0.435258	-0.293313
C159	C	1.560558	0.768592	0.040020
C160	C	0.893884	0.101927	-0.536158
C161	C	1.227218	0.435261	-0.202825
C162	C	1.560551	0.768594	0.130508
C163	C	0.893882	0.101933	-0.464036
C164	C	1.227215	0.435267	-0.130702
C165	C	1.560548	0.768600	0.202631
N166	N	0.893903	0.101931	0.206452
N167	N	1.227236	0.435264	0.539785
N168	N	1.560569	0.768597	0.873118
H169	H	0.647537	0.231384	-0.000058
H170	H	0.980870	0.564717	0.333275
H171	H	1.314204	0.898051	0.666609
H172	H	0.283434	-0.025228	-0.000123
H173	H	0.616767	0.308106	0.333211
H174	H	0.950101	0.641439	0.666544
Cl175	Cl	0.482792	0.259357	-0.000066
Cl176	Cl	0.816126	0.592691	0.333267
Cl177	Cl	1.149459	0.926024	0.666601
H178	H	1.014680	-0.684934	-0.000107
H179	H	1.348013	-0.351601	0.333226
H180	H	1.681347	-0.018268	0.666559
Cl181	Cl	0.790468	-0.001571	-0.195933
Cl182	Cl	1.123801	0.331763	0.137400
Cl183	Cl	1.457134	0.665096	0.470734
H184	H	0.107012	0.222734	-0.000097
H185	H	0.440345	0.556067	0.333237
H186	H	0.773678	0.889401	0.666570
H187	H	0.976999	0.185114	-0.365776
H188	H	1.310332	0.518447	-0.032442
H189	H	1.643665	0.851780	0.300891
Cl190	Cl	0.790472	-0.001561	-0.384294
Cl191	Cl	1.123805	0.331773	-0.050960
Cl192	Cl	1.457138	0.665106	0.282373
H193	H	0.810773	0.018740	-0.634420
H194	H	1.144107	0.352073	-0.301087
H195	H	1.477440	0.685407	0.032246
H196	H	0.977007	0.185119	-0.634385
H197	H	1.310340	0.518452	-0.301052
H198	H	1.643673	0.851785	0.032282
Cl199	Cl	0.997275	0.205425	-0.195904
Cl200	Cl	1.330609	0.538759	0.137430
Cl201	Cl	1.663942	0.872092	0.470763
H202	H	0.977015	0.185119	-0.785786
H203	H	1.310348	0.518452	-0.452453
H204	H	1.643681	0.851785	-0.119119
H205	H	0.250232	0.225025	-0.000085
H206	H	0.583566	0.558359	0.333248
H207	H	0.916899	0.891692	0.666581
Cl208	Cl	0.790488	-0.001558	-0.804296
Cl209	Cl	1.123822	0.331776	-0.470963
Cl210	Cl	1.457155	0.665109	-0.137630
Cl211	Cl	0.126793	-0.058340	-0.000127
Cl212	Cl	0.460126	0.274994	0.333206
Cl213	Cl	0.793459	0.608327	0.666539
H214	H	0.537526	-0.021154	-0.000112
H215	H	0.870859	0.312180	0.333222
H216	H	1.204193	0.645513	0.666555
Cl217	Cl	0.733606	-0.665153	-0.000063
Cl218	Cl	1.066940	-0.331820	0.333270
Cl219	Cl	1.400273	0.001513	0.666604
H220	H	0.680748	-0.018868	-0.000091
H221	H	1.014082	0.314465	0.333242
H222	H	1.347415	0.647799	0.666575
H223	H	1.023330	-0.144409	-0.000128
H224	H	1.356663	0.188924	0.333205
H225	H	1.689997	0.522258	0.666539
H226	H	1.021038	-0.287618	-0.000116
H227	H	1.354372	0.045716	0.333217
H228	H	1.687705	0.379049	0.666550
Cl229	Cl	1.047795	-0.528283	-0.000111
Cl230	Cl	1.381128	-0.194950	0.333222
Cl231	Cl	1.714462	0.138384	0.666556
H232	H	0.766718	-0.508512	-0.000065
H233	H	1.100052	-0.175179	0.333268
H234	H	1.433385	0.158155	0.666602
Cl235	Cl	0.739966	-0.267844	-0.000061
Cl236	Cl	1.073299	0.065489	0.333272
Cl237	Cl	1.406632	0.398822	0.666605
H238	H	0.773078	-0.111198	-0.000078
H239	H	1.106411	0.222136	0.333255
H240	H	1.439745	0.555469	0.666588
