data_functionalizedCrystal
_audit_creation_method	'MofGen! by Chris Wilmer'
_symmetry_space_group_name_H-M	'P1'
_symmetry_Int_Tables_number	1
_symmetry_cell_setting	triclinic
loop_
_symmetry_equiv_pos_as_xyz
  x,y,z
_cell_length_a	14.044220
_cell_length_b	10.489716
_cell_length_c	12.503572
_cell_angle_alpha	93.562900
_cell_angle_beta	86.164750
_cell_angle_gamma	88.859007
loop_
_atom_site_label
_atom_site_type_symbol
_atom_site_fract_x
_atom_site_fract_y
_atom_site_fract_z
O1	O	1.265199	0.300993	-0.089188
O2	O	0.989157	0.289886	-0.089216
O3	O	1.133472	0.110477	-0.089205
O4	O	1.120885	0.480401	-0.089199
O5	O	1.122619	0.123994	0.089436
O6	O	0.978304	0.303403	0.089425
O7	O	1.254346	0.314510	0.089453
Cu8	Cu	1.115334	0.310190	0.105750
Cu9	Cu	1.128169	0.294205	-0.105513
O10	O	1.110031	0.493918	0.089442
C11	C	0.948383	0.291783	0.000101
C12	C	0.843060	0.277282	0.000090
C13	C	0.650218	0.250775	0.000111
C14	C	0.593280	0.353614	0.000117
C15	C	0.485976	0.338865	0.000128
C16	C	0.757532	0.265522	0.000099
C17	C	1.127100	0.069608	0.000112
C18	C	1.124271	-0.072311	0.000102
C19	C	1.212768	-0.161008	0.000120
C20	C	1.171355	-0.249776	-0.087961
C21	C	1.160634	-0.236415	0.088165
C22	C	1.082899	-0.159216	-0.088052
C23	C	1.072186	-0.145843	0.088153
C24	C	1.030709	-0.234570	0.000050
C25	C	1.295120	0.312612	0.000134
C26	C	1.400444	0.327112	0.000138
C27	C	1.116404	0.534788	0.000123
C28	C	1.119233	0.676706	0.000126
N29	N	1.106313	0.321434	0.254342
N30	N	1.137197	0.282953	-0.254105
C31	C	1.093044	0.337984	0.473456
C32	C	1.150464	0.266406	0.526788
C33	C	1.143080	0.275615	0.648710
C34	C	1.100426	0.328776	0.351523
H35	H	0.618379	0.151663	0.000115
H36	H	1.038344	0.406175	0.519360
C37	C	1.368417	-0.169891	-0.092375
C38	C	1.316676	-0.117093	-0.000014
H39	H	1.432558	-0.142755	-0.092471
H40	H	1.367387	-0.260443	-0.092993
H41	H	1.340404	-0.142263	-0.154301
H42	H	1.344686	-0.144729	0.061912
H43	H	1.317712	-0.026522	0.000614
C44	C	1.188083	-0.270356	-0.280667
C45	C	1.227892	-0.310986	-0.188480
H46	H	1.222996	-0.308134	-0.342719
H47	H	1.123468	-0.295407	-0.280765
H48	H	1.190802	-0.179970	-0.281046
H49	H	1.225166	-0.401372	-0.188098
H50	H	1.292524	-0.285943	-0.188383
C51	C	1.018268	0.048656	0.187050
C52	C	1.015687	-0.084587	0.188670
H53	H	0.983387	0.086471	0.249109
H54	H	1.082624	0.074927	0.186432
H55	H	0.990527	0.074933	0.124516
H56	H	1.043435	-0.110864	0.251201
H57	H	0.951319	-0.110868	0.189298
H58	H	0.625121	0.452734	0.000113
H59	H	1.050089	-0.125340	-0.162601
C60	C	0.886216	-0.239074	-0.092324
C61	C	0.926720	-0.278119	-0.000020
H62	H	0.822021	-0.265970	-0.092372
H63	H	0.887516	-0.148623	-0.092912
H64	H	0.921633	-0.276171	-0.154289
H65	H	0.891307	-0.241015	0.061945
H66	H	0.925414	-0.368588	0.000578
C67	C	1.176949	0.085320	0.400441
C68	C	1.224203	0.174069	0.464954
H69	H	1.222440	0.028242	0.362300
H70	H	1.134364	0.038515	0.444404
H71	H	1.142008	0.129017	0.350853
H72	H	1.259139	0.130373	0.514546
H73	H	1.266804	0.220879	0.420987
H74	H	1.193488	-0.270462	0.162629
