data_functionalizedCrystal
_audit_creation_method	'MofGen! by Chris Wilmer'
_symmetry_space_group_name_H-M	'P1'
_symmetry_Int_Tables_number	1
_symmetry_cell_setting	triclinic
loop_
_symmetry_equiv_pos_as_xyz
  x,y,z
_cell_length_a	14.971491
_cell_length_b	13.448316
_cell_length_c	10.654550
_cell_angle_alpha	89.996507
_cell_angle_beta	95.949417
_cell_angle_gamma	90.006926
loop_
_atom_site_label
_atom_site_type_symbol
_atom_site_fract_x
_atom_site_fract_y
_atom_site_fract_z
O1	O	1.187833	0.082734	-0.163685
O2	O	0.927541	0.082727	-0.183277
O3	O	1.063672	0.082724	0.009322
O4	O	1.051702	0.082737	-0.356284
O5	O	1.063658	-0.082659	0.009324
O6	O	0.927527	-0.082657	-0.183275
O7	O	1.187820	-0.082650	-0.163683
Cu8	Cu	1.057672	-0.097754	-0.173479
Cu9	Cu	1.057688	0.097831	-0.173481
O10	O	1.051689	-0.082647	-0.356282
C11	C	0.894204	0.000034	-0.182399
C12	C	0.794893	0.000031	-0.179769
C13	C	0.367133	0.090204	-0.168425
C14	C	0.460447	0.090201	-0.170892
C15	C	0.507092	0.000047	-0.172133
C16	C	0.460420	-0.090110	-0.170894
C17	C	0.367109	-0.090105	-0.168418
C18	C	0.654910	-0.090113	-0.176056
C19	C	0.748227	-0.090118	-0.178534
C20	C	0.748248	0.090192	-0.178530
C21	C	0.654937	0.090197	-0.176055
C22	C	0.608271	0.000040	-0.174818
N23	N	1.057667	-0.235318	-0.173477
C24	C	1.112385	-0.287350	-0.249774
C25	C	1.112396	-0.391453	-0.249769
C26	C	1.057684	-0.443523	-0.173472
C27	C	1.002964	-0.391484	-0.097166
C28	C	1.002959	-0.287383	-0.097165
C29	C	1.002979	-0.608464	-0.097174
C30	C	1.002983	-0.712573	-0.097176
C31	C	1.112416	-0.712535	-0.249778
C32	C	1.112410	-0.608433	-0.249777
C33	C	1.057689	-0.556402	-0.173472
C34	C	1.221156	0.000045	-0.164561
C35	C	1.320467	0.000055	-0.167191
C36	C	1.062786	0.000033	0.056112
C37	C	1.060157	0.000034	0.195527
N38	N	1.057700	0.235396	-0.173473
C39	C	1.052574	0.000046	-0.403072
C40	C	1.055204	0.000051	-0.542487
C41	C	1.140308	0.000037	0.275870
C42	C	1.137832	0.000049	0.406865
C43	C	0.975046	0.000052	0.377159
C44	C	0.977523	0.000047	0.246168
H45	H	0.786202	-0.163530	-0.179551
H46	H	1.207594	0.000029	0.234644
H47	H	0.907768	0.000060	0.418407
H48	H	1.156968	-0.754904	-0.311913
C49	C	0.603579	-0.189291	-0.174698
N50	N	0.564916	-0.263990	-0.173683
C51	C	0.315776	-0.189277	-0.167065
N52	N	0.277113	-0.263976	-0.166043
C53	C	1.226006	0.000043	0.495238
N54	N	1.292423	0.000037	0.561800
C55	C	1.172554	-0.448684	-0.333752
N56	N	1.217856	-0.491789	-0.397029
C57	C	0.315833	0.189383	-0.167059
N58	N	0.277196	0.264087	-0.166024
C59	C	0.511777	0.189372	-0.172234
N60	N	0.550439	0.264073	-0.173237
H61	H	0.912249	0.000048	0.180748
C62	C	1.172573	-0.230083	-0.333708
N63	N	1.217913	-0.186953	-0.396925
C64	C	0.799583	0.189366	-0.179884
N65	N	0.838252	0.264061	-0.180907
H66	H	0.498406	-0.163515	-0.171896
C67	C	0.942810	-0.769847	-0.013228
N68	N	0.897490	-0.812986	0.050009
H69	H	1.156957	-0.566041	-0.311911
H70	H	0.958420	-0.566103	-0.035037
C71	C	0.942763	-0.230148	-0.013235
N72	N	0.897423	-0.187041	0.049986
C73	C	0.942779	-0.448764	-0.013241
N74	N	0.897442	-0.491907	0.049968
H75	H	0.616960	0.163609	-0.175053
