data_functionalizedCrystal
_audit_creation_method	'MofGen! by Chris Wilmer'
_symmetry_space_group_name_H-M	'P1'
_symmetry_Int_Tables_number	1
_symmetry_cell_setting	triclinic
loop_
_symmetry_equiv_pos_as_xyz
  x,y,z
_cell_length_a	19.288864
_cell_length_b	15.995350
_cell_length_c	17.766277
_cell_angle_alpha	89.995869
_cell_angle_beta	89.976791
_cell_angle_gamma	83.314311
loop_
_atom_site_label
_atom_site_type_symbol
_atom_site_fract_x
_atom_site_fract_y
_atom_site_fract_z
O1	O	0.921624	0.104452	-0.062832
O2	O	1.254958	0.437785	0.270501
O3	O	1.588291	0.771118	0.603835
O4	O	0.719400	0.118542	-0.062780
O5	O	1.052733	0.451875	0.270553
O6	O	1.386067	0.785208	0.603887
O7	O	0.826040	-0.010412	-0.062807
O8	O	1.159373	0.322922	0.270527
O9	O	1.492707	0.656255	0.603860
O10	O	0.814984	0.233405	-0.062805
O11	O	1.148318	0.566739	0.270528
O12	O	1.481651	0.900072	0.603861
O13	O	0.826021	-0.010418	0.062382
O14	O	1.159355	0.322915	0.395715
O15	O	1.492688	0.656248	0.729048
O16	O	0.719381	0.118535	0.062408
O17	O	1.052715	0.451869	0.395742
O18	O	1.386048	0.785202	0.729075
O19	O	0.921605	0.104445	0.062357
O20	O	1.254939	0.437778	0.395690
O21	O	1.588272	0.771112	0.729023
Cu22	Cu	0.820492	0.111490	0.073813
Cu23	Cu	1.153825	0.444823	0.407147
Cu24	Cu	1.487158	0.778156	0.740480
Cu25	Cu	0.820514	0.111497	-0.074237
Cu26	Cu	1.153847	0.444831	0.259097
Cu27	Cu	1.487181	0.778164	0.592430
O28	O	0.814965	0.233399	0.062383
O29	O	1.148299	0.566732	0.395717
O30	O	1.481632	0.900065	0.729050
C31	C	0.693513	0.118085	-0.000179
C32	C	1.026846	0.451419	0.333154
C33	C	1.360180	0.784752	0.666487
C34	C	0.616406	0.116724	-0.000159
C35	C	0.949739	0.450058	0.333174
C36	C	1.283073	0.783391	0.666507
C37	C	0.571906	0.192388	-0.000171
C38	C	0.905239	0.525722	0.333162
C39	C	1.238573	0.859055	0.666496
C40	C	0.499456	0.191110	-0.000179
C41	C	0.832789	0.524443	0.333154
C42	C	1.166122	0.857776	0.666487
C43	C	0.471508	0.114163	-0.000191
C44	C	0.804842	0.447496	0.333142
C45	C	1.138175	0.780829	0.666475
C46	C	0.516018	0.038489	-0.000176
C47	C	0.849351	0.371822	0.333158
C48	C	1.182685	0.705155	0.666491
C49	C	0.588467	0.039769	-0.000160
C50	C	0.921800	0.373103	0.333174
C51	C	1.255134	0.706436	0.666507
C52	C	0.363096	0.053676	-0.044076
C53	C	0.696429	0.387009	0.289257
C54	C	1.029763	0.720343	0.622591
C55	C	0.290648	0.052398	-0.044097
C56	C	0.623982	0.385732	0.289237
C57	C	0.957315	0.719065	0.622570
C58	C	0.248053	0.110209	-0.000237
C59	C	0.581386	0.443543	0.333097
C60	C	0.914719	0.776876	0.666430
C61	C	0.277912	0.169312	0.043634
C62	C	0.611246	0.502645	0.376967
C63	C	0.944579	0.835979	0.710300
C64	C	0.350361	0.170593	0.043650
C65	C	0.683694	0.503926	0.376983
C66	C	1.017028	0.837259	0.710316
C67	C	0.392951	0.112765	-0.000208
C68	C	0.726284	0.446099	0.333125
C69	C	1.059618	0.779432	0.666459
C70	C	0.124993	0.184492	-0.000256
C71	C	0.458327	0.517826	0.333077
C72	C	0.791660	0.851159	0.666410
C73	C	0.052542	0.183210	-0.000260
C74	C	0.385875	0.516544	0.333073
C75	C	0.719208	0.849877	0.666407
C76	C	0.069106	0.030587	-0.000264
C77	C	0.402439	0.363920	0.333070
C78	C	0.735773	0.697254	0.666403
C79	C	0.141556	0.031871	-0.000253
C80	C	0.474889	0.365204	0.333081
C81	C	0.808222	0.698538	0.666414
C82	C	0.169495	0.108826	-0.000252
C83	C	0.502828	0.442159	0.333081
C84	C	0.836161	0.775493	0.666414
C85	C	0.825574	-0.041608	-0.000214
C86	C	1.158907	0.291725	0.333120
C87	C	1.492240	0.625059	0.666453
C88	C	0.824203	-0.134553	-0.000218
C89	C	1.157537	0.198780	0.333116
C90	C	1.490870	0.532113	0.666449
C91	C	0.819282	-0.472282	-0.000214
C92	C	1.152616	-0.138949	0.333119
C93	C	1.485949	0.194384	0.666453
C94	C	0.743335	-0.424562	-0.000475
C95	C	1.076669	-0.091228	0.332858
C96	C	1.410002	0.242105	0.666191
C97	C	0.744706	-0.327877	-0.000193
C98	C	1.078039	0.005457	0.333140
C99	C	1.411373	0.338790	0.666473
C100	C	0.821723	-0.304731	-0.000216
C101	C	1.155057	0.028602	0.333117
C102	C	1.488390	0.361936	0.666450
C103	C	0.859172	-0.345953	0.071262
C104	C	1.192506	-0.012620	0.404595
C105	C	1.525839	0.320713	0.737928
C106	C	0.857264	-0.442582	0.071322
C107	C	1.190598	-0.109249	0.404655
C108	C	1.523931	0.224085	0.737989
C109	C	0.858855	-0.442939	-0.071041
C110	C	1.192188	-0.109605	0.262292
C111	C	1.525521	0.223728	0.595625
C112	C	0.858837	-0.345993	-0.071986
C113	C	1.192170	-0.012660	0.261347
C114	C	1.525503	0.320674	0.594681
C115	C	0.823107	-0.210039	-0.000215
C116	C	1.156440	0.123295	0.333118
C117	C	1.489774	0.456628	0.666452
C118	C	0.817901	-0.566975	-0.000210
C119	C	1.151234	-0.233642	0.333123
C120	C	1.484568	0.099692	0.666457
C121	C	0.947492	0.104902	-0.000246
C122	C	1.280826	0.438235	0.333087
C123	C	1.614159	0.771568	0.666421
C124	C	1.024600	0.106263	-0.000271
C125	C	1.357933	0.439596	0.333063
C126	C	1.691266	0.772929	0.666396
C127	C	0.815432	0.264595	-0.000211
C128	C	1.148765	0.597928	0.333122
C129	C	1.482099	0.931262	0.666455
C130	C	0.816802	0.357540	-0.000212
C131	C	1.150136	0.690873	0.333121
C132	C	1.483469	1.024207	0.666454
N133	N	0.820481	0.111484	0.177944
N134	N	1.153815	0.444817	0.511277
N135	N	1.487148	0.778150	0.844610
N136	N	0.820530	0.111497	-0.178367
N137	N	1.153863	0.444830	0.154966
N138	N	1.487197	0.778163	0.488300
C139	C	0.867717	0.054411	0.217319
C140	C	1.201050	0.387744	0.550652
C141	C	1.534383	0.721078	0.883985
C142	C	0.867721	0.054407	0.296120
C143	C	1.201054	0.387740	0.629454
C144	C	1.534387	0.721074	0.962787
C145	C	0.820496	0.111490	0.335544
C146	C	1.153829	0.444824	0.668877
C147	C	1.487163	0.778157	1.002211
C148	C	0.773251	0.168567	0.296160
C149	C	1.106585	0.501901	0.629493
C150	C	1.439918	0.835234	0.962826
C151	C	0.773244	0.168564	0.217359
C152	C	1.106577	0.501897	0.550693
C153	C	1.439911	0.835231	0.884026
C154	C	0.811395	0.187781	0.460384
C155	C	1.144728	0.521114	0.793717
C156	C	1.478062	0.854448	1.127051
C157	C	0.811407	0.187785	0.539183
C158	C	1.144741	0.521119	0.872516
C159	C	1.478074	0.854452	1.205849
C160	C	0.820514	0.111500	0.578590
C161	C	1.153848	0.444834	0.911924
C162	C	1.487181	0.778167	1.245257
C163	C	0.829624	0.035208	0.539190
C164	C	1.162957	0.368541	0.872523
C165	C	1.496291	0.701874	1.205856
C166	C	0.829617	0.035204	0.460389
C167	C	1.162950	0.368538	0.793723
C168	C	1.496284	0.701871	1.127056
C169	C	0.820498	0.111500	0.420990
C170	C	1.153832	0.444833	0.754323
C171	C	1.487165	0.778167	1.087656
C172	C	0.867757	0.054419	0.703411
C173	C	1.201090	0.387752	1.036745
C174	C	1.534424	0.721085	1.370078
C175	C	0.867756	0.054414	0.782215
C176	C	1.201089	0.387747	1.115548
C177	C	1.534423	0.721080	1.448881
C178	C	0.773290	0.168581	0.782252
C179	C	1.106623	0.501915	1.115586
C180	C	1.439957	0.835248	1.448919
C181	C	0.773288	0.168579	0.703451
C182	C	1.106621	0.501912	1.036784
C183	C	1.439954	0.835246	1.370117
C184	C	0.820525	0.111499	0.664035
C185	C	1.153858	0.444832	0.997368
C186	C	1.487191	0.778165	1.330702
H187	H	0.594649	0.255051	-0.000172
H188	H	0.927982	0.588384	0.333161
H189	H	1.261316	0.921718	0.666495
H190	H	0.712988	-0.442976	-0.051732
H191	H	1.046321	-0.109643	0.281601
H192	H	1.379654	0.223690	0.614934
H193	H	0.734836	0.215056	0.814350
H194	H	1.068169	0.548390	1.147684
H195	H	1.401503	0.881723	1.481017
H196	H	0.374670	0.218713	0.079373
H197	H	0.708003	0.552047	0.412706
H198	H	1.041336	0.885380	0.746039
O199	O	0.934121	-0.327523	0.074767
O200	O	1.267454	0.005811	0.408101
O201	O	1.600788	0.339144	0.741434
H202	H	0.959388	-0.357342	0.125761
H203	H	1.292721	-0.024009	0.459095
H204	H	1.626054	0.309325	0.792428
H205	H	0.831457	-0.318638	-0.124863
H206	H	1.164790	0.014695	0.208470
H207	H	1.498123	0.348028	0.541803
H208	H	0.837040	-0.026911	0.571273
H209	H	1.170373	0.306422	0.904607
H210	H	1.503706	0.639755	1.237940
H211	H	0.016310	0.244828	-0.000265
H212	H	0.349643	0.578161	0.333069
H213	H	0.682977	0.911495	0.666402
O214	O	0.231983	0.231668	0.090950
O215	O	0.565316	0.565002	0.424283
O216	O	0.898650	0.898335	0.757617
H217	H	0.176589	0.220844	0.083579
H218	H	0.509922	0.554177	0.416913
H219	H	0.843256	0.887511	0.750246
O220	O	0.189559	-0.049738	-0.000247
O221	O	0.522893	0.283595	0.333087
O222	O	0.856226	0.616928	0.666420
H223	H	0.157957	-0.103461	-0.000261
H224	H	0.491290	0.229872	0.333072
H225	H	0.824624	0.563206	0.666406
H226	H	0.906218	0.007938	0.671318
H227	H	1.239551	0.341271	1.004651
H228	H	1.572885	0.674604	1.337985
O229	O	0.824706	-0.308238	0.141747
O230	O	1.158040	0.025095	0.475080
O231	O	1.491373	0.358428	0.808413
H232	H	0.780910	-0.260147	0.126051
H233	H	1.114244	0.073186	0.459384
H234	H	1.447577	0.406519	0.792717
H235	H	0.834032	-0.463382	-0.125218
H236	H	1.167365	-0.130048	0.208115
H237	H	1.500699	0.203285	0.541449
O238	O	0.258451	-0.011355	-0.091405
O239	O	0.591785	0.321978	0.241928
O240	O	0.925118	0.655311	0.575262
H241	H	0.271460	-0.002482	-0.151524
H242	H	0.604793	0.330851	0.181809
H243	H	0.938127	0.664184	0.515143
H244	H	0.906219	0.007934	0.814274
H245	H	1.239552	0.341267	1.147608
H246	H	1.572885	0.674600	1.480941
H247	H	0.734778	0.215040	0.185299
H248	H	1.068112	0.548374	0.518633
H249	H	1.401445	0.881707	0.851966
H250	H	0.734799	0.215044	0.328262
H251	H	1.068132	0.548378	0.661596
H252	H	1.401466	0.881711	0.994929
O253	O	0.821066	-0.466693	0.142115
O254	O	1.154399	-0.133359	0.475449
O255	O	1.487733	0.199974	0.808782
H256	H	0.857360	-0.511188	0.175465
H257	H	1.190694	-0.177854	0.508799
H258	H	1.524027	0.155479	0.842132
O259	O	0.451445	0.272721	-0.000200
O260	O	0.784779	0.606054	0.333134
O261	O	1.118112	0.939388	0.666467
H262	H	0.483045	0.326446	-0.000202
H263	H	0.816378	0.659780	0.333131
H264	H	1.149712	0.993113	0.666465
O265	O	0.636465	-0.041847	-0.000148
O266	O	0.969799	0.291487	0.333186
O267	O	1.303132	0.624820	0.666519
H268	H	0.691538	-0.028028	-0.000131
H269	H	1.024871	0.305305	0.333202
H270	H	1.358204	0.638639	0.666536
H271	H	0.046352	-0.032065	-0.000320
H272	H	0.379685	0.301269	0.333013
H273	H	0.713019	0.634602	0.666346
O274	O	0.155137	0.267487	-0.000241
O275	O	0.488470	0.600821	0.333093
O276	O	0.821803	0.934154	0.666426
H277	H	0.112018	0.319889	-0.000235
H278	H	0.445351	0.653222	0.333098
H279	H	0.778684	0.986556	0.666431
H280	H	0.734827	0.215056	0.671389
H281	H	1.068160	0.548390	1.004723
H282	H	1.401493	0.881723	1.338056
H283	H	0.913023	-0.475041	0.074549
H284	H	1.246356	-0.141707	0.407882
H285	H	1.579690	0.191626	0.741216
H286	H	0.803994	0.249907	0.571257
H287	H	1.137327	0.583241	0.904590
H288	H	1.470661	0.916574	1.237924
H289	H	0.915002	-0.330843	-0.076319
H290	H	1.248335	0.002491	0.257014
H291	H	1.581668	0.335824	0.590348
H292	H	0.914850	-0.474911	-0.071538
H293	H	1.248183	-0.141577	0.261795
H294	H	1.581517	0.191756	0.595128
O295	O	0.918654	-0.007162	0.174804
O296	O	1.251987	0.326171	0.508137
O297	O	1.585320	0.659505	0.841471
H298	H	0.951495	-0.046856	0.215428
H299	H	1.284829	0.286478	0.548762
H300	H	1.618162	0.619811	0.882095
O301	O	0.918676	-0.007143	0.338604
O302	O	1.252009	0.326190	0.671938
O303	O	1.585343	0.659523	1.005271
H304	H	0.951525	-0.046830	0.297957
H305	H	1.284858	0.286504	0.631291
H306	H	1.618192	0.619837	0.964624
O307	O	0.705710	-0.290074	-0.068061
O308	O	1.039043	0.043259	0.265272
O309	O	1.372376	0.376593	0.598606
H310	H	0.706653	-0.220824	-0.067930
H311	H	1.039987	0.112509	0.265404
H312	H	1.373320	0.445843	0.598737
H313	H	0.397772	0.006598	-0.079796
H314	H	0.731106	0.339931	0.253537
H315	H	1.064439	0.673264	0.586870
O316	O	0.801577	0.270065	0.417881
O317	O	1.134910	0.603398	0.751215
O318	O	1.468244	0.936731	1.084548
H319	H	0.795257	0.323114	0.458515
H320	H	1.128590	0.656447	0.791848
H321	H	1.461924	0.989781	1.125182
H322	H	0.493259	-0.024162	-0.000196
H323	H	0.826592	0.309171	0.333138
H324	H	1.159926	0.642504	0.666471
O325	O	0.703290	-0.450350	0.067067
O326	O	1.036624	-0.117016	0.400401
O327	O	1.369957	0.216317	0.733734
H328	H	0.737244	-0.497005	0.100823
H329	H	1.070578	-0.163672	0.434157
H330	H	1.403911	0.169661	0.767490
O331	O	0.839429	-0.047075	0.417889
O332	O	1.172763	0.286259	0.751222
O333	O	1.506096	0.619592	1.084556
H334	H	0.845758	-0.100124	0.458524
H335	H	1.179091	0.233209	0.791857
H336	H	1.512424	0.566542	1.125190
H337	H	0.715054	-0.299903	0.051147
H338	H	1.048388	0.033431	0.384480
H339	H	1.381721	0.366764	0.717813
