data_functionalizedCrystal
_audit_creation_method	'MofGen! by Chris Wilmer'
_symmetry_space_group_name_H-M	'P1'
_symmetry_Int_Tables_number	1
_symmetry_cell_setting	triclinic
loop_
_symmetry_equiv_pos_as_xyz
  x,y,z
_cell_length_a	12.811438
_cell_length_b	12.837942
_cell_length_c	7.088929
_cell_angle_alpha	83.116986
_cell_angle_beta	90.842670
_cell_angle_gamma	89.411773
loop_
_atom_site_label
_atom_site_type_symbol
_atom_site_fract_x
_atom_site_fract_y
_atom_site_fract_z
O1	O	1.382295	0.166302	-0.398637
O2	O	1.081416	0.178008	-0.346477
O3	O	1.225185	0.021145	-0.371389
O4	O	1.238527	0.323165	-0.373726
O5	O	1.244393	0.000134	-0.056742
O6	O	1.100624	0.156996	-0.031831
O7	O	1.401504	0.145291	-0.083991
Cu8	Cu	1.252818	0.149225	-0.029181
Cu9	Cu	1.230102	0.174073	-0.401287
O10	O	1.257735	0.302153	-0.059079
C11	C	1.052242	0.166202	-0.182431
C12	C	0.936692	0.162316	-0.162400
C13	C	0.784301	0.145386	0.037337
C14	C	0.892870	0.149038	0.018524
C15	C	0.871936	0.171946	-0.324522
C16	C	0.763367	0.168294	-0.305709
C17	C	0.719554	0.155012	-0.124774
C18	C	0.610982	0.151354	-0.105962
C19	C	0.590050	0.174269	-0.449007
C20	C	0.698620	0.177921	-0.467820
C21	C	1.230281	-0.028053	-0.213285
C22	C	1.216837	-0.143344	-0.210958
C23	C	1.378453	-0.381724	-0.239015
C24	C	1.365826	-0.490051	-0.236830
C25	C	1.178957	-0.468326	-0.204414
C26	C	1.191583	-0.359999	-0.206600
C27	C	1.291335	-0.316703	-0.223898
C28	C	1.303962	-0.208375	-0.226070
C29	C	1.117092	-0.186650	-0.193669
C30	C	1.104465	-0.294977	-0.191483
C31	C	1.430678	0.157097	-0.248041
C32	C	1.546226	0.160984	-0.268085
C33	C	1.252638	0.351352	-0.217187
C34	C	1.266081	0.466644	-0.219527
N35	N	1.268803	0.131748	0.232537
N36	N	1.214124	0.191543	-0.663007
H37	H	0.945584	0.141202	0.150532
C38	C	1.413682	-0.160749	-0.245104
H39	H	1.463756	-0.214991	-0.253813
H40	H	1.429199	-0.126272	-0.136909
H41	H	1.415786	-0.111612	-0.356369
C42	C	1.137564	0.275252	0.239981
H43	H	1.104994	0.310883	0.333773
H44	H	1.085882	0.242375	0.170864
H45	H	1.174593	0.324156	0.155464
H46	H	0.537321	0.182112	-0.581010
C47	C	1.345365	0.048035	0.329567
H48	H	1.344271	0.049231	0.463263
H49	H	1.413878	0.062500	0.284953
H50	H	1.325163	-0.019278	0.300367
H51	H	1.436767	-0.542989	-0.249146
C52	C	0.562787	0.136750	0.093055
H53	H	0.616902	0.131552	0.186906
H54	H	0.522811	0.074469	0.107206
H55	H	0.518930	0.195241	0.107847
H56	H	0.734308	0.188739	-0.615133
C57	C	0.736102	0.130772	0.236351
H58	H	0.790214	0.125565	0.330208
H59	H	0.696124	0.068492	0.250481
H60	H	0.692245	0.189262	0.251155
H61	H	1.023250	-0.330244	-0.177406
C62	C	0.920145	0.186550	-0.523529
H63	H	0.994078	0.187340	-0.511506
H64	H	0.896111	0.251036	-0.590603
H65	H	0.899999	0.130264	-0.591243
C66	C	1.488173	-0.334096	-0.258027
H67	H	1.538250	-0.388336	-0.266721
H68	H	1.503678	-0.299618	-0.149829
H69	H	1.490284	-0.284959	-0.369292
C70	C	1.069242	-0.515965	-0.185389
H71	H	1.074204	-0.589793	-0.186246
H72	H	1.026215	-0.486418	-0.288806
H73	H	1.039626	-0.501087	-0.069346
C74	C	1.021257	-0.115123	-0.177055
H75	H	1.043060	-0.044405	-0.180847
H76	H	0.987494	-0.135744	-0.060319
H77	H	0.974101	-0.121081	-0.279782
