data_functionalizedCrystal
_audit_creation_method	'MofGen! by Chris Wilmer'
_symmetry_space_group_name_H-M	'P1'
_symmetry_Int_Tables_number	1
_symmetry_cell_setting	triclinic
loop_
_symmetry_equiv_pos_as_xyz
  x,y,z
_cell_length_a	12.827892
_cell_length_b	12.759401
_cell_length_c	12.759393
_cell_angle_alpha	89.979541
_cell_angle_beta	89.970854
_cell_angle_gamma	90.016917
loop_
_atom_site_label
_atom_site_type_symbol
_atom_site_fract_x
_atom_site_fract_y
_atom_site_fract_z
Zn1	Zn	-0.415947	1.606256	-0.594025
Zn2	Zn	0.084053	2.106256	-0.094025
Zn3	Zn	-0.590722	1.606147	-0.418348
Zn4	Zn	-0.090722	2.106147	0.081652
Zn5	Zn	-0.416000	1.430557	-0.418361
Zn6	Zn	0.084000	1.930557	0.081639
Zn7	Zn	-0.590651	1.430545	-0.593985
Zn8	Zn	-0.090651	1.930545	-0.093985
O9	O	-0.503330	1.518376	-0.506180
O10	O	-0.003330	2.018376	-0.006180
O11	O	-0.439138	1.753263	-0.570733
O12	O	0.060862	2.253263	-0.070733
O13	O	-0.567597	1.582813	-0.271328
O14	O	-0.067597	2.082813	0.228672
O15	O	-0.269757	1.453914	-0.441685
O16	O	0.230243	1.953914	0.058315
O17	O	-0.567545	1.753182	-0.441663
O18	O	-0.067545	2.253182	0.058337
O19	O	-0.269718	1.583000	-0.570745
O20	O	0.230282	2.083000	-0.070745
O21	O	-0.439230	1.453808	-0.271338
O22	O	0.060770	1.953808	0.228662
O23	O	-0.439161	1.283534	-0.441646
O24	O	0.060839	1.783534	0.058354
O25	O	-0.567424	1.453894	-0.741011
O26	O	-0.067424	1.953894	-0.241011
O27	O	-0.567476	1.283525	-0.570676
O28	O	-0.067476	1.783525	-0.070676
O29	O	-0.439069	1.582989	-0.741041
O30	O	0.060931	2.082989	-0.241041
O31	O	-0.736949	1.582802	-0.441624
O32	O	-0.236949	2.082802	0.058376
O33	O	-0.736896	1.453788	-0.570664
O34	O	-0.236896	1.953788	-0.070664
C35	C	-0.503317	1.245409	-0.506159
C36	C	-0.003317	1.745409	-0.006159
C37	C	-0.503337	1.128632	-0.506175
C38	C	-0.003337	1.628632	-0.006175
C39	C	-0.570252	1.073793	-0.573255
C40	C	-0.070252	1.573793	-0.073255
C41	C	-0.570256	0.964069	-0.573276
C42	C	-0.070256	1.464069	-0.073276
C43	C	-0.436426	0.964033	-0.439127
C44	C	0.063574	1.464033	0.060873
C45	C	-0.436418	1.073755	-0.439112
C46	C	0.063582	1.573755	0.060888
C47	C	-0.774840	1.518310	-0.506161
C48	C	-0.274840	2.018310	-0.006161
C49	C	-0.890993	1.518378	-0.506188
C50	C	-0.390993	2.018378	-0.006188
C51	C	-0.942769	1.582294	-0.442406
C52	C	-0.442769	2.082294	0.057594
C53	C	-1.062819	1.582366	-0.442433
C54	C	-0.562819	2.082366	0.057567
C55	C	-0.230760	1.518471	-0.506221
C56	C	0.269240	2.018471	-0.006221
C57	C	-0.114607	1.518511	-0.506239
C58	C	0.385393	2.018511	-0.006239
C59	C	-0.503233	1.518452	-0.780213
C60	C	-0.003233	2.018452	-0.280213
C61	C	-0.503191	1.518485	-0.896990
C62	C	-0.003191	2.018485	-0.396990
C63	C	-0.503343	1.792409	-0.506201
C64	C	-0.003343	2.292409	-0.006201
C65	C	-0.503349	1.909186	-0.506210
C66	C	-0.003349	2.409186	-0.006210
C67	C	-0.569954	1.585686	-1.061582
C68	C	-0.069954	2.085686	-0.561582
C69	C	-0.570004	1.585660	-0.951858
C70	C	-0.070004	2.085660	-0.451858
C71	C	-0.436332	1.451323	-0.951851
C72	C	0.063668	1.951323	-0.451851
C73	C	-0.436289	1.451344	-1.061573
C74	C	0.063711	1.951344	-0.561573
C75	C	-0.503351	1.518361	-0.233212
C76	C	-0.003351	2.018361	0.266788
C77	C	-0.503098	1.518532	-0.116436
C78	C	-0.003098	2.018532	0.383564
H79	H	-0.624744	0.919424	-0.627901
H80	H	-0.124744	1.419424	-0.127901
H81	H	-0.898222	1.636967	-0.387783
H82	H	-0.398222	2.136967	0.112217
C83	C	-0.643529	1.659558	-0.891524
C84	C	-0.143529	2.159558	-0.391524
N85	N	-0.698904	1.715228	-0.846081
N86	N	-0.198904	2.215228	-0.346081
H87	H	-1.070088	1.463783	-0.560844
H88	H	-0.570088	1.963783	-0.060844
C89	C	-0.362829	1.377439	-0.891492
C90	C	0.137171	1.877439	-0.391492
N91	N	-0.307458	1.321794	-0.846030
N92	N	0.192542	1.821794	-0.346030
C93	C	-0.951172	1.444520	-0.579987
C94	C	-0.451172	1.944520	-0.079987
N95	N	-0.996498	1.388887	-0.635572
N96	N	-0.496498	1.888887	-0.135572
C97	C	-0.643455	1.659585	-1.121928
C98	C	-0.143455	2.159585	-0.621928
N99	N	-0.698822	1.715244	-1.167377
N100	N	-0.198822	2.215244	-0.667377
H101	H	-0.381845	1.396654	-1.106236
H102	H	0.118155	1.896654	-0.606236
C103	C	-1.122969	1.656292	-0.368657
C104	C	-0.622969	2.156292	0.131343
N105	N	-1.168276	1.711976	-0.313087
N106	N	-0.668276	2.211976	0.186913
H107	H	-0.624739	1.118471	-0.627864
H108	H	-0.124739	1.618471	-0.127864
H109	H	-0.381945	0.919338	-0.384525
H110	H	0.118055	1.419338	0.115475
H111	H	-0.381921	1.118406	-0.384487
H112	H	0.118079	1.618406	0.115513
