data_functionalizedCrystal
_audit_creation_method	'MofGen! by Chris Wilmer'
_symmetry_space_group_name_H-M	'P1'
_symmetry_Int_Tables_number	1
_symmetry_cell_setting	triclinic
loop_
_symmetry_equiv_pos_as_xyz
  x,y,z
_cell_length_a	14.908993
_cell_length_b	14.908178
_cell_length_c	12.827885
_cell_angle_alpha	86.668451
_cell_angle_beta	93.273373
_cell_angle_gamma	96.795214
loop_
_atom_site_label
_atom_site_type_symbol
_atom_site_fract_x
_atom_site_fract_y
_atom_site_fract_z
Zn1	Zn	1.363026	-0.280420	-0.481129
Zn2	Zn	1.696359	0.052914	-0.147796
Zn3	Zn	2.029693	0.386247	0.185537
Zn4	Zn	1.354190	-0.431827	-0.296842
Zn5	Zn	1.687524	-0.098494	0.036492
Zn6	Zn	2.020857	0.234839	0.369825
Zn7	Zn	1.211654	-0.289207	-0.315914
Zn8	Zn	1.544988	0.044127	0.017419
Zn9	Zn	1.878321	0.377460	0.350752
Zn10	Zn	1.202905	-0.440497	-0.481055
Zn11	Zn	1.536239	-0.107164	-0.147722
Zn12	Zn	1.869572	0.226169	0.185611
O13	O	1.282944	-0.360488	-0.393735
O14	O	1.616277	-0.027154	-0.060402
O15	O	1.949611	0.306179	0.272931
O16	O	1.488517	-0.293198	-0.448732
O17	O	1.821850	0.040135	-0.115399
O18	O	2.155183	0.373469	0.217934
O19	O	1.335247	-0.412957	-0.153135
O20	O	1.668580	-0.079624	0.180199
O21	O	2.001913	0.253709	0.513532
O22	O	1.239093	-0.161361	-0.345844
O23	O	1.572426	0.171972	-0.012510
O24	O	1.905760	0.505306	0.320823
O25	O	1.482025	-0.404437	-0.313337
O26	O	1.815359	-0.071103	0.019996
O27	O	2.148692	0.262230	0.353330
O28	O	1.350305	-0.154905	-0.467226
O29	O	1.683638	0.178428	-0.133893
O30	O	2.016972	0.511762	0.199440
O31	O	1.230526	-0.308175	-0.167147
O32	O	1.563859	0.025159	0.166186
O33	O	1.897193	0.358492	0.499519
O34	O	1.083831	-0.316582	-0.345772
O35	O	1.417164	0.016752	-0.012438
O36	O	1.750498	0.350085	0.320895
O37	O	1.224182	-0.419214	-0.627302
O38	O	1.557515	-0.085880	-0.293969
O39	O	1.890849	0.247453	0.039365
O40	O	1.077403	-0.427734	-0.467100
O41	O	1.410736	-0.094401	-0.133767
O42	O	1.744070	0.238932	0.199567
O43	O	1.341822	-0.301605	-0.627357
O44	O	1.675155	0.031728	-0.294023
O45	O	2.008488	0.365061	0.039310
O46	O	1.326763	-0.559658	-0.313265
O47	O	1.660096	-0.226324	0.020068
O48	O	1.993430	0.107009	0.353402
O49	O	1.215615	-0.566028	-0.448606
O50	O	1.548948	-0.232694	-0.115273
O51	O	1.882281	0.100639	0.218061
C52	C	1.047775	-0.374053	-0.408498
C53	C	1.381108	-0.040720	-0.075165
C54	C	1.714441	0.292614	0.258169
C55	C	0.947167	-0.379878	-0.414837
C56	C	1.280500	-0.046545	-0.081504
C57	C	1.613834	0.286788	0.251830
C58	C	0.764766	-0.274907	-0.300607
C59	C	1.098099	0.058426	0.032726
C60	C	1.431433	0.391760	0.366059
C61	C	0.670236	-0.280377	-0.306560
C62	C	1.003569	0.052956	0.026773
C63	C	1.336903	0.386290	0.360107
C64	C	0.663576	-0.396293	-0.432689
C65	C	0.996909	-0.062960	-0.099356
C66	C	1.330243	0.270374	0.233978
C67	C	0.758106	-0.390823	-0.426736
C68	C	1.091439	-0.057489	-0.093403
C69	C	1.424772	0.275844	0.239930
C70	C	0.808697	-0.330127	-0.360694
C71	C	1.142031	0.003207	-0.027361
C72	C	1.475364	0.336540	0.305972
C73	C	0.903229	-0.324652	-0.354748
C74	C	1.236563	0.008681	-0.021414
C75	C	1.569896	0.342014	0.311919
C76	C	0.896567	-0.440572	-0.480871
C77	C	1.229900	-0.107239	-0.147537
C78	C	1.563234	0.226094	0.185796
C79	C	0.802037	-0.446042	-0.486823
C80	C	1.135370	-0.112709	-0.153490
C81	C	1.468704	0.220624	0.179843
C82	C	1.269305	-0.595688	-0.378879
C83	C	1.602639	-0.262355	-0.045546
C84	C	1.935972	0.070979	0.287788
C85	C	1.263553	-0.696303	-0.372553
C86	C	1.596887	-0.362970	-0.039220
C87	C	1.930220	-0.029636	0.294114
C88	C	1.368462	-0.878501	-0.487211
C89	C	1.701796	-0.545168	-0.153878
C90	C	2.035129	-0.211835	0.179456
C91	C	1.363061	-0.973038	-0.481271
C92	C	1.696394	-0.639705	-0.147937
C93	C	2.029728	-0.306371	0.185396
C94	C	1.247346	-0.979914	-0.354738
C95	C	1.580679	-0.646581	-0.021405
C96	C	1.914012	-0.313247	0.311928
C97	C	1.252747	-0.885378	-0.360679
C98	C	1.586080	-0.552044	-0.027345
C99	C	1.919414	-0.218711	0.305988
C100	C	1.313308	-0.834674	-0.426916
C101	C	1.646642	-0.501341	-0.093583
C102	C	1.979975	-0.168008	0.239751
C103	C	1.318714	-0.740136	-0.432850
C104	C	1.652047	-0.406803	-0.099517
C105	C	1.985380	-0.073469	0.233816
C106	C	1.202994	-0.747014	-0.306324
C107	C	1.536327	-0.413681	0.027009
C108	C	1.869661	-0.080348	0.360343
C109	C	1.197593	-0.841551	-0.300384
C110	C	1.530926	-0.508217	0.032950
C111	C	1.864260	-0.174884	0.366283
C112	C	1.519032	-0.346870	-0.378915
C113	C	1.852365	-0.013537	-0.045582
C114	C	2.185698	0.319797	0.287751
C115	C	1.619638	-0.341067	-0.372600
C116	C	1.952971	-0.007734	-0.039267
C117	C	2.286305	0.325600	0.294067
C118	C	1.283011	-0.360396	-0.666307
C119	C	1.616345	-0.027063	-0.332974
C120	C	1.949678	0.306270	0.000360
C121	C	1.283040	-0.360358	-0.782461
C122	C	1.616374	-0.027024	-0.449128
C123	C	1.949707	0.306309	-0.115794
C124	C	1.296661	-0.124368	-0.408671
C125	C	1.629994	0.208966	-0.075337
C126	C	1.963327	0.542299	0.257996
C127	C	1.302506	-0.023747	-0.415035
C128	C	1.635839	0.309586	-0.081702
C129	C	1.969172	0.642919	0.251631
C130	C	1.341287	-0.302111	-0.954318
C131	C	1.674620	0.031222	-0.620985
C132	C	2.007954	0.364556	-0.287652
C133	C	1.341259	-0.302150	-0.834267
C134	C	1.674592	0.031183	-0.500934
C135	C	2.007925	0.364517	-0.167600
C136	C	1.282933	-0.360510	-0.122225
C137	C	1.616266	-0.027177	0.211109
C138	C	1.949599	0.306156	0.544442
C139	C	1.283094	-0.360284	-0.006076
C140	C	1.616427	-0.026951	0.327257
C141	C	1.949761	0.306382	0.660590
H142	H	0.634471	-0.235410	-0.257632
H143	H	0.967804	0.097923	0.075701
H144	H	1.301138	0.431256	0.409035
C145	C	0.607909	-0.463059	-0.505322
C146	C	0.941242	-0.129725	-0.171989
C147	C	1.274575	0.203608	0.161344
N148	N	0.565979	-0.513347	-0.560031
N149	N	0.899312	-0.180014	-0.226697
N150	N	1.232645	0.153320	0.106636
C151	C	0.958879	-0.257888	-0.282098
C152	C	1.292212	0.075445	0.051235
C153	C	1.625545	0.408778	0.384569
N154	N	1.000791	-0.207603	-0.227373
N155	N	1.334125	0.125731	0.105961
N156	N	1.667458	0.459064	0.439294
H157	H	0.760832	-0.495462	-0.540590
H158	H	1.094166	-0.162129	-0.207256
H159	H	1.427499	0.171205	0.126077
H160	H	1.391133	-0.252282	-0.998883
H161	H	1.724466	0.081052	-0.665550
H162	H	2.057799	0.414385	-0.332216
C163	C	1.215726	-0.427643	-0.842584
C164	C	1.549059	-0.094310	-0.509250
C165	C	1.882392	0.239024	-0.175917
N166	N	1.165024	-0.478322	-0.887876
N167	N	1.498358	-0.144989	-0.554543
N168	N	1.831691	0.188345	-0.221209
H169	H	1.233255	-0.410120	-0.961511
H170	H	1.566588	-0.076787	-0.628177
H171	H	1.899922	0.256547	-0.294844
C172	C	1.435082	-0.822726	-0.560068
C173	C	1.768415	-0.489392	-0.226735
C174	C	2.101749	-0.156059	0.106598
N175	N	1.485260	-0.780717	-0.614948
N176	N	1.818593	-0.447383	-0.281614
N177	N	2.151927	-0.114050	0.051719
H178	H	0.805959	-0.225475	-0.246847
H179	H	1.139293	0.107858	0.086487
H180	H	1.472626	0.441192	0.419820
C181	C	0.944899	-0.501317	-0.546972
C182	C	1.278232	-0.167984	-0.213639
C183	C	1.611566	0.165349	0.119695
N184	N	0.981304	-0.547067	-0.596760
N185	N	1.314637	-0.213734	-0.263427
N186	N	1.647971	0.119599	0.069907
H187	H	1.368028	-0.698854	-0.486781
H188	H	1.701361	-0.365521	-0.153448
H189	H	2.034695	-0.032187	0.179886
H190	H	1.407969	-1.008718	-0.530374
H191	H	1.741302	-0.675385	-0.197041
H192	H	2.074636	-0.342051	0.136292
H193	H	1.198036	-1.021213	-0.300816
H194	H	1.531369	-0.687880	0.032517
H195	H	1.864702	-0.354546	0.365850
C196	C	1.131036	-0.897331	-0.227458
C197	C	1.464369	-0.563998	0.105876
C198	C	1.797702	-0.230665	0.439209
N199	N	1.080926	-0.939343	-0.172501
N200	N	1.414260	-0.606010	0.160833
N201	N	1.747593	-0.272677	0.494166
C202	C	1.142321	-0.698797	-0.239995
C203	C	1.475654	-0.365464	0.093338
C204	C	1.808987	-0.032131	0.426672
N205	N	1.096624	-0.662479	-0.190036
N206	N	1.429958	-0.329146	0.143298
N207	N	1.763291	0.004188	0.476631
H208	H	1.391076	-0.252342	-0.789757
H209	H	1.724409	0.080991	-0.456423
H210	H	2.057743	0.414324	-0.123090
