data_functionalizedCrystal
_audit_creation_method	'MofGen! by Chris Wilmer'
_symmetry_space_group_name_H-M	'P1'
_symmetry_Int_Tables_number	1
_symmetry_cell_setting	triclinic
loop_
_symmetry_equiv_pos_as_xyz
  x,y,z
_cell_length_a	19.805407
_cell_length_b	13.897447
_cell_length_c	19.805399
_cell_angle_alpha	90.023747
_cell_angle_beta	90.017803
_cell_angle_gamma	90.016846
loop_
_atom_site_label
_atom_site_type_symbol
_atom_site_fract_x
_atom_site_fract_y
_atom_site_fract_z
Zn1	Zn	1.034768	-0.384106	0.382706
Zn2	Zn	1.034696	-0.545412	0.269525
Zn3	Zn	0.921583	-0.384125	0.269534
Zn4	Zn	0.921560	-0.545353	0.382675
O5	O	0.978152	-0.464749	0.326110
O6	O	1.129475	-0.405521	0.367701
O7	O	1.019671	-0.524050	0.174810
O8	O	0.936636	-0.249141	0.284563
O9	O	1.129422	-0.524031	0.284548
O10	O	1.019793	-0.249127	0.367710
O11	O	0.936567	-0.405553	0.174816
O12	O	0.826863	-0.405496	0.284533
O13	O	0.936597	-0.523931	0.477396
O14	O	0.826846	-0.523950	0.367658
O15	O	1.019771	-0.405464	0.477418
O16	O	1.019649	-0.680386	0.284518
O17	O	0.936528	-0.680343	0.367649
C18	C	0.802296	-0.464719	0.326094
C19	C	0.727064	-0.464729	0.326103
C20	C	0.691748	-0.403130	0.369466
C21	C	0.621059	-0.403135	0.369469
C22	C	0.585688	-0.464745	0.326111
C23	C	0.621009	-0.526347	0.282742
C24	C	0.691696	-0.526337	0.282737
C25	C	0.335936	-0.526391	0.282763
C26	C	0.265244	-0.526399	0.282773
C27	C	0.265299	-0.403189	0.369495
C28	C	0.335986	-0.403178	0.369490
C29	C	0.371301	-0.464777	0.326119
C30	C	0.447949	-0.464769	0.326116
C31	C	0.509041	-0.464758	0.326117
C32	C	0.978097	-0.715364	0.326094
C33	C	0.978135	-0.822578	0.326110
C34	C	0.978168	-0.909647	0.326126
C35	C	0.978215	-1.018880	0.326143
C36	C	1.154694	-0.464780	0.326127
C37	C	1.229926	-0.464794	0.326134
C38	C	0.978190	-0.464689	0.502653
C39	C	0.978206	-0.464663	0.577885
C40	C	0.978225	-0.213156	0.326141
C41	C	0.978257	-0.105942	0.326154
C42	C	0.978153	-0.464740	0.150254
C43	C	0.978268	-0.464494	0.075022
C44	C	1.021515	-0.402974	0.613242
C45	C	1.021522	-0.402946	0.683930
C46	C	0.978223	-0.464612	0.719260
C47	C	0.934908	-0.526304	0.683899
C48	C	0.934899	-0.526327	0.613211
C49	C	0.934947	-0.526214	0.968972
C50	C	0.934961	-0.526189	1.039664
C51	C	1.021570	-0.402833	1.039691
C52	C	1.021560	-0.402856	0.969004
C53	C	0.978244	-0.464544	0.933648
C54	C	0.978236	-0.464572	0.856999
C55	C	0.978234	-0.464590	0.795908
H56	H	0.364781	-0.353012	0.404799
H57	H	0.899651	-0.576511	0.712670
C58	C	1.069212	-0.334963	1.078588
N59	N	1.105094	-0.283844	1.107885
C60	C	0.887256	-0.594191	0.574319
N61	N	0.851369	-0.645307	0.545026
H62	H	0.720450	-0.576497	0.247425
H63	H	1.056791	-0.352714	0.712715
C64	C	0.887295	-0.594070	0.930090
N65	N	0.851400	-0.645180	0.900802
C66	C	0.582215	-0.335374	0.417175
N67	N	0.552957	-0.284333	0.453109
C68	C	0.730649	-0.335352	0.417164
N69	N	0.759948	-0.284296	0.453089
H70	H	0.236537	-0.353029	0.404807
C71	C	0.226337	-0.594170	0.235068
N72	N	0.197033	-0.645211	0.199137
C73	C	0.374773	-0.594155	0.235057
N74	N	0.404028	-0.645199	0.199122
H75	H	0.592205	-0.576507	0.247436
H76	H	1.056777	-0.352760	0.584481
C77	C	1.069191	-0.335014	0.930144
N78	N	1.105064	-0.283909	0.900876
C79	C	0.887321	-0.594024	1.078526
N80	N	0.851440	-0.645114	1.107797
