data_functionalizedCrystal
_audit_creation_method	'MofGen! by Chris Wilmer'
_symmetry_space_group_name_H-M	'P1'
_symmetry_Int_Tables_number	1
_symmetry_cell_setting	triclinic
loop_
_symmetry_equiv_pos_as_xyz
  x,y,z
_cell_length_a	10.654545
_cell_length_b	15.944493
_cell_length_c	9.130313
_cell_angle_alpha	90.001356
_cell_angle_beta	89.996934
_cell_angle_gamma	83.979061
loop_
_atom_site_label
_atom_site_type_symbol
_atom_site_fract_x
_atom_site_fract_y
_atom_site_fract_z
O1	O	1.666280	0.117961	-0.121764
O2	O	1.300652	0.129206	-0.121768
O3	O	1.493488	0.001363	-0.121778
O4	O	1.473443	0.245804	-0.121754
O5	O	1.493475	0.001360	0.121821
O6	O	1.300638	0.129202	0.121831
O7	O	1.666267	0.117958	0.121835
Cu8	Cu	1.483451	0.123579	0.144076
Cu9	Cu	1.483467	0.123584	-0.144008
O10	O	1.473430	0.245800	0.121845
C11	C	1.253858	0.128379	0.000031
C12	C	1.114447	0.125911	0.000028
C13	C	1.048951	0.124748	0.132815
C14	C	0.917962	0.122415	0.132814
C15	C	0.917977	0.122413	-0.132770
C16	C	1.048965	0.124740	-0.132769
C17	C	1.492662	-0.029938	0.000015
C18	C	1.490206	-0.123201	-0.000003
C19	C	1.603714	-0.358305	0.000026
C20	C	1.542510	-0.409225	-0.120081
C21	C	1.485655	-0.293948	0.000015
C22	C	1.542470	-0.409205	0.120088
C23	C	1.481268	-0.458883	0.000038
C24	C	1.424483	-0.343640	-0.120191
C25	C	1.424459	-0.343616	0.120086
C26	C	1.363169	-0.394504	-0.000050
C27	C	1.488186	-0.198934	-0.000000
C28	C	1.478727	-0.553895	0.000043
C29	C	1.713060	0.118784	0.000033
C30	C	1.852471	0.121252	0.000026
C31	C	1.474256	0.277101	0.000049
C32	C	1.476712	0.370364	0.000058
N33	N	1.483450	0.123576	0.346698
N34	N	1.483479	0.123581	-0.346631
C35	C	1.568866	0.066991	0.423346
C36	C	1.568878	0.066991	0.576682
C37	C	1.398053	0.180168	0.576711
C38	C	1.398036	0.180163	0.423377
H39	H	1.705407	-0.342089	-0.000094
H40	H	1.638413	0.020913	0.360917
H41	H	0.864641	0.121468	0.240943
O42	O	0.854275	0.121433	-0.261722
C43	C	0.764241	0.192698	-0.269643
H44	H	0.793759	0.244154	-0.194283
H45	H	0.757976	0.217050	-0.387085
H46	H	0.668187	0.174518	-0.233966
H47	H	1.102294	0.125685	-0.240906
H48	H	1.374639	-0.314945	0.221631
H49	H	1.592373	-0.437881	-0.221623
O50	O	1.315183	0.235252	0.348980
C51	C	1.335549	0.318534	0.386460
H52	H	1.436092	0.319573	0.428591
H53	H	1.321080	0.360596	0.285619
H54	H	1.265946	0.342777	0.475475
O55	O	1.365156	-0.309476	-0.241432
C56	C	1.368253	-0.221293	-0.239997
H57	H	1.450082	-0.204836	-0.168802
H58	H	1.381441	-0.197960	-0.356449
H59	H	1.275742	-0.189775	-0.193582
O60	O	1.112724	0.125767	0.261714
C61	C	1.202718	0.054481	0.269669
H62	H	1.227099	0.030623	0.154373
H63	H	1.291620	0.072448	0.325875
H64	H	1.162209	0.002731	0.335189
O65	O	1.241740	-0.413622	-0.000381
C66	C	1.179972	-0.379906	-0.127162
H67	H	1.252900	-0.370267	-0.215274
H68	H	1.112472	-0.425411	-0.169078
H69	H	1.124596	-0.316778	-0.099654
O70	O	1.315043	0.235023	0.651365
C71	C	1.237579	0.189557	0.740056
H72	H	1.287619	0.124138	0.763018
H73	H	1.217719	0.224498	0.847884
H74	H	1.144763	0.183272	0.680988
H75	H	1.592347	-0.437849	0.221623
H76	H	1.638430	0.020914	0.639085
