data_functionalizedCrystal
_audit_creation_method	'MofGen! by Chris Wilmer'
_symmetry_space_group_name_H-M	'P1'
_symmetry_Int_Tables_number	1
_symmetry_cell_setting	triclinic
loop_
_symmetry_equiv_pos_as_xyz
  x,y,z
_cell_length_a	6.394989
_cell_length_b	16.992694
_cell_length_c	15.455313
_cell_angle_alpha	87.142206
_cell_angle_beta	87.254133
_cell_angle_gamma	91.417033
loop_
_atom_site_label
_atom_site_type_symbol
_atom_site_fract_x
_atom_site_fract_y
_atom_site_fract_z
O1	O	-0.435072	1.048122	-0.072012
O2	O	-0.430202	0.819790	-0.072038
O3	O	-0.129113	0.937197	-0.072026
O4	O	-0.736160	0.930715	-0.072025
O5	O	-0.146255	0.930482	0.072236
O6	O	-0.447343	0.813075	0.072223
O7	O	-0.452214	1.041407	0.072249
Cu8	Cu	-0.451344	0.926628	0.085408
Cu9	Cu	-0.431071	0.934569	-0.085198
O10	O	-0.753302	0.924000	0.072236
C11	C	-0.432511	0.787158	0.000089
C12	C	-0.413829	0.699930	0.000079
N13	N	-0.465602	0.921049	0.205403
C14	C	-0.594077	0.651470	0.000080
C15	C	-0.576513	0.569510	0.000092
C16	C	-0.378698	0.536010	0.000097
C17	C	-0.198437	0.584476	0.000099
C18	C	-0.216003	0.666434	0.000093
C19	C	-0.305891	0.291692	0.000120
C20	C	-0.288338	0.209727	0.000123
C21	C	-0.666416	0.194766	0.000118
C22	C	-0.683964	0.276728	0.000107
C23	C	-0.503704	0.325186	0.000113
N24	N	-0.360740	0.452233	0.000106
N25	N	-0.521664	0.408961	0.000110
C26	C	-0.059649	0.932558	0.000102
C27	C	0.177240	0.928641	0.000100
C28	C	-0.449904	1.074039	0.000120
C29	C	-0.468586	1.161267	0.000124
N30	N	-0.416798	0.940154	-0.205192
C31	C	-0.337742	0.970946	0.250803
C32	C	-0.348545	0.966733	0.341610
C33	C	-0.487220	0.912628	0.387016
C34	C	-0.615085	0.862725	0.341611
C35	C	-0.604270	0.866934	0.250805
C36	C	-0.533847	0.894461	0.658596
C37	C	-0.544658	0.890257	0.749408
C38	C	-0.278114	0.994265	0.749401
C39	C	-0.267319	0.998472	0.658594
C40	C	-0.395176	0.948567	0.613196
N41	N	-0.498271	0.908323	0.479836
N42	N	-0.384114	0.952869	0.520378
H43	H	-0.755159	0.678739	0.000075
H44	H	-0.708384	0.826302	0.213841
H45	H	-0.723290	0.530057	0.000092
C46	C	-0.110083	0.344263	-0.000059
C47	C	0.017025	0.332296	-0.074289
C48	C	0.197418	0.380720	-0.074489
H49	H	-0.035267	0.331612	0.050190
H50	H	-0.148761	0.397887	-0.000106
H51	H	0.055705	0.278683	-0.074233
H52	H	-0.057727	0.344952	-0.124549
H53	H	0.158740	0.434345	-0.074537
H54	H	0.272216	0.368065	-0.024237
H55	H	0.283674	0.372612	-0.124856
C56	C	-0.020211	0.719022	-0.000092
C57	C	0.106906	0.707060	-0.074321
C58	C	0.287277	0.755496	-0.074522
H59	H	0.054611	0.706377	0.050158
H60	H	-0.058913	0.772643	-0.000141
H61	H	0.145611	0.653450	-0.074263
H62	H	0.032149	0.719710	-0.124582
H63	H	0.248575	0.809118	-0.074572
H64	H	0.362080	0.742848	-0.024270
H65	H	0.373538	0.747392	-0.124889
C66	C	-0.139176	1.048528	0.798535
C67	C	-0.015445	1.096821	0.739333
C68	C	0.112568	1.146822	0.784562
H69	H	-0.051363	1.017859	0.833966
H70	H	-0.224099	1.080369	0.833935
H71	H	0.069470	1.064983	0.703948
H72	H	-0.103204	1.127506	0.703901
H73	H	0.027645	1.178663	0.819962
H74	H	0.200368	1.116147	0.819992
H75	H	0.196521	1.179600	0.744401
C76	C	-0.209473	1.020784	0.390941
C77	C	-0.080493	0.975279	0.443066
C78	C	0.047675	1.025046	0.488510
H79	H	-0.294229	1.052592	0.426428
H80	H	-0.125231	1.053598	0.350917
H81	H	-0.164726	0.942479	0.483086
H82	H	0.004306	0.943473	0.407600
H83	H	0.131917	1.057860	0.448485
H84	H	-0.037097	1.056851	0.523992
H85	H	0.135216	0.994179	0.523876
C86	C	-0.695261	0.831421	0.798552
C87	C	-0.804870	0.788598	0.739360
C88	C	-0.943589	0.734385	0.784599
H89	H	-0.791529	0.858792	0.833972
H90	H	-0.618723	0.796310	0.833963
H91	H	-0.881404	0.823703	0.703963
H92	H	-0.708657	0.761209	0.703938
H93	H	-0.867051	0.699275	0.820011
H94	H	-1.039843	0.761764	0.820018
H95	H	-1.017962	0.705319	0.744445
H96	H	-0.845045	0.303997	0.000093
H97	H	-0.813173	0.155303	0.000115
H98	H	-0.727990	0.818667	0.378586
C99	C	-0.672809	0.840420	0.609209
C100	C	-0.801689	0.885939	0.557053
C101	C	-0.929727	0.836184	0.511536
H102	H	-0.757138	0.807587	0.649164
H103	H	-0.587897	0.808633	0.573742
H104	H	-0.886593	0.917712	0.592517
H105	H	-0.717417	0.918771	0.517082
H106	H	-0.844815	0.804397	0.476068
H107	H	-1.014042	0.803353	0.551497
H108	H	-1.017173	0.867061	0.476137
H109	H	-0.127245	0.182455	0.000126
H110	H	-0.037373	0.557193	0.000115
H111	H	-0.224828	1.015007	0.213839
H112	H	-0.154399	1.042529	0.621626
