data_functionalizedCrystal
_audit_creation_method	'MofGen! by Chris Wilmer'
_symmetry_space_group_name_H-M	'P1'
_symmetry_Int_Tables_number	1
_symmetry_cell_setting	triclinic
loop_
_symmetry_equiv_pos_as_xyz
  x,y,z
_cell_length_a	20.016444
_cell_length_b	12.970454
_cell_length_c	12.970454
_cell_angle_alpha	59.999776
_cell_angle_beta	90.001047
_cell_angle_gamma	60.002422
loop_
_atom_site_label
_atom_site_type_symbol
_atom_site_fract_x
_atom_site_fract_y
_atom_site_fract_z
Zr1	Zr	0.643581	1.128568	-0.135306
O2	O	0.536909	1.343650	-0.299931
O3	O	0.676281	0.913480	-0.084839
O4	O	0.676282	1.128569	-0.299930
O5	O	0.536908	1.128561	0.084826
O6	O	0.786222	1.128577	-0.299930
O7	O	0.536908	1.128560	-0.084840
O8	O	0.786221	0.743821	0.084828
O9	O	0.536910	1.513317	-0.299932
O10	O	0.772275	1.001957	-0.063317
O11	O	0.690227	1.001951	0.063304
O12	O	0.690228	1.255192	-0.189938
O13	O	0.608181	1.255186	-0.063318
Zr14	Zr	0.818921	1.128582	0.135292
Zr15	Zr	0.818922	1.128581	-0.135307
Zr16	Zr	0.643580	1.128569	0.135292
Zr17	Zr	0.643581	1.399168	-0.135308
Zr18	Zr	0.818921	0.857982	0.135293
O19	O	0.786221	1.343670	0.084825
O20	O	0.786222	1.343668	-0.299931
O21	O	0.536908	1.343652	0.084825
O22	O	0.925593	0.913500	0.299916
O23	O	0.925594	0.913498	-0.084840
O24	O	0.676280	0.913482	0.299917
O25	O	0.925594	1.128589	-0.084841
O26	O	0.786220	1.128581	0.299916
O27	O	0.676280	1.128572	0.299916
O28	O	0.925594	1.128590	0.084826
O29	O	0.676283	1.513327	-0.299932
O30	O	0.786220	0.743822	0.299918
O31	O	0.925593	0.743833	0.299917
O32	O	0.925594	0.743831	0.084828
O33	O	0.536909	1.513318	-0.084842
O34	O	0.676282	1.513329	-0.084842
O35	O	0.772274	1.001958	0.189924
O36	O	0.854321	1.001963	0.063303
O37	O	0.772275	1.255198	-0.063318
O38	O	0.690227	1.255193	0.063302
C39	C	0.731251	0.790096	-0.000006
C40	C	0.731251	0.675219	-0.000005
C41	C	0.511926	1.128559	-0.000007
C42	C	0.437489	1.128553	-0.000007
C43	C	0.309049	0.996384	0.066091
C44	C	0.239104	0.996390	0.066094
C45	C	0.153455	1.260776	-0.066108
C46	C	0.223399	1.260768	-0.066103
C47	C	0.301196	1.128568	-0.000006
C48	C	0.161306	1.128582	-0.000008
C49	C	0.085468	1.128589	-0.000005
C50	C	0.377039	1.128560	-0.000007
C51	C	0.950576	1.128591	-0.000008
C52	C	1.025013	1.128597	-0.000008
C53	C	0.731253	1.128573	-0.338485
C54	C	0.731253	1.128572	-0.453361
C55	C	0.731251	1.467054	-0.000009
C56	C	0.731251	1.581931	-0.000010
C57	C	0.731250	1.128577	0.338470
C58	C	0.731249	1.128577	0.453346
C59	C	0.950576	0.790112	-0.000006
C60	C	1.025013	0.675241	-0.000006
C61	C	0.731249	0.790097	0.338472
C62	C	0.731249	0.675221	0.453349
C63	C	0.950575	0.790114	0.338472
C64	C	1.025011	0.675243	0.453348
C65	C	0.511927	1.467036	-0.338486
C66	C	0.437491	1.581907	-0.453363
C67	C	0.511926	1.467038	-0.000009
C68	C	0.437489	1.581909	-0.000009
C69	C	0.731253	1.467052	-0.338486
C70	C	0.731253	1.581928	-0.453363
C71	C	1.017142	0.621292	-0.066111
C72	C	1.087077	0.513373	-0.066136
C73	C	1.164882	0.459398	-0.000047
C74	C	1.172751	0.513356	0.066060
C75	C	1.102817	0.621281	0.066077
C76	C	1.102803	0.621301	0.441201
C77	C	1.172750	0.513383	0.549129
C78	C	1.164905	0.459401	0.669204
C79	C	1.087105	0.513354	0.681349
C80	C	1.017159	0.621277	0.573421
C81	C	0.359699	1.635862	-0.441215
C82	C	0.289752	1.743813	-0.549144
C83	C	0.297597	1.797801	-0.669218
C84	C	0.375397	1.743842	-0.681363
C85	C	0.445343	1.635899	-0.573436
C86	C	0.445360	1.635869	0.066085
C87	C	0.375425	1.743817	0.066080
C88	C	0.297620	1.797797	-0.000012
C89	C	0.289751	1.743833	-0.066115
C90	C	0.359685	1.635894	-0.066116
H91	H	0.372392	0.888738	0.119925
H92	H	1.080729	0.469386	0.779128
H93	H	0.953821	0.665182	0.583330
H94	H	0.226393	1.787800	-0.119925
H95	H	0.245505	0.888753	0.119919
C96	C	0.351018	1.576526	-0.138807
C97	C	0.265431	1.635902	-0.211490
C98	C	0.256758	1.576539	-0.284184
C99	C	0.333672	1.457801	-0.284194
C100	C	0.419265	1.398419	-0.211508
C101	C	0.427938	1.457782	-0.138814
H102	H	0.208490	1.723804	-0.211485
H103	H	0.193396	1.620498	-0.337990
H104	H	0.327251	1.413857	-0.338005
H105	H	0.476206	1.310517	-0.211513
H106	H	0.491300	1.413823	-0.085007
C107	C	0.530940	1.576510	0.138790
C108	C	0.607876	1.457780	0.138808
C109	C	0.693453	1.398435	0.211512
C110	C	0.702094	1.457819	0.284199
C111	C	0.625155	1.576555	0.284184
C112	C	0.539577	1.635901	0.211480
H113	H	0.601482	1.413814	0.084998
H114	H	0.750409	1.310538	0.211522
H115	H	0.765443	1.413888	0.338018
H116	H	0.631549	1.620521	0.337993
H117	H	0.482622	1.723797	0.211469
H118	H	0.508682	1.591970	-0.583341
H119	H	0.090106	1.368409	-0.119922
H120	H	1.221866	0.371523	0.757075
H121	H	1.109206	0.665237	0.343440
H122	H	0.216999	1.368415	-0.119924
H123	H	1.221820	0.371517	-0.000070
H124	H	0.226411	1.787729	-0.539231
H125	H	0.953796	0.665238	-0.119944
C126	C	1.258341	0.453956	0.138772
C127	C	1.335258	0.335226	0.138761
C128	C	1.420849	0.275810	0.211484
C129	C	1.429523	0.335124	0.284219
C130	C	1.352603	0.453861	0.284233
C131	C	1.267012	0.513277	0.211510
H132	H	1.328840	0.291311	0.084916
H133	H	1.477790	0.187912	0.211473
H134	H	1.492883	0.291141	0.338054
H135	H	1.359022	0.497775	0.338079
H136	H	1.210071	0.601175	0.211521
H137	H	1.236092	0.469466	0.539218
H138	H	1.080654	0.469453	-0.119968
H139	H	1.109238	0.665192	0.119915
H140	H	0.353296	1.591911	-0.343454
H141	H	0.240636	1.885694	-0.757089
H142	H	0.381775	1.787812	-0.779141
H143	H	0.381848	1.787737	0.119914
H144	H	0.240682	1.885688	-0.000001
