data_functionalizedCrystal
_audit_creation_method	'MofGen! by Chris Wilmer'
_symmetry_space_group_name_H-M	'P1'
_symmetry_Int_Tables_number	1
_symmetry_cell_setting	triclinic
loop_
_symmetry_equiv_pos_as_xyz
  x,y,z
_cell_length_a	18.627264
_cell_length_b	18.627226
_cell_length_c	18.627297
_cell_angle_alpha	59.997322
_cell_angle_beta	89.997200
_cell_angle_gamma	59.999880
loop_
_atom_site_label
_atom_site_type_symbol
_atom_site_fract_x
_atom_site_fract_y
_atom_site_fract_z
O1	O	0.492479	0.633248	-0.021371
O2	O	0.388084	0.486239	0.021244
O3	O	0.388082	0.633243	-0.125764
O4	O	0.492480	0.486244	0.125637
O5	O	0.507485	0.513840	-0.125764
O6	O	0.507486	0.366836	0.021244
O7	O	0.611881	0.513845	-0.021371
Zn8	Zn	0.578641	0.421382	-0.000063
Zn9	Zn	0.421324	0.578701	-0.000064
O10	O	0.611883	0.366841	0.125637
C11	C	0.612976	0.774056	-0.031083
C12	C	0.568674	0.862659	-0.024990
C13	C	0.699374	0.731063	-0.031693
C14	C	0.612979	0.644049	-0.031075
C15	C	0.568681	0.593648	-0.024972
C16	C	0.699377	0.601254	-0.031685
C17	C	0.742977	0.644055	-0.031083
C18	C	0.837674	0.593660	-0.024989
C19	C	0.569574	0.731058	-0.031685
C20	C	0.386981	0.644040	-0.387063
C21	C	0.431281	0.593643	-0.431364
C22	C	0.300582	0.731046	-0.430467
C23	C	0.386981	0.644039	-0.257063
C24	C	0.431282	0.593642	-0.162366
C25	C	0.300583	0.731046	-0.300663
C26	C	0.256981	0.774040	-0.387062
C27	C	0.162284	0.862641	-0.431360
C28	C	0.430385	0.601242	-0.300665
C29	C	0.256977	0.356049	0.030927
C30	C	0.162279	0.406448	0.024828
C31	C	0.300578	0.269044	0.031532
C32	C	0.386980	0.356044	0.030933
C33	C	0.431282	0.406438	0.024841
C34	C	0.430383	0.269039	0.031538
C35	C	0.386977	0.226048	0.030926
C36	C	0.431277	0.137449	0.024827
C37	C	0.300580	0.398843	0.031539
O38	O	1.125679	0.366845	0.021233
O39	O	0.874277	0.513856	-0.021387
O40	O	1.021264	0.366858	0.125623
O41	O	0.978692	0.513843	-0.125777
O42	O	1.021261	0.486266	0.125614
O43	O	0.874274	0.633264	-0.021396
O44	O	1.125676	0.486253	0.021224
Zn45	Zn	0.999974	0.578717	-0.000087
Zn46	Zn	0.999978	0.421392	-0.000076
O47	O	0.978688	0.633251	-0.125786
O48	O	0.507481	1.104442	0.021233
O49	O	0.611876	0.895658	-0.021386
O50	O	0.611870	0.895638	0.125623
O51	O	0.507487	1.104462	-0.125777
O52	O	0.492463	0.895647	0.125612
O53	O	0.492469	0.895668	-0.021398
O54	O	0.388075	1.104451	0.021221
Zn55	Zn	0.421313	1.000061	-0.000090
Zn56	Zn	0.578637	1.000049	-0.000075
O57	O	0.388080	1.104472	-0.125788
O58	O	-0.125713	1.104441	-0.492549
O59	O	0.125684	0.895642	-0.388160
O60	O	-0.021312	0.895637	-0.388147
O61	O	0.021283	1.104446	-0.492562
O62	O	-0.021316	0.895640	-0.507551
O63	O	0.125681	0.895646	-0.507563
O64	O	-0.125717	1.104444	-0.611953
Zn65	Zn	-0.000019	1.000045	-0.578716
Zn66	Zn	-0.000014	1.000041	-0.421396
O67	O	0.021280	1.104450	-0.611965
O68	O	0.492486	0.486238	-0.611961
O69	O	0.388082	0.633243	-0.507567
O70	O	0.388086	0.486236	-0.507556
O71	O	0.492482	0.633245	-0.611971
O72	O	0.507486	0.366835	-0.388154
O73	O	0.507482	0.513842	-0.388165
O74	O	0.611886	0.366837	-0.492559
Zn75	Zn	0.578642	0.421382	-0.421404
Zn76	Zn	0.421327	0.578698	-0.578721
O77	O	0.611882	0.513844	-0.492569
C78	C	0.742986	0.226042	0.386934
C79	C	0.837683	0.137441	0.431232
C80	C	0.699385	0.269035	0.430340
C81	C	0.612985	0.356043	0.256936
C82	C	0.568684	0.406441	0.162239
C83	C	0.569581	0.398839	0.300539
C84	C	0.612987	0.356041	0.386937
C85	C	0.568687	0.406437	0.431238
C86	C	0.699383	0.269037	0.300536
C87	C	1.030900	0.356104	0.386903
C88	C	1.024795	0.406510	0.431196
C89	C	1.031496	0.269103	0.430309
C90	C	1.030928	0.356083	0.256913
C91	C	1.024853	0.406467	0.162219
C92	C	1.031524	0.269082	0.300517
C93	C	1.030897	0.226100	0.386911
C94	C	1.024788	0.137506	0.431212
C95	C	1.031527	0.398888	0.300509
C96	C	0.969050	0.774013	-0.387075
C97	C	0.975152	0.862612	-0.431377
C98	C	0.968456	0.731008	-0.430472
C99	C	0.969024	0.644026	-0.257075
C100	C	0.975100	0.593642	-0.162382
C101	C	0.968431	0.601218	-0.300670
C102	C	0.969058	0.644003	-0.387064
C103	C	0.975169	0.593594	-0.431355
C104	C	0.968423	0.731031	-0.300680
C105	C	0.612953	0.644018	0.386910
C106	C	0.568649	0.593621	0.431205
C107	C	0.699352	0.601213	0.430319
C108	C	0.612962	0.774026	0.256916
C109	C	0.568667	0.862636	0.162219
C110	C	0.699360	0.731024	0.300522
C111	C	0.742958	0.644010	0.386920
C112	C	0.837654	0.593606	0.431224
C113	C	0.569554	0.731032	0.300512
O114	O	0.978556	0.513941	0.611773
O115	O	1.021178	0.366920	0.507393
O116	O	0.874171	0.513944	0.507362
O117	O	1.125564	0.366917	0.611805
O118	O	0.874199	0.633331	0.387964
O119	O	1.021207	0.486307	0.387995
O120	O	0.978584	0.633328	0.492375
Zn121	Zn	0.999900	0.578773	0.421228
Zn122	Zn	0.999863	0.421475	0.578540
O123	O	1.125592	0.486305	0.492406
C124	C	0.256994	1.356100	-0.387085
C125	C	0.162298	1.406505	-0.431390
C126	C	0.300601	1.398897	-0.430484
C127	C	0.386989	1.226083	-0.257081
C128	C	0.431284	1.137474	-0.162384
C129	C	0.430398	1.269077	-0.300677
C130	C	0.386999	1.356091	-0.387075
C131	C	0.431305	1.406487	-0.431368
C132	C	0.300591	1.269086	-0.300687
H133	H	0.734376	0.767052	-0.032674
H134	H	1.032464	0.233129	0.501297
C135	C	0.473674	0.779665	-0.032998
N136	N	0.401444	0.816274	-0.033987
C137	C	0.473679	0.493420	0.253250
N138	N	0.401447	0.564655	0.217635
H139	H	1.032505	0.233098	0.265511
C140	C	1.032850	0.493471	0.253213
N141	N	1.033843	0.564710	0.217589
C142	C	0.253291	0.779654	-0.253370
N143	N	0.217672	0.816265	-0.217751
C144	C	0.746668	0.506672	-0.033005
N145	N	0.782287	0.435437	-0.034002
H146	H	0.734389	0.233037	0.501334
C147	C	0.253314	1.493490	-0.526384
N148	N	0.217698	1.564738	-0.598612
C149	C	0.253293	1.220479	-0.253402
N150	N	0.217669	1.183869	-0.217786
C151	C	0.967084	0.779657	-0.253400
N152	N	0.966073	0.816282	-0.217788
H153	H	0.967456	0.531202	-0.265656
C154	C	0.746653	0.779641	0.253238
N155	N	0.782273	0.816259	0.217628
C156	C	0.967143	0.779616	-0.526374
N157	N	0.966151	0.816227	-0.598606
C158	C	0.473650	0.779655	0.253220
N159	N	0.401417	0.816280	0.217600
C160	C	0.253292	0.779658	-0.526369
N161	N	0.217673	0.816272	-0.598600
C162	C	0.746636	0.506624	0.526221
N163	N	0.782251	0.435382	0.598452
C164	C	0.526300	1.220458	-0.253380
N165	N	0.598530	1.183839	-0.217758
C166	C	0.253281	0.220443	0.032837
N167	N	0.217657	0.183841	0.033815
H168	H	0.501366	0.531212	-0.265655
C169	C	0.526276	0.220447	0.032829
N170	N	0.598497	0.183854	0.033792
H171	H	0.734391	0.233049	0.265533
C172	C	0.253294	0.493415	0.032873
N173	N	0.217681	0.564642	0.033883
