data_functionalizedCrystal
_audit_creation_method	'MofGen! by Chris Wilmer'
_symmetry_space_group_name_H-M	'P1'
_symmetry_Int_Tables_number	1
_symmetry_cell_setting	triclinic
loop_
_symmetry_equiv_pos_as_xyz
  x,y,z
_cell_length_a	15.944551
_cell_length_b	14.519709
_cell_length_c	13.596369
_cell_angle_alpha	90.006934
_cell_angle_beta	90.000836
_cell_angle_gamma	83.589442
loop_
_atom_site_label
_atom_site_type_symbol
_atom_site_fract_x
_atom_site_fract_y
_atom_site_fract_z
O1	O	-1.114698	-0.118943	-0.081691
O2	O	-0.614698	0.381057	0.418309
O3	O	-0.870169	-0.133607	-0.081716
O4	O	-0.370169	0.366393	0.418284
O5	O	-0.998917	0.007975	-0.081694
O6	O	-0.498917	0.507975	0.418306
O7	O	-0.985950	-0.260525	-0.081713
O8	O	-0.485950	0.239475	0.418287
O9	O	-0.998904	0.007982	0.081889
O10	O	-0.498904	0.507982	0.581889
O11	O	-0.870156	-0.133600	0.081867
O12	O	-0.370156	0.366400	0.581867
O13	O	-1.114685	-0.118936	0.081892
O14	O	-0.614685	0.381064	0.581892
Zn15	Zn	-0.992419	-0.126267	0.107852
Zn16	Zn	-0.492419	0.373733	0.607852
Zn17	Zn	-0.992435	-0.126276	-0.107676
Zn18	Zn	-0.492435	0.373724	0.392324
O19	O	-0.985937	-0.260518	0.081870
O20	O	-0.485937	0.239482	0.581870
C21	C	-0.838868	-0.132995	0.000073
C22	C	-0.338868	0.367005	0.500073
C23	C	-0.745619	-0.131170	0.000064
C24	C	-0.245619	0.368830	0.500064
C25	C	-1.145986	-0.119548	0.000101
C26	C	-0.645986	0.380452	0.500101
C27	C	-1.239235	-0.121373	0.000104
C28	C	-0.739235	0.378627	0.500104
C29	C	-0.998306	0.042337	0.000098
C30	C	-0.498306	0.542337	0.500098
C31	C	-0.996495	0.144715	0.000098
C32	C	-0.496495	0.644715	0.500098
C33	C	-0.530629	-0.039048	0.000089
C34	C	-0.030629	0.460952	0.500089
C35	C	-0.469677	-0.081830	-0.080569
C36	C	0.030323	0.418170	0.419431
C37	C	-0.574889	-0.127868	0.000075
C38	C	-0.074889	0.372132	0.500075
C39	C	-0.469687	-0.081844	0.080711
C40	C	0.030313	0.418156	0.580711
C41	C	-0.409971	-0.124672	0.000091
C42	C	0.090029	0.375328	0.500091
C43	C	-0.515165	-0.170674	-0.080649
C44	C	-0.015165	0.329326	0.419351
C45	C	-0.515181	-0.170675	0.080703
C46	C	-0.015181	0.329325	0.580703
C47	C	-0.454247	-0.213522	0.000025
C48	C	0.045753	0.286478	0.500025
C49	C	-0.669894	-0.129706	0.000065
C50	C	-0.169894	0.370294	0.500065
C51	C	-0.314967	-0.122840	0.000094
C52	C	0.185033	0.377160	0.500094
C53	C	-0.986548	-0.294880	0.000076
C54	C	-0.486548	0.205120	0.500076
C55	C	-0.988359	-0.397258	0.000070
C56	C	-0.488359	0.102742	0.500070
N57	N	-0.992413	-0.126259	0.254944
N58	N	-0.492413	0.373741	0.754944
C59	C	-0.989829	0.519599	0.000072
C60	C	-0.489829	1.019599	0.500072
C61	C	-0.991680	0.415295	0.000080
C62	C	-0.491680	0.915295	0.500080
C63	C	-0.993162	0.332161	0.000086
C64	C	-0.493162	0.832161	0.500086
C65	C	-0.995013	0.227849	0.000092
C66	C	-0.495013	0.727849	0.500092
N67	N	-0.992448	-0.126276	-0.254767
N68	N	-0.492448	0.373724	0.245233
C69	C	-0.992434	-0.126277	0.656235
C70	C	-0.492434	0.373723	1.156235
C71	C	-0.992426	-0.126275	0.544583
C72	C	-0.492426	0.373725	1.044583
C73	C	-0.992424	-0.126269	0.455593
C74	C	-0.492424	0.373731	0.955593
C75	C	-0.992415	-0.126266	0.343934
C76	C	-0.492415	0.373734	0.843934
H77	H	-0.449518	-0.044266	-0.148754
H78	H	0.050482	0.455734	0.351246
O79	O	-0.538926	-0.215517	-0.162125
O80	O	-0.038926	0.284483	0.337875
C81	C	-0.467075	-0.245154	-0.219115
C82	C	0.032925	0.254846	0.280885
H83	H	-0.408596	-0.251229	-0.170287
H84	H	0.091404	0.248771	0.329713
H85	H	-0.459958	-0.192653	-0.280044
H86	H	0.040042	0.307347	0.219956
C87	C	-0.549023	-0.332780	-0.324995
C88	C	-0.049023	0.167220	0.175005
C89	C	-0.477199	-0.340250	-0.265022
C90	C	0.022801	0.159750	0.234978
H91	H	-0.555269	-0.391438	-0.353317
H92	H	-0.055269	0.108562	0.146683
H93	H	-0.597432	-0.312811	-0.286603
H94	H	-0.097432	0.187189	0.213397
H95	H	-0.543084	-0.289026	-0.375761
H96	H	-0.043084	0.210974	0.124239
H97	H	-0.483145	-0.383994	-0.214251
H98	H	0.016855	0.116006	0.285749
H99	H	-0.428792	-0.360229	-0.303407
H100	H	0.071208	0.139771	0.196593
H101	H	-0.421196	-0.287311	-0.000025
H102	H	0.078804	0.212689	0.499975
H103	H	-0.535361	-0.208208	0.148892
H104	H	-0.035361	0.291792	0.648892
O105	O	-0.570345	0.048855	-0.000125
O106	O	-0.070345	0.548855	0.499875
C107	C	-0.621749	0.062189	-0.084437
C108	C	-0.121749	0.562189	0.415563
H109	H	-0.638062	-0.007745	-0.112150
H110	H	-0.138062	0.492255	0.387850
H111	H	-0.586475	0.097120	-0.144293
H112	H	-0.086475	0.597120	0.355707
C113	C	-0.683480	0.209928	-0.024204
C114	C	-0.183480	0.709928	0.475796
C115	C	-0.703521	0.124035	-0.058237
C116	C	-0.203521	0.624035	0.441763
H117	H	-0.733919	0.248081	-0.008045
H118	H	-0.233919	0.748081	0.491955
H119	H	-0.648846	0.200947	0.032597
H120	H	-0.148846	0.700947	0.532597
H121	H	-0.654083	0.239026	-0.074089
H122	H	-0.154083	0.739026	0.425911
H123	H	-0.732907	0.094934	-0.008347
H124	H	-0.232907	0.594934	0.491653
H125	H	-0.738162	0.133013	-0.115029
H126	H	-0.238162	0.633013	0.384971
O127	O	-0.445624	-0.036878	0.161960
O128	O	0.054376	0.463122	0.661960
C129	C	-0.404758	0.039997	0.133012
C130	C	0.095242	0.539997	0.633012
H131	H	-0.425533	0.061865	0.055438
H132	H	0.074467	0.561865	0.555438
H133	H	-0.333515	0.020338	0.134205
H134	H	0.166485	0.520338	0.634205
C135	C	-0.402777	0.094128	0.299845
C136	C	0.097223	0.594128	0.799845
C137	C	-0.428299	0.120992	0.204570
C138	C	0.071701	0.620992	0.704570
H139	H	-0.417295	0.144089	0.343987
H140	H	0.082705	0.644089	0.843987
H141	H	-0.430307	0.042334	0.319349
H142	H	0.069693	0.542334	0.819349
H143	H	-0.343409	0.077746	0.300826
H144	H	0.156591	0.577746	0.800826
H145	H	-0.487667	0.137363	0.203588
H146	H	0.012333	0.637363	0.703588
H147	H	-0.400780	0.172791	0.185068
H148	H	0.099220	0.672791	0.685068
