data_functionalizedCrystal
_audit_creation_method	'MofGen! by Chris Wilmer'
_symmetry_space_group_name_H-M	'P1'
_symmetry_Int_Tables_number	1
_symmetry_cell_setting	triclinic
loop_
_symmetry_equiv_pos_as_xyz
  x,y,z
_cell_length_a	29.839134
_cell_length_b	17.640280
_cell_length_c	17.640968
_cell_angle_alpha	114.317439
_cell_angle_beta	78.761989
_cell_angle_gamma	101.209199
loop_
_atom_site_label
_atom_site_type_symbol
_atom_site_fract_x
_atom_site_fract_y
_atom_site_fract_z
Zn1	Zn	0.759691	0.233965	-0.399989
Zn2	Zn	0.759654	0.399633	-0.234350
Zn3	Zn	0.671929	0.261839	-0.262157
Zn4	Zn	0.697185	0.371721	-0.372106
O5	O	0.722115	0.316789	-0.317151
O6	O	0.822559	0.255957	-0.378049
O7	O	0.737432	0.404701	-0.122704
O8	O	0.673016	0.142822	-0.303747
O9	O	0.822532	0.377673	-0.256355
O10	O	0.737495	0.122343	-0.405012
O11	O	0.672980	0.303464	-0.143134
O12	O	0.612406	0.276399	-0.276709
O13	O	0.716062	0.330100	-0.491139
O14	O	0.630962	0.357129	-0.357489
O15	O	0.761985	0.228891	-0.511625
O16	O	0.761922	0.511250	-0.229318
O17	O	0.716026	0.490743	-0.330526
C18	C	0.605382	0.316760	-0.317091
C19	C	0.555447	0.316764	-0.317081
C20	C	0.741725	0.530893	-0.273897
C21	C	0.750157	0.622482	-0.255420
C22	C	0.741845	0.273273	-0.532123
C23	C	0.750252	0.254729	-0.623732
C24	C	0.189199	0.274654	-0.275212
C25	C	0.376865	0.274640	-0.275167
O26	O	0.392902	0.238782	-0.239506
N27	N	0.410007	0.316769	-0.317120
C28	C	0.396229	0.358899	-0.359092
O29	O	0.428724	0.394724	-0.394782
C30	C	0.208564	0.358906	-0.359142
C31	C	0.175424	0.316782	-0.317179
C32	C	0.156060	0.232532	-0.233254
C33	C	0.109146	0.232540	-0.233261
C34	C	0.095371	0.274669	-0.275228
C35	C	0.128510	0.316790	-0.317187
C36	C	0.194787	0.401031	-0.401118
C37	C	0.147867	0.401027	-0.401129
C38	C	0.114727	0.358903	-0.359166
C39	C	0.067822	0.358926	-0.359161
N40	N	0.034681	0.316798	-0.317208
C41	C	0.048455	0.274669	-0.275242
C42	C	0.494756	0.358893	-0.359061
C43	C	0.541672	0.358892	-0.359048
C44	C	0.522305	0.274633	-0.275124
C45	C	0.475388	0.274639	-0.275133
C46	C	0.461614	0.316765	-0.317108
C47	C	-0.050066	0.274689	-0.275261
C48	C	-0.096983	0.274703	-0.275270
C49	C	-0.077611	0.358959	-0.359197
C50	C	-0.030699	0.358948	-0.359185
C51	C	-0.016928	0.316807	-0.317215
O52	O	0.051752	0.394758	-0.394811
O53	O	0.015953	0.238834	-0.239573
C54	C	0.236113	0.274646	-0.275204
C55	C	0.269252	0.316767	-0.317163
C56	C	0.255477	0.358896	-0.359129
C57	C	0.316168	0.316767	-0.317149
C58	C	0.329942	0.274638	-0.275183
C59	C	0.296801	0.232510	-0.233230
C60	C	0.249887	0.232517	-0.233238
C61	C	0.288618	0.401024	-0.401082
C62	C	0.335531	0.401014	-0.401070
C63	C	0.349306	0.358885	-0.359104
C64	C	0.839303	0.316819	-0.317211
C65	C	0.889242	0.316832	-0.317236
C66	C	0.702442	0.101846	-0.360591
C67	C	0.694059	0.010249	-0.379103
C68	C	0.658263	0.870522	-0.457815
C69	C	0.666186	0.956589	-0.440427
C70	C	0.714023	0.977856	-0.335146
C71	C	0.706106	0.891789	-0.352527
C72	C	0.678226	0.838128	-0.413862
C73	C	0.726069	0.859395	-0.308575
C74	C	0.718151	0.773335	-0.325952
C75	C	0.690270	0.719670	-0.387283
C76	C	0.670308	0.752068	-0.431240
C77	C	0.753946	0.913057	-0.247236
C78	C	0.773909	0.880663	-0.203283
C79	C	0.765993	0.794601	-0.220665
C80	C	0.738113	0.740936	-0.281995
C81	C	0.785956	0.762202	-0.176708
C82	C	0.778038	0.676143	-0.194085
C83	C	0.730195	0.654876	-0.299373
C84	C	0.658374	0.457218	-0.871690
C85	C	0.666282	0.439782	-0.957772
C86	C	0.714098	0.334403	-0.979091
C87	C	0.706191	0.351826	-0.893010
C88	C	0.678329	0.413235	-0.839315
C89	C	0.726147	0.307844	-0.860635
C90	C	0.718243	0.325269	-0.774561
C91	C	0.690383	0.386678	-0.720860
C92	C	0.670425	0.430661	-0.753240
C93	C	0.754012	0.246439	-0.914331
C94	C	0.773967	0.202457	-0.881956
C95	C	0.766061	0.219878	-0.795881
C96	C	0.738201	0.281286	-0.742181
C97	C	0.786019	0.175894	-0.763501
C98	C	0.778115	0.193320	-0.677426
C99	C	0.730297	0.298712	-0.656106
C100	C	0.702482	0.360077	-0.103026
C101	C	0.694140	0.378389	-0.011465
H102	H	-0.038860	0.240369	-0.241090
H103	H	0.760448	0.232255	-0.984417
N104	N	0.369374	0.444059	-0.443934
N105	N	0.357063	0.481668	-0.481399
H106	H	0.380963	0.512063	-0.511675
H107	H	0.736722	1.021558	-0.285204
H108	H	0.483548	0.393200	-0.393244
H109	H	0.082167	0.198238	-0.199091
H110	H	-0.003714	0.393257	-0.393347
H111	H	0.794364	0.157504	-0.651067
H112	H	0.736785	0.284405	-1.022820
H113	H	0.796654	0.152459	-0.925685
N114	N	0.682307	0.404463	-0.632940
N115	N	0.663503	0.347954	-0.607512
H116	H	0.657798	0.360513	-0.545418
H117	H	0.760393	0.983132	-0.233091
H118	H	0.707596	0.348697	-0.612388
N119	N	0.536387	0.231605	-0.232257
N120	N	0.578279	0.231615	-0.232258
H121	H	0.588228	0.201225	-0.201989
H122	H	0.707496	0.611182	-0.349324
N123	N	0.814483	0.113182	-0.818363
N124	N	0.821541	0.097639	-0.895211
H125	H	0.841646	0.053349	-0.933958
H126	H	0.448407	0.240334	-0.240967
N127	N	-0.130828	0.231673	-0.232395
N128	N	-0.118519	0.194061	-0.194929
H129	H	-0.142421	0.163671	-0.164649
N130	N	0.682189	0.631762	-0.405033
N131	N	0.715276	0.589803	-0.430099
H132	H	0.709569	0.527718	-0.442635
H133	H	0.647608	0.708374	-0.481191
N134	N	0.641954	0.493373	-0.698385
N135	N	0.600878	0.485944	-0.709083
H136	H	0.580771	0.530231	-0.670340
N137	N	0.170117	0.189486	-0.190382
N138	N	0.140515	0.151883	-0.152928
H139	H	0.150439	0.121482	-0.122643
H140	H	0.650030	0.475603	-0.984126
N141	N	0.575515	0.401941	-0.401900
N142	N	0.563203	0.439551	-0.439364
H143	H	0.587103	0.469954	-0.469633
N144	N	0.216033	0.189493	-0.190378
N145	N	0.187665	0.229043	-0.131974
H146	H	0.163757	0.198655	-0.101703
N147	N	-0.091688	0.402001	-0.402051
N148	N	-0.115735	0.460357	-0.362377
H149	H	-0.125677	0.490753	-0.392646
N150	N	0.228625	0.444066	-0.443986
N151	N	0.216310	0.481668	-0.481454
H152	H	0.240208	0.512063	-0.511734
N153	N	0.802392	0.935474	-0.140642
N154	N	0.843466	0.924689	-0.148148
H155	H	0.863583	0.963397	-0.103907
H156	H	0.808652	0.805906	-0.126763
N157	N	0.798442	0.643048	-0.149207
N158	N	0.825302	0.589108	-0.187980
H159	H	0.839714	0.565736	-0.156284
H160	H	0.136657	0.435329	-0.435314
H161	H	0.308024	0.198210	-0.199056
N162	N	0.274560	0.444061	-0.443961
N163	N	0.304160	0.481666	-0.481415
H164	H	0.294234	0.512066	-0.511699
H165	H	0.649934	0.982957	-0.476233
H166	H	0.635564	0.826828	-0.507766
H167	H	0.635673	0.507204	-0.827972
