data_functionalizedCrystal
_audit_creation_method	'MofGen! by Chris Wilmer'
_symmetry_space_group_name_H-M	'P1'
_symmetry_Int_Tables_number	1
_symmetry_cell_setting	triclinic
loop_
_symmetry_equiv_pos_as_xyz
  x,y,z
_cell_length_a	14.519709
_cell_length_b	10.654550
_cell_length_c	9.130313
_cell_angle_alpha	89.996987
_cell_angle_beta	89.999908
_cell_angle_gamma	95.917476
loop_
_atom_site_label
_atom_site_type_symbol
_atom_site_fract_x
_atom_site_fract_y
_atom_site_fract_z
O1	O	0.129525	-1.666588	0.121923
O2	O	0.141866	-1.300991	0.121900
O3	O	0.001507	-1.493482	0.121899
O4	O	0.269884	-1.474096	0.121924
O5	O	0.001517	-1.493482	-0.121700
O6	O	0.141876	-1.300990	-0.121699
O7	O	0.129535	-1.666587	-0.121676
Cu8	Cu	0.135706	-1.483789	-0.143930
Cu9	Cu	0.135695	-1.483789	0.144154
O10	O	0.269894	-1.474095	-0.121675
C11	C	0.140965	-1.254201	0.000098
C12	C	0.138254	-1.114784	0.000088
C13	C	-0.032852	-1.492579	0.000099
C14	C	-0.135247	-1.489871	0.000098
N15	N	0.135714	-1.483797	-0.346552
C16	C	-0.510195	-1.479904	0.000136
C17	C	-0.405873	-1.482672	0.000125
C18	C	-0.322725	-1.484887	0.000116
C19	C	-0.218396	-1.487656	0.000108
C20	C	0.304253	-1.474999	0.000128
C21	C	0.406648	-1.477707	0.000139
C22	C	0.130436	-1.713377	0.000130
C23	C	0.133147	-1.852794	0.000149
C24	C	0.220895	-1.034504	0.000117
C25	C	0.218342	-0.903507	0.000143
C26	C	0.050500	-0.933085	0.000116
C27	C	0.053054	-1.064078	0.000080
C28	C	0.317797	-1.017426	0.000139
C29	C	0.315244	-0.886430	0.000164
C30	C	0.197818	-1.398541	-0.576579
C31	C	0.197833	-1.398541	-0.423243
C32	C	0.073569	-1.569051	-0.423207
C33	C	0.073550	-1.569044	-0.576541
C34	C	0.269564	-1.300102	-0.576599
C35	C	0.269580	-1.300102	-0.423262
N36	N	0.135680	-1.483790	0.346777
H37	H	-0.014241	-1.129439	0.000035
N38	N	0.361032	-0.833621	0.128065
N39	N	0.430070	-0.753985	0.115534
H40	H	0.462404	-0.716693	0.205865
H41	H	0.344534	-0.840477	-0.105001
N42	N	0.010058	-1.656114	-0.654809
N43	N	-0.045409	-1.732220	-0.586321
H44	H	-0.090255	-1.793717	-0.641596
N45	N	0.010110	-1.656118	-0.344852
N46	N	0.010129	-1.656107	-0.207948
H47	H	-0.034689	-1.717600	-0.152610
H48	H	0.247128	-1.209129	-0.375697
N49	N	-0.036518	-0.881266	0.000098
N50	N	-0.038788	-0.764307	0.000117
H51	H	-0.100246	-0.727710	0.000104
H52	H	0.355700	-1.046393	-0.101809
H53	H	0.348648	-1.052785	0.105314
H54	H	0.253767	-1.203737	-0.618202
H55	H	0.340472	-1.320864	-0.381669
H56	H	0.336535	-1.329980	-0.624181
