data_functionalizedCrystal
_audit_creation_method	'MofGen! by Chris Wilmer'
_symmetry_space_group_name_H-M	'P1'
_symmetry_Int_Tables_number	1
_symmetry_cell_setting	triclinic
loop_
_symmetry_equiv_pos_as_xyz
  x,y,z
_cell_length_a	13.031981
_cell_length_b	13.032831
_cell_length_c	13.032268
_cell_angle_alpha	89.113023
_cell_angle_beta	89.068348
_cell_angle_gamma	90.897759
loop_
_atom_site_label
_atom_site_type_symbol
_atom_site_fract_x
_atom_site_fract_y
_atom_site_fract_z
Zn1	Zn	0.684142	1.423902	0.684409
Zn2	Zn	1.184142	1.923902	1.184409
Zn3	Zn	0.835076	1.429191	0.491156
Zn4	Zn	1.335076	1.929191	0.991156
Zn5	Zn	0.641823	1.278373	0.496615
Zn6	Zn	1.141823	1.778373	0.996615
Zn7	Zn	0.829599	1.236036	0.642053
Zn8	Zn	1.329599	1.736036	1.142053
O9	O	0.747660	1.341876	0.578558
O10	O	1.247660	1.841876	1.078558
O11	O	0.724167	1.566344	0.674215
O12	O	1.224167	2.066344	1.174215
O13	O	0.794022	1.429117	0.350137
O14	O	1.294022	1.929117	0.850137
O15	O	0.505686	1.313183	0.541537
O16	O	1.005686	1.813183	1.041537
O17	O	0.835057	1.570230	0.532233
O18	O	1.335057	2.070230	1.032233
O19	O	0.536778	1.420102	0.679509
O20	O	1.036778	1.920102	1.179509
O21	O	0.652040	1.318311	0.354147
O22	O	1.152040	1.818311	0.854147
O23	O	0.646729	1.131017	0.500466
O24	O	1.146729	1.631017	1.000466
O25	O	0.825722	1.241025	0.789415
O26	O	1.325722	1.741025	1.289415
O27	O	0.784687	1.099912	0.607319
O28	O	1.284687	1.599912	1.107319
O29	O	0.718856	1.379049	0.820534
O30	O	1.218856	1.879049	1.320534
O31	O	0.976100	1.388064	0.491162
O32	O	1.476100	1.888064	0.991162
O33	O	0.972076	1.246154	0.602026
O34	O	1.472076	1.746154	1.102026
C35	C	0.710522	1.078713	0.549889
C36	C	1.210522	1.578713	1.049889
C37	C	0.694662	0.966125	0.537645
C38	C	1.194662	1.466125	1.037645
C39	C	1.010849	1.313113	0.541431
C40	C	1.510849	1.813113	1.041431
C41	C	1.123459	1.300896	0.525591
C42	C	1.623459	1.800896	1.025591
C43	C	0.483450	1.370775	0.615856
C44	C	0.983450	1.870775	1.115856
C45	C	0.370859	1.383090	0.631750
C46	C	0.870859	1.883090	1.131750
C47	C	0.755938	0.900569	0.584949
C48	C	1.255938	1.400569	1.084949
C49	C	0.739547	0.784203	0.572295
C50	C	1.239547	1.284203	1.072295
C51	C	1.188965	1.348303	0.586851
C52	C	1.688965	1.848303	1.086851
C53	C	1.305354	1.335677	0.570482
C54	C	1.805354	1.835677	1.070482
C55	C	0.776399	1.304725	0.842755
C56	C	1.276399	1.804725	1.342755
C57	C	0.788645	1.288893	0.955340
C58	C	1.288645	1.788893	1.455340
C59	C	0.784944	1.606066	0.607340
C60	C	1.284944	2.106066	1.107340
C61	C	0.800832	1.718648	0.619605
C62	C	1.300832	2.218648	1.119605
C63	C	0.718969	1.378948	0.315406
C64	C	1.218969	1.878948	0.815406
C65	C	0.706464	1.395007	0.202883
C66	C	1.206464	1.895007	0.702883
C67	C	0.741230	1.350126	1.020931
C68	C	1.241230	1.850126	1.520931
C69	C	0.753886	1.333765	1.137293
C70	C	1.253886	1.833765	1.637293
H71	H	0.820531	0.930593	0.634819
H72	H	1.320531	1.430593	1.134819
H73	H	1.158884	1.398232	0.651421
H74	H	1.658884	1.898232	1.151421
H75	H	1.340782	1.433023	0.696324
H76	H	1.840782	1.933023	1.196324
H77	H	0.656490	1.459544	1.172898
H78	H	1.156490	1.959544	1.672898
C79	C	0.652273	0.743651	0.504923
C80	C	1.152273	1.243651	1.004923
N81	N	0.586540	0.713106	0.454178
N82	N	1.086540	1.213106	0.954178
C83	C	0.607392	0.925568	0.470276
C84	C	1.107392	1.425568	0.970276
N85	N	0.541660	0.895023	0.419532
N86	N	1.041660	1.395023	0.919532
C87	C	0.821386	1.246569	1.177801
C88	C	1.321386	1.746569	1.677801
N89	N	0.872226	1.180893	1.208313
N90	N	1.372226	1.680893	1.708313
C91	C	0.888105	0.759197	0.686979
C92	C	1.388105	1.259197	1.186979
N93	N	0.953840	0.789739	0.737722
N94	N	1.453840	1.289739	1.237722
H95	H	1.335432	1.285735	0.505916
H96	H	1.835432	1.785735	1.005916
C97	C	1.164096	1.233464	0.438342
C98	C	1.664096	1.733464	0.938342
N99	N	1.194702	1.182684	0.372615
N100	N	1.694702	1.682684	0.872615
H101	H	0.691262	1.414660	0.990939
H102	H	1.191262	1.914660	1.490939
C103	C	0.856142	1.201701	0.995852
C104	C	1.356142	1.701701	1.495852
N105	N	0.906982	1.136026	1.026364
N106	N	1.406982	1.636026	1.526364
