data_functionalizedCrystal
_audit_creation_method	'MofGen! by Chris Wilmer'
_symmetry_space_group_name_H-M	'P1'
_symmetry_Int_Tables_number	1
_symmetry_cell_setting	triclinic
loop_
_symmetry_equiv_pos_as_xyz
  x,y,z
_cell_length_a	10.686220
_cell_length_b	10.686285
_cell_length_c	10.685314
_cell_angle_alpha	89.696502
_cell_angle_beta	81.642441
_cell_angle_gamma	90.345431
loop_
_atom_site_label
_atom_site_type_symbol
_atom_site_fract_x
_atom_site_fract_y
_atom_site_fract_z
Zn1	Zn	1.918443	-0.396007	0.536171
Zn2	Zn	2.418443	0.103993	1.036171
Zn3	Zn	1.950488	-0.587114	0.308092
Zn4	Zn	2.450488	-0.087114	0.808092
Zn5	Zn	1.722462	-0.396110	0.340198
Zn6	Zn	2.222462	0.103890	0.840198
Zn7	Zn	1.724944	-0.621623	0.533668
Zn8	Zn	2.224944	-0.121623	1.033668
O9	O	1.829084	-0.500213	0.429532
O10	O	2.329084	-0.000213	0.929532
O11	O	2.099103	-0.406872	0.493527
O12	O	2.599103	0.093128	0.993527
O13	O	1.932612	-0.547377	0.135931
O14	O	2.432612	-0.047377	0.635931
O15	O	1.734009	-0.221739	0.380678
O16	O	2.234009	0.278261	0.880678
O17	O	2.122647	-0.547278	0.325958
O18	O	2.622647	-0.047278	0.825958
O19	O	1.877996	-0.221663	0.524659
O20	O	2.377996	0.278337	1.024659
O21	O	1.765082	-0.407047	0.159519
O22	O	2.265082	0.092953	0.659519
O23	O	1.546382	-0.440510	0.378251
O24	O	2.046382	0.059490	0.878251
O25	O	1.738241	-0.606094	0.710420
O26	O	2.238241	-0.106094	1.210420
O27	O	1.548206	-0.606194	0.520393
O28	O	2.048206	-0.106194	1.020393
O29	O	1.880403	-0.440334	0.712259
O30	O	2.380403	0.059666	1.212259
O31	O	1.935019	-0.766049	0.323531
O32	O	2.435019	-0.266049	0.823531
O33	O	1.769313	-0.791402	0.489261
O34	O	2.269313	-0.291402	0.989261
C35	C	1.501553	-0.527108	0.452535
C36	C	2.001553	-0.027108	0.952535
C37	C	1.361433	-0.538647	0.462403
C38	C	1.861433	-0.038647	0.962403
C39	C	1.855945	-0.823934	0.402665
C40	C	2.355945	-0.323934	0.902665
C41	C	1.867549	-0.962417	0.391206
C42	C	2.367549	-0.462417	0.891206
C43	C	2.157895	-0.473214	0.406440
C44	C	2.657895	0.026786	0.906440
C45	C	2.298015	-0.461708	0.396600
C46	C	2.798015	0.038292	0.896600
C47	C	1.806024	-0.527052	0.758362
C48	C	2.306024	-0.027052	1.258362
C49	C	1.796197	-0.538489	0.898490
C50	C	2.296197	-0.038489	1.398490
C51	C	1.802151	-0.175228	0.456529
C52	C	2.302151	0.324772	0.956529
C53	C	1.790674	-0.036739	0.468034
C54	C	2.290674	0.463261	0.968034
C55	C	1.852120	-0.473383	0.101984
C56	C	2.352120	0.026617	0.601984
C57	C	1.862162	-0.461575	-0.038131
C58	C	2.362162	0.038425	0.461869
H59	H	1.308528	-0.613356	0.526285
H60	H	1.808528	-0.113356	1.026285
H61	H	1.350915	-0.387012	0.332713
H62	H	1.850915	0.112988	0.832713
N63	N	1.946934	-0.362751	0.891745
N64	N	2.446934	0.137249	1.391745
H65	H	1.989559	-0.313053	0.953945
H66	H	2.489559	0.186947	1.453945
H67	H	1.894627	-0.304891	0.845511
H68	H	2.394627	0.195109	1.345511
N69	N	1.691727	-0.980703	0.566778
N70	N	2.191727	-0.480703	1.066778
H71	H	1.697187	-0.886401	0.561246
H72	H	2.197187	-0.386401	1.061246
H73	H	1.706830	-1.009084	0.653609
H74	H	2.206830	-0.509084	1.153609
H75	H	1.942238	-1.004736	0.316648
H76	H	2.442238	-0.504736	0.816648
N77	N	1.711447	-0.637323	0.968606
N78	N	2.211447	-0.137323	1.468606
H79	H	1.668823	-0.687025	0.906408
H80	H	2.168823	-0.187025	1.406408
H81	H	1.645119	-0.595807	1.031557
H82	H	2.145119	-0.095807	1.531557
