data_functionalizedCrystal
_audit_creation_method	'MofGen! by Chris Wilmer'
_symmetry_space_group_name_H-M	'P1'
_symmetry_Int_Tables_number	1
_symmetry_cell_setting	triclinic
loop_
_symmetry_equiv_pos_as_xyz
  x,y,z
_cell_length_a	19.121241
_cell_length_b	29.839131
_cell_length_c	19.120915
_cell_angle_alpha	92.398903
_cell_angle_beta	89.877787
_cell_angle_gamma	92.469032
loop_
_atom_site_label
_atom_site_type_symbol
_atom_site_fract_x
_atom_site_fract_y
_atom_site_fract_z
Zn1	Zn	1.054809	-0.162191	-0.442143
Zn2	Zn	1.554809	0.337809	0.057857
Zn3	Zn	1.059714	-0.233989	-0.324885
Zn4	Zn	1.559714	0.266011	0.175115
Zn5	Zn	0.942580	-0.161928	-0.319913
Zn6	Zn	1.442580	0.338072	0.180087
Zn7	Zn	0.937517	-0.240351	-0.437069
Zn8	Zn	1.437517	0.259649	0.062931
O9	O	0.998655	-0.199615	-0.381003
O10	O	1.498655	0.300385	0.118997
O11	O	1.153567	-0.169163	-0.430793
O12	O	1.653567	0.330837	0.069207
O13	O	1.048348	-0.221658	-0.226122
O14	O	1.548348	0.278342	0.273878
O15	O	0.957533	-0.099095	-0.336170
O16	O	1.457533	0.400905	0.163830
O17	O	1.157171	-0.221913	-0.344643
O18	O	1.657171	0.278087	0.155357
O19	O	1.039987	-0.099289	-0.425972
O20	O	1.539987	0.400711	0.074028
O21	O	0.962290	-0.168715	-0.222470
O22	O	1.462290	0.331285	0.277530
O23	O	0.843800	-0.174883	-0.331250
O24	O	1.343800	0.325117	0.168750
O25	O	0.948904	-0.232755	-0.535846
O26	O	1.448904	0.267245	-0.035846
O27	O	0.840080	-0.232500	-0.417324
O28	O	1.340080	0.267500	0.082676
O29	O	1.035078	-0.175331	-0.539574
O30	O	1.535078	0.324669	-0.039574
O31	O	1.043438	-0.297701	-0.339723
O32	O	1.543438	0.202299	0.160277
O33	O	0.953660	-0.302374	-0.422145
O34	O	1.453660	0.197626	0.077855
C35	C	0.816502	-0.204354	-0.373198
C36	C	1.316502	0.295646	0.126802
C37	C	0.738575	-0.206392	-0.369875
C38	C	1.238575	0.293608	0.130125
C39	C	0.700087	-0.179933	-0.413236
C40	C	1.200087	0.320067	0.086764
C41	C	0.626867	-0.181847	-0.410108
C42	C	1.126867	0.318153	0.089892
C43	C	0.592137	-0.210221	-0.363623
C44	C	1.092137	0.289779	0.136377
C45	C	0.630631	-0.236681	-0.320257
C46	C	1.130631	0.263319	0.179743
C47	C	0.703849	-0.234765	-0.323382
C48	C	1.203849	0.265235	0.176618
C49	C	0.371157	-0.217375	-0.351937
C50	C	0.871157	0.282625	0.148063
C51	C	0.297933	-0.219290	-0.348817
C52	C	0.797933	0.280710	0.151183
C53	C	0.294175	-0.164454	-0.438668
C54	C	0.794175	0.335546	0.061332
C55	C	0.367395	-0.162543	-0.441791
C56	C	0.867395	0.337457	0.058209
C57	C	0.405882	-0.189001	-0.398423
C58	C	0.905882	0.310999	0.101577
C59	C	0.517294	-0.212178	-0.360426
C60	C	1.017294	0.287822	0.139574
C61	C	0.480724	-0.187041	-0.401617
C62	C	0.980724	0.312959	0.098383
C63	C	0.998550	-0.316339	-0.380939
C64	C	1.498550	0.183661	0.119061
C65	C	0.998569	-0.366272	-0.380938
C66	C	1.498569	0.133728	0.119062
C67	C	1.041576	-0.675983	-0.427826
C68	C	1.541576	-0.175983	0.072174
C69	C	1.041650	-0.863655	-0.427871
C70	C	1.541650	-0.363655	0.072129
O71	O	1.078114	-0.887979	-0.467689
O72	O	1.578114	-0.387979	0.032311
N73	N	0.998771	-0.887056	-0.381086
N74	N	1.498771	-0.387056	0.118914
C75	C	0.955866	-0.863536	-0.334288
C76	C	1.455866	-0.363536	0.165712
O77	O	0.919390	-0.887746	-0.294500
O78	O	1.419390	-0.387746	0.205500
C79	C	0.955788	-0.675865	-0.334247
C80	C	1.455788	-0.175865	0.165753
C81	C	0.998676	-0.652466	-0.381031
C82	C	1.498676	-0.152466	0.118969
C83	C	1.084460	-0.652584	-0.474607
C84	C	1.584460	-0.152584	0.025393
C85	C	1.084444	-0.605669	-0.474592
C86	C	1.584444	-0.105669	0.025408
C87	C	1.041544	-0.582152	-0.427797
C88	C	1.541544	-0.082152	0.072203
C89	C	0.998660	-0.605551	-0.381016
C90	C	1.498660	-0.105551	0.118984
C91	C	0.912880	-0.652346	-0.287453
C92	C	1.412880	-0.152346	0.212547
C93	C	0.912863	-0.605425	-0.287448
C94	C	1.412863	-0.105425	0.212552
C95	C	0.955751	-0.582027	-0.334232
C96	C	1.455751	-0.082027	0.165768
C97	C	0.955744	-0.535119	-0.334207
C98	C	1.455744	-0.035119	0.165793
N99	N	0.998624	-0.511718	-0.380993
N100	N	1.498624	-0.011718	0.119007
C101	C	1.041524	-0.535235	-0.427788
C102	C	1.541524	-0.035235	0.072212
C103	C	0.955910	-0.962066	-0.334312
C104	C	1.455910	-0.462066	0.165688
C105	C	0.955931	-1.008984	-0.334322
C106	C	1.455931	-0.508984	0.165678
C107	C	1.041714	-1.009100	-0.427906
C108	C	1.541714	-0.509100	0.072094
C109	C	1.041697	-0.962181	-0.427893
C110	C	1.541697	-0.462181	0.072107
C111	C	0.998790	-0.938665	-0.381098
C112	C	1.498790	-0.438665	0.118902
C113	C	1.041487	-0.436709	-0.427754
C114	C	1.541487	0.063291	0.072246
C115	C	1.041469	-0.389789	-0.427733
C116	C	1.541469	0.110211	0.072267
C117	C	0.955683	-0.389678	-0.334152
C118	C	1.455683	0.110322	0.165848
C119	C	0.955703	-0.436593	-0.334169
C120	C	1.455703	0.063407	0.165831
C121	C	0.998607	-0.460108	-0.380976
C122	C	1.498607	0.039892	0.119024
O123	O	0.919294	-0.510767	-0.294416
O124	O	1.419294	-0.010767	0.205584
O125	O	1.077982	-0.511017	-0.467581
O126	O	1.577982	-0.011017	0.032419
C127	C	1.041592	-0.722898	-0.427840
C128	C	1.541592	-0.222898	0.072160
C129	C	0.998708	-0.746297	-0.381060
C130	C	1.498708	-0.246297	0.118940
C131	C	0.955808	-0.722780	-0.334264
C132	C	1.455808	-0.222780	0.165736
C133	C	0.998729	-0.793215	-0.381069
C134	C	1.498729	-0.293215	0.118931
C135	C	1.041629	-0.816731	-0.427864
C136	C	1.541629	-0.316731	0.072136
C137	C	1.084508	-0.793331	-0.474650
C138	C	1.584508	-0.293331	0.025350
C139	C	1.084492	-0.746415	-0.474636
C140	C	1.584492	-0.246415	0.025364
C141	C	0.912929	-0.746181	-0.287479
C142	C	1.412929	-0.246181	0.212521
C143	C	0.912949	-0.793096	-0.287496
C144	C	1.412949	-0.293096	0.212504
C145	C	0.955849	-0.816613	-0.334292
C146	C	1.455849	-0.316613	0.165708
C147	C	1.181519	-0.194858	-0.388839
C148	C	1.681519	0.305142	0.111161
C149	C	1.259445	-0.192831	-0.392178
C150	C	1.759445	0.307169	0.107822
C151	C	0.990879	-0.204782	-0.563858
C152	C	1.490879	0.295218	-0.063858
C153	C	0.987565	-0.206984	-0.641780
C154	C	1.487565	0.293016	-0.141780
C155	C	0.998778	-0.082435	-0.381083
C156	C	1.498778	0.417565	0.118917
C157	C	0.998831	-0.032500	-0.381117
C158	C	1.498831	0.467500	0.118883
C159	C	0.966580	-0.220962	-1.082394
C160	C	1.466580	0.279038	-0.582394
C161	C	0.969691	-0.218886	-1.009178
C162	C	1.469691	0.281114	-0.509178
C163	C	1.016116	-0.187954	-0.974514
C164	C	1.516116	0.312046	-0.474514
C165	C	1.059428	-0.159092	-1.013071
C166	C	1.559428	0.340908	-0.513071
C167	C	1.056313	-0.161165	-1.086285
C168	C	1.556313	0.338835	-0.586285
C169	C	1.027762	-0.180195	-0.753551
C170	C	1.527762	0.319805	-0.253551
C171	C	1.030875	-0.178125	-0.680331
C172	C	1.530875	0.321875	-0.180331
C173	C	0.941137	-0.237919	-0.676443
C174	C	1.441137	0.262081	-0.176443
C175	C	0.938029	-0.239992	-0.749659
C176	C	1.438029	0.260008	-0.249659
C177	C	0.981339	-0.211128	-0.788209
C178	C	1.481339	0.288872	-0.288209
C179	C	1.019298	-0.185832	-0.899676
C180	C	1.519298	0.314168	-0.399676
C181	C	0.978152	-0.213247	-0.863046
C182	C	1.478152	0.286753	-0.363046
C183	C	1.006441	-0.194435	-0.198861
C184	C	1.506441	0.305565	0.301139
C185	C	1.009890	-0.192103	-0.120945
C186	C	1.509890	0.307897	0.379055
H187	H	0.402485	-0.238919	-0.316624
H188	H	0.902485	0.261081	0.183376
H189	H	0.595532	-0.160302	-0.445419
H190	H	1.095532	0.339698	0.054581
F191	F	1.080291	-0.145202	-0.643441
F192	F	1.580291	0.354798	-0.143441
F193	F	0.917171	-0.253886	-1.119279
F194	F	1.417171	0.246114	-0.619279
H195	H	0.920786	-0.455645	-0.296069
H196	H	1.420786	0.044355	0.203931
H197	H	0.602348	-0.259782	-0.282404
H198	H	1.102348	0.240218	0.217596
F199	F	0.888624	-0.272918	-0.786546
F200	F	1.388624	0.227082	-0.286546
F201	F	0.480325	-0.242376	-0.310955
F202	F	0.980325	0.257624	0.189045
F203	F	1.087343	-0.937283	-0.477687
F204	F	1.587343	-0.437283	0.022313
F205	F	0.895045	-0.268634	-0.635411
F206	F	1.395045	0.231366	-0.135411
F207	F	1.108823	-0.126162	-0.976177
F208	F	1.608823	0.373838	-0.476177
F209	F	1.073885	-0.149494	-0.794570
F210	F	1.573885	0.350506	-0.294570
F211	F	0.404352	-0.132346	-0.491271
F212	F	0.904352	0.367654	0.008729
H213	H	1.091578	-0.137664	-1.117673
H214	H	1.591578	0.362336	-0.617673
H215	H	0.262830	-0.142913	-0.473975
H216	H	0.762830	0.357087	0.026025
F217	F	1.087372	-1.034136	-0.477709
F218	F	1.587372	-0.534136	0.022291
H219	H	0.877921	-0.586281	-0.249343
H220	H	1.377921	-0.086281	0.250657
F221	F	0.910237	-0.937045	-0.284506
F222	F	1.410237	-0.437045	0.215494
H223	H	1.076396	-0.370739	-0.465830
H224	H	1.576396	0.129261	0.034170
F225	F	1.087151	-0.461728	-0.477570
F226	F	1.587151	0.038272	0.022430
F227	F	1.068691	-0.152903	-0.862777
F228	F	1.568691	0.347097	-0.362777
H229	H	0.934431	-0.242391	-0.977793
H230	H	1.434431	0.257609	-0.477793
H231	H	1.119364	-0.586621	-0.512690
H232	H	1.619364	-0.086621	-0.012690
H233	H	0.940350	-0.238430	-0.891272
H234	H	1.440350	0.261570	-0.391272
H235	H	0.728359	-0.156829	-0.451092
H236	H	1.228359	0.343171	0.048908
H237	H	0.877993	-0.727037	-0.249373
H238	H	1.377993	-0.227037	0.250627
F239	F	0.260972	-0.249500	-0.299351
F240	F	0.760972	0.250500	0.200649
H241	H	0.509004	-0.163937	-0.439462
H242	H	1.009004	0.336063	0.060538
F243	F	0.744812	-0.262926	-0.277231
F244	F	1.244812	0.237074	0.222769
H245	H	1.119394	-0.671727	-0.512717
H246	H	1.619394	-0.171727	-0.012717
F247	F	0.910293	-1.033881	-0.284519
F248	F	1.410293	-0.533881	0.215481
H249	H	0.877956	-0.671389	-0.249357
H250	H	1.377956	-0.171389	0.250643
F251	F	0.910029	-0.364641	-0.284351
F252	F	1.410029	0.135359	0.215649
H253	H	1.119415	-0.727367	-0.512732
H254	H	1.619415	-0.227367	-0.012732
H255	H	0.878026	-0.812143	-0.249393
H256	H	1.378026	-0.312143	0.250607
F257	F	1.130168	-0.818367	-0.524451
F258	F	1.630168	-0.318367	-0.024451
