data_functionalizedCrystal
_audit_creation_method	'MofGen! by Chris Wilmer'
_symmetry_space_group_name_H-M	'P1'
_symmetry_Int_Tables_number	1
_symmetry_cell_setting	triclinic
loop_
_symmetry_equiv_pos_as_xyz
  x,y,z
_cell_length_a	6.817900
_cell_length_b	12.908942
_cell_length_c	10.992410
_cell_angle_alpha	94.375677
_cell_angle_beta	108.764651
_cell_angle_gamma	100.860556
loop_
_atom_site_label
_atom_site_type_symbol
_atom_site_fract_x
_atom_site_fract_y
_atom_site_fract_z
V1	V	-4.073725	-0.145852	-0.399878
O2	O	-4.074323	0.007009	-0.393002
O3	O	-4.011476	-0.289201	-0.396436
O4	O	-4.051940	-0.143609	-0.574602
O5	O	-4.033579	-0.139591	-0.213603
V6	V	-4.555698	-0.127568	-0.377684
O7	O	-4.338382	-0.185960	-0.448563
O8	O	-4.741239	-0.087461	-0.329000
O9	O	-4.394741	0.015780	-0.381126
O10	O	-4.672497	-0.280430	-0.384561
O11	O	-4.713241	-0.133830	-0.563960
O12	O	-4.354276	-0.129812	-0.202961
C13	C	-3.852247	-0.324146	-0.389945
C14	C	-3.882815	-0.441335	-0.388295
C15	C	-4.305471	-0.672288	-0.397991
C16	C	-4.334203	-0.782398	-0.396441
C17	C	-3.969016	-0.771668	-0.383655
C18	C	-3.940285	-0.661558	-0.385205
C19	C	-4.108519	-0.611872	-0.392371
C20	C	-4.079781	-0.501759	-0.393912
C21	C	-3.714601	-0.491032	-0.381135
C22	C	-3.743333	-0.601142	-0.379585
C23	C	-3.903862	-0.138428	-0.617212
C24	C	-3.967242	-0.137542	-0.760044
C25	C	-3.836608	-0.129471	-0.955207
C26	C	-3.770680	-0.130829	-0.806717
C27	C	-4.136379	-0.241483	-0.836639
C28	C	-4.200948	-0.240564	-0.985210
C29	C	-4.134634	-0.039296	-0.948165
C30	C	-4.064062	-0.038804	-0.799154
C31	C	-4.217311	0.050720	-0.387614
C32	C	-4.165982	0.167908	-0.389272
C33	C	-4.165696	-0.134997	-0.160344
C34	C	-4.081554	-0.135877	-0.017510
H35	H	-3.606370	-0.641613	-0.373756
C36	C	-3.598377	-0.029773	-0.735229
C37	C	-3.385807	-0.007708	-0.760330
C38	C	-3.213596	0.093397	-0.688891
C39	C	-3.253956	0.172437	-0.592351
C40	C	-3.466535	0.150374	-0.567245
C41	C	-3.638746	0.049269	-0.638684
H42	H	-3.355921	-0.066220	-0.831799
H43	H	-3.056230	0.109729	-0.707477
H44	H	-3.126475	0.247281	-0.539467
H45	H	-3.496420	0.208886	-0.495776
H46	H	-3.796112	0.032937	-0.620099
H47	H	-4.206514	-0.037583	-0.766648
H48	H	-4.216764	-0.461305	-0.399738
C49	C	-3.706510	-0.027815	-0.981152
C50	C	-3.733379	-0.008997	-1.121699
C51	C	-3.603288	0.092663	-1.147656
C52	C	-3.446329	0.175504	-1.033066
C53	C	-3.419453	0.156688	-0.892510
C54	C	-3.549544	0.055028	-0.866553
H55	H	-3.849575	-0.070323	-1.206533
H56	H	-3.623184	0.106592	-1.251705
H57	H	-3.350028	0.250759	-1.052281
H58	H	-3.303256	0.218014	-0.807676
H59	H	-3.529648	0.041100	-0.762503
H60	H	-4.070250	-0.314791	-0.810675
H61	H	-3.554224	-0.441829	-0.376557
H62	H	-3.792390	-0.198865	-1.002860
H63	H	-3.693952	-0.201187	-0.781558
C64	C	-4.152470	-0.339352	-1.047240
C65	C	-4.260398	-0.451894	-1.034018
C66	C	-4.211910	-0.550684	-1.096038
C67	C	-4.055493	-0.536932	-1.171279
C68	C	-3.947555	-0.424385	-1.184504
C69	C	-3.996043	-0.325595	-1.122484
H70	H	-4.376196	-0.462078	-0.978317
H71	H	-4.291814	-0.633999	-1.086248
H72	H	-4.019599	-0.610062	-1.217190
H73	H	-3.831757	-0.414201	-1.240205
H74	H	-3.916139	-0.242280	-1.132275
C75	C	-4.336276	-0.253204	-0.797671
C76	C	-4.348285	-0.168327	-0.695602
C77	C	-4.548179	-0.180047	-0.656629
C78	C	-4.736063	-0.276645	-0.719726
C79	C	-4.724061	-0.361529	-0.821800
C80	C	-4.524167	-0.349809	-0.860773
H81	H	-4.209196	-0.096813	-0.648889
H82	H	-4.557062	-0.117209	-0.581067
H83	H	-4.884036	-0.285320	-0.690876
H84	H	-4.863150	-0.433043	-0.868513
H85	H	-4.515283	-0.412647	-0.936336
H86	H	-4.053650	0.039634	-0.968910
H87	H	-4.442446	-0.631831	-0.403807
H88	H	-4.494578	-0.831586	-0.401020
H89	H	-3.942171	0.038087	-0.747173
H90	H	-4.380439	-0.249602	-1.027797
H91	H	-3.832063	-0.812144	-0.377833
H92	H	-4.312569	-0.043074	-0.988987
