data_functionalizedCrystal
_audit_creation_method	'MofGen! by Chris Wilmer'
_symmetry_space_group_name_H-M	'P1'
_symmetry_Int_Tables_number	1
_symmetry_cell_setting	triclinic
loop_
_symmetry_equiv_pos_as_xyz
  x,y,z
_cell_length_a	11.792241
_cell_length_b	11.792241
_cell_length_c	10.268362
_cell_angle_alpha	89.994090
_cell_angle_beta	89.996518
_cell_angle_gamma	95.806584
loop_
_atom_site_label
_atom_site_type_symbol
_atom_site_fract_x
_atom_site_fract_y
_atom_site_fract_z
O1	O	1.506902	-0.155570	0.108174
O2	O	2.006902	0.344430	0.608174
O3	O	1.176561	-0.171603	0.108205
O4	O	1.676561	0.328397	0.608205
O5	O	1.349748	0.001584	0.108180
O6	O	1.849748	0.501584	0.608180
O7	O	1.333715	-0.328757	0.108199
O8	O	1.833715	0.171243	0.608199
O9	O	1.349746	0.001594	-0.108421
O10	O	1.849746	0.501594	0.391579
O11	O	1.176559	-0.171593	-0.108396
O12	O	1.676559	0.328407	0.391604
O13	O	1.506900	-0.155560	-0.108426
O14	O	2.006900	0.344440	0.391574
Cu15	Cu	1.341729	-0.163576	-0.128188
Cu16	Cu	1.841729	0.336424	0.371812
Cu17	Cu	1.341732	-0.163588	0.127967
Cu18	Cu	1.841732	0.336412	0.627967
O19	O	1.333713	-0.328747	-0.108401
O20	O	1.833713	0.171253	0.391599
C21	C	1.134269	-0.170591	-0.000092
C22	C	1.634269	0.329409	0.499908
C23	C	1.008255	-0.167576	-0.000080
C24	C	1.508255	0.332424	0.499920
C25	C	1.348740	0.043880	-0.000120
C26	C	1.848740	0.543880	0.499880
C27	C	1.345726	0.169894	-0.000119
C28	C	1.845726	0.669894	0.499881
N29	N	1.341734	-0.163588	0.308133
N30	N	1.841734	0.336412	0.808133
C31	C	0.777543	-0.162034	-0.000118
C32	C	1.277543	0.337966	0.499882
C33	C	0.905928	-0.165113	-0.000097
C34	C	1.405928	0.334887	0.499903
C35	C	1.549192	-0.156572	-0.000127
C36	C	2.049192	0.343428	0.499873
C37	C	1.675206	-0.159587	-0.000130
C38	C	2.175206	0.340413	0.499870
C39	C	1.334721	-0.371043	-0.000099
C40	C	1.834721	0.128957	0.499901
C41	C	1.337736	-0.497057	-0.000092
C42	C	1.837736	0.002943	0.499908
C43	C	1.340183	0.400606	-0.000096
C44	C	1.840183	0.900606	0.499904
C45	C	1.343262	0.272221	-0.000108
C46	C	1.843262	0.772221	0.499892
N47	N	1.341736	-0.163566	-0.308354
N48	N	1.841736	0.336434	0.191646
C49	C	1.341731	-0.163581	0.573803
C50	C	1.841731	0.336419	1.073803
C51	C	1.341730	-0.163588	0.425965
C52	C	1.841730	0.336412	0.925965
