data_functionalizedCrystal
_audit_creation_method	'MofGen! by Chris Wilmer'
_symmetry_space_group_name_H-M	'P1'
_symmetry_Int_Tables_number	1
_symmetry_cell_setting	triclinic
loop_
_symmetry_equiv_pos_as_xyz
  x,y,z
_cell_length_a	18.050591
_cell_length_b	12.759399
_cell_length_c	12.759386
_cell_angle_alpha	90.062858
_cell_angle_beta	89.949676
_cell_angle_gamma	89.988878
loop_
_atom_site_label
_atom_site_type_symbol
_atom_site_fract_x
_atom_site_fract_y
_atom_site_fract_z
Zn1	Zn	1.135576	0.417996	-0.594237
Zn2	Zn	1.135451	0.593809	-0.418556
Zn3	Zn	1.011331	0.418133	-0.418548
Zn4	Zn	1.011371	0.593621	-0.594169
O5	O	1.073432	0.505890	-0.506377
O6	O	1.239484	0.441339	-0.570964
O7	O	1.118917	0.570642	-0.271533
O8	O	1.027848	0.271094	-0.441879
O9	O	1.239392	0.570509	-0.441892
O10	O	1.119130	0.270993	-0.570957
O11	O	1.027727	0.441573	-0.271528
O12	O	0.907412	0.441390	-0.441813
O13	O	1.027916	0.570188	-0.741199
O14	O	0.907441	0.570321	-0.570841
O15	O	1.119169	0.441157	-0.741249
O16	O	1.118956	0.740806	-0.441826
O17	O	1.027795	0.740667	-0.570848
C18	C	0.880480	0.505851	-0.506319
C19	C	0.797934	0.505859	-0.506319
C20	C	1.073387	0.778857	-0.506353
C21	C	1.073435	0.895634	-0.506378
C22	C	1.073561	0.505636	-0.780411
C23	C	1.073616	0.505528	-0.897188
C24	C	0.598446	0.435665	-0.436315
C25	C	0.549033	0.531510	-0.410466
C26	C	0.646804	0.505891	-0.506367
C27	C	0.549136	0.410080	-0.532214
C28	C	0.500819	0.505913	-0.506411
C29	C	0.598478	0.601786	-0.480467
C30	C	0.598585	0.480291	-0.602260
C31	C	0.549194	0.576202	-0.576446
C32	C	0.730902	0.505877	-0.506339
C33	C	0.416723	0.505939	-0.506439
C34	C	1.267138	0.505930	-0.506436
C35	C	1.349684	0.505947	-0.506461
C36	C	1.073498	0.231857	-0.506424
C37	C	1.073526	0.115080	-0.506444
C38	C	1.120957	0.950533	-0.439273
C39	C	1.121005	1.060257	-0.439308
C40	C	1.026003	1.060173	-0.573557
C41	C	1.025959	0.950451	-0.573527
C42	C	1.208653	1.210165	-0.401937
C43	C	1.256168	1.265068	-0.334815
C44	C	1.267565	1.229586	-0.232307
C45	C	1.231437	1.139203	-0.196900
C46	C	1.183916	1.084306	-0.264017
C47	C	1.172533	1.119786	-0.366539
C48	C	0.938310	0.800541	-0.610887
C49	C	0.890785	0.745642	-0.677998
C50	C	0.879380	0.781122	-0.780508
C51	C	0.915495	0.871508	-0.815912
C52	C	0.963020	0.926407	-0.748800
C53	C	0.974427	0.890920	-0.646291
C54	C	1.073347	0.506067	-0.233410
C55	C	1.073436	0.505879	-0.116633
C56	C	1.025658	0.439085	-0.061818
C57	C	1.025749	0.438906	0.047906
C58	C	1.121399	0.572325	0.047989
C59	C	1.121311	0.572497	-0.061733
C60	C	0.998728	0.315036	0.197603
C61	C	0.950939	0.248252	0.252422
C62	C	0.878368	0.232909	0.216977
C63	C	0.853573	0.284366	0.126714
C64	C	0.901359	0.351159	0.071901
C65	C	0.973939	0.366481	0.107344
C66	C	1.148324	0.696369	-0.211432
C67	C	1.196107	0.763167	-0.266247
C68	C	1.268678	0.778521	-0.230804
C69	C	1.293471	0.727082	-0.140539
C70	C	1.245688	0.660284	-0.085723
C71	C	1.173118	0.644928	-0.121174
H72	H	0.620073	0.376342	-0.377011
Br73	Br	1.333523	0.869191	-0.305189
Br74	Br	1.391961	0.747926	-0.092423
H75	H	0.620061	0.682846	-0.458534
H76	H	1.154503	1.010717	-0.235190
H77	H	1.175915	0.805051	-0.339747
Br78	Br	1.049832	0.675525	-0.259546
Br79	Br	0.512757	0.567631	-0.275336
H80	H	1.057823	0.327512	0.226464
H81	H	0.971134	0.206355	0.325914
Br82	Br	0.513372	0.675309	-0.675219
Br83	Br	0.634888	0.444130	-0.737358
Br84	Br	0.513002	0.275019	-0.568618
Br85	Br	1.186370	0.662729	0.122503
H86	H	0.992430	1.000002	-0.777635
H87	H	1.159616	0.905903	-0.384598
Br88	Br	1.246897	1.091064	-0.057767
Br89	Br	0.900017	0.919667	-0.955035
H90	H	0.947599	0.771639	-0.527417
H91	H	0.839458	0.178530	0.261618
H92	H	1.306254	1.274295	-0.177656
Br93	Br	0.841741	0.623003	-0.629933
H94	H	1.285584	1.338657	-0.363654
H95	H	1.199384	1.239056	-0.485411
H96	H	0.987348	1.104819	-0.628226
Br97	Br	0.814830	0.706665	-0.871560
H98	H	0.986678	0.384836	-0.106515
H99	H	1.265881	0.618399	-0.012224
H100	H	0.881171	0.393054	-0.001589
Br101	Br	0.755076	0.263552	0.078623
