data_functionalizedCrystal
_audit_creation_method	'MofGen! by Chris Wilmer'
_symmetry_space_group_name_H-M	'P1'
_symmetry_Int_Tables_number	1
_symmetry_cell_setting	triclinic
loop_
_symmetry_equiv_pos_as_xyz
  x,y,z
_cell_length_a	13.339070
_cell_length_b	17.699083
_cell_length_c	16.776229
_cell_angle_alpha	90.001114
_cell_angle_beta	89.996888
_cell_angle_gamma	80.543846
loop_
_atom_site_label
_atom_site_type_symbol
_atom_site_fract_x
_atom_site_fract_y
_atom_site_fract_z
O1	O	0.127864	-1.031106	-0.066171
O2	O	0.144499	-0.814244	-0.066196
O3	O	-0.011021	-0.897786	-0.066184
O4	O	0.283384	-0.947563	-0.066183
O5	O	-0.011031	-0.897768	0.066392
O6	O	0.144489	-0.814226	0.066380
O7	O	0.127854	-1.031088	0.066406
Zn8	Zn	0.136170	-0.922654	0.087442
Zn9	Zn	0.136183	-0.922677	-0.087233
O10	O	0.283374	-0.947546	0.066394
C11	C	0.143898	-0.785912	0.000089
C12	C	0.142110	-0.701516	0.000079
N13	N	0.136161	-0.922644	0.206654
C14	C	-0.048694	-0.889369	0.000102
C15	C	-0.160935	-0.864305	0.000096
C16	C	-0.526207	-1.059185	0.000119
C17	C	-0.420752	-1.082736	0.000129
C18	C	-0.355792	-1.028130	0.000121
C19	C	-0.396298	-0.949970	0.000102
C20	C	-0.501763	-0.926417	0.000098
C21	C	-0.331349	-0.895362	0.000100
C22	C	-0.371855	-0.817202	0.000082
C23	C	-0.477310	-0.793652	0.000077
C24	C	-0.542269	-0.848258	0.000086
C25	C	-0.225884	-0.918915	0.000104
C26	C	-0.201441	-0.786147	0.000083
C27	C	-0.306895	-0.762596	0.000073
C28	C	0.321047	-0.955963	0.000106
C29	C	0.433288	-0.981027	0.000107
C30	C	0.128455	-1.059420	0.000119
C31	C	0.130243	-1.143816	0.000124
C32	C	0.233397	-0.672191	0.000079
C33	C	0.231710	-0.592891	0.000090
C34	C	0.138736	-0.542918	0.000094
C35	C	0.047442	-0.572248	0.000096
C36	C	0.049129	-0.651546	0.000091
C37	C	0.040635	-0.252446	0.000115
C38	C	0.038955	-0.173143	0.000117
C39	C	0.223216	-0.193791	0.000114
C40	C	0.224904	-0.273089	0.000109
C41	C	0.133610	-0.302412	0.000115
C42	C	0.135440	-0.388398	0.000106
C43	C	0.136906	-0.456933	0.000098
N44	N	0.136184	-0.922692	-0.206444
C45	C	0.067325	-0.959658	0.248376
C46	C	0.067324	-0.959662	0.331828
C47	C	0.136165	-0.922656	0.373556
C48	C	0.205004	-0.885638	0.331828
C49	C	0.204999	-0.885629	0.248378
C50	C	0.205024	-0.885669	0.668375
C51	C	0.205026	-0.885682	0.751832
C52	C	0.067349	-0.959702	0.751826
C53	C	0.067344	-0.959694	0.668375
C54	C	0.136179	-0.922672	0.626654
C55	C	0.136178	-0.922667	0.536166
C56	C	0.136172	-0.922666	0.464043
H57	H	-0.192915	-0.982554	0.000119
C58	C	0.279881	-0.845641	0.797180
C59	C	0.341736	-0.898943	0.845062
C60	C	0.410709	-0.862090	0.886840
H61	H	0.243675	-0.806524	0.829809
H62	H	0.320933	-0.823612	0.760406
H63	H	0.300689	-0.920961	0.881832
H64	H	0.377965	-0.938062	0.812453
H65	H	0.451761	-0.840061	0.850066
H66	H	0.374494	-0.822974	0.919464
H67	H	0.452692	-0.898251	0.919327
C68	C	0.279824	-0.845619	0.622988
C69	C	0.341633	-0.898910	0.575057
C70	C	0.410551	-0.862044	0.533227
H71	H	0.320922	-0.823588	0.659707
H72	H	0.243543	-0.806497	0.590394
H73	H	0.377912	-0.938018	0.607649
H74	H	0.300564	-0.920944	0.538324
H75	H	0.374270	-0.822922	0.500632
H76	H	0.451642	-0.840014	0.569951
H77	H	0.452491	-0.898194	0.500695
H78	H	0.306046	-0.569019	0.000089
H79	H	0.011272	-0.989801	0.365798
H80	H	-0.628140	-0.829087	0.000074
C81	C	0.325951	-0.327220	0.000147
C82	C	0.405539	-0.284565	0.000172
C83	C	0.498639	-0.334403	0.000221
H84	H	0.330589	-0.358603	-0.046074
H85	H	0.330488	-0.358573	0.046397
H86	H	0.401005	-0.253225	-0.046073
H87	H	0.400935	-0.253185	0.046389
H88	H	0.503175	-0.365756	0.046471
H89	H	0.503266	-0.365783	-0.046001
H90	H	0.552650	-0.305469	0.000245
H91	H	-0.387780	-1.146374	0.000146
C92	C	-0.521093	-0.708758	0.000025
C93	C	-0.441638	-0.665976	-0.000002
C94	C	-0.481931	-0.587769	-0.000060
H95	H	-0.561714	-0.696699	0.046243
H96	H	-0.561692	-0.696783	-0.046227
H97	H	-0.401057	-0.677945	0.046246
H98	H	-0.401011	-0.678010	-0.046217
H99	H	-0.522529	-0.575795	-0.046312
H100	H	-0.522551	-0.575718	0.046159
H101	H	-0.428028	-0.558732	-0.000085
H102	H	-0.339890	-0.698956	0.000059
H103	H	-0.579105	-1.103637	0.000133
C104	C	-0.053576	-0.518081	-0.000026
C105	C	-0.108755	-0.531157	-0.068224
C106	C	-0.201825	-0.481281	-0.068361
H107	H	-0.041651	-0.466625	-0.000067
H108	H	-0.091215	-0.526844	0.046182
H109	H	-0.071125	-0.522387	-0.114420
H110	H	-0.120707	-0.582602	-0.068197
H111	H	-0.239463	-0.490045	-0.022153
H112	H	-0.189890	-0.429829	-0.068400
H113	H	-0.239279	-0.490152	-0.114628
C114	C	-0.058515	-0.284229	-0.000049
C115	C	-0.114490	-0.258724	-0.068266
C116	C	-0.205831	-0.287996	-0.068450
H117	H	-0.096769	-0.267006	0.046129
H118	H	-0.044249	-0.338615	-0.000092
H119	H	-0.128758	-0.204349	-0.068216
H120	H	-0.076266	-0.275945	-0.114456
H121	H	-0.191565	-0.342383	-0.068494
H122	H	-0.244076	-0.270772	-0.022269
H123	H	-0.243817	-0.270701	-0.114738
H124	H	-0.025206	-0.675420	0.000090
H125	H	0.261052	-0.855502	0.365808
C126	C	-0.130972	-0.726820	0.000235
C127	C	-0.149235	-0.681043	0.068447
C128	C	-0.084324	-0.626395	0.068622
H129	H	-0.143168	-0.695614	-0.045947
H130	H	-0.062349	-0.752012	0.000281
H131	H	-0.217842	-0.655852	0.068394
H132	H	-0.137033	-0.712227	0.114640
H133	H	-0.015700	-0.651588	0.068667
H134	H	-0.096525	-0.595195	0.022436
H135	H	-0.096700	-0.595334	0.114905
H136	H	0.297552	-0.169907	0.000113
H137	H	0.261051	-0.855487	0.214408
C138	C	-0.007288	-1.000034	0.797081
C139	C	0.009003	-1.077823	0.776787
C140	C	-0.059721	-1.115002	0.818464
H141	H	-0.074799	-0.977741	0.783439
H142	H	0.002569	-0.994791	0.852765
H143	H	-0.000862	-1.083061	0.721115
H144	H	0.076500	-1.100138	0.790431
H145	H	-0.049865	-1.109759	0.874149
H146	H	-0.127228	-1.092702	0.804819
H147	H	-0.048671	-1.167786	0.804707
H148	H	0.011271	-0.989797	0.214406
H149	H	-0.269927	-1.047310	0.000129
H150	H	0.011291	-0.989831	0.634403
H151	H	-0.036760	-0.132455	0.000122
H152	H	0.309107	-0.712875	0.000075
