data_functionalizedCrystal
_audit_creation_method	'MofGen! by Chris Wilmer'
_symmetry_space_group_name_H-M	'P1'
_symmetry_Int_Tables_number	1
_symmetry_cell_setting	triclinic
loop_
_symmetry_equiv_pos_as_xyz
  x,y,z
_cell_length_a	31.640172
_cell_length_b	31.640172
_cell_length_c	31.640172
_cell_angle_alpha	60.005009
_cell_angle_beta	90.008445
_cell_angle_gamma	60.004780
loop_
_atom_site_label
_atom_site_type_symbol
_atom_site_fract_x
_atom_site_fract_y
_atom_site_fract_z
Zr1	Zr	0.407245	0.462528	-0.055401
O2	O	0.339766	0.550695	-0.122890
O3	O	0.427922	0.374361	-0.034713
O4	O	0.427933	0.462517	-0.122880
O5	O	0.339756	0.462548	0.034825
O6	O	0.497490	0.462508	-0.122870
O7	O	0.339755	0.462539	-0.034724
O8	O	0.497471	0.304814	0.034844
O9	O	0.339776	0.620242	-0.122890
O10	O	0.488661	0.410619	-0.025882
O11	O	0.436752	0.410632	0.026014
O12	O	0.436764	0.514424	-0.077791
O13	O	0.384856	0.514437	-0.025894
Zr14	Zr	0.518182	0.462528	0.055535
Zr15	Zr	0.518180	0.462514	-0.055386
Zr16	Zr	0.407246	0.462542	0.055520
Zr17	Zr	0.407260	0.573448	-0.055400
Zr18	Zr	0.518166	0.351608	0.055534
O19	O	0.497504	0.550695	0.034847
O20	O	0.497502	0.550675	-0.122869
O21	O	0.339768	0.550715	0.034826
O22	O	0.585660	0.374361	0.123024
O23	O	0.585658	0.374341	-0.034692
O24	O	0.427924	0.374381	0.123003
O25	O	0.585670	0.462508	-0.034691
O26	O	0.497493	0.462539	0.123013
O27	O	0.427936	0.462548	0.123004
O28	O	0.585671	0.462517	0.034857
O29	O	0.427955	0.620231	-0.122878
O30	O	0.497472	0.304825	0.123012
O31	O	0.585651	0.304814	0.123023
O32	O	0.585649	0.304803	0.034856
O33	O	0.339777	0.620253	-0.034722
O34	O	0.427956	0.620242	-0.034710
O35	O	0.488662	0.410632	0.077924
O36	O	0.540571	0.410619	0.026028
O37	O	0.488675	0.514424	-0.025881
O38	O	0.436766	0.514437	0.026016
C39	C	0.462694	0.323784	0.000065
C40	C	0.462688	0.276695	0.000065
C41	C	0.489820	-0.015354	-0.027018
C42	C	0.489830	-0.192349	-0.027017
O43	O	0.512893	-0.215260	-0.050037
N44	N	0.462734	-0.214472	0.000071
C45	C	0.435635	-0.192345	0.027164
O46	O	0.412593	-0.215227	0.050208
C47	C	0.435628	-0.015353	0.027166
C48	C	0.462722	0.006771	0.000072
C49	C	0.516912	0.006770	-0.054109
C50	C	0.516907	0.051019	-0.054111
C51	C	0.489809	0.073143	-0.027022
C52	C	0.462717	0.051020	0.000070
C53	C	0.408533	0.006770	0.054262
C54	C	0.408535	0.051019	0.054261
C55	C	0.435629	0.073144	0.027167
C56	C	0.435614	0.117393	0.027157
N57	N	0.462711	0.139515	0.000069
C58	C	0.489808	0.117390	-0.027021
C59	C	0.435640	-0.285268	0.027160
C60	C	0.435641	-0.329515	0.027158
C61	C	0.489837	-0.329517	-0.027022
C62	C	0.489833	-0.285266	-0.027023
C63	C	0.462737	-0.263145	0.000072
C64	C	0.489795	0.210316	-0.027023
C65	C	0.489785	0.254570	-0.027025
C66	C	0.435592	0.254566	0.027158
C67	C	0.435599	0.210318	0.027157
C68	C	0.462704	0.188193	0.000066
O69	O	0.412568	0.140326	0.050170
O70	O	0.512857	0.140271	-0.050052
C71	C	0.489825	-0.059602	-0.027016
C72	C	0.462732	-0.081726	0.000076
C73	C	0.435635	-0.059601	0.027166
C74	C	0.462733	-0.125973	0.000075
C75	C	0.489831	-0.148098	-0.027015
C76	C	0.516928	-0.125976	-0.054103
C77	C	0.516922	-0.081727	-0.054105
C78	C	0.408538	-0.081724	0.054254
C79	C	0.408545	-0.125972	0.054253
C80	C	0.435643	-0.148097	0.027164
C81	C	0.323950	0.462545	0.000048
C82	C	0.276855	0.462551	0.000042
C83	C	0.011938	0.408337	0.027173
C84	C	-0.165047	0.408327	0.027183
O85	O	-0.164894	0.362244	0.050246
N86	N	-0.214266	0.462511	0.000087
C87	C	-0.219238	0.516703	-0.027011
O88	O	-0.265163	0.562790	-0.050054
C89	C	-0.042253	0.516712	-0.027018
C90	C	0.006965	0.462524	0.000076
C91	C	0.061154	0.354153	0.054266
C92	C	0.105398	0.354156	0.054260
C93	C	0.100425	0.408343	0.027163
C94	C	0.051208	0.462527	0.000071
C95	C	-0.047226	0.570903	-0.054113
C96	C	-0.002974	0.570901	-0.054111
C97	C	0.046244	0.516712	-0.027017
C98	C	0.090479	0.516717	-0.027032
N99	N	0.139698	0.462533	0.000065
C100	C	0.144671	0.408346	0.027162
C101	C	-0.312155	0.516694	-0.027007
C102	C	-0.356401	0.516691	-0.027006
C103	C	-0.302207	0.408315	0.027190
C104	C	-0.257961	0.408318	0.027186
C105	C	-0.262936	0.462509	0.000090
C106	C	0.237583	0.408356	0.027149
C107	C	0.281828	0.408364	0.027140
C108	C	0.227630	0.516740	-0.027054
C109	C	0.183389	0.516732	-0.027047
C110	C	0.188369	0.462536	0.000058
O111	O	0.090366	0.562776	-0.050078
O112	O	0.190600	0.362265	0.050211
C113	C	-0.032305	0.408334	0.027178
C114	C	-0.081522	0.462518	0.000086
C115	C	-0.086494	0.516705	-0.027011
C116	C	-0.125768	0.462516	0.000087
C117	C	-0.120795	0.408329	0.027184
C118	C	-0.071576	0.354144	0.054281
C119	C	-0.027332	0.354147	0.054276
C120	C	-0.135713	0.570890	-0.054108
C121	C	-0.179955	0.570882	-0.054101
C122	C	-0.174982	0.516695	-0.027004
C123	C	0.601477	0.462510	0.000085
C124	C	0.648572	0.462504	0.000092
C125	C	0.462711	0.462510	-0.138679
C126	C	0.462711	0.462504	-0.185768
C127	C	0.462732	0.601272	0.000068
C128	C	0.462739	0.648361	0.000069
C129	C	0.435629	0.516719	-0.504899
C130	C	0.435629	0.516729	-0.681894
O131	O	0.412610	0.562812	-0.727825
N132	N	0.462718	0.462544	-0.676929
C133	C	0.489810	0.408353	-0.627709
O134	O	0.512855	0.362266	-0.627547
C135	C	0.489812	0.408343	-0.450715
C136	C	0.462718	0.462532	-0.455685
C137	C	0.408537	0.570903	-0.509867
C138	C	0.408535	0.570899	-0.465620
C139	C	0.435624	0.516712	-0.416406
C140	C	0.462716	0.462528	-0.411438
C141	C	0.516908	0.354153	-0.401497
C142	C	0.516907	0.354155	-0.357248
C143	C	0.489813	0.408343	-0.362218
C144	C	0.489803	0.408338	-0.317978
N145	N	0.462715	0.462523	-0.322944
C146	C	0.435626	0.516710	-0.372158
C147	C	0.489806	0.408362	-0.720636
C148	C	0.489805	0.408364	-0.764884
C149	C	0.435625	0.516740	-0.819066
C150	C	0.435623	0.516738	-0.774817
C151	C	0.462718	0.462547	-0.725602
C152	C	0.435623	0.516699	-0.279235
C153	C	0.435621	0.516691	-0.234982
C154	C	0.489804	0.408316	-0.180804
C155	C	0.489803	0.408323	-0.225053
C156	C	0.462712	0.462520	-0.274270
O157	O	0.512816	0.362280	-0.272033
O158	O	0.412594	0.562790	-0.372309
C159	C	0.435631	0.516722	-0.549145
C160	C	0.462722	0.462538	-0.544178
C161	C	0.489812	0.408351	-0.494964
C162	C	0.462721	0.462540	-0.588426
C163	C	0.435632	0.516727	-0.637640
C164	C	0.408544	0.570912	-0.642606
C165	C	0.408541	0.570909	-0.598360
C166	C	0.516900	0.354166	-0.489998
C167	C	0.516900	0.354174	-0.534247
C168	C	0.489810	0.408361	-0.583461
C169	C	0.462715	0.462545	0.138813
C170	C	0.462716	0.462551	0.185902
C171	C	0.601457	0.323766	0.000084
C172	C	0.648546	0.276672	0.000090
C173	C	0.462696	0.323801	0.138811
C174	C	0.462690	0.276718	0.185900
C175	C	0.601459	0.323784	0.138830
C176	C	0.648549	0.276695	0.185924
C177	C	0.323967	0.601272	-0.138696
C178	C	0.276878	0.648361	-0.185791
C179	C	0.323969	0.601290	0.000050
C180	C	0.276880	0.648384	0.000044
C181	C	0.462730	0.601255	-0.138677
C182	C	0.462736	0.648337	-0.185766
C183	C	0.643563	0.254556	-0.027009
C184	C	0.687803	0.210311	-0.027014
C185	C	0.737026	0.188181	0.000083
C186	C	0.742009	0.210302	0.027182
C187	C	0.697769	0.254548	0.027184
C188	C	0.489784	0.254608	0.235114
C189	C	0.489777	0.210375	0.279363
C190	C	0.462678	0.188250	0.274396
C191	C	0.435581	0.210365	0.225177
C192	C	0.435586	0.254600	0.180929
C193	C	0.697763	0.254575	0.180951
C194	C	0.742012	0.210336	0.225198
C195	C	0.737047	0.188216	0.274417
C196	C	0.687827	0.210340	0.279389
C197	C	0.643579	0.254581	0.235143
C198	C	0.227664	0.670486	-0.180818
C199	C	0.183414	0.714738	-0.225064
C200	C	0.188380	0.736861	-0.274283
C201	C	0.237599	0.714734	-0.279255
C202	C	0.281848	0.670486	-0.235009
C203	C	0.281864	0.670505	0.027138
C204	C	0.237623	0.714761	0.027131
C205	C	0.188400	0.736893	0.000032
C206	C	0.183418	0.714770	-0.027065
C207	C	0.227658	0.670518	-0.027060
C208	C	0.489840	0.670448	-0.180783
C209	C	0.489856	0.714681	-0.225023
C210	C	0.462764	0.736806	-0.274246
C211	C	0.435659	0.714691	-0.279229
C212	C	0.435647	0.670455	-0.234989
H213	H	0.538971	0.069028	-0.076172
C214	C	0.519607	0.348748	-0.666503
H215	H	0.535733	0.316483	-0.669888
H216	H	0.545252	0.346483	-0.648104
H217	H	0.496215	0.346498	-0.648122
C218	C	0.405827	0.576344	-0.780287
H219	H	0.389697	0.608613	-0.815937
H220	H	0.380185	0.578605	-0.764158
H221	H	0.429221	0.578592	-0.764150
C222	C	0.405827	-0.260935	0.056961
H223	H	0.389688	-0.280446	0.073086
H224	H	0.429207	-0.268181	0.082605
H225	H	0.380184	-0.219162	0.033568
H226	H	0.538961	0.310044	-0.530192
H227	H	0.223590	0.560858	-0.049118
C228	C	0.682372	0.185998	0.333531
H229	H	0.715776	0.156477	0.359166
H230	H	0.663991	0.217755	0.337421
H231	H	0.663990	0.168730	0.337411
C232	C	0.462680	0.139589	0.323072
H233	H	0.482703	0.129588	0.353092
H234	H	0.428162	0.154089	0.323077
H235	H	0.477190	0.105061	0.323081
H236	H	0.413518	0.192345	0.221141
C237	C	0.405785	0.278913	0.126796
H238	H	0.389651	0.259395	0.130180
H239	H	0.380146	0.320686	0.108399
H240	H	0.429175	0.271647	0.108415
H241	H	0.413602	0.732712	-0.319312
C242	C	0.546723	0.294545	-0.396020
H243	H	0.562861	0.262278	-0.360369
H244	H	0.523347	0.292278	-0.412157
H245	H	0.572367	0.292297	-0.412148
H246	H	0.701834	0.272549	0.049254
H247	H	0.321940	0.652488	0.049208
C248	C	0.129272	0.739113	-0.056867
H249	H	0.132634	0.719606	-0.073007
H250	H	0.110888	0.731867	-0.033478
H251	H	0.110890	0.780886	-0.082509
H252	H	0.413572	-0.347518	0.049215
H253	H	0.701816	0.272579	0.140879
C254	C	0.335980	0.646145	-0.240486
H255	H	0.332595	0.665656	-0.276137
H256	H	0.354381	0.653388	-0.224352
H257	H	0.354358	0.604373	-0.224357
H258	H	0.413573	0.652458	-0.239053
C259	C	0.243113	0.739082	0.056944
H260	H	0.278766	0.719553	0.073090
H261	H	0.226991	0.780851	0.033563
H262	H	0.226976	0.731833	0.082583
H263	H	0.152381	0.772926	0.000033
H264	H	0.511901	0.652441	-0.140707
C265	C	0.519593	0.278901	-0.056826
H266	H	0.535736	0.259379	-0.072954
H267	H	0.496209	0.320671	-0.082469
H268	H	0.545233	0.271650	-0.033434
C269	C	0.796147	0.186002	0.219719
H270	H	0.792763	0.205507	0.184069
H271	H	0.814541	0.193255	0.235847
H272	H	0.814530	0.144227	0.235855
C273	C	-0.101357	0.630511	-0.083913
H274	H	-0.097973	0.662778	-0.100043
H275	H	-0.119754	0.632771	-0.109555
H276	H	-0.119737	0.632765	-0.060522
H277	H	0.773081	0.152192	0.310440
H278	H	0.241636	0.732752	-0.319334
H279	H	0.603508	0.272585	0.239199
H280	H	0.413565	0.560862	-0.859145
C281	C	0.796156	0.185949	0.056991
H282	H	0.821786	0.156426	0.053111
H283	H	0.800052	0.217701	0.043620
H284	H	0.800038	0.168683	0.092639
C285	C	0.405793	0.278903	0.056960
H286	H	0.409680	0.308418	0.053083
H287	H	0.370147	0.296162	0.043585
H288	H	0.419183	0.247136	0.092608
H289	H	0.413555	0.560820	-0.239035
C290	C	0.222191	0.646165	-0.126683
H291	H	0.186541	0.665691	-0.130065
H292	H	0.238316	0.604395	-0.108290
H293	H	0.238331	0.653422	-0.108299
H294	H	0.538961	0.310040	-0.449929
H295	H	0.143312	0.560857	-0.049116
H296	H	0.143342	0.732747	-0.221006
H297	H	0.386473	-0.063715	0.076315
C298	C	0.222172	0.646181	-0.056858
H299	H	0.255567	0.616658	-0.052980
H300	H	0.203780	0.628932	-0.043477
H301	H	0.203789	0.677945	-0.092507
H302	H	0.538972	0.310025	-0.317176
H303	H	0.413530	0.192311	0.049213
C304	C	0.519647	-0.353860	-0.056818
H305	H	0.535785	-0.334350	-0.072954
H306	H	0.545282	-0.395631	-0.033426
H307	H	0.496259	-0.346608	-0.082462
C308	C	0.139704	0.785525	-0.322949
H309	H	0.109684	0.795525	-0.312933
H310	H	0.139696	0.820049	-0.342971
H311	H	0.139697	0.771014	-0.342961
H312	H	0.603486	0.272574	-0.049081
H313	H	0.773045	0.152152	0.000078
C314	C	0.519606	0.185988	-0.056827
H315	H	0.535734	0.205511	-0.072964
H316	H	0.545249	0.144218	-0.033443
H317	H	0.496218	0.193240	-0.082472
C318	C	-0.317636	0.576307	-0.056819
H319	H	-0.353287	0.608573	-0.072959
H320	H	-0.301503	0.578573	-0.033440
H321	H	-0.301506	0.578558	-0.082462
C322	C	0.546718	-0.017557	-0.083914
H323	H	0.562847	0.001965	-0.100049
H324	H	0.572361	-0.059328	-0.060533
H325	H	0.523329	-0.010300	-0.109560
C326	C	-0.296743	0.348711	0.057002
H327	H	-0.330145	0.356475	0.053124
H328	H	-0.278360	0.326433	0.043633
H329	H	-0.278361	0.326458	0.092650
C330	C	0.519642	-0.260939	-0.056820
H331	H	0.535782	-0.280460	-0.072950
H332	H	0.496261	-0.219168	-0.082462
H333	H	0.545285	-0.268196	-0.033426
C334	C	0.405818	0.576314	-0.333366
H335	H	0.389681	0.608579	-0.329980
H336	H	0.429201	0.578574	-0.351754
H337	H	0.380173	0.578570	-0.351758
H338	H	0.511927	0.732682	-0.220956
H339	H	0.511858	0.364199	-0.221005
C340	C	0.462778	0.785465	-0.322907
H341	H	0.442765	0.795475	-0.352939
H342	H	0.448280	0.819984	-0.322906
H343	H	0.497304	0.770948	-0.322899
C344	C	0.378723	-0.017551	0.084060
H345	H	0.362590	0.001966	0.100194
H346	H	0.353083	-0.010301	0.060671
H347	H	0.402107	-0.059324	0.109707
H348	H	0.386474	0.615025	-0.469673
H349	H	0.386468	0.069028	0.076325
H350	H	0.511851	0.272617	0.239168
H351	H	0.511844	0.192374	0.319435
C352	C	0.546738	-0.150322	-0.083897
H353	H	0.542861	-0.179848	-0.080008
H354	H	0.533365	-0.118570	-0.119544
H355	H	0.582386	-0.167586	-0.070506
C356	C	0.378743	-0.150307	0.084062
H357	H	0.362610	-0.130793	0.100199
H358	H	0.353104	-0.143067	0.060682
H359	H	0.402138	-0.192078	0.109707
C360	C	-0.008451	0.630512	-0.083920
H361	H	-0.044101	0.662780	-0.100058
H362	H	0.007687	0.632771	-0.060538
H363	H	0.007677	0.632765	-0.109565
C364	C	0.243066	0.348742	0.056960
H365	H	0.278717	0.316476	0.073089
H366	H	0.226939	0.346483	0.082603
H367	H	0.226931	0.346484	0.033573
H368	H	0.511861	0.364239	-0.760831
C369	C	0.159533	0.294549	0.084070
H370	H	0.156150	0.262281	0.100211
H371	H	0.177922	0.292286	0.060689
H372	H	0.177920	0.292300	0.109712
H373	H	0.538985	-0.063717	-0.076168
H374	H	0.511857	0.364198	-0.140727
H375	H	0.386478	0.615035	-0.602413
C376	C	0.378747	0.630516	-0.696746
H377	H	0.382635	0.622751	-0.722384
H378	H	0.343100	0.652788	-0.700639
H379	H	0.392136	0.652775	-0.700621
H380	H	0.321904	0.364236	0.049204
C381	C	0.066634	0.294542	0.084072
H382	H	0.102285	0.262278	0.100201
H383	H	0.050505	0.292281	0.109714
H384	H	0.050501	0.292285	0.060682
C385	C	-0.410538	0.576297	-0.056813
H386	H	-0.436181	0.568540	-0.052937
H387	H	-0.414414	0.598563	-0.043434
H388	H	-0.414420	0.598557	-0.092461
H389	H	-0.217888	0.364193	0.049253
H390	H	-0.067533	0.310023	0.076341
C391	C	-0.234092	0.630493	-0.083905
H392	H	-0.230712	0.662763	-0.100038
H393	H	-0.252490	0.632751	-0.109544
H394	H	-0.252470	0.632745	-0.060512
H395	H	0.012740	0.310021	0.076340
H396	H	0.386478	0.615031	-0.549936
C397	C	0.682316	0.185980	-0.056818
H398	H	0.715711	0.156463	-0.052946
H399	H	0.663930	0.168723	-0.043435
H400	H	0.663927	0.217747	-0.092466
H401	H	-0.139771	0.615016	-0.076175
