data_functionalizedCrystal
_audit_creation_method	'MofGen! by Chris Wilmer'
_symmetry_space_group_name_H-M	'P1'
_symmetry_Int_Tables_number	1
_symmetry_cell_setting	triclinic
loop_
_symmetry_equiv_pos_as_xyz
  x,y,z
_cell_length_a	18.215407
_cell_length_b	19.077068
_cell_length_c	18.215399
_cell_angle_alpha	87.731836
_cell_angle_beta	90.016899
_cell_angle_gamma	92.324397
loop_
_atom_site_label
_atom_site_type_symbol
_atom_site_fract_x
_atom_site_fract_y
_atom_site_fract_z
Zn1	Zn	1.113286	-0.280256	0.427814
Zn2	Zn	1.108244	-0.397957	0.309685
Zn3	Zn	0.990217	-0.280273	0.304768
Zn4	Zn	0.985236	-0.397912	0.432714
O5	O	1.049246	-0.339100	0.368745
O6	O	1.215601	-0.295881	0.412151
O7	O	1.092562	-0.382372	0.206049
O8	O	1.010737	-0.181780	0.316982
O9	O	1.211896	-0.382356	0.325362
O10	O	1.101155	-0.181767	0.407383
O11	O	1.005849	-0.295910	0.202437
O12	O	0.886573	-0.295866	0.321734
O13	O	1.002247	-0.382279	0.535047
O14	O	0.882913	-0.382295	0.415735
O15	O	1.096325	-0.295837	0.531447
O16	O	1.087732	-0.496442	0.330113
O17	O	0.997358	-0.496409	0.420502
C18	C	0.858040	-0.339078	0.368733
C19	C	0.776241	-0.339086	0.368746
C20	C	0.509293	-0.384177	0.417630
C21	C	0.586152	-0.384171	0.417626
C22	C	0.589939	-0.294038	0.319874
C23	C	0.513081	-0.294048	0.319875
C24	C	0.472760	-0.339116	0.368757
C25	C	0.626477	-0.339100	0.368752
C26	C	0.709811	-0.339094	0.368748
C27	C	0.389421	-0.339124	0.368761
C28	C	1.041478	-0.521963	0.376389
C29	C	1.038222	-0.600193	0.379684
C30	C	1.083781	-0.636940	0.334210
C31	C	1.080723	-0.710445	0.337313
C32	C	1.032101	-0.747202	0.385887
C33	C	0.986540	-0.710451	0.431366
C34	C	0.989602	-0.636947	0.428266
C35	C	1.017897	-0.967036	0.400204
C36	C	1.014837	-1.040545	0.403299
C37	C	1.109021	-1.040535	0.309246
C38	C	1.112076	-0.967029	0.306148
C39	C	1.066517	-0.930284	0.351629
N40	N	1.028973	-0.822337	0.389058
N41	N	1.069650	-0.855151	0.348461
C42	C	1.241198	-0.339122	0.368758
C43	C	1.322996	-0.339131	0.368763
C44	C	1.049293	-0.339051	0.560696
C45	C	1.049313	-0.339030	0.642494
C46	C	1.057064	-0.155522	0.361088
C47	C	1.060396	-0.077292	0.357825
C48	C	1.049244	-0.339097	0.177539
C49	C	1.049374	-0.338920	0.095733
C50	C	1.098317	-0.293978	0.828813
C51	C	1.098327	-0.293958	0.905671
C52	C	1.000364	-0.383974	0.909409
C53	C	1.000352	-0.383990	0.832552
C54	C	1.049332	-0.338993	0.792256
C55	C	1.049355	-0.338956	0.945971
C56	C	1.049365	-0.338935	1.029304
C57	C	1.049322	-0.339014	0.708918
H58	H	1.123371	-0.607017	0.294653
H59	H	1.138214	-0.257301	0.935432
H60	H	0.615894	-0.420865	0.457423
C61	C	1.159136	-1.080956	0.259227
H62	H	1.150355	-1.129996	0.268032
H63	H	1.148898	-1.068950	0.209264
H64	H	1.209082	-1.068864	0.269538
C65	C	0.946467	-0.433508	0.792333
H66	H	0.953470	-0.427066	0.740789
H67	H	0.955223	-0.480796	0.806898
H68	H	0.897458	-0.423194	0.804492
H69	H	0.960488	-0.420610	0.942227
H70	H	1.117822	-0.740361	0.300283
H71	H	0.476467	-0.420875	0.457433
H72	H	0.622777	-0.257344	0.280077
C73	C	1.165564	-0.926601	0.252721
H74	H	1.192266	-0.959014	0.226087
H75	H	1.138626	-0.897968	0.219424
H76	H	1.198812	-0.897887	0.279697
H77	H	0.980800	-0.937124	0.437235
H78	H	0.483335	-0.257353	0.280073
H79	H	0.975252	-1.070471	0.442866
C80	C	0.933056	-0.750882	0.484794
H81	H	0.937750	-0.799921	0.480122
H82	H	0.944298	-0.738797	0.533741
H83	H	0.884113	-0.738877	0.473467
C84	C	0.939488	-0.596525	0.478288
H85	H	0.910088	-0.628943	0.507658
H86	H	0.968821	-0.567811	0.509165
H87	H	0.908628	-0.567893	0.448900
C88	C	1.152185	-0.244475	0.784490
H89	H	1.181354	-0.217658	0.817272
H90	H	1.183102	-0.271402	0.755632
H91	H	1.125324	-0.213812	0.753229
