data_functionalizedCrystal
_audit_creation_method	'MofGen! by Chris Wilmer'
_symmetry_space_group_name_H-M	'P1'
_symmetry_Int_Tables_number	1
_symmetry_cell_setting	triclinic
loop_
_symmetry_equiv_pos_as_xyz
  x,y,z
_cell_length_a	15.944551
_cell_length_b	15.944551
_cell_length_c	14.421503
_cell_angle_alpha	90.003141
_cell_angle_beta	90.003340
_cell_angle_gamma	96.501262
loop_
_atom_site_label
_atom_site_type_symbol
_atom_site_fract_x
_atom_site_fract_y
_atom_site_fract_z
O1	O	0.108320	-1.114529	-0.077017
O2	O	0.121677	-0.869980	-0.077040
O3	O	-0.007276	-0.998933	-0.077020
O4	O	0.237273	-0.985576	-0.077038
O5	O	-0.007257	-0.998911	0.077204
O6	O	0.121696	-0.869958	0.077183
O7	O	0.108340	-1.114508	0.077206
Cu8	Cu	0.115020	-0.992231	0.091277
Cu9	Cu	0.114997	-0.992256	-0.091110
O10	O	0.237293	-0.985555	0.077186
C11	C	-0.038561	-0.998367	0.000092
C12	C	-0.131807	-0.996705	0.000093
C13	C	0.121132	-0.838675	0.000069
C14	C	0.119470	-0.745429	0.000060
C15	C	0.108885	-1.145813	0.000096
C16	C	0.110547	-1.239059	0.000098
C17	C	-0.346663	-0.912801	0.000072
C18	C	-0.407671	-0.951753	0.076117
C19	C	-0.302533	-0.993698	0.000085
C20	C	-0.407674	-0.951793	-0.075935
C21	C	-0.467445	-0.990787	0.000074
C22	C	-0.362312	-1.032672	0.076193
C23	C	-0.362308	-1.032701	-0.075927
C24	C	-0.423298	-1.071711	0.000136
C25	C	-0.207530	-0.995372	0.000092
C26	C	-0.562446	-0.989119	0.000073
C27	C	0.268577	-0.986120	0.000072
C28	C	0.361823	-0.987782	0.000066
N29	N	0.115035	-0.992219	0.219558
C30	C	0.035565	-0.530572	0.000084
C31	C	0.074518	-0.469563	-0.075959
C32	C	0.116462	-0.574703	0.000071
C33	C	0.074556	-0.469564	0.076093
C34	C	0.113551	-0.409790	0.000086
C35	C	0.155437	-0.514922	-0.076035
C36	C	0.155464	-0.514929	0.076086
C37	C	0.194476	-0.453937	0.000024
C38	C	0.118137	-0.669705	0.000062
C39	C	0.111883	-0.314789	0.000089
N40	N	0.114975	-0.992275	-0.219392
C41	C	0.174636	-0.932581	0.469202
C42	C	0.190943	-1.008481	0.531011
C43	C	0.115015	-0.992240	0.408719
C44	C	0.098727	-0.916359	0.531005
C45	C	0.114997	-0.992253	0.591441
C46	C	0.131360	-1.068178	0.469167
C47	C	0.039111	-0.976007	0.469156
C48	C	0.055386	-1.051961	0.530936
C49	C	0.115027	-0.992231	0.303458
C50	C	0.114985	-0.992270	0.696700
H51	H	-0.427771	-0.917527	0.140401
H52	H	0.040333	-0.449469	0.140379
O53	O	-0.037399	-0.959438	0.436752
C54	C	-0.054325	-0.879339	0.468223
H55	H	0.007599	-0.839473	0.485603
H56	H	-0.095620	-0.887016	0.532876
C57	C	-0.176737	-0.884287	0.370440
C58	C	-0.100680	-0.835321	0.391779
H59	H	-0.205335	-0.857135	0.323289
H60	H	-0.165337	-0.938253	0.349240
H61	H	-0.211139	-0.890681	0.424324
H62	H	-0.066275	-0.828936	0.337899
H63	H	-0.112076	-0.781353	0.412969
H64	H	-0.342186	-1.066897	-0.140214
O65	O	0.082394	-0.839730	0.563296
C66	C	0.145431	-0.777025	0.531859
H67	H	0.176207	-0.800215	0.466777
H68	H	0.195252	-0.763167	0.588179
C69	C	0.067618	-0.667441	0.589292
C70	C	0.105412	-0.695920	0.509352
H71	H	0.042934	-0.617410	0.575412
H72	H	0.025150	-0.709686	0.610476
H73	H	0.109142	-0.655899	0.636218
H74	H	0.063886	-0.707472	0.462432
H75	H	0.147872	-0.653675	0.488160
H76	H	-0.427758	-0.917575	-0.140230
O77	O	0.147962	-1.144679	0.436751
C78	C	0.147815	-1.143734	0.338991
H79	H	0.160958	-1.075866	0.313423
H80	H	0.083549	-1.172472	0.312483
C81	C	0.200569	-1.278916	0.333951
C82	C	0.216719	-1.195560	0.302548
H83	H	0.243069	-1.310888	0.311470
H84	H	0.200665	-1.279555	0.399814
H85	H	0.147012	-1.302853	0.311859
H86	H	0.270270	-1.171621	0.324650
H87	H	0.216634	-1.194919	0.236688
O88	O	0.234939	-0.872545	0.436897
C89	C	0.314853	-0.889983	0.468435
H90	H	0.312487	-0.959967	0.485767
H91	H	0.332844	-0.850946	0.533131
C92	C	0.383947	-0.781271	0.370791
C93	C	0.381043	-0.867229	0.392072
H94	H	0.424777	-0.767232	0.323690
H95	H	0.330107	-0.769520	0.349546
H96	H	0.398936	-0.748750	0.424711
H97	H	0.366043	-0.899748	0.338155
H98	H	0.434881	-0.878985	0.413307
O99	O	0.267509	-1.024758	0.563544
C100	C	0.302548	-0.956597	0.618681
H101	H	0.249914	-0.920412	0.645781
H102	H	0.348239	-0.912644	0.575193
C103	C	0.414847	-1.034836	0.667765
C104	C	0.350200	-0.990398	0.701056
H105	H	0.444244	-1.055685	0.718576
H106	H	0.391242	-1.080757	0.630615
H107	H	0.452914	-0.998202	0.631525
H108	H	0.312129	-1.027034	0.737285
H109	H	0.373799	-0.944483	0.738214
H110	H	-0.456457	-1.138919	0.000186
O111	O	-0.004687	-1.112327	0.563037
C112	C	0.012785	-1.192179	0.531337
H113	H	0.082789	-1.189780	0.514090
H114	H	-0.026178	-1.210040	0.466556
C115	C	-0.096040	-1.261463	0.628701
C116	C	-0.010058	-1.258519	0.607525
H117	H	-0.110134	-1.302387	0.675694
H118	H	-0.107815	-1.207666	0.650055
H119	H	-0.128499	-1.276345	0.574710
H120	H	0.022399	-1.243627	0.661512
H121	H	0.001721	-1.312316	0.586181
H122	H	0.040294	-0.449461	-0.140243
O123	O	0.196372	-0.538829	0.152750
C124	C	0.279670	-0.498260	0.153394
H125	H	0.283088	-0.438497	0.109522
H126	H	0.324159	-0.542505	0.123530
C127	C	0.301744	-0.548305	0.307588
C128	C	0.305942	-0.474900	0.253710
H129	H	0.317953	-0.533899	0.369467
H130	H	0.245627	-0.575640	0.307153
H131	H	0.338819	-0.585169	0.282690
H132	H	0.268860	-0.438042	0.278601
H133	H	0.362054	-0.447558	0.254151
H134	H	-0.313356	-0.845652	0.000141
O135	O	0.196157	-0.538918	-0.152790
C136	C	0.197218	-0.627216	-0.151879
H137	H	0.143303	-0.657408	-0.106810
H138	H	0.259939	-0.642966	-0.122485
C139	C	0.252700	-0.624524	-0.306823
C140	C	0.186476	-0.661607	-0.251475
H141	H	0.246078	-0.645739	-0.368258
H142	H	0.251989	-0.565036	-0.307436
H143	H	0.304961	-0.637652	-0.282317
H144	H	0.134218	-0.648470	-0.275974
H145	H	0.187178	-0.721094	-0.250868
H146	H	-0.031573	-0.563905	-0.000005
O147	O	-0.338314	-1.073390	0.152950
C148	C	-0.250016	-1.074450	0.152036
H149	H	-0.219826	-1.020536	0.106965
H150	H	-0.234266	-1.137171	0.122645
C151	C	-0.252704	-1.129927	0.306983
C152	C	-0.215623	-1.063705	0.251632
H153	H	-0.231488	-1.123303	0.368417
H154	H	-0.312192	-1.129216	0.307597
H155	H	-0.239576	-1.182188	0.282479
H156	H	-0.228760	-1.011446	0.276129
H157	H	-0.156136	-1.064407	0.251023
H158	H	0.261683	-0.420779	-0.000023
