data_functionalizedCrystal
_audit_creation_method	'MofGen! by Chris Wilmer'
_symmetry_space_group_name_H-M	'P1'
_symmetry_Int_Tables_number	1
_symmetry_cell_setting	triclinic
loop_
_symmetry_equiv_pos_as_xyz
  x,y,z
_cell_length_a	10.654550
_cell_length_b	10.268362
_cell_length_c	10.654550
_cell_angle_alpha	89.998815
_cell_angle_beta	95.515069
_cell_angle_gamma	90.001393
loop_
_atom_site_label
_atom_site_type_symbol
_atom_site_fract_x
_atom_site_fract_y
_atom_site_fract_z
O1	O	1.667842	0.108203	-0.176393
O2	O	2.001175	0.441536	0.156941
O3	O	2.334509	0.774869	0.490274
O4	O	1.302364	0.108227	-0.193199
O5	O	1.635697	0.441560	0.140135
O6	O	1.969030	0.774893	0.473468
O7	O	1.493506	0.108206	-0.002057
O8	O	1.826839	0.441539	0.331277
O9	O	2.160173	0.774873	0.664610
O10	O	1.476700	0.108223	-0.367535
O11	O	1.810033	0.441557	-0.034202
O12	O	2.143366	0.774890	0.299132
O13	O	1.493487	-0.108395	-0.002063
O14	O	1.826821	0.224939	0.331270
O15	O	2.160154	0.558272	0.664604
O16	O	1.302345	-0.108374	-0.193205
O17	O	1.635678	0.224959	0.140128
O18	O	1.969012	0.558293	0.473461
O19	O	1.667824	-0.108398	-0.176399
O20	O	2.001157	0.224935	0.156934
O21	O	2.334490	0.558269	0.490267
Cu22	Cu	1.485083	-0.128163	-0.184803
Cu23	Cu	1.818416	0.205170	0.148530
Cu24	Cu	2.151749	0.538503	0.481864
Cu25	Cu	1.485105	0.127992	-0.184795
Cu26	Cu	1.818438	0.461325	0.148538
Cu27	Cu	2.151771	0.794659	0.481871
O28	O	1.476681	-0.108377	-0.367541
O29	O	1.810015	0.224956	-0.034208
O30	O	2.143348	0.558289	0.299125
C31	C	1.255556	-0.000071	-0.191968
C32	C	1.588890	0.333263	0.141365
C33	C	1.922223	0.666596	0.474699
C34	C	1.116113	-0.000062	-0.188276
C35	C	1.449446	0.333272	0.145057
C36	C	1.782780	0.666605	0.478391
C37	C	1.036628	-0.000060	-0.300818
C38	C	1.369961	0.333273	0.032516
C39	C	1.703294	0.666606	0.365849
C40	C	0.905607	-0.000083	-0.297341
C41	C	1.238940	0.333250	0.035992
C42	C	1.572273	0.666584	0.369325
C43	C	0.933570	-0.000104	-0.068772
C44	C	1.266903	0.333230	0.264562
C45	C	1.600237	0.666563	0.597895
C46	C	1.064588	-0.000090	-0.072250
C47	C	1.397922	0.333243	0.261084
C48	C	1.731255	0.666576	0.594417
N49	N	1.485077	-0.308329	-0.184808
N50	N	1.818410	0.025004	0.148526
N51	N	2.151743	0.358337	0.481859
C52	C	1.485086	-0.426172	-0.184808
C53	C	1.818419	-0.092838	0.148525
C54	C	2.151752	0.240495	0.481858
C55	C	1.485101	-0.574010	-0.184797
C56	C	1.818435	-0.240676	0.148536
C57	C	2.151768	0.092657	0.481870
C58	C	1.714631	-0.000098	-0.177630
C59	C	2.047964	0.333236	0.155703
C60	C	2.381297	0.666569	0.489037
C61	C	1.854074	-0.000098	-0.181322
C62	C	2.187407	0.333235	0.152011
C63	C	2.520741	0.666568	0.485345
C64	C	1.492263	-0.000094	0.044738
C65	C	1.825596	0.333240	0.378072
C66	C	2.158929	0.666573	0.711405
C67	C	1.488571	-0.000091	0.184181
C68	C	1.821904	0.333242	0.517515
C69	C	2.155237	0.666575	0.850848
N70	N	1.485121	0.308158	-0.184781
N71	N	1.818454	0.641491	0.148553
N72	N	2.151787	0.974824	0.481886
C73	C	1.477925	-0.000075	-0.414336
C74	C	1.811258	0.333258	-0.081003
C75	C	2.144591	0.666592	0.252330
C76	C	1.481616	-0.000069	-0.553779
C77	C	1.814950	0.333265	-0.220446
C78	C	2.148283	0.666598	0.112887
C79	C	1.601112	-0.000098	0.263667
C80	C	1.934446	0.333235	0.597000
C81	C	2.267779	0.666568	0.930334
C82	C	1.597636	-0.000082	0.394688
C83	C	1.930969	0.333251	0.728021
C84	C	2.264302	0.666584	1.061355
C85	C	1.369066	-0.000058	0.366725
C86	C	1.702400	0.333276	0.700058
C87	C	2.035733	0.666609	1.033391
C88	C	1.372544	-0.000065	0.235706
C89	C	1.705877	0.333269	0.569040
C90	C	2.039211	0.666602	0.902373
H91	H	1.078574	-0.000047	-0.395294
H92	H	1.411908	0.333286	-0.061961
H93	H	1.745241	0.666620	0.271373
H94	H	0.840894	-0.000084	-0.388984
H95	H	1.174227	0.333249	-0.055651
H96	H	1.507561	0.666582	0.277683
H97	H	1.274601	-0.000038	0.408693
H98	H	1.607935	0.333295	0.742026
H99	H	1.941268	0.666628	1.075359
H100	H	1.695588	-0.000117	0.221720
H101	H	2.028922	0.333216	0.555054
H102	H	2.362255	0.666549	0.888387
H103	H	1.280893	-0.000055	0.170985
H104	H	1.614227	0.333278	0.504319
H105	H	1.947560	0.666612	0.837652
H106	H	1.689279	-0.000085	0.459401
H107	H	2.022612	0.333248	0.792734
H108	H	2.355945	0.666582	1.126067
H109	H	0.891602	-0.000135	0.025693
H110	H	1.224935	0.333199	0.359027
H111	H	1.558269	0.666532	0.692360
H112	H	1.129309	-0.000095	0.019401
H113	H	1.462643	0.333238	0.352734
H114	H	1.795976	0.666571	0.686068
