data_functionalizedCrystal
_audit_creation_method	'MofGen! by Chris Wilmer'
_symmetry_space_group_name_H-M	'P1'
_symmetry_Int_Tables_number	1
_symmetry_cell_setting	triclinic
loop_
_symmetry_equiv_pos_as_xyz
  x,y,z
_cell_length_a	10.540539
_cell_length_b	19.188930
_cell_length_c	9.616153
_cell_angle_alpha	89.994864
_cell_angle_beta	89.998744
_cell_angle_gamma	83.835137
loop_
_atom_site_label
_atom_site_type_symbol
_atom_site_fract_x
_atom_site_fract_y
_atom_site_fract_z
O1	O	1.683718	0.098387	-0.115598
O2	O	1.314101	0.107657	-0.115617
O3	O	1.509576	0.001437	-0.115579
O4	O	1.488243	0.204606	-0.115635
O5	O	1.509561	0.001443	0.115712
O6	O	1.314086	0.107663	0.115675
O7	O	1.683704	0.098393	0.115694
Zn8	Zn	1.498893	0.103029	0.152407
Zn9	Zn	1.498912	0.103021	-0.152330
O10	O	1.488229	0.204612	0.115657
C11	C	1.266806	0.106965	0.000027
C12	C	1.125904	0.104885	0.000021
C13	C	1.508878	-0.024575	0.000070
C14	C	1.506804	-0.102094	0.000082
C15	C	0.944233	0.025184	0.000583
C16	C	1.090805	0.027292	0.000047
C17	C	1.063416	0.142222	-0.132063
C18	C	0.916930	0.139574	-0.132158
C19	C	0.916391	0.141160	0.130863
C20	C	1.063357	0.141874	0.132594
C21	C	1.621502	-0.146253	0.000095
C22	C	1.619554	-0.219090	0.000072
C23	C	1.502901	-0.247764	0.000065
C24	C	1.388187	-0.203595	0.000045
C25	C	1.390139	-0.130760	0.000053
N26	N	1.413729	-0.356361	0.078774
N27	N	1.411883	-0.425552	0.078769
C28	C	1.497014	-0.467212	0.000037
N29	N	1.584081	-0.437068	-0.078672
N30	N	1.585930	-0.367871	-0.078661
C31	C	1.500772	-0.326741	0.000055
C32	C	1.609608	-0.590350	0.000023
C33	C	1.607655	-0.663188	-0.000008
C34	C	1.376285	-0.647691	-0.000021
C35	C	1.378241	-0.574855	-0.000004
C36	C	1.494906	-0.546189	0.000025
C37	C	1.730998	0.099085	0.000047
C38	C	1.871901	0.101165	0.000044
C39	C	1.488927	0.230625	0.000004
C40	C	1.491000	0.308143	-0.000017
N41	N	1.498889	0.103034	0.360381
N42	N	1.498925	0.103010	-0.360304
C43	C	1.394278	0.159845	0.419403
C44	C	1.393930	0.159682	0.580571
C45	C	1.470945	0.029933	0.581184
C46	C	1.470173	0.030279	0.419967
C47	C	1.631808	0.118641	0.419769
C48	C	1.630928	0.120278	0.580997
H49	H	1.134060	-0.002087	0.094731
F50	F	1.264037	-0.234113	0.000029
F51	F	1.745668	-0.115749	0.000095
H52	H	1.284841	-0.538899	-0.000006
H53	H	1.701060	-0.699142	-0.000005
F54	F	1.252133	-0.678203	-0.000036
H55	H	1.375168	0.016006	0.621595
H56	H	1.712958	-0.255051	0.000077
H57	H	0.916317	-0.005467	0.095309
H58	H	1.296177	0.149914	0.378916
H59	H	1.084514	0.199204	-0.136992
H60	H	1.295287	0.149604	0.619164
H61	H	1.296735	-0.094804	0.000044
F62	F	0.875879	0.108339	0.261726
H63	H	1.704603	-0.567009	0.000040
H64	H	1.410456	0.213972	0.620133
F65	F	1.415485	0.231052	0.368728
H66	H	1.373266	0.016670	0.382388
F67	F	0.880856	0.103497	-0.261190
H68	H	1.709647	0.077224	0.381589
F69	F	1.566038	-0.026702	0.368926
F70	F	1.119833	0.108315	-0.260531
F71	F	1.567953	-0.026717	0.631236
F72	F	1.667238	0.186879	0.366621
F73	F	0.852621	0.212511	-0.140014
F74	F	1.658709	0.190552	0.630976
H75	H	0.914704	-0.005343	-0.093599
F76	F	1.117549	0.106165	0.260314
F77	F	1.146196	-0.011229	-0.124101
F78	F	1.093384	0.215818	0.142997
F79	F	0.853050	0.214414	0.132011
F80	F	1.737376	0.069787	0.633599
