data_functionalizedCrystal
_audit_creation_method	'MofGen! by Chris Wilmer'
_symmetry_space_group_name_H-M	'P1'
_symmetry_Int_Tables_number	1
_symmetry_cell_setting	triclinic
loop_
_symmetry_equiv_pos_as_xyz
  x,y,z
_cell_length_a	14.044220
_cell_length_b	10.654541
_cell_length_c	9.730217
_cell_angle_alpha	89.999932
_cell_angle_beta	90.002267
_cell_angle_gamma	91.163597
loop_
_atom_site_label
_atom_site_type_symbol
_atom_site_fract_x
_atom_site_fract_y
_atom_site_fract_z
O1	O	-0.133219	1.681226	-0.114245
O2	O	-0.145915	1.317022	-0.114256
O3	O	-0.001546	1.493657	-0.114245
O4	O	-0.277587	1.504591	-0.114256
O5	O	-0.001545	1.493651	0.114336
O6	O	-0.145914	1.317016	0.114324
O7	O	-0.133218	1.681220	0.114335
Zn8	Zn	-0.139565	1.499117	0.150622
Zn9	Zn	-0.139567	1.499125	-0.150542
O10	O	-0.277586	1.504585	0.114324
C11	C	-0.144983	1.270128	0.000032
C12	C	-0.142195	1.130404	0.000028
C13	C	-0.314827	1.119781	0.000003
C14	C	-0.399829	1.048829	-0.000015
C15	C	-0.397204	0.917547	-0.000016
C16	C	-0.309567	0.857215	0.000005
C17	C	-0.224565	0.928167	0.000023
C18	C	-0.227199	1.059452	0.000020
C19	C	-0.051935	0.938790	0.000057
C20	C	-0.054558	1.070072	0.000049
C21	C	0.035701	0.878458	0.000078
C22	C	0.120706	0.949411	0.000086
C23	C	0.118077	1.080701	0.000085
C24	C	0.030444	1.141025	0.000066
C25	C	-0.312933	1.509374	0.000032
C26	C	-0.418252	1.523649	0.000028
C27	C	-0.611085	1.549748	0.000035
C28	C	-0.668053	1.448500	0.000033
C29	C	-0.775352	1.463022	0.000036
C30	C	-0.503776	1.535228	0.000031
C31	C	0.033800	1.488869	0.000044
C32	C	0.139120	1.474593	0.000039
C33	C	-0.134150	1.728114	0.000044
C34	C	-0.136938	1.867838	0.000039
N35	N	-0.139564	1.499121	0.356158
N36	N	-0.139561	1.499131	-0.356079
C37	C	-0.011763	1.655605	0.356159
C38	C	0.052135	1.733855	0.428100
C39	C	0.052135	1.733868	0.571979
C40	C	-0.011767	1.655619	0.643922
C41	C	-0.075664	1.577368	0.571982
C42	C	-0.075660	1.577367	0.428099
C43	C	-0.203459	1.420880	0.571981
C44	C	-0.203466	1.420872	0.428101
C45	C	-0.267361	1.342631	0.643923
C46	C	-0.331265	1.264385	0.571983
C47	C	-0.331263	1.264376	0.428094
C48	C	-0.267363	1.342621	0.356160
H49	H	-0.471181	1.097966	-0.000028
H50	H	0.037833	0.771562	0.000084
H51	H	0.187297	1.138463	0.000105
H52	H	-0.636241	1.350912	0.000030
H53	H	-0.267354	1.342639	0.761078
C54	C	-0.401542	1.178310	0.651128
N55	N	-0.454475	1.113476	0.710746
C56	C	-0.401573	1.178315	0.348971
N57	N	-0.454538	1.113501	0.289381
H58	H	-0.011765	1.655613	0.239005
C59	C	-0.011745	1.655613	0.802194
N60	N	-0.011726	1.655602	0.921406
H61	H	-0.642895	1.647328	0.000043
C62	C	0.122438	1.819904	0.348952
N63	N	0.175397	1.884707	0.289342
C64	C	-0.306685	0.712801	0.000018
N65	N	-0.304513	0.604027	0.000028
C66	C	0.122425	1.819946	0.651116
N67	N	0.175368	1.884782	0.710721
H68	H	-0.267360	1.342626	0.239006
C69	C	0.027544	1.285438	0.000070
N70	N	0.025356	1.394211	0.000080
C71	C	0.217095	0.883038	0.000112
N72	N	0.289698	0.833040	0.000128
H73	H	-0.316973	1.226677	-0.000026
H74	H	-0.466420	0.859777	-0.000021
