data_functionalizedCrystal
_audit_creation_method	'MofGen! by Chris Wilmer'
_symmetry_space_group_name_H-M	'P1'
_symmetry_Int_Tables_number	1
_symmetry_cell_setting	triclinic
loop_
_symmetry_equiv_pos_as_xyz
  x,y,z
_cell_length_a	14.421503
_cell_length_b	16.109301
_cell_length_c	16.109301
_cell_angle_alpha	83.461481
_cell_angle_beta	90.002868
_cell_angle_gamma	89.995091
loop_
_atom_site_label
_atom_site_type_symbol
_atom_site_fract_x
_atom_site_fract_y
_atom_site_fract_z
O1	O	0.077056	-1.103137	-0.106856
O2	O	0.577056	-0.603137	0.393144
O3	O	0.077071	-0.861075	-0.120155
O4	O	0.577071	-0.361075	0.379845
O5	O	0.077054	-0.988756	0.007526
O6	O	0.577054	-0.488756	0.507526
O7	O	0.077073	-0.975456	-0.234536
O8	O	0.577073	-0.475456	0.265464
O9	O	-0.077170	-0.988734	0.007507
O10	O	0.422830	-0.488734	0.507507
O11	O	-0.077152	-0.861054	-0.120174
O12	O	0.422848	-0.361054	0.379826
O13	O	-0.077167	-1.103116	-0.106875
O14	O	0.422833	-0.603116	0.393125
Cu15	Cu	-0.091242	-0.982083	-0.113526
Cu16	Cu	0.408758	-0.482083	0.386474
Cu17	Cu	0.091145	-0.982108	-0.113504
Cu18	Cu	0.591145	-0.482108	0.386496
O19	O	-0.077150	-0.975435	-0.234555
O20	O	0.422850	-0.475435	0.265445
C21	C	-0.000039	-0.830090	-0.119626
C22	C	0.499961	-0.330090	0.380374
C23	C	-0.000033	-0.737794	-0.118011
C24	C	0.499967	-0.237794	0.381989
N25	N	-0.219523	-0.982071	-0.113541
N26	N	0.280477	-0.482071	0.386459
C27	C	-0.000058	-0.988206	0.038491
C28	C	0.499942	-0.488206	0.538491
C29	C	-0.000060	-0.986591	0.130786
C30	C	0.499940	-0.486591	0.630786
C31	C	-0.469169	-0.923021	-0.172554
C32	C	0.030831	-0.423021	0.327446
C33	C	-0.530974	-0.998143	-0.188671
C34	C	-0.030974	-0.498143	0.311329
C35	C	-0.408684	-0.982092	-0.113521
C36	C	0.091316	-0.482092	0.386479
C37	C	-0.530972	-0.906990	-0.097424
C38	C	-0.030972	-0.406990	0.402576
C39	C	-0.591406	-0.982104	-0.113504
C40	C	-0.091406	-0.482104	0.386496
C41	C	-0.469129	-1.057251	-0.129675
C42	C	0.030871	-0.557251	0.370325
C43	C	-0.469122	-0.966048	-0.038396
C44	C	0.030878	-0.466048	0.461604
C45	C	-0.530900	-1.041224	-0.054481
C46	C	-0.030900	-0.541224	0.445519
C47	C	-0.303423	-0.982083	-0.113534
C48	C	0.196577	-0.482083	0.386466
C49	C	-0.696665	-0.982122	-0.113491
C50	C	-0.196665	-0.482122	0.386509
N51	N	0.219427	-0.982126	-0.113482
N52	N	0.719427	-0.482126	0.386518
C53	C	-0.000056	-1.134101	-0.107404
C54	C	0.499944	-0.634101	0.392596
C55	C	-0.000055	-1.226397	-0.109019
C56	C	0.499945	-0.726397	0.390981
C57	C	-0.000038	-0.515522	-0.190018
C58	C	0.499962	-0.015522	0.309982
C59	C	-0.000044	-0.428801	-0.188494
C60	C	0.499956	0.071199	0.311506
C61	C	-0.000053	-0.448676	-0.037006
C62	C	0.499947	0.051324	0.462994
C63	C	-0.000053	-0.535394	-0.038530
C64	C	0.499947	-0.035394	0.461470
C65	C	-0.000041	-0.568815	-0.115039
C66	C	0.499959	-0.068815	0.384961
C67	C	-0.000047	-0.395376	-0.111990
C68	C	0.499953	0.104624	0.388010
C69	C	-0.000053	-0.301350	-0.110337
C70	C	0.499947	0.198650	0.389663
C71	C	-0.000037	-0.662847	-0.116693
C72	C	0.499963	-0.162847	0.383307
C73	C	-0.000036	-0.975984	-0.265521
C74	C	0.499964	-0.475984	0.234479
C75	C	-0.000029	-0.977600	-0.357816
C76	C	0.499971	-0.477600	0.142184
C77	C	-0.000049	-1.058599	0.353059
C78	C	0.499951	-0.558599	0.853059
C79	C	-0.000042	-1.057075	0.439779
C80	C	0.499958	-0.557075	0.939779
C81	C	-0.000036	-0.905586	0.419905
C82	C	0.499964	-0.405586	0.919905
C83	C	-0.000037	-0.907111	0.333186
C84	C	0.499963	-0.407111	0.833186
C85	C	-0.000049	-0.983620	0.299766
C86	C	0.499951	-0.483620	0.799766
C87	C	-0.000040	-0.980571	0.473205
C88	C	0.499960	-0.480571	0.973205
C89	C	-0.000031	-0.978918	0.567231
C90	C	0.499969	-0.478918	1.067231
C91	C	-0.000055	-0.985273	0.205734
C92	C	0.499945	-0.485273	0.705734
H93	H	-0.442064	-0.873118	-0.222517
H94	H	0.057936	-0.373118	0.277483
Br95	Br	-0.000038	-1.158837	0.512103
Br96	Br	0.499962	-0.658837	1.012103
H97	H	-0.000044	-0.385413	-0.249550
H98	H	0.499956	0.114587	0.250450
Br99	Br	-0.000018	-0.801758	0.465267
Br100	Br	0.499982	-0.301758	0.965267
Br101	Br	-0.000069	-0.607728	0.063234
Br102	Br	0.499931	-0.107728	0.563234
H103	H	-0.000033	-0.846050	0.289792
H104	H	0.499967	-0.346050	0.789792
H105	H	-0.558143	-1.011724	-0.252195
H106	H	-0.058143	-0.511724	0.247805
Br107	Br	-0.424050	-1.163144	-0.152477
Br108	Br	0.075950	-0.663144	0.347523
H109	H	-0.441932	-0.952443	0.025108
H110	H	0.058068	-0.452443	0.525108
Br111	Br	-0.576255	-0.801125	-0.074743
Br112	Br	-0.076255	-0.301125	0.425257
Br113	Br	-0.575800	-1.124579	0.028744
Br114	Br	-0.075800	-0.624579	0.528744
H115	H	-0.000035	-0.542730	-0.252317
H116	H	0.499965	-0.042730	0.247683
H117	H	-0.000068	-0.421454	0.025285
H118	H	0.499932	0.078546	0.525285
H119	H	-0.000057	-1.120897	0.325851
H120	H	0.499943	-0.620897	0.825851
