data_functionalizedCrystal
_audit_creation_method	'MofGen! by Chris Wilmer'
_symmetry_space_group_name_H-M	'P1'
_symmetry_Int_Tables_number	1
_symmetry_cell_setting	triclinic
loop_
_symmetry_equiv_pos_as_xyz
  x,y,z
_cell_length_a	23.532407
_cell_length_b	23.532357
_cell_length_c	22.610064
_cell_angle_alpha	89.998517
_cell_angle_beta	89.997161
_cell_angle_gamma	82.838485
loop_
_atom_site_label
_atom_site_type_symbol
_atom_site_fract_x
_atom_site_fract_y
_atom_site_fract_z
O1	O	0.755251	0.069129	-0.049118
O2	O	1.088584	0.402462	0.284216
O3	O	1.421918	0.735795	0.617549
O4	O	0.589386	0.079132	-0.049136
O5	O	0.922719	0.412466	0.284197
O6	O	1.256053	0.745799	0.617530
O7	O	0.677335	-0.008803	-0.049114
O8	O	1.010668	0.324530	0.284219
O9	O	1.344002	0.657863	0.617552
O10	O	0.667302	0.157064	-0.049140
O11	O	1.000635	0.490398	0.284194
O12	O	1.333969	0.823731	0.617527
O13	O	0.677319	-0.008790	0.049255
O14	O	1.010653	0.324543	0.382588
O15	O	1.343986	0.657876	0.715922
O16	O	0.589370	0.079145	0.049233
O17	O	0.922704	0.412478	0.382566
O18	O	1.256037	0.745812	0.715900
O19	O	0.755236	0.069142	0.049251
O20	O	1.088569	0.402475	0.382585
O21	O	1.421902	0.735808	0.715918
Zn22	Zn	0.672301	0.074145	0.064860
Zn23	Zn	1.005634	0.407479	0.398194
Zn24	Zn	1.338967	0.740812	0.731527
Zn25	Zn	0.672321	0.074128	-0.064745
Zn26	Zn	1.005654	0.407462	0.268588
Zn27	Zn	1.338988	0.740795	0.601921
O28	O	0.667286	0.157077	0.049229
O29	O	1.000620	0.490410	0.382563
O30	O	1.333953	0.823744	0.715896
C31	C	0.568162	0.078884	0.000046
C32	C	0.901496	0.412217	0.333380
C33	C	1.234829	0.745551	0.666713
C34	C	0.504945	0.078118	0.000040
C35	C	0.838279	0.411451	0.333373
C36	C	1.171612	0.744785	0.666706
C37	C	0.105834	0.125353	0.000059
C38	C	0.439167	0.458686	0.333393
C39	C	0.772500	0.792019	0.666726
C40	C	0.046434	0.124641	0.000063
C41	C	0.379767	0.457974	0.333396
C42	C	0.713100	0.791308	0.666730
O43	O	0.009681	0.168428	0.000078
O44	O	0.343015	0.501761	0.333411
O45	O	0.676348	0.835095	0.666745
N46	N	0.023817	0.072364	0.000070
N47	N	0.357150	0.405697	0.333403
N48	N	0.690483	0.739030	0.666737
C49	C	0.060604	0.020794	0.000079
C50	C	0.393937	0.354127	0.333413
C51	C	0.727270	0.687461	0.666746
O52	O	0.035912	-0.023737	0.000086
O53	O	0.369245	0.309596	0.333420
O54	O	0.702579	0.642929	0.666753
C55	C	0.120003	0.021506	0.000080
C56	C	0.453336	0.354839	0.333413
C57	C	0.786669	0.688173	0.666747
C58	C	0.142616	0.073787	0.000067
C59	C	0.475949	0.407120	0.333400
C60	C	0.809283	0.740454	0.666734
C61	C	0.128448	0.177629	0.000047
C62	C	0.461781	0.510963	0.333380
C63	C	0.795114	0.844296	0.666714
C64	C	0.187844	0.178341	0.000042
C65	C	0.521177	0.511674	0.333375
C66	C	0.854510	0.845007	0.666709
C67	C	0.224626	0.126775	0.000050
C68	C	0.557959	0.460108	0.333383
C69	C	0.891292	0.793442	0.666716
C70	C	0.202012	0.074498	0.000062
C71	C	0.535345	0.407832	0.333395
C72	C	0.868679	0.741165	0.666729
C73	C	0.156788	-0.030063	0.000093
C74	C	0.490122	0.303271	0.333427
C75	C	0.823455	0.636604	0.666760
C76	C	0.216191	-0.029346	0.000094
C77	C	0.549524	0.303987	0.333428
C78	C	0.882857	0.637321	0.666761
C79	C	0.238804	0.022935	0.000081
C80	C	0.572137	0.356268	0.333415
C81	C	0.905471	0.689601	0.666748
C82	C	0.298190	0.023644	0.000065
C83	C	0.631523	0.356977	0.333398
C84	C	0.964857	0.690311	0.666731
N85	N	0.320807	0.075922	0.000058
N86	N	0.654140	0.409255	0.333391
N87	N	0.987474	0.742588	0.666724
C88	C	0.284025	0.127487	0.000050
C89	C	0.617358	0.460820	0.333384
C90	C	0.950691	0.794154	0.666717
C91	C	-0.064139	0.019303	0.000079
C92	C	0.269195	0.352636	0.333413
C93	C	0.602528	0.685969	0.666746
C94	C	-0.123536	0.018590	0.000075
C95	C	0.209797	0.351923	0.333408
C96	C	0.543130	0.685257	0.666741
C97	C	-0.137702	0.122437	0.000059
C98	C	0.195631	0.455771	0.333393
C99	C	0.528964	0.789104	0.666726
C100	C	-0.078303	0.123149	0.000060
C101	C	0.255030	0.456483	0.333393
C102	C	0.588363	0.789816	0.666727
C103	C	-0.041522	0.071580	0.000072
C104	C	0.291812	0.404914	0.333406
C105	C	0.625145	0.738247	0.666739
C106	C	0.408761	0.128977	0.000040
C107	C	0.742095	0.462310	0.333373
C108	C	1.075428	0.795644	0.666706
C109	C	0.468163	0.129684	0.000032
C110	C	0.801496	0.463017	0.333366
C111	C	1.134830	0.796350	0.666699
C112	C	0.482324	0.025837	0.000051
C113	C	0.815657	0.359170	0.333384
C114	C	1.148991	0.692503	0.666717
C115	C	0.422927	0.025130	0.000055
C116	C	0.756261	0.358463	0.333388
C117	C	1.089594	0.691796	0.666721
C118	C	0.386147	0.076704	0.000051
C119	C	0.719480	0.410038	0.333385
C120	C	1.052813	0.743371	0.666718
O121	O	0.334977	-0.020120	0.000052
O122	O	0.668310	0.313213	0.333386
O123	O	1.001644	0.646547	0.666719
O124	O	0.308725	0.172011	0.000051
O125	O	0.642058	0.505345	0.333384
O126	O	0.975391	0.838678	0.666718
C127	C	0.677076	-0.030013	0.000072
C128	C	1.010410	0.303320	0.333405
C129	C	1.343743	0.636653	0.666739
C130	C	0.676322	-0.093232	0.000078
C131	C	1.009655	0.240101	0.333411
C132	C	1.342988	0.573435	0.666744
C133	C	0.671594	-0.485250	-0.053576
C134	C	1.004927	-0.151917	0.279757
C135	C	1.338260	0.181416	0.613091
C136	C	0.670876	-0.544650	-0.053579
C137	C	1.004210	-0.211316	0.279754
C138	C	1.337543	0.122017	0.613087
O139	O	0.670493	-0.575372	-0.099182
O140	O	1.003827	-0.242039	0.234151
O141	O	1.337160	0.091295	0.567485
N142	N	0.670512	-0.574354	0.000041
N143	N	1.003845	-0.241021	0.333374
N144	N	1.337179	0.092313	0.666708
C145	C	0.670859	-0.544655	0.053668
C146	C	1.004193	-0.211321	0.387001
C147	C	1.337526	0.122012	0.720335
O148	O	0.670483	-0.575375	0.099276
O149	O	1.003817	-0.242041	0.432609
O150	O	1.337150	0.091292	0.765943
C151	C	0.671573	-0.485256	0.053671
C152	C	1.004906	-0.151923	0.387004
C153	C	1.338239	0.181411	0.720338
C154	C	0.671943	-0.455556	0.000047
C155	C	1.005276	-0.122222	0.333381
C156	C	1.338609	0.211111	0.666714
C157	C	0.671963	-0.455550	-0.107195
C158	C	1.005296	-0.122216	0.226138
C159	C	1.338629	0.211117	0.559471
C160	C	0.672681	-0.396155	-0.107192
C161	C	1.006014	-0.062821	0.226142
C162	C	1.339348	0.270512	0.559475
C163	C	0.673030	-0.366460	-0.053569
C164	C	1.006363	-0.033127	0.279765
C165	C	1.339697	0.300207	0.613098
C166	C	0.672661	-0.396160	0.000051
C167	C	1.005994	-0.062827	0.333384
C168	C	1.339327	0.270506	0.666718
C169	C	0.671916	-0.455557	0.107298
C170	C	1.005249	-0.122224	0.440631
C171	C	1.338582	0.211109	0.773964
C172	C	0.672629	-0.396154	0.107296
C173	C	1.005962	-0.062821	0.440629
C174	C	1.339295	0.270512	0.773962
C175	C	0.672998	-0.366454	0.053672
C176	C	1.006332	-0.033121	0.387005
C177	C	1.339665	0.300213	0.720339
C178	C	0.673728	-0.307070	0.053678
C179	C	1.007061	0.026263	0.387011
C180	C	1.340395	0.359596	0.720344
N181	N	0.674092	-0.277366	0.000057
N182	N	1.007426	0.055967	0.333391
N183	N	1.340759	0.389300	0.666724
C184	C	0.673743	-0.307061	-0.053566
C185	C	1.007077	0.026272	0.279768
C186	C	1.340410	0.359606	0.613101
C187	C	0.669361	-0.669396	0.053658
C188	C	1.002694	-0.336063	0.386991
C189	C	1.336027	-0.002730	0.720325
C190	C	0.668652	-0.728795	0.053656
C191	C	1.001985	-0.395461	0.386989
C192	C	1.335318	-0.062128	0.720323
C193	C	0.668668	-0.728785	-0.053592
C194	C	1.002001	-0.395452	0.279742
C195	C	1.335334	-0.062119	0.613075
C196	C	0.669381	-0.669387	-0.053589
C197	C	1.002714	-0.336053	0.279744
C198	C	1.336047	-0.002720	0.613078
C199	C	0.669725	-0.639692	0.000038
C200	C	1.003058	-0.306359	0.333371
C201	C	1.336392	0.026974	0.666704
C202	C	0.675252	-0.182327	-0.053554
C203	C	1.008585	0.151007	0.279779
C204	C	1.341919	0.484340	0.613113
C205	C	0.675973	-0.122927	-0.053545
C206	C	1.009306	0.210407	0.279788
C207	C	1.342639	0.543740	0.613121
C208	C	0.675954	-0.122941	0.053702
C209	C	1.009287	0.210393	0.387035
C210	C	1.342621	0.543726	0.720369
C211	C	0.675236	-0.182336	0.053694
C212	C	1.008570	0.150997	0.387027
C213	C	1.341903	0.484331	0.720360
C214	C	0.674883	-0.212027	0.000061
C215	C	1.008217	0.121306	0.333394
C216	C	1.341550	0.454639	0.666728
O217	O	0.674109	-0.276310	0.099257
O218	O	1.007443	0.057023	0.432590
O219	O	1.340776	0.390357	0.765924
O220	O	0.674112	-0.276333	-0.099166
O221	O	1.007445	0.057001	0.234167
O222	O	1.340779	0.390334	0.567501
C223	C	0.776459	0.069390	0.000068
C224	C	1.109793	0.402723	0.333401
C225	C	1.443126	0.736057	0.666734
C226	C	0.839676	0.070156	0.000070
C227	C	1.173010	0.403489	0.333404
C228	C	1.506343	0.736822	0.666737
C229	C	0.667545	0.178287	0.000042
C230	C	1.000879	0.511620	0.333375
C231	C	1.334212	0.844954	0.666708
C232	C	0.668300	0.241506	0.000032
C233	C	1.001633	0.574839	0.333366
C234	C	1.334966	0.908172	0.666699
N235	N	0.672291	0.074157	0.153313
N236	N	1.005624	0.407490	0.486646
N237	N	1.338957	0.740823	0.819980
N238	N	0.672335	0.074113	-0.153198
N239	N	1.005669	0.407446	0.180136
N240	N	1.339002	0.740779	0.513469
C241	C	0.711267	0.035197	0.561964
C242	C	1.044600	0.368530	0.895297
C243	C	1.377933	0.701863	1.228631
C244	C	0.711269	0.035192	0.623884
C245	C	1.044603	0.368526	0.957217
C246	C	1.377936	0.701859	1.290551
O247	O	0.744384	0.002076	0.655911
O248	O	1.077717	0.335409	0.989244
O249	O	1.411050	0.668742	1.322578
N250	N	0.672321	0.074117	0.654850
N251	N	1.005654	0.407450	0.988183
N252	N	1.338987	0.740783	1.321517
C253	C	0.633362	0.113044	0.623893
C254	C	0.966696	0.446377	0.957226
C255	C	1.300029	0.779710	1.290560
O256	O	0.600233	0.146151	0.655918
O257	O	0.933567	0.479484	0.989251
O258	O	1.266900	0.812818	1.322585
C259	C	0.633357	0.113045	0.561974
C260	C	0.966691	0.446378	0.895308
C261	C	1.300024	0.779711	1.228641
C262	C	0.672312	0.074122	0.531011
C263	C	1.005646	0.407455	0.864345
C264	C	1.338979	0.740788	1.197678
C265	C	0.750218	-0.003724	0.531001
C266	C	1.083552	0.329610	0.864334
C267	C	1.416885	0.662943	1.197668
C268	C	0.750216	-0.003719	0.469085
C269	C	1.083549	0.329615	0.802419
C270	C	1.416883	0.662948	1.135752
C271	C	0.711262	0.035207	0.438133
C272	C	1.044595	0.368540	0.771466
C273	C	1.377928	0.701873	1.104799
C274	C	0.672310	0.074127	0.469096
C275	C	1.005643	0.407460	0.802429
C276	C	1.338977	0.740793	1.135762
C277	C	0.594397	0.151969	0.531018
C278	C	0.927730	0.485302	0.864352
C279	C	1.261063	0.818635	1.197685
C280	C	0.594395	0.151966	0.469095
C281	C	0.927728	0.485299	0.802429
C282	C	1.261061	0.818633	1.135762
C283	C	0.633350	0.113043	0.438133
C284	C	0.966683	0.446376	0.771466
C285	C	1.300017	0.779710	1.104799
C286	C	0.633354	0.113057	0.376227
C287	C	0.966687	0.446390	0.709561
C288	C	1.300020	0.779724	1.042894
N289	N	0.672303	0.074133	0.345261
N290	N	1.005636	0.407466	0.678595
N291	N	1.338969	0.740799	1.011928
C292	C	0.711257	0.035208	0.376214
C293	C	1.044590	0.368541	0.709547
C294	C	1.377923	0.701874	1.042881
C295	C	0.633376	0.113038	0.753927
C296	C	0.966709	0.446371	1.087260
C297	C	1.300042	0.779705	1.420593
C298	C	0.633383	0.113040	0.815844
C299	C	0.966716	0.446374	1.149178
C300	C	1.300050	0.779707	1.482511
C301	C	0.711290	0.035188	0.815831
C302	C	1.044623	0.368521	1.149164
C303	C	1.377956	0.701855	1.482498
C304	C	0.711284	0.035189	0.753912
C305	C	1.044618	0.368522	1.087245
C306	C	1.377951	0.701856	1.420579
C307	C	0.672324	0.074114	0.722961
C308	C	1.005658	0.407447	1.056294
C309	C	1.338991	0.740780	1.389627
C310	C	0.711249	0.035221	0.246187
C311	C	1.044582	0.368555	0.579520
C312	C	1.377916	0.701888	0.912853
C313	C	0.711245	0.035231	0.184265
C314	C	1.044578	0.368565	0.517599
C315	C	1.377911	0.701898	0.850932
C316	C	0.633337	0.113081	0.184284
C317	C	0.966670	0.446415	0.517618
C318	C	1.300003	0.779748	0.850951
C319	C	0.633342	0.113073	0.246200
C320	C	0.966676	0.446407	0.579533
C321	C	1.300009	0.779740	0.912867
C322	C	0.672301	0.074139	0.277150
C323	C	1.005634	0.407472	0.610483
C324	C	1.338968	0.740805	0.943816
O325	O	0.600255	0.146155	0.344161
O326	O	0.933588	0.479488	0.677494
O327	O	1.266921	0.812822	1.010828
O328	O	0.744375	0.002101	0.344182
O329	O	1.077709	0.335434	0.677515
O330	O	1.411042	0.668767	1.010848
H331	H	-0.034193	-0.022694	0.000084
H332	H	0.299140	0.310639	0.333418
H333	H	0.632473	0.643973	0.666751
C334	C	0.667568	-0.819839	-0.101209
C335	C	1.000901	-0.486506	0.232124
C336	C	1.334234	-0.153173	0.565457
C337	C	0.668277	-0.761433	-0.112537
C338	C	1.001610	-0.428100	0.220796
C339	C	1.334943	-0.094766	0.554130
H340	H	0.667323	-0.839994	-0.137598
H341	H	1.000656	-0.506660	0.195735
H342	H	1.333989	-0.173327	0.529069
H343	H	0.700662	-0.834104	-0.079179
H344	H	1.033996	-0.500771	0.254154
H345	H	1.367329	-0.167438	0.587487
H346	H	0.634230	-0.825030	-0.079176
H347	H	0.967564	-0.491697	0.254157
H348	H	1.300897	-0.158364	0.587491
H349	H	0.701616	-0.756242	-0.134567
H350	H	1.034949	-0.422908	0.198767
H351	H	1.368283	-0.089575	0.532100
H352	H	0.635179	-0.747164	-0.134576
H353	H	0.968512	-0.413830	0.198757
H354	H	1.301845	-0.080497	0.532090
C355	C	0.333751	0.188450	0.050600
C356	C	0.667085	0.521783	0.383934
C357	C	1.000418	0.855116	0.717267
C358	C	0.368339	0.185669	0.000032
C359	C	0.701672	0.519002	0.333365
C360	C	1.035005	0.852335	0.666698
H361	H	0.308800	0.223450	0.050593
H362	H	0.642133	0.556784	0.383926
H363	H	0.975466	0.890117	0.717259
H364	H	0.311777	0.157222	0.050605
H365	H	0.645110	0.490556	0.383938
H366	H	0.978444	0.823889	0.717271
H367	H	0.357223	0.186572	0.084900
H368	H	0.690556	0.519905	0.418233
H369	H	1.023890	0.853238	0.751566
H370	H	0.344867	0.187543	-0.034268
H371	H	0.678201	0.520876	0.299066
H372	H	1.011534	0.854209	0.632399
H373	H	0.390315	0.216904	0.000022
H374	H	0.723649	0.550238	0.333355
H375	H	1.056982	0.883571	0.666689
H376	H	0.486571	0.172259	0.000021
H377	H	0.819904	0.505592	0.333355
H378	H	1.153238	0.838925	0.666688
C379	C	0.788829	0.022385	0.684228
C380	C	1.122163	0.355718	1.017561
C381	C	1.455496	0.689052	1.350894
C382	C	0.754066	-0.007617	0.719860
C383	C	1.087400	0.325716	1.053194
C384	C	1.420733	0.659050	1.386527
H385	H	0.815233	-0.004050	0.663205
H386	H	1.148566	0.329283	0.996538
H387	H	1.481900	0.662617	1.329872
H388	H	0.765628	0.045577	0.656946
H389	H	1.098962	0.378910	0.990279
H390	H	1.432295	0.712243	1.323613
H391	H	0.809210	0.045969	0.708370
H392	H	1.142544	0.379302	1.041703
H393	H	1.475877	0.712635	1.375037
H394	H	0.733682	-0.031198	0.695717
H395	H	1.067015	0.302136	1.029051
H396	H	1.400349	0.635469	1.362384
H397	H	0.777271	-0.030819	0.747145
H398	H	1.110604	0.302515	1.080478
H399	H	1.443937	0.635848	1.413812
C400	C	0.618863	-0.788897	0.115868
C401	C	0.952197	-0.455564	0.449202
C402	C	1.285530	-0.122231	0.782535
C403	C	0.668243	-0.761435	0.112602
C404	C	1.001577	-0.428101	0.445936
C405	C	1.334910	-0.094768	0.779269
H406	H	0.618609	-0.809047	0.152260
H407	H	0.951943	-0.475713	0.485593
H408	H	1.285276	-0.142380	0.818927
H409	H	0.585937	-0.761188	0.113628
H410	H	0.919270	-0.427854	0.446962
H411	H	1.252604	-0.094521	0.780295
H412	H	0.618561	-0.815090	0.083935
H413	H	0.951894	-0.481757	0.417268
H414	H	1.285227	-0.148423	0.750601
H415	H	0.668544	-0.735239	0.144534
H416	H	1.001877	-0.401905	0.477867
H417	H	1.335211	-0.068572	0.811200
H418	H	0.701178	-0.789147	0.114848
H419	H	1.034512	-0.455814	0.448181
H420	H	1.367845	-0.122481	0.781515
H421	H	0.743007	0.003492	0.841044
H422	H	1.076341	0.336826	1.174377
H423	H	1.409674	0.670159	1.507710
H424	H	0.206249	0.220913	0.000031
H425	H	0.539583	0.554246	0.333365
H426	H	0.872916	0.887580	0.666698
H427	H	0.742969	0.003536	0.159057
H428	H	1.076302	0.336869	0.492391
H429	H	1.409635	0.670202	0.825724
H430	H	0.562667	0.183663	0.443898
H431	H	0.896000	0.516996	0.777231
H432	H	1.229334	0.850329	1.110564
C433	C	0.176782	-0.132635	0.000131
C434	C	0.510115	0.200698	0.333464
C435	C	0.843449	0.534031	0.666798
C436	C	0.131943	-0.087533	0.000116
C437	C	0.465276	0.245801	0.333450
C438	C	0.798609	0.579134	0.666783
H439	H	0.161443	-0.168116	0.000151
H440	H	0.494776	0.165217	0.333484
H441	H	0.828110	0.498550	0.666817
H442	H	0.199652	-0.130205	-0.034174
H443	H	0.532985	0.203129	0.299159
H444	H	0.866319	0.536462	0.632493
H445	H	0.199655	-0.130177	0.034433
H446	H	0.532989	0.203157	0.367767
H447	H	0.866322	0.536490	0.701100
H448	H	0.109072	-0.089989	-0.034188
H449	H	0.442405	0.243345	0.299145
H450	H	0.775739	0.576678	0.632478
H451	H	0.109063	-0.089965	0.034425
H452	H	0.442397	0.243369	0.367758
H453	H	0.775730	0.576702	0.701092
C454	C	-0.019730	0.184207	0.050614
C455	C	0.313603	0.517541	0.383948
C456	C	0.646937	0.850874	0.717281
C457	C	-0.053447	0.180616	0.000048
C458	C	0.279887	0.513949	0.333381
C459	C	0.613220	0.847283	0.666715
H460	H	-0.004384	0.219685	0.050604
H461	H	0.328949	0.553018	0.383937
H462	H	0.662282	0.886352	0.717271
H463	H	-0.042611	0.181779	0.084911
H464	H	0.290722	0.515112	0.418245
H465	H	0.624055	0.848445	0.751578
H466	H	0.010678	0.153598	0.050615
H467	H	0.344012	0.486931	0.383948
H468	H	0.677345	0.820264	0.717282
H469	H	-0.083858	0.211223	0.000049
H470	H	0.249475	0.544557	0.333383
H471	H	0.582809	0.877890	0.666716
H472	H	-0.030564	0.183050	-0.034258
H473	H	0.302769	0.516383	0.299075
H474	H	0.636102	0.849717	0.632409
H475	H	0.601627	0.144773	0.271411
H476	H	0.934960	0.478107	0.604744
H477	H	1.268294	0.811440	0.938077
H478	H	0.098505	0.219623	0.000043
H479	H	0.431838	0.552956	0.333376
H480	H	0.765171	0.886289	0.666710
C481	C	0.579672	-0.019171	0.000063
C482	C	0.913006	0.314162	0.333397
C483	C	1.246339	0.647496	0.666730
C484	C	0.522763	-0.030843	0.000064
C485	C	0.856096	0.302491	0.333397
C486	C	1.189429	0.635824	0.666731
H487	H	0.604637	-0.054163	0.000079
H488	H	0.937971	0.279170	0.333412
H489	H	1.271304	0.612503	0.666745
H490	H	0.586493	0.002267	-0.034245
H491	H	0.919827	0.335600	0.299088
H492	H	1.253160	0.668934	0.632422
H493	H	0.586483	0.002291	0.034362
H494	H	0.919817	0.335624	0.367696
H495	H	1.253150	0.668958	0.701029
H496	H	0.515950	-0.052301	-0.034238
H497	H	0.849284	0.281032	0.299096
H498	H	1.182617	0.614365	0.632429
H499	H	0.515939	-0.052290	0.034375
H500	H	0.849272	0.281043	0.367709
H501	H	1.182605	0.614377	0.701042
C502	C	-0.235051	0.167449	0.000062
C503	C	0.098282	0.500782	0.333395
C504	C	0.431615	0.834116	0.666729
C505	C	-0.178142	0.179121	0.000056
C506	C	0.155192	0.512454	0.333389
C507	C	0.488525	0.845787	0.666723
H508	H	-0.260016	0.202441	0.000063
H509	H	0.073317	0.535775	0.333396
H510	H	0.406650	0.869108	0.666730
H511	H	-0.241869	0.145998	-0.034236
H512	H	0.091465	0.479332	0.299097
H513	H	0.424798	0.812665	0.632430
H514	H	-0.241866	0.146000	0.034371
H515	H	0.091467	0.479333	0.367704
H516	H	0.424800	0.812666	0.701038
H517	H	-0.171326	0.200567	-0.034255
H518	H	0.162008	0.533900	0.299078
H519	H	0.495341	0.867233	0.632411
H520	H	-0.171322	0.200581	0.034358
H521	H	0.162011	0.533914	0.367691
H522	H	0.495345	0.867247	0.701025
C523	C	0.622209	-0.515654	-0.169442
C524	C	0.955542	-0.182321	0.163891
C525	C	1.288875	0.151012	0.497225
C526	C	0.671581	-0.488183	-0.166145
C527	C	1.004915	-0.154850	0.167188
C528	C	1.338248	0.178483	0.500521
H529	H	0.621976	-0.535795	-0.205840
H530	H	0.955309	-0.202461	0.127493
H531	H	1.288643	0.130872	0.460827
H532	H	0.621892	-0.541850	-0.137519
H533	H	0.955225	-0.208517	0.195814
H534	H	1.288558	0.124817	0.529148
H535	H	0.589273	-0.487945	-0.167213
H536	H	0.922607	-0.154612	0.166120
H537	H	1.255940	0.178721	0.499454
H538	H	0.704517	-0.515893	-0.168370
H539	H	1.037850	-0.182559	0.164963
H540	H	1.371183	0.150774	0.498297
H541	H	0.671904	-0.461985	-0.198077
H542	H	1.005237	-0.128652	0.135256
H543	H	1.338570	0.204681	0.468589
C544	C	-0.103553	-0.083985	0.000090
C545	C	0.229780	0.249348	0.333423
C546	C	0.563114	0.582682	0.666757
C547	C	-0.148389	-0.038879	0.000084
C548	C	0.184945	0.294454	0.333417
C549	C	0.518278	0.627788	0.666750
H550	H	-0.118895	-0.119464	0.000102
H551	H	0.214438	0.213869	0.333435
H552	H	0.547771	0.547202	0.666768
H553	H	-0.080682	-0.081550	-0.034214
H554	H	0.252651	0.251783	0.299120
H555	H	0.585984	0.585117	0.632453
H556	H	-0.080680	-0.081535	0.034394
H557	H	0.252654	0.251798	0.367727
H558	H	0.585987	0.585131	0.701060
H559	H	-0.171260	-0.041326	-0.034222
H560	H	0.162074	0.292007	0.299111
H561	H	0.495407	0.625341	0.632444
H562	H	-0.171269	-0.041315	0.034391
H563	H	0.162065	0.292018	0.367724
H564	H	0.495398	0.625351	0.701057
H565	H	0.676275	-0.098748	-0.097214
H566	H	1.009609	0.234586	0.236119
H567	H	1.342942	0.567919	0.569452
H568	H	0.669643	-0.645223	0.097330
H569	H	1.002976	-0.311890	0.430664
H570	H	1.336310	0.021444	0.763997
C571	C	0.291210	-0.088804	-0.050463
C572	C	0.624543	0.244530	0.282870
C573	C	0.957877	0.577863	0.616203
C574	C	0.256623	-0.086033	0.000105
C575	C	0.589956	0.247300	0.333439
C576	C	0.923289	0.580634	0.666772
H577	H	0.316172	-0.123798	-0.050455
H578	H	0.649505	0.209535	0.282879
H579	H	0.982839	0.542869	0.616212
H580	H	0.267743	-0.086930	-0.084759
H581	H	0.601076	0.246403	0.248574
H582	H	0.934410	0.579736	0.581908
H583	H	0.313179	-0.057566	-0.050465
H584	H	0.646512	0.275768	0.282869
H585	H	0.979845	0.609101	0.616202
H586	H	0.234651	-0.117269	0.000105
H587	H	0.567984	0.216065	0.333438
H588	H	0.901317	0.549398	0.666771
H589	H	0.280092	-0.087912	0.034410
H590	H	0.613426	0.245422	0.367743
H591	H	0.946759	0.578755	0.701076
H592	H	0.404515	-0.017442	0.000057
H593	H	0.737848	0.315891	0.333390
H594	H	1.071181	0.649225	0.666723
C595	C	0.623909	-0.371257	-0.198588
C596	C	0.957242	-0.037924	0.134745
C597	C	1.290575	0.295409	0.468079
C598	C	0.673055	-0.363541	-0.166157
C599	C	1.006388	-0.030208	0.167177
C600	C	1.339722	0.303125	0.500510
H601	H	0.624130	-0.351131	-0.234997
H602	H	0.957463	-0.017798	0.098337
H603	H	1.290797	0.315535	0.431670
H604	H	0.623445	-0.410887	-0.206219
H605	H	0.956779	-0.077554	0.127114
H606	H	1.290112	0.255779	0.460447
H607	H	0.590820	-0.356976	-0.176544
H608	H	0.924153	-0.023643	0.156789
H609	H	1.257486	0.309690	0.490122
H610	H	0.706144	-0.377826	-0.188199
H611	H	1.039477	-0.044493	0.145135
H612	H	1.372811	0.288841	0.478468
H613	H	0.673523	-0.323903	-0.158527
H614	H	1.006857	0.009430	0.174806
H615	H	1.340190	0.342764	0.508140
C616	C	0.675327	-0.176333	-0.159564
C617	C	1.008661	0.157000	0.173770
C618	C	1.341994	0.490333	0.507103
C619	C	0.674855	-0.214956	-0.112507
C620	C	1.008188	0.118377	0.220826
C621	C	1.341522	0.451710	0.554159
H622	H	0.675084	-0.196479	-0.195958
H623	H	1.008418	0.136855	0.137375
H624	H	1.341751	0.470188	0.470709
H625	H	0.642397	-0.148629	-0.157325
H626	H	0.975730	0.184704	0.176008
H627	H	1.309063	0.518038	0.509341
H628	H	0.708828	-0.157705	-0.157326
H629	H	1.042162	0.175628	0.176008
H630	H	1.375495	0.508961	0.509341
H631	H	0.641352	-0.233581	-0.114743
H632	H	0.974685	0.099752	0.218590
H633	H	1.308018	0.433086	0.551924
H634	H	0.707789	-0.242671	-0.114747
H635	H	1.041122	0.090663	0.218587
H636	H	1.374456	0.423996	0.551920
C637	C	0.719137	-0.609253	-0.115809
C638	C	1.052470	-0.275920	0.217524
C639	C	1.385803	0.057413	0.550857
C640	C	0.669769	-0.636734	-0.112529
C641	C	1.003102	-0.303400	0.220804
C642	C	1.336435	0.029933	0.554137
H643	H	0.719372	-0.589098	-0.152199
H644	H	1.052705	-0.255764	0.181134
H645	H	1.386038	0.077569	0.514467
H646	H	0.719445	-0.583070	-0.083876
H647	H	1.052778	-0.249737	0.249458
H648	H	1.386112	0.083597	0.582791
H649	H	0.752075	-0.636958	-0.113588
H650	H	1.085409	-0.303625	0.219746
H651	H	1.418742	0.029708	0.553079
H652	H	0.636830	-0.609028	-0.114747
H653	H	0.970163	-0.275695	0.218587
H654	H	1.303497	0.057639	0.551920
H655	H	0.669456	-0.662919	-0.144472
H656	H	1.002789	-0.329586	0.188861
H657	H	1.336122	0.003747	0.522195
C658	C	0.517382	0.228909	0.524786
C659	C	0.850715	0.562242	0.858119
C660	C	1.184049	0.895575	1.191452
C661	C	0.551572	0.194752	0.565042
C662	C	0.884906	0.528085	0.898375
C663	C	1.218239	0.861419	1.231709
H664	H	0.490940	0.255320	0.545791
H665	H	0.824274	0.588653	0.879124
H666	H	1.157607	0.921987	1.212458
H667	H	0.540966	0.249276	0.500636
H668	H	0.874300	0.582609	0.833969
H669	H	1.207633	0.915942	1.167303
H670	H	0.497045	0.205293	0.500635
H671	H	0.830378	0.538627	0.833968
H672	H	1.163711	0.871960	1.167302
H673	H	0.571913	0.218367	0.589190
H674	H	0.905247	0.551700	0.922523
H675	H	1.238580	0.885034	1.255856
H676	H	0.527985	0.174384	0.589202
H677	H	0.861318	0.507717	0.922535
H678	H	1.194652	0.841050	1.255868
H679	H	0.671616	-0.479729	0.150964
H680	H	1.004949	-0.146396	0.484297
H681	H	1.338282	0.186937	0.817631
H682	H	0.672900	-0.371979	0.150966
H683	H	1.006234	-0.038646	0.484300
H684	H	1.339567	0.294688	0.817633
H685	H	0.674940	-0.206520	0.097359
H686	H	1.008274	0.126813	0.430692
H687	H	1.341607	0.460147	0.764025
C688	C	0.556376	0.189991	0.809623
C689	C	0.889709	0.523325	1.142956
C690	C	1.223042	0.856658	1.476289
C691	C	0.590565	0.155828	0.849875
C692	C	0.923898	0.489162	1.183208
C693	C	1.257232	0.822495	1.516541
H694	H	0.529937	0.216403	0.830631
H695	H	0.863270	0.549737	1.163965
H696	H	1.196604	0.883070	1.497298
H697	H	0.579961	0.210358	0.785474
H698	H	0.913294	0.543691	1.118807
H699	H	1.246628	0.877024	1.452140
H700	H	0.536034	0.166380	0.785471
H701	H	0.869368	0.499714	1.118804
H702	H	1.202701	0.833047	1.452138
H703	H	0.610910	0.179439	0.874023
H704	H	0.944243	0.512772	1.207357
H705	H	1.277576	0.846106	1.540690
H706	H	0.566977	0.135461	0.874034
H707	H	0.900310	0.468794	1.207367
H708	H	1.233643	0.802127	1.540700
H709	H	0.676241	-0.098753	0.097360
H710	H	1.009574	0.234580	0.430694
H711	H	1.342907	0.567914	0.764027
H712	H	0.601651	0.144740	0.728729
H713	H	0.934984	0.478073	1.062062
H714	H	1.268318	0.811407	1.395396
H715	H	0.742972	0.003516	0.271379
H716	H	1.076305	0.336850	0.604712
H717	H	1.409639	0.670183	0.938045
H718	H	0.781935	-0.035415	0.443879
H719	H	1.115268	0.297919	0.777212
H720	H	1.448602	0.631252	1.110546
H721	H	0.781939	-0.035424	0.556197
H722	H	1.115273	0.297910	0.889531
H723	H	1.448606	0.631243	1.222864
H724	H	0.601622	0.144775	0.159073
H725	H	0.934955	0.478109	0.492406
H726	H	1.268289	0.811442	0.825740
