data_functionalizedCrystal
_audit_creation_method	'MofGen! by Chris Wilmer'
_symmetry_space_group_name_H-M	'P1'
_symmetry_Int_Tables_number	1
_symmetry_cell_setting	triclinic
loop_
_symmetry_equiv_pos_as_xyz
  x,y,z
_cell_length_a	16.625547
_cell_length_b	25.639239
_cell_length_c	16.625539
_cell_angle_alpha	90.031255
_cell_angle_beta	90.024822
_cell_angle_gamma	90.038623
loop_
_atom_site_label
_atom_site_type_symbol
_atom_site_fract_x
_atom_site_fract_y
_atom_site_fract_z
Zn1	Zn	1.232590	-0.208151	0.455984
Zn2	Zn	1.482590	0.041849	0.705984
Zn3	Zn	1.732590	0.291849	0.955984
Zn4	Zn	1.982590	0.541849	1.205984
Zn5	Zn	1.232455	-0.295589	0.321145
Zn6	Zn	1.482455	-0.045589	0.571145
Zn7	Zn	1.732455	0.204411	0.821145
Zn8	Zn	1.982455	0.454411	1.071145
Zn9	Zn	1.097751	-0.208169	0.321155
Zn10	Zn	1.347751	0.041831	0.571155
Zn11	Zn	1.597751	0.291831	0.821155
Zn12	Zn	1.847751	0.541831	1.071155
Zn13	Zn	1.097684	-0.295557	0.455924
Zn14	Zn	1.347684	-0.045557	0.705924
Zn15	Zn	1.597684	0.204443	0.955924
Zn16	Zn	1.847684	0.454443	1.205924
O17	O	1.165120	-0.251866	0.388552
O18	O	1.415120	-0.001866	0.638552
O19	O	1.665120	0.248134	0.888552
O20	O	1.915120	0.498134	1.138552
O21	O	1.345404	-0.219755	0.438118
O22	O	1.595404	0.030245	0.688118
O23	O	1.845404	0.280245	0.938118
O24	O	2.095404	0.530245	1.188118
O25	O	1.214558	-0.284013	0.208313
O26	O	1.464558	-0.034013	0.458313
O27	O	1.714558	0.215987	0.708313
O28	O	1.964558	0.465987	0.958313
O29	O	1.115723	-0.135001	0.339070
O30	O	1.365723	0.114999	0.589070
O31	O	1.615723	0.364999	0.839070
O32	O	1.865723	0.614999	1.089070
O33	O	1.345305	-0.283995	0.339052
O34	O	1.595305	-0.033995	0.589052
O35	O	1.845305	0.216005	0.839052
O36	O	2.095305	0.466005	1.089052
O37	O	1.214788	-0.134988	0.438128
O38	O	1.464788	0.115012	0.688128
O39	O	1.714788	0.365012	0.938128
O40	O	1.964788	0.615012	1.188128
O41	O	1.115592	-0.219786	0.208321
O42	O	1.365592	0.030214	0.458321
O43	O	1.615592	0.280214	0.708321
O44	O	1.865592	0.530214	0.958321
O45	O	0.984910	-0.219755	0.339012
O46	O	1.234910	0.030245	0.589012
O47	O	1.484910	0.280245	0.839012
O48	O	1.734910	0.530245	1.089012
O49	O	1.115607	-0.283941	0.568765
O50	O	1.365607	-0.033941	0.818765
O51	O	1.615607	0.216059	1.068765
O52	O	1.865607	0.466059	1.318765
O53	O	0.984860	-0.283959	0.438026
O54	O	1.234860	-0.033959	0.688026
O55	O	1.484860	0.216041	0.938026
O56	O	1.734860	0.466041	1.188026
O57	O	1.214722	-0.219724	0.568809
O58	O	1.464722	0.030276	0.818809
O59	O	1.714722	0.280276	1.068809
O60	O	1.964722	0.530276	1.318809
O61	O	1.214492	-0.368750	0.338994
O62	O	1.464492	-0.118750	0.588994
O63	O	1.714492	0.131250	0.838994
O64	O	1.964492	0.381250	1.088994
O65	O	1.115477	-0.368726	0.438016
O66	O	1.365477	-0.118726	0.688016
O67	O	1.615477	0.131274	0.938016
O68	O	1.865477	0.381274	1.188016
C69	C	0.955629	-0.251856	0.388514
C70	C	1.205629	-0.001856	0.638514
C71	C	1.455629	0.248144	0.888514
C72	C	1.705629	0.498144	1.138514
C73	C	0.866008	-0.251864	0.388517
C74	C	1.116008	-0.001864	0.638517
C75	C	1.366008	0.248136	0.888517
C76	C	1.616008	0.498136	1.138517
C77	C	0.793225	-0.251865	0.388527
C78	C	1.043225	-0.001865	0.638527
C79	C	1.293225	0.248135	0.888527
C80	C	1.543225	0.498135	1.138527
C81	C	0.701917	-0.251868	0.388547
C82	C	0.951917	-0.001868	0.638547
C83	C	1.201917	0.248132	0.888547
C84	C	1.451917	0.498132	1.138547
C85	C	0.629141	-0.251873	0.388567
C86	C	0.879141	-0.001873	0.638567
C87	C	1.129141	0.248127	0.888567
C88	C	1.379141	0.498127	1.138567
C89	C	0.537826	-0.251877	0.388587
C90	C	0.787826	-0.001877	0.638587
C91	C	1.037826	0.248123	0.888587
C92	C	1.287826	0.498123	1.138587
C93	C	1.164984	-0.387709	0.388515
C94	C	1.414984	-0.137709	0.638515
C95	C	1.664984	0.112291	0.888515
C96	C	1.914984	0.362291	1.138515
C97	C	1.165000	-0.445823	0.388526
C98	C	1.415000	-0.195823	0.638526
C99	C	1.665000	0.054177	0.888526
C100	C	1.915000	0.304177	1.138526
C101	C	1.216812	-0.806185	0.337079
C102	C	1.466812	-0.556185	0.587079
C103	C	1.716812	-0.306185	0.837079
C104	C	1.966812	-0.056185	1.087079
C105	C	1.216843	-0.860790	0.337090
C106	C	1.466843	-0.610790	0.587090
C107	C	1.716843	-0.360790	0.837090
C108	C	1.966843	-0.110790	1.087090
O109	O	1.260755	-0.889026	0.293307
O110	O	1.510755	-0.639026	0.543307
O111	O	1.760755	-0.389026	0.793307
O112	O	2.010755	-0.139026	1.043307
N113	N	1.165262	-0.888105	0.388605
N114	N	1.415262	-0.638105	0.638605
N115	N	1.665262	-0.388105	0.888605
N116	N	1.915262	-0.138105	1.138605
C117	C	1.113651	-0.860814	0.440119
C118	C	1.363651	-0.610814	0.690119
C119	C	1.613651	-0.360814	0.940119
C120	C	1.863651	-0.110814	1.190119
O121	O	1.069781	-0.889062	0.483939
O122	O	1.319781	-0.639062	0.733939
O123	O	1.569781	-0.389062	0.983939
O124	O	1.819781	-0.139062	1.233939
C125	C	1.113625	-0.806210	0.440112
C126	C	1.363625	-0.556210	0.690112
C127	C	1.613625	-0.306210	0.940112
C128	C	1.863625	-0.056210	1.190112
C129	C	1.165204	-0.778898	0.388587
C130	C	1.415204	-0.528898	0.638587
C131	C	1.665204	-0.278898	0.888587
C132	C	1.915204	-0.028898	1.138587
C133	C	1.268387	-0.778873	0.285559
C134	C	1.518387	-0.528873	0.535559
C135	C	1.768387	-0.278873	0.785559
C136	C	2.018387	-0.028873	1.035559
C137	C	1.268355	-0.724272	0.285547
C138	C	1.518355	-0.474272	0.535547
C139	C	1.768355	-0.224272	0.785547
C140	C	2.018355	0.025728	1.035547
C141	C	1.216747	-0.696984	0.337056
C142	C	1.466747	-0.446984	0.587056
C143	C	1.716747	-0.196984	0.837056
C144	C	1.966747	0.053016	1.087056
C145	C	1.165171	-0.724297	0.388576
C146	C	1.415171	-0.474297	0.638576
C147	C	1.665171	-0.224297	0.888576
C148	C	1.915171	0.025703	1.138576
C149	C	1.062019	-0.778920	0.491630
C150	C	1.312019	-0.528920	0.741630
C151	C	1.562019	-0.278920	0.991630
C152	C	1.812019	-0.028920	1.241630
C153	C	1.061997	-0.724313	0.491618
C154	C	1.311997	-0.474313	0.741618
C155	C	1.561997	-0.224313	0.991618
C156	C	1.811997	0.025687	1.241618
C157	C	1.113576	-0.697000	0.440093
C158	C	1.363576	-0.447000	0.690093
C159	C	1.613576	-0.197000	0.940093
C160	C	1.863576	0.053000	1.190093
C161	C	1.113531	-0.642409	0.440072
C162	C	1.363531	-0.392409	0.690072
C163	C	1.613531	-0.142409	0.940072
C164	C	1.863531	0.107591	1.190072
N165	N	1.165112	-0.615093	0.388557
N166	N	1.415112	-0.365093	0.638557
N167	N	1.665112	-0.115093	0.888557
N168	N	1.915112	0.134907	1.138557
C169	C	1.216720	-0.642381	0.337048
C170	C	1.466720	-0.392381	0.587048
C171	C	1.716720	-0.142381	0.837048
C172	C	1.966720	0.107619	1.087048
C173	C	1.113712	-0.975484	0.440132
C174	C	1.363712	-0.725484	0.690132
C175	C	1.613712	-0.475484	0.940132
C176	C	1.863712	-0.225484	1.190132
C177	C	1.113734	-1.030087	0.440136
C178	C	1.363734	-0.780087	0.690136
C179	C	1.613734	-0.530087	0.940136
C180	C	1.863734	-0.280087	1.190136
C181	C	1.216927	-1.030059	0.337107
C182	C	1.466927	-0.780059	0.587107
C183	C	1.716927	-0.530059	0.837107
C184	C	1.966927	-0.280059	1.087107
C185	C	1.216900	-0.975456	0.337100
C186	C	1.466900	-0.725456	0.587100
C187	C	1.716900	-0.475456	0.837100
C188	C	1.966900	-0.225456	1.087100
C189	C	1.165293	-0.948169	0.388616
C190	C	1.415293	-0.698169	0.638616
C191	C	1.665293	-0.448169	0.888616
C192	C	1.915293	-0.198169	1.138616
C193	C	1.216648	-0.527716	0.337027
C194	C	1.466648	-0.277716	0.587027
C195	C	1.716648	-0.027716	0.837027
C196	C	1.966648	0.222284	1.087027
C197	C	1.216608	-0.473111	0.337018
C198	C	1.466608	-0.223111	0.587018
C199	C	1.716608	0.026889	0.837018
C200	C	1.966608	0.276889	1.087018
C201	C	1.113418	-0.473143	0.440049
C202	C	1.363418	-0.223143	0.690049
C203	C	1.613418	0.026857	0.940049
C204	C	1.863418	0.276857	1.190049
C205	C	1.113454	-0.527744	0.440056
C206	C	1.363454	-0.277744	0.690056
C207	C	1.613454	-0.027744	0.940056
C208	C	1.863454	0.222256	1.190056
C209	C	1.165076	-0.555029	0.388542
C210	C	1.415076	-0.305029	0.638542
C211	C	1.665076	-0.055029	0.888542
C212	C	1.915076	0.194971	1.138542
O213	O	1.069644	-0.614138	0.483835
O214	O	1.319644	-0.364138	0.733835
O215	O	1.569644	-0.114138	0.983835
O216	O	1.819644	0.135862	1.233835
O217	O	1.260591	-0.614126	0.293244
O218	O	1.510591	-0.364126	0.543244
O219	O	1.760591	-0.114126	0.793244
O220	O	2.010591	0.135874	1.043244
C221	C	1.375429	-0.251877	0.388591
C222	C	1.625429	-0.001877	0.638591
C223	C	1.875429	0.248123	0.888591
C224	C	2.125429	0.498123	1.138591
C225	C	1.465050	-0.251881	0.388607
C226	C	1.715050	-0.001881	0.638607
C227	C	1.965050	0.248119	0.888607
C228	C	2.215050	0.498119	1.138607
C229	C	1.165172	-0.251827	0.598861
C230	C	1.415172	-0.001827	0.848861
C231	C	1.665172	0.248173	1.098861
C232	C	1.915172	0.498173	1.348861
C233	C	1.165195	-0.251811	0.688482
C234	C	1.415195	-0.001811	0.938482
C235	C	1.665195	0.248189	1.188482
C236	C	1.915195	0.498189	1.438482
C237	C	1.165278	-0.115493	0.388607
C238	C	1.415278	0.134507	0.638607
C239	C	1.665278	0.384507	0.888607
C240	C	1.915278	0.634507	1.138607
C241	C	1.165345	-0.057379	0.388630
C242	C	1.415345	0.192621	0.638630
C243	C	1.665345	0.442621	0.888630
C244	C	1.915345	0.692621	1.138630
C245	C	1.165114	-0.251867	0.179061
C246	C	1.415114	-0.001867	0.429061
C247	C	1.665114	0.248133	0.679061
C248	C	1.915114	0.498133	0.929061
C249	C	1.165248	-0.251737	0.089441
C250	C	1.415248	-0.001737	0.339441
C251	C	1.665248	0.248263	0.589441
C252	C	1.915248	0.498263	0.839441
C253	C	1.165232	-0.251752	1.016658
C254	C	1.415232	-0.001752	1.266658
C255	C	1.665232	0.248248	1.516658
C256	C	1.915232	0.498248	1.766658
C257	C	1.165219	-0.251770	0.925350
C258	C	1.415219	-0.001770	1.175350
C259	C	1.665219	0.248230	1.425350
C260	C	1.915219	0.498230	1.675350
C261	C	1.165214	-0.251782	0.852573
C262	C	1.415214	-0.001782	1.102573
C263	C	1.665214	0.248218	1.352573
C264	C	1.915214	0.498218	1.602573
C265	C	1.165200	-0.251799	0.761259
C266	C	1.415200	-0.001799	1.011259
C267	C	1.665200	0.248201	1.261259
C268	C	1.915200	0.498201	1.511259
H269	H	1.258610	-0.450874	0.295057
H270	H	1.508610	-0.200874	0.545057
H271	H	1.758610	0.049126	0.795057
H272	H	2.008610	0.299126	1.045057
C273	C	1.325090	-0.694235	0.228859
C274	C	1.575090	-0.444235	0.478859
C275	C	1.825090	-0.194235	0.728859
C276	C	2.075090	0.055765	0.978859
N277	N	1.367824	-0.671615	0.186156
N278	N	1.617824	-0.421615	0.436156
N279	N	1.867824	-0.171615	0.686156
N280	N	2.117824	0.078385	0.936156
C281	C	1.273704	-1.060086	0.280453
C282	C	1.523704	-0.810086	0.530453
C283	C	1.773704	-0.560086	0.780453
C284	C	2.023704	-0.310086	1.030453
N285	N	1.316466	-1.082704	0.237784
N286	N	1.566466	-0.832704	0.487784
N287	N	1.816466	-0.582704	0.737784
N288	N	2.066466	-0.332704	0.987784
C289	C	1.056712	-0.557789	0.496733
C290	C	1.306712	-0.307789	0.746733
C291	C	1.556712	-0.057789	0.996733
C292	C	1.806712	0.192211	1.246733
N293	N	1.013979	-0.580415	0.539429
N294	N	1.263979	-0.330415	0.789429
N295	N	1.513979	-0.080415	1.039429
N296	N	1.763979	0.169585	1.289429
H297	H	1.258684	-0.549925	0.295082
H298	H	1.508684	-0.299925	0.545082
H299	H	1.758684	-0.049925	0.795082
H300	H	2.008684	0.200075	1.045082
C301	C	1.005224	-0.694301	0.548293
C302	C	1.255224	-0.444301	0.798293
C303	C	1.505224	-0.194301	1.048293
C304	C	1.755224	0.055699	1.298293
N305	N	0.962461	-0.671697	0.590978
N306	N	1.212461	-0.421697	0.840978
N307	N	1.462461	-0.171697	1.090978
N308	N	1.712461	0.078303	1.340978
C309	C	1.056655	-0.443116	0.496709
C310	C	1.306655	-0.193116	0.746709
C311	C	1.556655	0.056884	0.996709
C312	C	1.806655	0.306884	1.246709
N313	N	1.013906	-0.420498	0.539390
N314	N	1.263906	-0.170498	0.789390
N315	N	1.513906	0.079502	1.039390
N316	N	1.763906	0.329502	1.289390
H317	H	1.020014	-0.801148	0.533583
H318	H	1.270014	-0.551148	0.783583
H319	H	1.520014	-0.301148	1.033583
H320	H	1.770014	-0.051148	1.283583
C321	C	1.056985	-1.060124	0.496809
C322	C	1.306985	-0.810124	0.746809
C323	C	1.556985	-0.560124	0.996809
C324	C	1.806985	-0.310124	1.246809
N325	N	1.014243	-1.082747	0.539501
N326	N	1.264243	-0.832747	0.789501
N327	N	1.514243	-0.582747	1.039501
N328	N	1.764243	-0.332747	1.289501
C329	C	1.273643	-0.945417	0.280422
C330	C	1.523643	-0.695417	0.530422
C331	C	1.773643	-0.445417	0.780422
C332	C	2.023643	-0.195417	1.030422
N333	N	1.316386	-0.922794	0.237730
N334	N	1.566386	-0.672794	0.487730
N335	N	1.816386	-0.422794	0.737730
N336	N	2.066386	-0.172794	0.987730
C337	C	1.325161	-0.808881	0.228886
C338	C	1.575161	-0.558881	0.478886
C339	C	1.825161	-0.308881	0.728886
C340	C	2.075161	-0.058881	0.978886
N341	N	1.367921	-0.831479	0.186191
N342	N	1.617921	-0.581479	0.436191
N343	N	1.867921	-0.331479	0.686191
N344	N	2.117921	-0.081479	0.936191
C345	C	1.056940	-0.945474	0.496811
C346	C	1.306940	-0.695474	0.746811
C347	C	1.556940	-0.445474	0.996811
C348	C	1.806940	-0.195474	1.246811
N349	N	1.014183	-0.922872	0.539507
N350	N	1.264183	-0.672872	0.789507
N351	N	1.514183	-0.422872	1.039507
N352	N	1.764183	-0.172872	1.289507
