data_functionalizedCrystal
_audit_creation_method	'MofGen! by Chris Wilmer'
_symmetry_space_group_name_H-M	'P1'
_symmetry_Int_Tables_number	1
_symmetry_cell_setting	triclinic
loop_
_symmetry_equiv_pos_as_xyz
  x,y,z
_cell_length_a	18.215407
_cell_length_b	16.120484
_cell_length_c	16.120256
_cell_angle_alpha	84.383827
_cell_angle_beta	87.121873
_cell_angle_gamma	92.926015
loop_
_atom_site_label
_atom_site_type_symbol
_atom_site_fract_x
_atom_site_fract_y
_atom_site_fract_z
Zn1	Zn	1.087191	-0.356754	0.489461
Zn2	Zn	1.337191	-0.106754	0.739461
Zn3	Zn	1.587191	0.143246	0.989461
Zn4	Zn	1.837191	0.393246	1.239461
Zn5	Zn	1.087099	-0.489439	0.356771
Zn6	Zn	1.337099	-0.239439	0.606771
Zn7	Zn	1.587099	0.010561	0.856771
Zn8	Zn	1.837099	0.260561	1.106771
Zn9	Zn	0.970696	-0.349686	0.349706
Zn10	Zn	1.220696	-0.099686	0.599706
Zn11	Zn	1.470696	0.150314	0.849706
Zn12	Zn	1.720696	0.400314	1.099706
Zn13	Zn	0.957519	-0.496486	0.496494
Zn14	Zn	1.207519	-0.246486	0.746494
Zn15	Zn	1.457519	0.003514	0.996494
Zn16	Zn	1.707519	0.253514	1.246494
O17	O	1.025626	-0.423091	0.423108
O18	O	1.275626	-0.173091	0.673108
O19	O	1.525626	0.076909	0.923108
O20	O	1.775626	0.326909	1.173108
O21	O	1.190162	-0.374363	0.471873
O22	O	1.440162	-0.124363	0.721873
O23	O	1.690162	0.125637	0.971873
O24	O	1.940162	0.375637	1.221873
O25	O	1.077133	-0.464994	0.238871
O26	O	1.327133	-0.214994	0.488871
O27	O	1.577133	0.035006	0.738871
O28	O	1.827133	0.285006	0.988871
O29	O	0.991702	-0.233658	0.362345
O30	O	1.241702	0.016342	0.612345
O31	O	1.491702	0.266342	0.862345
O32	O	1.741702	0.516342	1.112345
O33	O	1.190094	-0.471847	0.374386
O34	O	1.440094	-0.221847	0.624386
O35	O	1.690094	0.028153	0.874386
O36	O	1.940094	0.278153	1.124386
O37	O	1.077291	-0.238851	0.465022
O38	O	1.327291	0.011149	0.715022
O39	O	1.577291	0.261149	0.965022
O40	O	1.827291	0.511149	1.215022
O41	O	0.991613	-0.362318	0.233681
O42	O	1.241613	-0.112318	0.483681
O43	O	1.491613	0.137682	0.733681
O44	O	1.741613	0.387682	0.983681
O45	O	0.865965	-0.369151	0.369164
O46	O	1.115965	-0.119151	0.619164
O47	O	1.365965	0.130849	0.869164
O48	O	1.615965	0.380849	1.119164
O49	O	0.969244	-0.483857	0.612523
O50	O	1.219244	-0.233857	0.862523
O51	O	1.469244	0.016143	1.112523
O52	O	1.719244	0.266143	1.362523
O53	O	0.856284	-0.477004	0.477008
O54	O	1.106284	-0.227004	0.727008
O55	O	1.356284	0.022996	0.977008
O56	O	1.606284	0.272996	1.227008
O57	O	1.064514	-0.381196	0.607357
O58	O	1.314514	-0.131196	0.857357
O59	O	1.564514	0.118804	1.107357
O60	O	1.814514	0.368804	1.357357
O61	O	1.064356	-0.607339	0.381205
O62	O	1.314356	-0.357339	0.631205
O63	O	1.564356	-0.107339	0.881205
O64	O	1.814356	0.142661	1.131205
O65	O	0.969155	-0.612517	0.483859
O66	O	1.219155	-0.362517	0.733859
O67	O	1.469155	-0.112517	0.983859
O68	O	1.719155	0.137483	1.233859
C69	C	0.834422	-0.423076	0.423083
C70	C	1.084422	-0.173076	0.673083
C71	C	1.334422	0.076924	0.923083
C72	C	1.584422	0.326924	1.173083
C73	C	0.752622	-0.423090	0.423093
C74	C	1.002622	-0.173090	0.673093
C75	C	1.252622	0.076910	0.923093
C76	C	1.502622	0.326910	1.173093
C77	C	0.559405	-0.479330	0.479185
C78	C	0.809405	-0.229330	0.729185
C79	C	1.059405	0.020670	0.979185
C80	C	1.309405	0.270670	1.229185
C81	C	0.482546	-0.479333	0.479196
C82	C	0.732546	-0.229333	0.729196
C83	C	0.982546	0.020667	0.979196
C84	C	1.232546	0.270667	1.229196
C85	C	0.492597	-0.366869	0.367050
C86	C	0.742597	-0.116869	0.617050
C87	C	0.992597	0.133131	0.867050
C88	C	1.242597	0.383131	1.117050
C89	C	0.569455	-0.366862	0.367044
C90	C	0.819455	-0.116862	0.617044
C91	C	1.069455	0.133138	0.867044
C92	C	1.319455	0.383138	1.117044
C93	C	0.602857	-0.423098	0.423111
C94	C	0.852857	-0.173098	0.673111
C95	C	1.102857	0.076902	0.923111
C96	C	1.352857	0.326902	1.173111
C97	C	0.449140	-0.423107	0.423127
C98	C	0.699140	-0.173107	0.673127
C99	C	0.949140	0.076893	0.923127
C100	C	1.199140	0.326893	1.173127
C101	C	0.365805	-0.423110	0.423138
C102	C	0.615805	-0.173110	0.673138
C103	C	0.865805	0.076890	0.923138
C104	C	1.115805	0.326890	1.173138
C105	C	0.686197	-0.423094	0.423101
C106	C	0.936197	-0.173094	0.673101
C107	C	1.186197	0.076906	0.923101
C108	C	1.436197	0.326906	1.173101
C109	C	1.015335	-0.640257	0.434080
C110	C	1.265335	-0.390257	0.684080
C111	C	1.515335	-0.140257	0.934080
C112	C	1.765335	0.109743	1.184080
C113	C	1.010998	-0.733162	0.438802
C114	C	1.260998	-0.483162	0.688802
C115	C	1.510998	-0.233162	0.938802
C116	C	1.760998	0.016838	1.188802
C117	C	1.003084	-0.903263	0.447440
C118	C	1.253084	-0.653263	0.697440
C119	C	1.503084	-0.403263	0.947440
C120	C	1.753084	-0.153263	1.197440
C121	C	1.048299	-0.942080	0.398789
C122	C	1.298299	-0.692080	0.648789
C123	C	1.548299	-0.442080	0.898789
C124	C	1.798299	-0.192080	1.148789
C125	C	1.043896	-1.036730	0.403596
C126	C	1.293896	-0.786730	0.653596
C127	C	1.543896	-0.536730	0.903596
C128	C	1.793896	-0.286730	1.153596
C129	C	1.007486	-0.808605	0.442635
C130	C	1.257486	-0.558605	0.692635
C131	C	1.507486	-0.308605	0.942635
C132	C	1.757486	-0.058605	1.192635
C133	C	1.217577	-0.423107	0.423133
C134	C	1.467577	-0.173107	0.673133
C135	C	1.717577	0.076893	0.923133
C136	C	1.967577	0.326893	1.173133
C137	C	1.299375	-0.423114	0.423144
C138	C	1.549375	-0.173114	0.673144
C139	C	1.799375	0.076886	0.923144
C140	C	2.049375	0.326886	1.173144
C141	C	1.015420	-0.434101	0.641115
C142	C	1.265420	-0.184101	0.891115
C143	C	1.515420	0.065899	1.141115
C144	C	1.765420	0.315899	1.391115
C145	C	1.011070	-0.438792	0.734017
C146	C	1.261070	-0.188792	0.984017
C147	C	1.511070	0.061208	1.234017
C148	C	1.761070	0.311208	1.484017
C149	C	1.035977	-0.205079	0.412111
C150	C	1.285977	0.044921	0.662111
C151	C	1.535977	0.294921	0.912111
C152	C	1.785977	0.544921	1.162111
C153	C	1.040388	-0.112175	0.407425
C154	C	1.290388	0.137825	0.657425
C155	C	1.540388	0.387825	0.907425
C156	C	1.790388	0.637825	1.157425
C157	C	1.035838	-0.412064	0.205946
C158	C	1.285838	-0.162064	0.455946
C159	C	1.535838	0.087936	0.705946
C160	C	1.785838	0.337936	0.955946
C161	C	1.040341	-0.407137	0.113033
C162	C	1.290341	-0.157137	0.363033
C163	C	1.540341	0.092863	0.613033
C164	C	1.790341	0.342863	0.863033
C165	C	1.048307	-0.398604	0.942943
C166	C	1.298307	-0.148604	1.192943
C167	C	1.548307	0.101396	1.442943
C168	C	1.798307	0.351396	1.692943
C169	C	1.003106	-0.447323	0.904101
C170	C	1.253106	-0.197323	1.154101
C171	C	1.503106	0.052677	1.404101
C172	C	1.753106	0.302677	1.654101
C173	C	1.007539	-0.442575	0.809457
C174	C	1.257539	-0.192575	1.059457
C175	C	1.507539	0.057425	1.309457
C176	C	1.757539	0.307425	1.559457
C177	C	1.043876	-0.403351	1.037595
C178	C	1.293876	-0.153351	1.287595
C179	C	1.543876	0.096649	1.537595
C180	C	1.793876	0.346649	1.787595
H181	H	0.447170	-0.525122	0.524859
H182	H	0.697170	-0.275122	0.774859
H183	H	0.947170	-0.025122	1.024859
H184	H	1.197170	0.224878	1.274859
H185	H	0.961070	-0.941112	0.492697
H186	H	1.211070	-0.691112	0.742697
H187	H	1.461070	-0.441112	0.992697
H188	H	1.711070	-0.191112	1.242697
Br189	Br	1.118330	-0.878995	0.323349
Br190	Br	1.368330	-0.628995	0.573349
Br191	Br	1.618330	-0.378995	0.823349
Br192	Br	1.868330	-0.128995	1.073349
Br193	Br	0.933059	-0.522788	0.967145
Br194	Br	1.183059	-0.272788	1.217145
Br195	Br	1.433059	-0.022788	1.467145
Br196	Br	1.683059	0.227212	1.717145
Br197	Br	0.447261	-0.290553	0.290963
Br198	Br	0.697261	-0.040553	0.540963
Br199	Br	0.947261	0.209447	0.790963
Br200	Br	1.197261	0.459447	1.040963
Br201	Br	1.118339	-0.323131	0.879898
Br202	Br	1.368339	-0.073131	1.129898
Br203	Br	1.618339	0.176869	1.379898
Br204	Br	1.868339	0.426869	1.629898
H205	H	0.604835	-0.321066	0.321381
H206	H	0.854835	-0.071066	0.571381
H207	H	1.104835	0.178934	0.821381
H208	H	1.354835	0.428934	1.071381
H209	H	0.586598	-0.525118	0.524840
H210	H	0.836598	-0.275118	0.774840
H211	H	1.086598	-0.025118	1.024840
H212	H	1.336598	0.224882	1.274840
