data_functionalizedCrystal
_audit_creation_method	'MofGen! by Chris Wilmer'
_symmetry_space_group_name_H-M	'P1'
_symmetry_Int_Tables_number	1
_symmetry_cell_setting	triclinic
loop_
_symmetry_equiv_pos_as_xyz
  x,y,z
_cell_length_a	14.395555
_cell_length_b	20.875641
_cell_length_c	20.875641
_cell_angle_alpha	60.089808
_cell_angle_beta	90.003252
_cell_angle_gamma	62.439513
loop_
_atom_site_label
_atom_site_type_symbol
_atom_site_fract_x
_atom_site_fract_y
_atom_site_fract_z
Zr1	Zr	0.937435	0.694320	-0.105736
O2	O	0.801299	0.820564	-0.209006
O3	O	0.974074	0.563064	-0.070804
O4	O	0.987755	0.687087	-0.204275
O5	O	0.782621	0.703995	0.026025
O6	O	1.140629	0.687083	-0.204270
O7	O	0.787619	0.696542	-0.075534
O8	O	1.116156	0.465228	0.034487
O9	O	0.807093	0.925849	-0.212731
O10	O	1.109942	0.618905	-0.059858
O11	O	0.992125	0.624470	0.015930
O12	O	1.008232	0.770491	-0.141216
O13	O	0.890415	0.776057	-0.065427
Zr14	Zr	1.173281	0.706201	0.056247
Zr15	Zr	1.181251	0.694313	-0.105728
Zr16	Zr	0.929465	0.706208	0.056238
Zr17	Zr	0.946676	0.862238	-0.111679
Zr18	Zr	1.164040	0.538284	0.062190
O19	O	1.136641	0.837457	0.021314
O20	O	1.147974	0.820555	-0.208993
O21	O	0.789967	0.837467	0.021302
O22	O	1.309416	0.579957	0.159516
O23	O	1.320749	0.563054	-0.070791
O24	O	0.962742	0.579967	0.159504
O25	O	1.328094	0.696526	-0.075514
O26	O	1.122961	0.713434	0.154786
O27	O	0.970087	0.713439	0.154781
O28	O	1.323097	0.703980	0.026045
O29	O	1.000894	0.925844	-0.212724
O30	O	1.109821	0.474677	0.163235
O31	O	1.303622	0.474672	0.163242
O32	O	1.309957	0.465223	0.034494
O33	O	0.800758	0.935298	-0.083983
O34	O	0.994559	0.935293	-0.083976
O35	O	1.102483	0.630030	0.091727
O36	O	1.220301	0.624464	0.015938
O37	O	1.118591	0.776051	-0.065419
O38	O	1.000773	0.781616	0.010369
C39	C	1.043799	0.490222	-0.017312
C40	C	1.039876	0.418936	-0.014789
C41	C	1.099529	0.382541	-0.053165
C42	C	1.095845	0.315557	-0.050787
C43	C	1.032502	0.284973	-0.010038
C44	C	0.972846	0.321371	0.028342
C45	C	0.976537	0.388350	0.025969
C46	C	1.014875	0.084962	0.001307
C47	C	1.011187	0.017980	0.003676
C48	C	1.134188	0.012169	-0.075453
C49	C	1.137867	0.079153	-0.077827
C50	C	1.078217	0.115542	-0.039443
N51	N	1.028732	0.216506	-0.007609
N52	N	1.081993	0.184004	-0.041868
C53	C	0.750382	0.700269	-0.024756
C54	C	0.646875	0.700272	-0.024759
C55	C	0.530829	0.782925	-0.069113
C56	C	0.499110	0.737893	-0.097543
C57	C	0.494172	0.745300	0.003665
C58	C	0.616522	0.655237	-0.053231
C59	C	0.611578	0.662660	0.048016
C60	C	0.579928	0.617566	0.019606
C61	C	1.360334	0.700252	-0.024733
C62	C	1.463840	0.700249	-0.024730
C63	C	1.065327	0.685391	-0.227350
C64	C	1.068711	0.680344	-0.296113
C65	C	1.066917	0.910300	-0.032177
C66	C	1.070840	0.981585	-0.034700
C67	C	1.017211	0.757098	-0.370885
C68	C	1.020404	0.752351	-0.435492
C69	C	1.075092	0.670850	-0.425325
C70	C	1.126599	0.594090	-0.350545
C71	C	1.123411	0.598838	-0.285940
C72	C	1.090324	0.648165	-0.613991
C73	C	1.093505	0.643423	-0.678604
C74	C	0.987312	0.801685	-0.763547
C75	C	0.984123	0.806425	-0.698936
C76	C	1.035635	0.729666	-0.624162
N77	N	1.078355	0.665995	-0.491363
N78	N	1.032379	0.734521	-0.558126
C79	C	1.045388	0.715130	0.177861
C80	C	1.042005	0.720177	0.246624
C81	C	1.348775	0.490213	-0.017301
C82	C	1.448358	0.418925	-0.014774
C83	C	1.033829	0.505091	0.185294
C84	C	1.026523	0.438852	0.256579
C85	C	1.338806	0.505082	0.185305
C86	C	1.435005	0.438841	0.256594
C87	C	0.771910	0.895439	-0.234794
C88	C	0.675710	0.961681	-0.306083
C89	C	0.761941	0.910308	-0.032188
C90	C	0.662357	0.981597	-0.034715
C91	C	1.076886	0.895430	-0.234783
C92	C	1.084193	0.961669	-0.306068
C93	C	1.437518	0.382544	-0.053160
C94	C	1.531079	0.315570	-0.050801
C95	C	1.635478	0.284972	-0.010053
C96	C	1.646317	0.321359	0.028334
C97	C	1.552757	0.388337	0.025970
C98	C	1.080697	0.410648	0.329627
C99	C	1.073828	0.348420	0.396613
C100	C	1.012790	0.314392	0.390549
C101	C	0.958609	0.342602	0.317494
C102	C	0.965472	0.404834	0.250509
C103	C	1.541691	0.404828	0.250512
C104	C	1.632091	0.342595	0.317489
C105	C	1.615802	0.314373	0.390548
C106	C	1.509105	0.348392	0.396628
C107	C	1.418708	0.410628	0.329652
C108	C	0.569025	0.995702	-0.300001
C109	C	0.478626	1.057955	-0.366979
C110	C	0.494915	1.086181	-0.440038
C111	C	0.601612	1.052157	-0.446119
C112	C	0.692009	0.989910	-0.379142
C113	C	0.673198	1.017983	0.003664
C114	C	0.579639	1.084975	0.001287
C115	C	0.475240	1.115575	-0.039464
C116	C	0.464401	1.079185	-0.077847
C117	C	0.557960	1.012199	-0.075475
C118	C	1.145240	0.995677	-0.299980
C119	C	1.152127	1.057907	-0.366953
C120	C	1.097959	1.086132	-0.440015
C121	C	1.036910	1.052117	-0.446102
C122	C	1.030030	0.989884	-0.379129
H123	H	1.144421	0.285923	-0.082035
H124	H	1.151105	0.407441	-0.086351
C125	C	0.963749	0.836781	-0.517740
H126	H	0.930711	0.885999	-0.514542
H127	H	1.016660	0.838223	-0.544707
H128	H	0.908902	0.838215	-0.544709
C129	C	1.761158	0.287688	0.073161
H130	H	1.815317	0.242581	0.069074
H131	H	1.773320	0.334326	0.051935
H132	H	1.765694	0.265363	0.126142
H133	H	0.939594	0.872793	-0.707224
H134	H	1.718960	0.314902	0.312524
H135	H	1.689419	0.263696	0.445078
C136	C	1.564694	0.428338	0.068208
H137	H	1.640272	0.400511	0.092819
H138	H	1.534397	0.489070	0.031834
H139	H	1.526796	0.420092	0.106044
H140	H	1.331842	0.438314	0.334616
C141	C	1.491201	0.317333	0.476996
H142	H	1.560324	0.275389	0.516008
H143	H	1.453160	0.365822	0.480977
H144	H	1.449089	0.291605	0.483590
C145	C	1.186736	0.504438	-0.339356
H146	H	1.216954	0.459406	-0.285569
H147	H	1.136295	0.499308	-0.362797
H148	H	1.244074	0.499284	-0.362788
H149	H	0.614862	1.075147	-0.505611
H150	H	0.778875	0.962209	-0.384103
C151	C	1.738383	0.211290	-0.007451
H152	H	1.716964	0.194004	-0.036143
H153	H	1.784640	0.231677	-0.029407
H154	H	1.777018	0.162721	0.044809
C155	C	1.105526	1.154594	-0.513678
H156	H	1.149634	1.170809	-0.499581
H157	H	1.137641	1.130505	-0.542135
H158	H	1.033962	1.204720	-0.544756
H159	H	1.522232	0.285951	-0.082060
H160	H	1.165348	0.536337	-0.225056
H161	H	1.554975	0.427797	0.191029
C162	C	1.147826	0.448080	0.336312
H163	H	1.179087	0.422372	0.389415
H164	H	1.204744	0.435375	0.313150
H165	H	1.101043	0.509591	0.310510
C166	C	0.551086	0.964674	-0.219645
H167	H	0.474597	0.993868	-0.225627
H168	H	0.581737	0.903409	-0.190550
H169	H	0.585839	0.977628	-0.193190
C170	C	0.687589	0.603840	-0.085792
H171	H	0.753348	0.604188	-0.085629
H172	H	0.705215	0.545271	-0.054509
H173	H	0.648049	0.630369	-0.137338
C174	C	1.133441	0.317392	0.476964
H175	H	1.170790	0.346562	0.470976
H176	H	1.081333	0.330347	0.503429
H177	H	1.185000	0.256121	0.506054
C178	C	0.891486	0.305156	0.310834
H179	H	0.895177	0.264046	0.361193
H180	H	0.817098	0.351257	0.282286
H181	H	0.920798	0.277040	0.284925
H182	H	1.007210	0.263719	0.445099
C183	C	1.207546	0.112790	-0.122650
H184	H	1.242553	0.081516	-0.145161
H185	H	1.161464	0.173279	-0.162328
H186	H	1.261625	0.104312	-0.088108
C187	C	1.199810	-0.027869	-0.117661
H188	H	1.188551	-0.072145	-0.110407
H189	H	1.175616	0.016391	-0.171415
H190	H	1.275764	-0.052572	-0.097187
H191	H	0.921360	0.427789	0.191033
H192	H	0.391757	1.085647	-0.362012
H193	H	0.421299	1.136867	-0.494568
C194	C	0.788025	0.984335	0.048493
H195	H	0.781067	1.015613	0.071000
H196	H	0.823117	0.923847	0.088175
H197	H	0.830726	0.992807	0.013954
C198	C	0.977321	1.083178	-0.526472
H199	H	0.990157	1.125120	-0.565481
H200	H	1.004347	1.034689	-0.530453
H201	H	0.900682	1.108909	-0.533070
H202	H	0.588486	1.114593	0.032546
H203	H	0.399068	1.170120	-0.041390
C204	C	0.349559	1.112846	-0.122664
H205	H	0.295399	1.157943	-0.118567
H206	H	0.345005	1.135160	-0.175642
H207	H	0.337413	1.066195	-0.101414
H208	H	0.549117	0.982575	-0.106725
C209	C	1.204835	0.964638	-0.219621
H210	H	1.242184	0.993805	-0.225597
H211	H	1.152721	0.977590	-0.193159
H212	H	1.256391	0.903367	-0.190535
H213	H	0.980315	0.962201	-0.384097
C214	C	0.941509	-0.015665	0.048502
H215	H	0.947846	-0.060760	0.044409
H216	H	0.966921	-0.037981	0.101479
H217	H	0.866763	0.030992	0.027257
C218	C	0.949251	0.124990	0.043519
H219	H	0.910988	0.097188	0.068118
H220	H	0.998203	0.116759	0.081349
H221	H	0.898052	0.185724	0.007123
H222	H	0.599875	0.547618	0.057120
C223	C	1.219271	1.095322	-0.360248
H224	H	1.215628	1.136422	-0.410594
H225	H	1.189967	1.123424	-0.334331
H226	H	1.293655	1.049197	-0.331689
C227	C	0.910914	0.428388	0.068178
H228	H	0.872651	0.400588	0.092781
H229	H	0.959871	0.420157	0.106006
H230	H	0.859715	0.489123	0.031783
C231	C	0.903209	0.287706	0.073197
H232	H	0.868230	0.318963	0.095727
H233	H	0.849126	0.296162	0.038682
H234	H	0.949329	0.227215	0.112875
H235	H	0.450550	0.769684	-0.159075
C236	C	0.504193	0.877326	-0.119851
H237	H	0.465127	0.903915	-0.171544
H238	H	0.460436	0.909591	-0.100180
H239	H	0.570596	0.876705	-0.119145
C240	C	0.677191	0.619761	0.131115
H241	H	0.634496	0.651856	0.151231
H242	H	0.694277	0.561371	0.162837
H243	H	0.743277	0.619613	0.130540
H244	H	0.441414	0.783388	0.027692
H245	H	0.972670	0.823466	-0.379173
H246	H	0.945375	0.864178	-0.824433
H247	H	1.352520	0.407455	-0.086351
H248	H	1.132269	0.585662	-0.553114
C249	C	1.153666	0.553769	-0.667421
H250	H	1.148173	0.561939	-0.716608
H251	H	1.228840	0.522033	-0.639383
H252	H	1.121076	0.522034	-0.639383
