data_functionalizedCrystal
_audit_creation_method	'MofGen! by Chris Wilmer'
_symmetry_space_group_name_H-M	'P1'
_symmetry_Int_Tables_number	1
_symmetry_cell_setting	triclinic
loop_
_symmetry_equiv_pos_as_xyz
  x,y,z
_cell_length_a	10.540558
_cell_length_b	22.010155
_cell_length_c	10.540539
_cell_angle_alpha	89.993560
_cell_angle_beta	95.470686
_cell_angle_gamma	89.992759
loop_
_atom_site_label
_atom_site_type_symbol
_atom_site_fract_x
_atom_site_fract_y
_atom_site_fract_z
O1	O	-1.685883	0.050504	0.178996
O2	O	-1.316473	0.050509	0.195827
O3	O	-1.509606	0.050506	0.002706
O4	O	-1.492750	0.050507	0.372117
O5	O	-1.509570	-0.050545	0.002734
O6	O	-1.316437	-0.050541	0.195856
O7	O	-1.685848	-0.050546	0.179025
Cu8	Cu	-1.501139	-0.059771	0.187443
Cu9	Cu	-1.501181	0.059733	0.187409
O10	O	-1.492715	-0.050543	0.372146
C11	C	-1.269152	-0.000016	0.194574
C12	C	-1.128206	-0.000014	0.190783
N13	N	-1.501119	-0.143823	0.187466
C14	C	-0.944780	-0.000251	0.045854
C15	C	-1.091397	-0.000017	0.049697
C16	C	-1.066554	0.057689	0.258657
C17	C	-0.920010	0.057730	0.253833
C18	C	-0.919482	-0.057183	0.256736
C19	C	-1.066462	-0.057939	0.258045
C20	C	-1.586705	-0.563604	0.101907
C21	C	-1.586711	-0.627212	0.101898
O22	O	-1.659428	-0.660104	0.029168
N23	N	-1.501180	-0.659030	0.187382
C24	C	-1.415629	-0.627238	0.272872
O25	O	-1.342877	-0.660143	0.345581
C26	C	-1.415618	-0.563631	0.272873
C27	C	-1.501163	-0.531816	0.187392
C28	C	-1.672243	-0.531788	0.016432
C29	C	-1.672238	-0.468185	0.016443
C30	C	-1.586696	-0.436397	0.101928
C31	C	-1.501159	-0.468213	0.187403
C32	C	-1.330061	-0.531840	0.358356
C33	C	-1.330057	-0.468230	0.358349
C34	C	-1.415603	-0.436414	0.272868
C35	C	-1.415612	-0.372822	0.272899
N36	N	-1.501143	-0.341003	0.187415
C37	C	-1.586685	-0.372791	0.101930
C38	C	-1.415657	-0.760816	0.272861
C39	C	-1.415673	-0.824421	0.272866
C40	C	-1.586754	-0.824390	0.101891
C41	C	-1.586743	-0.760784	0.101892
C42	C	-1.501188	-0.728997	0.187377
C43	C	-1.586670	-0.239220	0.101959
C44	C	-1.586661	-0.175611	0.101981
C45	C	-1.415576	-0.175647	0.272951
C46	C	-1.415589	-0.239250	0.272935
C47	C	-1.501140	-0.271035	0.187428
O48	O	-1.342928	-0.339889	0.345588
O49	O	-1.659413	-0.339878	0.029221
C50	C	-0.733170	-0.000022	0.180261
C51	C	-0.874123	-0.000025	0.184002
C52	C	-1.508324	-0.000018	-0.044583
C53	C	-1.504542	-0.000015	-0.185531
N54	N	-1.501211	0.143786	0.187376
C55	C	-1.359626	0.000214	-0.368968
C56	C	-1.363460	-0.000014	-0.222350
C57	C	-1.572417	-0.057721	-0.247168
C58	C	-1.567602	-0.057769	-0.393713
C59	C	-1.570511	0.057144	-0.394264
C60	C	-1.571811	0.057907	-0.247282
C61	C	-1.493996	-0.000018	0.419435
C62	C	-1.497778	-0.000017	0.560383
H63	H	-0.916181	-0.041634	-0.009872
N64	N	-1.242665	-0.435752	0.445660
N65	N	-1.163506	-0.400262	0.404620
H66	H	-1.101788	-0.377324	0.466283
N67	N	-1.759604	-0.564256	-0.070918
N68	N	-1.718625	-0.599739	-0.150127
H69	H	-1.780328	-0.622664	-0.211828
H70	H	-1.107409	-0.100627	0.208460
H71	H	-1.524865	0.100881	-0.425832
H72	H	-1.345942	-0.265155	0.342553
N73	N	-1.513254	-0.111599	-0.193736
N74	N	-1.576945	-0.148938	-0.136848
H75	H	-1.535156	-0.186989	-0.099114
H76	H	-0.887921	-0.100922	0.211088
N77	N	-1.094595	0.060403	0.388631
N78	N	-1.053206	0.103440	0.458051
H79	H	-1.073012	0.105358	0.549845
N80	N	-1.759703	-0.435726	-0.070856
N81	N	-1.757001	-0.442834	-0.188221
H82	H	-1.818809	-0.419923	-0.249867
H83	H	-0.872042	0.060349	0.355294
H84	H	-1.656401	-0.734883	0.032286
H85	H	-0.872255	-0.057573	0.358636
H86	H	-1.656405	-0.850283	0.032282
N87	N	-1.295955	-0.051987	-0.169926
N88	N	-1.201211	-0.045226	-0.090408
H89	H	-1.153533	-0.081934	-0.053383
N90	N	-1.700860	0.062285	-0.216926
N91	N	-1.768947	0.105785	-0.258353
H92	H	-1.860095	0.108874	-0.236920
H93	H	-0.914588	0.040899	-0.009660
N94	N	-1.509580	0.111458	-0.195946
N95	N	-1.416035	0.107029	-0.114182
H96	H	-1.372080	0.144848	-0.077918
N97	N	-1.296448	0.051869	-0.168890
N98	N	-1.287814	0.060575	-0.051199
H99	H	-1.240481	0.097218	-0.013445
N100	N	-1.504635	-0.111883	-0.429067
N101	N	-1.464542	-0.149349	-0.345548
H102	H	-1.420068	-0.187568	-0.370509
N103	N	-1.328300	-0.856906	0.360210
N104	N	-1.251938	-0.828509	0.436530
H105	H	-1.190224	-0.851449	0.498217
H106	H	-1.672415	0.057531	-0.441483
H107	H	-1.090687	-0.061422	0.360907
H108	H	-1.345990	-0.734938	0.342483
H109	H	-1.345932	-0.149756	0.342556
H110	H	-1.669066	-0.060389	-0.441674
H111	H	-0.891815	0.100863	0.203638
N112	N	-1.289743	0.052132	-0.404862
N113	N	-1.340934	0.089570	-0.482935
H114	H	-1.291581	0.126241	-0.508291
N115	N	-1.290004	-0.051424	-0.406807
N116	N	-1.247580	-0.089437	-0.325425
H117	H	-1.198421	-0.125911	-0.352144
H118	H	-1.676023	-0.059868	-0.224806
H119	H	-1.133996	-0.041380	-0.003711
N120	N	-1.120040	0.111558	0.199504
N121	N	-1.203545	0.107603	0.107372
H122	H	-1.241334	0.145646	0.065599
H123	H	-1.133157	0.041419	-0.004111
H124	H	-1.656332	-0.265092	0.032330
N125	N	-1.674044	-0.143123	0.014639
N126	N	-1.750399	-0.171517	-0.061692
H127	H	-1.812105	-0.148575	-0.123384
H128	H	-1.260402	-0.557736	0.427961
