data_functionalizedCrystal
_audit_creation_method	'MofGen! by Chris Wilmer'
_symmetry_space_group_name_H-M	'P1'
_symmetry_Int_Tables_number	1
_symmetry_cell_setting	triclinic
loop_
_symmetry_equiv_pos_as_xyz
  x,y,z
_cell_length_a	17.640112
_cell_length_b	16.625546
_cell_length_c	17.639477
_cell_angle_alpha	101.244476
_cell_angle_beta	65.723826
_cell_angle_gamma	101.247770
loop_
_atom_site_label
_atom_site_type_symbol
_atom_site_fract_x
_atom_site_fract_y
_atom_site_fract_z
Zn1	Zn	1.165546	-0.036717	0.211672
Zn2	Zn	1.665546	0.463283	0.711672
Zn3	Zn	1.193305	-0.194251	0.073883
Zn4	Zn	1.693305	0.305749	0.573883
Zn5	Zn	1.055603	-0.082127	0.101695
Zn6	Zn	1.555603	0.417873	0.601695
Zn7	Zn	1.027728	-0.194235	0.239444
Zn8	Zn	1.527728	0.305765	0.739444
O9	O	1.110545	-0.126833	0.156674
O10	O	1.610545	0.373167	0.656674
O11	O	1.284535	-0.038617	0.170132
O12	O	1.784535	0.461383	0.670132
O13	O	1.198322	-0.198388	-0.037741
O14	O	1.698322	0.301612	0.462259
O15	O	1.070235	0.036742	0.116302
O16	O	1.570235	0.536742	0.616302
O17	O	1.304929	-0.154356	0.068899
O18	O	1.804929	0.345644	0.568899
O19	O	1.151010	0.070105	0.197101
O20	O	1.651010	0.570105	0.697101
O21	O	1.097152	-0.116012	-0.017308
O22	O	1.597152	0.383988	0.482692
O23	O	0.936599	-0.115996	0.143230
O24	O	1.436599	0.384004	0.643230
O25	O	1.022727	-0.154329	0.351073
O26	O	1.522727	0.345671	0.851073
O27	O	0.916119	-0.198362	0.244433
O28	O	1.416119	0.301638	0.744433
O29	O	1.123981	-0.038602	0.330670
O30	O	1.623981	0.461398	0.830670
O31	O	1.171293	-0.307095	0.095827
O32	O	1.671293	0.192905	0.595827
O33	O	1.049644	-0.307083	0.217464
O34	O	1.549644	0.192917	0.717464
C35	C	0.896461	-0.162105	0.199864
C36	C	1.396461	0.337895	0.699864
C37	C	0.804871	-0.177211	0.218360
C38	C	1.304871	0.322789	0.718360
C39	C	0.556759	-0.012059	0.016165
C40	C	1.056759	0.487941	0.516165
C41	C	0.470694	-0.026267	0.033556
C42	C	0.970694	0.473733	0.533556
C43	C	0.449460	-0.112206	0.138757
C44	C	0.949460	0.387794	0.638757
C45	C	0.535524	-0.098001	0.121378
C46	C	1.035524	0.401999	0.621378
C47	C	0.589168	-0.047928	0.060080
C48	C	1.089168	0.452072	0.560080
C49	C	0.567933	-0.133870	0.165292
C50	C	1.067933	0.366130	0.665292
C51	C	0.653991	-0.119670	0.147911
C52	C	1.153991	0.380330	0.647911
C53	C	0.707640	-0.069600	0.086614
C54	C	1.207640	0.430400	0.586614
C55	C	0.675225	-0.033727	0.042698
C56	C	1.175225	0.466273	0.542698
C57	C	0.514289	-0.183949	0.226586
C58	C	1.014289	0.316051	0.726586
C59	C	0.546697	-0.219818	0.270501
C60	C	1.046697	0.280182	0.770501
C61	C	0.632756	-0.205613	0.253123
C62	C	1.132756	0.294387	0.753123
C63	C	0.686405	-0.155543	0.191827
C64	C	1.186405	0.344457	0.691827
C65	C	0.665170	-0.241486	0.297040
C66	C	1.165170	0.258514	0.797040
C67	C	0.751228	-0.227285	0.279658
C68	C	1.251228	0.272715	0.779658
C69	C	0.772462	-0.141343	0.174445
C70	C	1.272462	0.358657	0.674445
C71	C	1.110474	-0.336342	0.156655
C72	C	1.610474	0.163658	0.656655
C73	C	1.110514	-0.425954	0.156659
C74	C	1.610514	0.074046	0.656659
C75	C	1.110640	-0.754092	0.156716
C76	C	1.610640	-0.254092	0.656716
C77	C	1.110602	-0.662794	0.156703
C78	C	1.610602	-0.162794	0.656703
C79	C	1.110577	-0.590026	0.156687
C80	C	1.610577	-0.090026	0.656687
C81	C	1.110539	-0.498722	0.156675
C82	C	1.610539	0.001278	0.656675
C83	C	1.325466	-0.091423	0.113315
C84	C	1.825466	0.408577	0.613315
C85	C	1.417052	-0.076333	0.094839
C86	C	1.917052	0.423667	0.594839
C87	C	1.067148	-0.091398	0.371607
C88	C	1.567148	0.408602	0.871607
C89	C	1.048655	-0.076298	0.463199
C90	C	1.548655	0.423702	0.963199
C91	C	1.110636	0.083502	0.156706
C92	C	1.610636	0.583502	0.656706
C93	C	1.110674	0.173133	0.156720
C94	C	1.610674	0.673133	0.656720
C95	C	1.153821	-0.162063	-0.057433
C96	C	1.653821	0.337937	0.442567
C97	C	1.172474	-0.176910	-0.149057
C98	C	1.672474	0.323090	0.350943
C99	C	1.251213	-0.241082	0.711213
C100	C	1.751213	0.258918	1.211213
C101	C	1.233825	-0.226886	0.797280
C102	C	1.733825	0.273114	1.297280
C103	C	1.128484	-0.141113	0.818555
C104	C	1.628484	0.358887	1.318555
C105	C	1.145860	-0.155305	0.732489
C106	C	1.645860	0.344695	1.232489
C107	C	1.207226	-0.205290	0.678824
C108	C	1.707226	0.294710	1.178824
C109	C	1.101873	-0.119512	0.700100
C110	C	1.601873	0.380488	1.200100
C111	C	1.119251	-0.133700	0.614041
C112	C	1.619251	0.366300	1.114041
C113	C	1.180616	-0.183680	0.560371
C114	C	1.680616	0.316320	1.060371
C115	C	1.224604	-0.219477	0.592765
C116	C	1.724604	0.280523	1.092765
C117	C	1.040512	-0.069523	0.753766
C118	C	1.540512	0.430477	1.253766
C119	C	0.996525	-0.033731	0.721377
C120	C	1.496525	0.466269	1.221377
C121	C	1.013899	-0.047923	0.635317
C122	C	1.513899	0.452077	1.135317
C123	C	1.075264	-0.097903	0.581647
C124	C	1.575264	0.402097	1.081647
C125	C	0.969911	-0.012126	0.602923
C126	C	1.469911	0.487874	1.102923
C127	C	0.987289	-0.026314	0.516864
C128	C	1.487289	0.473686	1.016864
C129	C	1.092642	-0.112091	0.495588
C130	C	1.592642	0.387909	0.995588
H131	H	0.405773	-0.152979	0.188663
H132	H	0.905773	0.347021	0.688663
Cl133	Cl	1.051343	-0.078276	0.886026
Cl134	Cl	1.551343	0.421724	1.386026
H135	H	1.274582	-0.260171	0.549066
H136	H	1.774582	0.239829	1.049066
Cl137	Cl	0.815829	-0.051752	0.064757
Cl138	Cl	1.315829	0.448248	0.564757
H139	H	0.503010	-0.260590	0.320407
H140	H	1.003010	0.239410	0.820407
Cl141	Cl	0.429957	0.018824	-0.021664
Cl142	Cl	0.929957	0.518824	0.478336
H143	H	0.444216	-0.195509	0.240735
H144	H	0.944216	0.304491	0.740735
Cl145	Cl	0.919384	0.029107	0.788848
Cl146	Cl	1.419384	0.529107	1.288848
H147	H	0.777614	-0.256492	0.315419
H148	H	1.277614	0.243508	0.815419
Cl149	Cl	0.892778	0.050719	0.670395
Cl150	Cl	1.392778	0.550719	1.170395
Cl151	Cl	0.597727	-0.304451	0.374080
Cl152	Cl	1.097727	0.195549	0.874080
Cl153	Cl	1.018670	-0.051682	0.861955
Cl154	Cl	1.518670	0.448318	1.361955
H155	H	1.301190	-0.281776	0.667514
H156	H	1.801190	0.218224	1.167514
H157	H	0.600437	0.028731	-0.033738
H158	H	1.100437	0.528731	0.466262
Cl159	Cl	1.169778	-0.174942	0.428119
Cl160	Cl	1.669778	0.325058	0.928119
Cl161	Cl	0.742668	0.029230	-0.034358
Cl162	Cl	1.242668	0.529230	0.465642
Cl163	Cl	1.202468	-0.201514	0.452180
Cl164	Cl	1.702468	0.298486	0.952180
Cl165	Cl	1.289137	-0.271881	0.837992
Cl166	Cl	1.789137	0.228119	1.337992
H167	H	0.951473	0.002835	0.490493
H168	H	1.451473	0.502835	0.990493
H169	H	0.816140	-0.100553	0.124543
H170	H	1.316140	0.399447	0.624543
