data_functionalizedCrystal
_audit_creation_method	'MofGen! by Chris Wilmer'
_symmetry_space_group_name_H-M	'P1'
_symmetry_Int_Tables_number	1
_symmetry_cell_setting	triclinic
loop_
_symmetry_equiv_pos_as_xyz
  x,y,z
_cell_length_a	11.792241
_cell_length_b	15.624803
_cell_length_c	14.185569
_cell_angle_alpha	85.691254
_cell_angle_beta	103.241863
_cell_angle_gamma	95.787447
loop_
_atom_site_label
_atom_site_type_symbol
_atom_site_fract_x
_atom_site_fract_y
_atom_site_fract_z
O1	O	-0.294955	1.080888	-0.476683
O2	O	0.205045	1.580888	0.023317
O3	O	-0.285607	0.839846	-0.388981
O4	O	0.214393	1.339846	0.111019
O5	O	-0.125728	0.966215	-0.434965
O6	O	0.374272	1.466215	0.065035
O7	O	-0.454834	0.954519	-0.430698
O8	O	0.045166	1.454519	0.069302
O9	O	-0.078504	1.003546	-0.281715
O10	O	0.421496	1.503546	0.218285
O11	O	-0.238383	0.877177	-0.235730
O12	O	0.261617	1.377177	0.264270
O13	O	-0.247731	1.118219	-0.323432
O14	O	0.252269	1.618219	0.176568
Cu15	Cu	-0.238745	1.001106	-0.265588
Cu16	Cu	0.261255	1.501106	0.234412
Cu17	Cu	-0.294593	0.956959	-0.446825
Cu18	Cu	0.205407	1.456959	0.053175
O19	O	-0.407610	0.991850	-0.277448
O20	O	0.092390	1.491850	0.222552
C21	C	-0.257738	0.827653	-0.301128
C22	C	0.242262	1.327653	0.198872
C23	C	-0.245042	0.735703	-0.267673
C24	C	0.254958	1.235703	0.232327
C25	C	-0.331960	0.331619	-0.575421
C26	C	0.168040	0.831619	-0.075421
C27	C	-0.320008	0.245221	-0.543984
C28	C	0.179992	0.745221	-0.043984
C29	C	-0.268523	0.285896	-0.376909
C30	C	0.231477	0.785896	0.123091
C31	C	-0.280466	0.372300	-0.408332
C32	C	0.219534	0.872300	0.091668
C33	C	-0.312186	0.395154	-0.507589
C34	C	0.187814	0.895154	-0.007589
C35	C	-0.260692	0.435835	-0.340500
C36	C	0.239308	0.935835	0.159500
C37	C	-0.272640	0.522231	-0.371921
C38	C	0.227360	1.022231	0.128079
C39	C	-0.304362	0.545092	-0.471173
C40	C	0.195638	1.045092	0.028827
C41	C	-0.324134	0.481550	-0.539009
C42	C	0.175866	0.981550	-0.039009
C43	C	-0.228980	0.412979	-0.241243
C44	C	0.271020	0.912979	0.258757
C45	C	-0.209206	0.476514	-0.173412
C46	C	0.290794	0.976514	0.326588
C47	C	-0.221146	0.562912	-0.204832
C48	C	0.278854	1.062912	0.295168
C49	C	-0.252868	0.585773	-0.304085
C50	C	0.247132	1.085773	0.195915
C51	C	-0.201374	0.626454	-0.136996
C52	C	0.298626	1.126454	0.363004
C53	C	-0.213322	0.712849	-0.168416
C54	C	0.286678	1.212849	0.331584
C55	C	-0.264816	0.672168	-0.335505
C56	C	0.235184	1.172168	0.164495
C57	C	-0.473590	0.973920	-0.354339
C58	C	0.026410	1.473920	0.145661
C59	C	-0.599834	0.976120	-0.355135
C60	C	-0.099834	1.476120	0.144865
C61	C	-0.830979	0.980159	-0.356630
C62	C	-0.330979	1.480159	0.143370
C63	C	-0.702353	0.977915	-0.355799
C64	C	-0.202353	1.477915	0.144201
C65	C	-0.059749	0.984145	-0.358076
C66	C	0.440251	1.484145	0.141924
C67	C	0.066494	0.981943	-0.357286
C68	C	0.566494	1.481943	0.142714
C69	C	-0.275600	1.130412	-0.411287
C70	C	0.224400	1.630412	0.088713
C71	C	-0.288298	1.222360	-0.444748
C72	C	0.211702	1.722360	0.055252
N73	N	-0.199464	1.032164	-0.138119
N74	N	0.300536	1.532164	0.361881
N75	N	-0.333865	0.925908	-0.574297
N76	N	0.166135	1.425908	-0.074297
C77	C	-0.449221	0.834662	0.301400
C78	C	0.050779	1.334662	0.801400
C79	C	-0.419475	0.858193	0.397859
C80	C	0.080525	1.358193	0.897859
C81	C	-0.277962	0.970116	0.357092
C82	C	0.222038	1.470116	0.857092
C83	C	-0.307693	0.946591	0.260629
C84	C	0.192307	1.446591	0.760629
C85	C	-0.393324	0.878864	0.232791
C86	C	0.106676	1.378864	0.732791
C87	C	-0.251795	0.990794	0.192020
C88	C	0.248205	1.490794	0.692020
C89	C	-0.281528	0.967274	0.095564
C90	C	0.218472	1.467274	0.595564
C91	C	-0.367158	0.899551	0.067717
C92	C	0.132842	1.399551	0.567717
C93	C	-0.423056	0.855344	0.136335
C94	C	0.076944	1.355344	0.636335
C95	C	-0.166170	1.058525	0.219858
C96	C	0.333830	1.558525	0.719858
C97	C	-0.110273	1.102727	0.151249
C98	C	0.389727	1.602727	0.651249
C99	C	-0.139999	1.079204	0.054793
C100	C	0.360001	1.579204	0.554793
C101	C	-0.225629	1.011481	0.026946
C102	C	0.274371	1.511481	0.526946
C103	C	-0.084101	1.123411	-0.013825
C104	C	0.415899	1.623411	0.486175
C105	C	-0.113833	1.099891	-0.110281
C106	C	0.386167	1.599891	0.389719
C107	C	-0.255362	0.987961	-0.069510
C108	C	0.244638	1.487961	0.430490
H109	H	-0.197226	0.764581	-0.113181
H110	H	0.302774	1.264581	0.386819
Br111	Br	-0.212775	0.295725	-0.198600
Br112	Br	0.287225	0.795725	0.301400
Br113	Br	-0.565421	0.742733	0.263620
Br114	Br	-0.065421	1.242733	0.763620
Br115	Br	-0.407520	0.867635	-0.063190
Br116	Br	0.092480	1.367635	0.436810
Br117	Br	-0.346857	0.158993	-0.636053
Br118	Br	0.153143	0.658993	-0.136053
H119	H	-0.492777	0.800188	0.113673
H120	H	0.007223	1.300188	0.613673
H121	H	-0.465003	0.822192	0.453719
H122	H	0.034997	1.322192	0.953719
Br123	Br	-0.125831	1.090448	0.350763
Br124	Br	0.374169	1.590448	0.850763
Br125	Br	-0.158350	0.595424	-0.002294
Br126	Br	0.341650	1.095424	0.497706
H127	H	-0.208244	1.025262	0.379769
H128	H	0.291756	1.525262	0.879769
H129	H	-0.040554	1.157874	0.173926
H130	H	0.459446	1.657874	0.673926
H131	H	-0.014387	1.178560	0.008852
H132	H	0.485613	1.678560	0.508852
H133	H	-0.242700	0.267276	-0.296094
H134	H	0.257300	0.767276	0.203906
H135	H	-0.068316	1.135886	-0.166145
H136	H	0.431684	1.635886	0.333855
H137	H	-0.325083	0.932805	-0.092173
H138	H	0.174917	1.432805	0.407827
H139	H	-0.183383	0.457893	-0.092596
H140	H	0.316617	0.957893	0.407404
Br141	Br	-0.320588	0.662343	-0.513820
Br142	Br	0.179412	1.162343	-0.013820
Br143	Br	-0.374990	0.362645	-0.710129
Br144	Br	0.125010	0.862645	-0.210129
Br145	Br	-0.367164	0.512575	-0.673718
Br146	Br	0.132836	1.012575	-0.173718
H147	H	-0.290642	0.690776	-0.416330
H148	H	0.209358	1.190776	0.083670
