data_functionalizedCrystal
_audit_creation_method	'MofGen! by Chris Wilmer'
_symmetry_space_group_name_H-M	'P1'
_symmetry_Int_Tables_number	1
_symmetry_cell_setting	triclinic
loop_
_symmetry_equiv_pos_as_xyz
  x,y,z
_cell_length_a	15.995350
_cell_length_b	15.995292
_cell_length_c	15.072220
_cell_angle_alpha	89.993492
_cell_angle_beta	90.002153
_cell_angle_gamma	83.480495
loop_
_atom_site_label
_atom_site_type_symbol
_atom_site_fract_x
_atom_site_fract_y
_atom_site_fract_z
O1	O	1.110966	0.107919	0.073701
O2	O	1.610966	0.607919	0.573701
O3	O	0.867188	0.121247	0.073718
O4	O	1.367188	0.621247	0.573718
O5	O	0.995766	-0.007308	0.073711
O6	O	1.495766	0.492692	0.573711
O7	O	0.982388	0.236474	0.073709
O8	O	1.482388	0.736474	0.573709
O9	O	0.995749	-0.007291	-0.073855
O10	O	1.495749	0.492709	0.426145
O11	O	0.867171	0.121264	-0.073847
O12	O	1.367171	0.621264	0.426153
O13	O	1.110949	0.107936	-0.073864
O14	O	1.610949	0.607936	0.426136
Zn15	Zn	0.989058	0.114602	-0.097285
Zn16	Zn	1.489058	0.614602	0.402715
Zn17	Zn	0.989079	0.114581	0.097139
Zn18	Zn	1.489079	0.614581	0.597139
O19	O	0.982371	0.236491	-0.073856
O20	O	1.482371	0.736491	0.426144
C21	C	0.835985	0.120704	-0.000062
C22	C	1.335985	0.620704	0.499938
C23	C	0.743035	0.119053	-0.000055
C24	C	1.243035	0.619053	0.499945
C25	C	0.995213	-0.038495	-0.000070
C26	C	1.495213	0.461505	0.499930
C27	C	0.993581	-0.131448	-0.000063
C28	C	1.493581	0.368552	0.499937
C29	C	0.405288	0.113120	-0.000073
C30	C	0.905288	0.613120	0.499927
C31	C	0.452742	0.021566	-0.000402
C32	C	0.952742	0.521566	0.499598
C33	C	0.549431	0.023218	-0.000063
C34	C	1.049431	0.523218	0.499937
C35	C	0.572848	0.116063	-0.000065
C36	C	1.072848	0.616063	0.499935
C37	C	0.531761	0.161211	0.084198
C38	C	1.031761	0.661211	0.584198
C39	C	0.435126	0.158911	0.084263
C40	C	0.935126	0.658911	0.584263
C41	C	0.434768	0.160821	-0.083546
C42	C	0.934768	0.660821	0.416454
C43	C	0.531713	0.160800	-0.084654
C44	C	1.031713	0.660800	0.415346
C45	C	0.667546	0.117731	-0.000057
C46	C	1.167546	0.617731	0.499943
C47	C	0.310591	0.111455	-0.000075
C48	C	0.810591	0.611455	0.499925
C49	C	0.987580	-0.469186	-0.000071
C50	C	1.487580	0.030814	0.499929
C51	C	1.080384	-0.445874	-0.000407
C52	C	1.580384	0.054126	0.499593
C53	C	1.082148	-0.349199	-0.000071
C54	C	1.582148	0.150801	0.499929
C55	C	0.990557	-0.301631	-0.000067
C56	C	1.490557	0.198369	0.499933
C57	C	0.944169	-0.330741	0.084200
C58	C	1.444169	0.169259	0.584200
C59	C	0.943052	-0.427531	0.084268
C60	C	1.443052	0.072469	0.584268
C61	C	0.941138	-0.427370	-0.083541
C62	C	1.441138	0.072630	0.416459
C63	C	0.944577	-0.330877	-0.084652
C64	C	1.444577	0.169123	0.415348
C65	C	0.992235	-0.206934	-0.000062
C66	C	1.492235	0.293066	0.499938
C67	C	0.985899	-0.563882	-0.000069
C68	C	1.485899	-0.063882	0.499931
C69	C	1.142152	0.108479	-0.000082
C70	C	1.642152	0.608479	0.499918
C71	C	1.235102	0.110130	-0.000083
C72	C	1.735102	0.610130	0.499917
C73	C	0.982924	0.267678	-0.000074
C74	C	1.482924	0.767678	0.499926
C75	C	0.984556	0.360631	-0.000075
C76	C	1.484556	0.860631	0.499925
N77	N	0.989049	0.114616	-0.229973
N78	N	1.489049	0.614616	0.270027
C79	C	0.989064	0.114597	-0.410971
C80	C	1.489064	0.614597	0.089029
C81	C	0.920254	0.183359	-0.448635
C82	C	1.420254	0.683359	0.051365
C83	C	0.920018	0.183171	-0.551461
C84	C	1.420018	0.683171	-0.051461
C85	C	0.989079	0.114579	-0.589175
C86	C	1.489079	0.614579	-0.089175
C87	C	0.970372	0.027106	-0.551830
C88	C	1.470372	0.527106	-0.051830
C89	C	0.969870	0.027520	-0.448973
C90	C	1.469870	0.527520	0.051027
C91	C	1.076793	0.132519	-0.448866
C92	C	1.576793	0.632519	0.051134
C93	C	1.076213	0.134494	-0.551731
C94	C	1.576213	0.634494	-0.051731
C95	C	0.989090	0.114564	-0.689888
C96	C	1.489090	0.614564	-0.189888
C97	C	0.989052	0.114607	-0.310257
C98	C	1.489052	0.614607	0.189743
N99	N	0.989095	0.114560	0.229828
N100	N	1.489095	0.614560	0.729828
H101	H	0.577861	-0.012272	-0.060466
H102	H	1.077861	0.487728	0.439534
C103	C	0.832788	0.168070	-0.413742
C104	C	1.332788	0.668070	0.086258
H105	H	0.791585	0.209892	-0.436811
H106	H	1.291585	0.709892	0.063189
H107	H	0.820314	0.114043	-0.432098
H108	H	1.320314	0.614043	0.067902
H109	H	0.832503	0.170859	-0.350781
H110	H	1.332503	0.670859	0.149219
C111	C	1.095410	0.221423	-0.584699
C112	C	1.595410	0.721423	-0.084699
H113	H	1.148195	0.233111	-0.561820
H114	H	1.648195	0.733111	-0.061820
H115	H	1.097296	0.221511	-0.647692
H116	H	1.597296	0.721511	-0.147692
H117	H	1.052581	0.263284	-0.564909
H118	H	1.552581	0.763284	-0.064909
H119	H	0.434220	-0.015024	-0.060830
H120	H	0.934220	0.484976	0.439170
H121	H	1.018102	-0.025204	-0.424054
H122	H	1.518102	0.474796	0.075946
H123	H	0.854915	0.171679	-0.576080
H124	H	1.354915	0.671679	-0.076080
H125	H	1.019180	-0.025313	-0.576256
H126	H	1.519180	0.474687	-0.076256
H127	H	0.970357	-0.455452	-0.147416
H128	H	1.470357	0.044548	0.352584
C129	C	1.128452	-0.485065	0.080771
C130	C	1.628452	0.014935	0.580771
H131	H	1.184462	-0.470675	0.080057
H132	H	1.684462	0.029325	0.580057
H133	H	1.101111	-0.464173	0.133538
H134	H	1.601111	0.035827	0.633538
H135	H	1.129447	-0.544533	0.078789
H136	H	1.629447	-0.044533	0.578789
C137	C	1.148606	0.071250	-0.586395
C138	C	1.648606	0.571250	-0.086395
H139	H	1.200443	0.084797	-0.562721
H140	H	1.700443	0.584797	-0.062721
H141	H	1.139651	0.016012	-0.568531
H142	H	1.639651	0.516012	-0.068531
H143	H	1.150390	0.073932	-0.649322
H144	H	1.650390	0.573932	-0.149322
C145	C	0.391844	0.252009	-0.084327
C146	C	0.891844	0.752009	0.415673
H147	H	0.409910	0.280515	-0.134913
H148	H	0.909910	0.780515	0.365087
H149	H	0.332528	0.251693	-0.086495
H150	H	0.832528	0.751693	0.413505
H151	H	0.406627	0.280081	-0.032051
H152	H	0.906627	0.780081	0.467949
C153	C	0.853124	-0.287687	0.088448
C154	C	1.353124	0.212313	0.588448
H155	H	0.842570	-0.251487	0.038750
H156	H	1.342570	0.248513	0.538750
H157	H	0.815176	-0.329258	0.087668
H158	H	1.315176	0.170742	0.587668
H159	H	0.845462	-0.255739	0.141545
H160	H	1.345462	0.244261	0.641545
C161	C	0.884952	0.005325	-0.586632
C162	C	1.384952	0.505325	-0.086632
H163	H	0.860580	0.049420	-0.623910
H164	H	1.360580	0.549420	-0.123910
H165	H	0.893058	-0.045636	-0.619474
H166	H	1.393058	0.454364	-0.119474
H167	H	0.848509	-0.001227	-0.537975
H168	H	1.348509	0.498773	-0.037975
H169	H	1.094853	0.194965	-0.422934
H170	H	1.594853	0.694965	0.077066
C171	C	1.131525	-0.324337	0.081672
C172	C	1.631525	0.175663	0.581672
H173	H	1.150576	-0.373350	0.114809
H174	H	1.650576	0.126650	0.614809
H175	H	1.178508	-0.297506	0.062885
H176	H	1.678508	0.202494	0.562885
H177	H	1.095941	-0.286825	0.117768
H178	H	1.595941	0.213175	0.617768
C179	C	1.145969	0.064791	-0.415957
C180	C	1.645969	0.564791	0.084043
H181	H	1.198831	0.075953	-0.439079
H182	H	1.698831	0.575953	0.060921
H183	H	1.147866	0.065632	-0.352974
H184	H	1.647866	0.565632	0.147026
H185	H	1.133886	0.011000	-0.435530
H186	H	1.633886	0.511000	0.064470
H187	H	0.577304	-0.012525	0.060446
H188	H	1.077304	0.487475	0.560446
C189	C	0.426291	-0.027661	0.080775
C190	C	0.926291	0.472339	0.580775
H191	H	0.386457	0.007341	0.114868
H192	H	0.886457	0.507341	0.614868
H193	H	0.401756	-0.075857	0.061397
H194	H	0.901756	0.424143	0.561397
H195	H	0.474345	-0.044822	0.116152
H196	H	0.974345	0.455178	0.616152
H197	H	0.416832	0.125973	0.147253
H198	H	0.916832	0.625973	0.647253
H199	H	0.545872	0.229422	0.087331
H200	H	1.045872	0.729422	0.587331
H201	H	0.931106	0.248182	-0.576712
H202	H	1.431106	0.748182	-0.076712
H203	H	1.118478	-0.330167	-0.060476
H204	H	1.618478	0.169833	0.439524
C205	C	0.883454	0.006263	-0.416573
C206	C	1.383454	0.506263	0.083427
H207	H	0.848984	-0.002539	-0.466273
H208	H	1.348984	0.497461	0.033727
H209	H	0.890713	-0.043350	-0.381456
H210	H	1.390713	0.456650	0.118544
H211	H	0.857342	0.051579	-0.382015
H212	H	1.357342	0.551579	0.117985
H213	H	1.116148	-0.473865	-0.060839
H214	H	1.616148	0.026135	0.439161
C215	C	0.986429	-0.463767	0.169380
C216	C	1.486429	0.036233	0.669380
H217	H	1.004574	-0.419313	0.203584
H218	H	1.504574	0.080687	0.703584
H219	H	0.947825	-0.491783	0.203045
H220	H	1.447825	0.008217	0.703045
H221	H	1.033649	-0.502547	0.154023
H222	H	1.533649	-0.002547	0.654023
C223	C	0.987629	-0.303550	0.168916
C224	C	1.487629	0.196450	0.668916
H225	H	1.034045	-0.274480	0.153112
H226	H	1.534045	0.225520	0.653112
H227	H	0.948666	-0.267488	0.202927
H228	H	1.448666	0.232512	0.702927
H229	H	1.006983	-0.351886	0.202965
H230	H	1.506983	0.148114	0.702965
H231	H	0.402864	0.226129	0.088086
H232	H	0.902864	0.726129	0.588086
C233	C	0.934960	0.271486	-0.415237
C234	C	1.434960	0.771486	0.084763
H235	H	0.892775	0.312077	-0.438720
H236	H	1.392775	0.812077	0.061280
H237	H	0.932406	0.272615	-0.352276
H238	H	1.432406	0.772615	0.147724
H239	H	0.988773	0.284142	-0.434125
H240	H	1.488773	0.784142	0.065875
H241	H	0.560149	0.129840	0.146910
H242	H	1.060149	0.629840	0.646910
H243	H	0.414232	0.130897	-0.147416
H244	H	0.914232	0.630897	0.352584
C245	C	0.848857	-0.446268	-0.084308
C246	C	1.348857	0.053732	0.415692
H247	H	0.838648	-0.479477	-0.034037
H248	H	1.338648	0.020523	0.465963
H249	H	0.812679	-0.394918	-0.082455
H250	H	1.312679	0.105082	0.417545
H251	H	0.838323	-0.476086	-0.136898
H252	H	1.338323	0.023914	0.363102
H253	H	0.547064	0.228506	-0.089745
H254	H	1.047064	0.728506	0.410255
C255	C	0.568607	0.116277	-0.168869
C256	C	1.068607	0.616277	0.331131
H257	H	0.608915	0.070617	-0.152556
H258	H	1.108915	0.570617	0.347444
H259	H	0.524714	0.095713	-0.201963
H260	H	1.024714	0.595713	0.298037
H261	H	0.594975	0.155036	-0.204036
H262	H	1.094975	0.655036	0.295964
C263	C	0.990178	-0.305759	-0.168874
C264	C	1.490178	0.194241	0.331126
H265	H	0.962063	-0.323618	-0.219816
H266	H	1.462063	0.176382	0.280184
H267	H	0.990008	-0.246369	-0.170409
H268	H	1.490008	0.253631	0.329591
H269	H	1.046594	-0.331799	-0.168362
H270	H	1.546594	0.168201	0.331638
C271	C	0.851137	-0.447198	0.089448
C272	C	1.351137	0.052802	0.589448
H273	H	0.849832	-0.506431	0.089519
H274	H	1.349832	-0.006431	0.589519
H275	H	0.826046	-0.423950	0.142394
H276	H	1.326046	0.076050	0.642394
H277	H	0.820831	-0.423354	0.039616
H278	H	1.320831	0.076646	0.539616
C279	C	0.854268	-0.286335	-0.091533
C280	C	1.354268	0.213665	0.408467
H281	H	0.843371	-0.249158	-0.042687
H282	H	1.343371	0.250842	0.457313
H283	H	0.848250	-0.255268	-0.145316
H284	H	1.348250	0.244732	0.354684
H285	H	0.815462	-0.327101	-0.090820
H286	H	1.315462	0.172899	0.409180
