data_functionalizedCrystal
_audit_creation_method	'MofGen! by Chris Wilmer'
_symmetry_space_group_name_H-M	'P1'
_symmetry_Int_Tables_number	1
_symmetry_cell_setting	triclinic
loop_
_symmetry_equiv_pos_as_xyz
  x,y,z
_cell_length_a	9.065218
_cell_length_b	17.038272
_cell_length_c	7.540329
_cell_angle_alpha	90.003596
_cell_angle_beta	90.001688
_cell_angle_gamma	88.063721
loop_
_atom_site_label
_atom_site_type_symbol
_atom_site_fract_x
_atom_site_fract_y
_atom_site_fract_z
O1	O	1.971906	0.114742	0.147490
O2	O	1.543565	0.124153	0.147492
O3	O	1.755190	0.005614	0.147477
O4	O	1.760281	0.233281	0.147505
O5	O	1.755182	0.005613	-0.147488
O6	O	1.543557	0.124152	-0.147473
O7	O	1.971898	0.114741	-0.147476
Cu8	Cu	1.757727	0.119446	-0.174407
Cu9	Cu	1.757736	0.119447	0.174424
O10	O	1.760273	0.233280	-0.147460
C11	C	1.488484	0.123248	0.000010
C12	C	1.324369	0.120544	0.000011
C13	C	1.750555	-0.023549	-0.000005
C14	C	1.736739	-0.110441	-0.000005
C15	C	1.863587	-0.159639	-0.000008
C16	C	1.850596	-0.241284	0.000009
C17	C	1.710756	-0.273728	0.000016
C18	C	1.583899	-0.224524	0.000024
C19	C	1.596891	-0.142881	0.000020
C20	C	1.664859	-0.519818	0.000041
C21	C	1.651876	-0.601467	0.000040
C22	C	1.918575	-0.618221	0.000028
C23	C	1.931554	-0.536576	0.000013
C24	C	1.804697	-0.487379	0.000031
C25	C	1.697475	-0.357182	0.000028
C26	C	1.817980	-0.403927	0.000032
C27	C	2.026979	0.115646	0.000011
C28	C	2.191093	0.118350	0.000022
C29	C	1.764908	0.262442	0.000026
C30	C	1.778724	0.349335	0.000037
N31	N	1.757731	0.119445	-0.419755
N32	N	1.757743	0.119443	0.419772
H33	H	1.977459	-0.133230	-0.000024
C34	C	1.498046	-0.637154	0.000078
H35	H	1.424354	-0.596161	0.000109
H36	H	1.487417	-0.668660	-0.102777
H37	H	1.487463	-0.668650	0.102957
C38	C	1.457363	-0.088759	0.000024
H39	H	1.485127	-0.035490	0.000039
H40	H	1.400433	-0.098697	-0.102831
H41	H	1.400456	-0.098695	0.102903
H42	H	1.561561	-0.479770	0.000054
H43	H	1.953890	-0.281338	0.000003
C44	C	1.971797	-0.368244	0.000020
H45	H	2.045492	-0.409235	0.000026
H46	H	1.982392	-0.336745	-0.102841
H47	H	1.982411	-0.336741	0.102894
H48	H	1.583616	-0.383607	0.000030
C49	C	2.085378	-0.500893	0.000029
H50	H	2.159066	-0.541888	0.000048
H51	H	2.095993	-0.469394	-0.102828
H52	H	2.095982	-0.469392	0.102906
C53	C	2.058104	-0.672339	0.000035
H54	H	2.030345	-0.725610	0.000055
H55	H	2.115027	-0.662407	-0.102822
H56	H	2.115016	-0.662395	0.102913
C57	C	1.430079	-0.260210	0.000027
H58	H	1.440506	-0.315880	0.000009
H59	H	1.377416	-0.243386	0.102886
H60	H	1.377421	-0.243389	-0.102849
