data_functionalizedCrystal
_audit_creation_method	'MofGen! by Chris Wilmer'
_symmetry_space_group_name_H-M	'P1'
_symmetry_Int_Tables_number	1
_symmetry_cell_setting	triclinic
loop_
_symmetry_equiv_pos_as_xyz
  x,y,z
_cell_length_a	10.654550
_cell_length_b	17.038272
_cell_length_c	9.130313
_cell_angle_alpha	89.995195
_cell_angle_beta	89.999724
_cell_angle_gamma	87.798243
loop_
_atom_site_label
_atom_site_type_symbol
_atom_site_fract_x
_atom_site_fract_y
_atom_site_fract_z
O1	O	1.678042	0.109878	-0.121691
O2	O	1.313536	0.120346	-0.121718
O3	O	1.493623	0.001285	-0.121693
O4	O	1.497955	0.228940	-0.121716
O5	O	1.493609	0.001281	0.121906
O6	O	1.313522	0.120343	0.121881
O7	O	1.678029	0.109875	0.121908
Cu8	Cu	1.495774	0.115108	0.144137
Cu9	Cu	1.495790	0.115113	-0.143947
O10	O	1.497942	0.228936	0.121883
C11	C	1.266660	0.119576	0.000078
C12	C	1.127003	0.117276	0.000068
C13	C	1.054026	0.187378	0.000065
C14	C	0.922805	0.185213	0.000091
C15	C	0.937548	0.042838	0.000116
C16	C	1.068767	0.045004	0.000101
C17	C	1.489675	-0.027867	0.000106
C18	C	1.477918	-0.114726	0.000104
C19	C	1.585862	-0.164237	0.000114
C20	C	1.574808	-0.245849	0.000099
C21	C	1.455808	-0.277949	0.000085
C22	C	1.347855	-0.228431	0.000072
C23	C	1.358911	-0.146820	0.000076
C24	C	1.416750	-0.523925	0.000063
C25	C	1.405702	-0.605542	0.000063
C26	C	1.632655	-0.622955	0.000088
C27	C	1.643701	-0.541341	0.000101
C28	C	1.535748	-0.491831	0.000079
C29	C	1.444505	-0.361369	0.000075
C30	C	1.547052	-0.408412	0.000079
C31	C	1.724905	0.110645	0.000108
C32	C	1.864561	0.112945	0.000109
C33	C	1.501889	0.258088	0.000081
C34	C	1.513646	0.344947	0.000072
N35	N	1.495772	0.115105	0.346759
N36	N	1.495802	0.115110	-0.346570
C37	C	1.575545	0.062407	0.423422
C38	C	1.575557	0.062407	0.576759
C39	C	1.416019	0.167810	0.576757
C40	C	1.416002	0.167806	0.423423
H41	H	0.863392	0.242297	0.000091
C42	C	1.751391	-0.677416	0.000090
H43	H	1.727769	-0.730618	0.000072
H44	H	1.799829	-0.667626	0.085038
H45	H	1.799824	-0.667612	-0.084869
C46	C	1.663306	0.004441	0.661089
H47	H	1.651885	0.011983	0.763390
H48	H	1.748071	0.013422	0.635948
H49	H	1.644077	-0.047853	0.635969
H50	H	1.128187	-0.012085	0.000107
H51	H	1.271011	-0.106509	0.000068
H52	H	1.101438	0.246227	0.000049
H53	H	1.640497	0.019494	0.361007
H54	H	1.308794	-0.631674	0.000075
C55	C	1.716763	-0.128935	0.000129
H56	H	1.779466	-0.170114	0.000119
H57	H	1.725792	-0.097465	0.085078
H58	H	1.725797	-0.097457	-0.084829
C59	C	1.328292	0.225784	0.661091
H60	H	1.339736	0.218246	0.763391
H61	H	1.243520	0.216804	0.635982
H62	H	1.347519	0.278075	0.635940
C63	C	0.873484	-0.036655	0.000133
H64	H	0.784882	-0.027907	0.000126
H65	H	0.898021	-0.065553	0.085081
H66	H	0.898014	-0.065546	-0.084826
C67	C	1.693547	-0.300308	0.000125
H68	H	1.766001	-0.269503	0.000155
H69	H	1.693969	-0.332504	-0.084823
H70	H	1.693936	-0.332509	0.085084
C71	C	1.298007	-0.469474	0.000065
H72	H	1.225555	-0.500282	0.000076
H73	H	1.297594	-0.437268	-0.084879
H74	H	1.297601	-0.437283	0.085028
H75	H	1.643941	-0.382273	0.000058
C76	C	1.216958	-0.263739	0.000061
H77	H	1.225832	-0.319434	0.000076
H78	H	1.172147	-0.246783	-0.084889
H79	H	1.172146	-0.246788	0.085018
C80	C	1.328250	0.225779	0.339087
H81	H	1.280758	0.257174	0.406704
H82	H	1.272937	0.197331	0.279287
H83	H	1.376930	0.258606	0.279257
C84	C	1.774600	-0.506038	0.000097
H85	H	1.837307	-0.547214	0.000085
H86	H	1.783631	-0.474565	0.085043
H87	H	1.783626	-0.474561	-0.084865
H88	H	1.347615	-0.387514	0.000067
