data_functionalizedCrystal
_audit_creation_method	'MofGen! by Chris Wilmer'
_symmetry_space_group_name_H-M	'P1'
_symmetry_Int_Tables_number	1
_symmetry_cell_setting	triclinic
loop_
_symmetry_equiv_pos_as_xyz
  x,y,z
_cell_length_a	15.995350
_cell_length_b	23.532407
_cell_length_c	15.072220
_cell_angle_alpha	89.994175
_cell_angle_beta	89.991149
_cell_angle_gamma	83.170526
loop_
_atom_site_label
_atom_site_type_symbol
_atom_site_fract_x
_atom_site_fract_y
_atom_site_fract_z
O1	O	1.110385	0.073404	-0.073717
O2	O	1.443719	0.406737	0.259617
O3	O	1.777052	0.740070	0.592950
O4	O	0.866535	0.082469	-0.073736
O5	O	1.199868	0.415802	0.259597
O6	O	1.533201	0.749135	0.592931
O7	O	0.995813	-0.004967	-0.073710
O8	O	1.329147	0.328366	0.259624
O9	O	1.662480	0.661700	0.592957
O10	O	0.981107	0.160840	-0.073743
O11	O	1.314440	0.494173	0.259590
O12	O	1.647773	0.827506	0.592923
O13	O	0.995781	-0.004962	0.073856
O14	O	1.329115	0.328371	0.407189
O15	O	1.662448	0.661704	0.740522
O16	O	0.866503	0.082474	0.073829
O17	O	1.199836	0.415807	0.407162
O18	O	1.533170	0.749140	0.740496
O19	O	1.110354	0.073409	0.073848
O20	O	1.443687	0.406742	0.407182
O21	O	1.777020	0.740075	0.740515
Zn22	Zn	0.988423	0.077942	0.097268
Zn23	Zn	1.321756	0.411275	0.430601
Zn24	Zn	1.655090	0.744609	0.763935
Zn25	Zn	0.988465	0.077935	-0.097155
Zn26	Zn	1.321798	0.411269	0.236178
Zn27	Zn	1.655132	0.744602	0.569511
O28	O	0.981075	0.160845	0.073822
O29	O	1.314408	0.494178	0.407155
O30	O	1.647742	0.827511	0.740489
C31	C	0.835327	0.082096	0.000044
C32	C	1.168660	0.415430	0.333378
C33	C	1.501994	0.748763	0.666711
C34	C	0.742386	0.080973	0.000038
C35	C	1.075719	0.414306	0.333371
C36	C	1.409053	0.747640	0.666704
C37	C	0.404672	0.076938	0.000057
C38	C	0.738005	0.410271	0.333390
C39	C	1.071339	0.743605	0.666724
C40	C	0.452624	0.014668	0.000399
C41	C	0.785957	0.348001	0.333732
C42	C	1.119291	0.681334	0.667065
C43	C	0.549305	0.015792	0.000060
C44	C	0.882638	0.349125	0.333393
C45	C	1.215972	0.682458	0.666726
C46	C	0.572216	0.078939	0.000048
C47	C	0.905549	0.412273	0.333381
C48	C	1.238883	0.745606	0.666714
C49	C	0.530892	0.109650	-0.084222
C50	C	0.864225	0.442984	0.249112
C51	C	1.197558	0.776317	0.582445
C52	C	0.434269	0.108086	-0.084286
C53	C	0.767602	0.441419	0.249047
C54	C	1.100936	0.774753	0.582381
C55	C	0.433883	0.109378	0.083523
C56	C	0.767216	0.442712	0.416856
C57	C	1.100550	0.776045	0.750190
C58	C	0.530828	0.109363	0.084631
C59	C	0.864162	0.442697	0.417964
C60	C	1.197495	0.776030	0.751297
C61	C	0.666904	0.080074	0.000040
C62	C	1.000237	0.413407	0.333373
C63	C	1.333571	0.746740	0.666706
C64	C	0.309984	0.075805	0.000059
C65	C	0.643317	0.409139	0.333392
C66	C	0.976650	0.742472	0.666726
C67	C	0.995423	-0.026182	0.000075
C68	C	1.328756	0.307151	0.333409
C69	C	1.662090	0.640484	0.666742
C70	C	0.994297	-0.089404	0.000082
C71	C	1.327630	0.243930	0.333415
C72	C	1.660964	0.577263	0.666749
C73	C	1.063739	-0.488239	0.000039
C74	C	1.397072	-0.154906	0.333372
C75	C	1.730406	0.178427	0.666706
C76	C	1.062693	-0.547644	0.000032
C77	C	1.396026	-0.214310	0.333365
C78	C	1.729360	0.119023	0.666699
O79	O	1.127067	-0.584141	0.000004
O80	O	1.460400	-0.250807	0.333338
O81	O	1.793733	0.082526	0.666671
N82	N	0.985837	-0.570566	0.000027
N83	N	1.319170	-0.237232	0.333360
N84	N	1.652504	0.096101	0.666693
C85	C	0.910022	-0.534080	0.000019
C86	C	1.243355	-0.200746	0.333352
C87	C	1.576689	0.132587	0.666686
O88	O	0.844554	-0.559031	0.000013
O89	O	1.177887	-0.225698	0.333346
O90	O	1.511220	0.107635	0.666679
C91	C	0.911069	-0.474677	0.000019
C92	C	1.244402	-0.141343	0.333353
C93	C	1.577735	0.191990	0.666686
C94	C	0.987930	-0.451758	0.000034
C95	C	1.321263	-0.118425	0.333367
C96	C	1.654597	0.214908	0.666701
C97	C	1.140594	-0.465320	0.000052
C98	C	1.473927	-0.131987	0.333386
C99	C	1.807261	0.201346	0.666719
C100	C	1.141640	-0.405920	0.000061
C101	C	1.474973	-0.072587	0.333394
C102	C	1.808306	0.260746	0.666728
C103	C	1.065830	-0.369439	0.000056
C104	C	1.399164	-0.036106	0.333389
C105	C	1.732497	0.297228	0.666723
C106	C	0.988975	-0.392358	0.000042
C107	C	1.322309	-0.059025	0.333376
C108	C	1.655642	0.274309	0.666709
C109	C	0.835255	-0.438192	0.000005
C110	C	1.168588	-0.104859	0.333339
C111	C	1.501921	0.228475	0.666672
C112	C	0.836308	-0.378785	0.000005
C113	C	1.169641	-0.045452	0.333339
C114	C	1.502975	0.287881	0.666672
C115	C	0.913169	-0.355867	0.000020
C116	C	1.246502	-0.022534	0.333353
C117	C	1.579836	0.310800	0.666686
C118	C	0.914212	-0.296477	0.000046
C119	C	1.247545	0.036857	0.333379
C120	C	1.580878	0.370190	0.666712
N121	N	0.991068	-0.273555	0.000051
N122	N	1.324401	0.059779	0.333385
N123	N	1.657735	0.393112	0.666718
C124	C	1.066877	-0.310036	0.000056
C125	C	1.400211	0.023297	0.333390
C126	C	1.733544	0.356631	0.666723
C127	C	0.907829	-0.658831	0.000016
C128	C	1.241163	-0.325497	0.333350
C129	C	1.574496	0.007836	0.666683
C130	C	0.906781	-0.718233	0.000022
C131	C	1.240115	-0.384899	0.333356
C132	C	1.573448	-0.051566	0.666689
C133	C	1.059453	-0.731793	0.000034
C134	C	1.392786	-0.398459	0.333367
C135	C	1.726120	-0.065126	0.666700
C136	C	1.060500	-0.672389	0.000034
C137	C	1.393833	-0.339056	0.333368
C138	C	1.727167	-0.005723	0.666701
C139	C	0.984685	-0.635909	0.000022
C140	C	1.318019	-0.302575	0.333355
C141	C	1.651352	0.030758	0.666689
C142	C	1.069067	-0.185291	0.000075
C143	C	1.402401	0.148043	0.333408
C144	C	1.735734	0.481376	0.666742
C145	C	1.070106	-0.125885	0.000087
C146	C	1.403440	0.207449	0.333420
C147	C	1.736773	0.540782	0.666754
C148	C	0.917435	-0.112330	0.000071
C149	C	1.250768	0.221003	0.333404
C150	C	1.584102	0.554337	0.666738
C151	C	0.916396	-0.171731	0.000063
C152	C	1.249729	0.161602	0.333397
C153	C	1.583062	0.494936	0.666730
C154	C	0.992219	-0.208210	0.000062
C155	C	1.325552	0.125123	0.333396
C156	C	1.658885	0.458456	0.666729
O157	O	0.849872	-0.259945	0.000070
O158	O	1.183205	0.073388	0.333403
O159	O	1.516539	0.406722	0.666736
O160	O	1.132335	-0.285076	0.000051
O161	O	1.465668	0.048257	0.333384
O162	O	1.799001	0.381591	0.666717
C163	C	1.141561	0.073781	0.000066
C164	C	1.474894	0.407114	0.333400
C165	C	1.808228	0.740448	0.666733
C166	C	1.234502	0.074905	0.000067
C167	C	1.567835	0.408238	0.333400
C168	C	1.901169	0.741571	0.666734
C169	C	0.981465	0.182060	0.000035
C170	C	1.314799	0.515393	0.333368
C171	C	1.648132	0.848726	0.666702
C172	C	0.982591	0.245281	0.000023
C173	C	1.315925	0.578614	0.333356
C174	C	1.649258	0.911948	0.666689
N175	N	0.988401	0.077946	0.229957
N176	N	1.321734	0.411279	0.563290
N177	N	1.655067	0.744613	0.896623
N178	N	0.988494	0.077927	-0.229844
N179	N	1.321828	0.411260	0.103489
N180	N	1.655161	0.744594	0.436822
C181	C	0.988463	0.077933	0.589158
C182	C	1.321797	0.411267	0.922492
C183	C	1.655130	0.744600	1.255825
C184	C	0.919059	0.124562	0.551537
C185	C	1.252393	0.457895	0.884870
C186	C	1.585726	0.791228	1.218204
C187	C	0.919216	0.124732	0.448711
C188	C	1.252549	0.458065	0.782045
C189	C	1.585883	0.791398	1.115378
C190	C	0.988431	0.077940	0.410954
C191	C	1.321765	0.411273	0.744287
C192	C	1.655098	0.744606	1.077621
C193	C	1.075688	0.090918	0.448249
C194	C	1.409022	0.424252	0.781583
C195	C	1.742355	0.757585	1.114916
C196	C	1.075299	0.091250	0.551107
C197	C	1.408632	0.424583	0.884440
C198	C	1.741966	0.757916	1.217774
C199	C	0.971391	0.018188	0.551269
C200	C	1.304724	0.351521	0.884602
C201	C	1.638057	0.684855	1.217936
C202	C	0.969383	0.018587	0.448405
C203	C	1.302716	0.351920	0.781739
C204	C	1.636050	0.685253	1.115072
C205	C	0.988419	0.077942	0.310241
C206	C	1.321752	0.411275	0.643574
C207	C	1.655086	0.744609	0.976907
C208	C	0.988482	0.077932	0.689872
C209	C	1.321815	0.411265	1.023205
C210	C	1.655148	0.744599	1.356538
H211	H	0.577922	-0.008349	0.060468
H212	H	0.911255	0.324984	0.393802
H213	H	1.244588	0.658318	0.727135
H214	H	0.559457	0.088316	-0.146929
H215	H	0.892790	0.421649	0.186405
H216	H	1.226123	0.754983	0.519738
H217	H	1.128531	0.058627	0.575992
H218	H	1.461865	0.391960	0.909325
H219	H	1.795198	0.725294	1.242659
H220	H	0.416160	0.085686	-0.147271
H221	H	0.749494	0.419019	0.186062
H222	H	1.082827	0.752353	0.519396
H223	H	1.202331	-0.495018	0.000053
H224	H	1.535664	-0.161685	0.333387
H225	H	1.868997	0.171648	0.666720
H226	H	0.413503	0.089023	0.147397
H227	H	0.746837	0.422356	0.480730
H228	H	1.080170	0.755689	0.814064
H229	H	1.130810	-0.214986	0.000071
H230	H	1.464143	0.118347	0.333404
H231	H	1.797476	0.451681	0.666737
H232	H	0.545809	0.155413	0.089712
H233	H	0.879143	0.488746	0.423045
H234	H	1.212476	0.822080	0.756378
H235	H	0.855713	-0.082617	0.000070
H236	H	1.189047	0.250717	0.333403
H237	H	1.522380	0.584050	0.666737
H238	H	0.853809	-0.190392	0.000076
H239	H	1.187143	0.142942	0.333410
H240	H	1.520476	0.476275	0.666743
H241	H	1.204228	-0.387266	0.000069
H242	H	1.537561	-0.053933	0.333402
H243	H	1.870894	0.279401	0.666736
H244	H	0.401641	0.153804	-0.088119
H245	H	0.734974	0.487137	0.245215
H246	H	1.068308	0.820470	0.578548
H247	H	0.577378	-0.008516	-0.060444
H248	H	0.910711	0.324817	0.272889
H249	H	1.244045	0.658150	0.606223
H250	H	0.401740	0.155290	0.084084
H251	H	0.735073	0.488623	0.417418
H252	H	1.068406	0.821956	0.750751
H253	H	0.846088	-0.629131	0.000014
H254	H	1.179421	-0.295797	0.333347
H255	H	1.512755	0.037536	0.666681
H256	H	0.434296	-0.010221	0.060832
H257	H	0.767629	0.323112	0.394166
H258	H	1.100963	0.656446	0.727499
H259	H	0.774569	-0.349085	-0.000006
H260	H	1.107902	-0.015752	0.333327
H261	H	1.441236	0.317582	0.666660
H262	H	0.433249	-0.010110	-0.059692
H263	H	0.766583	0.323223	0.273642
H264	H	1.099916	0.656556	0.606975
H265	H	0.544631	0.156043	-0.087364
H266	H	0.877965	0.489377	0.245969
H267	H	1.211298	0.822710	0.579303
H268	H	1.132698	-0.107228	0.000101
H269	H	1.466032	0.226105	0.333434
H270	H	1.799365	0.559438	0.666768
H271	H	1.022010	-0.016511	0.575598
H272	H	1.355343	0.316822	0.908931
H273	H	1.688676	0.650156	1.242265
H274	H	0.558318	0.086945	0.146973
H275	H	0.891651	0.420278	0.480306
H276	H	1.224985	0.753611	0.813640
H277	H	1.123087	-0.653734	0.000045
H278	H	1.456420	-0.320400	0.333379
H279	H	1.789754	0.012933	0.666712
H280	H	1.121181	-0.761507	0.000034
H281	H	1.454514	-0.428173	0.333368
H282	H	1.787848	-0.094840	0.666701
H283	H	0.844194	-0.736887	0.000026
H284	H	1.177527	-0.403554	0.333359
H285	H	1.510860	-0.070220	0.666692
H286	H	0.772666	-0.456841	-0.000012
H287	H	1.106000	-0.123508	0.333322
H288	H	1.439333	0.209826	0.666655
H289	H	0.854341	0.116999	0.423497
H290	H	1.187674	0.450332	0.756831
H291	H	1.521007	0.783666	1.090164
H292	H	0.853973	0.116956	0.576295
H293	H	1.187306	0.450289	0.909629
H294	H	1.520639	0.783623	1.242962
H295	H	0.929757	0.168648	0.577368
H296	H	1.263090	0.501981	0.910701
H297	H	1.596424	0.835315	1.244034
H298	H	1.128547	0.057860	0.423791
H299	H	1.461881	0.391193	0.757124
H300	H	1.795214	0.724527	1.090457
H301	H	0.930067	0.169068	0.424089
H302	H	1.263400	0.502401	0.757423
H303	H	1.596733	0.835734	1.090756
H304	H	1.090419	0.134821	0.575081
H305	H	1.423752	0.468155	0.908414
H306	H	1.757085	0.801488	1.241748
H307	H	1.091182	0.133993	0.422473
H308	H	1.424516	0.467327	0.755806
H309	H	1.757849	0.800660	1.089139
H310	H	0.909172	0.005708	0.577257
H311	H	1.242505	0.339041	0.910591
H312	H	1.575839	0.672375	1.243924
H313	H	0.905198	0.008737	0.424031
H314	H	1.238532	0.342070	0.757364
H315	H	1.571865	0.675404	1.090697
H316	H	1.016688	-0.017738	0.422708
H317	H	1.350021	0.315596	0.756041
H318	H	1.683354	0.648929	1.089374
