data_functionalizedCrystal
_audit_creation_method	'MofGen! by Chris Wilmer'
_symmetry_space_group_name_H-M	'P1'
_symmetry_Int_Tables_number	1
_symmetry_cell_setting	triclinic
loop_
_symmetry_equiv_pos_as_xyz
  x,y,z
_cell_length_a	25.639239
_cell_length_b	12.759401
_cell_length_c	25.639233
_cell_angle_alpha	90.011593
_cell_angle_beta	89.981253
_cell_angle_gamma	89.959789
loop_
_atom_site_label
_atom_site_type_symbol
_atom_site_fract_x
_atom_site_fract_y
_atom_site_fract_z
Zn1	Zn	-0.208193	-1.605994	-0.295595
Zn2	Zn	0.291807	-1.105994	0.204405
Zn3	Zn	-0.295612	-1.605841	-0.208159
Zn4	Zn	0.204388	-1.105841	0.291841
Zn5	Zn	-0.208195	-1.430322	-0.208175
Zn6	Zn	0.291805	-0.930322	0.291825
Zn7	Zn	-0.295602	-1.430211	-0.295565
Zn8	Zn	0.204398	-0.930211	0.204435
O9	O	-0.251900	-1.518092	-0.251874
O10	O	0.248100	-1.018092	0.248126
O11	O	-0.219793	-1.752995	-0.284002
O12	O	0.280207	-1.252995	0.215998
O13	O	-0.284021	-1.582539	-0.134996
O14	O	0.215979	-1.082539	0.365004
O15	O	-0.135029	-1.453736	-0.219790
O16	O	0.364971	-0.953736	0.280210
O17	O	-0.284019	-1.752882	-0.219763
O18	O	0.215981	-1.252882	0.280237
O19	O	-0.135028	-1.582801	-0.284017
O20	O	0.364972	-1.082801	0.215983
O21	O	-0.219796	-1.453586	-0.135008
O22	O	0.280204	-0.953586	0.364992
O23	O	-0.219786	-1.283286	-0.219762
O24	O	0.280214	-0.783286	0.280238
O25	O	-0.284002	-1.453548	-0.368734
O26	O	0.215998	-0.953548	0.131266
O27	O	-0.284003	-1.283205	-0.283967
O28	O	0.215997	-0.783205	0.216033
O29	O	-0.219783	-1.582694	-0.368756
O30	O	0.280217	-1.082694	0.131244
O31	O	-0.368776	-1.582432	-0.219735
O32	O	0.131224	-1.082432	0.280265
O33	O	-0.368768	-1.453398	-0.283952
O34	O	0.131232	-0.953398	0.216048
C35	C	-0.251894	-1.245125	-0.251863
C36	C	0.248106	-0.745125	0.248137
C37	C	-0.251904	-1.128348	-0.251871
C38	C	0.248096	-0.628348	0.248129
C39	C	-0.387743	-1.517915	-0.251850
C40	C	0.112257	-1.017915	0.248150
C41	C	-0.445857	-1.517936	-0.251857
C42	C	0.054143	-1.017936	0.248143
C43	C	-0.251891	-1.518126	-0.388247
C44	C	0.248109	-1.018126	0.111753
C45	C	-0.251887	-1.518140	-0.446361
C46	C	0.248113	-1.018140	0.053639
C47	C	-0.806211	-1.585455	-0.218493
C48	C	-0.306211	-1.085455	0.281507
C49	C	-0.860816	-1.585496	-0.218500
C50	C	-0.360816	-1.085496	0.281500
O51	O	-0.889045	-1.642720	-0.190106
O52	O	-0.389045	-1.142720	0.309894
N53	N	-0.888139	-1.518277	-0.251908
N54	N	-0.388139	-1.018277	0.248092
C55	C	-0.860856	-1.451020	-0.285315
C56	C	-0.360856	-0.951020	0.214685
O57	O	-0.889111	-1.393849	-0.313733
O58	O	-0.389111	-0.893849	0.186267
C59	C	-0.806253	-1.450985	-0.285311
C60	C	-0.306253	-0.950985	0.214689
C61	C	-0.778932	-1.518201	-0.251896
C62	C	-0.278932	-1.018201	0.248104
C63	C	-0.778890	-1.652667	-0.185082
C64	C	-0.278890	-1.152667	0.314918
C65	C	-0.724290	-1.652624	-0.185074
C66	C	-0.224290	-1.152624	0.314926
C67	C	-0.697010	-1.585370	-0.218478
C68	C	-0.197010	-1.085370	0.281522
C69	C	-0.724331	-1.518159	-0.251889
C70	C	-0.224331	-1.018159	0.248111
C71	C	-0.778970	-1.383734	-0.318720
C72	C	-0.278970	-0.883734	0.181280
C73	C	-0.724363	-1.383706	-0.318713
C74	C	-0.224363	-0.883706	0.181287
C75	C	-0.697042	-1.450922	-0.285299
C76	C	-0.197042	-0.950922	0.214701
C77	C	-0.642451	-1.450863	-0.285285
C78	C	-0.142451	-0.950863	0.214715
N79	N	-0.615127	-1.518082	-0.251877
N80	N	-0.115127	-1.018082	0.248123
C81	C	-0.642407	-1.585336	-0.218473
C82	C	-0.142407	-1.085336	0.281527
C83	C	-0.975527	-1.451099	-0.285324
C84	C	-0.475527	-0.951099	0.214676
C85	C	-1.030129	-1.451127	-0.285326
C86	C	-0.530129	-0.951127	0.214674
C87	C	-1.030085	-1.585605	-0.218511
C88	C	-0.530085	-1.085605	0.281489
C89	C	-0.975482	-1.585571	-0.218506
C90	C	-0.475482	-1.085571	0.281494
C91	C	-0.948203	-1.518318	-0.251915
C92	C	-0.448203	-1.018318	0.248085
C93	C	-0.527742	-1.585241	-0.218459
C94	C	-0.027742	-1.085241	0.281541
C95	C	-0.473137	-1.585190	-0.218453
C96	C	0.026863	-1.085190	0.281547
C97	C	-0.473185	-1.450716	-0.285270
C98	C	0.026815	-0.950716	0.214730
C99	C	-0.527786	-1.450763	-0.285274
C100	C	-0.027786	-0.950763	0.214726
C101	C	-0.555063	-1.518034	-0.251867
C102	C	-0.055063	-1.018034	0.248133
O103	O	-0.614187	-1.393671	-0.313666
O104	O	-0.114187	-0.893671	0.186334
O105	O	-0.614145	-1.642507	-0.190065
O106	O	-0.114145	-1.142507	0.309935
C107	C	-0.115527	-1.518298	-0.251909
C108	C	0.384473	-1.018298	0.248091
C109	C	-0.057413	-1.518386	-0.251924
C110	C	0.442587	-1.018386	0.248076
C111	C	-0.251907	-1.792125	-0.251884
C112	C	0.248093	-1.292125	0.248116
C113	C	-0.251910	-1.908902	-0.251889
C114	C	0.248090	-1.408902	0.248111
C115	C	-0.285393	-1.073471	-0.285250
C116	C	0.214607	-0.573471	0.214750
C117	C	-0.285395	-0.963747	-0.285260
C118	C	0.214605	-0.463747	0.214740
C119	C	-0.218417	-0.963786	-0.218508
C120	C	0.281583	-0.463786	0.281492
C121	C	-0.218413	-1.073508	-0.218501
C122	C	0.281587	-0.573508	0.281499
C123	C	-0.304174	-0.813815	-0.346898
C124	C	0.195826	-0.313815	0.153102
C125	C	-0.337671	-0.758935	-0.380272
C126	C	0.162329	-0.258935	0.119728
C127	C	-0.388698	-0.794487	-0.388204
C128	C	0.111302	-0.294487	0.111796
C129	C	-0.406238	-0.884918	-0.362753
C130	C	0.093762	-0.384918	0.137247
C131	C	-0.372744	-0.939793	-0.329375
C132	C	0.127256	-0.439793	0.170625
C133	C	-0.321710	-0.904242	-0.321454
C134	C	0.178290	-0.404242	0.178546
C135	C	-0.199639	-1.223442	-0.156863
C136	C	0.300361	-0.723442	0.343137
C137	C	-0.166147	-1.278319	-0.123481
C138	C	0.333853	-0.778319	0.376519
C139	C	-0.115119	-1.242769	-0.115545
C140	C	0.384881	-0.742769	0.384455
C141	C	-0.097581	-1.152335	-0.140986
C142	C	0.402419	-0.652335	0.359014
C143	C	-0.131073	-1.097458	-0.174367
C144	C	0.368927	-0.597458	0.325633
C145	C	-0.182100	-1.133015	-0.182305
C146	C	0.317900	-0.633015	0.317695
C147	C	-0.218349	-1.585472	-0.806741
C148	C	0.281651	-1.085472	-0.306741
C149	C	-0.218335	-1.585485	-0.861345
C150	C	0.281665	-1.085485	-0.361345
O151	O	-0.189881	-1.642649	-0.889596
O152	O	0.310119	-1.142649	-0.389596
N153	N	-0.251765	-1.518256	-0.888643
N154	N	0.248235	-1.018256	-0.388643
C155	C	-0.285208	-1.451002	-0.861334
C156	C	0.214792	-0.951002	-0.361334
O157	O	-0.313641	-1.393819	-0.889567
O158	O	0.186359	-0.893819	-0.389567
C159	C	-0.285219	-1.450985	-0.806731
C160	C	0.214781	-0.950985	-0.306731
C161	C	-0.251791	-1.518226	-0.779436
C162	C	0.248209	-1.018226	-0.279436
C163	C	-0.184923	-1.652707	-0.779445
C164	C	0.315077	-1.152707	-0.279445
C165	C	-0.184939	-1.652695	-0.724845
C166	C	0.315061	-1.152695	-0.224845
C167	C	-0.218380	-1.585449	-0.697540
C168	C	0.281620	-1.085449	-0.197540
C169	C	-0.251806	-1.518214	-0.724835
C170	C	0.248194	-1.018214	-0.224835
C171	C	-0.318659	-1.383726	-0.779423
C172	C	0.181341	-0.883726	-0.279423
C173	C	-0.318667	-1.383714	-0.724816
C174	C	0.181333	-0.883714	-0.224816
C175	C	-0.285239	-1.450955	-0.697521
C176	C	0.214761	-0.950955	-0.197521
C177	C	-0.285262	-1.450955	-0.642929
C178	C	0.214738	-0.950955	-0.142929
N179	N	-0.251833	-1.518184	-0.615631
N180	N	0.248167	-1.018184	-0.115631
C181	C	-0.218391	-1.585431	-0.642936
C182	C	0.281609	-1.085431	-0.142936
C183	C	-0.285180	-1.451043	-0.976005
C184	C	0.214820	-0.951043	-0.476005
C185	C	-0.285172	-1.451065	-1.030607
C186	C	0.214828	-0.951065	-0.530607
C187	C	-0.218298	-1.585547	-1.030614
C188	C	0.281702	-1.085547	-0.530614
C189	C	-0.218310	-1.585529	-0.976011
C190	C	0.281690	-1.085529	-0.476011
C191	C	-0.251750	-1.518272	-0.948707
C192	C	0.248250	-1.018272	-0.448707
C193	C	-0.218426	-1.585402	-0.528271
C194	C	0.281574	-1.085402	-0.028271
C195	C	-0.218446	-1.585387	-0.473666
C196	C	0.281554	-1.085387	0.026334
C197	C	-0.285317	-1.450901	-0.473663
C198	C	0.214683	-0.950901	0.026337
C199	C	-0.285300	-1.450920	-0.528264
C200	C	0.214700	-0.950920	-0.028264
C201	C	-0.251850	-1.518173	-0.555567
C202	C	0.248150	-1.018173	-0.055567
O203	O	-0.313700	-1.393818	-0.614643
O204	O	0.186300	-0.893818	-0.114643
O205	O	-0.189958	-1.642595	-0.614696
O206	O	0.310042	-1.142595	-0.114696
C207	C	-0.251872	-1.518119	-0.116031
C208	C	0.248128	-1.018119	0.383969
C209	C	-0.251728	-1.518308	-0.057917
C210	C	0.248272	-1.018308	0.442083
H211	H	-0.450894	-1.639925	-0.191241
H212	H	0.049106	-1.139925	0.308759
F213	F	-0.808036	-1.312201	-0.354290
F214	F	-0.308036	-0.812201	0.145710
F215	F	-0.182706	-1.657116	-1.059684
F216	F	0.317294	-1.157116	-0.559684
F217	F	-0.695335	-1.312126	-0.354274
F218	F	-0.195335	-0.812126	0.145726
F219	F	-1.059200	-1.379575	-0.320884
F220	F	-0.559200	-0.879575	0.179116
H221	H	-0.241189	-1.252403	-0.163327
H222	H	0.258811	-0.752403	0.336673
H223	H	-0.953240	-1.640304	-0.191298
H224	H	-0.453240	-1.140304	0.308702
H225	H	-0.345893	-1.328932	-0.702588
H226	H	0.154107	-0.828932	-0.202588
H227	H	-0.312398	-1.396322	-1.052827
H228	H	0.187602	-0.896322	-0.552827
H229	H	-0.953319	-1.396325	-0.312528
H230	H	-0.453319	-0.896325	0.187472
H231	H	-0.087852	-1.287455	-0.088358
H232	H	0.412148	-0.787455	0.411642
F233	F	-0.043272	-1.114491	-0.132536
F234	F	0.456728	-0.614491	0.367464
H235	H	-0.312546	-1.396154	-0.451422
H236	H	0.187454	-0.896154	0.048578
H237	H	-0.549944	-1.640022	-0.191257
H238	H	-0.049944	-1.140022	0.308743
H239	H	-0.702048	-1.707361	-0.157867
H240	H	-0.202048	-1.207361	0.342133
F241	F	-0.556864	-1.379206	-0.320828
F242	F	-0.056864	-0.879206	0.179172
H243	H	-0.312525	-1.396176	-0.550489
H244	H	0.187475	-0.896176	-0.050489
F245	F	-0.182731	-1.657094	-0.946966
F246	F	0.317269	-1.157094	-0.446966
F247	F	-0.321035	-1.131832	-0.320767
F248	F	0.178965	-0.631832	0.179233
F249	F	-0.807915	-1.724256	-0.149527
F250	F	-0.307915	-1.224256	0.350473
F251	F	-0.391409	-1.036028	-0.302289
F252	F	0.108591	-0.536028	0.197711
F253	F	-1.059127	-1.657182	-0.182959
F254	F	-0.559127	-1.157182	0.317041
F255	F	-0.460552	-0.922740	-0.371191
F256	F	0.039448	-0.422740	0.128809
F257	F	-0.149356	-1.724258	-0.695802
F258	F	0.350644	-1.224258	-0.195802
F259	F	-0.149332	-1.724296	-0.808497
F260	F	0.350668	-1.224296	-0.308497
H261	H	-0.450966	-1.395955	-0.312465
H262	H	0.049034	-0.895955	0.187535
F263	F	-0.319001	-0.662697	-0.407359
F264	F	0.180999	-0.162697	0.092641
H265	H	-0.180432	-1.351955	-0.102765
H266	H	0.319568	-0.851955	0.397235
H267	H	-0.415972	-0.749796	-0.415379
H268	H	0.084028	-0.249796	0.084621
F269	F	-0.182823	-1.656976	-0.557321
F270	F	0.317177	-1.156976	-0.057321
F271	F	-0.249862	-0.775981	-0.338467
F272	F	0.250138	-0.275981	0.161533
F273	F	-0.320778	-1.379460	-0.946950
F274	F	0.179222	-0.879460	-0.446950
H275	H	-0.191151	-0.919122	-0.191339
H276	H	0.308849	-0.419122	0.308661
H277	H	-0.345880	-1.328971	-0.801637
H278	H	0.154120	-0.828971	-0.301637
F279	F	-0.112407	-1.001204	-0.201442
F280	F	0.387593	-0.501204	0.298558
F281	F	-0.182866	-1.656959	-0.444619
F282	F	0.317134	-1.156959	0.055381
