data_functionalizedCrystal
_audit_creation_method	'MofGen! by Chris Wilmer'
_symmetry_space_group_name_H-M	'P1'
_symmetry_Int_Tables_number	1
_symmetry_cell_setting	triclinic
loop_
_symmetry_equiv_pos_as_xyz
  x,y,z
_cell_length_a	14.519709
_cell_length_b	17.038272
_cell_length_c	13.596369
_cell_angle_alpha	89.993837
_cell_angle_beta	90.000291
_cell_angle_gamma	87.395851
loop_
_atom_site_label
_atom_site_type_symbol
_atom_site_fract_x
_atom_site_fract_y
_atom_site_fract_z
O1	O	1.231711	0.102502	-0.081664
O2	O	0.964158	0.114573	-0.081694
O3	O	1.096344	-0.005280	-0.081671
O4	O	1.099525	0.222356	-0.081686
O5	O	1.096330	-0.005286	0.081912
O6	O	0.964143	0.114567	0.081889
O7	O	1.231696	0.102496	0.081919
Zn8	Zn	1.097918	0.108530	0.107877
Zn9	Zn	1.097937	0.108539	-0.107651
O10	O	1.099510	0.222349	0.081897
C11	C	0.929748	0.114008	0.000094
C12	C	0.827237	0.112322	0.000083
C13	C	1.093444	-0.034416	0.000120
C14	C	1.084814	-0.121223	0.000119
C15	C	0.451867	0.106116	0.000128
C16	C	0.556307	0.107839	0.000115
C17	C	0.639549	0.109219	0.000104
C18	C	0.743995	0.110942	0.000093
C19	C	1.164047	-0.171209	0.000129
C20	C	1.155933	-0.252773	0.000118
C21	C	1.068585	-0.284349	0.000105
C22	C	0.989347	-0.234357	0.000092
C23	C	0.997462	-0.152795	0.000096
C24	C	1.039916	-0.530153	0.000089
C25	C	1.031807	-0.611722	0.000088
C26	C	1.198394	-0.630132	0.000112
C27	C	1.206502	-0.548568	0.000122
C28	C	1.127263	-0.498583	0.000104
C29	C	1.060289	-0.367720	0.000098
C30	C	1.135560	-0.415213	0.000104
C31	C	1.266107	0.103062	0.000129
C32	C	1.368617	0.104748	0.000134
C33	C	1.102410	0.251486	0.000103
C34	C	1.111040	0.338292	0.000098
N35	N	1.097911	0.108524	0.254968
N36	N	1.097950	0.108539	-0.254743
C37	C	1.097936	0.108540	0.656259
C38	C	1.097926	0.108538	0.544608
C39	C	1.097924	0.108533	0.455617
C40	C	1.097913	0.108530	0.343959
H41	H	1.235175	-0.145506	0.000145
H42	H	0.975394	-0.489465	0.000074
H43	H	0.960675	-0.637427	0.000093
H44	H	1.262906	-0.670838	0.000125
C45	C	1.242068	-0.306913	0.000187
C46	C	1.320300	-0.261803	0.000234
C47	C	1.399668	-0.311649	0.000311
H48	H	1.242509	-0.339125	-0.056843
H49	H	1.242406	-0.339107	0.057254
H50	H	1.319963	-0.229622	-0.056827
H51	H	1.319890	-0.229592	0.057260
H52	H	1.400005	-0.343843	0.057378
H53	H	1.400099	-0.343859	-0.056720
H54	H	1.452757	-0.281049	0.000352
C55	C	1.301420	-0.514439	0.000090
C56	C	1.369074	-0.575673	0.000075
C57	C	1.456524	-0.544263	0.000041
H58	H	1.308167	-0.483023	0.057125
H59	H	1.308107	-0.483018	-0.056973
H60	H	1.362391	-0.607080	0.057133
H61	H	1.362358	-0.607093	-0.056955
H62	H	1.463211	-0.512843	-0.057022
H63	H	1.463261	-0.512848	0.057076
H64	H	1.502438	-0.585805	0.000022
C65	C	0.965374	-0.401854	0.000038
C66	C	0.897713	-0.340625	0.000010
C67	C	0.810267	-0.372041	-0.000063
H68	H	0.958613	-0.433287	0.057063
H69	H	0.958708	-0.433258	-0.057035
H70	H	0.904376	-0.309234	0.057076
H71	H	0.904443	-0.309187	-0.057011
H72	H	0.803601	-0.403446	-0.057136
H73	H	0.803516	-0.403474	0.056963
H74	H	0.764349	-0.330503	-0.000091
H75	H	0.918226	-0.260072	0.000075
H76	H	0.932942	-0.112096	0.000087
H77	H	1.206678	-0.389500	0.000093
