data_functionalizedCrystal
_audit_creation_method	'MofGen! by Chris Wilmer'
_symmetry_space_group_name_H-M	'P1'
_symmetry_Int_Tables_number	1
_symmetry_cell_setting	triclinic
loop_
_symmetry_equiv_pos_as_xyz
  x,y,z
_cell_length_a	27.732048
_cell_length_b	10.654541
_cell_length_c	9.730217
_cell_angle_alpha	89.999557
_cell_angle_beta	90.002566
_cell_angle_gamma	96.436708
loop_
_atom_site_label
_atom_site_type_symbol
_atom_site_fract_x
_atom_site_fract_y
_atom_site_fract_z
O1	O	0.641856	-0.149408	-0.114113
O2	O	0.501204	-0.172127	-0.114154
O3	O	0.574765	0.022108	-0.114124
O4	O	0.568296	-0.343643	-0.114143
O5	O	0.574760	0.022096	0.114456
O6	O	0.501199	-0.172139	0.114426
O7	O	0.641851	-0.149420	0.114467
Zn8	Zn	0.571525	-0.160781	0.150739
Zn9	Zn	0.571531	-0.160765	-0.150425
O10	O	0.568291	-0.343655	0.114437
C11	C	0.483192	-0.171656	0.000131
C12	C	0.429528	-0.170220	0.000115
N13	N	0.571524	-0.160791	0.356275
C14	C	0.574288	0.068880	0.000165
C15	C	0.572867	0.208264	0.000162
C16	C	0.091371	-0.275959	0.000169
C17	C	-0.110322	-0.270631	0.000182
O18	O	-0.140975	-0.367323	0.000236
N19	N	-0.130162	-0.155458	0.000185
C20	C	-0.099576	-0.041609	0.000195
O21	O	-0.121080	0.056476	0.000212
C22	C	0.102116	-0.046938	0.000192
C23	C	0.121953	-0.162119	0.000174
C24	C	0.111209	-0.391131	0.000153
C25	C	0.161630	-0.392462	0.000143
C26	C	0.192212	-0.278621	0.000148
C27	C	0.172374	-0.163450	0.000164
C28	C	0.132701	0.066910	0.000211
C29	C	0.183126	0.065567	0.000214
C30	C	0.202964	-0.049613	0.000196
C31	C	0.253376	-0.050940	0.000158
N32	N	0.273217	-0.166113	0.000155
C33	C	0.242634	-0.279954	0.000150
C34	C	-0.205468	-0.038819	0.000193
C35	C	-0.255890	-0.037486	0.000191
C36	C	-0.266632	-0.266509	0.000181
C37	C	-0.216209	-0.267841	0.000173
C38	C	-0.185627	-0.153992	0.000190
C39	C	0.348521	-0.282740	0.000126
C40	C	0.398946	-0.284060	0.000110
C41	C	0.409684	-0.055038	0.000127
C42	C	0.359263	-0.053716	0.000136
C43	C	0.328682	-0.167578	0.000141
O44	O	0.284058	0.045700	0.000119
O45	O	0.264147	-0.378023	0.000163
C46	C	0.040951	-0.274629	0.000180
C47	C	0.021113	-0.159457	0.000196
C48	C	0.051695	-0.045617	0.000201
C49	C	-0.029310	-0.158125	0.000194
C50	C	-0.059892	-0.271965	0.000189
C51	C	-0.040051	-0.387138	0.000185
C52	C	0.010369	-0.388469	0.000175
C53	C	0.031854	0.069557	0.000204
C54	C	-0.018566	0.070878	0.000213
C55	C	-0.049148	-0.042962	0.000208
C56	C	0.659864	-0.149891	0.000180
C57	C	0.713528	-0.151327	0.000186
C58	C	0.568768	-0.390427	0.000145
C59	C	0.570189	-0.529811	0.000139
C60	C	0.660829	0.239933	0.000206
C61	C	0.704140	0.321248	0.000230
C62	C	0.702803	0.452210	0.000225
C63	C	0.658149	0.501858	0.000192
C64	C	0.614838	0.420543	0.000168
C65	C	0.616180	0.289580	0.000177
C66	C	0.526877	0.388874	0.000115
C67	C	0.528213	0.257912	0.000129
C68	C	0.482223	0.438522	0.000082
C69	C	0.438911	0.357207	0.000067
C70	C	0.440250	0.226238	0.000074
C71	C	0.484902	0.176597	0.000105
N72	N	0.571536	-0.160746	-0.355962
C73	C	0.512407	-0.009455	0.644018
C74	C	0.482838	0.066174	0.572068
C75	C	0.482828	0.066150	0.428189
C76	C	0.512393	-0.009509	0.356255
C77	C	0.541963	-0.085138	0.428205
C78	C	0.541968	-0.085108	0.572088
C79	C	0.601093	-0.236420	0.428225
C80	C	0.601101	-0.236404	0.572105
C81	C	0.630658	-0.312078	0.356292
C82	C	0.660226	-0.387716	0.428242
C83	C	0.660234	-0.387690	0.572130
C84	C	0.630671	-0.312033	0.644055
H85	H	0.415095	-0.377858	0.000095
H86	H	0.026516	-0.482261	0.000162
H87	H	0.684315	-0.449272	0.630703
Cl88	Cl	0.334323	0.091084	0.000165
Cl89	Cl	-0.167029	0.104321	0.000210
Cl90	Cl	0.630676	-0.311998	0.824933
H91	H	0.657064	0.608495	0.000171
H92	H	0.323628	-0.375456	0.000134
H93	H	0.684298	-0.449305	0.369662
H94	H	0.512388	-0.009510	0.239101
Cl95	Cl	0.486590	0.011961	0.000122
Cl96	Cl	0.445672	0.161282	0.662505
H97	H	0.116558	0.160702	0.000226
H98	H	0.177776	-0.486253	0.000128
H99	H	0.481137	0.545160	0.000069
Cl100	Cl	0.385798	0.124023	0.000033
H101	H	0.661922	0.133298	0.000228
H102	H	0.630651	-0.312086	0.239137
H103	H	0.086314	-0.483839	0.000154
Cl104	Cl	-0.191275	-0.412644	0.000156
Cl105	Cl	0.382781	0.419629	0.000009
H106	H	0.512408	-0.009437	0.761173
Cl107	Cl	-0.305087	-0.409622	0.000180
H108	H	0.434593	0.037648	0.000126
Cl109	Cl	0.445661	0.161243	0.337733
Cl110	Cl	0.757252	0.554438	0.000244
H111	H	-0.272037	0.056306	0.000184
Cl112	Cl	-0.078507	-0.530251	0.000173
Cl113	Cl	0.221569	0.208701	0.000237
Cl114	Cl	-0.043498	0.215692	0.000218
H115	H	0.740497	0.280810	0.000269
Cl116	Cl	0.070293	0.212686	0.000211
