data_functionalizedCrystal
_audit_creation_method	'MofGen! by Chris Wilmer'
_symmetry_space_group_name_H-M	'P1'
_symmetry_Int_Tables_number	1
_symmetry_cell_setting	triclinic
loop_
_symmetry_equiv_pos_as_xyz
  x,y,z
_cell_length_a	13.032831
_cell_length_b	29.839131
_cell_length_c	29.839126
_cell_angle_alpha	89.978002
_cell_angle_beta	82.804042
_cell_angle_gamma	82.845366
loop_
_atom_site_label
_atom_site_type_symbol
_atom_site_fract_x
_atom_site_fract_y
_atom_site_fract_z
Zn1	Zn	1.597520	-0.266263	-0.341065
Zn2	Zn	2.097520	0.233737	0.158935
Zn3	Zn	1.597320	-0.341370	-0.265924
Zn4	Zn	2.097320	0.158630	0.234076
Zn5	Zn	1.422748	-0.256708	-0.256423
Zn6	Zn	1.922748	0.243292	0.243577
Zn7	Zn	1.422668	-0.331805	-0.331508
Zn8	Zn	1.922668	0.168195	0.168492
O9	O	1.510064	-0.299036	-0.298730
O10	O	2.010064	0.200964	0.201270
O11	O	1.743728	-0.284229	-0.339074
O12	O	2.243728	0.215771	0.160926
O13	O	1.574112	-0.330144	-0.201794
O14	O	2.074112	0.169856	0.298206
O15	O	1.446049	-0.195115	-0.267675
O16	O	1.946049	0.304885	0.232325
O17	O	1.743582	-0.339409	-0.283868
O18	O	2.243582	0.160591	0.216132
O19	O	1.574453	-0.202135	-0.329861
O20	O	2.074453	0.297865	0.170139
O21	O	1.445855	-0.267942	-0.194814
O22	O	1.945855	0.232058	0.305186
O23	O	1.276502	-0.258667	-0.258408
O24	O	1.776502	0.241333	0.241592
O25	O	1.445913	-0.323106	-0.395646
O26	O	1.945913	0.176894	0.104354
O27	O	1.276444	-0.313841	-0.313572
O28	O	1.776444	0.186159	0.186428
O29	O	1.574376	-0.274953	-0.402667
O30	O	2.074376	0.225047	0.097333
O31	O	1.574035	-0.402962	-0.274601
O32	O	2.074035	0.097038	0.225399
O33	O	1.445719	-0.395934	-0.322784
O34	O	1.945719	0.104066	0.177216
C35	C	1.238556	-0.284179	-0.283922
C36	C	1.738556	0.215821	0.216078
C37	C	1.122403	-0.277834	-0.277597
C38	C	1.622403	0.222166	0.222403
C39	C	1.509875	-0.415749	-0.298698
C40	C	2.009875	0.084251	0.201302
C41	C	1.509890	-0.465684	-0.298704
C42	C	2.009890	0.034316	0.201296
C43	C	1.070617	-0.302348	-0.302031
C44	C	1.570617	0.197652	0.197969
C45	C	0.950568	-0.295791	-0.295495
C46	C	1.450568	0.204209	0.204505
C47	C	1.577000	-0.778990	-0.273690
C48	C	2.077000	-0.278990	0.226310
C49	C	1.577129	-0.966670	-0.273714
C50	C	2.077129	-0.466670	0.226286
O51	O	1.634038	-0.994041	-0.252420
O52	O	2.134038	-0.494041	0.247580
N53	N	1.510281	-0.986490	-0.298776
N54	N	2.010281	-0.486490	0.201224
C55	C	1.443401	-0.959387	-0.323836
C56	C	1.943401	-0.459387	0.176164
O57	O	1.386553	-0.980553	-0.345157
O58	O	1.886553	-0.480553	0.154843
C59	C	1.443278	-0.771709	-0.323814
C60	C	1.943278	-0.271709	0.176186
C61	C	1.510122	-0.751891	-0.298747
C62	C	2.010122	-0.251891	0.201253
C63	C	1.643840	-0.759172	-0.248625
C64	C	2.143840	-0.259172	0.251375
C65	C	1.643803	-0.712254	-0.248617
C66	C	2.143803	-0.212254	0.251383
C67	C	1.576926	-0.685155	-0.273674
C68	C	2.076926	-0.185155	0.226326
C69	C	1.510085	-0.704973	-0.298739
C70	C	2.010085	-0.204973	0.201261
C71	C	1.376404	-0.744607	-0.348876
C72	C	1.876404	-0.244607	0.151124
C73	C	1.376381	-0.697685	-0.348869
C74	C	1.876381	-0.197685	0.151131
C75	C	1.443225	-0.677867	-0.323802
C76	C	1.943225	-0.177867	0.176198
C77	C	1.443171	-0.630956	-0.323788
C78	C	1.943171	-0.130956	0.176212
N79	N	1.510019	-0.611136	-0.298726
N80	N	2.010019	-0.111136	0.201274
C81	C	1.576896	-0.638236	-0.273669
C82	C	2.076896	-0.138236	0.226331
C83	C	1.443468	-1.057922	-0.323845
C84	C	1.943468	-0.557922	0.176155
C85	C	1.443498	-1.104841	-0.323850
C86	C	1.943498	-0.604841	0.176150
C87	C	1.577227	-1.112121	-0.273729
C88	C	2.077227	-0.612121	0.226271
C89	C	1.577192	-1.065200	-0.273721
C90	C	2.077192	-0.565200	0.226279
C91	C	1.510316	-1.038102	-0.298783
C92	C	2.010316	-0.538102	0.201217
C93	C	1.576813	-0.539705	-0.273654
C94	C	2.076813	-0.039705	0.226346
C95	C	1.576767	-0.492783	-0.273647
C96	C	2.076767	0.007217	0.226353
C97	C	1.443042	-0.485508	-0.323770
C98	C	1.943042	0.014492	0.176230
C99	C	1.443083	-0.532426	-0.323776
C100	C	1.943083	-0.032426	0.176224
C101	C	1.509978	-0.559524	-0.298716
C102	C	2.009978	-0.059524	0.201284
O103	O	1.386300	-0.603559	-0.345074
O104	O	1.886300	-0.103559	0.154926
O105	O	1.633752	-0.617063	-0.252359
O106	O	2.133752	-0.117063	0.247641
C107	C	1.577037	-0.825908	-0.273697
C108	C	2.077037	-0.325908	0.226303
C109	C	1.510196	-0.845726	-0.298762
C110	C	2.010196	-0.345726	0.201238
C111	C	1.443319	-0.818626	-0.323819
C112	C	1.943319	-0.318626	0.176181
C113	C	1.510226	-0.892645	-0.298767
C114	C	2.010226	-0.392645	0.201233
C115	C	1.577103	-0.919744	-0.273710
C116	C	2.077103	-0.419744	0.226290
C117	C	1.643951	-0.899924	-0.248648
C118	C	2.143951	-0.399924	0.251352
C119	C	1.643914	-0.853007	-0.248640
C120	C	2.143914	-0.353007	0.251360
C121	C	1.376471	-0.838446	-0.348881
C122	C	1.876471	-0.338446	0.151119
C123	C	1.376513	-0.885364	-0.348887
C124	C	1.876513	-0.385364	0.151113
C125	C	1.443390	-0.912464	-0.323830
C126	C	1.943390	-0.412464	0.176170
C127	C	1.782632	-0.313952	-0.313597
C128	C	2.282632	0.186048	0.186403
C129	C	1.898785	-0.320308	-0.319932
C130	C	2.398785	0.179692	0.180068
C131	C	1.510158	-0.299029	-0.415914
C132	C	2.010158	0.200971	0.084086
C133	C	1.510198	-0.299025	-0.465850
C134	C	2.010198	0.200975	0.034150
C135	C	1.510282	-0.181870	-0.298774
C136	C	2.010282	0.318130	0.201226
C137	C	1.510375	-0.131941	-0.298793
C138	C	2.010375	0.368059	0.201207
C139	C	1.576967	-0.331353	-0.826075
C140	C	2.076967	0.168647	-0.326075
C141	C	1.576969	-0.331384	-0.638402
C142	C	2.076969	0.168616	-0.138402
O143	O	1.633728	-0.358940	-0.617229
O144	O	2.133728	0.141060	-0.117229
N145	N	1.510193	-0.299003	-0.611295
N146	N	2.010193	0.200997	-0.111295
C147	C	1.443407	-0.266614	-0.631110
C148	C	1.943407	0.233386	-0.131110
O149	O	1.386602	-0.239076	-0.603748
O150	O	1.886602	0.260924	-0.103748
C151	C	1.443401	-0.266585	-0.818782
C152	C	1.943401	0.233415	-0.318782
C153	C	1.510188	-0.298965	-0.845886
C154	C	2.010188	0.201035	-0.345886
C155	C	1.643749	-0.363730	-0.853179
C156	C	2.143749	0.136270	-0.353179
C157	C	1.643752	-0.363721	-0.900094
C158	C	2.143752	0.136279	-0.400094
C159	C	1.576973	-0.331333	-0.919906
C160	C	2.076973	0.168667	-0.419906
C161	C	1.510191	-0.298956	-0.892802
C162	C	2.010191	0.201044	-0.392802
C163	C	1.376610	-0.234199	-0.838595
C164	C	1.876610	0.265801	-0.338595
C165	C	1.376612	-0.234195	-0.885516
C166	C	1.876612	0.265805	-0.385516
C167	C	1.443400	-0.266575	-0.912621
C168	C	1.943400	0.233425	-0.412621
C169	C	1.443416	-0.266559	-0.959529
C170	C	1.943416	0.233441	-0.459529
N171	N	1.510192	-0.298939	-0.986635
N172	N	2.010192	0.201061	-0.486635
C173	C	1.576970	-0.331327	-0.966824
C174	C	2.076970	0.168673	-0.466824
C175	C	1.443416	-0.266631	-0.532580
C176	C	1.943416	0.233369	-0.032580
C177	C	1.443419	-0.266638	-0.485662
C178	C	1.943419	0.233362	0.014338
C179	C	1.576980	-0.331408	-0.492957
C180	C	2.076980	0.168592	0.007043
C181	C	1.576982	-0.331399	-0.539876
C182	C	2.076982	0.168601	-0.039876
C183	C	1.510192	-0.299012	-0.559686
C184	C	2.010192	0.200988	-0.059686
C185	C	1.576972	-0.331304	-1.065350
C186	C	2.076972	0.168696	-0.565350
C187	C	1.576972	-0.331290	-1.112269
C188	C	2.076972	0.168710	-0.612269
C189	C	1.443408	-0.266521	-1.104970
C190	C	1.943408	0.233479	-0.604970
C191	C	1.443411	-0.266533	-1.058055
C192	C	1.943411	0.233467	-0.558055
C193	C	1.510197	-0.298928	-1.038246
C194	C	2.010197	0.201072	-0.538246
O195	O	1.386678	-0.239020	-0.980732
O196	O	1.886678	0.260980	-0.480732
O197	O	1.633750	-0.358867	-0.994192
O198	O	2.133750	0.141133	-0.494192
C199	C	1.576964	-0.331362	-0.779159
C200	C	2.076964	0.168638	-0.279159
C201	C	1.510183	-0.298985	-0.752055
C202	C	2.010183	0.201015	-0.252055
C203	C	1.443404	-0.266597	-0.771866
C204	C	1.943404	0.233403	-0.271866
C205	C	1.510185	-0.298991	-0.705137
C206	C	2.010185	0.201009	-0.205137
C207	C	1.576964	-0.331379	-0.685326
C208	C	2.076964	0.168621	-0.185326
C209	C	1.643740	-0.363760	-0.712432
C210	C	2.143740	0.136240	-0.212432
C211	C	1.643743	-0.363750	-0.759347
C212	C	2.143743	0.136250	-0.259347
C213	C	1.376628	-0.234217	-0.744760
C214	C	1.876628	0.265783	-0.244760
C215	C	1.376631	-0.234229	-0.697845
C216	C	1.876631	0.265771	-0.197845
C217	C	1.443410	-0.266616	-0.678033
C218	C	1.943410	0.233384	-0.178033
C219	C	1.510031	-0.299015	-0.182006
C220	C	2.010031	0.200985	0.317994
C221	C	1.510193	-0.298903	-0.132081
C222	C	2.010193	0.201097	0.367919
H223	H	1.115158	-0.328188	-0.327790
H224	H	1.615158	0.171812	0.172210
H225	H	1.388588	-0.463436	-0.344170
H226	H	1.888588	0.036564	0.155830
H227	H	1.389056	-1.120972	-0.344258
H228	H	1.889056	-0.620972	0.155742
H229	H	1.389045	-0.240266	-0.463598
H230	H	1.889045	0.259734	0.036402
F231	F	1.648050	-0.365878	-0.471864
F232	F	2.148050	0.134122	0.028136
F233	F	1.372284	-1.029087	-0.350521
F234	F	1.872284	-0.529087	0.149479
H235	H	1.698237	-0.696122	-0.228207
H236	H	2.198237	-0.196122	0.271793
F237	F	0.892360	-0.262009	-0.261828
F238	F	1.392360	0.237991	0.238172
F239	F	1.064191	-0.244054	-0.243932
F240	F	1.564191	0.255946	0.256068
H241	H	0.943320	-0.346149	-0.345694
H242	H	1.443320	0.153851	0.154306
H243	H	1.631200	-0.476649	-0.253233
H244	H	2.131200	0.023351	0.246767
H245	H	1.631287	-0.561763	-0.253250
H246	H	2.131287	-0.061763	0.246750
F247	F	1.715028	-0.788007	-0.221954
F248	F	2.215028	-0.288007	0.278046
H249	H	1.389025	-0.240256	-0.548704
H250	H	1.889025	0.259744	-0.048704
F251	F	1.305266	-0.765689	-0.375561
F252	F	1.805266	-0.265689	0.124439
H253	H	1.631623	-1.049068	-0.253310
H254	H	2.131623	-0.549068	0.246690
H255	H	1.322223	-0.207821	-0.901643
H256	H	1.822223	0.292179	-0.401643
H257	H	1.631682	-1.134193	-0.253326
H258	H	2.131682	-0.634193	0.246674
F259	F	1.372340	-0.232067	-1.029208
F260	F	1.872340	0.267933	-0.529208
H261	H	1.631363	-0.357658	-1.134336
H262	H	2.131363	0.142342	-0.634336
F263	F	1.305202	-0.668847	-0.375545
F264	F	1.805202	-0.168847	0.124455
H265	H	1.322013	-0.816385	-0.369286
H266	H	1.822013	-0.316385	0.130714
F267	F	1.371921	-0.553517	-0.350445
F268	F	1.871921	-0.053517	0.149555
F269	F	1.305547	-0.199761	-0.669003
F270	F	1.805547	0.300239	-0.169003
F271	F	1.715063	-0.831921	-0.221962
F272	F	2.215063	-0.331921	0.278038
H273	H	1.698402	-0.921997	-0.228244
H274	H	2.198402	-0.421997	0.271756
H275	H	1.322070	-0.901495	-0.369298
H276	H	1.822070	-0.401495	0.130702
H277	H	1.631362	-0.357680	-1.049227
H278	H	2.131362	0.142320	-0.549227
H279	H	1.389041	-0.240151	-1.121109
H280	H	1.889041	0.259849	-0.621109
H281	H	1.698134	-0.390089	-0.922159
H282	H	2.198134	0.109911	-0.422159
H283	H	1.698129	-0.390106	-0.837054
H284	H	2.198129	0.109894	-0.337054
F285	F	1.648065	-0.365863	-0.568718
F286	F	2.148065	0.134137	-0.068718
H287	H	1.322222	-0.207832	-0.816534
H288	H	1.822222	0.292168	-0.316534
F289	F	1.714826	-0.398214	-0.788188
F290	F	2.214826	0.101786	-0.288188
F291	F	1.714815	-0.398227	-0.691339
F292	F	2.214815	0.101773	-0.191339
F293	F	1.305531	-0.199750	-0.765837
F294	F	1.805531	0.300250	-0.265837
