data_functionalizedCrystal
_audit_creation_method	'MofGen! by Chris Wilmer'
_symmetry_space_group_name_H-M	'P1'
_symmetry_Int_Tables_number	1
_symmetry_cell_setting	triclinic
loop_
_symmetry_equiv_pos_as_xyz
  x,y,z
_cell_length_a	17.699097
_cell_length_b	16.776229
_cell_length_c	17.699083
_cell_angle_alpha	89.992455
_cell_angle_beta	83.285722
_cell_angle_gamma	89.989262
loop_
_atom_site_label
_atom_site_type_symbol
_atom_site_fract_x
_atom_site_fract_y
_atom_site_fract_z
O1	O	1.004072	-0.066356	0.095761
O2	O	1.337406	0.266977	0.429094
O3	O	1.670739	0.600311	0.762427
O4	O	0.783695	-0.066343	0.108203
O5	O	1.117028	0.266990	0.441536
O6	O	1.450362	0.600323	0.774869
O7	O	0.900110	-0.066343	-0.008207
O8	O	1.233443	0.266990	0.325126
O9	O	1.566777	0.600324	0.658460
O10	O	0.887657	-0.066356	0.212171
O11	O	1.220991	0.266977	0.545504
O12	O	1.554324	0.600310	0.878837
O13	O	0.900094	0.066234	-0.008214
O14	O	1.233428	0.399567	0.325119
O15	O	1.566761	0.732900	0.658452
O16	O	0.783680	0.066233	0.108196
O17	O	1.117013	0.399567	0.441529
O18	O	1.450346	0.732900	0.774862
O19	O	1.004057	0.066221	0.095754
O20	O	1.337390	0.399554	0.429087
O21	O	1.670723	0.732887	0.762420
Zn22	Zn	0.893866	0.087276	0.101974
Zn23	Zn	1.227199	0.420610	0.435307
Zn24	Zn	1.560532	0.753943	0.768640
Zn25	Zn	0.893886	-0.087399	0.101983
Zn26	Zn	1.227219	0.245934	0.435316
Zn27	Zn	1.560553	0.579268	0.768650
O28	O	0.887642	0.066220	0.212164
O29	O	1.220975	0.399554	0.545497
O30	O	1.554309	0.732887	0.878830
C31	C	0.755491	-0.000053	0.107752
C32	C	1.088824	0.333280	0.441085
C33	C	1.422157	0.666613	0.774418
C34	C	0.671473	-0.000048	0.106409
C35	C	1.004806	0.333285	0.439742
C36	C	1.338140	0.666618	0.773076
C37	C	0.155763	-0.072347	0.098184
C38	C	0.489097	0.260986	0.431517
C39	C	0.822430	0.594319	0.764850
C40	C	0.234707	-0.072343	0.099440
C41	C	0.568041	0.260990	0.432773
C42	C	0.901374	0.594323	0.766107
C43	C	0.274165	-0.000073	0.100065
C44	C	0.607498	0.333261	0.433399
C45	C	0.940832	0.666594	0.766732
C46	C	0.234675	0.072199	0.099427
C47	C	0.568009	0.405532	0.432760
C48	C	0.901342	0.738865	0.766093
C49	C	0.155733	0.072194	0.098165
C50	C	0.489067	0.405527	0.431498
C51	C	0.822400	0.738861	0.764832
C52	C	0.553039	0.072219	0.104514
C53	C	0.886373	0.405553	0.437847
C54	C	1.219706	0.738886	0.771181
C55	C	0.631987	0.072219	0.105778
C56	C	0.965320	0.405552	0.439112
C57	C	1.298653	0.738885	0.772445
C58	C	0.632013	-0.072318	0.105789
C59	C	0.965347	0.261015	0.439122
C60	C	1.298680	0.594349	0.772456
C61	C	0.553071	-0.072323	0.104527
C62	C	0.886405	0.261011	0.437861
C63	C	1.219738	0.594344	0.771194
C64	C	0.513589	-0.000052	0.103885
C65	C	0.846923	0.333282	0.437218
C66	C	1.180256	0.666615	0.770551
C67	C	0.427989	-0.000057	0.102521
C68	C	0.761323	0.333276	0.435854
C69	C	1.094656	0.666610	0.769188
C70	C	0.359763	-0.000067	0.101434
C71	C	0.693096	0.333266	0.434768
C72	C	1.026429	0.666600	0.768101
C73	C	0.899656	-0.000055	-0.036408
C74	C	1.232989	0.333279	0.296926
C75	C	1.566323	0.666612	0.630259
C76	C	0.898317	-0.000054	-0.120426
C77	C	1.231651	0.333279	0.212907
C78	C	1.564984	0.666613	0.546241
C79	C	1.032261	-0.000071	0.096205
C80	C	1.365595	0.333262	0.429538
C81	C	1.698928	0.666595	0.762871
C82	C	1.116279	-0.000081	0.097547
C83	C	1.449612	0.333252	0.430881
C84	C	1.782946	0.666585	0.764214
N85	N	0.893857	0.206488	0.101967
N86	N	1.227191	0.539821	0.435300
N87	N	1.560524	0.873154	0.768633
N88	N	0.893900	-0.206610	0.101984
N89	N	1.227234	0.126723	0.435317
N90	N	1.560567	0.460056	0.768650
C91	C	0.945422	0.248205	0.050441
C92	C	1.278755	0.581538	0.383775
C93	C	1.612088	0.914871	0.717108
C94	C	0.945426	0.331657	0.050441
C95	C	1.278759	0.664990	0.383774
C96	C	1.612092	0.998324	0.717107
C97	C	0.893869	0.373390	0.101970
C98	C	1.227202	0.706724	0.435303
C99	C	1.560536	1.040057	0.768636
C100	C	0.842299	0.331667	0.153497
C101	C	1.175633	0.665001	0.486831
C102	C	1.508966	0.998334	0.820164
C103	C	0.842292	0.248217	0.153494
C104	C	1.175625	0.581550	0.486827
C105	C	1.508959	0.914883	0.820160
C106	C	0.842327	0.668215	0.153512
C107	C	1.175660	1.001548	0.486845
C108	C	1.508993	1.334881	0.820179
C109	C	0.842339	0.751671	0.153513
C110	C	1.175673	1.085004	0.486847
C111	C	1.509006	1.418338	0.820180
C112	C	0.945460	0.751655	0.050459
C113	C	1.278794	1.084988	0.383793
C114	C	1.612127	1.418321	0.717126
C115	C	0.945453	0.668204	0.050456
C116	C	1.278786	1.001537	0.383789
C117	C	1.612120	1.334871	0.717122
C118	C	0.893881	0.626488	0.101980
C119	C	1.227215	0.959822	0.435314
C120	C	1.560548	1.293155	0.768647
C121	C	0.893876	0.536000	0.101979
C122	C	1.227210	0.869333	0.435313
C123	C	1.560543	1.202667	0.768646
C124	C	0.893877	0.463877	0.101975
C125	C	1.227210	0.797211	0.435308
C126	C	1.560543	1.130544	0.768641
C127	C	0.966650	-0.000057	-0.169044
C128	C	1.299984	0.333276	0.164290
C129	C	1.633317	0.666610	0.497623
C130	C	0.965388	-0.000064	-0.247987
C131	C	1.298721	0.333269	0.085346
C132	C	1.632055	0.666603	0.418680
C133	C	0.895792	-0.000062	-0.278311
C134	C	1.229125	0.333271	0.055022
C135	C	1.562459	0.666604	0.388356
C136	C	0.827454	-0.000062	-0.229687
C137	C	1.160787	0.333271	0.103646
C138	C	1.494121	0.666605	0.436980
C139	C	0.828717	-0.000061	-0.150745
C140	C	1.162050	0.333273	0.182588
C141	C	1.495384	0.666606	0.515921
C142	C	0.822359	-0.000068	-0.548050
C143	C	1.155692	0.333265	-0.214717
C144	C	1.489025	0.666599	0.118616
C145	C	0.821101	-0.000067	-0.626998
C146	C	1.154434	0.333266	-0.293665
C147	C	1.487767	0.666600	0.039668
C148	C	0.959030	-0.000071	-0.645292
C149	C	1.292363	0.333262	-0.311959
C150	C	1.625696	0.666595	0.021375
C151	C	0.960293	-0.000070	-0.566350
C152	C	1.293626	0.333263	-0.233017
C153	C	1.626960	0.666597	0.100316
C154	C	0.891955	-0.000074	-0.517733
C155	C	1.225288	0.333259	-0.184400
C156	C	1.558622	0.666593	0.148933
C157	C	0.893325	-0.000068	-0.432134
C158	C	1.226658	0.333265	-0.098801
C159	C	1.559991	0.666599	0.234533
C160	C	0.894422	-0.000063	-0.363909
C161	C	1.227755	0.333271	-0.030575
C162	C	1.561088	0.666604	0.302758
C163	C	0.888096	-0.000070	0.240364
C164	C	1.221429	0.333263	0.573697
C165	C	1.554763	0.666597	0.907031
C166	C	0.889435	-0.000076	0.324382
C167	C	1.222768	0.333258	0.657716
C168	C	1.556101	0.666591	0.991049
H169	H	0.123585	0.131040	0.097655
H170	H	0.456918	0.464374	0.430988
H171	H	0.790252	0.797707	0.764322
H172	H	1.021032	-0.000065	-0.287569
H173	H	1.354365	0.333269	0.045764
H174	H	1.687698	0.666602	0.379098
F175	F	1.000305	0.376056	-0.004399
F176	F	1.333638	0.709389	0.328935
F177	F	1.666972	1.042722	0.662268
F178	F	1.000346	0.796058	-0.004381
F179	F	1.333680	1.129391	0.328952
F180	F	1.667013	1.462724	0.662286
H181	H	1.016965	-0.000067	-0.541665
H182	H	1.350298	0.333266	-0.208332
H183	H	1.683632	0.666599	0.125002
F184	F	1.031762	-0.000070	-0.697040
F185	F	1.365095	0.333263	-0.363707
F186	F	1.698428	0.666596	-0.030374
H187	H	0.773073	-0.000059	-0.111161
H188	H	1.106406	0.333275	0.222173
H189	H	1.439740	0.666608	0.555506
F190	F	1.000300	0.203797	-0.004400
F191	F	1.333634	0.537130	0.328933
F192	F	1.666967	0.870463	0.662266
F193	F	0.113776	-0.149269	0.097523
F194	F	0.447109	0.184064	0.430857
F195	F	0.780442	0.517398	0.764190
F196	F	0.787408	0.203819	0.208332
F197	F	1.120741	0.537153	0.541665
F198	F	1.454075	0.870486	0.874999
F199	F	1.000329	0.623792	-0.004385
F200	F	1.333662	0.957125	0.328948
F201	F	1.666996	1.290458	0.662282
H202	H	0.764424	-0.000064	-0.651685
H203	H	1.097757	0.333269	-0.318351
H204	H	1.431091	0.666602	0.014982
H205	H	0.766714	-0.000071	-0.508475
H206	H	1.100047	0.333262	-0.175142
H207	H	1.433380	0.666596	0.158191
H208	H	0.520904	0.131067	0.103980
H209	H	0.854237	0.464400	0.437313
H210	H	1.187571	0.797734	0.770647
F211	F	0.276727	-0.149259	0.100114
F212	F	0.610060	0.184074	0.433447
F213	F	0.943393	0.517408	0.766780
F214	F	0.276671	0.149115	0.100090
F215	F	0.610005	0.482448	0.433424
F216	F	0.943338	0.815782	0.766757
F217	F	0.787462	0.796085	0.208359
F218	F	1.120795	1.129419	0.541693
F219	F	1.454129	1.462752	0.875026
F220	F	0.753384	-0.000069	-0.261962
F221	F	1.086717	0.333264	0.071371
F222	F	1.420051	0.666597	0.404704
H223	H	0.520948	-0.131173	0.104022
H224	H	0.854282	0.202160	0.437355
H225	H	1.187615	0.535494	0.770688
F226	F	1.040725	-0.000051	-0.136778
F227	F	1.374058	0.333282	0.196555
F228	F	1.707392	0.666616	0.529889
H229	H	0.800336	0.634256	0.195466
H230	H	1.133670	0.967589	0.528800
H231	H	1.467003	1.300923	0.862133
F232	F	0.787424	0.376084	0.208335
F233	F	1.120758	0.709417	0.541669
F234	F	1.454091	1.042751	0.875002
F235	F	0.674040	-0.149236	0.106468
F236	F	1.007373	0.184097	0.439801
F237	F	1.340707	0.517430	0.773135
H238	H	0.664111	0.131074	0.106287
H239	H	0.997444	0.464407	0.439621
H240	H	1.330777	0.797740	0.772954
