data_functionalizedCrystal
_audit_creation_method	'MofGen! by Chris Wilmer'
_symmetry_space_group_name_H-M	'P1'
_symmetry_Int_Tables_number	1
_symmetry_cell_setting	triclinic
loop_
_symmetry_equiv_pos_as_xyz
  x,y,z
_cell_length_a	12.759401
_cell_length_b	12.759394
_cell_length_c	12.759393
_cell_angle_alpha	89.970725
_cell_angle_beta	89.980666
_cell_angle_gamma	90.013839
loop_
_atom_site_label
_atom_site_type_symbol
_atom_site_fract_x
_atom_site_fract_y
_atom_site_fract_z
Zn1	Zn	1.606264	-0.418219	-0.594005
Zn2	Zn	1.606160	-0.593934	-0.418328
Zn3	Zn	1.430565	-0.418269	-0.418343
Zn4	Zn	1.430557	-0.593856	-0.593968
O5	O	1.518387	-0.506069	-0.506161
O6	O	1.753271	-0.441539	-0.570711
O7	O	1.582827	-0.570685	-0.271309
O8	O	1.453919	-0.271241	-0.441666
O9	O	1.753195	-0.570636	-0.441642
O10	O	1.583004	-0.271204	-0.570725
O11	O	1.453818	-0.441625	-0.271320
O12	O	1.283543	-0.441550	-0.441630
O13	O	1.453905	-0.570504	-0.740994
O14	O	1.283537	-0.570553	-0.570661
O15	O	1.582996	-0.441464	-0.741021
O16	O	1.582819	-0.740944	-0.441606
O17	O	1.453805	-0.740888	-0.570647
C18	C	1.245419	-0.506049	-0.506144
C19	C	1.128643	-0.506066	-0.506162
C20	C	0.964091	-0.438980	-0.573481
C21	C	1.073815	-0.438965	-0.573471
C22	C	1.073741	-0.573193	-0.438864
C23	C	0.964019	-0.573212	-0.438880
C24	C	0.909268	-0.371868	-0.640787
C25	C	0.964162	-0.304742	-0.708086
C26	C	1.073886	-0.304727	-0.708077
C27	C	1.128716	-0.371839	-0.640768
C28	C	1.518328	-0.779037	-0.506144
C29	C	1.518399	-0.895814	-0.506171
C30	C	1.652715	-0.895617	-0.640661
C31	C	1.719906	-0.950379	-0.707913
C32	C	1.719969	-1.060101	-0.707936
C33	C	1.652831	-1.115063	-0.640701
C34	C	1.585640	-1.060300	-0.573449
C35	C	1.585587	-0.950576	-0.573431
C36	C	1.451320	-1.060497	-0.438966
C37	C	1.451261	-0.950775	-0.438937
C38	C	1.384182	-1.115459	-0.371731
C39	C	1.316995	-1.060696	-0.304472
C40	C	1.316936	-0.950968	-0.304451
C41	C	1.384070	-0.896013	-0.371684
C42	C	1.792420	-0.506090	-0.506179
C43	C	1.909197	-0.506099	-0.506186
C44	C	1.518474	-0.232036	-0.506201
C45	C	1.518511	-0.115259	-0.506219
C46	C	1.518461	-0.505970	-0.780195
C47	C	1.518493	-0.505927	-0.896971
C48	C	1.585739	-0.438676	-1.061574
C49	C	1.585717	-0.438722	-0.951850
C50	C	1.451295	-0.573098	-0.951822
C51	C	1.451324	-0.573057	-1.061544
C52	C	1.652960	-0.371458	-1.116447
C53	C	1.720159	-0.304288	-1.061604
C54	C	1.720137	-0.304334	-0.951880
C55	C	1.652915	-0.371551	-0.896999
C56	C	1.518373	-0.506093	-0.233194
C57	C	1.518544	-0.505839	-0.116418
H58	H	0.919323	-0.627869	-0.384085
H59	H	1.118392	-0.627831	-0.384065
H60	H	1.774895	-0.249569	-1.106295
H61	H	1.262332	-1.105455	-0.249740
H62	H	1.118578	-0.250077	-0.762881
H63	H	1.774670	-1.104688	-0.762710
H64	H	1.396608	-0.627748	-1.106199
H65	H	1.652681	-0.806276	-0.640639
N66	N	1.792621	-0.231902	-0.892724
H67	H	1.835207	-0.189318	-0.944139
H68	H	1.749860	-0.183299	-0.847198
H69	H	1.384234	-1.204800	-0.371758
N70	N	0.790925	-0.371874	-0.640787
H71	H	0.764522	-0.319174	-0.693633
H72	H	0.764572	-0.444005	-0.659950
H73	H	1.652878	-1.204404	-0.640734
N74	N	1.792308	-0.891101	-0.780438
H75	H	1.782077	-0.813283	-0.770222
H76	H	1.867361	-0.910232	-0.764152
H77	H	1.652983	-0.371410	-1.205790
N78	N	1.244460	-0.891905	-0.231918
H79	H	1.201942	-0.943376	-0.189335
H80	H	1.287220	-0.846384	-0.183318
N81	N	1.652898	-0.371613	-0.778654
H82	H	1.705671	-0.318869	-0.752235
H83	H	1.580792	-0.352340	-0.752297
N84	N	1.384016	-0.777671	-0.371652
H85	H	1.436742	-0.751167	-0.424447
H86	H	1.311888	-0.751362	-0.390873
N87	N	1.378784	-0.645588	-0.892645
H88	H	1.421448	-0.694297	-0.847114
H89	H	1.330110	-0.602829	-0.847187
N90	N	0.905033	-0.232370	-0.780689
H91	H	0.827194	-0.242561	-0.770484
H92	H	0.924213	-0.157314	-0.764462
H93	H	1.218061	-0.371814	-0.640759
