data_functionalizedCrystal
_audit_creation_method	'MofGen! by Chris Wilmer'
_symmetry_space_group_name_H-M	'P1'
_symmetry_Int_Tables_number	1
_symmetry_cell_setting	triclinic
loop_
_symmetry_equiv_pos_as_xyz
  x,y,z
_cell_length_a	10.654550
_cell_length_b	10.654551
_cell_length_c	9.730223
_cell_angle_alpha	89.998425
_cell_angle_beta	89.999957
_cell_angle_gamma	84.485146
loop_
_atom_site_label
_atom_site_type_symbol
_atom_site_fract_x
_atom_site_fract_y
_atom_site_fract_z
O1	O	1.667840	0.176399	-0.114178
O2	O	2.167840	0.676399	0.385822
O3	O	1.302361	0.193205	-0.114202
O4	O	1.802361	0.693205	0.385798
O5	O	1.493503	0.002062	-0.114190
O6	O	1.993503	0.502062	0.385810
O7	O	1.476698	0.367541	-0.114190
O8	O	1.976698	0.867541	0.385810
O9	O	1.493490	0.002057	0.114390
O10	O	1.993490	0.502057	0.614390
O11	O	1.302349	0.193199	0.114378
O12	O	1.802349	0.693199	0.614378
O13	O	1.667827	0.176393	0.114402
O14	O	2.167827	0.676393	0.614402
Zn15	Zn	1.485086	0.184795	0.150682
Zn16	Zn	1.985086	0.684795	0.650682
Zn17	Zn	1.485102	0.184802	-0.150482
Zn18	Zn	1.985102	0.684802	0.349518
O19	O	1.476686	0.367535	0.114390
O20	O	1.976686	0.867535	0.614390
C21	C	1.255557	0.191968	0.000084
C22	C	1.755557	0.691968	0.500084
C23	C	1.116114	0.188276	0.000075
C24	C	1.616114	0.688276	0.500075
C25	C	1.036629	0.300818	0.000079
C26	C	1.536629	0.800818	0.500079
C27	C	0.905608	0.297341	0.000103
C28	C	1.405608	0.797341	0.500103
C29	C	0.933570	0.068772	0.000113
C30	C	1.433570	0.568772	0.500113
C31	C	1.064588	0.072249	0.000099
C32	C	1.564588	0.572249	0.500099
C33	C	1.492263	-0.044738	0.000097
C34	C	1.992263	0.455262	0.500097
C35	C	1.488570	-0.184181	0.000087
C36	C	1.988570	0.315819	0.500087
C37	C	1.486845	-0.249690	-0.124510
C38	C	1.986845	0.250310	0.375490
C39	C	1.483364	-0.380711	-0.124503
C40	C	1.983364	0.119289	0.375497
C41	C	1.483340	-0.380702	0.124707
C42	C	1.983340	0.119298	0.624707
C43	C	1.486812	-0.249683	0.124699
C44	C	1.986812	0.250317	0.624699
C45	C	1.486864	-0.249697	-0.268389
C46	C	1.986864	0.250303	0.231611
C47	C	1.483384	-0.380718	-0.268383
C48	C	1.983384	0.119282	0.231617
C49	C	1.714631	0.177630	0.000112
C50	C	2.214631	0.677630	0.500112
C51	C	1.854075	0.181322	0.000113
C52	C	2.354075	0.681322	0.500113
C53	C	1.477926	0.414336	0.000100
C54	C	1.977926	0.914336	0.500100
C55	C	1.481619	0.553779	0.000101
C56	C	1.981619	1.053779	0.500101
N57	N	1.485084	0.184790	0.356218
N58	N	1.985084	0.684790	0.856218
N59	N	1.485114	0.184798	-0.356018
N60	N	1.985114	0.684798	0.143982
C61	C	1.569751	0.100188	0.428150
C62	C	2.069751	0.600188	0.928150
C63	C	1.569763	0.100189	0.572032
C64	C	2.069763	0.600189	1.072032
C65	C	1.400439	0.269404	0.572040
C66	C	1.900439	0.769404	1.072040
C67	C	1.400421	0.269396	0.428160
C68	C	1.900421	0.769396	0.928160
H69	H	1.129309	-0.019401	0.000100
H70	H	1.629309	0.480599	0.500100
Br71	Br	1.285545	0.384225	0.669680
Br72	Br	1.785545	0.884225	1.169680
Br73	Br	0.863634	-0.088685	0.000140
Br74	Br	1.363634	0.411315	0.500140
H75	H	1.078576	0.395294	0.000070
H76	H	1.578576	0.895294	0.500070
H77	H	1.331469	0.338290	0.369590
H78	H	1.831469	0.838290	0.869590
Br79	Br	0.797738	0.450083	0.000115
Br80	Br	1.297738	0.950083	0.500115
H81	H	1.638687	0.031295	0.369578
H82	H	2.138687	0.531295	0.869578
H83	H	1.391790	-0.410284	-0.313047
H84	H	1.891790	0.089716	0.186953
H85	H	1.638705	0.031297	0.630595
H86	H	2.138705	0.531297	1.130595
H87	H	1.488210	-0.196350	0.226158
H88	H	1.988210	0.303650	0.726158
Br89	Br	1.628043	-0.457883	-0.360436
Br90	Br	2.128043	0.042117	0.139564
H91	H	1.481907	-0.434049	0.226162
H92	H	1.981907	0.065951	0.726162
H93	H	1.400077	-0.203415	-0.323644
H94	H	1.900077	0.296585	0.176356
H95	H	1.578465	-0.220130	-0.313025
H96	H	2.078465	0.279870	0.186975
