data_functionalizedCrystal
_audit_creation_method	'MofGen! by Chris Wilmer'
_symmetry_space_group_name_H-M	'P1'
_symmetry_Int_Tables_number	1
_symmetry_cell_setting	triclinic
loop_
_symmetry_equiv_pos_as_xyz
  x,y,z
_cell_length_a	10.654559
_cell_length_b	10.868271
_cell_length_c	10.654551
_cell_angle_alpha	89.996634
_cell_angle_beta	95.512957
_cell_angle_gamma	90.004781
loop_
_atom_site_label
_atom_site_type_symbol
_atom_site_fract_x
_atom_site_fract_y
_atom_site_fract_z
O1	O	1.667835	0.102331	-0.176454
O2	O	1.302358	0.102330	-0.193248
O3	O	1.493499	0.102328	-0.002112
O4	O	1.476694	0.102333	-0.367590
O5	O	1.493483	-0.102317	-0.002105
O6	O	1.302342	-0.102315	-0.193241
O7	O	1.667819	-0.102313	-0.176447
Zn8	Zn	1.485078	-0.134806	-0.184842
Zn9	Zn	1.485099	0.134822	-0.184852
O10	O	1.476678	-0.102311	-0.367583
C11	C	1.255552	0.000008	-0.192009
C12	C	1.116110	0.000007	-0.188312
C13	C	1.064569	0.000004	-0.072300
C14	C	0.933547	0.000015	-0.068834
C15	C	0.905616	0.000027	-0.297404
C16	C	1.036636	0.000025	-0.300868
C17	C	0.771276	0.071711	0.073197
C18	C	0.719732	0.071687	0.189215
C19	C	0.774578	-0.000028	0.288992
C20	C	0.880967	-0.071750	0.272756
C21	C	0.932504	-0.071736	0.156736
C22	C	0.877660	0.000008	0.056963
C23	C	1.198910	-0.071681	-0.442891
C24	C	1.250450	-0.071677	-0.558913
C25	C	1.195605	0.000031	-0.658701
C26	C	1.089210	0.071734	-0.642477
C27	C	1.037671	0.071729	-0.526455
C28	C	1.092525	0.000024	-0.426667
N29	N	1.485073	-0.318820	-0.184835
C30	C	1.485092	-0.569826	-0.184850
C31	C	1.485078	-0.430148	-0.184845
C32	C	1.714625	0.000012	-0.177686
C33	C	1.854067	0.000020	-0.181382
C34	C	1.492257	0.000008	0.044689
C35	C	1.488564	0.000013	0.184133
N36	N	1.485114	0.318837	-0.184850
C37	C	1.477920	0.000012	-0.414384
C38	C	1.481613	0.000014	-0.553828
C39	C	1.486840	0.111566	0.249632
C40	C	1.483360	0.111567	0.380653
C41	C	1.483334	-0.111547	0.380663
C42	C	1.486805	-0.111547	0.249644
C43	C	1.405179	0.245590	0.550723
C44	C	1.403476	0.357149	0.616230
C45	C	1.478077	0.455640	0.582683
C46	C	1.554410	0.442577	0.483636
C47	C	1.556124	0.331017	0.418137
C48	C	1.481495	0.232530	0.451678
C49	C	1.564996	-0.245562	0.079573
C50	C	1.566719	-0.357124	0.014073
C51	C	1.492126	-0.455626	0.047618
C52	C	1.415811	-0.442575	0.146672
C53	C	1.414088	-0.331013	0.212172
C54	C	1.488679	-0.232511	0.178618
H55	H	1.044548	0.130118	-0.723735
F56	F	1.322233	0.371048	0.721637
H57	H	1.481904	-0.202376	0.434018
F58	F	1.637359	0.317109	0.312731
F59	F	1.250443	0.000007	-0.782192
H60	H	1.344415	0.165403	0.578035
H61	H	1.493546	-0.546469	-0.005716
F62	F	1.476276	0.574363	0.652416
H63	H	1.351941	-0.320391	0.292825
F64	F	0.606509	0.148020	0.206491
F65	F	0.939320	-0.148094	0.378951
H66	H	1.628868	-0.367746	-0.066579
H67	H	1.625729	-0.165353	0.052240
F68	F	1.363694	-0.147983	-0.576173
H69	H	0.732601	-0.000048	0.383457
H70	H	1.488268	0.202406	0.196297
F71	F	1.149147	-0.000009	0.047491
H72	H	0.840893	0.000039	-0.389042
H73	H	0.726619	0.130126	-0.008037
F74	F	1.336426	-0.547414	0.182383
F75	F	1.257299	-0.147994	-0.336682
H76	H	1.019121	-0.130133	0.143515
H77	H	1.615165	0.522778	0.456341
F78	F	0.924434	0.148043	-0.509191
