data_functionalizedCrystal
_audit_creation_method	'MofGen! by Chris Wilmer'
_symmetry_space_group_name_H-M	'P1'
_symmetry_Int_Tables_number	1
_symmetry_cell_setting	triclinic
loop_
_symmetry_equiv_pos_as_xyz
  x,y,z
_cell_length_a	11.792241
_cell_length_b	14.519709
_cell_length_c	10.868271
_cell_angle_alpha	90.002362
_cell_angle_beta	90.000490
_cell_angle_gamma	96.063220
loop_
_atom_site_label
_atom_site_type_symbol
_atom_site_fract_x
_atom_site_fract_y
_atom_site_fract_z
O1	O	-1.506208	0.126399	0.102187
O2	O	-1.172875	0.459733	0.435521
O3	O	-0.839542	0.793066	0.768854
O4	O	-1.175795	0.139427	0.102220
O5	O	-0.842462	0.472760	0.435554
O6	O	-0.509128	0.806093	0.768887
O7	O	-1.349762	-0.001293	0.102192
O8	O	-1.016429	0.332040	0.435525
O9	O	-0.683096	0.665373	0.768858
O10	O	-1.332241	0.267119	0.102216
O11	O	-0.998908	0.600453	0.435549
O12	O	-0.665575	0.933786	0.768882
O13	O	-1.349746	-0.001289	-0.102453
O14	O	-1.016413	0.332044	0.230880
O15	O	-0.683080	0.665378	0.564214
O16	O	-1.175779	0.139431	-0.102424
O17	O	-0.842446	0.472765	0.230909
O18	O	-0.509113	0.806098	0.564242
O19	O	-1.506193	0.126404	-0.102457
O20	O	-1.172859	0.459737	0.230876
O21	O	-0.839526	0.793071	0.564209
Zn22	Zn	-1.340983	0.132918	-0.134933
Zn23	Zn	-1.007650	0.466252	0.198401
Zn24	Zn	-0.674317	0.799585	0.531734
Zn25	Zn	-1.341004	0.132912	0.134695
Zn26	Zn	-1.007671	0.466246	0.468029
Zn27	Zn	-0.674338	0.799579	0.801362
O28	O	-1.332226	0.267124	-0.102429
O29	O	-0.998892	0.600457	0.230904
O30	O	-0.665559	0.933791	0.564238
C31	C	-1.133501	0.138611	-0.000098
C32	C	-0.800167	0.471944	0.333235
C33	C	-0.466834	0.805277	0.666569
C34	C	-1.007501	0.136161	-0.000086
C35	C	-0.674167	0.469495	0.333248
C36	C	-0.340834	0.802828	0.666581
C37	C	-0.776813	0.131657	-0.000119
C38	C	-0.443480	0.464991	0.333215
C39	C	-0.110147	0.798324	0.666548
C40	C	-0.905185	0.134160	-0.000101
C41	C	-0.571851	0.467493	0.333233
C42	C	-0.238518	0.800827	0.666566
C43	C	-1.348938	-0.035654	-0.000131
C44	C	-1.015604	0.297679	0.333203
C45	C	-0.682271	0.631013	0.666536
C46	C	-1.346491	-0.138044	-0.000131
C47	C	-1.013158	0.195289	0.333202
C48	C	-0.679824	0.528623	0.666536
C49	C	-1.337483	-0.512973	-0.000098
C50	C	-1.004149	-0.179640	0.333235
C51	C	-0.670816	0.153694	0.666568
C52	C	-1.339984	-0.408656	-0.000108
C53	C	-1.006651	-0.075322	0.333226
C54	C	-0.673318	0.258011	0.666559
C55	C	-1.341987	-0.325512	-0.000116
C56	C	-1.008653	0.007822	0.333217
C57	C	-0.675320	0.341155	0.666551
C58	C	-1.344489	-0.221188	-0.000123
C59	C	-1.011155	0.112145	0.333210
C60	C	-0.677822	0.445479	0.666544
C61	C	-0.548487	0.127220	-0.000133
C62	C	-0.215154	0.460553	0.333200
C63	C	0.118180	0.793887	0.666533
C64	C	-0.674487	0.129669	-0.000128
C65	C	-0.341154	0.463003	0.333205
C66	C	-0.007820	0.796336	0.666538
C67	C	-1.333050	0.301484	-0.000104
C68	C	-0.999717	0.634818	0.333230
C69	C	-0.666383	0.968151	0.666563
C70	C	-1.335497	0.403875	-0.000095
C71	C	-1.002164	0.737208	0.333238
C72	C	-0.668830	1.070541	0.666571
N73	N	-1.340978	0.132922	-0.318947
N74	N	-1.007644	0.466255	0.014387
N75	N	-0.674311	0.799588	0.347720
C76	C	-1.340986	0.132922	-0.430284
C77	C	-1.007653	0.466255	-0.096951
C78	C	-0.674320	0.799589	0.236382
C79	C	-1.341001	0.132914	-0.569962
C80	C	-1.007668	0.466247	-0.236629
C81	C	-0.674335	0.799580	0.096705
N82	N	-1.341019	0.132902	0.318710
N83	N	-1.007686	0.466235	0.652043
N84	N	-0.674352	0.799568	0.985376
