data_functionalizedCrystal
_audit_creation_method	'MofGen! by Chris Wilmer'
_symmetry_space_group_name_H-M	'P1'
_symmetry_Int_Tables_number	1
_symmetry_cell_setting	triclinic
loop_
_symmetry_equiv_pos_as_xyz
  x,y,z
_cell_length_a	10.654541
_cell_length_b	15.995350
_cell_length_c	9.130307
_cell_angle_alpha	89.998938
_cell_angle_beta	89.999822
_cell_angle_gamma	83.988152
loop_
_atom_site_label
_atom_site_type_symbol
_atom_site_fract_x
_atom_site_fract_y
_atom_site_fract_z
O1	O	1.666303	0.117592	-0.121747
O2	O	1.300677	0.128798	-0.121759
O3	O	1.493484	0.001365	-0.121751
O4	O	1.473495	0.245024	-0.121754
O5	O	1.493478	0.001364	0.121848
O6	O	1.300671	0.128797	0.121840
O7	O	1.666296	0.117590	0.121852
Cu8	Cu	1.483483	0.123193	0.144089
Cu9	Cu	1.483490	0.123195	-0.143995
O10	O	1.473489	0.245023	0.121845
C11	C	1.253887	0.127975	0.000039
C12	C	1.114475	0.125514	0.000034
C13	C	1.084514	0.277895	0.000014
C14	C	1.004039	0.352926	-0.000002
C15	C	0.873052	0.350609	-0.000003
C16	C	0.822537	0.273253	0.000016
C17	C	0.903011	0.198222	0.000032
C18	C	1.034000	0.200547	0.000029
C19	C	0.932972	0.045843	0.000063
C20	C	1.063961	0.048158	0.000054
C21	C	0.882458	-0.031513	0.000082
C22	C	0.962933	-0.106546	0.000087
C23	C	1.093928	-0.104226	0.000087
C24	C	1.144435	-0.026873	0.000070
C25	C	1.492655	-0.029835	0.000046
C26	C	1.490177	-0.122800	0.000037
C27	C	1.481280	-0.460599	0.000042
C28	C	1.343966	-0.413961	-0.000509
C29	C	1.346444	-0.317257	0.000040
C30	C	1.485693	-0.293013	0.000039
C31	C	1.553418	-0.333698	0.139146
C32	C	1.549968	-0.430354	0.139262
C33	C	1.552812	-0.430694	-0.137756
C34	C	1.552779	-0.333749	-0.139594
C35	C	1.488195	-0.198301	0.000042
C36	C	1.478783	-0.555311	0.000049
C37	C	1.713087	0.118413	0.000051
C38	C	1.852498	0.120874	0.000047
C39	C	1.474318	0.276223	0.000045
C40	C	1.476796	0.369188	0.000044
N41	N	1.483487	0.123192	0.346712
N42	N	1.483496	0.123190	-0.346618
C43	C	1.654287	0.010383	0.346709
C44	C	1.739695	-0.046019	0.423374
C45	C	1.739708	-0.046019	0.576707
C46	C	1.654300	0.010387	0.653379
C47	C	1.568892	0.066788	0.576714
C48	C	1.568891	0.066785	0.423377
C49	C	1.398088	0.179592	0.576717
C50	C	1.398079	0.179598	0.423384
C51	C	1.312680	0.235998	0.653389
C52	C	1.227276	0.292405	0.576724
C53	C	1.227268	0.292404	0.423381
C54	C	1.312671	0.236000	0.346718
H55	H	1.045183	0.415908	-0.000014
H56	H	1.503264	-0.306787	-0.242501
H57	H	1.292845	-0.289704	0.099924
H58	H	1.809231	-0.091946	0.360934
C59	C	0.702986	-0.076332	-0.125138
C60	C	0.738475	-0.034064	0.000077
H61	H	0.614098	-0.077912	-0.125137
H62	H	0.727087	-0.047670	-0.210075
H63	H	0.743694	-0.132085	-0.125106
H64	H	0.697775	0.021692	0.000039
H65	H	0.714361	-0.062725	0.085036
C66	C	1.446803	-0.383453	0.362822
C67	C	1.483279	-0.455453	0.279625
H68	H	1.405622	-0.398947	0.449471
H69	H	1.519332	-0.356775	0.388232
H70	H	1.390699	-0.345814	0.307190
H71	H	1.539390	-0.493090	0.335253
H72	H	1.410739	-0.482144	0.254217
C73	C	0.948131	-0.237148	-0.125112
C74	C	0.907408	-0.191569	0.000108
H75	H	0.913854	-0.289641	-0.125093
H76	H	0.920499	-0.206226	-0.210045
H77	H	1.037660	-0.246502	-0.125103
H78	H	0.817879	-0.182211	0.000094
H79	H	0.935033	-0.222499	0.085064
H80	H	0.807528	0.411706	-0.000006
H81	H	1.289324	-0.433873	0.098688
C82	C	1.770332	-0.411616	0.152806
C83	C	1.686056	-0.473105	0.147808
H84	H	1.854343	-0.438008	0.158097
H85	H	1.760820	-0.377943	0.067037
H86	H	1.752997	-0.377205	0.236691
H87	H	1.703385	-0.507512	0.063916
H88	H	1.695573	-0.506792	0.233586
H89	H	1.809250	-0.091950	0.639128
C90	C	1.716743	-0.261714	-0.032092
C91	C	1.689870	-0.312225	-0.150938
H92	H	1.801384	-0.248434	-0.039085
H93	H	1.660989	-0.211333	-0.033275
H94	H	1.706101	-0.291130	0.056684
H95	H	1.700503	-0.282807	-0.239714
H96	H	1.745641	-0.362615	-0.149769
C97	C	1.194387	0.218358	0.873051
C98	C	1.312691	0.235995	0.821935
H99	H	1.194399	0.218354	0.977105
H100	H	1.131312	0.260020	0.838371
H101	H	1.177229	0.164731	0.838360
H102	H	1.329844	0.289626	0.856618
H103	H	1.375785	0.194331	0.856630
C104	C	1.389749	-0.503326	-0.245823
C105	C	1.492208	-0.458764	-0.280094
H106	H	1.352322	-0.520649	-0.333692
H107	H	1.418264	-0.551349	-0.189046
H108	H	1.329166	-0.468195	-0.191507
H109	H	1.552797	-0.493897	-0.334401
H110	H	1.463696	-0.410734	-0.336894
C111	C	1.009876	0.340205	0.623951
C112	C	1.133400	0.354395	0.661006
H113	H	0.951922	0.378473	0.675997
H114	H	0.997657	0.348289	0.521674
H115	H	0.996272	0.284232	0.649077
H116	H	1.147007	0.410367	0.635870
H117	H	1.145624	0.346318	0.763306
C118	C	1.688748	-0.560215	-0.144314
C119	C	1.689481	-0.472779	-0.139041
H120	H	1.773119	-0.586198	-0.145109
H121	H	1.646012	-0.578518	-0.060815
H122	H	1.646634	-0.575228	-0.230611
H123	H	1.731587	-0.457766	-0.052738
H124	H	1.732235	-0.454470	-0.222548
H125	H	1.159444	-0.165325	0.000106
C126	C	1.153488	0.436897	0.376174
C127	C	1.133386	0.354405	0.339113
H128	H	1.095533	0.475174	0.324147
H129	H	1.141267	0.444960	0.478455
H130	H	1.237296	0.446507	0.351031
H131	H	1.049581	0.344794	0.364267
H132	H	1.145596	0.346339	0.236809
C133	C	1.337980	0.315045	0.127054
C134	C	1.312668	0.235997	0.178172
H135	H	1.337987	0.315037	0.023000
H136	H	1.274893	0.356699	0.161732
H137	H	1.418239	0.327001	0.161747
H138	H	1.232405	0.224044	0.143488
H139	H	1.375759	0.194330	0.143480
H140	H	1.191169	0.279789	-0.000017
C141	C	1.228874	-0.343663	-0.216425
C142	C	1.274562	-0.279296	-0.134560
H143	H	1.184484	-0.320227	-0.299515
H144	H	1.297598	-0.382136	-0.247729
H145	H	1.173536	-0.372268	-0.157554
H146	H	1.329907	-0.250695	-0.193428
H147	H	1.205829	-0.240809	-0.103258
H148	H	1.655720	-0.318979	0.144318
H149	H	1.289086	-0.432811	-0.100265
H150	H	1.506375	-0.305590	0.242665
H151	H	0.715878	0.271373	0.000032
H152	H	1.251090	-0.024976	0.000052
H153	H	1.654306	0.010376	0.778231
H154	H	1.654296	0.010385	0.221856
