data_functionalizedCrystal
_audit_creation_method	'MofGen! by Chris Wilmer'
_symmetry_space_group_name_H-M	'P1'
_symmetry_Int_Tables_number	1
_symmetry_cell_setting	triclinic
loop_
_symmetry_equiv_pos_as_xyz
  x,y,z
_cell_length_a	14.044220
_cell_length_b	17.699083
_cell_length_c	16.776229
_cell_angle_alpha	89.992455
_cell_angle_beta	90.002022
_cell_angle_gamma	91.764054
loop_
_atom_site_label
_atom_site_type_symbol
_atom_site_fract_x
_atom_site_fract_y
_atom_site_fract_z
O1	O	1.257290	-0.182444	0.066207
O2	O	1.757290	0.317556	0.566207
O3	O	0.981336	-0.175860	0.066227
O4	O	1.481336	0.324140	0.566227
O5	O	1.127109	-0.069500	0.066209
O6	O	1.627109	0.430500	0.566209
O7	O	1.111516	-0.288803	0.066224
O8	O	1.611516	0.211197	0.566224
O9	O	1.127090	-0.069492	-0.066367
O10	O	1.627090	0.430508	0.433633
O11	O	0.981317	-0.175852	-0.066350
O12	O	1.481317	0.324148	0.433650
O13	O	1.257271	-0.182435	-0.066370
O14	O	1.757271	0.317565	0.433630
Zn15	Zn	1.119290	-0.179142	-0.087409
Zn16	Zn	1.619290	0.320858	0.412591
Zn17	Zn	1.119316	-0.179153	0.087266
Zn18	Zn	1.619316	0.320847	0.587266
O19	O	1.111497	-0.288795	-0.066352
O20	O	1.611497	0.211205	0.433648
C21	C	0.946018	-0.172974	-0.000059
C22	C	1.446018	0.327026	0.499941
C23	C	0.840812	-0.164378	-0.000052
C24	C	1.340812	0.335622	0.499948
C25	C	1.126541	-0.041261	-0.000079
C26	C	1.626541	0.458739	0.499921
C27	C	1.124865	0.042873	-0.000079
C28	C	1.624865	0.542873	0.499921
C29	C	1.112066	-0.317035	-0.000062
C30	C	1.612066	0.182965	0.499938
C31	C	1.113742	-0.401168	-0.000057
C32	C	1.613742	0.098832	0.499943
C33	C	0.648187	-0.148663	-0.000069
C34	C	1.148187	0.351337	0.499931
C35	C	0.590414	-0.209629	-0.000068
C36	C	1.090414	0.290371	0.499932
C37	C	0.483230	-0.200885	-0.000077
C38	C	0.983230	0.299115	0.499923
C39	C	0.755381	-0.157406	-0.000059
C40	C	1.255381	0.342594	0.499941
C41	C	1.292588	-0.185321	-0.000082
C42	C	1.792588	0.314679	0.499918
C43	C	1.397794	-0.193917	-0.000085
C44	C	1.897794	0.306083	0.499915
N45	N	1.119280	-0.179134	-0.206620
N46	N	1.619280	0.320866	0.293380
C47	C	1.210431	0.085591	-0.000087
C48	C	1.710431	0.585591	0.499913
C49	C	1.208850	0.164644	-0.000080
C50	C	1.708850	0.664644	0.499920
C51	C	1.121702	0.200976	-0.000071
C52	C	1.621702	0.700976	0.499929
C53	C	1.036130	0.158252	-0.000061
C54	C	1.536130	0.658252	0.499939
C55	C	1.037712	0.079201	-0.000063
C56	C	1.537712	0.579201	0.499937
C57	C	1.029750	0.477055	-0.000054
C58	C	1.529750	0.977055	0.499946
C59	C	1.028175	0.556112	-0.000055
C60	C	1.528175	1.056112	0.499945
C61	C	1.200888	0.562498	-0.000071
C62	C	1.700888	1.062498	0.499929
C63	C	1.202470	0.483447	-0.000073
C64	C	1.702470	0.983447	0.499927
C65	C	1.116898	0.440730	-0.000059
C66	C	1.616898	0.940730	0.499941
C67	C	1.118613	0.355012	-0.000065
C68	C	1.618613	0.855012	0.499935
C69	C	1.119987	0.286692	-0.000070
C70	C	1.619987	0.786692	0.499930
C71	C	1.183848	-0.132061	-0.248345
C72	C	1.683848	0.367939	0.251655
C73	C	1.183853	-0.132061	-0.331798
C74	C	1.683853	0.367939	0.168202
C75	C	1.119294	-0.179138	-0.373523
C76	C	1.619294	0.320862	0.126477
C77	C	1.054719	-0.226214	-0.331793
C78	C	1.554719	0.273786	0.168207
C79	C	1.054710	-0.226210	-0.248342
C80	C	1.554710	0.273790	0.251658
C81	C	1.054754	-0.226231	-0.668340
C82	C	1.554754	0.273769	-0.168340
C83	C	1.054770	-0.226233	-0.751796
C84	C	1.554770	0.273767	-0.251796
C85	C	1.183897	-0.132082	-0.751795
C86	C	1.683897	0.367918	-0.251795
C87	C	1.183888	-0.132078	-0.668345
C88	C	1.683888	0.367922	-0.168345
C89	C	1.119310	-0.179150	-0.626621
C90	C	1.619310	0.320850	-0.126621
C91	C	1.119304	-0.179149	-0.536133
C92	C	1.619304	0.320851	-0.036133
C93	C	1.119304	-0.179144	-0.464010
C94	C	1.619304	0.320856	0.035990
N95	N	1.119334	-0.179155	0.206477
N96	N	1.619334	0.320845	0.706477
H97	H	0.621449	-0.268391	-0.000060
H98	H	1.121449	0.231609	0.499940
C99	C	1.298338	0.443486	-0.000082
C100	C	1.798338	0.943486	0.499918
N101	N	1.370549	0.413388	-0.000086
N102	N	1.870549	0.913388	0.499914
C103	C	1.254926	-0.080294	-0.797699
C104	C	1.754926	0.419706	-0.297699
N105	N	1.308425	-0.041288	-0.832272
N106	N	1.808425	0.458712	-0.332272
H107	H	0.617153	-0.089906	-0.000077
H108	H	1.117153	0.410094	0.499923
H109	H	1.281396	0.056016	-0.000099
H110	H	1.781396	0.556016	0.499901
C111	C	0.983695	-0.277992	-0.377694
C112	C	1.483695	0.222008	0.122306
N113	N	0.930197	-0.316993	-0.412266
N114	N	1.430197	0.183007	0.087734
C115	C	1.302980	0.211631	-0.000101
C116	C	1.802980	0.711631	0.499899
N117	N	1.373882	0.247021	-0.000120
N118	N	1.873882	0.747021	0.499880
C119	C	1.254869	-0.080270	-0.202455
C120	C	1.754869	0.419730	0.297545
N121	N	1.308361	-0.041257	-0.167892
N122	N	1.808361	0.458743	0.332108
C123	C	1.295020	0.609494	-0.000078
C124	C	1.795020	1.109494	0.499922
N125	N	1.365918	0.644890	-0.000084
N126	N	1.865918	1.144890	0.499916
C127	C	0.932301	0.596076	-0.000039
C128	C	1.432301	1.096076	0.499961
N129	N	0.860093	0.626176	-0.000026
N130	N	1.360093	1.126176	0.499974
H131	H	0.960072	0.442284	-0.000043
H132	H	1.460072	0.942284	0.499957
H133	H	0.965173	0.187840	-0.000049
H134	H	1.465173	0.687840	0.499951
C135	C	0.943582	0.032211	-0.000056
C136	C	1.443582	0.532211	0.499944
N137	N	0.872681	-0.003181	-0.000050
N138	N	1.372681	0.496819	0.499950
C139	C	1.254861	-0.080256	-0.377691
C140	C	1.754861	0.419744	0.122309
N141	N	1.308338	-0.041227	-0.412258
N142	N	1.808338	0.458773	0.087742
H143	H	1.236461	-0.093745	-0.634374
H144	H	1.736461	0.406255	-0.134374
C145	C	0.983740	-0.278020	-0.797693
C146	C	1.483740	0.221980	-0.297693
N147	N	0.930243	-0.317023	-0.832262
N148	N	1.430243	0.182977	-0.332262
C149	C	0.983839	-0.278119	-0.622455
C150	C	1.483839	0.221881	-0.122455
N151	N	0.930466	-0.317241	-0.587892
N152	N	1.430466	0.182759	-0.087892
C153	C	0.983688	-0.278001	-0.202445
C154	C	1.483688	0.221999	0.297555
N155	N	0.930192	-0.317012	-0.167876
N156	N	1.430192	0.182988	0.332124
