data_functionalizedCrystal
_audit_creation_method	'MofGen! by Chris Wilmer'
_symmetry_space_group_name_H-M	'P1'
_symmetry_Int_Tables_number	1
_symmetry_cell_setting	triclinic
loop_
_symmetry_equiv_pos_as_xyz
  x,y,z
_cell_length_a	14.853567
_cell_length_b	12.837942
_cell_length_c	11.295483
_cell_angle_alpha	85.469583
_cell_angle_beta	94.108142
_cell_angle_gamma	89.231935
loop_
_atom_site_label
_atom_site_type_symbol
_atom_site_fract_x
_atom_site_fract_y
_atom_site_fract_z
O1	O	-1.213314	-0.128390	-0.098941
O2	O	-0.952224	-0.144513	-0.098961
O3	O	-1.076979	0.014459	-0.098944
O4	O	-1.088559	-0.287362	-0.098958
O5	O	-1.066020	0.000518	0.099105
O6	O	-0.941264	-0.158454	0.099088
O7	O	-1.202355	-0.142331	0.099108
Cu8	Cu	-1.070809	-0.151666	0.117182
Cu9	Cu	-1.083770	-0.135178	-0.117035
O10	O	-1.077600	-0.301303	0.099091
C11	C	-0.913094	-0.150753	0.000061
C12	C	-0.812825	-0.148563	0.000053
C13	C	-1.067588	0.046115	0.000079
C14	C	-1.055922	0.161209	0.000076
C15	C	-1.241485	-0.136091	0.000083
C16	C	-1.341755	-0.138280	0.000083
C17	C	-0.391494	-0.044876	0.000084
C18	C	-0.386233	-0.233740	0.000075
C19	C	-0.480442	-0.235798	0.000071
C20	C	-0.530181	-0.142394	0.000072
C21	C	-0.485712	-0.046932	0.000077
C22	C	-0.524918	-0.331258	0.000054
C23	C	-0.619133	-0.333320	0.000048
C24	C	-0.668873	-0.239915	0.000058
C25	C	-0.624398	-0.144449	0.000064
C26	C	-0.674138	-0.051045	0.000066
C27	C	-0.629664	0.044421	0.000080
C28	C	-0.535452	0.046473	0.000087
C29	C	-0.763085	-0.241967	0.000052
C30	C	-0.768355	-0.053100	0.000058
C31	C	-1.086991	-0.332959	0.000065
C32	C	-1.098657	-0.448052	0.000060
N33	N	-1.061700	-0.163261	0.281917
C34	C	-1.196170	0.401967	0.000062
C35	C	-1.185213	0.510108	0.000060
C36	C	-1.023053	0.485637	0.000059
C37	C	-1.034010	0.377495	0.000062
C38	C	-1.120571	0.335664	0.000066
C39	C	-1.131526	0.227520	0.000077
C40	C	-0.969368	0.203051	0.000068
C41	C	-0.958411	0.311193	0.000065
N42	N	-1.092886	-0.123574	-0.281770
C43	C	-1.158455	-0.040045	0.531219
C44	C	-1.151578	-0.048815	0.655882
C45	C	-1.041064	-0.189566	0.655907
C46	C	-1.047941	-0.180796	0.531244
C47	C	-1.106640	-0.106034	0.468905
C48	C	-1.113521	-0.097269	0.344240
C49	C	-1.003003	-0.238015	0.344267
C50	C	-0.996126	-0.246785	0.468930
H51	H	-0.808847	0.022962	0.000064
C52	C	-0.438190	0.165511	-0.101724
C53	C	-0.486566	0.151403	0.000089
H54	H	-0.408012	0.230293	-0.101726
H55	H	-0.395091	0.110181	-0.101715
H56	H	-0.478663	0.165645	-0.170778
H57	H	-0.446092	0.151262	0.069144
H58	H	-0.529669	0.206748	0.000091
H59	H	-1.161318	-0.036397	0.293484
H60	H	-1.266650	0.367906	0.000077
H61	H	-0.952579	0.519717	0.000044
H62	H	-1.246774	0.564089	0.000053
C63	C	-0.869611	0.466102	0.000069
C64	C	-0.863266	0.357180	0.000070
H65	H	-0.810870	0.494487	0.000082
H66	H	-0.904937	0.493701	-0.068996
H67	H	-0.897317	0.483984	0.069133
H68	H	-0.835566	0.339297	-0.068999
H69	H	-0.827926	0.329571	0.069142
C70	C	-1.267008	0.098196	0.543711
C71	C	-1.222976	0.042128	0.462687
H72	H	-1.306837	0.148929	0.501401
H73	H	-1.300464	0.051551	0.592322
H74	H	-1.223583	0.132145	0.592346
H75	H	-1.266401	0.008171	0.414058
H76	H	-1.189518	0.088779	0.414056
C77	C	-0.390494	-0.420628	0.000053
C78	C	-0.331564	-0.336406	0.000063
H79	H	-0.356739	-0.484011	0.000038
H80	H	-0.423527	-0.422368	0.069115
H81	H	-0.431172	-0.412631	-0.069014
H82	H	-0.290889	-0.344399	0.069135
H83	H	-0.298516	-0.334667	-0.069006
C84	C	-0.888078	-0.252799	0.694342
C85	C	-0.976537	-0.271723	0.724454
H86	H	-0.848240	-0.303513	0.736670
H87	H	-0.884761	-0.257041	0.611192
H88	H	-0.871237	-0.185011	0.714763
H89	H	-0.993380	-0.339508	0.704026
H90	H	-0.979857	-0.267490	0.807622
H91	H	-1.193770	0.004921	0.706615
H92	H	-0.960814	-0.291750	0.293516
H93	H	-0.907809	0.149055	0.000080
C94	C	-0.843144	-0.310045	0.507354
C95	C	-0.931606	-0.328956	0.537465
H96	H	-0.803313	-0.360772	0.549671
H97	H	-0.839831	-0.314276	0.424202
H98	H	-0.826292	-0.242264	0.527788
H99	H	-0.948460	-0.396734	0.517023
H100	H	-0.934923	-0.324735	0.620636
H101	H	-0.670175	0.120471	0.000073
C102	C	-1.290713	0.262576	0.000054
C103	C	-1.226673	0.181536	0.000068
H104	H	-1.349454	0.234188	0.000037
H105	H	-1.279255	0.299385	0.069115
H106	H	-1.286872	0.309106	-0.069014
H107	H	-1.230510	0.135010	0.069141
H108	H	-1.238135	0.144711	-0.069000
H109	H	-0.484415	-0.407301	0.000040
C110	C	-0.604458	-0.519802	0.000051
C111	C	-0.668013	-0.438254	0.000048
H112	H	-0.634637	-0.584583	0.000062
H113	H	-0.571644	-0.510214	-0.069010
H114	H	-0.563999	-0.519921	0.069119
H115	H	-0.708468	-0.438130	-0.069024
H116	H	-0.700842	-0.447845	0.069117
C117	C	-0.871607	-0.346669	-0.101779
C118	C	-0.811971	-0.346892	0.000034
H119	H	-0.901781	-0.411453	-0.101790
H120	H	-0.914707	-0.291344	-0.101763
H121	H	-0.838771	-0.337076	-0.170834
H122	H	-0.844808	-0.356478	0.069089
H123	H	-0.768865	-0.402233	0.000029
H124	H	-0.355279	0.032850	0.000101
