data_functionalizedCrystal
_audit_creation_method	'MofGen! by Chris Wilmer'
_symmetry_space_group_name_H-M	'P1'
_symmetry_Int_Tables_number	1
_symmetry_cell_setting	triclinic
loop_
_symmetry_equiv_pos_as_xyz
  x,y,z
_cell_length_a	18.050589
_cell_length_b	18.215407
_cell_length_c	18.215399
_cell_angle_alpha	90.017777
_cell_angle_beta	89.976397
_cell_angle_gamma	89.976159
loop_
_atom_site_label
_atom_site_type_symbol
_atom_site_fract_x
_atom_site_fract_y
_atom_site_fract_z
Zn1	Zn	-0.295754	-1.125055	-0.416098
Zn2	Zn	-0.419949	-1.124956	-0.293041
Zn3	Zn	-0.295768	-1.001987	-0.293049
Zn4	Zn	-0.419897	-1.001946	-0.416070
O5	O	-0.357842	-1.063486	-0.354564
O6	O	-0.312244	-1.228026	-0.399782
O7	O	-0.403503	-1.108620	-0.190058
O8	O	-0.191841	-1.018371	-0.309387
O9	O	-0.403490	-1.227953	-0.309372
O10	O	-0.191831	-1.108788	-0.399790
O11	O	-0.312268	-1.018275	-0.190064
O12	O	-0.312218	-0.898998	-0.309361
O13	O	-0.403402	-1.018301	-0.519058
O14	O	-0.403415	-0.898967	-0.399743
O15	O	-0.312194	-1.108748	-0.519078
O16	O	-0.523867	-1.108580	-0.309346
O17	O	-0.523829	-1.018205	-0.399735
C18	C	-0.357813	-0.872280	-0.354550
C19	C	-0.357818	-0.790481	-0.354562
C20	C	-0.310399	-0.602324	-0.401711
C21	C	-0.310402	-0.525465	-0.401713
C22	C	-0.405274	-0.525400	-0.307424
C23	C	-0.405266	-0.602258	-0.307419
C24	C	-0.357829	-0.640717	-0.354566
C25	C	-0.357841	-0.487001	-0.354573
C26	C	-0.357846	-0.403668	-0.354575
C27	C	-0.357823	-0.724056	-0.354564
C28	C	-0.550794	-1.063397	-0.354552
C29	C	-0.633340	-1.063427	-0.354572
C30	C	-0.832797	-1.014329	-0.403708
C31	C	-0.882236	-0.996389	-0.336555
C32	C	-0.784470	-1.063499	-0.354581
C33	C	-0.882113	-1.081475	-0.421742
C34	C	-0.930455	-1.063567	-0.354596
C35	C	-0.832822	-1.045524	-0.287392
C36	C	-0.832695	-1.130641	-0.372625
C37	C	-0.882111	-1.112726	-0.305426
C38	C	-0.700372	-1.063458	-0.354573
C39	C	-1.014552	-1.063609	-0.354597
C40	C	-0.164136	-1.063595	-0.354593
C41	C	-0.081590	-1.063642	-0.354605
C42	C	-0.357791	-1.063531	-0.546517
C43	C	-0.357769	-1.063550	-0.628316
C44	C	-0.357863	-0.255439	-0.354577
C45	C	-0.357852	-0.337238	-0.354578
C46	C	-0.310233	-1.110663	-0.816522
C47	C	-0.310211	-1.110672	-0.893381
C48	C	-0.405190	-1.016489	-0.893349
C49	C	-0.405207	-1.016477	-0.816491
C50	C	-0.357730	-1.063568	-0.778080
C51	C	-0.357691	-1.063589	-0.931796
C52	C	-0.357668	-1.063598	-1.015130
C53	C	-0.357752	-1.063558	-0.694741
C54	C	-0.357839	-1.063484	-0.163358
C55	C	-0.357652	-1.063607	-0.081560
H56	H	-0.271779	-0.494208	-0.440101
H57	H	-0.903764	-1.096652	-0.478534
H58	H	-0.811260	-1.030281	-0.230585
H59	H	-0.443896	-0.494077	-0.269039
H60	H	-0.810920	-1.187375	-0.387906
F61	F	-0.259663	-1.160801	-0.934291
H62	H	-0.811143	-0.972687	-0.445194
H63	H	-0.443885	-0.978122	-0.785191
F64	F	-0.910677	-0.922213	-0.316607
F65	F	-0.455744	-0.643122	-0.257233
H66	H	-0.903628	-1.154337	-0.263839
F67	F	-0.455719	-0.966377	-0.934235
F68	F	-0.259701	-1.160779	-0.775645
F69	F	-0.259910	-0.643253	-0.451887
