data_functionalizedCrystal
_audit_creation_method	'MofGen! by Chris Wilmer'
_symmetry_space_group_name_H-M	'P1'
_symmetry_Int_Tables_number	1
_symmetry_cell_setting	triclinic
loop_
_symmetry_equiv_pos_as_xyz
  x,y,z
_cell_length_a	15.995350
_cell_length_b	15.995350
_cell_length_c	14.472310
_cell_angle_alpha	90.001162
_cell_angle_beta	89.990621
_cell_angle_gamma	83.492375
loop_
_atom_site_label
_atom_site_type_symbol
_atom_site_fract_x
_atom_site_fract_y
_atom_site_fract_z
O1	O	1.110997	0.107921	-0.076758
O2	O	1.610997	0.607921	0.423242
O3	O	0.867221	0.121248	-0.076776
O4	O	1.367221	0.621248	0.423224
O5	O	0.995773	-0.007303	-0.076766
O6	O	1.495773	0.492697	0.423234
O7	O	0.982445	0.236472	-0.076769
O8	O	1.482445	0.736472	0.423231
O9	O	0.995740	-0.007296	0.076916
O10	O	1.495740	0.492704	0.576916
O11	O	0.867188	0.121256	0.076906
O12	O	1.367188	0.621256	0.576906
O13	O	1.110963	0.107928	0.076924
O14	O	1.610963	0.607928	0.576924
Cu15	Cu	0.989073	0.114593	0.090947
Cu16	Cu	1.489073	0.614593	0.590947
Cu17	Cu	0.989112	0.114584	-0.090800
Cu18	Cu	1.489112	0.614584	0.409200
O19	O	0.982412	0.236480	0.076913
O20	O	1.482412	0.736480	0.576913
C21	C	0.836010	0.120701	0.000062
C22	C	1.336010	0.620701	0.500062
C23	C	0.743060	0.119049	0.000055
C24	C	1.243060	0.619049	0.500055
C25	C	0.405312	0.113117	0.000074
C26	C	0.905312	0.613117	0.500074
C27	C	0.452746	0.021565	0.000418
C28	C	0.952746	0.521565	0.500418
C29	C	0.549436	0.023217	0.000065
C30	C	1.049436	0.523217	0.500065
C31	C	0.572873	0.116060	0.000065
C32	C	1.072873	0.616060	0.500065
C33	C	0.531804	0.161212	-0.087692
C34	C	1.031804	0.661212	0.412308
C35	C	0.435169	0.158912	-0.087759
C36	C	0.935169	0.658912	0.412241
C37	C	0.434792	0.160812	0.087007
C38	C	0.934792	0.660812	0.587007
C39	C	0.531737	0.160790	0.088160
C40	C	1.031737	0.660790	0.588160
C41	C	0.667570	0.117727	0.000057
C42	C	1.167570	0.617727	0.500057
C43	C	0.310614	0.111452	0.000076
C44	C	0.810614	0.611452	0.500076
C45	C	0.995205	-0.038494	0.000073
C46	C	1.495205	0.461506	0.500073
C47	C	0.993553	-0.131444	0.000068
C48	C	1.493553	0.368556	0.500068
C49	C	0.987621	-0.469192	0.000071
C50	C	1.487621	0.030808	0.500071
C51	C	0.896069	-0.421758	-0.000281
C52	C	1.396069	0.078242	0.499719
C53	C	0.897721	-0.325068	0.000066
C54	C	1.397721	0.174932	0.500066
C55	C	0.990564	-0.301631	0.000069
C56	C	1.490564	0.198369	0.500069
C57	C	1.035701	-0.342705	0.087831
C58	C	1.535701	0.157295	0.587831
C59	C	1.033401	-0.439340	0.087904
C60	C	1.533401	0.060660	0.587904
C61	C	1.035330	-0.439707	-0.086861
C62	C	1.535330	0.060293	0.413139
C63	C	1.035309	-0.342762	-0.088021
C64	C	1.535309	0.157238	0.411979
C65	C	0.992231	-0.206934	0.000071
C66	C	1.492231	0.293066	0.500071
C67	C	0.985956	-0.563890	0.000075
C68	C	1.485956	-0.063890	0.500075
C69	C	1.142175	0.108476	0.000083
C70	C	1.642175	0.608476	0.500083
C71	C	1.235125	0.110127	0.000084
C72	C	1.735125	0.610127	0.500084
C73	C	0.982980	0.267671	0.000072
C74	C	1.482980	0.767671	0.500072
C75	C	0.984631	0.360621	0.000071
C76	C	1.484631	0.860621	0.500071
N77	N	0.989051	0.114598	0.218778
N78	N	1.489051	0.614598	0.718778
N79	N	0.989140	0.114572	-0.218631
N80	N	1.489140	0.614572	0.281369
C81	C	0.989111	0.114581	0.592869
C82	C	1.489111	0.614581	1.092869
C83	C	0.920095	0.183135	0.553698
C84	C	1.420095	0.683135	1.053698
C85	C	0.920254	0.183385	0.446610
C86	C	1.420254	0.683385	0.946610
C87	C	0.989081	0.114590	0.407278
C88	C	1.489081	0.614590	0.907278
C89	C	1.076445	0.133671	0.446122
C90	C	1.576445	0.633671	0.946122
C91	C	1.076057	0.134159	0.553243
C92	C	1.576057	0.634159	1.053243
C93	C	0.971542	0.026741	0.553398
C94	C	1.471542	0.526741	1.053398
C95	C	0.969538	0.027327	0.446270
C96	C	1.469538	0.527327	0.946270
C97	C	0.989069	0.114593	0.302390
C98	C	1.489069	0.614593	0.802390
C99	C	0.989128	0.114579	0.697757
C100	C	1.489128	0.614579	1.197757
H101	H	0.560193	0.129845	-0.153002
H102	H	1.060193	0.629845	0.346998
H103	H	1.000459	-0.457639	0.153505
H104	H	1.500459	0.042361	0.653505
H105	H	0.403031	0.228313	0.087600
H106	H	0.903031	0.728313	0.587600
F107	F	1.145179	0.070143	0.412824
F108	F	1.645179	0.570143	0.912824
H109	H	1.103909	-0.328579	0.091097
H110	H	1.603909	0.171421	0.591097
F111	F	0.996219	-0.466549	-0.173806
F112	F	1.496219	0.033451	0.326194
F113	F	0.586580	-0.023175	0.082289
F114	F	1.086580	0.476825	0.582289
H115	H	0.434210	-0.015027	0.063352
H116	H	0.934210	0.484973	0.563352
F117	F	0.427149	-0.026057	-0.081381
F118	F	0.927149	0.473943	0.418619
F119	F	0.551814	0.249287	0.095088
F120	F	1.051814	0.749287	0.595088
F121	F	0.890067	0.002771	0.588744
F122	F	1.390067	0.502771	1.088744
H123	H	0.861973	-0.297200	0.063079
H124	H	1.361973	0.202800	0.563079
H125	H	1.103014	-0.327400	-0.093317
H126	H	1.603014	0.172600	0.406683
F127	F	0.851343	-0.287919	-0.082164
F128	F	1.351343	0.212081	0.417836
F129	F	0.992506	-0.306761	-0.172894
F130	F	1.492506	0.193239	0.327106
F131	F	1.096293	0.217890	0.585892
F132	F	1.596293	0.717890	1.085892
H133	H	1.021872	-0.024275	0.578728
H134	H	1.521872	0.475725	1.078728
F135	F	0.834934	0.168511	0.587380
F136	F	1.334934	0.668511	1.087380
H137	H	1.016541	-0.026079	0.419500
H138	H	1.516541	0.473921	0.919500
H139	H	1.100617	-0.471588	0.091888
H140	H	1.600617	0.028412	0.591888
F141	F	0.848312	-0.447646	0.081291
F142	F	1.348312	0.052354	0.581291
F143	F	0.585845	-0.023306	-0.082433
F144	F	1.085845	0.476694	0.417567
F145	F	0.848255	-0.445982	-0.082544
F146	F	1.348255	0.054018	0.417456
F147	F	1.123558	-0.481221	-0.087631
F148	F	1.623558	0.018779	0.412369
F149	F	0.934891	0.268593	0.413100
F150	F	1.434891	0.768593	0.913100
H151	H	0.545930	0.229421	-0.090955
H152	H	1.045930	0.729421	0.409045
F153	F	0.411254	0.115865	-0.173502
F154	F	0.911254	0.615865	0.326498
H155	H	0.855314	0.172016	0.420349
H156	H	1.355314	0.672016	0.920349
F157	F	0.994690	-0.305607	0.173193
F158	F	1.494690	0.194393	0.673193
F159	F	0.934564	0.267860	0.588855
F160	F	1.434564	0.767860	1.088855
F161	F	0.393016	0.246766	-0.092965
F162	F	0.893016	0.746766	0.407035
H163	H	1.129018	0.086196	0.579154
H164	H	1.629018	0.586196	1.079154
F165	F	1.097168	0.216448	0.411046
F166	F	1.597168	0.716448	0.911046
F167	F	0.885537	0.008397	0.413090
F168	F	1.385537	0.508397	0.913090
H169	H	0.414242	0.130885	0.153524
H170	H	0.914242	0.630885	0.653524
F171	F	0.567340	0.117641	0.173018
F172	F	1.067340	0.617641	0.673018
