data_functionalizedCrystal
_audit_creation_method	'MofGen! by Chris Wilmer'
_symmetry_space_group_name_H-M	'P1'
_symmetry_Int_Tables_number	1
_symmetry_cell_setting	triclinic
loop_
_symmetry_equiv_pos_as_xyz
  x,y,z
_cell_length_a	12.759393
_cell_length_b	17.077404
_cell_length_c	17.077402
_cell_angle_alpha	89.974547
_cell_angle_beta	89.965806
_cell_angle_gamma	90.021267
loop_
_atom_site_label
_atom_site_type_symbol
_atom_site_fract_x
_atom_site_fract_y
_atom_site_fract_z
Zn1	Zn	-0.594043	-1.200056	-0.312463
Zn2	Zn	-0.260710	-0.866722	0.020870
Zn3	Zn	0.072624	-0.533389	0.354203
Zn4	Zn	-0.418352	-1.199953	-0.443750
Zn5	Zn	-0.085019	-0.866620	-0.110417
Zn6	Zn	0.248314	-0.533287	0.222917
Zn7	Zn	-0.418373	-1.068783	-0.312503
Zn8	Zn	-0.085039	-0.735450	0.020830
Zn9	Zn	0.248294	-0.402117	0.354164
Zn10	Zn	-0.593984	-1.068750	-0.443692
Zn11	Zn	-0.260651	-0.735417	-0.110358
Zn12	Zn	0.072682	-0.402083	0.222975
O13	O	-0.506188	-1.134386	-0.378102
O14	O	-0.172855	-0.801052	-0.044769
O15	O	0.160479	-0.467719	0.288565
O16	O	-0.570753	-1.309889	-0.329887
O17	O	-0.237420	-0.976556	0.003446
O18	O	0.095914	-0.643222	0.336780
O19	O	-0.271334	-1.182524	-0.426381
O20	O	0.061999	-0.849191	-0.093048
O21	O	0.395333	-0.515858	0.240286
O22	O	-0.441709	-1.086254	-0.202651
O23	O	-0.108375	-0.752920	0.130683
O24	O	0.224958	-0.419587	0.464016
O25	O	-0.441674	-1.309814	-0.426343
O26	O	-0.108341	-0.976480	-0.093009
O27	O	0.224993	-0.643147	0.240324
O28	O	-0.570773	-1.182699	-0.202622
O29	O	-0.237440	-0.849365	0.130712
O30	O	0.095894	-0.516032	0.464045
O31	O	-0.271349	-1.086154	-0.329954
O32	O	0.061984	-0.752821	0.003379
O33	O	0.395318	-0.419488	0.336713
O34	O	-0.441652	-0.958932	-0.329897
O35	O	-0.108319	-0.625599	0.003436
O36	O	0.225015	-0.292265	0.336769
O37	O	-0.741013	-1.086197	-0.426243
O38	O	-0.407680	-0.752863	-0.092910
O39	O	-0.074347	-0.419530	0.240424
O40	O	-0.570673	-0.958907	-0.426281
O41	O	-0.237340	-0.625574	-0.092948
O42	O	0.095993	-0.292241	0.240385
O43	O	-0.741056	-1.182666	-0.329830
O44	O	-0.407723	-0.849333	0.003503
O45	O	-0.074390	-0.516000	0.336836
O46	O	-0.441617	-1.182492	-0.553589
O47	O	-0.108284	-0.849159	-0.220256
O48	O	0.225049	-0.515825	0.113077
O49	O	-0.570653	-1.086098	-0.553546
O50	O	-0.237320	-0.752764	-0.220213
O51	O	0.096013	-0.419431	0.113120
C52	C	-0.506150	-1.134301	-0.582050
C53	C	-0.172816	-0.800968	-0.248717
C54	C	0.160517	-0.467635	0.084617
C55	C	-0.506168	-1.134337	-0.669300
C56	C	-0.172835	-0.801004	-0.335966
C57	C	0.160498	-0.467671	-0.002633
C58	C	-0.506159	-0.930438	-0.378088
C59	C	-0.172826	-0.597104	-0.044755
C60	C	0.160508	-0.263771	0.288579
C61	C	-0.506172	-0.843188	-0.378101
C62	C	-0.172838	-0.509855	-0.044767
C63	C	0.160495	-0.176521	0.288566
C64	C	-0.780222	-1.134439	-0.378026
C65	C	-0.446888	-0.801106	-0.044692
C66	C	-0.113555	-0.467773	0.288641
C67	C	-0.896998	-1.134462	-0.377993
C68	C	-0.563665	-0.801129	-0.044660
C69	C	-0.230332	-0.467796	0.288673
C70	C	-1.061565	-1.084271	-0.428146
C71	C	-0.728231	-0.750938	-0.094813
C72	C	-0.394898	-0.417604	0.238521
C73	C	-0.951840	-1.084247	-0.428175
C74	C	-0.618507	-0.750913	-0.094841
C75	C	-0.285174	-0.417580	0.238492
C76	C	-0.951886	-1.184700	-0.327775
C77	C	-0.618553	-0.851366	0.005559
C78	C	-0.285219	-0.518033	0.338892
C79	C	-1.061608	-1.184720	-0.327743
C80	C	-0.728275	-0.851386	0.005591
C81	C	-0.394941	-0.518053	0.338924
C82	C	-1.116401	-1.034058	-0.478336
C83	C	-0.783068	-0.700724	-0.145003
C84	C	-0.449734	-0.367391	0.188331
C85	C	-1.061521	-0.983819	-0.528554
C86	C	-0.728188	-0.650486	-0.195221
C87	C	-0.394854	-0.317152	0.138113
C88	C	-0.951797	-0.983795	-0.528583
C89	C	-0.618464	-0.650461	-0.195249
C90	C	-0.285130	-0.317128	0.138084
C91	C	-0.896953	-1.034009	-0.478393
C92	C	-0.563619	-0.700676	-0.145060
C93	C	-0.230286	-0.367342	0.188273
C94	C	-0.233221	-1.134377	-0.378121
C95	C	0.100113	-0.801044	-0.044788
C96	C	0.433446	-0.467710	0.288545
C97	C	-0.116445	-1.134506	-0.377933
C98	C	0.216889	-0.801173	-0.044599
C99	C	0.550222	-0.467840	0.288734
C100	C	-0.506218	-1.339130	-0.378117
C101	C	-0.172884	-1.005796	-0.044784
C102	C	0.160449	-0.672463	0.288550
C103	C	-0.506230	-1.426380	-0.378123
C104	C	-0.172897	-1.093046	-0.044790
C105	C	0.160436	-0.759713	0.288543
C106	C	-0.573245	-0.802205	-0.428364
C107	C	-0.239912	-0.468872	-0.095030
C108	C	0.093422	-0.135539	0.238303
C109	C	-0.573262	-0.720225	-0.428365
C110	C	-0.239929	-0.386892	-0.095032
C111	C	0.093405	-0.053558	0.238301
C112	C	-0.506199	-0.679228	-0.378107
C113	C	-0.172866	-0.345895	-0.044774
C114	C	0.160468	-0.012562	0.288559
C115	C	-0.439123	-0.720217	-0.327839
C116	C	-0.105789	-0.386883	0.005494
C117	C	0.227544	-0.053550	0.338828
C118	C	-0.439112	-0.802196	-0.327834
C119	C	-0.105779	-0.468862	0.005499
C120	C	0.227555	-0.135529	0.338833
C121	C	-0.439148	-0.549347	-0.327855
C122	C	-0.105815	-0.216013	0.005479
C123	C	0.227519	0.117320	0.338812
C124	C	-0.439157	-0.467362	-0.327860
C125	C	-0.105824	-0.134029	0.005473
C126	C	0.227510	0.199305	0.338806
C127	C	-0.573298	-0.467376	-0.428386
C128	C	-0.239965	-0.134043	-0.095052
C129	C	0.093369	0.199291	0.238281
C130	C	-0.573287	-0.549355	-0.428381
C131	C	-0.239954	-0.216022	-0.095047
C132	C	0.093379	0.117312	0.238286
C133	C	-0.506209	-0.590337	-0.378113
C134	C	-0.172876	-0.257004	-0.044780
C135	C	0.160458	0.076329	0.288554
C136	C	-0.573514	-1.184691	-1.045035
C137	C	-0.240181	-0.851357	-0.711702
C138	C	0.093152	-0.518024	-0.378369
C139	C	-0.573490	-1.184655	-0.963055
C140	C	-0.240156	-0.851322	-0.629722
C141	C	0.093177	-0.517989	-0.296388
C142	C	-0.506231	-1.134461	-0.922149
C143	C	-0.172897	-0.801128	-0.588815
C144	C	0.160436	-0.467795	-0.255482
C145	C	-0.438985	-1.084305	-0.963227
C146	C	-0.105651	-0.750972	-0.629894
C147	C	0.227682	-0.417638	-0.296560
C148	C	-0.439005	-1.084345	-1.045206
C149	C	-0.105672	-0.751011	-0.711872
C150	C	0.227662	-0.417678	-0.378539
C151	C	-0.438949	-1.084224	-0.792357
C152	C	-0.105616	-0.750891	-0.459024
C153	C	0.227718	-0.417557	-0.125690
C154	C	-0.438930	-1.084183	-0.710372
C155	C	-0.105597	-0.750850	-0.377039
C156	C	0.227737	-0.417516	-0.043706
C157	C	-0.573434	-1.184535	-0.710206
C158	C	-0.240100	-0.851201	-0.376873
C159	C	0.093233	-0.517868	-0.043539
C160	C	-0.573454	-1.184575	-0.792185
C161	C	-0.240121	-0.851241	-0.458852
C162	C	0.093213	-0.517908	-0.125518
C163	C	-0.506209	-1.134417	-0.833258
C164	C	-0.172876	-0.801084	-0.499924
C165	C	0.160458	-0.467750	-0.166591
C166	C	-0.506250	-1.134491	-0.173358
C167	C	-0.172916	-0.801158	0.159976
C168	C	0.160417	-0.467825	0.493309
C169	C	-0.506276	-1.134536	-0.086108
C170	C	-0.172943	-0.801203	0.247225
C171	C	0.160391	-0.467870	0.580559
H172	H	-1.205744	-1.034073	-0.478320
H173	H	-0.872411	-0.700740	-0.144987
H174	H	-0.539077	-0.367407	0.188347
F175	F	-0.645106	-1.238112	-1.088564
F176	F	-0.311772	-0.904779	-0.755230
F177	F	0.021561	-0.571445	-0.421897
H178	H	-0.628186	-1.225375	-0.676760
H179	H	-0.294853	-0.892041	-0.343427
H180	H	0.038481	-0.558708	-0.010093
H181	H	-0.384216	-1.043439	-0.929916
H182	H	-0.050883	-0.710105	-0.596583
H183	H	0.282451	-0.376772	-0.263250
F184	F	-0.644619	-0.845830	-0.481860
F185	F	-0.311285	-0.512497	-0.148526
F186	F	0.022048	-0.179163	0.184807
H187	H	-0.628225	-1.225445	-0.825489
H188	H	-0.294891	-0.892111	-0.492155
H189	H	0.038442	-0.558778	-0.158822
F190	F	-0.367333	-1.030771	-0.666838
F191	F	-0.034000	-0.697437	-0.333505
F192	F	0.299334	-0.364104	-0.000172
F193	F	-0.367375	-1.030843	-0.836068
F194	F	-0.034042	-0.697510	-0.502734
F195	F	0.299292	-0.364177	-0.169401
F196	F	-0.367437	-1.030966	-1.088918
F197	F	-0.034104	-0.697633	-0.755585
F198	F	0.299230	-0.364300	-0.422251
H199	H	-1.106182	-0.942930	-0.569411
H200	H	-0.772849	-0.609597	-0.236077
H201	H	-0.439516	-0.276264	0.097256
H202	H	-0.627918	-0.434004	-0.469313
H203	H	-0.294585	-0.100671	-0.135980
H204	H	0.038748	0.232662	0.197354
H205	H	-1.106293	-1.225622	-0.286851
H206	H	-0.772959	-0.892288	0.046483
H207	H	-0.439626	-0.558955	0.379816
H208	H	-0.807608	-1.033983	-0.478419
H209	H	-0.474275	-0.700650	-0.145085
H210	H	-0.140941	-0.367317	0.188248
F211	F	-0.893392	-0.930321	-0.582021
F212	F	-0.560059	-0.596987	-0.248688
F213	F	-0.226726	-0.263654	0.084646
H214	H	-0.628240	-1.225495	-0.929614
H215	H	-0.294906	-0.892162	-0.596281
H216	H	0.038427	-0.558828	-0.262947
F217	F	-0.644651	-0.676612	-0.481862
F218	F	-0.311318	-0.343279	-0.148528
F219	F	0.022015	-0.009945	0.184805
F220	F	-0.367725	-0.845812	-0.274336
F221	F	-0.034392	-0.512478	0.058998
F222	F	0.298941	-0.179145	0.392331
H223	H	-0.907223	-1.225582	-0.286913
H224	H	-0.573890	-0.892249	0.046420
H225	H	-0.240557	-0.558916	0.379753
H226	H	-0.384561	-0.433985	-0.286927
H227	H	-0.051228	-0.100651	0.046407
H228	H	0.282106	0.232682	0.379740
F229	F	-0.367757	-0.592961	-0.274353
F230	F	-0.034423	-0.259628	0.058981
F231	F	0.298910	0.073705	0.392314
F232	F	-0.644656	-0.592985	-0.481876
F233	F	-0.311323	-0.259652	-0.148542
F234	F	0.022011	0.073682	0.184791
H235	H	-0.384524	-0.686831	-0.286915
H236	H	-0.051190	-0.353497	0.046418
H237	H	0.282143	-0.020164	0.379752
