data_functionalizedCrystal
_audit_creation_method	'MofGen! by Chris Wilmer'
_symmetry_space_group_name_H-M	'P1'
_symmetry_Int_Tables_number	1
_symmetry_cell_setting	triclinic
loop_
_symmetry_equiv_pos_as_xyz
  x,y,z
_cell_length_a	12.594517
_cell_length_b	18.050589
_cell_length_c	12.594509
_cell_angle_alpha	89.972304
_cell_angle_beta	89.985695
_cell_angle_gamma	90.028178
loop_
_atom_site_label
_atom_site_type_symbol
_atom_site_fract_x
_atom_site_fract_y
_atom_site_fract_z
Zn1	Zn	1.627177	-0.295638	-0.601665
Zn2	Zn	1.627030	-0.419842	-0.423688
Zn3	Zn	1.449181	-0.295670	-0.423715
Zn4	Zn	1.449125	-0.419791	-0.601640
O5	O	1.538128	-0.357735	-0.512677
O6	O	1.776103	-0.312122	-0.578055
O7	O	1.603400	-0.403405	-0.274745
O8	O	1.472877	-0.191741	-0.447343
O9	O	1.775995	-0.403374	-0.447296
O10	O	1.603650	-0.191718	-0.578081
O11	O	1.472735	-0.312177	-0.274766
O12	O	1.300228	-0.312127	-0.447318
O13	O	1.472782	-0.403287	-0.750589
O14	O	1.300187	-0.403318	-0.578039
O15	O	1.603596	-0.312072	-0.750607
O16	O	1.603346	-0.523760	-0.447271
O17	O	1.472640	-0.523722	-0.578012
C18	C	1.261587	-0.357721	-0.512679
C19	C	1.143282	-0.357732	-0.512706
C20	C	1.003274	-0.407421	-0.583673
C21	C	1.074039	-0.425498	-0.486531
C22	C	1.074088	-0.339689	-0.609836
C23	C	1.003261	-0.375868	-0.415481
C24	C	1.003305	-0.290028	-0.538852
C25	C	1.074038	-0.308079	-0.441643
C26	C	1.538000	-0.550687	-0.512659
C27	C	1.538042	-0.633233	-0.512687
C28	C	1.467034	-0.832690	-0.583759
C29	C	1.441086	-0.882135	-0.486637
C30	C	1.538147	-0.784363	-0.512701
C31	C	1.564147	-0.882000	-0.609834
C32	C	1.538246	-0.930348	-0.512723
C33	C	1.512147	-0.832721	-0.415528
C34	C	1.635254	-0.832582	-0.538790
C35	C	1.609342	-0.882004	-0.441601
C36	C	1.538087	-0.700265	-0.512690
C37	C	1.538306	-1.014445	-0.512723
C38	C	1.815749	-0.357750	-0.512675
C39	C	1.934054	-0.357756	-0.512674
C40	C	1.538199	-0.357670	-0.790298
C41	C	1.538230	-0.357642	-0.908603
C42	C	1.538286	-0.164029	-0.512718
C43	C	1.538354	-0.081484	-0.512735
C44	C	1.467103	-0.407226	-0.977847
C45	C	1.564218	-0.425371	-1.048625
C46	C	1.441191	-0.339452	-1.048624
C47	C	1.635396	-0.375823	-0.977824
C48	C	1.512303	-0.289873	-0.977816
C49	C	1.609485	-0.307993	-1.048563
C50	C	1.538118	-0.357746	-0.236136
C51	C	1.538294	-0.357565	-0.117831
H52	H	0.972210	-0.232778	-0.561015
H53	H	1.406808	-0.811036	-0.643765
H54	H	0.972281	-0.391209	-0.333303
H55	H	1.359099	-0.324099	-1.079724
H56	H	1.586099	-0.903646	-0.691969
H57	H	1.359012	-0.903918	-0.464591
H58	H	1.586182	-0.482649	-1.079728
H59	H	1.717310	-0.810801	-0.560883
C60	C	1.116025	-0.502854	-0.456624
H61	H	1.157511	-0.499425	-0.393828
H62	H	1.158586	-0.521506	-0.512850
H63	H	1.057867	-0.535353	-0.444730
H64	H	1.104912	-0.266069	-0.381546
C65	C	1.482353	-0.803606	-0.304542
H66	H	1.482460	-0.750976	-0.305222
H67	H	1.532581	-0.820884	-0.254031
H68	H	1.413614	-0.820987	-0.285915
C69	C	1.116117	-0.319054	-0.720817
H70	H	1.091874	-0.354400	-0.771159
H71	H	1.191534	-0.318750	-0.719876
H72	H	1.090849	-0.271288	-0.739891
H73	H	1.669732	-0.266028	-1.079417
H74	H	1.669522	-0.903521	-0.381450
C75	C	0.961289	-0.464211	-0.664660
H76	H	0.985509	-0.512303	-0.645893
H77	H	0.986580	-0.451857	-0.733494
H78	H	0.885867	-0.463519	-0.664535
H79	H	1.407000	-0.449222	-0.946797
H80	H	1.717511	-0.391241	-0.946855
C81	C	1.482595	-0.212520	-0.935757
H82	H	1.413566	-0.199695	-0.959955
H83	H	1.532439	-0.177146	-0.961023
H84	H	1.483424	-0.213003	-0.860335
