data_functionalizedCrystal
_audit_creation_method	'MofGen! by Chris Wilmer'
_symmetry_space_group_name_H-M	'P1'
_symmetry_Int_Tables_number	1
_symmetry_cell_setting	triclinic
loop_
_symmetry_equiv_pos_as_xyz
  x,y,z
_cell_length_a	8.559649
_cell_length_b	15.944551
_cell_length_c	7.088929
_cell_angle_alpha	83.774879
_cell_angle_beta	95.325015
_cell_angle_gamma	76.638701
loop_
_atom_site_label
_atom_site_type_symbol
_atom_site_fract_x
_atom_site_fract_y
_atom_site_fract_z
O1	O	2.103727	-0.018804	-0.158956
O2	O	1.638526	0.024575	-0.158968
O3	O	1.883832	-0.120210	-0.158944
O4	O	1.858421	0.125981	-0.158979
O5	O	1.916614	-0.139599	0.159034
O6	O	1.671309	0.005187	0.159010
O7	O	2.136509	-0.038193	0.159023
Cu8	Cu	1.906902	-0.018273	0.188050
Cu9	Cu	1.868133	0.004656	-0.187996
O10	O	1.891203	0.106593	0.158999
C11	C	1.595388	0.018169	0.000020
C12	C	1.418008	0.027954	0.000015
C13	C	1.899168	-0.161130	0.000045
C14	C	1.896006	-0.254172	0.000046
C15	C	1.736394	-0.458727	0.000015
C16	C	1.826675	-0.534087	0.156800
C17	C	1.890284	-0.424528	0.000031
C18	C	1.794391	-0.514957	-0.156702
C19	C	1.884745	-0.589082	0.000009
C20	C	1.980621	-0.498671	0.156945
C21	C	1.948300	-0.479525	-0.156697
C22	C	2.038697	-0.554877	0.000126
C23	C	1.893471	-0.329732	0.000046
C24	C	1.881571	-0.683878	0.000008
C25	C	2.179647	-0.031786	0.000031
C26	C	2.357025	-0.041571	0.000022
C27	C	1.875866	0.147513	0.000005
C28	C	1.879027	0.240556	-0.000008
N29	N	1.934182	-0.034401	0.452541
N30	N	1.840866	0.020776	-0.452487
H31	H	1.440515	-0.108579	0.000023
H32	H	1.999667	-0.455510	-0.289250
H33	H	2.030912	-0.091580	0.534206
H34	H	1.775252	-0.558076	0.289345
O35	O	1.318595	0.107934	0.000253
C36	C	1.251672	0.233570	0.165021
C37	C	1.364395	0.143016	0.164969
H38	H	1.288639	0.261953	0.298199
H39	H	1.261271	0.278294	0.032034
H40	H	1.121565	0.227471	0.164921
H41	H	1.494550	0.149031	0.165136
H42	H	1.354656	0.098325	0.297944
H43	H	1.744154	0.077957	0.465858
O44	O	1.584039	-0.409217	0.000525
C45	C	1.347857	-0.380972	0.166337
C46	C	1.520387	-0.437092	0.166010
H47	H	1.296330	-0.403499	0.300097
H48	H	1.351459	-0.309887	0.165093
H49	H	1.268008	-0.388020	0.033966
H50	H	1.600334	-0.430117	0.298359
H51	H	1.516659	-0.508154	0.167155
O52	O	2.074413	-0.489331	0.315196
C53	C	2.182690	-0.390619	0.492684
C54	C	2.076407	-0.401073	0.313410
H55	H	2.184365	-0.319269	0.491279
H56	H	2.131299	-0.413565	0.626194
H57	H	2.311197	-0.431304	0.493232
H58	H	1.947878	-0.360390	0.312677
H59	H	2.127931	-0.378155	0.179981
O60	O	2.191282	-0.604277	0.000565
C61	C	2.461758	-0.652409	0.166201
C62	C	2.289017	-0.596442	0.165953
H63	H	2.540833	-0.646080	0.299883
H64	H	2.458223	-0.723392	0.165058
H65	H	2.514128	-0.629140	0.033750
H66	H	2.236544	-0.619635	0.298382
H67	H	2.292657	-0.525470	0.166998
H68	H	1.715616	-0.522750	-0.289260
