data_functionalizedCrystal
_audit_creation_method	'MofGen! by Chris Wilmer'
_symmetry_space_group_name_H-M	'P1'
_symmetry_Int_Tables_number	1
_symmetry_cell_setting	triclinic
loop_
_symmetry_equiv_pos_as_xyz
  x,y,z
_cell_length_a	19.188930
_cell_length_b	14.853567
_cell_length_c	13.330367
_cell_angle_alpha	90.000844
_cell_angle_beta	90.021431
_cell_angle_gamma	83.389856
loop_
_atom_site_label
_atom_site_type_symbol
_atom_site_fract_x
_atom_site_fract_y
_atom_site_fract_z
O1	O	-0.926523	-0.112552	-0.083738
O2	O	-0.723263	-0.127704	-0.083668
O3	O	-0.830322	0.011132	-0.083708
O4	O	-0.819464	-0.251388	-0.083698
O5	O	-0.830307	0.011135	0.083139
O6	O	-0.723247	-0.127701	0.083179
O7	O	-0.926508	-0.112549	0.083109
Cu8	Cu	-0.824876	-0.120125	0.098379
Cu9	Cu	-0.824894	-0.120128	-0.098937
O10	O	-0.819448	-0.251385	0.083149
C11	C	-0.697242	-0.127211	-0.000236
C12	C	-0.619733	-0.125739	-0.000209
C13	C	-0.829823	0.044720	-0.000287
C14	C	-0.828348	0.144795	-0.000295
C15	C	-0.952528	-0.113041	-0.000325
C16	C	-1.030038	-0.114514	-0.000358
C17	C	-0.575080	-0.207203	-0.000222
C18	C	-0.502252	-0.205819	-0.000233
C19	C	-0.474079	-0.122966	-0.000252
C20	C	-0.518741	-0.041491	-0.000233
C21	C	-0.591568	-0.042878	-0.000212
N22	N	-0.365893	-0.059637	-0.057080
N23	N	-0.296710	-0.058326	-0.057102
C24	C	-0.254657	-0.118785	-0.000313
N25	N	-0.284398	-0.180619	0.056486
N26	N	-0.353587	-0.181933	0.056504
C27	C	-0.395112	-0.121454	-0.000274
C28	C	-0.131035	-0.198755	-0.000336
C29	C	-0.058205	-0.197368	-0.000341
C30	C	-0.074696	-0.033038	-0.000352
C31	C	-0.147524	-0.034427	-0.000337
C32	C	-0.175689	-0.117288	-0.000334
C33	C	-0.819948	-0.284972	-0.000274
C34	C	-0.821422	-0.385048	-0.000272
N35	N	-0.824868	-0.120121	0.237160
C36	C	-0.758520	0.556941	-0.000252
C37	C	-0.885709	0.578929	-0.000296
C38	C	-0.887095	0.484903	-0.000302
C39	C	-0.824193	0.426891	-0.000282
C40	C	-0.759904	0.462906	-0.000255
C41	C	-0.951383	0.448881	-0.000319
C42	C	-0.952772	0.354850	-0.000324
C43	C	-0.889869	0.296836	-0.000311
C44	C	-0.825577	0.332856	-0.000285
C45	C	-0.762675	0.274845	-0.000265
C46	C	-0.698383	0.310862	-0.000247
C47	C	-0.697001	0.404892	-0.000242
C48	C	-0.891251	0.202807	-0.000315
C49	C	-0.764059	0.180809	-0.000269
N50	N	-0.824908	-0.120124	-0.237719
C51	C	-0.777486	-0.181580	0.709801
C52	C	-0.872321	-0.058669	0.709733
C53	C	-0.872313	-0.058666	0.604715
C54	C	-0.824892	-0.120122	0.552235
C55	C	-0.777478	-0.181581	0.604773
C56	C	-0.919731	0.002786	0.552169
C57	C	-0.919725	0.002791	0.447144
C58	C	-0.872300	-0.058662	0.394662
C59	C	-0.824884	-0.120123	0.447207
C60	C	-0.777462	-0.181580	0.394726
C61	C	-0.730042	-0.243037	0.447269
C62	C	-0.730053	-0.243034	0.552290
C63	C	-0.872290	-0.058665	0.289641
C64	C	-0.777454	-0.181581	0.289698
H65	H	-0.465889	-0.272159	-0.000241
C66	C	-0.924444	0.008929	0.231848
H67	H	-0.952686	0.045531	0.278145
H68	H	-0.953530	-0.023410	0.190854
H69	H	-0.899288	0.046385	0.190902
H70	H	-0.598007	-0.274675	-0.000222
C71	C	-0.694867	0.117000	-0.000251
H72	H	-0.704897	0.055840	-0.000261
H73	H	-0.668500	0.127891	0.057937
H74	H	-0.668521	0.127893	-0.058437
H75	H	-1.002595	0.496120	-0.000326
H76	H	-0.738835	-0.231623	0.246975
H77	H	-0.647168	0.263617	-0.000223
C78	C	-1.023489	0.315237	-0.000358
H79	H	-1.060752	0.363255	-0.000377
H80	H	-1.026672	0.279006	0.057818
H81	H	-1.026675	0.279022	-0.058556
H82	H	-0.706174	0.586271	-0.000241
C83	C	-0.971878	0.070397	0.389357
H84	H	-1.000117	0.107002	0.435655
H85	H	-1.000967	0.038065	0.348360
H86	H	-0.946717	0.107850	0.348414
H87	H	-0.644657	0.434227	-0.000226
C88	C	-0.954896	0.642738	-0.000316
H89	H	-0.944864	0.703897	-0.000314
H90	H	-0.981250	0.631843	0.057855
H91	H	-0.981256	0.631850	-0.058519
H92	H	-0.627925	0.023463	-0.000202
H93	H	-0.153968	-0.266225	-0.000319
C94	C	-0.043718	0.058101	-0.000367
H95	H	-0.080746	0.106422	-0.000353
H96	H	-0.015672	0.062060	-0.058555
H97	H	-0.015632	0.062056	0.057818
H98	H	-0.943596	0.173485	-0.000324
H99	H	-0.021850	-0.263708	-0.000346
C100	C	-0.924480	0.008932	0.767454
H101	H	-0.952718	0.045532	0.721121
H102	H	-0.899331	0.046376	0.808443
H103	H	-0.953580	-0.023409	0.808400
H104	H	-0.738876	-0.231616	0.752583
H105	H	-0.691434	-0.293079	0.404527
C106	C	-0.677903	-0.310637	0.610088
H107	H	-0.684707	-0.301841	0.680151
H108	H	-0.631296	-0.301001	0.592916
H109	H	-0.685547	-0.370784	0.592867
C110	C	-0.487754	0.049644	-0.000260
H111	H	-0.437985	0.038803	-0.000285
H112	H	-0.503051	0.083180	0.057925
H113	H	-0.503102	0.083171	-0.058449
H114	H	-0.958344	0.052818	0.594902
C115	C	-0.196644	0.055185	-0.000338
H116	H	-0.169437	0.104728	-0.000359
H117	H	-0.225375	0.058063	0.057851
H118	H	-0.225416	0.058055	-0.058523
