data_functionalizedCrystal
_audit_creation_method	'MofGen! by Chris Wilmer'
_symmetry_space_group_name_H-M	'P1'
_symmetry_Int_Tables_number	1
_symmetry_cell_setting	triclinic
loop_
_symmetry_equiv_pos_as_xyz
  x,y,z
_cell_length_a	12.827893
_cell_length_b	12.827892
_cell_length_c	10.686551
_cell_angle_alpha	94.405078
_cell_angle_beta	94.395101
_cell_angle_gamma	90.015362
loop_
_atom_site_label
_atom_site_type_symbol
_atom_site_fract_x
_atom_site_fract_y
_atom_site_fract_z
Zn1	Zn	1.643031	-0.370627	0.713454
Zn2	Zn	1.629510	-0.558818	0.502454
Zn3	Zn	1.454858	-0.384091	0.502470
Zn4	Zn	1.468255	-0.545330	0.713406
O5	O	1.548913	-0.464717	0.607946
O6	O	1.787474	-0.395602	0.685478
O7	O	1.595077	-0.546920	0.325875
O8	O	1.479872	-0.236067	0.530485
O9	O	1.777540	-0.533865	0.530457
O10	O	1.618122	-0.226175	0.685493
O11	O	1.466761	-0.418548	0.325887
O12	O	1.310398	-0.405469	0.530438
O13	O	1.502704	-0.510876	0.889993
O14	O	1.320241	-0.523931	0.685411
O15	O	1.631112	-0.382522	0.890028
O16	O	1.608067	-0.703267	0.530411
O17	O	1.489593	-0.693357	0.685396
C18	C	1.277402	-0.464698	0.607922
C19	C	1.161250	-0.464713	0.607942
C20	C	1.548847	-0.736228	0.607924
C21	C	1.548916	-0.852379	0.607956
C22	C	1.490347	-1.019340	0.684624
C23	C	1.490273	-0.899292	0.684592
C24	C	1.114356	-0.523438	0.684509
C25	C	0.994307	-0.523456	0.684531
C26	C	1.821485	-0.464736	0.607971
C27	C	1.937639	-0.464744	0.607982
C28	C	1.569911	-0.443693	0.937077
C29	C	1.578858	-0.434733	1.077332
C30	C	1.549011	-0.192143	0.607996
C31	C	1.549052	-0.075989	0.608017
C32	C	1.528058	-0.485583	0.280096
C33	C	1.519313	-0.494248	0.139841
H34	H	1.440146	-1.059716	0.750238
H35	H	1.599262	-1.035613	0.542413
Cl36	Cl	1.189579	-0.601052	0.785691
Cl37	Cl	1.430036	-0.583506	1.056807
H38	H	0.977978	-0.414469	0.542421
Cl39	Cl	1.412666	-0.824113	0.785849
Cl40	Cl	0.932020	-0.601090	0.785737
Cl41	Cl	1.086027	-0.387099	0.506761
H42	H	1.636691	-0.376927	1.131122
Cl43	Cl	1.626514	-0.927553	0.506681
