data_functionalizedCrystal
_audit_creation_method	'MofGen! by Chris Wilmer'
_symmetry_space_group_name_H-M	'P1'
_symmetry_Int_Tables_number	1
_symmetry_cell_setting	triclinic
loop_
_symmetry_equiv_pos_as_xyz
  x,y,z
_cell_length_a	17.077404
_cell_length_b	19.805405
_cell_length_c	17.077395
_cell_angle_alpha	89.969610
_cell_angle_beta	89.984359
_cell_angle_gamma	90.026635
loop_
_atom_site_label
_atom_site_type_symbol
_atom_site_fract_x
_atom_site_fract_y
_atom_site_fract_z
Zn1	Zn	1.200005	-0.269468	-0.443825
Zn2	Zn	1.199913	-0.382658	-0.312552
Zn3	Zn	1.068746	-0.269489	-0.312573
Zn4	Zn	1.068697	-0.382620	-0.443776
O5	O	1.134341	-0.326059	-0.378182
O6	O	1.309840	-0.284489	-0.426424
O7	O	1.182496	-0.367671	-0.202708
O8	O	1.086217	-0.174769	-0.330014
O9	O	1.309772	-0.367650	-0.329978
O10	O	1.182653	-0.174754	-0.426444
O11	O	1.086128	-0.284526	-0.202724
O12	O	0.958893	-0.284489	-0.329966
O13	O	1.086134	-0.367586	-0.553629
O14	O	0.958857	-0.367606	-0.426360
O15	O	1.182605	-0.284453	-0.553666
O16	O	1.182448	-0.477370	-0.329930
O17	O	1.086044	-0.477342	-0.426339
C18	C	0.930393	-0.326046	-0.378160
C19	C	0.843143	-0.326057	-0.378169
C20	C	0.802155	-0.369402	-0.428281
C21	C	0.720174	-0.369403	-0.428294
C22	C	0.679183	-0.326063	-0.378190
C23	C	0.720178	-0.282714	-0.328076
C24	C	0.802157	-0.282710	-0.328068
C25	C	0.549308	-0.282727	-0.328095
C26	C	0.467323	-0.282732	-0.328102
C27	C	0.467325	-0.369421	-0.428321
C28	C	0.549304	-0.369417	-0.428313
C29	C	0.590292	-0.326068	-0.378197
C30	C	1.134252	-0.501915	-0.378144
C31	C	1.134286	-0.577147	-0.378154
C32	C	1.184533	-0.612483	-0.328006
C33	C	1.184566	-0.683171	-0.328023
C34	C	1.134348	-0.718522	-0.378185
C35	C	1.084100	-0.683181	-0.428338
C36	C	1.084071	-0.612494	-0.428324
C37	C	1.084216	-0.968254	-0.428397
C38	C	1.084247	-1.038947	-0.428405
C39	C	1.184710	-1.038932	-0.328095
C40	C	1.184682	-0.968244	-0.328081
C41	C	1.134436	-0.932910	-0.378237
C42	C	1.134402	-0.856261	-0.378219
C43	C	1.134378	-0.795169	-0.378200
C44	C	1.339085	-0.326072	-0.378204
C45	C	1.426335	-0.326077	-0.378213
C46	C	1.134374	-0.326013	-0.582926
C47	C	1.134389	-0.325993	-0.670176
C48	C	1.134451	-0.149516	-0.378237
C49	C	1.134497	-0.074284	-0.378261
C50	C	1.184708	-0.282614	-1.046011
C51	C	1.184692	-0.282638	-0.964030
C52	C	1.134453	-0.325929	-0.923025
C53	C	1.084233	-0.369205	-0.964004
C54	C	1.084253	-0.369184	-1.045983
C55	C	1.084192	-0.369244	-0.793134
C56	C	1.084170	-0.369264	-0.711150
C57	C	1.184631	-0.282698	-0.711181
C58	C	1.184652	-0.282677	-0.793160
C59	C	1.134430	-0.325952	-0.834134
C60	C	1.134352	-0.326056	-0.174234
C61	C	1.134490	-0.325885	-0.086984
H62	H	0.686805	-0.404699	-0.469099
Cl63	Cl	1.247828	-0.228238	-0.912524
H64	H	1.043215	-0.711970	-0.469184
H65	H	1.043298	-0.404484	-0.826493
H66	H	0.835523	-0.404697	-0.469079
Cl67	Cl	1.247881	-1.083357	-0.265045
Cl68	Cl	1.021016	-0.423692	-0.659601
H69	H	0.686796	-0.247423	-0.287284
Cl70	Cl	0.853685	-0.228215	-0.265070
H71	H	1.043303	-0.939490	-0.469234
Cl72	Cl	0.415798	-0.423907	-0.491334
H73	H	1.043355	-1.067727	-0.469259
Cl74	Cl	1.247662	-0.568048	-0.264936
H75	H	1.043157	-0.583724	-0.469161
Cl76	Cl	1.021076	-0.423630	-0.912455
Cl77	Cl	0.415793	-0.228250	-0.265110
H78	H	1.225614	-0.247357	-1.079391
Cl79	Cl	0.600834	-0.423907	-0.491296
H80	H	1.225558	-0.247422	-0.826544
H81	H	1.225522	-0.247460	-0.677816
Cl82	Cl	0.600835	-0.228231	-0.265092
H83	H	1.225481	-0.711939	-0.287187
Cl84	Cl	1.247815	-0.923807	-0.265019
H85	H	1.043361	-0.404420	-1.079343
