data_functionalizedCrystal
_audit_creation_method	'MofGen! by Chris Wilmer'
_symmetry_space_group_name_H-M	'P1'
_symmetry_Int_Tables_number	1
_symmetry_cell_setting	triclinic
loop_
_symmetry_equiv_pos_as_xyz
  x,y,z
_cell_length_a	14.044191
_cell_length_b	13.448316
_cell_length_c	14.971486
_cell_angle_alpha	89.993189
_cell_angle_beta	91.597047
_cell_angle_gamma	90.004141
loop_
_atom_site_label
_atom_site_type_symbol
_atom_site_fract_x
_atom_site_fract_y
_atom_site_fract_z
O1	O	-1.257956	-0.082644	0.215694
O2	O	-0.981977	-0.082657	0.207905
O3	O	-1.127363	-0.082643	0.082182
O4	O	-1.112570	-0.082658	0.341417
O5	O	-1.127345	0.082740	0.082172
O6	O	-0.981959	0.082727	0.207895
O7	O	-1.257937	0.082739	0.215684
Cu8	Cu	-1.119947	0.097834	0.211789
Cu9	Cu	-1.119968	-0.097752	0.211800
O10	O	-1.112551	0.082726	0.341407
C11	C	-0.946650	0.000033	0.204493
C12	C	-0.841412	0.000029	0.194329
C13	C	-1.293265	0.000047	0.219096
C14	C	-1.398502	0.000045	0.229260
C15	C	-1.126693	0.000048	0.048800
C16	C	-1.124710	0.000047	-0.050653
C17	C	-0.591187	0.000036	0.247831
C18	C	-0.648734	0.000038	0.175762
C19	C	-0.755950	0.000033	0.186095
C20	C	-0.483960	0.000041	0.237499
N21	N	-1.119938	0.235398	0.211780
N22	N	-1.119984	-0.235316	0.211802
C23	C	-1.184335	0.287445	0.156137
C24	C	-1.184341	0.391548	0.156137
C25	C	-1.119954	0.443603	0.211785
C26	C	-1.055550	0.391549	0.267431
C27	C	-1.055540	0.287448	0.267426
C28	C	-1.055576	0.608529	0.267439
C29	C	-1.055587	0.712638	0.267446
C30	C	-1.184377	0.712629	0.156150
C31	C	-1.184368	0.608528	0.156145
C32	C	-1.119965	0.556481	0.211792
C33	C	-1.210121	0.000052	-0.101148
C34	C	-1.208252	0.000042	-0.194594
C35	C	-1.120972	0.000034	-0.237545
C36	C	-1.035555	0.000027	-0.187043
C37	C	-1.037425	0.000030	-0.093598
C38	C	-1.031664	0.000023	-0.381812
C39	C	-1.029794	0.000022	-0.475263
C40	C	-1.202492	0.000035	-0.482808
C41	C	-1.204361	0.000038	-0.389364
C42	C	-1.118944	0.000032	-0.338868
C43	C	-1.113222	0.000032	0.374788
C44	C	-1.115205	0.000026	0.474242
H45	H	-0.617480	-0.000028	0.106302
Cl46	Cl	-0.974637	0.778070	0.337405
Cl47	Cl	-0.974577	0.222019	0.337378
H48	H	-1.003129	0.566156	0.312750
H49	H	-1.236777	0.433924	0.110827
H50	H	-1.236801	0.566145	0.110836
H51	H	-0.622439	0.000029	0.317285
H52	H	-1.236816	0.755012	0.110840
Cl53	Cl	-0.974600	0.456987	0.337386
Cl54	Cl	-1.319850	0.000072	-0.047163
Cl55	Cl	-1.265289	0.222015	0.086179
Cl56	Cl	-0.925831	0.000005	-0.241038
Cl57	Cl	-0.930047	0.000020	-0.030118
H58	H	-1.277802	0.000048	-0.235704
H59	H	-1.275432	0.000051	-0.354396
H60	H	-1.272042	0.000037	-0.523926
Cl61	Cl	-0.920069	0.000013	-0.529257
H62	H	-0.962108	0.000016	-0.340701
