data_functionalizedCrystal
_audit_creation_method	'MofGen! by Chris Wilmer'
_symmetry_space_group_name_H-M	'P1'
_symmetry_Int_Tables_number	1
_symmetry_cell_setting	triclinic
loop_
_symmetry_equiv_pos_as_xyz
  x,y,z
_cell_length_a	17.699083
_cell_length_b	17.699083
_cell_length_c	16.776229
_cell_angle_alpha	90.001114
_cell_angle_beta	89.992455
_cell_angle_gamma	96.716985
loop_
_atom_site_label
_atom_site_type_symbol
_atom_site_fract_x
_atom_site_fract_y
_atom_site_fract_z
O1	O	0.095713	-1.004078	-0.066178
O2	O	0.108165	-0.783700	-0.066204
O3	O	-0.008250	-0.900116	-0.066183
O4	O	0.212128	-0.887663	-0.066199
O5	O	-0.008257	-0.900100	0.066393
O6	O	0.108158	-0.783685	0.066372
O7	O	0.095706	-1.004063	0.066398
Zn8	Zn	0.101931	-0.893871	0.087435
Zn9	Zn	0.101940	-0.893892	-0.087241
O10	O	0.212121	-0.887648	0.066378
C11	C	0.107716	-0.755495	0.000081
C12	C	0.106377	-0.671477	0.000071
C13	C	-0.036451	-0.899662	0.000105
C14	C	-0.120469	-0.898323	0.000105
C15	C	0.096156	-1.032268	0.000112
C16	C	0.097494	-1.116286	0.000116
C17	C	-0.169090	-0.966656	0.000114
C18	C	-0.248033	-0.965394	0.000107
C19	C	-0.278354	-0.895798	0.000096
C20	C	-0.229727	-0.827459	0.000085
C21	C	-0.150785	-0.828722	0.000086
C22	C	-0.548090	-0.822364	0.000078
C23	C	-0.627038	-0.821106	0.000078
C24	C	-0.645338	-0.959036	0.000099
C25	C	-0.566396	-0.960299	0.000100
C26	C	-0.517776	-0.891961	0.000084
C27	C	-0.432177	-0.893330	0.000090
C28	C	-0.363951	-0.894427	0.000096
C29	C	0.240322	-0.888102	0.000087
C30	C	0.324340	-0.889440	0.000082
N31	N	0.101924	-0.893863	0.206646
C32	C	0.174710	-0.622856	0.000066
C33	C	0.173448	-0.543913	0.000077
C34	C	0.103852	-0.513592	0.000086
C35	C	0.035513	-0.562219	0.000093
C36	C	0.036776	-0.641161	0.000088
C37	C	0.030418	-0.243856	0.000113
C38	C	0.029160	-0.164908	0.000115
C39	C	0.167090	-0.146608	0.000101
C40	C	0.168353	-0.225550	0.000097
C41	C	0.100015	-0.274170	0.000108
C42	C	0.101384	-0.359769	0.000098
C43	C	0.102481	-0.427995	0.000090
N44	N	0.101941	-0.893906	-0.206452
C45	C	0.050396	-0.945428	0.248372
C46	C	0.050396	-0.945432	0.331824
C47	C	0.101927	-0.893875	0.373549
C48	C	0.153457	-0.842305	0.331817
C49	C	0.153454	-0.842297	0.248366
C50	C	0.153472	-0.842332	0.668364
C51	C	0.153473	-0.842345	0.751820
C52	C	0.050414	-0.945466	0.751822
C53	C	0.050411	-0.945459	0.668372
C54	C	0.101938	-0.893887	0.626647
C55	C	0.101937	-0.893882	0.536158
C56	C	0.101932	-0.893882	0.464036
H57	H	-0.144409	-1.023330	0.000128
C58	C	-0.301513	-1.040567	0.000130
N59	N	-0.341794	-1.097190	0.000152
H60	H	-0.018868	-0.680748	0.000091
C61	C	0.210251	-0.785699	0.622477
N62	N	0.253055	-0.743075	0.587913
C63	C	0.248621	-0.490433	0.000086
N64	N	0.305244	-0.450152	0.000099
H65	H	-0.541714	-1.016971	0.000113
C66	C	0.244914	-0.258898	0.000091
N67	N	0.302582	-0.284014	0.000093
C68	C	-0.494617	-0.747189	0.000056
N69	N	-0.454339	-0.690564	0.000037
H70	H	0.222734	-0.107012	0.000097
H71	H	0.008452	-0.987444	0.634402
C72	C	0.210144	-0.785579	0.202467
N73	N	0.252846	-0.742856	0.167898
C74	C	0.210135	-0.785584	0.377716
N75	N	0.252826	-0.742861	0.412287
H76	H	0.195437	-0.800358	0.785791
C77	C	-0.660388	-0.744541	0.000060
N78	N	-0.685507	-0.686875	0.000046
C79	C	-0.263082	-0.750902	0.000079
N80	N	-0.288205	-0.693238	0.000082
H81	H	-0.111198	-0.773078	0.000078
H82	H	0.008438	-0.987419	0.365798
C83	C	-0.047405	-0.131558	0.000135
N84	N	-0.105071	-0.106439	0.000152
H85	H	0.008437	-0.987414	0.214406
H86	H	-0.684934	-1.014680	0.000107
H87	H	-0.021154	-0.537526	0.000112
C88	C	-0.006274	-1.002191	0.797727
N89	N	-0.048970	-1.044915	0.832301
H90	H	-0.025228	-0.283434	0.000123
H91	H	0.231384	-0.647537	0.000058
