data_functionalizedCrystal
_audit_creation_method	'MofGen! by Chris Wilmer'
_symmetry_space_group_name_H-M	'P1'
_symmetry_Int_Tables_number	1
_symmetry_cell_setting	triclinic
loop_
_symmetry_equiv_pos_as_xyz
  x,y,z
_cell_length_a	17.699083
_cell_length_b	16.176319
_cell_length_c	17.699083
_cell_angle_alpha	89.995661
_cell_angle_beta	83.282848
_cell_angle_gamma	89.994736
loop_
_atom_site_label
_atom_site_type_symbol
_atom_site_fract_x
_atom_site_fract_y
_atom_site_fract_z
O1	O	-1.004078	0.068734	-0.095707
O2	O	-0.504078	0.568734	0.404293
O3	O	-0.783700	0.068739	-0.108160
O4	O	-0.283700	0.568739	0.391840
O5	O	-0.900115	0.068729	0.008256
O6	O	-0.400115	0.568729	0.508256
O7	O	-0.887663	0.068744	-0.212122
O8	O	-0.387663	0.568744	0.287878
O9	O	-0.900101	-0.068764	0.008256
O10	O	-0.400101	0.431236	0.508256
O11	O	-0.783686	-0.068754	-0.108159
O12	O	-0.283686	0.431246	0.391841
O13	O	-1.004064	-0.068759	-0.095706
O14	O	-0.504064	0.431241	0.404294
Cu15	Cu	-0.893874	-0.081311	-0.101933
Cu16	Cu	-0.393874	0.418689	0.398067
Cu17	Cu	-0.893890	0.081291	-0.101933
Cu18	Cu	-0.393890	0.581291	0.398067
O19	O	-0.887649	-0.068749	-0.212122
O20	O	-0.387649	0.431251	0.287878
C21	C	-0.755496	-0.000007	-0.107713
C22	C	-0.255496	0.499993	0.392287
C23	C	-0.671478	-0.000005	-0.106375
C24	C	-0.171478	0.499995	0.393625
N25	N	-0.893868	-0.195676	-0.101932
N26	N	-0.393868	0.304324	0.398068
C27	C	-0.632003	-0.074954	-0.105744
C28	C	-0.132003	0.425046	0.394256
C29	C	-0.553061	-0.074954	-0.104475
C30	C	-0.053061	0.425046	0.395525
C31	C	-0.513594	-0.000006	-0.103841
C32	C	-0.013594	0.499994	0.396159
C33	C	-0.553074	0.074948	-0.104470
C34	C	-0.053074	0.574948	0.395530
C35	C	-0.632016	0.074948	-0.105734
C36	C	-0.132016	0.574948	0.394266
C37	C	-0.234712	0.074950	-0.099371
C38	C	0.265288	0.574950	0.400629
C39	C	-0.155764	0.074945	-0.098109
C40	C	0.344236	0.574945	0.401891
C41	C	-0.155756	-0.074952	-0.098111
C42	C	0.344244	0.425048	0.401889
C43	C	-0.234698	-0.074952	-0.099375
C44	C	0.265302	0.425048	0.400625
C45	C	-0.274172	0.000001	-0.100000
C46	C	0.225828	0.500001	0.400000
C47	C	-0.359771	0.000001	-0.101375
C48	C	0.140229	0.500001	0.398625
C49	C	-0.427996	-0.000005	-0.102472
C50	C	0.072004	0.499995	0.397528
C51	C	-0.939683	-0.238934	-0.147781
C52	C	-0.439683	0.261066	0.352219
C53	C	-0.939691	-0.325481	-0.147778
C54	C	-0.439691	0.174519	0.352222
C55	C	-0.893880	-0.368769	-0.101930
C56	C	-0.393880	0.131231	0.398070
C57	C	-0.848063	-0.325504	-0.056076
C58	C	-0.348063	0.174496	0.443924
C59	C	-0.848059	-0.238959	-0.056075
C60	C	-0.348059	0.261041	0.443925
C61	C	-0.848077	-0.674532	-0.056077
C62	C	-0.348077	-0.174532	0.443923
C63	C	-0.848082	-0.761084	-0.056083
C64	C	-0.348082	-0.261084	0.443917
C65	C	-0.939709	-0.761055	-0.147779
C66	C	-0.439709	-0.261055	0.352221
C67	C	-0.939705	-0.674510	-0.147779
C68	C	-0.439705	-0.174510	0.352221
C69	C	-0.893892	-0.631253	-0.101922
C70	C	-0.393892	-0.131253	0.398078
C71	C	-0.893885	-0.537409	-0.101925
C72	C	-0.393885	-0.037409	0.398075
C73	C	-0.893882	-0.462611	-0.101931
C74	C	-0.393882	0.037389	0.398069
C75	C	-0.032269	-0.000010	-0.096148
C76	C	0.467731	0.499990	0.403852
C77	C	-0.116289	-0.000004	-0.097472
C78	C	0.383711	0.499996	0.402528
C79	C	-0.899662	-0.000017	0.036453
C80	C	-0.399662	0.499983	0.536453
C81	C	-0.898323	-0.000018	0.120471
C82	C	-0.398323	0.499982	0.620471
N83	N	-0.893902	0.195656	-0.101928
N84	N	-0.393902	0.695656	0.398072
C85	C	-0.888102	-0.000001	-0.240319
C86	C	-0.388102	0.499999	0.259681
C87	C	-0.889441	0.000005	-0.324337
C88	C	-0.389441	0.500005	0.175663
C89	C	-0.966657	-0.000020	0.169092
C90	C	-0.466657	0.499980	0.669092
C91	C	-0.965395	-0.000013	0.248036
C92	C	-0.465395	0.499987	0.748036
C93	C	-0.895798	-0.000009	0.278356
C94	C	-0.395798	0.499991	0.778356
C95	C	-0.827459	-0.000004	0.229729
C96	C	-0.327459	0.499996	0.729729
C97	C	-0.828722	-0.000005	0.150787
C98	C	-0.328722	0.499995	0.650787
C99	C	-0.822364	0.000003	0.548092
C100	C	-0.322364	0.500003	1.048092
C101	C	-0.821106	0.000002	0.627040
C102	C	-0.321106	0.500002	1.127040
C103	C	-0.959036	-0.000005	0.645341
C104	C	-0.459036	0.499995	1.145341
C105	C	-0.960299	-0.000006	0.566399
C106	C	-0.460299	0.499994	1.066399
C107	C	-0.891961	0.000003	0.517778
C108	C	-0.391961	0.500003	1.017778
C109	C	-0.893331	-0.000003	0.432179
C110	C	-0.393331	0.499997	0.932179
C111	C	-0.894428	-0.000009	0.363954
C112	C	-0.394428	0.499991	0.863954
H113	H	-0.664130	-0.135986	-0.106266
H114	H	-0.164130	0.364014	0.393734
H115	H	-0.977006	-0.639270	-0.185116
H116	H	-0.477006	-0.139270	0.314884
H117	H	-0.664155	0.135979	-0.106249
H118	H	-0.164155	0.635979	0.393751
C119	C	-0.754555	0.000166	0.097958
C120	C	-0.254555	0.500166	0.597958
C121	C	-0.751252	0.070915	0.052114
C122	C	-0.251252	0.570915	0.552114
C123	C	-0.682934	0.071112	0.003446
C124	C	-0.182934	0.571112	0.503446
H125	H	-0.752102	-0.047723	0.066712
H126	H	-0.252102	0.452277	0.566712
H127	H	-0.712902	0.000213	0.127293
H128	H	-0.212902	0.500213	0.627293
H129	H	-0.792893	0.070862	0.022781
H130	H	-0.292893	0.570862	0.522781
H131	H	-0.753692	0.118817	0.083339
H132	H	-0.253692	0.618817	0.583339
H133	H	-0.641281	0.071158	0.032781
H134	H	-0.141281	0.571158	0.532781
H135	H	-0.680487	0.023219	-0.027795
H136	H	-0.180487	0.523219	0.472205
H137	H	-0.680681	0.119117	-0.027660
H138	H	-0.180681	0.619117	0.472340
H139	H	-0.977014	-0.796285	-0.185116
H140	H	-0.477014	-0.296285	0.314884
H141	H	-0.976983	-0.203696	-0.185120
H142	H	-0.476983	0.296304	0.314880
H143	H	-0.810752	-0.203739	-0.018741
H144	H	-0.310752	0.296261	0.481259
H145	H	-0.810775	-0.796326	-0.018745
H146	H	-0.310775	-0.296326	0.481255
H147	H	-0.770793	0.000005	0.254422
H148	H	-0.270793	0.500005	0.754422
C149	C	-0.748230	-0.000121	0.495219
C150	C	-0.248230	0.499879	0.995219
C151	C	-0.744926	-0.070845	0.449351
C152	C	-0.244926	0.429155	0.949351
C153	C	-0.676647	-0.070982	0.400623
C154	C	-0.176647	0.429018	0.900623
H155	H	-0.706537	-0.000164	0.524486
H156	H	-0.206537	0.499836	1.024486
H157	H	-0.745855	0.047803	0.463997
H158	H	-0.245855	0.547803	0.963997
H159	H	-0.747293	-0.118757	0.480569
H160	H	-0.247293	0.381243	0.980569
H161	H	-0.786603	-0.070818	0.420067
H162	H	-0.286603	0.429182	0.920067
H163	H	-0.674272	-0.023058	0.369402
H164	H	-0.174272	0.476942	0.869402
H165	H	-0.634960	-0.071022	0.429897
H166	H	-0.134960	0.428978	0.929897
H167	H	-0.674399	-0.118963	0.369492
H168	H	-0.174399	0.381037	0.869492
C169	C	-1.042298	0.000020	0.136324
C170	C	-0.542298	0.500020	0.636324
C171	C	-1.101871	0.000044	0.195805
C172	C	-0.601871	0.500044	0.695805
C173	C	-1.171564	0.000097	0.165650
C174	C	-0.671564	0.500097	0.665650
H175	H	-1.045765	-0.047913	0.105923
H176	H	-0.545765	0.452087	0.605923
H177	H	-1.045702	0.047987	0.105928
H178	H	-0.545702	0.547987	0.605928
H179	H	-1.098469	-0.047918	0.226187
H180	H	-0.598469	0.452082	0.726187
H181	H	-1.098429	0.047974	0.226210
H182	H	-0.598429	0.547974	0.726210
H183	H	-1.174967	0.048063	0.135255
H184	H	-0.674967	0.548063	0.635255
H185	H	-1.175023	-0.047837	0.135250
H186	H	-0.675023	0.452163	0.635250
H187	H	-1.211992	0.000121	0.206003
H188	H	-0.711992	0.500121	0.706003
C189	C	-0.510289	0.156349	-0.103631
C190	C	-0.010289	0.656349	0.396369
C191	C	-0.538119	0.201557	-0.038839
C192	C	-0.038119	0.701557	0.461161
C193	C	-0.498719	0.276545	-0.038040
C194	C	0.001281	0.776545	0.461960
H195	H	-0.517352	0.187244	-0.147905
H196	H	-0.017352	0.687244	0.352095
H197	H	-0.457618	0.145654	-0.102750
H198	H	0.042382	0.645654	0.397250
H199	H	-0.590777	0.212255	-0.039727
H200	H	-0.090777	0.712255	0.460273
H201	H	-0.531055	0.170688	0.005446
H202	H	-0.031055	0.670688	0.505446
H203	H	-0.446047	0.265849	-0.037159
H204	H	0.053953	0.765849	0.462841
H205	H	-0.505784	0.307432	-0.082317
H206	H	-0.005784	0.807432	0.417683
H207	H	-0.517591	0.307224	0.005924
H208	H	-0.017591	0.807224	0.505924
H209	H	-1.021039	-0.000017	0.287620
H210	H	-0.521039	0.499983	0.787620
C211	C	-0.798251	-0.627724	-0.006273
C212	C	-0.298251	-0.127724	0.493727
C213	C	-0.758116	-0.684161	0.033858
C214	C	-0.258116	-0.184161	0.533858
C215	C	-0.712198	-0.641068	0.079738
C216	C	-0.212198	-0.141068	0.579738
H217	H	-0.829246	-0.593960	0.028665
H218	H	-0.329246	-0.093960	0.528665
H219	H	-0.763319	-0.593982	-0.037317
H220	H	-0.263319	-0.093982	0.462683
H221	H	-0.793044	-0.717888	0.064900
H222	H	-0.293044	-0.217888	0.564900
H223	H	-0.727107	-0.717927	-0.001061
H224	H	-0.227107	-0.217927	0.498939
H225	H	-0.677267	-0.607326	0.048694
H226	H	-0.177267	-0.107326	0.548694
H227	H	-0.743200	-0.607305	0.114671
H228	H	-0.243200	-0.107305	0.614671
H229	H	-0.684956	-0.679353	0.106967
H230	H	-0.184956	-0.179353	0.606967
C231	C	-0.112880	-0.156309	-0.097265
C232	C	0.387120	0.343691	0.402735
C233	C	-0.076219	-0.160707	-0.031438
C234	C	0.423781	0.339293	0.468562
C235	C	-0.036725	-0.235643	-0.030630
C236	C	0.463275	0.264357	0.469370
H237	H	-0.076172	-0.159503	-0.140837
H238	H	0.423828	0.340497	0.359163
H239	H	-0.147674	-0.200968	-0.097785
H240	H	0.352326	0.299032	0.402215
H241	H	-0.041428	-0.116061	-0.030926
H242	H	0.458572	0.383939	0.469074
H243	H	-0.112910	-0.157528	0.012144
H244	H	0.387090	0.342472	0.512144
H245	H	-0.071519	-0.280302	-0.031150
H246	H	0.428481	0.219698	0.468850
H247	H	-0.000020	-0.238831	-0.074204
H248	H	0.499980	0.261169	0.425796
H249	H	-0.011851	-0.238641	0.014036
H250	H	0.488149	0.261359	0.514036
C251	C	-0.277498	0.156354	-0.100209
C252	C	0.222502	0.656354	0.399791
C253	C	-0.249671	0.201566	-0.165001
C254	C	0.250329	0.701566	0.334999
C255	C	-0.289076	0.276558	-0.165803
C256	C	0.210924	0.776558	0.334197
H257	H	-0.270438	0.187242	-0.055935
H258	H	0.229562	0.687242	0.444065
H259	H	-0.330169	0.145664	-0.101090
H260	H	0.169831	0.645664	0.398910
H261	H	-0.197013	0.212258	-0.164113
H262	H	0.302987	0.712258	0.335887
H263	H	-0.256731	0.170703	-0.209286
H264	H	0.243269	0.670703	0.290714
H265	H	-0.341746	0.265869	-0.166685
H266	H	0.158254	0.765869	0.333315
H267	H	-0.282013	0.307439	-0.121527
H268	H	0.217987	0.807439	0.378473
H269	H	-0.270206	0.307241	-0.209767
H270	H	0.229794	0.807241	0.290233
C271	C	-0.112833	0.156262	-0.097296
C272	C	0.387167	0.656262	0.402704
C273	C	-0.076133	0.160617	-0.031491
C274	C	0.423867	0.660617	0.468509
C275	C	-0.036569	0.235503	-0.030723
C276	C	0.463431	0.735503	0.469277
H277	H	-0.147566	0.200971	-0.097806
H278	H	0.352434	0.700971	0.402194
H279	H	-0.076143	0.159390	-0.140899
H280	H	0.423857	0.659390	0.359101
H281	H	-0.112818	0.157497	0.012101
H282	H	0.387182	0.657497	0.512101
H283	H	-0.041387	0.115924	-0.030967
H284	H	0.458613	0.615924	0.469033
H285	H	0.000121	0.238631	-0.074327
H286	H	0.500121	0.738631	0.425673
H287	H	-0.071308	0.280207	-0.031236
H288	H	0.428692	0.780207	0.468764
H289	H	-0.011657	0.238465	0.013921
H290	H	0.488343	0.738465	0.513921
H291	H	-0.810766	-0.360755	-0.018742
H292	H	-0.310766	0.139245	0.481258
C293	C	-0.510333	-0.156414	-0.103836
C294	C	-0.010333	0.343586	0.396164
C295	C	-0.561789	-0.222050	-0.104687
C296	C	-0.061789	0.277950	0.395313
C297	C	-0.522455	-0.297107	-0.104109
C298	C	-0.022455	0.202893	0.395891
H299	H	-0.485390	-0.159657	-0.059235
H300	H	0.014610	0.340343	0.440765
H301	H	-0.473694	-0.159568	-0.147479
H302	H	0.026306	0.340432	0.352521
H303	H	-0.598413	-0.218899	-0.061048
H304	H	-0.098413	0.281101	0.438952
H305	H	-0.586734	-0.218835	-0.149284
H306	H	-0.086734	0.281165	0.350716
H307	H	-0.485817	-0.300260	-0.147753
H308	H	0.014183	0.199740	0.352247
H309	H	-0.497513	-0.300340	-0.059508
H310	H	0.002487	0.199660	0.440492
H311	H	-0.557361	-0.341649	-0.104694
H312	H	-0.057361	0.158351	0.395306
H313	H	-1.016972	-0.000014	0.541717
H314	H	-0.516972	0.499986	1.041717
H315	H	-0.266828	-0.135983	-0.099895
H316	H	0.233172	0.364017	0.400105
C317	C	-1.033293	0.000125	0.698041
C318	C	-0.533293	0.500125	1.198041
C319	C	-1.075226	0.070847	0.684337
C320	C	-0.575226	0.570847	1.184337
C321	C	-1.143637	0.070986	0.732861
C322	C	-0.643637	0.570986	1.232861
H323	H	-1.022685	0.000172	0.749425
H324	H	-0.522685	0.500172	1.249425
H325	H	-1.061872	-0.047801	0.688858
H326	H	-0.561872	0.452199	1.188858
H327	H	-1.046653	0.118760	0.693527
H328	H	-0.546653	0.618760	1.193527
H329	H	-1.085854	0.070814	0.632963
H330	H	-0.585854	0.570814	1.132963
H331	H	-1.172215	0.023061	0.723677
H332	H	-0.672215	0.523061	1.223677
H333	H	-1.133021	0.071031	0.784242
H334	H	-0.633021	0.571031	1.284242
H335	H	-1.172099	0.118966	0.723565
H336	H	-0.672099	0.618966	1.223565
C337	C	-0.989453	-0.372298	-0.197643
C338	C	-0.489453	0.127702	0.302357
C339	C	-1.029551	-0.315866	-0.237814
C340	C	-0.529551	0.184134	0.262186
C341	C	-1.075393	-0.358962	-0.283768
C342	C	-0.575393	0.141038	0.216232
H343	H	-1.024410	-0.406060	-0.166669
H344	H	-0.524410	0.093940	0.333331
H345	H	-0.958385	-0.406043	-0.232553
H346	H	-0.458385	0.093957	0.267447
H347	H	-1.060616	-0.282135	-0.202909
H348	H	-0.560616	0.217865	0.297091
H349	H	-0.994613	-0.282102	-0.268803
H350	H	-0.494613	0.217898	0.231197
H351	H	-1.044325	-0.392708	-0.318677
H352	H	-0.544325	0.107292	0.181323
H353	H	-1.110346	-0.392723	-0.252788
H354	H	-0.610346	0.107277	0.247212
H355	H	-1.102600	-0.320680	-0.311034
H356	H	-0.602600	0.179320	0.188966
C357	C	-0.745462	0.000056	0.659814
C358	C	-0.245462	0.500056	1.159814
C359	C	-0.685884	0.000089	0.600339
C360	C	-0.185884	0.500089	1.100339
C361	C	-0.616195	0.000150	0.630502
C362	C	-0.116195	0.500150	1.130502
H363	H	-0.741986	-0.047877	0.690220
H364	H	-0.241986	0.452123	1.190220
H365	H	-0.742075	0.048023	0.690206
H366	H	-0.242075	0.548023	1.190206
H367	H	-0.689269	-0.047873	0.569960
H368	H	-0.189269	0.452127	1.069960
H369	H	-0.689335	0.048019	0.569928
H370	H	-0.189335	0.548019	1.069928
H371	H	-0.612808	0.048117	0.660894
H372	H	-0.112808	0.548117	1.160894
H373	H	-0.612727	-0.047784	0.660907
H374	H	-0.112727	0.452216	1.160907
H375	H	-0.575763	0.000180	0.590153
H376	H	-0.075763	0.500180	1.090153
