data_functionalizedCrystal
_audit_creation_method	'MofGen! by Chris Wilmer'
_symmetry_space_group_name_H-M	'P1'
_symmetry_Int_Tables_number	1
_symmetry_cell_setting	triclinic
loop_
_symmetry_equiv_pos_as_xyz
  x,y,z
_cell_length_a	25.639239
_cell_length_b	12.827893
_cell_length_c	12.827885
_cell_angle_alpha	89.980728
_cell_angle_beta	90.035982
_cell_angle_gamma	89.961343
loop_
_atom_site_label
_atom_site_type_symbol
_atom_site_fract_x
_atom_site_fract_y
_atom_site_fract_z
Zn1	Zn	-0.208126	-1.597500	0.590804
Zn2	Zn	0.291874	-1.097500	1.090804
Zn3	Zn	-0.295571	-1.597324	0.416045
Zn4	Zn	0.204429	-1.097324	0.916045
Zn5	Zn	-0.208151	-1.422742	0.416077
Zn6	Zn	0.291849	-0.922742	0.916077
Zn7	Zn	-0.295532	-1.422656	0.590745
Zn8	Zn	0.204468	-0.922656	1.090745
O9	O	-0.251845	-1.510055	0.503418
O10	O	0.248155	-1.010055	1.003418
O11	O	-0.219731	-1.743713	0.567633
O12	O	0.280269	-1.243713	1.067633
O13	O	-0.284002	-1.574127	0.269813
O14	O	0.215998	-1.074127	0.769813
O15	O	-0.134983	-1.446034	0.439293
O16	O	0.365017	-0.946034	0.939293
O17	O	-0.283977	-1.743583	0.439238
O18	O	0.216023	-1.243583	0.939238
O19	O	-0.134964	-1.574428	0.567664
O20	O	0.365036	-1.074428	1.067664
O21	O	-0.219775	-1.445862	0.269837
O22	O	0.280225	-0.945862	0.769837
O23	O	-0.219737	-1.276494	0.439236
O24	O	0.280263	-0.776494	0.939236
O25	O	-0.283911	-1.445888	0.736989
O26	O	0.216089	-0.945888	1.236989
O27	O	-0.283935	-1.276431	0.567564
O28	O	0.216065	-0.776431	1.067564
O29	O	-0.219694	-1.574345	0.737032
O30	O	0.280306	-1.074345	1.237032
O31	O	-0.368731	-1.574044	0.439181
O32	O	0.131269	-1.074044	0.939181
O33	O	-0.368702	-1.445716	0.567533
O34	O	0.131298	-0.945716	1.067533
C35	C	-0.251835	-1.238546	0.503398
C36	C	0.248165	-0.738546	1.003398
C37	C	-0.251843	-1.122392	0.503414
C38	C	0.248157	-0.622392	1.003414
C39	C	-0.387688	-1.509880	0.503370
C40	C	0.112312	-1.009880	1.003370
C41	C	-0.445802	-1.509900	0.503384
C42	C	0.054198	-1.009900	1.003384
C43	C	-0.251795	-1.510127	0.775988
C44	C	0.248205	-1.010127	1.275988
C45	C	-0.251773	-1.510157	0.892141
C46	C	0.248227	-1.010157	1.392141
C47	C	-0.806167	-1.577050	0.436699
C48	C	-0.306167	-1.077050	0.936699
C49	C	-0.860771	-1.577090	0.436713
C50	C	-0.360771	-1.077090	0.936713
O51	O	-0.889010	-1.634001	0.379962
O52	O	-0.389010	-1.134001	0.879962
N53	N	-0.888084	-1.510239	0.503487
N54	N	-0.388084	-1.010239	1.003487
C55	C	-0.860790	-1.443350	0.570259
C56	C	-0.360790	-0.943350	1.070259
O57	O	-0.889035	-1.386493	0.627057
O58	O	-0.389035	-0.886493	1.127057
C59	C	-0.806186	-1.443316	0.570249
C60	C	-0.306186	-0.943316	1.070249
C61	C	-0.778876	-1.510164	0.503463
C62	C	-0.278876	-1.010164	1.003463
C63	C	-0.778857	-1.643893	0.369920
C64	C	-0.278857	-1.143893	0.869920
C65	C	-0.724256	-1.643851	0.369904
C66	C	-0.224256	-1.143851	0.869904
C67	C	-0.696966	-1.576966	0.436669
C68	C	-0.196966	-1.076966	0.936669
C69	C	-0.724276	-1.510122	0.503448
C70	C	-0.224276	-1.010122	1.003448
C71	C	-0.778893	-1.376433	0.637026
C72	C	-0.278893	-0.876433	1.137026
C73	C	-0.724286	-1.376405	0.637011
C74	C	-0.224286	-0.876405	1.137011
C75	C	-0.696976	-1.443253	0.570225
C76	C	-0.196976	-0.943253	1.070225
C77	C	-0.642385	-1.443194	0.570198
C78	C	-0.142385	-0.943194	1.070198
N79	N	-0.615072	-1.510045	0.503424
N80	N	-0.115072	-1.010045	1.003424
C81	C	-0.642363	-1.576931	0.436659
C82	C	-0.142363	-1.076931	0.936659
C83	C	-0.975460	-1.443429	0.570275
C84	C	-0.475460	-0.943429	1.070275
C85	C	-1.030063	-1.443458	0.570280
C86	C	-0.530063	-0.943458	1.070280
C87	C	-1.030040	-1.577199	0.436735
C88	C	-0.530040	-1.077199	0.936735
C89	C	-0.975437	-1.577165	0.436726
C90	C	-0.475437	-1.077165	0.936726
C91	C	-0.948148	-1.510281	0.503501
C92	C	-0.448148	-1.010281	1.003501
C93	C	-0.527698	-1.576837	0.436632
C94	C	-0.027698	-1.076837	0.936632
C95	C	-0.473092	-1.576786	0.436620
C96	C	0.026908	-1.076786	0.936620
C97	C	-0.473119	-1.443049	0.570168
C98	C	0.026881	-0.943049	1.070168
C99	C	-0.527720	-1.443095	0.570177
C100	C	-0.027720	-0.943095	1.070177
C101	C	-0.555008	-1.509998	0.503405
C102	C	-0.055008	-1.009998	1.003405
O103	O	-0.614112	-1.386315	0.626923
O104	O	-0.114112	-0.886315	1.126923
O105	O	-0.614110	-1.633789	0.379880
O106	O	-0.114110	-1.133789	0.879880
C107	C	-0.115472	-1.510260	0.503489
C108	C	0.384528	-1.010260	1.003489
C109	C	-0.057358	-1.510348	0.503519
C110	C	0.442642	-1.010348	1.003519
C111	C	-0.251856	-1.782626	0.503438
C112	C	0.248144	-1.282626	1.003438
C113	C	-0.251860	-1.898779	0.503447
C114	C	0.248140	-1.398779	1.003447
C115	C	-0.283660	-1.070604	0.566817
C116	C	0.216340	-0.570604	1.066817
C117	C	-0.283670	-0.950554	0.566835
C118	C	0.216330	-0.450554	1.066835
C119	C	-0.251857	-1.510045	0.231908
C120	C	0.248143	-1.010045	0.731908
C121	C	-0.251731	-1.510217	0.115755
C122	C	0.248269	-1.010217	0.615755
C123	C	-0.219991	-1.573729	0.943947
C124	C	0.280009	-1.073729	1.443947
C125	C	-0.219968	-1.573761	1.063998
C126	C	0.280032	-1.073761	1.563998
H127	H	-0.549909	-1.631318	0.382263
H128	H	-0.049909	-1.131318	0.882263
H129	H	-0.224621	-0.943309	0.449159
H130	H	0.275379	-0.443309	0.949159
O131	O	-0.319722	-1.129599	0.638725
O132	O	0.180278	-0.629599	1.138725
H133	H	-0.346272	-1.179285	0.591822
H134	H	0.153728	-0.679285	1.091822
O135	O	-0.287768	-1.438105	1.056745
O136	O	0.212232	-0.938105	1.556745
H137	H	-0.278796	-1.356094	1.077642
H138	H	0.221204	-0.856094	1.577642
H139	H	-0.450858	-1.631221	0.382231
H140	H	0.049142	-1.131221	0.882231
H141	H	-0.953244	-1.388955	0.624648
H142	H	-0.453244	-0.888955	1.124648
H143	H	-0.801120	-1.321993	0.691405
H144	H	-0.301120	-0.821993	1.191405
H145	H	-0.310911	-0.906017	0.621113
H146	H	0.189089	-0.406017	1.121113
H147	H	-0.224608	-1.077854	0.449151
H148	H	0.275392	-0.577854	0.949151
O149	O	-0.183970	-1.645804	0.884986
O150	O	0.316030	-1.145804	1.384986
H151	H	-0.189645	-1.634476	0.799946
H152	H	0.310355	-1.134476	1.299946
H153	H	-0.702069	-1.321941	0.691391
H154	H	-0.202069	-0.821941	1.191391
O155	O	-0.183912	-1.645843	1.122998
O156	O	0.316088	-1.145843	1.622998
H157	H	-0.189545	-1.634543	1.208031
H158	H	0.310455	-1.134543	1.708031
O159	O	-0.287793	-1.438083	0.951108
O160	O	0.212207	-0.938083	1.451108
H161	H	-0.328843	-1.455910	0.930198
H162	H	0.171157	-0.955910	1.430198
O163	O	-0.694806	-1.715971	0.297886
O164	O	-0.194806	-1.215971	0.797886
H165	H	-0.705331	-1.698114	0.215855
H166	H	-0.205331	-1.198114	0.715855
O167	O	-0.808288	-1.716033	0.297897
O168	O	-0.308288	-1.216033	0.797897
H169	H	-0.780116	-1.762494	0.251461
H170	H	-0.280116	-1.262494	0.751461
O171	O	-0.945982	-1.649275	0.364705
O172	O	-0.445982	-1.149275	0.864705
H173	H	-0.974138	-1.695791	0.318290
H174	H	-0.474138	-1.195791	0.818290
H175	H	-1.052270	-1.631665	0.382375
H176	H	-0.552270	-1.131665	0.882375
H177	H	-1.052294	-1.389013	0.624654
H178	H	-0.552294	-0.889013	1.124654
O179	O	-0.557185	-1.370991	0.642194
O180	O	-0.057185	-0.870991	1.142194
H181	H	-0.546666	-1.388863	0.724224
H182	H	-0.046666	-0.888863	1.224224
O183	O	-0.443680	-1.370913	0.642182
O184	O	0.056320	-0.870913	1.142182
H185	H	-0.401124	-1.382132	0.630955
H186	H	0.098876	-0.882132	1.130955
