data_functionalizedCrystal
_audit_creation_method	'MofGen! by Chris Wilmer'
_symmetry_space_group_name_H-M	'P1'
_symmetry_Int_Tables_number	1
_symmetry_cell_setting	triclinic
loop_
_symmetry_equiv_pos_as_xyz
  x,y,z
_cell_length_a	13.262402
_cell_length_b	27.731996
_cell_length_c	12.376457
_cell_angle_alpha	101.172962
_cell_angle_beta	94.181204
_cell_angle_gamma	83.567483
loop_
_atom_site_label
_atom_site_type_symbol
_atom_site_fract_x
_atom_site_fract_y
_atom_site_fract_z
O1	O	1.324013	0.095839	0.313078
O2	O	1.037336	0.094266	0.224929
O3	O	1.189600	0.024978	0.271772
O4	O	1.171749	0.165128	0.266235
O5	O	1.151548	0.042275	0.448078
O6	O	0.999284	0.111563	0.401235
O7	O	1.285961	0.113137	0.489383
Zn8	Zn	1.136581	0.115096	0.473301
Zn9	Zn	1.186716	0.092306	0.241011
O10	O	1.133697	0.182425	0.442540
C11	C	0.981646	0.101411	0.301808
C12	C	0.872398	0.096926	0.268217
C13	C	1.170206	0.015606	0.359816
C14	C	1.169099	-0.038089	0.359487
C15	C	0.841815	0.085389	0.156329
C16	C	0.739169	0.081180	0.124770
C17	C	0.667097	0.088503	0.205096
C18	C	0.697681	0.100037	0.316987
C19	C	0.800335	0.104251	0.348549
C20	C	0.625618	0.107365	0.397316
C21	C	0.656201	0.118898	0.509207
C22	C	0.758847	0.123111	0.540764
C23	C	0.830918	0.115787	0.460437
C24	C	0.522963	0.103151	0.365754
C25	C	0.481484	0.122012	0.557974
C26	C	0.584130	0.126222	0.589533
C27	C	1.182899	-0.380489	0.261193
C28	C	1.178707	-0.582300	0.259884
O29	O	1.195762	-0.616411	0.177971
N30	N	1.157443	-0.598107	0.355827
C31	C	1.137220	-0.563458	0.452102
O32	O	1.119028	-0.581533	0.533674
C33	C	1.141406	-0.361648	0.453408
C34	C	1.162681	-0.345844	0.357462
C35	C	1.204171	-0.364685	0.165254
C36	C	1.205224	-0.314235	0.165584
C37	C	1.185006	-0.279590	0.261853
C38	C	1.163734	-0.295394	0.357791
C39	C	1.121176	-0.326999	0.549680
C40	C	1.122222	-0.276544	0.549997
C41	C	1.143497	-0.260740	0.454051
C42	C	1.144569	-0.210300	0.454390
N43	N	1.165832	-0.194492	0.358447
C44	C	1.186050	-0.229137	0.262178
C45	C	1.135026	-0.669412	0.451410
C46	C	1.133982	-0.719864	0.451085
C47	C	1.175466	-0.738703	0.258866
C48	C	1.176518	-0.688250	0.259195
C49	C	1.156290	-0.653605	0.355467
C50	C	1.188261	-0.123189	0.262879
C51	C	1.189317	-0.072734	0.263218
C52	C	1.147827	-0.053899	0.455435
C53	C	1.146777	-0.104350	0.455098
C54	C	1.166993	-0.138994	0.358810
O55	O	1.127512	-0.176162	0.536257
O56	O	1.204218	-0.211051	0.180612
C57	C	1.181846	-0.430939	0.260863
C58	C	1.160574	-0.446743	0.356802
C59	C	1.140356	-0.412098	0.453070
C60	C	1.159529	-0.497196	0.356476
C61	C	1.179748	-0.531841	0.260208
C62	C	1.201011	-0.516034	0.164265
C63	C	1.202064	-0.465584	0.164595
C64	C	1.119092	-0.427906	0.549013
C65	C	1.118042	-0.478356	0.548676
C66	C	1.138261	-0.513001	0.452407
C67	C	1.341651	0.105991	0.412502
C68	C	1.450901	0.110476	0.446086
C69	C	1.153091	0.191796	0.354494
C70	C	1.154200	0.245490	0.354816
N71	N	1.102372	0.130650	0.631835
N72	N	1.220933	0.076749	0.082479
C73	C	1.300342	0.040636	1.047725
C74	C	1.324280	0.029749	0.936750
C75	C	1.268804	0.054973	0.860516
C76	C	1.189388	0.091086	0.895268
C77	C	1.165454	0.101976	1.006256
C78	C	1.133916	0.116313	0.819047
C79	C	1.054500	0.152426	0.853799
C80	C	1.030569	0.163313	0.964777
C81	C	1.086044	0.138089	1.041010
C82	C	1.157851	0.105424	0.708059
C83	C	1.022962	0.166763	0.666590
C84	C	0.999025	0.177650	0.777565
H85	H	0.498073	0.093761	0.274652
H86	H	1.206644	-0.059870	0.185085
H87	H	0.914504	0.119211	0.486128
H88	H	0.583520	0.085076	0.179394
H89	H	1.102629	-0.399701	0.627409
H90	H	1.288298	0.046108	0.770155
H91	H	0.783742	0.132507	0.631872
H92	H	1.193840	-0.675387	0.181066
H93	H	1.345508	0.020104	1.109802
H94	H	0.609046	0.135613	0.680637
H95	H	0.965912	0.192722	0.993073
H96	H	1.191930	-0.766920	0.180480
H97	H	1.220633	-0.392889	0.086855
H98	H	1.066552	0.146951	1.131376
H99	H	1.131371	-0.025683	0.533816
H100	H	0.714276	0.071790	0.033668
H101	H	0.934363	0.207053	0.805875
H102	H	0.900502	0.079431	0.090939
H103	H	0.422802	0.127977	0.623383
H104	H	1.204718	-0.151391	0.184470
H105	H	1.219388	-0.452722	0.086465
H106	H	1.222544	-0.301373	0.087454
H107	H	1.217478	-0.544251	0.085881
H108	H	1.116673	-0.732727	0.529218
H109	H	1.118558	-0.641207	0.529813
H110	H	0.977791	0.187304	0.604520
H111	H	1.103854	-0.339857	0.627810
H112	H	1.105735	-0.248337	0.628391
H113	H	1.222511	0.076021	0.679774
H114	H	1.129463	-0.117218	0.533228
H115	H	1.100724	-0.491218	0.626815
H116	H	1.388940	0.000348	0.908458
