data_functionalizedCrystal
_audit_creation_method	'MofGen! by Chris Wilmer'
_symmetry_space_group_name_H-M	'P1'
_symmetry_Int_Tables_number	1
_symmetry_cell_setting	triclinic
loop_
_symmetry_equiv_pos_as_xyz
  x,y,z
_cell_length_a	10.654550
_cell_length_b	10.654551
_cell_length_c	9.730223
_cell_angle_alpha	90.001469
_cell_angle_beta	89.996251
_cell_angle_gamma	84.485132
loop_
_atom_site_label
_atom_site_type_symbol
_atom_site_fract_x
_atom_site_fract_y
_atom_site_fract_z
O1	O	1.667835	0.176393	-0.114394
O2	O	1.302356	0.193199	-0.114371
O3	O	1.493498	0.002057	-0.114383
O4	O	1.476693	0.367535	-0.114381
O5	O	1.493496	0.002062	0.114197
O6	O	1.302354	0.193204	0.114209
O7	O	1.667832	0.176398	0.114186
Zn8	Zn	1.485093	0.184802	0.150490
Zn9	Zn	1.485096	0.184795	-0.150674
O10	O	1.476691	0.367540	0.114199
C11	C	1.255557	0.191968	-0.000078
C12	C	1.116114	0.188276	-0.000069
C13	C	1.036629	0.300817	-0.000089
C14	C	0.905608	0.297341	-0.000113
C15	C	0.933570	0.068771	-0.000104
C16	C	1.064589	0.072249	-0.000070
C17	C	1.088154	0.416844	-0.000088
C18	C	1.008667	0.529395	-0.000109
C19	C	0.877647	0.525918	-0.000133
C20	C	0.826112	0.409891	-0.000136
C21	C	1.492263	-0.044739	-0.000096
C22	C	1.488570	-0.184182	-0.000105
C23	C	1.486839	-0.249696	-0.124702
C24	C	1.483359	-0.380717	-0.124695
C25	C	1.483346	-0.380697	0.124515
C26	C	1.486817	-0.249678	0.124507
C27	C	1.488592	-0.184200	-0.249314
C28	C	1.486862	-0.249715	-0.373921
C29	C	1.483382	-0.380735	-0.373914
C30	C	1.481631	-0.446241	-0.249301
C31	C	1.714632	0.177629	-0.000109
C32	C	1.854075	0.181321	-0.000127
C33	C	1.477926	0.414336	-0.000091
C34	C	1.481619	0.553779	-0.000091
N35	N	1.485100	0.184805	0.356026
N36	N	1.485099	0.184782	-0.356211
C37	C	1.569760	0.100197	0.427947
C38	C	1.569756	0.100181	0.571830
C39	C	1.400430	0.269395	0.571859
C40	C	1.400428	0.269403	0.427979
C41	C	1.654431	0.015599	0.355994
C42	C	1.739099	-0.069016	0.427915
C43	C	1.739095	-0.069031	0.571798
C44	C	1.654425	0.015568	0.643760
H45	H	1.194836	0.419687	-0.000075
O46	O	1.654564	0.015407	0.216228
C47	C	1.747533	-0.077357	0.009733
C48	C	1.747497	-0.077299	0.168015
H49	H	1.822679	-0.152284	-0.029295
H50	H	1.651076	-0.098959	-0.029406
H51	H	1.768925	0.019207	-0.029278
H52	H	1.726158	-0.173836	0.207144
H53	H	1.843962	-0.055627	0.207060
O54	O	1.821452	-0.151271	0.641450
C55	C	1.989352	-0.319154	0.626227
C56	C	1.896163	-0.226067	0.547179
H57	H	2.049762	-0.379669	0.550044
H58	H	2.052642	-0.264413	0.693555
H59	H	1.934569	-0.382355	0.693619
H60	H	1.950844	-0.162844	0.479713
H61	H	1.832874	-0.280886	0.479938
H62	H	1.808028	-0.137901	0.369316
H63	H	1.491429	-0.077517	-0.249334
H64	H	1.481961	-0.434073	-0.475375
H65	H	1.654421	0.015540	0.760919
H66	H	1.331490	0.338298	0.369421
O67	O	1.058930	0.641989	-0.000166
C68	C	1.248377	0.748648	-0.000057
C69	C	1.191627	0.621047	-0.000024
H70	H	1.355669	0.731761	0.000087
H71	H	1.215832	0.804334	-0.095747
H72	H	1.215627	0.804326	0.095574
H73	H	1.224350	0.565267	-0.095590
H74	H	1.224166	0.565457	0.095729
O75	O	0.800306	0.635159	-0.000333
C76	C	0.636245	0.763914	-0.118844
C77	C	0.723735	0.640133	-0.118761
H78	H	0.574334	0.767988	-0.214597
H79	H	0.574094	0.768030	-0.023263
H80	H	0.695610	0.847410	-0.118771
H81	H	0.664469	0.556568	-0.118882
H82	H	0.785891	0.636127	-0.214334
H83	H	0.719425	0.407069	-0.000134
O84	O	1.488276	-0.185935	0.245495
C85	C	1.383600	-0.024640	0.390040
C86	C	1.381789	-0.096761	0.252989
H87	H	1.297530	0.047492	0.396130
H88	H	1.381680	-0.093877	0.479171
H89	H	1.472997	0.025917	0.396237
H90	H	1.292407	-0.147321	0.246657
H91	H	1.383777	-0.027464	0.163922
O92	O	1.318018	0.351447	0.641700
C93	C	1.100289	0.423052	0.685697
C94	C	1.193477	0.330034	0.606543
H95	H	0.999578	0.405790	0.657280
H96	H	1.114727	0.408512	0.800902
H97	H	1.117586	0.523791	0.657434
H98	H	1.176237	0.229259	0.634691
H99	H	1.179018	0.344684	0.491357
H100	H	0.891600	-0.025693	-0.000129
H101	H	1.129308	-0.019392	-0.000058
H102	H	1.488276	-0.196370	-0.475376
H103	H	1.478779	-0.552924	-0.249306
H104	H	1.481922	-0.434042	0.225969
