data_functionalizedCrystal
_audit_creation_method	'MofGen! by Chris Wilmer'
_symmetry_space_group_name_H-M	'P1'
_symmetry_Int_Tables_number	1
_symmetry_cell_setting	triclinic
loop_
_symmetry_equiv_pos_as_xyz
  x,y,z
_cell_length_a	10.723024
_cell_length_b	10.268362
_cell_length_c	10.723023
_cell_angle_alpha	90.004269
_cell_angle_beta	84.467709
_cell_angle_gamma	90.004272
loop_
_atom_site_label
_atom_site_type_symbol
_atom_site_fract_x
_atom_site_fract_y
_atom_site_fract_z
O1	O	1.657188	0.108289	0.175028
O2	O	2.157188	0.608289	0.675028
O3	O	1.294036	0.108293	0.191782
O4	O	1.794036	0.608293	0.691782
O5	O	1.483989	0.108285	0.001829
O6	O	1.983989	0.608285	0.501829
O7	O	1.467235	0.108296	0.364981
O8	O	1.967235	0.608296	0.864981
O9	O	1.483972	-0.108315	0.001821
O10	O	1.983972	0.391685	0.501821
O11	O	1.294019	-0.108308	0.191774
O12	O	1.794019	0.391692	0.691774
O13	O	1.657171	-0.108312	0.175020
O14	O	2.157171	0.391688	0.675020
Cu15	Cu	1.475594	-0.128087	0.183396
Cu16	Cu	1.975594	0.371913	0.683396
Cu17	Cu	1.475613	0.128068	0.183406
Cu18	Cu	1.975613	0.628068	0.683406
O19	O	1.467218	-0.108304	0.364973
O20	O	1.967218	0.391696	0.864973
C21	C	1.247528	-0.000007	0.190558
C22	C	1.747528	0.499993	0.690558
C23	C	1.108973	-0.000005	0.186911
C24	C	1.608973	0.499995	0.686911
N25	N	1.475589	-0.308253	0.183389
N26	N	1.975589	0.191747	0.683389
C27	C	1.033991	-0.000001	0.293198
C28	C	1.533991	0.499999	0.793198
C29	C	0.890787	0.000000	0.289431
C30	C	1.390787	0.500000	0.789431
C31	C	1.475607	-0.573924	0.183403
C32	C	1.975607	-0.073924	0.683403
C33	C	1.475593	-0.426086	0.183399
C34	C	1.975593	0.073914	0.683399
C35	C	1.703679	-0.000009	0.176243
C36	C	2.203679	0.499991	0.676243
C37	C	1.842234	-0.000002	0.179891
C38	C	2.342234	0.499998	0.679891
C39	C	1.482762	-0.000014	-0.044675
C40	C	1.982762	0.499986	0.455325
C41	C	1.479114	-0.000009	-0.183229
C42	C	1.979114	0.499991	0.316771
N43	N	1.475628	0.308234	0.183403
N44	N	1.975628	0.808234	0.683403
C45	C	1.477497	0.112198	-0.244991
C46	C	1.977497	0.612198	0.255009
C47	C	1.473727	0.112205	-0.388194
C48	C	1.973727	0.612205	0.111806
C49	C	1.468445	-0.000003	0.411477
C50	C	1.968445	0.499997	0.911477
C51	C	1.472093	0.000002	0.550031
C52	C	1.972093	0.500002	1.050031
H53	H	1.075812	-0.000006	0.386984
H54	H	1.575812	0.499994	0.886984
F55	F	1.471919	0.237774	-0.457614
F56	F	1.971919	0.737774	0.042386
F57	F	0.806573	0.000014	0.408367
F58	F	1.306573	0.500014	0.908367
F59	F	0.926440	0.000003	0.060950
F60	F	1.426440	0.500003	0.560950
F61	F	1.054316	-0.000018	0.064321
F62	F	1.554316	0.499982	0.564321
H63	H	1.478898	0.208258	-0.191849
H64	H	1.978898	0.708258	0.308151
H65	H	1.473490	-0.096068	-0.396864
H66	H	1.973490	0.403932	0.103136
H67	H	1.477700	-0.096069	-0.236369
H68	H	1.977700	0.403931	0.263631
