data_functionalizedCrystal
_audit_creation_method	'MofGen! by Chris Wilmer'
_symmetry_space_group_name_H-M	'P1'
_symmetry_Int_Tables_number	1
_symmetry_cell_setting	triclinic
loop_
_symmetry_equiv_pos_as_xyz
  x,y,z
_cell_length_a	14.519731
_cell_length_b	14.519709
_cell_length_c	13.596369
_cell_angle_alpha	89.999709
_cell_angle_beta	89.993029
_cell_angle_gamma	96.315501
loop_
_atom_site_label
_atom_site_type_symbol
_atom_site_fract_x
_atom_site_fract_y
_atom_site_fract_z
O1	O	0.120892	-1.223878	-0.081666
O2	O	0.454225	-0.890544	0.251668
O3	O	0.787558	-0.557211	0.585001
O4	O	0.135128	-0.955402	-0.081696
O5	O	0.468461	-0.622069	0.251637
O6	O	0.801795	-0.288735	0.584971
O7	O	-0.006227	-1.096748	-0.081671
O8	O	0.327106	-0.763414	0.251662
O9	O	0.660439	-0.430081	0.584996
O10	O	0.262247	-1.082532	-0.081690
O11	O	0.595580	-0.749198	0.251643
O12	O	0.928914	-0.415865	0.584976
O13	O	-0.006235	-1.096734	0.081912
O14	O	0.327098	-0.763400	0.415245
O15	O	0.660432	-0.430067	0.748579
O16	O	0.135120	-0.955388	0.081887
O17	O	0.468454	-0.622054	0.415220
O18	O	0.801787	-0.288721	0.748554
O19	O	0.120884	-1.223864	0.081917
O20	O	0.454217	-0.890530	0.415251
O21	O	0.787551	-0.557197	0.748584
Zn22	Zn	0.128001	-1.089623	0.107874
Zn23	Zn	0.461334	-0.756290	0.441208
Zn24	Zn	0.794668	-0.422957	0.774541
Zn25	Zn	0.128011	-1.089642	-0.107653
Zn26	Zn	0.461344	-0.756309	0.225680
Zn27	Zn	0.794678	-0.422975	0.559014
O28	O	0.262239	-1.082518	0.081892
O29	O	0.595573	-0.749184	0.415226
O30	O	0.928906	-0.415851	0.748559
C31	C	0.134461	-0.921035	0.000092
C32	C	0.467794	-0.587702	0.333425
C33	C	0.801127	-0.254368	0.666758
C34	C	0.132473	-0.818654	0.000080
C35	C	0.465806	-0.485320	0.333414
C36	C	0.799139	-0.151987	0.666747
C37	C	-0.040591	-1.096075	0.000121
C38	C	0.292743	-0.762741	0.333454
C39	C	0.626076	-0.429408	0.666787
C40	C	-0.142971	-1.094079	0.000121
C41	C	0.190363	-0.760745	0.333454
C42	C	0.523696	-0.427412	0.666788
C43	C	-0.226115	-1.092457	0.000119
C44	C	0.107218	-0.759123	0.333452
C45	C	0.440552	-0.425790	0.666785
C46	C	-0.330424	-1.090430	0.000111
C47	C	0.002910	-0.757097	0.333444
C48	C	0.336243	-0.423763	0.666777
C49	C	-0.413563	-1.088822	0.000104
C50	C	-0.080229	-0.755488	0.333438
C51	C	0.253104	-0.422155	0.666771
C52	C	-0.517878	-1.086795	0.000098
C53	C	-0.184545	-0.753462	0.333432
C54	C	0.148789	-0.420129	0.666765
C55	C	0.121551	-1.258230	0.000128
C56	C	0.454885	-0.924897	0.333461
C57	C	0.788218	-0.591564	0.666794
C58	C	0.123539	-1.360612	0.000132
C59	C	0.456873	-1.027279	0.333466
C60	C	0.790206	-0.693945	0.666799
C61	C	0.296603	-1.083191	0.000099
C62	C	0.629936	-0.749858	0.333432
C63	C	0.963269	-0.416524	0.666765
C64	C	0.398983	-1.085187	0.000092
C65	C	0.732316	-0.751854	0.333425
C66	C	1.065649	-0.418520	0.666759
N67	N	0.127994	-1.089617	0.254966
N68	N	0.461327	-0.756284	0.588300
N69	N	0.794660	-0.422951	0.921633
C70	C	0.125153	-0.443757	0.000126
C71	C	0.458486	-0.110424	0.333459
C72	C	0.791820	0.222909	0.666792
C73	C	0.127186	-0.548065	0.000113
C74	C	0.460519	-0.214732	0.333446
C75	C	0.793852	0.118601	0.666780
C76	C	0.128813	-0.631202	0.000102
C77	C	0.462146	-0.297869	0.333436
C78	C	0.795479	0.035465	0.666769
C79	C	0.130846	-0.735517	0.000091
C80	C	0.464179	-0.402183	0.333424
C81	C	0.797512	-0.068850	0.666758
N82	N	0.128011	-1.089655	-0.254745
N83	N	0.461344	-0.756322	0.078588
N84	N	0.794678	-0.422989	0.411922
C85	C	0.128012	-1.089641	0.656257
C86	C	0.461345	-0.756307	0.989591
C87	C	0.794679	-0.422974	1.322924
C88	C	0.128010	-1.089632	0.544606
C89	C	0.461343	-0.756298	0.877939
C90	C	0.794677	-0.422965	1.211273
C91	C	0.128004	-1.089630	0.455615
C92	C	0.461337	-0.756296	0.788949
C93	C	0.794670	-0.422963	1.122282
C94	C	0.128000	-1.089619	0.343957
C95	C	0.461334	-0.756286	0.677290
C96	C	0.794667	-0.422953	1.010624
