data_functionalizedCrystal
_audit_creation_method	'MofGen! by Chris Wilmer'
_symmetry_space_group_name_H-M	'P1'
_symmetry_Int_Tables_number	1
_symmetry_cell_setting	triclinic
loop_
_symmetry_equiv_pos_as_xyz
  x,y,z
_cell_length_a	15.698487
_cell_length_b	20.016444
_cell_length_c	20.016444
_cell_angle_alpha	90.001375
_cell_angle_beta	59.999034
_cell_angle_gamma	60.002628
loop_
_atom_site_label
_atom_site_type_symbol
_atom_site_fract_x
_atom_site_fract_y
_atom_site_fract_z
Zr1	Zr	0.932439	0.643595	-0.087692
O2	O	1.110149	0.536920	-0.194366
O3	O	0.754729	0.676294	-0.054991
O4	O	0.932447	0.676290	-0.194370
O5	O	0.932424	0.536930	0.054959
O6	O	0.932454	0.786230	-0.194373
O7	O	0.932431	0.536924	-0.054987
O8	O	0.614548	0.786237	0.054951
O9	O	1.250330	0.536923	-0.194366
O10	O	0.827828	0.772289	-0.041046
O11	O	0.827818	0.690247	0.041007
O12	O	1.037059	0.690242	-0.123094
O13	O	1.037049	0.608200	-0.041041
Zr14	Zr	0.932439	0.818945	0.087653
Zr15	Zr	0.932449	0.818936	-0.087697
Zr16	Zr	0.932428	0.643604	0.087658
Zr17	Zr	1.156011	0.643599	-0.087692
Zr18	Zr	0.708866	0.818941	0.087653
O19	O	1.110149	0.786246	0.054952
O20	O	1.110164	0.786233	-0.194373
O21	O	1.110134	0.536933	0.054959
O22	O	0.754728	0.925620	0.194327
O23	O	0.754744	0.925607	-0.054998
O24	O	0.754713	0.676307	0.194334
O25	O	0.932454	0.925610	-0.054998
O26	O	0.932430	0.786250	0.194331
O27	O	0.932424	0.676310	0.194334
O28	O	0.932447	0.925616	0.054947
O29	O	1.250338	0.676296	-0.194370
O30	O	0.614539	0.786244	0.194331
O31	O	0.614547	0.925617	0.194327
O32	O	0.614556	0.925610	0.054947
O33	O	1.250322	0.536930	-0.054986
O34	O	1.250330	0.676304	-0.054990
O35	O	0.827818	0.772298	0.123055
O36	O	0.827828	0.854341	0.041002
O37	O	1.037059	0.772293	-0.041046
O38	O	1.037049	0.690251	0.041007
C39	C	0.652784	0.731264	-0.000020
C40	C	0.557872	0.731263	-0.000020
C41	C	0.480790	0.731262	-0.000018
C42	C	0.384085	0.731269	-0.000017
C43	C	0.932426	0.511945	-0.000013
C44	C	0.932421	0.437508	-0.000011
C45	C	0.823224	0.239118	0.042812
C46	C	0.823217	0.309064	0.042814
C47	C	1.041662	0.223414	-0.042857
C48	C	1.041667	0.153470	-0.042862
C49	C	0.932445	0.161325	-0.000023
C50	C	0.932432	0.301215	-0.000016
C51	C	0.932426	0.377053	-0.000015
C52	C	0.932451	0.085482	-0.000026
C53	C	1.212094	0.731276	-0.000019
C54	C	1.307006	0.731278	-0.000019
C55	C	0.932452	0.731258	-0.219355
C56	C	0.932457	0.731255	-0.293796
C57	C	0.932452	0.950596	-0.000026
C58	C	0.932456	1.025033	-0.000028
C59	C	1.041659	0.688441	-0.507881
C60	C	1.041654	0.688448	-0.577822
C61	C	0.823210	0.774104	-0.492150
C62	C	0.823216	0.774102	-0.422211
C63	C	0.932445	0.731266	-0.430079
C64	C	0.932433	0.731275	-0.569960
C65	C	0.932427	0.731282	-0.645793
C66	C	0.932451	0.731259	-0.354242
C67	C	0.932425	0.731282	0.219316
C68	C	0.932421	0.731286	0.293757
C69	C	0.652797	0.950590	-0.000026
C70	C	0.557889	1.025025	-0.000028
C71	C	0.652771	0.731276	0.219316
C72	C	0.557854	0.731278	0.293756
C73	C	0.652784	0.950601	0.219310
C74	C	0.557871	1.025041	0.293748
C75	C	1.212094	0.511939	-0.219349
C76	C	1.307006	0.437500	-0.293787
C77	C	1.212081	0.511950	-0.000013
C78	C	1.306989	0.437515	-0.000011
C79	C	1.212107	0.731264	-0.219355
C80	C	1.307024	0.731262	-0.293796
C81	C	0.513319	1.017151	-0.042865
C82	C	0.424156	1.087084	-0.042884
C83	C	0.379557	1.164890	-0.000060
C84	C	0.424136	1.172763	0.042778
C85	C	0.513304	1.102831	0.042791
C86	C	0.513280	0.774109	0.371550
C87	C	0.424108	0.774108	0.441502
C88	C	0.379505	0.731280	0.433657
C89	C	0.424088	0.688444	0.355855
C90	C	0.513264	0.688441	0.285906
C91	C	0.513305	1.102831	0.285874
C92	C	0.424137	1.172781	0.355810
C93	C	0.379531	1.164939	0.433619
C94	C	0.424106	1.087141	0.441492
C95	C	0.513279	1.017192	0.371556
C96	C	1.351584	0.359709	-0.285913
C97	C	1.440780	0.289759	-0.355849
C98	C	1.485390	0.297601	-0.433658
C99	C	1.440809	0.375399	-0.441531
C100	C	1.351621	0.445348	-0.371595
C101	C	1.351568	0.445389	0.042819
C102	C	1.440756	0.375456	0.042818
C103	C	1.485357	0.297650	-0.000008
C104	C	1.440775	0.289777	-0.042843
C105	C	1.351594	0.359709	-0.042846
C106	C	1.351598	0.774098	-0.285925
C107	C	1.440771	0.774112	-0.355863
C108	C	1.485374	0.731285	-0.433671
C109	C	1.440791	0.688448	-0.441540
C110	C	1.351614	0.688439	-0.371602
H111	H	0.734279	0.372405	0.077695
N112	N	1.153218	0.644680	-0.657292
N113	N	1.177578	0.588286	-0.705871
H114	H	1.256376	0.557370	-0.761998
H115	H	1.130586	0.217028	-0.077734
H116	H	0.387759	0.653575	0.349481
H117	H	0.549609	1.109231	0.222524
H118	H	0.734275	0.808979	-0.358857
N119	N	0.378576	0.817884	0.520961
N120	N	0.328821	0.893399	0.541809
H121	H	0.296665	0.924319	0.597925
N122	N	0.558851	0.817842	0.379577
N123	N	0.668335	0.780555	0.350104
H124	H	0.700521	0.811439	0.355779
N125	N	1.153239	0.644692	-0.515930
N126	N	1.250743	0.606466	-0.585404
H127	H	1.329551	0.575571	-0.591093
H128	H	0.549631	0.953803	-0.077747
N129	N	1.153251	0.074004	-0.086631
N130	N	1.250761	0.067000	-0.124874
H131	H	1.329565	0.010880	-0.155787
H132	H	1.315326	0.508686	-0.378016
H133	H	0.306892	0.731289	0.490622
N134	N	1.576459	0.731297	-0.505113
N135	N	1.556552	0.759016	-0.555455
H136	H	1.620880	0.759027	-0.605909
H137	H	0.306921	1.221902	0.490558
H138	H	0.549545	0.653565	0.222565
H139	H	1.477120	0.653579	-0.504900
N140	N	0.711672	0.247126	0.086550
N141	N	0.711688	0.184672	0.086538
H142	H	0.632901	0.190328	0.117425
H143	H	1.477061	0.808994	-0.349440
N144	N	0.378629	1.252236	0.347743
N145	N	0.418462	1.259219	0.278263
H146	H	0.386325	1.315333	0.272562
H147	H	1.557974	0.240713	0.000001
H148	H	0.734280	0.808979	-0.485754
N149	N	0.378605	1.079030	-0.086622
N150	N	0.269122	1.108497	-0.049340
H151	H	0.236950	1.102807	-0.080228
H152	H	1.315296	0.808973	-0.222576
N153	N	0.288373	1.236312	-0.000007
N154	N	0.248524	1.229260	-0.038205
H155	H	0.184083	1.279699	-0.038138
N156	N	1.306036	0.351672	-0.206445
N157	N	1.345867	0.282203	-0.199441
H158	H	1.313709	0.276520	-0.143319
N159	N	0.378519	1.079153	0.520980
N160	N	0.298892	1.141619	0.583409
H161	H	0.266685	1.135981	0.639550
N162	N	0.378558	1.252249	0.086516
N163	N	0.298938	1.314675	0.086497
H164	H	0.266739	1.370815	0.117391
H165	H	1.315331	0.653553	-0.378022
N166	N	0.558811	1.110896	0.086556
N167	N	0.518970	1.180374	0.124787
H168	H	0.551105	1.186077	0.155698
N169	N	0.558782	0.937739	0.379621
N170	N	0.518936	0.930758	0.449101
H171	H	0.551069	0.874645	0.454804
N172	N	1.486294	0.210304	-0.347782
N173	N	1.446436	0.203321	-0.278302
H174	H	1.478577	0.147208	-0.272601
H175	H	1.558012	0.240638	-0.490598
N176	N	1.486357	0.210291	-0.086585
N177	N	1.565978	0.147865	-0.086565
H178	H	1.598170	0.091725	-0.117455
N179	N	1.486401	0.383388	-0.521019
N180	N	1.566029	0.320921	-0.583448
H181	H	1.598229	0.326560	-0.639590
H182	H	1.315260	0.508737	0.077698
N183	N	1.486272	0.383524	0.086578
N184	N	1.446423	0.453002	0.124817
H185	H	1.478566	0.458703	0.155723
H186	H	1.315300	0.353286	-0.077721
