data_functionalizedCrystal
_audit_creation_method	'MofGen! by Chris Wilmer'
_symmetry_space_group_name_H-M	'P1'
_symmetry_Int_Tables_number	1
_symmetry_cell_setting	triclinic
loop_
_symmetry_equiv_pos_as_xyz
  x,y,z
_cell_length_a	15.995350
_cell_length_b	19.188930
_cell_length_c	15.072220
_cell_angle_alpha	89.993728
_cell_angle_beta	89.991149
_cell_angle_gamma	83.318578
loop_
_atom_site_label
_atom_site_type_symbol
_atom_site_fract_x
_atom_site_fract_y
_atom_site_fract_z
O1	O	1.110666	0.089991	-0.073718
O2	O	1.610666	0.589991	0.426282
O3	O	0.866850	0.101105	-0.073737
O4	O	1.366850	0.601105	0.426263
O5	O	0.995794	-0.006090	-0.073709
O6	O	1.495794	0.493910	0.426291
O7	O	0.981722	0.197186	-0.073745
O8	O	1.481722	0.697186	0.426255
O9	O	0.995763	-0.006084	0.073856
O10	O	1.495763	0.493916	0.573856
O11	O	0.866819	0.101111	0.073828
O12	O	1.366819	0.601111	0.573828
O13	O	1.110634	0.089997	0.073848
O14	O	1.610634	0.589997	0.573848
Zn15	Zn	0.988721	0.095555	0.097267
Zn16	Zn	1.488721	0.595555	0.597267
Zn17	Zn	0.988763	0.095547	-0.097156
Zn18	Zn	1.488763	0.595547	0.402844
O19	O	0.981690	0.197192	0.073820
O20	O	1.481690	0.697192	0.573820
C21	C	0.835641	0.100648	0.000043
C22	C	1.335641	0.600648	0.500043
C23	C	0.742696	0.099271	0.000037
C24	C	1.242696	0.599271	0.500037
C25	C	0.404967	0.094324	0.000056
C26	C	0.904967	0.594324	0.500056
C27	C	0.452680	0.017982	0.000398
C28	C	0.952680	0.517982	0.500398
C29	C	0.549365	0.019360	0.000059
C30	C	1.049365	0.519360	0.500059
C31	C	0.572518	0.096778	0.000047
C32	C	1.072518	0.596778	0.500047
C33	C	0.531311	0.134429	-0.084223
C34	C	1.031311	0.634429	0.415777
C35	C	0.434683	0.132511	-0.084287
C36	C	0.934683	0.632511	0.415713
C37	C	0.434302	0.134095	0.083522
C38	C	0.934302	0.634095	0.583522
C39	C	0.531247	0.134077	0.084629
C40	C	1.031247	0.634077	0.584629
C41	C	0.667211	0.098169	0.000039
C42	C	1.167211	0.598169	0.500039
C43	C	0.310274	0.092936	0.000058
C44	C	0.810274	0.592936	0.500058
C45	C	0.995323	-0.032099	0.000076
C46	C	1.495323	0.467901	0.500076
C47	C	0.993955	-0.109607	0.000083
C48	C	1.493955	0.390393	0.500083
C49	C	1.069615	-0.154338	0.000093
C50	C	1.569615	0.345662	0.500093
C51	C	1.068330	-0.227165	0.000079
C52	C	1.568330	0.272835	0.500079
C53	C	0.991380	-0.255258	0.000072
C54	C	1.491380	0.244742	0.500072
C55	C	0.915710	-0.210517	0.000057
C56	C	1.415710	0.289483	0.500057
C57	C	0.916997	-0.137691	0.000062
C58	C	1.416997	0.362309	0.500062
N59	N	0.932550	-0.363410	0.050287
N60	N	1.432550	0.136590	0.550287
N61	N	0.931333	-0.432592	0.050284
N62	N	1.431333	0.067408	0.550284
C63	C	0.987497	-0.474676	0.000054
C64	C	1.487497	0.025324	0.500054
N65	N	1.044937	-0.444966	-0.050161
N66	N	1.544937	0.055034	0.449839
N67	N	1.046158	-0.375779	-0.050154
N68	N	1.546158	0.124221	0.449846
C69	C	0.989976	-0.334224	0.000066
C70	C	1.489976	0.165776	0.500066
C71	C	1.061769	-0.598375	0.000048
C72	C	1.561769	-0.098375	0.500048
C73	C	1.060480	-0.671204	0.000028
C74	C	1.560480	-0.171204	0.500028
C75	C	0.907859	-0.654553	0.000015
C76	C	1.407859	-0.154553	0.500015
C77	C	0.909149	-0.581727	0.000025
C78	C	1.409149	-0.081727	0.500025
C79	C	0.986106	-0.553643	0.000046
C80	C	1.486106	-0.053643	0.500046
C81	C	1.141843	0.090454	0.000065
C82	C	1.641843	0.590454	0.500065
C83	C	1.234789	0.091831	0.000066
C84	C	1.734789	0.591831	0.500066
C85	C	0.982162	0.223201	0.000033
C86	C	1.482162	0.723201	0.500033
C87	C	0.983530	0.300709	0.000019
C88	C	1.483530	0.800709	0.500019
N89	N	0.988699	0.095560	0.229956
N90	N	1.488699	0.595560	0.729956
N91	N	0.988792	0.095537	-0.229845
N92	N	1.488792	0.595537	0.270155
C93	C	0.988762	0.095544	0.589157
C94	C	1.488762	0.595544	1.089157
C95	C	0.919536	0.152710	0.551535
C96	C	1.419536	0.652710	1.051535
C97	C	0.919693	0.152918	0.448710
C98	C	1.419693	0.652918	0.948710
C99	C	0.988730	0.095552	0.410953
C100	C	1.488730	0.595552	0.910953
C101	C	1.076036	0.111464	0.448248
C102	C	1.576036	0.611464	0.948248
C103	C	1.075648	0.111870	0.551106
C104	C	1.575648	0.611870	1.051106
C105	C	0.971460	0.022298	0.551269
C106	C	1.471460	0.522298	1.051269
C107	C	0.969454	0.022787	0.448405
C108	C	1.469454	0.522787	0.948405
C109	C	0.988717	0.095555	0.310240
C110	C	1.488717	0.595555	0.810240
C111	C	0.988780	0.095543	0.689871
C112	C	1.488780	0.595543	1.189871
H113	H	0.577345	-0.010441	-0.060444
H114	H	1.077345	0.489559	0.439556
N115	N	1.144768	-0.568079	0.000070
N116	N	1.644768	-0.068079	0.500070
H117	H	1.148719	-0.538221	-0.054623
H118	H	1.648719	-0.038221	0.445377
H119	H	1.148632	-0.538281	0.054818
H120	H	1.648632	-0.038281	0.554818
N121	N	1.142089	-0.719454	0.000035
N122	N	1.642089	-0.219454	0.500035
H123	H	1.191033	-0.690608	0.000052
H124	H	1.691033	-0.190608	0.500052
H125	H	1.144860	-0.750039	0.054736
H126	H	1.644860	-0.250039	0.554736
N127	N	1.096781	0.181414	0.414105
N128	N	1.596781	0.681414	0.914105
H129	H	1.051841	0.219632	0.433813
H130	H	1.551841	0.719632	0.933813
H131	H	1.153089	0.191120	0.438480
H132	H	1.653089	0.691120	0.938480
H133	H	0.845205	-0.677425	0.000005
H134	H	1.345205	-0.177425	0.500005
N135	N	0.933959	0.224305	0.585719
N136	N	1.433959	0.724305	1.085719
H137	H	0.931044	0.224586	0.652659
H138	H	1.431044	0.724586	1.152659
H139	H	0.991272	0.235522	0.566097
H140	H	1.491272	0.735522	1.066097
H141	H	0.546404	0.190533	0.089710
H142	H	1.046404	0.690533	0.589710
N143	N	0.827544	-0.533475	0.000020
N144	N	1.327544	-0.033475	0.500020
H145	H	0.778600	-0.562320	0.000014
H146	H	1.278600	-0.062320	0.500014
H147	H	0.824742	-0.502903	0.054726
H148	H	1.324742	-0.002903	0.554726
N149	N	0.833721	0.140364	0.415302
N150	N	1.333721	0.640364	0.915302
H151	H	0.795380	0.134645	0.467393
H152	H	1.295380	0.634645	0.967393
H153	H	0.809511	0.181673	0.378171
H154	H	1.309511	0.681673	0.878171
N155	N	0.832710	-0.240806	0.000051
N156	N	1.332710	0.259194	0.500051
H157	H	0.828786	-0.270647	-0.054652
H158	H	1.328786	0.229353	0.445348
H159	H	0.828810	-0.270619	0.054789
H160	H	1.328810	0.229381	0.554789
N161	N	1.095880	0.182628	0.582877
N162	N	1.595880	0.682628	1.082877
H163	H	1.148665	0.176399	0.620189
H164	H	1.648665	0.676399	1.120189
H165	H	1.104926	0.213229	0.530022
H166	H	1.604926	0.713229	1.030022
H167	H	0.854420	0.143386	0.576294
H168	H	1.354420	0.643386	1.076294
N169	N	0.888969	0.002037	0.585663
N170	N	1.388969	0.502037	1.085663
H171	H	0.861975	0.040139	0.626161
H172	H	1.361975	0.540139	1.126161
H173	H	0.850209	-0.004145	0.534087
H174	H	1.350209	0.495855	1.034087
H175	H	1.132280	-0.131477	0.000107
H176	H	1.632280	0.368523	0.500107
H177	H	0.930714	0.207273	0.424087
H178	H	1.430714	0.707273	0.924087
N179	N	1.031932	-0.036206	0.414378
N180	N	1.531932	0.463794	0.914378
H181	H	1.062663	-0.060947	0.466084
H182	H	1.562663	0.439053	0.966084
H183	H	1.001134	-0.070633	0.380222
H184	H	1.501134	0.429367	0.880222
N185	N	0.835384	-0.089447	0.000065
N186	N	1.335384	0.410553	0.500065
H187	H	0.832506	-0.058871	0.054773
H188	H	1.332506	0.441129	0.554773
H189	H	0.832571	-0.058896	-0.054668
H190	H	1.332571	0.441104	0.445332
N191	N	1.038330	-0.034055	0.583491
N192	N	1.538330	0.465945	1.083491
H193	H	1.079637	-0.012285	0.622440
H194	H	1.579637	0.487715	1.122440
H195	H	1.011054	-0.070105	0.618665
H196	H	1.511054	0.429895	1.118665
N197	N	0.410573	0.096134	-0.167713
N198	N	0.910573	0.596134	0.332287
H199	H	0.462692	0.081493	-0.204100
H200	H	0.962692	0.581493	0.295900
H201	H	0.382777	0.053283	-0.151300
H202	H	0.882777	0.553283	0.348700
N203	N	1.145885	0.058795	0.584079
N204	N	1.645885	0.558795	1.084079
H205	H	1.176967	0.035244	0.531795
H206	H	1.676967	0.535244	1.031795
H207	H	1.186140	0.083314	0.621221
H208	H	1.686140	0.583314	1.121221
N209	N	0.587157	-0.019837	0.080078
N210	N	1.087157	0.480163	0.580078
H211	H	0.541014	-0.038170	0.115889
H212	H	1.041014	0.461830	0.615889
H213	H	0.628667	-0.060439	0.059893
H214	H	1.128667	0.439561	0.559893
N215	N	0.569018	0.099783	-0.167294
N216	N	1.069018	0.599783	0.332706
H217	H	0.596265	0.135217	-0.203575
H218	H	1.096265	0.635217	0.296425
H219	H	0.612752	0.059703	-0.150465
H220	H	1.112752	0.559703	0.349535
N221	N	1.145892	0.057781	0.415862
N222	N	1.645892	0.557781	0.915862
H223	H	1.121558	0.022546	0.376606
H224	H	1.621558	0.522546	0.876606
H225	H	1.187955	0.082105	0.380970
H226	H	1.687955	0.582105	0.880970
N227	N	0.884356	0.006811	0.416182
N228	N	1.384356	0.506811	0.916182
H229	H	0.858396	0.046534	0.377477
H230	H	1.358396	0.546534	0.877477
H231	H	0.891194	-0.038167	0.380760
H232	H	1.391194	0.461833	0.880760
H233	H	0.433211	-0.012395	-0.059692
H234	H	0.933211	0.487605	0.440308
N235	N	0.428284	-0.022438	0.080453
N236	N	0.928284	0.477562	0.580453
H237	H	0.386062	0.008342	0.117275
H238	H	0.886062	0.508342	0.617275
H239	H	0.402506	-0.065364	0.060288
H240	H	0.902506	0.434636	0.560288
N241	N	0.549752	0.209766	-0.088403
N242	N	1.049752	0.709766	0.411597
H243	H	0.585079	0.220239	-0.035583
H244	H	1.085079	0.720239	0.464417
H245	H	0.581383	0.217502	-0.144883
H246	H	1.081383	0.717502	0.355117
N247	N	0.391667	0.206744	-0.089345
N248	N	0.891667	0.706744	0.410655
H249	H	0.408360	0.234245	-0.036377
H250	H	0.908360	0.734245	0.463623
H251	H	0.409212	0.229600	-0.145659
H252	H	0.909212	0.729600	0.354341
N253	N	0.407216	0.101043	0.168137
N254	N	0.907216	0.601043	0.668137
H255	H	0.343840	0.103134	0.169327
H256	H	0.843840	0.603134	0.669327
H257	H	0.433029	0.050489	0.170876
H258	H	0.933029	0.550489	0.670876
N259	N	0.567540	0.097675	0.167214
N260	N	1.067540	0.597675	0.667214
H261	H	0.610537	0.057191	0.149921
H262	H	1.110537	0.557191	0.649921
H263	H	0.595407	0.132066	0.204583
H264	H	1.095407	0.632066	0.704583
H265	H	1.129943	-0.263592	0.000084
H266	H	1.629943	0.236408	0.500084
N267	N	0.391963	0.208653	0.084270
N268	N	0.891963	0.708653	0.584270
H269	H	0.353962	0.216660	0.030836
H270	H	0.853962	0.716660	0.530836
H271	H	0.357484	0.216995	0.140210
H272	H	0.857484	0.716995	0.640210
