data_functionalizedCrystal
_audit_creation_method	'MofGen! by Chris Wilmer'
_symmetry_space_group_name_H-M	'P1'
_symmetry_Int_Tables_number	1
_symmetry_cell_setting	triclinic
loop_
_symmetry_equiv_pos_as_xyz
  x,y,z
_cell_length_a	16.992694
_cell_length_b	13.339070
_cell_length_c	15.455313
_cell_angle_alpha	93.394339
_cell_angle_beta	87.142206
_cell_angle_gamma	103.148759
loop_
_atom_site_label
_atom_site_type_symbol
_atom_site_fract_x
_atom_site_fract_y
_atom_site_fract_z
O1	O	1.090408	0.214131	-0.072012
O2	O	1.590408	0.714131	0.427988
O3	O	0.861603	0.211734	-0.072038
O4	O	1.361603	0.711734	0.427962
O5	O	0.949746	0.063546	-0.072026
O6	O	1.449746	0.563546	0.427974
O7	O	1.002265	0.362319	-0.072025
O8	O	1.502265	0.862319	0.427975
O9	O	0.944697	0.071983	0.072236
O10	O	1.444697	0.571983	0.572236
O11	O	0.856554	0.220171	0.072223
O12	O	1.356554	0.720171	0.572223
O13	O	1.085360	0.222568	0.072249
O14	O	1.585360	0.722568	0.572249
Cu15	Cu	0.970496	0.222140	0.085408
Cu16	Cu	1.470496	0.722140	0.585408
Cu17	Cu	0.976466	0.212163	-0.085197
Cu18	Cu	1.476466	0.712163	0.414803
O19	O	0.997216	0.370756	0.072237
O20	O	1.497216	0.870756	0.572237
C21	C	0.829195	0.212871	0.000089
C22	C	1.329195	0.712871	0.500089
C23	C	0.740151	0.203676	0.000079
C24	C	1.240151	0.703676	0.500079
C25	C	0.709211	0.292390	0.000080
C26	C	1.209211	0.792390	0.500080
C27	C	0.625543	0.283745	0.000092
C28	C	1.125543	0.783745	0.500092
C29	C	0.572817	0.186386	0.000097
C30	C	1.072817	0.686386	0.500097
C31	C	0.603762	0.097666	0.000099
C32	C	1.103762	0.597666	0.500099
C33	C	0.687429	0.106311	0.000093
C34	C	1.187429	0.606311	0.500093
C35	C	0.321423	0.150552	0.000120
C36	C	0.821423	0.650552	0.500120
C37	C	0.237751	0.141912	0.000123
C38	C	0.737751	0.641912	0.500123
C39	C	0.259538	0.327993	0.000118
C40	C	0.759538	0.827993	0.500118
C41	C	0.343205	0.336630	0.000107
C42	C	0.843205	0.836630	0.500107
C43	C	0.374143	0.247910	0.000114
C44	C	0.874143	0.747910	0.500114
N45	N	0.487295	0.177547	0.000107
N46	N	0.987295	0.677547	0.500107
N47	N	0.459663	0.256750	0.000110
N48	N	0.959663	0.756750	0.500110
C49	C	0.938350	0.029358	0.000103
C50	C	1.438350	0.529358	0.500103
C51	C	0.911906	-0.085082	0.000097
C52	C	1.411906	0.414918	0.500097
C53	C	1.117519	-0.433251	0.000120
C54	C	1.617519	0.066749	0.500120
C55	C	1.142367	-0.325728	0.000131
C56	C	1.642367	0.174272	0.500131
C57	C	1.084754	-0.265562	0.000122
C58	C	1.584754	0.234438	0.500122
C59	C	1.002289	-0.312927	0.000103
C60	C	1.502289	0.187073	0.500103
C61	C	0.977439	-0.420460	0.000099
C62	C	1.477439	0.079540	0.500099
C63	C	0.944673	-0.252771	0.000101
C64	C	1.444673	0.247229	0.500101
C65	C	0.862209	-0.300136	0.000081
C66	C	1.362209	0.199864	0.500081
C67	C	0.837363	-0.407658	0.000077
C68	C	1.337363	0.092342	0.500077
C69	C	0.894976	-0.467825	0.000086
C70	C	1.394976	0.032175	0.500086
C71	C	0.969524	-0.145238	0.000105
C72	C	1.469524	0.354762	0.500105
C73	C	0.829443	-0.132447	0.000083
C74	C	1.329443	0.367553	0.500083
C75	C	0.804596	-0.239969	0.000072
C76	C	1.304596	0.260031	0.500072
C77	C	1.117767	0.221431	0.000120
C78	C	1.617767	0.721431	0.500120
C79	C	1.206811	0.230626	0.000124
C80	C	1.706811	0.730626	0.500124
C81	C	1.008612	0.404944	0.000106
C82	C	1.508612	0.904944	0.500106
C83	C	1.035056	0.519384	0.000107
C84	C	1.535056	1.019384	0.500107
N85	N	0.966302	0.229157	0.205403
N86	N	1.466302	0.729157	0.705403
N87	N	0.980664	0.205137	-0.205192
N88	N	1.480664	0.705137	0.294808
C89	C	1.003772	0.166228	0.250803
C90	C	1.503772	0.666228	0.750803
C91	C	1.000610	0.171545	0.341610
C92	C	1.500610	0.671545	0.841610
C93	C	0.959983	0.239798	0.387017
C94	C	1.459983	0.739798	0.887017
C95	C	0.922508	0.302729	0.341611
C96	C	1.422508	0.802729	0.841611
C97	C	0.925665	0.297406	0.250805
C98	C	1.425665	0.797406	0.750805
C99	C	0.946347	0.262746	0.658596
C100	C	1.446347	0.762746	1.158596
C101	C	0.943195	0.268067	0.749408
C102	C	1.443195	0.768067	1.249408
C103	C	1.021296	0.136880	0.749401
C104	C	1.521296	0.636880	1.249401
C105	C	1.024454	0.131568	0.658594
C106	C	1.524454	0.631568	1.158594
C107	C	0.986976	0.194496	0.613196
C108	C	1.486976	0.694496	1.113196
N109	N	0.956752	0.245237	0.479836
N110	N	1.456752	0.745237	0.979836
N111	N	0.990202	0.189051	0.520378
N112	N	1.490202	0.689051	1.020378
H113	H	0.560826	0.018394	0.000115
H114	H	1.060826	0.518394	0.500115
F115	F	0.899952	0.340717	0.797727
F116	F	1.399952	0.840717	1.297727
F117	F	0.720356	0.011890	0.000095
F118	F	1.220356	0.511890	0.500095
F119	F	1.067695	0.058928	0.610270
F120	F	1.567695	0.558928	1.110270
H121	H	0.915833	0.313987	0.621640
H122	H	1.415833	0.813987	1.121640
H123	H	0.874749	-0.555379	0.000073
H124	H	1.374749	-0.055379	0.500073
H125	H	0.194822	0.062627	0.000126
H126	H	0.694822	0.562627	0.500126
H127	H	1.051808	0.085646	0.786373
H128	H	1.551808	0.585646	1.286373
F129	F	0.592619	0.378167	0.000089
F130	F	1.092619	0.878167	0.500089
H131	H	0.346601	0.078309	0.000126
H132	H	0.846601	0.578309	0.500126
F133	F	0.879264	0.375365	0.389936
F134	F	1.379264	0.875365	0.889936
H135	H	0.234339	0.400223	0.000115
H136	H	0.734339	0.900223	0.500115
F137	F	0.765320	0.396013	0.000069
F138	F	1.265320	0.896013	0.500069
F139	F	0.399315	0.440253	0.000098
F140	F	0.899315	0.940253	0.500098
H141	H	0.770215	-0.446220	0.000068
H142	H	1.270215	0.053780	0.500068
F143	F	1.057285	-0.094840	0.000126
F144	F	1.557285	0.405160	0.500126
F145	F	0.885782	0.364382	0.202489
F146	F	1.385782	0.864382	0.702489
F147	F	1.230128	-0.275327	0.000137
F148	F	1.730128	0.224673	0.500137
F149	F	1.111201	-0.151127	0.000131
F150	F	1.611201	0.348873	0.500131
F151	F	0.716833	-0.290393	0.000050
F152	F	1.216833	0.209607	0.500050
F153	F	1.178824	-0.497289	0.000143
F154	F	1.678824	0.002711	0.500143
H155	H	0.782529	-0.083459	0.000080
H156	H	1.282529	0.416541	0.500080
F157	F	1.047019	0.093589	0.202487
F158	F	1.547019	0.593589	0.702487
F159	F	1.040488	0.104568	0.389928
F160	F	1.540488	0.604568	0.889928
