data_functionalizedCrystal
_audit_creation_method	'MofGen! by Chris Wilmer'
_symmetry_space_group_name_H-M	'P1'
_symmetry_Int_Tables_number	1
_symmetry_cell_setting	triclinic
loop_
_symmetry_equiv_pos_as_xyz
  x,y,z
_cell_length_a	13.032987
_cell_length_b	13.032127
_cell_length_c	13.032268
_cell_angle_alpha	89.069017
_cell_angle_beta	89.114903
_cell_angle_gamma	90.899754
loop_
_atom_site_label
_atom_site_type_symbol
_atom_site_fract_x
_atom_site_fract_y
_atom_site_fract_z
Zn1	Zn	-1.423897	-0.684157	-0.684463
Zn2	Zn	-0.923897	-0.184157	-0.184463
Zn3	Zn	-1.429189	-0.835089	-0.491212
Zn4	Zn	-0.929189	-0.335089	0.008788
Zn5	Zn	-1.278369	-0.641836	-0.496664
Zn6	Zn	-0.778369	-0.141836	0.003336
Zn7	Zn	-1.236036	-0.829609	-0.642103
Zn8	Zn	-0.736036	-0.329609	-0.142103
O9	O	-1.341873	-0.747673	-0.578611
O10	O	-0.841873	-0.247673	-0.078611
O11	O	-1.566338	-0.724184	-0.674275
O12	O	-1.066338	-0.224184	-0.174275
O13	O	-1.429114	-0.794036	-0.350192
O14	O	-0.929114	-0.294036	0.149808
O15	O	-1.313176	-0.505701	-0.541585
O16	O	-0.813176	-0.005701	-0.041585
O17	O	-1.570226	-0.835073	-0.532294
O18	O	-1.070226	-0.335073	-0.032294
O19	O	-1.420094	-0.536794	-0.679561
O20	O	-0.920094	-0.036794	-0.179561
O21	O	-1.318307	-0.652054	-0.354197
O22	O	-0.818307	-0.152054	0.145803
O23	O	-1.131015	-0.646740	-0.500510
O24	O	-0.631015	-0.146740	-0.000510
O25	O	-1.241025	-0.825732	-0.789465
O26	O	-0.741025	-0.325732	-0.289465
O27	O	-1.099913	-0.784696	-0.607364
O28	O	-0.599913	-0.284696	-0.107364
O29	O	-1.379046	-0.718870	-0.820587
O30	O	-0.879046	-0.218870	-0.320587
O31	O	-1.388065	-0.976111	-0.491219
O32	O	-0.888065	-0.476111	0.008781
O33	O	-1.246157	-0.972085	-0.602077
O34	O	-0.746157	-0.472085	-0.102077
C35	C	-1.078713	-0.710531	-0.549932
C36	C	-0.578713	-0.210531	-0.049932
C37	C	-0.966126	-0.694669	-0.537684
C38	C	-0.466126	-0.194669	-0.037684
C39	C	-0.784205	-0.739550	-0.572337
C40	C	-0.284205	-0.239550	-0.072337
C41	C	-0.900570	-0.755949	-0.584993
C42	C	-0.400570	-0.255949	-0.084993
C43	C	-1.313116	-1.010858	-0.541485
C44	C	-0.813116	-0.510858	-0.041485
C45	C	-1.300901	-1.123467	-0.525646
C46	C	-0.800901	-0.623467	-0.025646
C47	C	-0.606062	-0.784953	-0.607394
C48	C	-0.106062	-0.284953	-0.107394
C49	C	-0.718649	-0.800821	-0.619640
C50	C	-0.218649	-0.300821	-0.119640
C51	C	-1.335678	-1.305364	-0.570540
C52	C	-0.835678	-0.805364	-0.070540
C53	C	-1.348310	-1.188979	-0.586914
C54	C	-0.848310	-0.688979	-0.086914
C55	C	-1.304723	-0.776410	-0.842806
C56	C	-0.804723	-0.276410	-0.342806
C57	C	-1.288892	-0.788657	-0.955391
C58	C	-0.788892	-0.288657	-0.455391
C59	C	-1.370767	-0.483466	-0.615906
C60	C	-0.870767	0.016534	-0.115906
C61	C	-1.383080	-0.370877	-0.631800
C62	C	-0.883080	0.129123	-0.131800
C63	C	-1.350124	-0.741243	-1.020983
C64	C	-0.850124	-0.241243	-0.520983
C65	C	-1.333763	-0.753899	-1.137345
C66	C	-0.833763	-0.253899	-0.637345
C67	C	-1.378945	-0.718982	-0.315459
C68	C	-0.878945	-0.218982	0.184541
C69	C	-1.395003	-0.706478	-0.202937
C70	C	-0.895003	-0.206478	0.297063
H71	H	-0.930587	-0.820547	-0.634870
H72	H	-0.430587	-0.320547	-0.134870
H73	H	-0.936109	-0.630063	-0.487818
H74	H	-0.436109	-0.130063	0.012182
H75	H	-1.459538	-0.656506	-1.172953
H76	H	-0.959538	-0.156506	-0.672953
O77	O	-1.203400	-0.854838	-0.995100
O78	O	-0.703400	-0.354838	-0.495100
H79	H	-1.203968	-0.854396	-1.080264
H80	H	-0.703968	-0.354396	-0.580264
H81	H	-0.754183	-0.674949	-0.522474
H82	H	-0.254183	-0.174949	-0.022474
O83	O	-1.269528	-1.345195	-0.485013
O84	O	-0.769528	-0.845195	0.014987
H85	H	-1.236720	-1.279502	-0.442634
H86	H	-0.736720	-0.779502	0.057366
H87	H	-1.250955	-1.153536	-0.461079
H88	H	-0.750955	-0.653536	0.038921
H89	H	-1.414655	-0.691277	-0.990993
H90	H	-0.914655	-0.191277	-0.490993
H91	H	-0.748672	-0.865415	-0.669513
H92	H	-0.248672	-0.365415	-0.169513
H93	H	-1.398244	-1.158909	-0.651490
H94	H	-0.898244	-0.658909	-0.151490
O95	O	-1.248264	-0.820079	-1.177050
O96	O	-0.748264	-0.320079	-0.677050
H97	H	-1.281228	-0.883225	-1.222923
H98	H	-0.781228	-0.383225	-0.722923
O99	O	-1.449233	-1.331055	-0.717329
O100	O	-0.949233	-0.831055	-0.217329
H101	H	-1.448781	-1.245891	-0.716761
H102	H	-0.948781	-0.745891	-0.216761
