data_functionalizedCrystal
_audit_creation_method	'MofGen! by Chris Wilmer'
_symmetry_space_group_name_H-M	'P1'
_symmetry_Int_Tables_number	1
_symmetry_cell_setting	triclinic
loop_
_symmetry_equiv_pos_as_xyz
  x,y,z
_cell_length_a	16.109301
_cell_length_b	27.732048
_cell_length_c	15.186229
_cell_angle_alpha	89.991324
_cell_angle_beta	89.999362
_cell_angle_gamma	83.052068
loop_
_atom_site_label
_atom_site_type_symbol
_atom_site_fract_x
_atom_site_fract_y
_atom_site_fract_z
O1	O	1.102361	0.062130	-0.073183
O2	O	0.860204	0.069862	-0.073198
O3	O	0.988803	-0.004369	-0.073173
O4	O	0.973762	0.136361	-0.073208
O5	O	0.988795	-0.004370	0.073284
O6	O	0.860195	0.069861	0.073259
O7	O	1.102353	0.062129	0.073275
Zn8	Zn	0.981273	0.065995	0.096520
Zn9	Zn	0.981284	0.065996	-0.096444
O10	O	0.973753	0.136360	0.073250
C11	C	0.829228	0.069548	0.000029
C12	C	0.736945	0.068609	0.000024
C13	C	0.514154	0.110473	0.000024
C14	C	0.427445	0.109587	0.000030
C15	C	0.448409	0.021514	0.000048
C16	C	0.535117	0.022401	0.000048
C17	C	0.567987	0.066882	0.000032
C18	C	0.394570	0.065109	0.000037
C19	C	0.300556	0.064148	0.000044
C20	C	0.662007	0.067843	0.000027
C21	C	0.988483	-0.022378	0.000058
C22	C	0.987533	-0.076037	0.000065
C23	C	1.057541	-0.414559	0.000024
C24	C	1.054013	-0.616233	0.000012
O25	O	1.118031	-0.647221	-0.000023
N26	N	0.977759	-0.635676	0.000008
C27	C	0.902381	-0.604697	0.000001
O28	O	0.837441	-0.625862	-0.000011
C29	C	0.905910	-0.403024	0.000008
C30	C	0.982169	-0.383584	0.000020
C31	C	1.133794	-0.395119	0.000036
C32	C	1.134675	-0.344703	0.000044
C33	C	1.059303	-0.313728	0.000040
C34	C	0.983050	-0.333168	0.000028
C35	C	0.830533	-0.372045	-0.000005
C36	C	0.831422	-0.321624	-0.000006
C37	C	0.907681	-0.302184	0.000007
C38	C	0.908559	-0.251777	0.000032
N39	N	0.984814	-0.232334	0.000036
C40	C	1.060186	-0.263310	0.000040
C41	C	0.900534	-0.710579	-0.000000
C42	C	0.899652	-0.760997	-0.000000
C43	C	1.051284	-0.772530	0.000009
C44	C	1.052166	-0.722111	0.000015
C45	C	0.976789	-0.691136	0.000004
C46	C	1.062030	-0.157433	0.000058
C47	C	1.062905	-0.107012	0.000069
C48	C	0.911273	-0.095484	0.000056
C49	C	0.910398	-0.145900	0.000049
C50	C	0.985783	-0.176874	0.000047
O51	O	0.844576	-0.220761	0.000057
O52	O	1.125116	-0.242135	0.000033
C53	C	1.056660	-0.464975	0.000016
C54	C	0.980407	-0.484415	0.000005
C55	C	0.905035	-0.453440	0.000001
C56	C	0.979525	-0.534833	0.000005
C57	C	1.054897	-0.565808	0.000009
C58	C	1.131151	-0.546365	0.000013
C59	C	1.132032	-0.495950	0.000020
C60	C	0.828781	-0.472883	-0.000003
C61	C	0.827906	-0.523299	-0.000010
C62	C	0.903278	-0.554274	-0.000006
C63	C	1.133328	0.062443	0.000046
C64	C	1.225612	0.063382	0.000045
C65	C	0.974073	0.154369	0.000017
C66	C	0.975024	0.208028	0.000004
N67	N	0.981271	0.065994	0.228213
N68	N	0.981292	0.065994	-0.228136
C69	C	1.038234	0.033135	0.453947
C70	C	1.038237	0.033134	0.546136
C71	C	0.924323	0.098854	0.546124
C72	C	0.924317	0.098852	0.453936
C73	C	0.981277	0.065993	0.407850
C74	C	0.981286	0.065994	0.592227
C75	C	0.981288	0.065993	0.692183
C76	C	0.981274	0.065994	0.307887
H77	H	1.125007	-0.091187	0.000082
C78	C	0.439588	-0.053824	-0.075228
C79	C	0.412277	-0.027378	0.000054
H80	H	0.417285	-0.084010	-0.075222
H81	H	0.421069	-0.035874	-0.126294
H82	H	0.498933	-0.059531	-0.075214
H83	H	0.352931	-0.021668	0.000037
H84	H	0.430791	-0.045332	0.051133
H85	H	0.877932	0.125610	0.416401
H86	H	0.578951	-0.013099	0.000057
H87	H	1.123416	-0.182646	0.000053
H88	H	1.196773	-0.328880	0.000051
H89	H	1.084613	0.006379	0.416426
H90	H	1.084615	0.006377	0.583666
C91	C	0.741575	-0.422032	-0.075324
C92	C	0.746705	-0.393404	-0.000030
H93	H	0.689821	-0.435218	-0.075337
H94	H	0.745087	-0.402597	-0.126382
H95	H	0.786332	-0.447700	-0.075306
H96	H	0.701951	-0.367734	-0.000051
H97	H	0.743184	-0.412840	0.051041
H98	H	0.383617	0.145084	0.000025
H99	H	0.877948	0.125607	0.583656
C100	C	1.283758	-0.401440	0.000061
C101	C	1.216653	-0.429162	0.000048
H102	H	1.334915	-0.422456	0.000079
H103	H	1.280950	-0.381535	-0.051012
H104	H	1.280925	-0.381535	0.051134
H105	H	1.219483	-0.449064	-0.051029
H106	H	1.219463	-0.449075	0.051126
H107	H	0.765802	-0.539121	-0.000013
C108	C	1.197112	-0.628777	-0.000002
C109	C	1.214002	-0.580420	0.000011
H110	H	1.248258	-0.649802	-0.000013
H111	H	1.165822	-0.634672	0.051068
H112	H	1.165812	-0.634654	-0.051079
H113	H	1.245297	-0.574542	0.051091
H114	H	1.245305	-0.574523	-0.051064
H115	H	1.114263	-0.706287	0.000025
C116	C	0.760604	-0.129433	0.000031
C117	C	0.826574	-0.167271	0.000033
H118	H	0.708855	-0.142625	0.000008
H119	H	0.764094	-0.110020	0.051110
H120	H	0.764118	-0.109998	-0.051036
H121	H	0.823063	-0.186705	0.051105
H122	H	0.823082	-0.186693	-0.051051
H123	H	0.767402	-0.447667	-0.000009
H124	H	1.112655	-0.797759	0.000012
C125	C	0.749861	-0.744521	-0.000016
C126	C	0.815825	-0.782362	-0.000007
H127	H	0.698110	-0.757710	-0.000030
H128	H	0.753357	-0.725102	0.051055
H129	H	0.753375	-0.725091	-0.051091
H130	H	0.812315	-0.801790	0.051071
H131	H	0.812328	-0.801788	-0.051084
C132	C	0.813536	-0.647190	-0.075297
C133	C	0.817670	-0.676536	-0.000008
H134	H	0.762375	-0.626178	-0.075300
H135	H	0.859062	-0.628391	-0.075289
H136	H	0.816353	-0.667099	-0.126364
H137	H	0.814859	-0.656626	0.051059
H138	H	0.772131	-0.695337	-0.000008
C139	C	0.845313	-0.013072	0.000047
C140	C	0.828426	-0.061429	0.000046
H141	H	0.794166	0.007952	0.000031
H142	H	0.876595	-0.007188	0.051123
H143	H	0.876621	-0.007183	-0.051023
H144	H	0.797124	-0.067319	0.051119
H145	H	0.797131	-0.067315	-0.051036
C146	C	0.681449	-0.315293	-0.000025
C147	C	0.748562	-0.287577	-0.000015
H148	H	0.630297	-0.294273	-0.000024
H149	H	0.684267	-0.335191	-0.051097
H150	H	0.684262	-0.335205	0.051049
H151	H	0.745753	-0.267668	-0.051093
H152	H	0.745743	-0.267671	0.051062
H153	H	1.194130	-0.480127	0.000031
H154	H	0.540913	0.146692	0.000017
