data_functionalizedCrystal
_audit_creation_method	'MofGen! by Chris Wilmer'
_symmetry_space_group_name_H-M	'P1'
_symmetry_Int_Tables_number	1
_symmetry_cell_setting	triclinic
loop_
_symmetry_equiv_pos_as_xyz
  x,y,z
_cell_length_a	10.723023
_cell_length_b	10.723024
_cell_length_c	9.130313
_cell_angle_alpha	89.996649
_cell_angle_beta	89.996623
_cell_angle_gamma	84.467709
loop_
_atom_site_label
_atom_site_type_symbol
_atom_site_fract_x
_atom_site_fract_y
_atom_site_fract_z
O1	O	1.657187	0.175022	-0.121791
O2	O	1.294035	0.191777	-0.121795
O3	O	1.483988	0.001823	-0.121787
O4	O	1.467234	0.364976	-0.121798
O5	O	1.483975	0.001818	0.121811
O6	O	1.294022	0.191771	0.121804
O7	O	1.657174	0.175017	0.121808
Cu8	Cu	1.475597	0.183393	0.144048
Cu9	Cu	1.475612	0.183400	-0.144035
O10	O	1.467221	0.364970	0.121800
C11	C	1.247529	0.190555	0.000004
C12	C	1.108974	0.186908	0.000003
C13	C	1.047210	0.185284	-0.126189
C14	C	0.904006	0.181515	-0.126193
C15	C	1.482762	-0.044679	0.000010
C16	C	1.479114	-0.183233	0.000005
C17	C	1.585402	-0.258216	0.000004
C18	C	1.581634	-0.401420	-0.000001
C19	C	1.703680	0.176239	0.000005
C20	C	1.842235	0.179886	-0.000003
C21	C	1.468447	0.411473	-0.000001
C22	C	1.472095	0.550027	-0.000005
N23	N	1.475595	0.183388	0.346671
N24	N	1.475624	0.183396	-0.346658
C25	C	1.559735	0.099312	0.423326
C26	C	1.559747	0.099313	0.576663
C27	C	1.391475	0.267475	0.576676
C28	C	1.391458	0.267468	0.423342
H29	H	0.850890	0.180115	-0.234231
C30	C	1.806482	-0.416104	0.000006
C31	C	1.704478	-0.488390	-0.000000
H32	H	1.882321	-0.469801	0.000015
H33	H	1.803164	-0.364751	-0.084937
H34	H	1.803146	-0.364752	0.084961
H35	H	1.707809	-0.539736	-0.084961
H36	H	1.707797	-0.539766	0.084951
C37	C	1.343702	-0.313697	-0.125227
C38	C	1.352500	-0.239680	-0.000000
H39	H	1.265536	-0.348547	-0.125223
H40	H	1.349691	-0.263465	-0.210156
H41	H	1.409905	-0.379291	-0.125214
H42	H	1.286302	-0.174080	-0.000019
H43	H	1.346499	-0.289915	0.084950
C44	C	1.034436	0.184974	-0.388726
C45	C	1.118928	0.187189	-0.272042
H46	H	1.078711	0.186161	-0.478771
H47	H	0.992556	0.110993	-0.383287
H48	H	0.974751	0.256282	-0.383263
H49	H	1.178607	0.115876	-0.277499
H50	H	1.160829	0.261179	-0.277484
C51	C	1.726053	-0.066918	0.438720
C52	C	1.652205	0.006881	0.339048
H53	H	1.783133	-0.123989	0.386690
H54	H	1.771387	-0.014560	0.498503
H55	H	1.673719	-0.112273	0.498548
H56	H	1.704538	0.052244	0.279226
H57	H	1.606867	-0.045484	0.279240
C58	C	1.225131	0.433682	0.561287
C59	C	1.298995	0.359894	0.660956
H60	H	1.168032	0.490732	0.613319
H61	H	1.277445	0.479048	0.501468
H62	H	1.179807	0.381304	0.501494
H63	H	1.344327	0.412272	0.720743
H64	H	1.246675	0.314525	0.720800
H65	H	0.895344	0.181276	0.108040
H66	H	1.628259	0.030849	0.639071
H67	H	1.055835	0.185513	0.108037
H68	H	1.322935	0.335933	0.360925
H69	H	1.679188	-0.216394	0.000014
H70	H	1.381099	-0.385548	0.000006
