data_functionalizedCrystal
_audit_creation_method	'MofGen! by Chris Wilmer'
_symmetry_space_group_name_H-M	'P1'
_symmetry_Int_Tables_number	1
_symmetry_cell_setting	triclinic
loop_
_symmetry_equiv_pos_as_xyz
  x,y,z
_cell_length_a	14.853566
_cell_length_b	15.625429
_cell_length_c	13.930277
_cell_angle_alpha	71.918299
_cell_angle_beta	89.995631
_cell_angle_gamma	83.949208
loop_
_atom_site_label
_atom_site_type_symbol
_atom_site_fract_x
_atom_site_fract_y
_atom_site_fract_z
O1	O	1.196370	0.117696	-0.120732
O2	O	0.933910	0.131719	-0.125629
O3	O	1.072150	-0.006520	-0.077499
O4	O	1.058130	0.255936	-0.168862
O5	O	1.072131	-0.006523	0.082164
O6	O	0.933891	0.131716	0.034034
O7	O	1.196351	0.117693	0.038930
Zn8	Zn	1.065118	0.124704	0.061832
Zn9	Zn	1.065143	0.124708	-0.148531
O10	O	1.058111	0.255933	-0.009199
C11	C	0.900312	0.131082	-0.045578
C12	C	0.800228	0.129179	-0.044922
C13	C	0.377054	0.121130	-0.129135
C14	C	0.377054	0.121127	0.044936
C15	C	0.471088	0.122915	0.044311
C16	C	0.518109	0.123811	-0.043039
C17	C	0.471096	0.122920	-0.129764
C18	C	0.518107	0.123815	0.131030
C19	C	0.612147	0.125603	0.130408
C20	C	0.659170	0.126493	0.043060
C21	C	0.612152	0.125601	-0.043668
C22	C	0.659173	0.126498	-0.131018
C23	C	0.612156	0.125599	-0.217744
C24	C	0.518120	0.123810	-0.217112
C25	C	0.753207	0.128282	0.042428
C26	C	0.753215	0.128288	-0.131646
C27	C	1.071505	-0.040110	0.014022
C28	C	1.069600	-0.140192	0.048855
C29	C	1.063364	-0.469343	-0.271709
C30	C	1.061570	-0.563385	-0.238949
C31	C	1.061549	-0.563375	-0.064895
C32	C	1.063347	-0.469332	-0.097641
C33	C	1.064253	-0.422323	-0.201049
C34	C	1.064237	-0.422311	-0.026981
C35	C	1.066030	-0.328276	-0.059725
C36	C	1.066934	-0.281260	-0.163129
C37	C	1.066046	-0.328287	-0.233793
C38	C	1.063325	-0.469321	0.076426
C39	C	1.064214	-0.422300	0.147086
C40	C	1.066014	-0.328264	0.114343
C41	C	1.066917	-0.281248	0.010939
C42	C	1.066901	-0.281237	0.185007
C43	C	1.068694	-0.187201	0.152263
C44	C	1.068711	-0.187213	-0.021805
C45	C	1.229949	0.118330	-0.041122
C46	C	1.330033	0.120233	-0.041785
C47	C	1.058756	0.289522	-0.100723
C48	C	1.060661	0.389605	-0.135562
N49	N	1.065107	0.124701	0.205399
N50	N	1.065161	0.124704	-0.292095
C51	C	1.003928	0.185896	0.636363
C52	C	1.126383	0.063513	0.678941
C53	C	1.126372	0.063510	0.578447
C54	C	1.065139	0.124702	0.506905
C55	C	1.003917	0.185897	0.535857
C56	C	1.187599	0.002322	0.549484
C57	C	1.187592	0.002318	0.448984
C58	C	1.126354	0.063506	0.377441
C59	C	1.065129	0.124703	0.406399
C60	C	1.003896	0.185895	0.334857
C61	C	0.942666	0.247088	0.363815
C62	C	0.942680	0.247086	0.464315
C63	C	1.126340	0.063509	0.276941
C64	C	1.003885	0.185896	0.234352
H65	H	0.479815	0.123091	0.202143
H66	H	1.063473	-0.460587	0.231281
O67	O	1.185919	0.004209	0.248731
C68	C	1.241564	0.052613	0.173729
H69	H	1.243140	0.123720	0.179257
H70	H	1.313186	0.015989	0.185345
H71	H	1.213365	0.057271	0.095939
O72	O	1.069425	-0.141593	0.220981
C73	C	0.990946	-0.154434	0.278376
H74	H	0.963650	-0.219350	0.276242
H75	H	1.008408	-0.159900	0.359905
H76	H	0.937320	-0.094437	0.245393
H77	H	1.069456	-0.148937	-0.106009
O78	O	0.331403	0.120419	0.129751
C79	C	0.344291	0.198858	0.155406
H80	H	0.363076	0.253881	0.085327
H81	H	0.279054	0.223869	0.186183
H82	H	0.401161	0.182253	0.215450
O83	O	0.798994	0.129037	0.126641
C84	C	0.863483	0.052043	0.158665
H85	H	0.880942	0.026296	0.092063
H86	H	0.927337	0.070847	0.188948
H87	H	0.834321	-0.003273	0.220879
H88	H	1.061855	-0.545889	0.103082
H89	H	1.060808	-0.601662	0.019300
O90	O	1.068553	-0.189897	-0.194827
C91	C	0.991117	-0.148359	-0.161577
H92	H	0.964069	-0.199170	-0.093059
H93	H	1.009857	-0.087715	-0.139912
H94	H	0.936810	-0.124601	-0.224871
H95	H	1.066792	-0.290011	-0.317998
H96	H	0.338769	0.120395	-0.199744
O97	O	1.066139	-0.326821	0.285485
C98	C	1.144601	-0.313981	0.333956
H99	H	1.171923	-0.249082	0.286613
H100	H	1.127106	-0.308482	0.411662
H101	H	1.198219	-0.373994	0.342790
H102	H	1.064109	-0.431067	-0.355914
O103	O	0.798948	0.129000	-0.216421
C104	C	0.863477	0.052035	-0.194830
H105	H	0.842210	-0.003035	-0.126267
H106	H	0.867940	0.025869	-0.262698
H107	H	0.932458	0.071036	-0.178068
H108	H	0.650452	0.126335	-0.288866
H109	H	0.479831	0.123078	-0.287720
H110	H	0.650420	0.126333	0.201027
H111	H	0.954018	0.235723	0.176107
H112	H	1.176241	0.013696	0.737192
O113	O	1.060702	-0.608921	-0.307729
C114	C	1.061834	-0.547255	-0.406019
H115	H	1.091676	-0.483937	-0.402573
H116	H	1.105000	-0.580110	-0.455485
H117	H	0.989744	-0.527853	-0.439479
O118	O	0.883310	0.306568	0.294196
C119	C	0.931658	0.362290	0.216678
H120	H	1.002158	0.326514	0.214076
H121	H	0.894050	0.376480	0.141068
H122	H	0.937859	0.428933	0.232207
H123	H	0.892829	0.296908	0.487899
O124	O	0.944540	0.245304	0.664646
C125	C	0.957655	0.232169	0.768697
H126	H	1.029288	0.198606	0.794099
H127	H	0.947708	0.300424	0.783131
H128	H	0.906577	0.186857	0.812997
O129	O	1.246947	-0.057203	0.619058
C130	C	1.198593	-0.112889	0.696599
H131	H	1.127500	-0.114543	0.666887
H132	H	1.235286	-0.184480	0.722671
H133	H	1.193895	-0.084675	0.762941
H134	H	1.237447	-0.047509	0.425414
