data_functionalizedCrystal
_audit_creation_method	'MofGen! by Chris Wilmer'
_symmetry_space_group_name_H-M	'P1'
_symmetry_Int_Tables_number	1
_symmetry_cell_setting	triclinic
loop_
_symmetry_equiv_pos_as_xyz
  x,y,z
_cell_length_a	15.995292
_cell_length_b	15.995350
_cell_length_c	13.448316
_cell_angle_alpha	90.010332
_cell_angle_beta	90.001740
_cell_angle_gamma	83.480495
loop_
_atom_site_label
_atom_site_type_symbol
_atom_site_fract_x
_atom_site_fract_y
_atom_site_fract_z
O1	O	1.111010	0.107705	0.082714
O2	O	0.867228	0.121083	0.082709
O3	O	0.995783	-0.007495	0.082711
O4	O	0.982455	0.236283	0.082712
O5	O	0.995784	-0.007519	-0.082673
O6	O	0.867229	0.121059	-0.082675
O7	O	1.111011	0.107681	-0.082670
Cu8	Cu	0.989120	0.114368	-0.097773
Cu9	Cu	0.989119	0.114396	0.097812
O10	O	0.982456	0.236259	-0.082672
C11	C	0.836033	0.120527	0.000017
C12	C	0.743080	0.118894	0.000015
C13	C	0.405341	0.112893	0.000026
C14	C	0.428654	0.205697	0.000396
C15	C	0.525329	0.207461	0.000019
C16	C	0.572897	0.115871	0.000021
C17	C	0.543796	0.069459	-0.094418
C18	C	0.447005	0.068342	-0.094493
C19	C	0.447149	0.066475	0.093580
C20	C	0.543642	0.069914	0.094824
C21	C	0.667593	0.117549	0.000015
C22	C	0.310646	0.111212	0.000026
C23	C	0.995232	-0.038702	0.000021
C24	C	0.993580	-0.131652	0.000026
C25	C	0.987648	-0.469398	0.000023
C26	C	0.896094	-0.421945	0.000392
C27	C	0.897746	-0.325255	0.000019
C28	C	0.990591	-0.301838	0.000025
C29	C	1.035749	-0.342939	-0.094415
C30	C	1.033449	-0.439574	-0.094494
C31	C	1.035339	-0.439905	0.093579
C32	C	1.035318	-0.342959	0.094827
C33	C	0.992259	-0.207141	0.000023
C34	C	0.985983	-0.564095	0.000018
C35	C	1.142206	0.108237	0.000025
C36	C	1.235159	0.109870	0.000033
C37	C	0.983006	0.267466	0.000021
C38	C	0.984658	0.360416	0.000022
N39	N	0.989127	0.114347	-0.235337
N40	N	0.989119	0.114410	0.235377
C41	C	1.046156	0.057533	0.712596
C42	C	1.046152	0.057542	0.608492
C43	C	0.989121	0.114368	0.556458
C44	C	0.932086	0.171185	0.608532
C45	C	0.932087	0.171172	0.712633
C46	C	0.932089	0.171210	0.391552
C47	C	0.932089	0.171224	0.287443
C48	C	1.046155	0.057580	0.287411
C49	C	1.046155	0.057566	0.391512
C50	C	0.989121	0.114384	0.443579
H51	H	0.420189	0.100465	-0.165089
H52	H	1.002301	-0.315694	0.164691
H53	H	0.885646	0.217434	0.755025
C54	C	0.551041	0.256514	0.091512
N55	N	0.570404	0.293448	0.160439
C56	C	0.390828	0.254041	0.091890
N57	N	0.362331	0.290453	0.160806
C58	C	0.389457	0.253742	-0.090588
N59	N	0.359933	0.289926	-0.159120
C60	C	0.550197	0.256821	-0.091603
N61	N	0.568927	0.293997	-0.160620
C62	C	1.127893	-0.323859	-0.099170
N63	N	1.197295	-0.309481	-0.102754
C64	C	0.846886	-0.448392	-0.090613
N65	N	0.809828	-0.468305	-0.159168
C66	C	0.849784	-0.286832	0.091472
N67	N	0.813652	-0.257895	0.160354
C68	C	0.568735	0.115560	0.189211
N69	N	0.587643	0.149941	0.260303
C70	C	0.427346	-0.023582	-0.100291
N71	N	0.412542	-0.092818	-0.104664
C72	C	0.988954	-0.464304	-0.189864
N73	N	0.955436	-0.482926	-0.261697
C74	C	1.108892	-0.004946	0.448748
N75	N	1.156144	-0.052033	0.491858
C76	C	1.108895	-0.004982	0.769824
N77	N	1.156149	-0.052074	0.812926
C78	C	0.588174	-0.020404	0.102526
N79	N	0.621713	-0.088437	0.108319
H80	H	0.575664	0.002060	-0.097928
H81	H	1.092589	0.011279	0.566100
C82	C	1.108891	-0.004924	0.230136
N83	N	1.156143	-0.051998	0.186991
C84	C	0.869337	0.233702	0.448823
N85	N	0.822073	0.280770	0.491960
C86	C	0.846650	-0.446965	0.091878
N87	N	0.809407	-0.465819	0.160785
C88	C	0.570884	0.112979	-0.189369
N89	N	0.591283	0.145764	-0.260884
C90	C	1.126790	-0.322231	0.102533
N91	N	1.195692	-0.306622	0.108329
H92	H	0.862010	-0.297393	-0.067795
C93	C	0.408983	0.105771	0.190284
N94	N	0.380238	0.135381	0.263117
C95	C	0.994897	-0.467626	0.190280
N96	N	0.964426	-0.488504	0.263111
H97	H	0.433156	-0.001836	0.094220
C98	C	1.124255	-0.483162	-0.100292
N99	N	1.192649	-0.515988	-0.104666
H100	H	0.885648	0.217497	0.245082
C101	C	0.993374	-0.304609	-0.189365
N102	N	0.961451	-0.275741	-0.260880
H103	H	1.102842	-0.471680	0.094218
H104	H	0.885646	0.217452	0.566160
