data_functionalizedCrystal
_audit_creation_method	'MofGen! by Chris Wilmer'
_symmetry_space_group_name_H-M	'P1'
_symmetry_Int_Tables_number	1
_symmetry_cell_setting	triclinic
loop_
_symmetry_equiv_pos_as_xyz
  x,y,z
_cell_length_a	15.995350
_cell_length_b	15.944493
_cell_length_c	14.472310
_cell_angle_alpha	90.004804
_cell_angle_beta	89.990621
_cell_angle_gamma	83.483709
loop_
_atom_site_label
_atom_site_type_symbol
_atom_site_fract_x
_atom_site_fract_y
_atom_site_fract_z
O1	O	1.110980	0.108267	-0.076750
O2	O	0.867203	0.121637	-0.076768
O3	O	0.995774	-0.007326	-0.076766
O4	O	0.982409	0.237231	-0.076752
O5	O	0.995741	-0.007319	0.076916
O6	O	0.867170	0.121645	0.076914
O7	O	1.110947	0.108274	0.076932
Cu8	Cu	0.989055	0.114960	0.090955
Cu9	Cu	0.989094	0.114951	-0.090792
O10	O	0.982376	0.237238	0.076930
C11	C	0.835992	0.121088	0.000071
C12	C	0.743041	0.119431	0.000063
C13	C	0.405295	0.113480	0.000082
C14	C	0.452743	0.021634	0.000420
C15	C	0.549433	0.023292	0.000067
C16	C	0.572855	0.116432	0.000073
C17	C	0.531780	0.161729	-0.087680
C18	C	0.435144	0.159422	-0.087747
C19	C	0.434768	0.161328	0.087018
C20	C	0.531713	0.161306	0.088171
C21	C	0.667552	0.118105	0.000065
C22	C	0.310597	0.111809	0.000084
C23	C	0.995211	-0.038617	0.000071
C24	C	0.993573	-0.131866	0.000059
C25	C	1.069253	-0.367630	0.000082
C26	C	1.028458	-0.418200	-0.075694
C27	C	0.990539	-0.302587	0.000070
C28	C	1.028407	-0.418168	0.075824
C29	C	0.987614	-0.467496	0.000085
C30	C	0.949765	-0.351928	-0.075768
C31	C	0.949726	-0.351893	0.075818
C32	C	0.908873	-0.402430	0.000024
C33	C	0.992226	-0.207587	0.000061
C34	C	0.985920	-0.562493	0.000087
C35	C	1.142158	0.108823	0.000091
C36	C	1.235108	0.110481	0.000092
C37	C	0.982939	0.268529	0.000091
C38	C	0.984576	0.361778	0.000097
N39	N	0.989034	0.114966	0.218786
N40	N	0.989123	0.114939	-0.218622
C41	C	0.989093	0.114948	0.592877
C42	C	0.920067	0.183722	0.553711
C43	C	0.920226	0.183973	0.446623
C44	C	0.989063	0.114957	0.407286
C45	C	1.076425	0.134100	0.446131
C46	C	1.076037	0.134589	0.553253
C47	C	0.971538	0.026827	0.553400
C48	C	0.969534	0.027414	0.446272
C49	C	0.989052	0.114960	0.302398
C50	C	0.989111	0.114946	0.697765
H51	H	0.434213	-0.015076	0.063351
O52	O	0.935078	0.270593	0.412669
H53	H	0.880712	0.297209	0.370119
H54	H	1.061652	-0.447098	0.139883
O55	O	0.905717	-0.313515	0.160674
H56	H	0.906839	-0.244047	0.159518
O57	O	1.146096	0.069517	0.412385
H58	H	1.148393	0.070948	0.335755
O59	O	0.569373	0.120042	-0.174200
H60	H	0.638170	0.124179	-0.175209
O61	O	1.031819	-0.043552	0.410824
H62	H	1.028653	-0.045596	0.334255
O63	O	0.426807	-0.026784	-0.082477
H64	H	0.482987	-0.046884	-0.125480
O65	O	0.392673	0.251022	0.087822
H66	H	0.409968	0.283880	0.024189
H67	H	1.137055	-0.352005	0.000010
H68	H	1.061714	-0.447150	-0.139753
O69	O	0.905785	-0.313768	-0.160728
H70	H	0.907397	-0.244360	-0.160086
O71	O	0.567865	0.117505	0.174174
H72	H	0.598642	0.162975	0.216935
H73	H	0.855288	0.172568	0.420361
H74	H	0.841018	-0.417892	-0.000023
O75	O	0.586366	-0.024196	-0.083410
H76	H	0.619140	0.018905	-0.127282
H77	H	1.021875	-0.024353	0.578727
O78	O	0.410909	0.115642	-0.174632
H79	H	0.468185	0.096313	-0.216203
H80	H	0.547067	0.229227	0.093477
O81	O	1.096531	0.219713	0.586355
H82	H	1.106620	0.260144	0.525852
O83	O	0.407564	0.121549	0.175124
H84	H	0.366101	0.168943	0.215120
O85	O	0.888969	0.002454	0.589204
H86	H	0.859521	0.052884	0.635542
H87	H	0.854919	0.172505	0.579493
H88	H	0.931121	0.248748	0.580625
O89	O	0.392400	0.248734	-0.093027
H90	H	0.411823	0.278917	-0.157475
O91	O	0.587089	-0.023861	0.083396
H92	H	0.536244	-0.048062	0.124306
O93	O	1.146120	0.070770	0.587582
H94	H	1.180142	0.039701	0.527669
H95	H	0.905270	0.012887	0.420884
O96	O	0.550478	0.252368	-0.092014
H97	H	0.589342	0.266123	-0.031525
O98	O	1.097415	0.218262	0.410608
H99	H	1.045767	0.246585	0.365298
