data_functionalizedCrystal
_audit_creation_method	'MofGen! by Chris Wilmer'
_symmetry_space_group_name_H-M	'P1'
_symmetry_Int_Tables_number	1
_symmetry_cell_setting	triclinic
loop_
_symmetry_equiv_pos_as_xyz
  x,y,z
_cell_length_a	21.883469
_cell_length_b	21.882911
_cell_length_c	21.879399
_cell_angle_alpha	60.006540
_cell_angle_beta	60.013207
_cell_angle_gamma	59.992231
loop_
_atom_site_label
_atom_site_type_symbol
_atom_site_fract_x
_atom_site_fract_y
_atom_site_fract_z
O1	O	0.084645	-0.892842	0.746620
O2	O	0.031867	-0.695139	0.601571
O3	O	0.157054	-0.820237	0.601476
O4	O	-0.040542	-0.767744	0.746716
O5	O	0.198586	-0.778715	0.642912
O6	O	0.073399	-0.653617	0.643007
O7	O	0.126177	-0.851320	0.788056
Cu8	Cu	0.103580	-0.748677	0.719315
Cu9	Cu	0.054464	-0.797782	0.670313
O10	O	0.000990	-0.726222	0.788151
N11	N	0.138128	-0.714145	0.753785
N12	N	0.019923	-0.832320	0.635843
C13	C	0.190018	-0.547369	0.805644
C14	C	0.190029	-0.662289	0.805630
C15	C	0.218780	-0.633565	0.834353
C16	C	0.344122	-0.611968	0.768360
C17	C	0.422474	-0.638085	0.742222
C18	C	0.422504	-0.764859	0.790561
C19	C	0.344154	-0.738739	0.816702
C20	C	0.208899	-0.508180	0.728617
C21	C	0.182748	-0.429822	0.702522
C22	C	0.118843	-0.429847	0.830485
C23	C	0.144993	-0.508205	0.856580
C24	C	0.112994	-0.643364	0.824587
C25	C	0.086865	-0.669476	0.798467
C26	C	0.214799	-0.733437	0.734451
C27	C	0.240932	-0.707325	0.760562
C28	C	0.113084	-0.643389	0.959747
C29	C	0.087018	-0.669524	1.038102
C30	C	0.214996	-0.733501	1.038048
C31	C	0.241061	-0.707367	0.959690
C32	C	0.190103	-0.662308	0.920542
C33	C	0.304966	-0.662293	0.805598
C34	C	-0.117460	-0.854702	0.612901
C35	C	-0.002405	-0.854864	0.498145
C36	C	-0.002621	-0.969735	0.613108
C37	C	-0.002603	-0.854858	0.613180
C38	C	-0.031272	-0.883541	0.584334
N39	N	0.460550	-0.714150	0.753681
O40	O	0.699805	-0.721060	0.574973
O41	O	0.700047	-0.866553	0.772482
O42	O	0.699952	-0.866219	0.647213
O43	O	0.699900	-0.721394	0.700242
O44	O	0.575478	-0.824800	0.688791
O45	O	0.575573	-0.825134	0.814060
O46	O	0.575331	-0.679641	0.616551
Cu47	Cu	0.564087	-0.748606	0.719102
Cu48	Cu	0.711292	-0.797588	0.669931
O49	O	0.575426	-0.679975	0.741820
N50	N	0.814828	-0.832044	0.635345
N51	N	0.138106	-0.391772	0.753815
O52	O	-0.040520	-0.152377	0.746758
O53	O	0.156993	-0.152371	0.601281
O54	O	0.031698	-0.152390	0.601639
O55	O	0.084775	-0.152358	0.746401
O56	O	0.073234	-0.276876	0.643130
O57	O	0.198529	-0.276856	0.642772
O58	O	0.001015	-0.276863	0.788249
Cu59	Cu	0.103564	-0.288226	0.719299
Cu60	Cu	0.054444	-0.141007	0.670231
O61	O	0.126310	-0.276844	0.787892
N62	N	0.019892	-0.037461	0.635717
N63	N	0.138332	-0.714192	1.076133
O64	O	0.131293	-0.892804	1.315506
O65	O	-0.014162	-0.695219	1.315533
O66	O	-0.013826	-0.820490	1.315480
O67	O	0.130957	-0.767533	1.315559
O68	O	0.027651	-0.778981	1.191001
O69	O	0.027314	-0.653710	1.191054
O70	O	0.172770	-0.851295	1.191026
Cu71	Cu	0.103829	-0.748713	1.179674
Cu72	Cu	0.054778	-0.797802	1.326885
O73	O	0.172434	-0.726024	1.191079
N74	N	0.020275	-0.832331	1.430426
C75	C	0.047687	-0.649466	0.602306
C76	C	0.202716	-0.804385	0.602188
C77	C	0.110357	-0.896993	0.787321
C78	C	-0.044672	-0.742074	0.787439
C79	C	0.637839	-0.865879	0.818154
C80	C	0.637724	-0.865466	0.663023
C81	C	0.637536	-0.680313	0.570880
C82	C	0.637655	-0.680728	0.726010
C83	C	0.202592	-0.214459	0.601942
C84	C	0.047481	-0.214636	0.602435
C85	C	-0.044635	-0.214620	0.787537
C86	C	0.110528	-0.214598	0.787096
C87	C	-0.013455	-0.649572	1.253296
C88	C	-0.013030	-0.804697	1.253206
C89	C	0.172063	-0.896942	1.253263
C90	C	0.171648	-0.741808	1.253325
H91	H	0.071582	-0.606692	0.927876
N92	N	0.277892	-0.819199	0.541773
H93	H	0.278059	-0.773148	0.495516
H94	H	0.287554	-0.862600	0.529364
N95	N	0.637755	-0.925734	0.647990
H96	H	0.591590	-0.907400	0.635386
H97	H	0.637849	-0.972054	0.693973
N98	N	0.125565	-0.214568	0.847335
H99	H	0.178247	-0.214558	0.827910
H100	H	0.119620	-0.260710	0.892595
N101	N	0.125283	-0.972215	0.847672
H102	H	0.177955	-1.005570	0.828336
H103	H	0.088509	-0.996067	0.862174
N104	N	0.637639	-0.620464	0.741035
H105	H	0.591522	-0.608086	0.784464
H106	H	0.637606	-0.574165	0.695030
N107	N	-0.119765	-0.214630	0.848044
H108	H	-0.160295	-0.168489	0.829838
H109	H	-0.119775	-0.214652	0.894220
H110	H	0.637457	-0.634634	0.514159
N111	N	-0.073948	-0.574405	1.253298
H112	H	-0.054763	-0.540952	1.253319
H113	H	-0.119160	-0.581402	1.299436
N114	N	0.637931	-0.926383	0.893292
H115	H	0.684098	-0.971604	0.886321
H116	H	0.591782	-0.940832	0.917106
N117	N	0.277572	-0.214001	0.541289
H118	H	0.311011	-0.213890	0.560432
H119	H	0.270285	-0.167754	0.496219
N120	N	0.231906	-0.726811	1.253341
H121	H	0.246427	-0.763518	1.299486
H122	H	0.212448	-0.674107	1.253326
N123	N	0.003942	-0.649110	1.080381
H124	H	-0.024379	-0.616599	1.043688
H125	H	-0.009659	-0.620882	1.112895
N126	N	0.032474	-0.214759	0.542227
H127	H	-0.020196	-0.214803	0.561663
H128	H	0.069245	-0.260948	0.527817
H129	H	0.217732	-0.953686	1.253245
N130	N	0.269958	-0.782076	1.080267
H131	H	0.322704	-0.790089	1.043538
H132	H	0.261945	-0.831994	1.112775
N133	N	0.324136	-0.727781	0.917406
H134	H	0.352459	-0.760287	0.954098
H135	H	0.337738	-0.680655	0.884898
H136	H	-0.058496	-0.816008	1.253133
H137	H	0.071542	-0.606694	0.861281
H138	H	0.256252	-0.770113	0.697763
N139	N	0.003777	-0.649070	0.818910
H140	H	-0.019610	-0.668235	0.875117
H141	H	-0.004987	-0.672449	0.795477
N142	N	0.324016	-0.727715	0.740120
H143	H	0.347404	-0.708551	0.683912
H144	H	0.347415	-0.783925	0.759294
H145	H	0.454413	-0.827107	0.799589
N146	N	0.301918	-0.793021	0.856869
H147	H	0.338635	-0.845411	0.859931
H148	H	0.269384	-0.779036	0.828492
H149	H	0.454353	-0.597104	0.711898
H150	H	0.312222	-0.549720	0.759316
H151	H	0.036413	-0.592673	0.556752
H152	H	0.245557	-0.540066	0.687141
H153	H	0.198119	-0.397913	0.639797
H154	H	0.129609	-0.540114	0.919306
N155	N	0.070289	-0.387599	0.885419
H156	H	0.062304	-0.424316	0.938177
H157	H	0.020363	-0.355095	0.877395
H158	H	-0.101428	-0.730886	0.833046
