data_functionalizedCrystal
_audit_creation_method	'MofGen! by Chris Wilmer'
_symmetry_space_group_name_H-M	'P1'
_symmetry_Int_Tables_number	1
_symmetry_cell_setting	triclinic
loop_
_symmetry_equiv_pos_as_xyz
  x,y,z
_cell_length_a	17.000383
_cell_length_b	9.065218
_cell_length_c	8.140239
_cell_angle_alpha	90.001686
_cell_angle_beta	89.999843
_cell_angle_gamma	99.691906
loop_
_atom_site_label
_atom_site_type_symbol
_atom_site_fract_x
_atom_site_fract_y
_atom_site_fract_z
O1	O	1.056481	-0.053127	-0.136504
O2	O	1.389814	0.280206	0.196829
O3	O	1.723148	0.613540	0.530162
O4	O	0.825135	-0.106617	-0.136529
O5	O	1.158468	0.226716	0.196804
O6	O	1.491801	0.560050	0.530137
O7	O	0.945590	0.135509	-0.136513
O8	O	1.278923	0.468843	0.196820
O9	O	1.612256	0.802176	0.530154
O10	O	0.936026	-0.295253	-0.136521
O11	O	1.269359	0.038080	0.196813
O12	O	1.602693	0.371413	0.530146
O13	O	0.945583	0.135511	0.136714
O14	O	1.278916	0.468844	0.470048
O15	O	1.612250	0.802178	0.803381
O16	O	0.825128	-0.106615	0.136698
O17	O	1.158461	0.226718	0.470031
O18	O	1.491795	0.560051	0.803365
O19	O	1.056474	-0.053125	0.136723
O20	O	1.389808	0.280208	0.470056
O21	O	1.723141	0.613541	0.803389
Zn22	Zn	0.940800	-0.079870	0.180091
Zn23	Zn	1.274133	0.253463	0.513424
Zn24	Zn	1.607467	0.586797	0.846758
Zn25	Zn	0.940809	-0.079872	-0.179897
Zn26	Zn	1.274142	0.253461	0.153436
Zn27	Zn	1.607476	0.586794	0.486769
O28	O	0.936019	-0.295252	0.136706
O29	O	1.269353	0.038082	0.470040
O30	O	1.602686	0.371415	0.803373
C31	C	0.795498	-0.109489	0.000081
C32	C	1.128832	0.223845	0.333414
C33	C	1.462165	0.557178	0.666748
C34	C	0.707201	-0.118031	0.000071
C35	C	1.040535	0.215302	0.333405
C36	C	1.373868	0.548636	0.666738
C37	C	0.944667	0.190355	0.000098
C38	C	1.278001	0.523688	0.333431
C39	C	1.611334	0.857021	0.666765
C40	C	0.941919	0.353773	0.000090
C41	C	1.275252	0.687106	0.333423
C42	C	1.608586	1.020440	0.666756
C43	C	1.086111	-0.050253	0.000109
C44	C	1.419444	0.283080	0.333442
C45	C	1.752777	0.616413	0.666776
C46	C	1.174408	-0.041711	0.000108
C47	C	1.507741	0.291622	0.333441
C48	C	1.841074	0.624955	0.666774
C49	C	1.674227	0.013448	0.000072
C50	C	2.007560	0.346781	0.333406
C51	C	2.340894	0.680115	0.666739
C52	C	1.591262	0.005410	0.000069
C53	C	1.924595	0.338743	0.333403
C54	C	2.257929	0.672077	0.666736
C55	C	1.541273	-0.134108	0.000077
C56	C	1.874606	0.199225	0.333411
C57	C	2.207940	0.532558	0.666744
C58	C	1.574253	-0.265597	0.000071
C59	C	1.907586	0.067736	0.333405
C60	C	2.240919	0.401069	0.666738
C61	C	1.657216	-0.257558	0.000063
C62	C	1.990550	0.075775	0.333396
C63	C	2.323883	0.409109	0.666729
C64	C	1.290351	-0.165161	0.000093
C65	C	1.623684	0.168172	0.333427
C66	C	1.957018	0.501506	0.666760
C67	C	1.207382	-0.173190	0.000107
C68	C	1.540716	0.160143	0.333440
C69	C	1.874049	0.493476	0.666774
C70	C	1.224397	0.097818	0.000102
C71	C	1.557730	0.431152	0.333435
C72	C	1.891064	0.764485	0.666768
C73	C	1.307361	0.105845	0.000103
C74	C	1.640695	0.439179	0.333436
C75	C	1.974028	0.772512	0.666770
C76	C	1.340334	-0.025644	0.000088
C77	C	1.673667	0.307690	0.333422
C78	C	2.007001	0.641023	0.666755
C79	C	1.456469	-0.142328	0.000079
C80	C	1.789802	0.191006	0.333413
C81	C	2.123136	0.524339	0.666746
C82	C	1.425136	-0.017423	0.000074
C83	C	1.758470	0.315911	0.333408
C84	C	2.091803	0.649244	0.666741
C85	C	0.936942	-0.350097	0.000092
C86	C	1.270275	-0.016764	0.333425
C87	C	1.603608	0.316570	0.666759
C88	C	0.939690	-0.513515	0.000089
C89	C	1.273023	-0.180182	0.333423
C90	C	1.606357	0.153151	0.666756
N91	N	0.940800	-0.079867	0.425774
N92	N	1.274133	0.253466	0.759107
N93	N	1.607466	0.586800	1.092440
N94	N	0.940815	-0.079863	-0.425580
N95	N	1.274149	0.253470	-0.092247
N96	N	1.607482	0.586804	0.241087
H97	H	1.714923	0.127059	0.000073
H98	H	2.048256	0.460393	0.333406
H99	H	2.381590	0.793726	0.666739
F100	F	1.360558	0.254340	0.000104
F101	F	1.693891	0.587674	0.333438
F102	F	2.027225	0.921007	0.666771
F103	F	1.556172	0.145349	0.000032
F104	F	1.889505	0.478682	0.333366
F105	F	2.222839	0.812016	0.666699
F106	F	1.189299	0.237748	0.000111
F107	F	1.522632	0.571081	0.333444
F108	F	1.855966	0.904415	0.666778
F109	F	1.478339	0.131058	0.000059
F110	F	1.811673	0.464392	0.333392
F111	F	2.145006	0.797725	0.666726
F112	F	1.154181	-0.321692	0.000128
F113	F	1.487514	0.011641	0.333461
F114	F	1.820847	0.344975	0.666795
H115	H	1.684062	-0.364622	0.000069
H116	H	2.017396	-0.031289	0.333403
H117	H	2.350729	0.302044	0.666736
H118	H	1.533545	-0.379196	0.000067
H119	H	1.866878	-0.045863	0.333400
H120	H	2.200212	0.287470	0.666734
F121	F	1.325432	-0.305104	0.000079
F122	F	1.658765	0.028229	0.333412
F123	F	1.992099	0.361562	0.666746
F124	F	1.403260	-0.290810	0.000086
F125	F	1.736594	0.042524	0.333420
F126	F	2.069927	0.375857	0.666753
