data_functionalizedCrystal
_audit_creation_method	'MofGen! by Chris Wilmer'
_symmetry_space_group_name_H-M	'P1'
_symmetry_Int_Tables_number	1
_symmetry_cell_setting	triclinic
loop_
_symmetry_equiv_pos_as_xyz
  x,y,z
_cell_length_a	17.699083
_cell_length_b	12.837942
_cell_length_c	16.776229
_cell_angle_alpha	89.994225
_cell_angle_beta	89.998886
_cell_angle_gamma	89.055978
loop_
_atom_site_label
_atom_site_type_symbol
_atom_site_fract_x
_atom_site_fract_y
_atom_site_fract_z
O1	O	1.013707	0.131067	-0.066175
O2	O	1.513707	0.631067	0.433825
O3	O	0.794582	0.148119	-0.066201
O4	O	1.294582	0.648119	0.433799
O5	O	0.899286	-0.011297	-0.066184
O6	O	1.399286	0.488703	0.433816
O7	O	0.909003	0.290484	-0.066192
O8	O	1.409003	0.790484	0.433808
O9	O	0.899269	-0.011307	0.066393
O10	O	1.399269	0.488693	0.566393
O11	O	0.794565	0.148110	0.066376
O12	O	1.294565	0.648110	0.566376
O13	O	1.013691	0.131057	0.066401
O14	O	1.513691	0.631057	0.566401
Zn15	Zn	0.904126	0.139582	0.087438
Zn16	Zn	1.404126	0.639582	0.587438
Zn17	Zn	0.904147	0.139595	-0.087237
Zn18	Zn	1.404147	0.639595	0.412763
O19	O	0.908987	0.290474	0.066384
O20	O	1.408987	0.790474	0.566384
C21	C	0.766332	0.147503	0.000084
C22	C	1.266332	0.647503	0.500084
C23	C	0.682179	0.145670	0.000074
C24	C	1.182179	0.645670	0.500074
C25	C	0.640432	0.239245	0.000072
C26	C	1.140432	0.739245	0.500072
C27	C	0.561362	0.237516	0.000082
C28	C	1.061362	0.737516	0.500082
C29	C	0.524040	0.142212	0.000089
C30	C	1.024040	0.642212	0.500089
C31	C	0.565792	0.048631	0.000094
C32	C	1.065792	0.548631	0.500094
C33	C	0.644861	0.050360	0.000089
C34	C	1.144861	0.550360	0.500089
C35	C	0.246916	0.041653	0.000114
C36	C	0.746916	0.541653	0.500114
C37	C	0.167842	0.039931	0.000116
C38	C	0.667842	0.539931	0.500116
C39	C	0.163418	0.228809	0.000107
C40	C	0.663418	0.728809	0.500107
C41	C	0.242486	0.230539	0.000102
C42	C	0.742486	0.730539	0.500102
C43	C	0.284232	0.136958	0.000111
C44	C	0.784232	0.636958	0.500111
C45	C	0.369969	0.138833	0.000101
C46	C	0.869969	0.638833	0.500101
C47	C	0.438304	0.140336	0.000093
C48	C	0.938304	0.640336	0.500093
C49	C	0.895995	-0.049915	0.000104
C50	C	1.395995	0.450085	0.500104
C51	C	0.886204	-0.164967	0.000101
C52	C	1.386204	0.335033	0.500101
C53	C	1.003908	-0.406222	0.000099
C54	C	1.503908	0.093778	0.500099
C55	C	0.994712	-0.514324	0.000096
C56	C	1.494712	-0.014324	0.500096
C57	C	0.858617	-0.489277	0.000088
C58	C	1.358617	0.010723	0.500088
C59	C	0.867813	-0.381174	0.000091
C60	C	1.367813	0.118826	0.500091
C61	C	0.940461	-0.339651	0.000097
C62	C	1.440461	0.160349	0.500097
C63	C	0.949656	-0.231546	0.000105
C64	C	1.449656	0.268454	0.500105
C65	C	0.813561	-0.206501	0.000092
C66	C	1.313561	0.293499	0.500092
C67	C	0.804365	-0.314604	0.000089
C68	C	1.304365	0.185396	0.500089
C69	C	1.041941	0.131673	0.000115
C70	C	1.541941	0.631673	0.500115
C71	C	1.126094	0.133506	0.000119
C72	C	1.626094	0.633506	0.500119
C73	C	0.912278	0.329091	0.000095
C74	C	1.412278	0.829091	0.500095
C75	C	0.922069	0.444144	0.000092
C76	C	1.422069	0.944144	0.500092
N77	N	0.904117	0.139572	0.206649
N78	N	1.404117	0.639572	0.706649
N79	N	0.904161	0.139596	-0.206449
N80	N	1.404161	0.639596	0.293551
C81	C	0.950497	0.069012	0.248374
C82	C	1.450497	0.569012	0.748374
C83	C	0.950502	0.069011	0.331826
C84	C	1.450502	0.569011	0.831826
C85	C	0.904128	0.139576	0.373552
C86	C	1.404128	0.639576	0.873552
C87	C	0.857742	0.210141	0.331821
C88	C	1.357742	0.710141	0.831821
C89	C	0.857735	0.210136	0.248371
C90	C	1.357735	0.710136	0.748371
C91	C	0.857771	0.210161	0.668369
C92	C	1.357771	0.710161	1.168369
C93	C	0.857784	0.210163	0.751825
C94	C	1.357784	0.710163	1.251825
C95	C	0.950538	0.069036	0.751824
C96	C	1.450538	0.569036	1.251824
C97	C	0.950530	0.069031	0.668373
C98	C	1.450530	0.569031	1.168373
C99	C	0.904142	0.139591	0.626650
C100	C	1.404142	0.639591	1.126650
C101	C	0.904137	0.139590	0.536162
C102	C	1.404137	0.639590	1.036162
C103	C	0.904137	0.139583	0.464039
C104	C	1.404137	0.639583	0.964039
H105	H	0.129419	0.305007	0.000104
H106	H	0.629419	0.805007	0.500104
H107	H	0.988294	0.011574	0.634403
H108	H	1.488294	0.511574	1.134403
H109	H	0.819966	0.267592	0.214399
H110	H	1.319966	0.767592	0.714399
H111	H	0.820002	0.267615	0.634404
H112	H	1.320002	0.767615	1.134404
H113	H	0.280896	-0.034546	0.000122
H114	H	0.780896	0.465454	0.500122
O115	O	0.733784	-0.354896	-0.000058
O116	O	1.233784	0.145104	0.499942
C117	C	0.694631	-0.320827	-0.068710
C118	C	1.194631	0.179173	0.431290
H119	H	0.736975	-0.298426	-0.116699
H120	H	1.236975	0.201574	0.383301
H121	H	0.657719	-0.386236	-0.091761
H122	H	1.157719	0.113764	0.408239
H123	H	0.657538	-0.250274	-0.053184
H124	H	1.157538	0.249726	0.446816
O125	O	0.995525	0.000523	0.792479
O126	O	1.495525	0.500523	1.292479
C127	C	0.985604	0.015667	0.875082
C128	C	1.485604	0.515667	1.375082
H129	H	0.928233	0.054503	0.886485
H130	H	1.428233	0.554503	1.386485
H131	H	0.988371	-0.062839	0.906803
H132	H	1.488371	0.437161	1.406803
H133	H	1.032183	0.067580	0.898754
H134	H	1.532183	0.567580	1.398754
O135	O	0.812765	0.278650	0.372475
O136	O	1.312765	0.778650	0.872475
C137	C	0.822704	0.263510	0.455078
C138	C	1.322704	0.763510	0.955078
H139	H	0.880076	0.224671	0.466473
H140	H	1.380076	0.724671	0.966473
H141	H	0.819946	0.342018	0.486784
H142	H	1.319946	0.842018	0.986784
H143	H	0.776128	0.211602	0.478774
H144	H	1.276128	0.711602	0.978774
O145	O	0.676770	0.331759	0.000168
O146	O	1.176770	0.831759	0.500168
C147	C	0.722363	0.338420	0.068836
C148	C	1.222363	0.838420	0.568836
H149	H	0.736133	0.256682	0.091731
H150	H	1.236133	0.756682	0.591731
H151	H	0.777026	0.379608	0.053387
H152	H	1.277026	0.879608	0.553387
H153	H	0.690800	0.384357	0.116917
H154	H	1.190800	0.884357	0.616917
H155	H	0.761898	-0.152287	0.000097
H156	H	1.261898	0.347713	0.500097
H157	H	0.678850	-0.025837	0.000091
H158	H	1.178850	0.474163	0.500091
O159	O	1.074527	-0.366051	0.000070
O160	O	1.574527	0.133949	0.500070
C161	C	1.128558	-0.447991	0.000095
C162	C	1.628558	0.052009	0.500095
H163	H	1.102058	-0.521378	-0.025005
H164	H	1.602058	-0.021378	0.474995
H165	H	1.178809	-0.425510	-0.038391
H166	H	1.678809	0.074490	0.461609
H167	H	1.148497	-0.463345	0.063701
H168	H	1.648497	0.036655	0.563701
O169	O	0.995567	0.000363	0.207968
O170	O	1.495567	0.500363	0.707968
C171	C	1.036517	-0.061899	0.262695
C172	C	1.536517	0.438101	0.762695
H173	H	1.005412	-0.063011	0.322185
H174	H	1.505412	0.436989	0.822185
H175	H	1.042093	-0.144692	0.238593
H176	H	1.542093	0.355308	0.738593
H177	H	1.095158	-0.028342	0.271560
H178	H	1.595158	0.471658	0.771560
O179	O	1.056322	-0.579034	-0.000042
O180	O	1.556322	-0.079034	0.499958
C181	C	1.055069	-0.642322	-0.068695
C182	C	1.555069	-0.142322	0.431305
H183	H	1.019229	-0.602631	-0.116687
H184	H	1.519229	-0.102631	0.383313
H185	H	1.115150	-0.654619	-0.091740
H186	H	1.615150	-0.154619	0.408260
H187	H	1.029819	-0.720889	-0.053174
H188	H	1.529819	-0.220889	0.446826
O189	O	0.529420	-0.043858	0.000067
O190	O	1.029420	0.456142	0.500067
C191	C	0.450680	-0.025322	0.000088
C192	C	0.950680	0.474678	0.500088
H193	H	0.437977	0.055607	-0.025015
H194	H	0.937977	0.555607	0.474985
H195	H	0.422044	-0.086292	-0.038398
H196	H	0.922044	0.413708	0.461602
H197	H	0.428347	-0.030292	0.063693
H198	H	0.928347	0.469708	0.563693
O199	O	0.131705	-0.052743	0.000163
O200	O	0.631705	0.447257	0.500163
C201	C	0.185505	-0.134971	0.000152
C202	C	0.685505	0.365029	0.500152
H203	H	0.241220	-0.106057	0.025248
H204	H	0.741220	0.393943	0.525248
H205	H	0.164204	-0.201517	0.038650
H206	H	0.664204	0.298483	0.538650
H207	H	0.194594	-0.163830	-0.063449
H208	H	0.694594	0.336170	0.436551
H209	H	0.820019	0.267628	0.785797
H210	H	1.320019	0.767628	1.285797
O211	O	0.788092	-0.529751	-0.000028
O212	O	1.288092	-0.029751	0.499972
C213	C	0.778708	-0.591495	-0.068706
C214	C	1.278708	-0.091495	0.431294
H215	H	0.836416	-0.618545	-0.091594
H216	H	1.336416	-0.118545	0.408406
H217	H	0.743449	-0.662225	-0.053272
H218	H	1.243449	-0.162225	0.446728
H219	H	0.748672	-0.543647	-0.116785
H220	H	1.248672	-0.043647	0.383215
H221	H	0.527375	0.313714	0.000079
H222	H	1.027375	0.813714	0.500079
H223	H	0.988268	0.011554	0.365798
H224	H	1.488268	0.511554	0.865798
H225	H	0.272870	0.308145	0.000093
H226	H	0.772870	0.808145	0.500093
O227	O	1.020237	-0.191256	-0.000034
O228	O	1.520237	0.308744	0.499966
C229	C	1.059392	-0.225301	-0.068688
C230	C	1.559392	0.274699	0.431312
H231	H	1.017049	-0.247683	-0.116678
H232	H	1.517049	0.252317	0.383322
H233	H	1.096306	-0.159886	-0.091736
H234	H	1.596306	0.340114	0.408264
H235	H	1.096483	-0.295861	-0.053166
H236	H	1.596483	0.204139	0.446834
