data_functionalizedCrystal
_audit_creation_method	'MofGen! by Chris Wilmer'
_symmetry_space_group_name_H-M	'P1'
_symmetry_Int_Tables_number	1
_symmetry_cell_setting	triclinic
loop_
_symmetry_equiv_pos_as_xyz
  x,y,z
_cell_length_a	27.440280
_cell_length_b	27.440280
_cell_length_c	20.016444
_cell_angle_alpha	120.002659
_cell_angle_beta	90.002754
_cell_angle_gamma	60.000166
loop_
_atom_site_label
_atom_site_type_symbol
_atom_site_fract_x
_atom_site_fract_y
_atom_site_fract_z
Zr1	Zr	0.469561	0.533348	0.087691
O2	O	0.391750	0.635023	0.194364
O3	O	0.493405	0.431683	0.054991
O4	O	0.493411	0.533352	0.194370
O5	O	0.391750	0.533349	-0.054962
O6	O	0.573613	0.533344	0.194374
O7	O	0.391744	0.533354	0.054984
O8	O	0.573602	0.351477	-0.054950
O9	O	0.391761	0.715216	0.194362
O10	O	0.563439	0.473490	0.041046
O11	O	0.503590	0.473492	-0.041008
O12	O	0.503596	0.593194	0.123093
O13	O	0.443747	0.593195	0.041038
Zr14	Zr	0.597483	0.533327	-0.087655
Zr15	Zr	0.597474	0.533336	0.087697
Zr16	Zr	0.469570	0.533339	-0.087661
Zr17	Zr	0.469577	0.661246	0.087689
Zr18	Zr	0.597467	0.405429	-0.087653
O19	O	0.573639	0.634993	-0.054955
O20	O	0.573626	0.635005	0.194373
O21	O	0.391763	0.635010	-0.054964
O22	O	0.675294	0.431652	-0.194328
O23	O	0.675281	0.431665	0.055000
O24	O	0.493418	0.431670	-0.194337
O25	O	0.675294	0.533327	0.054998
O26	O	0.573633	0.533324	-0.194334
O27	O	0.493431	0.533332	-0.194338
O28	O	0.675300	0.533321	-0.054948
O29	O	0.493434	0.715206	0.194368
O30	O	0.573610	0.351470	-0.194332
O31	O	0.675284	0.351460	-0.194326
O32	O	0.675276	0.351467	-0.054945
O33	O	0.391768	0.715208	0.054981
O34	O	0.493442	0.715199	0.054986
O35	O	0.563448	0.473482	-0.123057
O36	O	0.623297	0.473480	-0.041002
O37	O	0.563455	0.593184	0.041044
O38	O	0.503605	0.593185	-0.041010
C39	C	0.533501	0.373357	0.000021
C40	C	0.533494	0.319061	0.000021
C41	C	0.564779	-0.017681	0.042843
C42	C	0.564785	-0.068705	0.042840
O43	O	0.591372	-0.095112	0.079242
N44	N	0.533544	-0.094221	0.000010
C45	C	0.502300	-0.068714	-0.042827
O46	O	0.475727	-0.095103	-0.079258
C47	C	0.502298	-0.017695	-0.042829
C48	C	0.533537	0.007823	0.000010
C49	C	0.596016	0.007836	0.085678
C50	C	0.596009	0.058857	0.085681
C51	C	0.564767	0.084361	0.042849
C52	C	0.533530	0.058844	0.000014
C53	C	0.471058	0.007807	-0.085671
C54	C	0.471060	0.058829	-0.085670
C55	C	0.502298	0.084347	-0.042830
C56	C	0.502281	0.135369	-0.042815
N57	N	0.533522	0.160885	0.000015
C58	C	0.564765	0.135381	0.042847
C59	C	0.502306	-0.175860	-0.042821
C60	C	0.502304	-0.226875	-0.042814
C61	C	0.564790	-0.226863	0.042852
C62	C	0.564789	-0.175844	0.042850
C63	C	0.533548	-0.150344	0.000009
C64	C	0.564749	0.242529	0.042851
C65	C	0.564737	0.293557	0.042854
C66	C	0.502254	0.293538	-0.042816
C67	C	0.502262	0.242518	-0.042815
C68	C	0.533514	0.217013	0.000020
O69	O	0.475709	0.161807	-0.079201
O70	O	0.591339	0.161769	0.079263
C71	C	0.373522	0.533353	0.000010
C72	C	0.319220	0.533359	0.000007
C73	C	-0.017481	0.533326	0.060590
C74	C	-0.068499	0.533321	0.060590
O75	O	-0.094876	0.533297	0.112086
N76	N	-0.094013	0.533319	0.000021
C77	C	-0.068504	0.533315	-0.060558
O78	O	-0.094890	0.533312	-0.112077
C79	C	-0.017484	0.533315	-0.060561
C80	C	0.008024	0.533324	0.000017
C81	C	0.008028	0.533334	0.121162
C82	C	0.059042	0.533340	0.121162
C83	C	0.084547	0.533338	0.060590
C84	C	0.059038	0.533330	0.000017
C85	C	0.008026	0.533306	-0.121142
C86	C	0.059050	0.533305	-0.121141
C87	C	0.084558	0.533314	-0.060562
C88	C	0.135556	0.533334	-0.060555
N89	N	0.161071	0.533336	0.000014
C90	C	0.135566	0.533338	0.060587
C91	C	-0.175648	0.533314	-0.060548
C92	C	-0.226669	0.533319	-0.060542
C93	C	-0.226659	0.533323	0.060606
C94	C	-0.175640	0.533323	0.060602
C95	C	-0.150133	0.533315	0.000022
C96	C	0.242698	0.533351	0.060583
C97	C	0.293715	0.533361	0.060580
C98	C	0.293703	0.533352	-0.060570
C99	C	0.242689	0.533347	-0.060564
C100	C	0.217189	0.533344	0.000016
O101	O	0.161968	0.533354	-0.112026
O102	O	0.161963	0.533331	0.112091
C103	C	0.693522	0.533322	0.000026
C104	C	0.747824	0.533317	0.000029
C105	C	0.533510	0.533349	0.219356
C106	C	0.533507	0.533353	0.293798
C107	C	0.533543	0.693318	0.000015
C108	C	0.533550	0.747614	0.000015
C109	C	0.502277	0.595832	0.507884
C110	C	0.502281	0.595830	0.577826
C111	C	0.564757	0.470856	0.492156
C112	C	0.564756	0.470858	0.422215
C113	C	0.533513	0.533348	0.430083
C114	C	0.533517	0.533344	0.569965
C115	C	0.533522	0.533342	0.645799
C116	C	0.533509	0.533351	0.354244
C117	C	0.533530	0.533331	0.780683
C118	C	0.533523	0.533339	0.706250
C119	C	0.693501	0.373342	0.000029
C120	C	0.747796	0.319040	0.000032
C121	C	0.533513	0.373346	-0.219318
C122	C	0.533510	0.319046	-0.293758
C123	C	0.693513	0.373330	-0.219310
C124	C	0.747812	0.319025	-0.293748
C125	C	0.373532	0.693345	0.219346
C126	C	0.319232	0.747650	0.293784
C127	C	0.373543	0.693334	0.000007
C128	C	0.319248	0.747635	0.000004
C129	C	0.533531	0.693330	0.219354
C130	C	0.533534	0.747629	0.293794
C131	C	0.742049	0.293545	0.042870
C132	C	0.793060	0.242531	0.042890
C133	C	0.849819	0.217009	0.000066
C134	C	0.855565	0.242509	-0.042773
C135	C	0.804554	0.293526	-0.042787
C136	C	0.564754	0.293541	-0.371552
C137	C	0.564749	0.242528	-0.441504
C138	C	0.533503	0.217017	-0.433660
C139	C	0.502255	0.242527	-0.355857
C140	C	0.502257	0.293543	-0.285908
C141	C	0.804558	0.293522	-0.285873
C142	C	0.855582	0.242504	-0.355808
C143	C	0.849860	0.216986	-0.433618
C144	C	0.793109	0.242494	-0.441491
C145	C	0.742085	0.293515	-0.371557
C146	C	0.262487	0.773159	0.285909
C147	C	0.211462	0.824194	0.355844
C148	C	0.217184	0.849714	0.433654
C149	C	0.273936	0.824203	0.441527
C150	C	0.324959	0.773173	0.371592
C151	C	0.324995	0.773136	-0.042826
C152	C	0.273984	0.824164	-0.042827
C153	C	0.217226	0.849688	-0.000001
C154	C	0.211479	0.824186	0.042834
C155	C	0.262490	0.773161	0.042839
C156	C	0.564786	0.773124	0.285924
C157	C	0.564801	0.824138	0.355862
C158	C	0.533559	0.849659	0.433670
C159	C	0.502306	0.824159	0.441539
C160	C	0.502296	0.773143	0.371601
H161	H	0.621460	-0.012927	0.120556
Br162	Br	0.607150	0.386052	0.316619
Br163	Br	0.932595	0.207895	-0.345104
Br164	Br	0.665026	0.328173	0.100997
H165	H	0.590198	0.314306	-0.377955
Br166	Br	0.607190	0.738499	0.180336
Br167	Br	0.533579	0.918897	0.528578
H168	H	0.079816	0.533297	-0.170475
Br169	Br	0.401969	0.738556	0.382295
H170	H	0.221915	0.533350	-0.109886
H171	H	0.476844	0.752391	0.378021
Br172	Br	0.665075	0.328117	-0.382259
Br173	Br	-0.261290	0.533324	-0.142746
H174	H	0.891412	0.175442	-0.490557
H175	H	0.476815	0.221749	-0.349482
H176	H	0.371206	0.752358	-0.077706
H177	H	0.476871	0.844947	0.504899
H178	H	0.788458	0.221710	-0.504853
Br179	Br	0.134445	0.858831	0.100949
Br180	Br	0.459880	0.680639	0.518562
H181	H	-0.247434	0.533323	0.109926
Br182	Br	0.785247	0.207933	0.101030
H183	H	0.891350	0.175466	0.000084
Br184	Br	0.459891	0.680633	0.683413
H185	H	0.445618	0.079589	-0.120555
Br186	Br	0.459853	0.328148	-0.180332
Br187	Br	0.134449	0.858804	0.345140
Br188	Br	0.254679	0.738556	0.100968
Br189	Br	0.533506	0.147781	-0.528601
Br190	Br	0.932599	0.207862	-0.100889
Br191	Br	0.812366	0.328117	-0.100935
Br192	Br	0.607132	0.328189	0.101002
Br193	Br	0.607216	0.858736	0.345163
Br194	Br	0.254704	0.738534	0.180319
H195	H	0.590196	0.221764	-0.504847
H196	H	-0.012735	0.533298	-0.170471
Br197	Br	0.148002	0.918936	-0.000016
H198	H	0.175632	0.891265	0.490593
H199	H	0.314476	0.533354	-0.109885
Br200	Br	0.459857	0.207896	-0.100941
Br201	Br	0.812340	0.328146	-0.180283
H202	H	0.476815	0.314315	-0.077686
Br203	Br	0.281691	0.858843	0.547133
H204	H	0.590197	0.221768	0.077731
Br205	Br	0.208100	0.533347	0.142800
Br206	Br	0.607185	-0.141218	0.100991
Br207	Br	0.638409	0.093478	0.143822
Br208	Br	0.607152	0.386052	0.481486
Br209	Br	0.607192	-0.261486	0.100982
H210	H	0.278675	0.844920	-0.077712
H211	H	0.476859	-0.247639	-0.077688
H212	H	0.445621	-0.012962	-0.120557
Br213	Br	0.459899	-0.141255	-0.100962
Br214	Br	-0.141039	0.533310	-0.142767
H215	H	0.079809	0.533344	0.170488
Br216	Br	-0.026576	0.533335	0.203378
Br217	Br	-0.141027	0.533335	0.142818
Br218	Br	0.328329	0.533377	0.142801
