data_functionalizedCrystal
_audit_creation_method	'MofGen! by Chris Wilmer'
_symmetry_space_group_name_H-M	'P1'
_symmetry_Int_Tables_number	1
_symmetry_cell_setting	triclinic
loop_
_symmetry_equiv_pos_as_xyz
  x,y,z
_cell_length_a	8.497374
_cell_length_b	8.497374
_cell_length_c	18.101398
_cell_angle_alpha	90.003639
_cell_angle_beta	90.008882
_cell_angle_gamma	90.005237
loop_
_atom_site_label
_atom_site_type_symbol
_atom_site_fract_x
_atom_site_fract_y
_atom_site_fract_z
Zn1	Zn	0.892408	0.628529	1.132163
Zn2	Zn	0.628673	0.892274	1.132157
Zn3	Zn	0.628602	0.628480	1.008355
Zn4	Zn	0.892372	0.892239	1.008337
O5	O	0.760514	0.760381	1.070253
O6	O	0.857467	0.663550	1.235795
O7	O	0.407901	0.857276	1.115739
O8	O	0.663581	0.407724	1.024788
O9	O	0.663703	0.857323	1.235790
O10	O	0.857398	0.407760	1.115749
O11	O	0.407849	0.663468	1.024782
O12	O	0.663547	0.663433	0.904720
O13	O	1.113139	0.857262	1.024758
O14	O	0.857337	0.857216	0.904707
O15	O	1.113165	0.663516	1.115732
O16	O	0.663668	1.113032	1.115722
O17	O	0.857406	1.113006	1.024752
C18	C	0.760431	0.760317	0.877842
C19	C	0.760434	0.760327	0.795528
C20	C	1.171994	0.760383	1.070247
C21	C	1.350638	0.760400	1.070249
C22	C	0.760536	1.170260	1.070244
C23	C	0.760511	1.348904	1.070263
C24	C	0.760566	0.760426	0.496437
C25	C	0.639233	0.637894	0.527746
C26	C	0.638715	0.638222	0.613364
C27	C	0.760500	0.760375	0.644820
C28	C	0.715123	0.926545	0.613748
C29	C	0.714279	0.925864	0.528103
C30	C	0.927563	0.718232	0.528020
C31	C	0.926650	0.714531	0.613670
C32	C	0.760466	0.760357	0.728679
C33	C	0.760597	0.760455	0.412578
C34	C	0.760597	0.760446	1.263415
C35	C	0.760633	0.760474	1.345729
H36	H	0.667153	0.514999	0.634371
N37	N	0.979354	0.568867	0.500935
N38	N	1.110155	0.515505	0.520190
H39	H	1.146719	0.410008	0.501062
N40	N	0.969559	0.561124	0.639147
N41	N	0.878199	0.485749	0.680095
H42	H	0.908498	0.377404	0.698093
N43	N	0.674515	0.482845	0.501888
N44	N	0.789490	0.460834	0.460081
H45	H	0.814408	0.351328	0.441811
N46	N	0.563627	0.972209	0.640646
N47	N	0.488818	0.882660	0.682690
H48	H	0.381820	0.914901	0.701686
H49	H	0.514971	0.666112	0.633840
N50	N	0.484911	0.672478	0.500727
N51	N	0.463900	0.786976	0.458513
H52	H	0.354911	0.811407	0.439429
N53	N	1.046086	0.818413	0.640512
N54	N	1.070710	0.829766	0.708385
H55	H	1.155037	0.903180	0.727333
N56	N	1.040953	0.830224	0.502635
N57	N	0.999173	0.940678	0.461463
H58	H	1.079240	1.019787	0.443537
N59	N	0.561127	0.970766	0.503035
N60	N	0.455607	1.002384	0.548792
H61	H	0.347438	1.034096	0.531092
N62	N	0.822483	1.044155	0.639327
N63	N	0.773148	1.157576	0.676704
H64	H	0.848971	1.240637	0.694772
H65	H	0.798802	1.020248	0.507394
