data_functionalizedCrystal
_audit_creation_method	'MofGen! by Chris Wilmer'
_symmetry_space_group_name_H-M	'P1'
_symmetry_Int_Tables_number	1
_symmetry_cell_setting	triclinic
loop_
_symmetry_equiv_pos_as_xyz
  x,y,z
_cell_length_a	6.817900
_cell_length_b	19.551749
_cell_length_c	19.551136
_cell_angle_alpha	96.352659
_cell_angle_beta	78.349158
_cell_angle_gamma	78.338087
loop_
_atom_site_label
_atom_site_type_symbol
_atom_site_fract_x
_atom_site_fract_y
_atom_site_fract_z
V1	V	3.997194	-0.218204	-0.097410
O2	O	3.994594	-0.213696	0.003928
O3	O	3.939946	-0.217052	-0.192423
O4	O	3.939989	-0.313215	-0.096242
O5	O	3.994551	-0.116868	-0.092919
V6	V	4.483110	-0.206042	-0.085249
O7	O	4.253205	-0.244883	-0.124084
O8	O	4.677296	-0.179364	-0.058575
O9	O	4.317151	-0.207194	0.009764
O10	O	4.603106	-0.210550	-0.186587
O11	O	4.603150	-0.307379	-0.089740
O12	O	4.317108	-0.111031	-0.086417
C13	C	3.783079	-0.213698	-0.215574
C14	C	3.817500	-0.213390	-0.293251
C15	C	3.800387	-0.149212	-0.319526
C16	C	3.832802	-0.148901	-0.392509
C17	C	3.882291	-0.212770	-0.439215
C18	C	3.899416	-0.276956	-0.412933
C19	C	3.867021	-0.277266	-0.339951
C20	C	3.842511	-0.259080	-0.560381
C21	C	3.874892	-0.258767	-0.633361
C22	C	3.982221	-0.211817	-0.664315
C23	C	4.057132	-0.165168	-0.622279
C24	C	4.024736	-0.165477	-0.549297
C25	C	3.917424	-0.212441	-0.518352
C26	C	4.000257	-0.147298	-0.769726
C27	C	4.032686	-0.146990	-0.842712
C28	C	4.099280	-0.275046	-0.863134
C29	C	4.066870	-0.275353	-0.790150
C30	C	4.017350	-0.211477	-0.743450
C31	C	3.783134	-0.336362	-0.092885
C32	C	3.817588	-0.414037	-0.092559
C33	C	3.867021	-0.460726	-0.156430
C34	C	3.899417	-0.533711	-0.156131
C35	C	3.882336	-0.560002	-0.091956
C36	C	3.832905	-0.513303	-0.028077
C37	C	3.800531	-0.440320	-0.028378
C38	C	3.791524	-0.665517	-0.040180
C39	C	3.823887	-0.738498	-0.039881
C40	C	3.982197	-0.785105	-0.091024
C41	C	4.108121	-0.758722	-0.142478
C42	C	4.075747	-0.685739	-0.142779
C43	C	3.917438	-0.639138	-0.091622
C44	C	4.066764	-0.910933	-0.154575
C45	C	4.099171	-0.983919	-0.154274
C46	C	4.032638	-0.963509	-0.026218
C47	C	4.000252	-0.890525	-0.026522
C48	C	4.017308	-0.864242	-0.090702
C49	C	4.137360	-0.210547	0.032912
C50	C	4.082177	-0.210860	0.110587
C51	C	4.137306	-0.087880	-0.089776
C52	C	4.082091	-0.010205	-0.090099
H53	H	4.080792	-0.327613	-0.768758
H54	H	3.813887	-0.296751	-0.667581
H55	H	3.755112	-0.297316	-0.535185
H56	H	3.939666	-0.571732	-0.208144
H57	H	3.939715	-0.328959	-0.450965
H58	H	3.959933	-0.095286	-0.731701
H59	H	4.080655	-0.889532	-0.206835
H60	H	4.178284	-0.664262	-0.184673
H61	H	3.818862	-0.096638	-0.413906
H62	H	4.018761	-0.094727	-0.864102
H63	H	4.139439	-1.021934	-0.206288
H64	H	4.139577	-0.327050	-0.901161
H65	H	3.880965	-0.329529	-0.318560
H66	H	3.880923	-0.439331	-0.208691
H67	H	4.237025	-0.796669	-0.184125
H68	H	4.018742	-0.984915	0.026034
H69	H	3.959987	-0.852509	0.025489
H70	H	3.721343	-0.759973	0.002013
H71	H	3.662601	-0.627574	0.001469
H72	H	3.819005	-0.534714	0.024174
H73	H	3.760079	-0.097199	-0.281506
H74	H	4.085737	-0.127495	-0.515074
H75	H	4.144510	-0.126932	-0.647479
H76	H	3.760277	-0.402305	0.023635
