data_functionalizedCrystal
_audit_creation_method	'MofGen! by Chris Wilmer'
_symmetry_space_group_name_H-M	'P1'
_symmetry_Int_Tables_number	1
_symmetry_cell_setting	triclinic
loop_
_symmetry_equiv_pos_as_xyz
  x,y,z
_cell_length_a	15.995350
_cell_length_b	14.044220
_cell_length_c	12.503572
_cell_angle_alpha	86.156832
_cell_angle_beta	93.514695
_cell_angle_gamma	88.340626
loop_
_atom_site_label
_atom_site_type_symbol
_atom_site_fract_x
_atom_site_fract_y
_atom_site_fract_z
O1	O	-1.124525	-0.116702	-0.089231
O2	O	-0.881878	-0.131788	-0.089254
O3	O	-0.999559	0.013739	-0.089232
O4	O	-1.006844	-0.262229	-0.089253
O5	O	-0.990710	0.002777	0.089408
O6	O	-0.873029	-0.142751	0.089386
O7	O	-1.115676	-0.127664	0.089409
Cu8	Cu	-0.993545	-0.136208	0.105709
Cu9	Cu	-1.004010	-0.123244	-0.105554
O10	O	-0.997995	-0.273191	0.089387
C11	C	-0.991946	0.043572	0.000088
C12	C	-0.982435	0.148798	0.000088
C13	C	-0.846212	-0.136645	0.000064
C14	C	-0.753123	-0.134775	0.000055
C15	C	-1.151342	-0.122807	0.000089
C16	C	-1.244432	-0.124677	0.000090
C17	C	-0.414873	-0.128061	0.000078
C18	C	-0.454546	-0.024443	0.000484
C19	C	-0.551396	-0.026288	0.000074
C20	C	-0.582682	-0.131391	0.000067
C21	C	-0.550467	-0.176251	-0.101944
C22	C	-0.453640	-0.173643	-0.102022
C23	C	-0.443398	-0.188250	0.101125
C24	C	-0.540276	-0.188308	0.102466
C25	C	-0.677521	-0.133279	0.000058
C26	C	-0.320034	-0.126176	0.000081
C27	C	-1.005609	-0.303024	0.000065
C28	C	-1.015120	-0.408250	0.000057
N29	N	-0.986190	-0.145326	0.254300
C30	C	-0.965048	0.341460	0.000071
C31	C	-1.032504	0.399093	0.000074
C32	C	-1.022829	0.506297	0.000065
C33	C	-0.974721	0.234246	0.000081
N34	N	-1.011370	-0.114118	-0.254145
C35	C	-0.975372	-0.158747	0.473413
C36	C	-1.022186	-0.100701	0.526749
C37	C	-1.016166	-0.108168	0.648671
C38	C	-0.981391	-0.151281	0.351480
H39	H	-0.429305	0.012496	0.073642
N40	N	-0.878927	0.382734	0.000069
H41	H	-0.875189	0.427325	-0.066154
H42	H	-0.868692	0.419158	0.066334
N43	N	-1.118623	0.357802	0.000102
H44	H	-1.146787	0.375839	0.066330
H45	H	-1.153299	0.383957	-0.066158
N46	N	-0.916308	-0.232004	0.534217
H47	H	-0.932028	-0.298077	0.514711
H48	H	-0.857014	-0.219916	0.514704
N49	N	-0.580288	0.020987	0.096939
H50	H	-0.530079	0.043217	0.140289
H51	H	-0.618738	0.077607	0.072499
N52	N	-0.429266	0.036113	-0.095853
H53	H	-0.392229	-0.003283	-0.139759
H54	H	-0.481071	0.059585	-0.141338
H55	H	-0.561067	-0.155622	0.177934
H56	H	-0.579860	0.018662	-0.073174
N57	N	-0.567799	-0.290336	0.110629
H58	H	-0.608326	-0.301159	0.047782
H59	H	-0.517245	-0.334996	0.109756
N60	N	-0.430695	-0.118064	-0.203020
H61	H	-0.483449	-0.095485	-0.247072
H62	H	-0.397416	-0.061106	-0.183156
H63	H	-1.066785	-0.045397	0.480844
H64	H	-0.427305	-0.249451	-0.106656
H65	H	-0.570547	-0.253235	-0.105743
H66	H	-0.579949	-0.136087	-0.177859
H67	H	-0.416502	-0.159112	0.178448
H68	H	-0.417310	-0.264707	0.101810
