data_functionalizedCrystal
_audit_creation_method	'MofGen! by Chris Wilmer'
_symmetry_space_group_name_H-M	'P1'
_symmetry_Int_Tables_number	1
_symmetry_cell_setting	triclinic
loop_
_symmetry_equiv_pos_as_xyz
  x,y,z
_cell_length_a	16.625546
_cell_length_b	19.077142
_cell_length_c	19.077271
_cell_angle_alpha	90.085571
_cell_angle_beta	87.715040
_cell_angle_gamma	92.282081
loop_
_atom_site_label
_atom_site_type_symbol
_atom_site_fract_x
_atom_site_fract_y
_atom_site_fract_z
Zn1	Zn	-0.390225	-1.058199	0.440438
Zn2	Zn	-0.056892	-0.724866	0.773772
Zn3	Zn	0.276441	-0.391533	1.107105
Zn4	Zn	-0.519834	-1.062865	0.322929
Zn5	Zn	-0.186501	-0.729532	0.656262
Zn6	Zn	0.146833	-0.396199	0.989596
Zn7	Zn	-0.379386	-0.945440	0.318229
Zn8	Zn	-0.046053	-0.612106	0.651563
Zn9	Zn	0.287281	-0.278773	0.984896
Zn10	Zn	-0.519379	-0.940666	0.435677
Zn11	Zn	-0.186045	-0.607333	0.769010
Zn12	Zn	0.147288	-0.273999	1.102343
O13	O	-0.452206	-1.001793	0.379318
O14	O	-0.118873	-0.668459	0.712652
O15	O	0.214461	-0.335126	1.045985
O16	O	-0.412145	-1.157149	0.428810
O17	O	-0.078812	-0.823816	0.762143
O18	O	0.254522	-0.490483	1.095477
O19	O	-0.496858	-1.051239	0.223975
O20	O	-0.163524	-0.717906	0.557309
O21	O	0.169809	-0.384572	0.890642
O22	O	-0.267995	-0.960443	0.334467
O23	O	0.065339	-0.627109	0.667800
O24	O	0.398672	-0.293776	1.001133
O25	O	-0.507368	-1.160577	0.342476
O26	O	-0.174035	-0.827244	0.675810
O27	O	0.159299	-0.493911	1.009143
O28	O	-0.275958	-1.043287	0.424253
O29	O	0.057375	-0.709953	0.757586
O30	O	0.390708	-0.376620	1.090920
O31	O	-0.393671	-0.964967	0.220522
O32	O	-0.060338	-0.631634	0.553856
O33	O	0.272996	-0.298300	0.887189
O34	O	-0.393229	-0.846475	0.329849
O35	O	-0.059896	-0.513142	0.663183
O36	O	0.273437	-0.179809	0.996516
O37	O	-0.506592	-0.952307	0.534639
O38	O	-0.173258	-0.618973	0.867972
O39	O	0.160075	-0.285640	1.201305
O40	O	-0.496081	-0.842968	0.416137
O41	O	-0.162748	-0.509635	0.749471
O42	O	0.170585	-0.176302	1.082804
O43	O	-0.411703	-1.038658	0.538137
O44	O	-0.078370	-0.705325	0.871470
O45	O	0.254963	-0.371991	1.204804
O46	O	-0.632603	-1.046610	0.337859
O47	O	-0.299269	-0.713277	0.671193
O48	O	0.034064	-0.379943	1.004526
O49	O	-0.632268	-0.956831	0.420694
O50	O	-0.298935	-0.623498	0.754028
O51	O	0.034399	-0.290164	1.087361
C52	C	-0.661692	-1.001727	0.379286
C53	C	-0.328359	-0.668394	0.712620
C54	C	0.004974	-0.335061	1.045953
C55	C	-0.751316	-1.001763	0.379299
C56	C	-0.417982	-0.668429	0.712632
C57	C	-0.084649	-0.335096	1.045965
C58	C	-0.443430	-0.819226	0.371967
C59	C	-0.110097	-0.485892	0.705300
C60	C	0.223236	-0.152559	1.038634
C61	C	-0.439696	-0.741122	0.368839
C62	C	-0.106363	-0.407789	0.702172
C63	C	0.226970	-0.074455	1.035505
C64	C	-0.460306	-0.994429	0.562597
C65	C	-0.126973	-0.661096	0.895930
C66	C	0.206361	-0.327763	1.229263
C67	C	-0.463758	-0.991292	0.640699
C68	C	-0.130424	-0.657958	0.974032
C69	C	0.202909	-0.324625	1.307365
C70	C	-1.079500	-1.001882	0.379377
C71	C	-0.746167	-0.668549	0.712710
C72	C	-0.412834	-0.335216	1.046043
C73	C	-0.988189	-1.001847	0.379357
C74	C	-0.654856	-0.668513	0.712690
C75	C	-0.321523	-0.335180	1.046023
C76	C	-0.915411	-1.001822	0.379337
C77	C	-0.582078	-0.668489	0.712671
C78	C	-0.248744	-0.335155	1.046004
C79	C	-0.824094	-1.001787	0.379318
C80	C	-0.490761	-0.668454	0.712651
C81	C	-0.157427	-0.335121	1.045985
C82	C	-0.241903	-1.001877	0.379367
C83	C	0.091430	-0.668543	0.712700
C84	C	0.424763	-0.335210	1.046033
C85	C	-0.152285	-1.001913	0.379387
C86	C	0.181049	-0.668579	0.712721
C87	C	0.514382	-0.335246	1.046054
C88	C	-0.491566	-0.702624	0.412224
C89	C	-0.158233	-0.369291	0.745557
C90	C	0.175101	-0.035958	1.078891
C91	C	-0.488047	-0.629237	0.409288
C92	C	-0.154714	-0.295904	0.742621
C93	C	0.178620	0.037429	1.075955
C94	C	-0.432662	-0.594350	0.362963
C95	C	-0.099328	-0.261017	0.696296
C96	C	0.234005	0.072317	1.029630
C97	C	-0.380786	-0.632853	0.319576
C98	C	-0.047453	-0.299520	0.652909
C99	C	0.285880	0.033813	0.986242
C100	C	-0.384302	-0.706239	0.322516
C101	C	-0.050969	-0.372905	0.655849
C102	C	0.282365	-0.039572	0.989182
C103	C	-0.416393	-0.375065	0.349364
C104	C	-0.083060	-0.041732	0.682697
C105	C	0.250274	0.291602	1.016030
C106	C	-0.412883	-0.301675	0.346425
C107	C	-0.079549	0.031659	0.679759
C108	C	0.253784	0.364992	1.013092
C109	C	-0.520143	-0.298064	0.436139
C110	C	-0.186810	0.035270	0.769472
C111	C	0.146524	0.368603	1.102806
C112	C	-0.523657	-0.371451	0.439072
C113	C	-0.190324	-0.038117	0.772405
C114	C	0.143010	0.295216	1.105738
C115	C	-0.471779	-0.409947	0.395687
C116	C	-0.138446	-0.076614	0.729021
C117	C	0.194888	0.256719	1.062354
N118	N	-0.429065	-0.519337	0.359959
N119	N	-0.095732	-0.186004	0.693293
N120	N	0.237602	0.147330	1.026626
N121	N	-0.475372	-0.484959	0.398695
N122	N	-0.142039	-0.151626	0.732028
N123	N	0.191294	0.181708	1.065362
C124	C	-0.461012	-0.185073	0.386690
C125	C	-0.127678	0.148261	0.720024
C126	C	0.205655	0.481594	1.053357
C127	C	-0.464753	-0.263177	0.389811
C128	C	-0.131419	0.070157	0.723144
C129	C	0.201914	0.403490	1.056477
C130	C	-0.415978	-1.034774	0.679214
C131	C	-0.082645	-0.701440	1.012547
C132	C	0.250689	-0.368107	1.345881
C133	C	-0.419218	-1.031817	0.752599
C134	C	-0.085885	-0.698484	1.085932
C135	C	0.247449	-0.365150	1.419266
C136	C	-0.470242	-0.985381	0.787468
C137	C	-0.136908	-0.652048	1.120801
C138	C	0.196425	-0.318714	1.454134
C139	C	-0.518023	-0.941894	0.748947
C140	C	-0.184690	-0.608561	1.082281
C141	C	0.148644	-0.275228	1.415614
C142	C	-0.514779	-0.944848	0.675563
C143	C	-0.181445	-0.611515	1.008897
C144	C	0.151888	-0.278181	1.342230
C145	C	-0.485239	-0.971723	1.006746
C146	C	-0.151906	-0.638390	1.340079
C147	C	0.181428	-0.305056	1.673413
C148	C	-0.488482	-0.968774	1.080135
C149	C	-0.155148	-0.635441	1.413469
C150	C	0.178185	-0.302107	1.746802
C151	C	-0.389675	-1.058696	1.083782
C152	C	-0.056341	-0.725363	1.417115
C153	C	0.276992	-0.392029	1.750449
C154	C	-0.386438	-1.061649	1.010397
C155	C	-0.053105	-0.728315	1.343730
C156	C	0.280228	-0.394982	1.677063
C157	C	-0.434216	-1.018159	0.971882
C158	C	-0.100883	-0.684826	1.305216
C159	C	0.232450	-0.351493	1.638549
N160	N	-0.473556	-0.982359	0.862479
N161	N	-0.140223	-0.649026	1.195812
N162	N	0.193110	-0.315693	1.529146
N163	N	-0.430897	-1.021178	0.896872
N164	N	-0.097564	-0.687845	1.230206
N165	N	0.235770	-0.354511	1.563539
C166	C	-0.444155	-1.009121	1.196753
C167	C	-0.110822	-0.675788	1.530086
C168	C	0.222512	-0.342454	1.863419
C169	C	-0.440702	-1.012256	1.118650
C170	C	-0.107369	-0.678923	1.451984
C171	C	0.225965	-0.345589	1.785317
H172	H	-0.536670	-0.731024	0.449945
H173	H	-0.203336	-0.397691	0.783278
H174	H	0.129997	-0.064357	1.116611
F175	F	-0.565630	-0.898567	0.634573
F176	F	-0.232297	-0.565233	0.967906
F177	F	0.101037	-0.231900	1.301240
H178	H	-0.530286	-0.597895	0.444616
H179	H	-0.196952	-0.264562	0.777950
H180	H	0.136381	0.068771	1.111283
H181	H	-0.568760	-0.399851	0.476793
H182	H	-0.235426	-0.066518	0.810127
H183	H	0.097907	0.266816	1.143460
H184	H	-0.562378	-0.266712	0.471461
H185	H	-0.229045	0.066621	0.804794
H186	H	0.104288	0.399955	1.138128
F187	F	-0.353936	-0.264547	0.297113
F188	F	-0.020602	0.068787	0.630446
F189	F	0.312731	0.402120	0.963780
F190	F	-0.361177	-0.416027	0.303191
F191	F	-0.027844	-0.082693	0.636525
F192	F	0.305490	0.250640	0.969858
H193	H	-0.335687	-0.604442	0.281860
H194	H	-0.002353	-0.271109	0.615193
H195	H	0.330980	0.062225	0.948526
F196	F	-0.332132	-1.111072	0.973292
F197	F	0.001201	-0.777739	1.306625
F198	F	0.334535	-0.444406	1.639959
F199	F	-0.329093	-0.747211	0.276341
F200	F	0.004240	-0.413877	0.609674
F201	F	0.337573	-0.080544	0.943007
H202	H	-0.350776	-1.094102	1.115148
H203	H	-0.017442	-0.760768	1.448481
H204	H	0.315891	-0.427435	1.781814
F205	F	-0.361675	-1.084201	0.642111
F206	F	-0.028342	-0.750868	0.975444
F207	F	0.304992	-0.417534	1.308777
H208	H	-0.380313	-1.067226	0.783955
H209	H	-0.046979	-0.733893	1.117288
H210	H	0.286354	-0.400560	1.450622
H211	H	-0.530033	-0.930958	1.108523
H212	H	-0.196700	-0.597625	1.441856
H213	H	0.136633	-0.264291	1.775190
F214	F	-0.536089	-0.925437	0.965766
F215	F	-0.202756	-0.592104	1.299099
F216	F	0.130578	-0.258771	1.632432
H217	H	-0.559565	-0.904083	0.777343
H218	H	-0.226232	-0.570749	1.110676
H219	H	0.107102	-0.237416	1.444010
