data_functionalizedCrystal
_audit_creation_method	'MofGen! by Chris Wilmer'
_symmetry_space_group_name_H-M	'P1'
_symmetry_Int_Tables_number	1
_symmetry_cell_setting	triclinic
loop_
_symmetry_equiv_pos_as_xyz
  x,y,z
_cell_length_a	17.699077
_cell_length_b	16.176319
_cell_length_c	17.699083
_cell_angle_alpha	89.992304
_cell_angle_beta	96.718205
_cell_angle_gamma	90.006860
loop_
_atom_site_label
_atom_site_type_symbol
_atom_site_fract_x
_atom_site_fract_y
_atom_site_fract_z
O1	O	1.004082	0.068737	-0.095692
O2	O	1.504082	0.568737	0.404308
O3	O	0.783703	0.068741	-0.108149
O4	O	1.283703	0.568741	0.391851
O5	O	0.900118	0.068732	0.008269
O6	O	1.400118	0.568732	0.508269
O7	O	0.887666	0.068747	-0.212110
O8	O	1.387666	0.568747	0.287890
O9	O	0.900102	-0.068761	0.008277
O10	O	1.400102	0.431239	0.508277
O11	O	0.783687	-0.068752	-0.108141
O12	O	1.283687	0.431248	0.391859
O13	O	1.004066	-0.068756	-0.095684
O14	O	1.504066	0.431244	0.404316
Cu15	Cu	0.893875	-0.081308	-0.101912
Cu16	Cu	1.393875	0.418692	0.398088
Cu17	Cu	0.893894	0.081294	-0.101921
Cu18	Cu	1.393894	0.581294	0.398079
O19	O	0.887650	-0.068746	-0.212102
O20	O	1.387650	0.431254	0.287898
C21	C	0.755498	-0.000005	-0.107700
C22	C	1.255498	0.499995	0.392300
C23	C	0.671479	-0.000003	-0.106363
C24	C	1.171479	0.499997	0.393637
C25	C	0.632003	-0.074952	-0.105729
C26	C	1.132003	0.425048	0.394271
C27	C	0.553061	-0.074953	-0.104461
C28	C	1.053061	0.425047	0.395539
C29	C	0.513595	-0.000004	-0.103832
C30	C	1.013595	0.499996	0.396168
C31	C	0.553077	0.074950	-0.104464
C32	C	1.053077	0.574950	0.395536
C33	C	0.632019	0.074950	-0.105726
C34	C	1.132019	0.574950	0.394274
C35	C	0.234714	0.074951	-0.099370
C36	C	0.734714	0.574951	0.400630
C37	C	0.155766	0.074945	-0.098110
C38	C	0.655766	0.574945	0.401890
C39	C	0.155755	-0.074952	-0.098105
C40	C	0.655755	0.425048	0.401895
C41	C	0.234697	-0.074951	-0.099367
C42	C	0.734697	0.425049	0.400633
C43	C	0.274173	0.000002	-0.099995
C44	C	0.774173	0.500002	0.400005
C45	C	0.359772	0.000002	-0.101369
C46	C	0.859772	0.500002	0.398631
C47	C	0.427997	-0.000004	-0.102464
C48	C	0.927997	0.499996	0.397536
N49	N	0.893867	-0.195673	-0.101906
N50	N	1.393867	0.304327	0.398094
C51	C	0.945431	-0.238942	-0.050377
C52	C	1.445431	0.261058	0.449623
C53	C	0.945435	-0.325489	-0.050376
C54	C	1.445435	0.174511	0.449624
C55	C	0.893878	-0.368766	-0.101908
C56	C	1.393878	0.131234	0.398092
C57	C	0.842308	-0.325491	-0.153439
C58	C	1.342308	0.174509	0.346561
C59	C	0.842301	-0.238946	-0.153436
C60	C	1.342301	0.261054	0.346564
C61	C	0.842334	-0.674520	-0.153454
C62	C	1.342334	-0.174520	0.346546
C63	C	0.842346	-0.761071	-0.153455
C64	C	1.342346	-0.261071	0.346545
C65	C	0.945468	-0.761063	-0.050393
C66	C	1.445468	-0.261063	0.449607
C67	C	0.945461	-0.674517	-0.050390
C68	C	1.445461	-0.174517	0.449610
C69	C	0.893889	-0.631250	-0.101918
C70	C	1.393889	-0.131250	0.398082
C71	C	0.893884	-0.537406	-0.101918
C72	C	1.393884	-0.037406	0.398082
C73	C	0.893885	-0.462608	-0.101913
C74	C	1.393885	0.037392	0.398087
C75	C	1.032271	-0.000008	-0.096133
C76	C	1.532271	0.499992	0.403867
C77	C	1.116289	-0.000004	-0.097470
C78	C	1.616289	0.499996	0.402530
C79	C	0.899664	-0.000015	0.036470
C80	C	1.399664	0.499985	0.536470
C81	C	0.898326	-0.000015	0.120488
C82	C	1.398326	0.499985	0.620488
N83	N	0.893907	0.195659	-0.101921
N84	N	1.393907	0.695659	0.398079
C85	C	0.888104	0.000002	-0.240303
C86	C	1.388104	0.500002	0.259697
C87	C	0.889443	0.000008	-0.324321
C88	C	1.389443	0.500008	0.175679
C89	C	0.966659	-0.000018	0.169110
C90	C	1.466659	0.499982	0.669110
C91	C	0.965397	-0.000010	0.248054
C92	C	1.465397	0.499990	0.748054
C93	C	0.895800	-0.000006	0.278373
C94	C	1.395800	0.499994	0.778373
C95	C	0.827461	-0.000001	0.229744
C96	C	1.327461	0.499999	0.729744
C97	C	0.828724	-0.000003	0.150803
C98	C	1.328724	0.499997	0.650803
C99	C	0.822366	0.000005	0.548107
C100	C	1.322366	0.500005	1.048107
C101	C	0.821108	0.000004	0.627055
C102	C	1.321108	0.500004	1.127055
C103	C	0.959039	-0.000002	0.645358
C104	C	1.459039	0.499998	1.145358
C105	C	0.960302	-0.000003	0.566417
C106	C	1.460302	0.499997	1.066417
C107	C	0.891963	0.000006	0.517795
C108	C	1.391963	0.500006	1.017795
C109	C	0.893333	-0.000000	0.432196
C110	C	1.393333	0.500000	0.932196
C111	C	0.894430	-0.000006	0.363971
C112	C	1.394430	0.499994	0.863971
H113	H	0.266826	-0.135982	-0.099883
H114	H	0.766826	0.364018	0.400117
H115	H	0.123635	0.135981	-0.097597
H116	H	0.623635	0.635981	0.402403
F117	F	1.040735	-0.000030	0.136850
F118	F	1.540735	0.499970	0.636850
H119	H	0.987418	-0.203711	-0.008416
H120	H	1.487418	0.296289	0.491584
H121	H	0.123605	-0.135983	-0.097590
H122	H	0.623605	0.364017	0.402410
H123	H	1.016974	-0.000011	0.541735
H124	H	1.516974	0.499989	1.041735
F125	F	1.031771	-0.000009	0.697111
F126	F	1.531771	0.499991	1.197111
H127	H	0.987446	-0.639284	-0.008430
H128	H	1.487446	-0.139284	0.491570
H129	H	0.664159	0.135981	-0.106244
H130	H	1.164159	0.635981	0.393756
F131	F	0.787468	-0.807128	-0.208304
F132	F	1.287468	-0.307128	0.291696
H133	H	0.987422	-0.360718	-0.008417
H134	H	1.487422	0.139282	0.491583
H135	H	0.800343	-0.639299	-0.195411
H136	H	1.300343	-0.139299	0.304589
H137	H	0.987459	-0.796300	-0.008434
H138	H	1.487459	-0.296300	0.491566
H139	H	0.800325	-0.360733	-0.195395
H140	H	1.300325	0.139267	0.304605
H141	H	0.764431	0.000006	0.651737
H142	H	1.264431	0.500006	1.151737
H143	H	0.766721	0.000013	0.508528
H144	H	1.266721	0.500013	1.008528
H145	H	0.664130	-0.135984	-0.106247
H146	H	1.164130	0.364016	0.393753
F147	F	0.276716	0.154724	-0.100039
F148	F	0.776716	0.654724	0.399961
H149	H	0.800311	-0.203718	-0.195395
H150	H	1.300311	0.296282	0.304605
F151	F	1.038127	-0.000014	0.299798
F152	F	1.538127	0.499986	0.799798
H153	H	0.520938	0.135974	-0.103946
H154	H	1.020938	0.635974	0.396054
F155	F	0.753391	0.000012	0.262014
F156	F	1.253391	0.500012	0.762014
H157	H	0.520924	-0.135983	-0.103932
H158	H	1.020924	0.364017	0.396068
F159	F	0.755994	0.000002	0.099055
F160	F	1.255994	0.500002	0.599055
