data_functionalizedCrystal
_audit_creation_method	'MofGen! by Chris Wilmer'
_symmetry_space_group_name_H-M	'P1'
_symmetry_Int_Tables_number	1
_symmetry_cell_setting	triclinic
loop_
_symmetry_equiv_pos_as_xyz
  x,y,z
_cell_length_a	16.625546
_cell_length_b	19.077105
_cell_length_c	19.077271
_cell_angle_alpha	90.107074
_cell_angle_beta	87.671269
_cell_angle_gamma	92.281241
loop_
_atom_site_label
_atom_site_type_symbol
_atom_site_fract_x
_atom_site_fract_y
_atom_site_fract_z
Zn1	Zn	-0.349527	-1.058285	-0.440417
Zn2	Zn	-0.489990	-1.062928	-0.322904
Zn3	Zn	-0.349978	-0.945502	-0.318208
Zn4	Zn	-0.479122	-0.940751	-0.435659
O5	O	-0.417154	-1.001866	-0.379297
O6	O	-0.372520	-1.157233	-0.428785
O7	O	-0.476154	-1.051283	-0.223947
O8	O	-0.237087	-0.960508	-0.334445
O9	O	-0.475717	-1.160644	-0.342448
O10	O	-0.236756	-1.043369	-0.424231
O11	O	-0.373287	-0.965010	-0.220497
O12	O	-0.362749	-0.846540	-0.329831
O13	O	-0.457195	-0.952410	-0.534623
O14	O	-0.457631	-0.843049	-0.416122
O15	O	-0.361982	-1.038762	-0.538119
O16	O	-0.601380	-1.046676	-0.337835
O17	O	-0.593395	-0.956913	-0.420676
C18	C	-0.626644	-1.001801	-0.379265
C19	C	-0.716266	-1.001836	-0.379277
C20	C	-0.409061	-0.819298	-0.371951
C21	C	-0.405617	-0.741193	-0.368826
C22	C	-0.408326	-0.994538	-0.562581
C23	C	-0.404563	-0.991415	-0.640686
C24	C	-1.044443	-1.001956	-0.379355
C25	C	-0.953134	-1.001920	-0.379335
C26	C	-0.880357	-1.001896	-0.379316
C27	C	-0.789043	-1.001861	-0.379297
C28	C	-0.206847	-1.001950	-0.379345
C29	C	-0.117227	-1.001986	-0.379366
C30	C	-0.425280	-1.185148	-0.386671
C31	C	-0.428743	-1.263251	-0.389814
C32	C	-0.453480	-0.702704	-0.412213
C33	C	-0.450233	-0.629316	-0.409280
C34	C	-0.399127	-0.594420	-0.362954
C35	C	-0.351258	-0.632915	-0.319565
C36	C	-0.354501	-0.706301	-0.322502
C37	C	-0.384118	-0.375132	-0.349362
C38	C	-0.380880	-0.301741	-0.346426
C39	C	-0.479854	-0.298147	-0.436142
C40	C	-0.483096	-0.371535	-0.439073
C41	C	-0.435224	-0.410023	-0.395686
N42	N	-0.395809	-0.519407	-0.359953
N43	N	-0.438539	-0.485036	-0.398691
C44	C	-0.377643	-0.969017	-1.080140
C45	C	-0.381175	-0.971955	-1.006753
C46	C	-0.436502	-1.018338	-0.971854
C47	C	-0.488295	-1.061790	-1.010348
C48	C	-0.484758	-1.058856	-1.083734
C49	C	-0.452819	-1.031934	-0.752565
C50	C	-0.456354	-1.034863	-0.679174
C51	C	-0.349232	-0.945028	-0.675584
C52	C	-0.345704	-0.942095	-0.748972
C53	C	-0.397494	-0.985550	-0.787459
N54	N	-0.440116	-1.021340	-0.896840
N55	N	-0.393876	-0.982551	-0.862471
C56	C	-0.425892	-1.009207	-0.196727
C57	C	-0.429434	-1.012466	-0.118628
H58	H	-0.495099	-0.731111	-0.449934
C59	C	-0.317702	-0.918568	-1.118059
C60	C	-0.359325	-0.871811	-1.158353
C61	C	-0.304132	-0.825321	-1.193283
H62	H	-0.282361	-0.944233	-1.147832
H63	H	-0.287375	-0.893072	-1.084644
H64	H	-0.389639	-0.897304	-1.191764
H65	H	-0.394663	-0.846129	-1.128597
H66	H	-0.273805	-0.799825	-1.159868
H67	H	-0.268795	-0.850992	-1.223052
H68	H	-0.332366	-0.793586	-1.220621
H69	H	-0.494992	-1.067316	-0.783893
H70	H	-0.339254	-0.273331	-0.308706
H71	H	-0.315522	-0.737638	-0.287175
H72	H	-0.307067	-0.909651	-0.644240
C73	C	-0.324858	-0.924898	-0.964931
C74	C	-0.276956	-0.966390	-0.924427
C75	C	-0.225058	-0.923065	-0.885897
H76	H	-0.355634	-0.895405	-0.935005
H77	H	-0.291357	-0.896863	-0.996201
H78	H	-0.310453	-0.994413	-0.893159
H79	H	-0.246163	-0.995883	-0.954335
H80	H	-0.191557	-0.895030	-0.917168
H81	H	-0.255840	-0.893573	-0.855976
H82	H	-0.192545	-0.951211	-0.858416
C83	C	-0.502163	-0.587617	-0.456499
C84	C	-0.482198	-0.602723	-0.526769
C85	C	-0.530032	-0.564333	-0.570288
H86	H	-0.492964	-0.538898	-0.448215
H87	H	-0.557359	-0.600060	-0.446643
H88	H	-0.427015	-0.590276	-0.536622
H89	H	-0.491401	-0.651435	-0.535075
H90	H	-0.585228	-0.576775	-0.560432
H91	H	-0.520829	-0.515615	-0.561998
H92	H	-0.516498	-0.574581	-0.617971
C93	C	-0.516461	-1.085291	-0.641412
C94	C	-0.561049	-1.122730	-0.690823
C95	C	-0.616421	-1.169189	-0.656063
H96	H	-0.551851	-1.059610	-0.611701
H97	H	-0.488381	-1.117102	-0.614032
H98	H	-0.589128	-1.090923	-0.718191
H99	H	-0.525681	-1.148425	-0.720536
H100	H	-0.588341	-1.201000	-0.628684
H101	H	-0.651806	-1.143502	-0.626353
H102	H	-0.646676	-1.194601	-0.689584
H103	H	-0.533340	-1.099559	-0.981928
H104	H	-0.518827	-0.266802	-0.471467
H105	H	-0.345144	-0.406461	-0.314028
H106	H	-0.526930	-1.094237	-1.115070
C107	C	-0.295847	-0.594902	-0.269293
C108	C	-0.303265	-0.522396	-0.275992
C109	C	-0.252239	-0.487358	-0.229686
H110	H	-0.241689	-0.606450	-0.280100
H111	H	-0.310372	-0.608764	-0.222524
H112	H	-0.288735	-0.508539	-0.322751
H113	H	-0.357411	-0.510827	-0.265180
H114	H	-0.266764	-0.501220	-0.182917
H115	H	-0.198085	-0.498912	-0.240497
H116	H	-0.257271	-0.438160	-0.234221
H117	H	-0.300654	-0.904322	-0.777381
H118	H	-0.524714	-0.399942	-0.476795
