data_functionalizedCrystal
_audit_creation_method	'MofGen! by Chris Wilmer'
_symmetry_space_group_name_H-M	'P1'
_symmetry_Int_Tables_number	1
_symmetry_cell_setting	triclinic
loop_
_symmetry_equiv_pos_as_xyz
  x,y,z
_cell_length_a	19.851628
_cell_length_b	20.875492
_cell_length_c	20.875625
_cell_angle_alpha	60.168684
_cell_angle_beta	92.971553
_cell_angle_gamma	58.321399
loop_
_atom_site_label
_atom_site_type_symbol
_atom_site_fract_x
_atom_site_fract_y
_atom_site_fract_z
Zr1	Zr	0.601821	0.740711	-0.122788
O2	O	0.480587	0.881861	-0.232556
O3	O	0.644601	0.599554	-0.084040
O4	O	0.629208	0.740717	-0.225213
O5	O	0.501735	0.740697	0.014177
O6	O	0.740056	0.740730	-0.225219
O7	O	0.495980	0.740698	-0.091384
O8	O	0.767591	0.488215	0.027312
O9	O	0.474200	0.993212	-0.238355
O10	O	0.738787	0.657626	-0.073679
O11	O	0.660357	0.657616	0.005104
O12	O	0.642234	0.823817	-0.161108
O13	O	0.563804	0.823806	-0.082325
Zr14	Zr	0.787789	0.740730	0.045558
Zr15	Zr	0.778610	0.740732	-0.122799
Zr16	Zr	0.611000	0.740709	0.045568
Zr17	Zr	0.591634	0.918303	-0.132037
Zr18	Zr	0.797976	0.563139	0.054807
O19	O	0.745009	0.881888	0.006810
O20	O	0.731959	0.881891	-0.232571
O21	O	0.493637	0.881858	0.006825
O22	O	0.909023	0.599580	0.155326
O23	O	0.895973	0.599583	-0.084055
O24	O	0.657652	0.599551	0.155341
O25	O	0.887875	0.740745	-0.091407
O26	O	0.760402	0.740725	0.147983
O27	O	0.649554	0.740712	0.147989
O28	O	0.893630	0.740743	0.014153
O29	O	0.614724	0.993228	-0.238363
O30	O	0.774887	0.488213	0.161133
O31	O	0.915410	0.488230	0.161125
O32	O	0.908115	0.488231	0.027304
O33	O	0.481495	0.993210	-0.104534
O34	O	0.622019	0.993227	-0.104543
O35	O	0.747376	0.657624	0.083878
O36	O	0.825806	0.657635	0.005095
O37	O	0.729253	0.823826	-0.082335
O38	O	0.650823	0.823815	-0.003551
C39	C	0.707547	0.518581	-0.027046
C40	C	0.711872	0.443189	-0.023120
C41	C	0.646143	0.469129	-0.082634
C42	C	0.650207	0.398303	-0.078973
C43	C	0.719997	0.301538	-0.015794
C44	C	0.785732	0.275599	0.043723
C45	C	0.781671	0.346424	0.040058
C46	C	0.739412	0.083138	0.001742
C47	C	0.743467	0.012313	0.005404
C48	C	0.607942	0.135022	-0.117294
C49	C	0.603884	0.205843	-0.120950
C50	C	0.669622	0.179898	-0.061436
N51	N	0.724151	0.229142	-0.012049
N52	N	0.665470	0.252294	-0.065185
C53	C	0.473669	0.740695	-0.038602
C54	C	0.398617	0.740686	-0.038598
C55	C	0.269894	0.650093	0.009061
C56	C	0.201544	0.695388	0.037838
C57	C	0.261184	0.740711	-0.038609
C58	C	0.195800	0.695410	-0.067358
C59	C	0.128433	0.740728	-0.038619
C60	C	0.193825	0.786006	-0.009790
C61	C	0.188089	0.786015	-0.115026
C62	C	0.119723	0.831376	-0.086272
C63	C	0.337659	0.740698	-0.038601
C64	C	0.051955	0.740747	-0.038626
C65	C	0.915941	0.740747	-0.038628
C66	C	0.990993	0.740756	-0.038633
C67	C	0.683324	0.740723	-0.249203
C68	C	0.679428	0.740724	-0.320675
C69	C	0.682063	0.962860	-0.050184
C70	C	0.677738	1.038252	-0.054110
C71	C	0.738664	0.740733	-0.354256
C72	C	0.735005	0.740725	-0.421407
C73	C	0.672106	0.740716	-0.454979
C74	C	0.612868	0.740705	-0.421392
C75	C	0.616531	0.740705	-0.354238
C76	C	0.654607	0.740706	-0.655815
C77	C	0.650946	0.740709	-0.722974
C78	C	0.773086	0.740728	-0.722984
C79	C	0.776740	0.740734	-0.655832
C80	C	0.717504	0.740718	-0.622248
N81	N	0.668364	0.740711	-0.523619
N82	N	0.721251	0.740716	-0.553605
C83	C	0.706286	0.740718	0.171973
C84	C	0.710182	0.740717	0.243445
C85	C	0.928684	0.518607	-0.027059
C86	C	1.008060	0.443224	-0.023137
C87	C	0.719028	0.518579	0.183542
C88	C	0.727249	0.443186	0.258940
C89	C	0.940165	0.518605	0.183529
C90	C	1.023437	0.443220	0.258922
C91	C	0.449445	0.962837	-0.260759
C92	C	0.366173	1.038221	-0.336153
C93	C	0.460926	0.962834	-0.050171
C94	C	0.381550	1.038218	-0.054093
C95	C	0.670582	0.962863	-0.260772
C96	C	0.662361	1.038256	-0.336170
C97	C	0.999913	0.407819	-0.062422
C98	C	1.074487	0.336998	-0.058753
C99	C	1.157208	0.301579	-0.015795
C100	C	1.165354	0.336991	0.023491
C101	C	1.090780	0.407816	0.019816
C102	C	0.776534	0.407785	0.335474
C103	C	0.784255	0.336955	0.406324
C104	C	0.742696	0.301522	0.400639
C105	C	0.693406	0.336930	0.324097
C106	C	0.685680	0.407763	0.253248
C107	C	1.103490	0.407825	0.253204
C108	C	1.181740	0.337003	0.324037
C109	C	1.179935	0.301574	0.400589
C110	C	1.099873	0.336976	0.406305
C111	C	1.021626	0.407801	0.335472
C112	C	0.286119	1.073625	-0.330435
C113	C	0.207869	1.144469	-0.401269
C114	C	0.209673	1.179902	-0.477821
C115	C	0.289735	1.144495	-0.483537
C116	C	0.367984	1.073658	-0.412703
C117	C	0.389697	1.073630	-0.014816
C118	C	0.315120	1.144471	-0.018504
C119	C	0.232398	1.179892	-0.061465
C120	C	0.224253	1.144476	-0.100747
C121	C	0.298828	1.073642	-0.097063
C122	C	0.703930	1.073666	-0.330459
C123	C	0.696223	1.144497	-0.401296
C124	C	0.646940	1.179920	-0.477845
C125	C	0.605370	1.144503	-0.483554
C126	C	0.613083	1.073669	-0.412717
H127	H	0.589305	0.547917	-0.134073
H128	H	0.055603	0.908060	-0.126583
C129	C	0.845931	0.740739	-0.618898
C130	C	0.911090	0.740758	-0.655835
C131	C	0.980278	0.740766	-0.618900
C132	C	0.984307	0.740756	-0.545029
C133	C	0.919146	0.740738	-0.508088
C134	C	0.849958	0.740729	-0.545022
H135	H	0.908109	0.740765	-0.710523
H136	H	1.028515	0.740780	-0.646247
H137	H	1.035525	0.740763	-0.517688
H138	H	0.922127	0.740730	-0.453400
H139	H	0.801721	0.740715	-0.517676
C140	C	0.751206	0.223598	0.478579
C141	C	0.705502	0.184611	0.472338
C142	C	0.714018	0.106685	0.550281
C143	C	0.768239	0.067746	0.634464
C144	C	0.813947	0.106733	0.640708
C145	C	0.805431	0.184659	0.562766
H146	H	0.665361	0.213437	0.410018
H147	H	0.680181	0.077825	0.545658
H148	H	0.774543	0.010060	0.692162
H149	H	0.854088	0.077907	0.703029
H150	H	0.839267	0.213519	0.567388
C151	C	0.181484	0.837702	-0.202297
C152	C	0.182248	0.799639	-0.249516
C153	C	0.175655	0.851313	-0.336786
C154	C	0.168298	0.941051	-0.376838
C155	C	0.167533	0.979119	-0.329619
C156	C	0.174126	0.927445	-0.242348
H157	H	0.187695	0.733205	-0.219867
H158	H	0.176222	0.823132	-0.371740
H159	H	0.163417	0.979303	-0.441441
H160	H	0.162086	1.045552	-0.359267
H161	H	0.173560	0.955626	-0.207394
C162	C	0.208204	0.643652	0.125131
C163	C	0.288044	0.537763	0.192391
C164	C	0.294709	0.486020	0.279684
C165	C	0.221535	0.540165	0.299718
C166	C	0.141690	0.646060	0.232456
C167	C	0.135024	0.697803	0.145163
H168	H	0.342217	0.497676	0.177563
H169	H	0.353816	0.407630	0.329476
H170	H	0.226469	0.501862	0.364337
H171	H	0.087517	0.686147	0.247284
H172	H	0.075917	0.776193	0.095371
H173	H	0.156891	1.173327	-0.135725
H174	H	0.284634	1.044779	-0.268109
H175	H	1.232716	0.308143	0.058466
C176	C	0.838248	0.740735	-0.759921
C177	C	0.900533	0.658101	-0.762619
C178	C	0.965702	0.658104	-0.799552
C179	C	0.968586	0.740741	-0.833789
C180	C	0.906299	0.823382	-0.831092
C181	C	0.841130	0.823379	-0.794158
H182	H	0.898400	0.596922	-0.737274
H183	H	1.011811	0.596927	-0.801548
H184	H	1.016828	0.740744	-0.861129
H185	H	0.908431	0.884561	-0.856437
H186	H	0.795021	0.884556	-0.792162
H187	H	0.142688	1.173285	-0.396599
C188	C	0.581754	0.740693	-0.759900
C189	C	0.579896	0.658041	-0.707187
C190	C	0.510706	0.658029	-0.744113
C191	C	0.443374	0.740669	-0.833751
C192	C	0.445230	0.823327	-0.886469
C193	C	0.514420	0.823340	-0.849543
H194	H	0.629741	0.596861	-0.640827
H195	H	0.509333	0.596839	-0.705087
H196	H	0.392156	0.740660	-0.861086
H197	H	0.395385	0.884508	-0.952829
H198	H	0.515794	0.884529	-0.888569
H199	H	1.067838	0.308174	-0.090744
C200	C	0.289859	1.034680	-0.140259
C201	C	0.198865	1.073642	-0.187504
C202	C	0.189888	1.034684	-0.230702
C203	C	0.271907	0.956763	-0.226655
C204	C	0.362908	0.917797	-0.179407
C205	C	0.371885	0.956755	-0.136210
H206	H	0.138144	1.131328	-0.190502
H207	H	0.122523	1.063529	-0.265678
H208	H	0.265262	0.927923	-0.258632
H209	H	0.423629	0.860111	-0.176410
H210	H	0.439250	0.927909	-0.101234
H211	H	1.098417	0.308119	0.468643
H212	H	1.097427	0.436634	0.051812
H213	H	0.730074	1.173326	-0.396632
H214	H	0.606373	0.740696	-0.628477
C215	C	0.908924	0.446775	-0.109685
C216	C	0.899980	0.407825	-0.152901
C217	C	0.808994	0.446780	-0.200171
C218	C	0.726952	0.524686	-0.204226
C219	C	0.735894	0.563641	-0.161009
C220	C	0.826880	0.524685	-0.113738
H221	H	0.960714	0.350150	-0.149900
H222	H	0.802375	0.417943	-0.232163
H223	H	0.659599	0.553524	-0.239219
H224	H	0.675160	0.621315	-0.164009
H225	H	0.833499	0.553522	-0.081746
H226	H	0.640666	1.237598	-0.535518
C227	C	0.647699	0.297943	0.317855
C228	C	0.702061	0.190803	0.358309
C229	C	0.656360	0.151808	0.352071
C230	C	0.556296	0.219953	0.305379
C231	C	0.501929	0.327099	0.264922
C232	C	0.547630	0.366094	0.271160
H233	H	0.776139	0.140352	0.392876
H234	H	0.696607	0.072491	0.382021
H235	H	0.522465	0.191087	0.300762
H236	H	0.427851	0.377550	0.230355
H237	H	0.507383	0.445411	0.241210
C238	C	0.543677	0.740694	-0.458317
C239	C	0.539644	0.740689	-0.532181
C240	C	0.470448	0.740683	-0.569106
C241	C	0.405286	0.740682	-0.532168
C242	C	0.409316	0.740687	-0.458301
C243	C	0.478512	0.740693	-0.421375
H244	H	0.587883	0.740690	-0.559529
H245	H	0.467465	0.740679	-0.623788
H246	H	0.354063	0.740677	-0.559503
H247	H	0.361077	0.740686	-0.430953
H248	H	0.481495	0.740697	-0.366693
C249	C	0.822249	0.446755	0.341741
C250	C	0.876449	0.407809	0.425936
C251	C	0.922163	0.446779	0.432211
C252	C	0.913677	0.524694	0.354291
C253	C	0.859474	0.563644	0.270091
C254	C	0.813760	0.524675	0.263815
H255	H	0.882734	0.350128	0.483622
H256	H	0.962288	0.417945	0.494542
H257	H	0.947517	0.553541	0.358937
H258	H	0.853190	0.621325	0.212405
H259	H	0.773636	0.553509	0.201484
H260	H	0.800300	-0.066482	0.056855
H261	H	0.824394	0.308134	0.468641
C262	C	0.567341	1.034733	-0.419008
C263	C	0.513127	1.073711	-0.503213
C264	C	0.467382	1.034779	-0.509511
C265	C	0.475850	0.956869	-0.431604
C266	C	0.530066	0.917886	-0.347393
C267	C	0.575811	0.956818	-0.341095
H268	H	0.506857	1.131389	-0.560890
H269	H	0.427247	1.063638	-0.571850
H270	H	0.441986	0.928050	-0.436266
H271	H	0.536336	0.860209	-0.289716
H272	H	0.615945	0.927960	-0.278756
H273	H	0.554423	0.156136	-0.165748
C274	C	0.811720	0.054589	0.067212
C275	C	0.866574	0.086411	0.042396
C276	C	0.938887	0.057860	0.107872
C277	C	0.956345	-0.002514	0.198163
C278	C	0.901489	-0.034340	0.222983
C279	C	0.829176	-0.005788	0.157508
H280	H	0.853652	0.131107	-0.024446
H281	H	0.979495	0.081420	0.089497
H282	H	1.009875	-0.023650	0.246631
H283	H	0.914411	-0.079035	0.289826
H284	H	0.788568	-0.029348	0.175882
C285	C	0.577898	0.426843	-0.144438
C286	C	0.560425	0.487228	-0.234732
C287	C	0.488111	0.515774	-0.300201
C288	C	0.433271	0.483933	-0.275375
C289	C	0.450743	0.423545	-0.185076
C290	C	0.523056	0.394999	-0.119607
H291	H	0.601022	0.510801	-0.253114
H292	H	0.475177	0.560478	-0.367047
H293	H	0.379740	0.505064	-0.323839
H294	H	0.410145	0.399971	-0.166694
H295	H	0.535990	0.350295	-0.052762
C296	C	0.291709	1.183474	-0.567748
C297	C	0.252509	1.173737	-0.624707
C298	C	0.254480	1.212715	-0.708920
C299	C	0.295650	1.261429	-0.736175
C300	C	0.334853	1.271169	-0.679215
C301	C	0.332882	1.232191	-0.595002
H302	H	0.222030	1.137674	-0.604532
H303	H	0.225459	1.205504	-0.751086
H304	H	0.297109	1.290283	-0.798515
H305	H	0.365332	1.307232	-0.699390
H306	H	0.361903	1.239401	-0.552836
C307	C	0.631472	0.446692	0.169062
C308	C	0.585767	0.407706	0.162820
C309	C	0.531556	0.446632	0.078635
C310	C	0.523048	0.524543	0.000694
C311	C	0.568754	0.563534	0.006934
C312	C	0.622966	0.524608	0.091118
H313	H	0.592064	0.350027	0.220519
H314	H	0.497721	0.417768	0.074016
H315	H	0.482917	0.553358	-0.061624
H316	H	0.562458	0.621213	-0.050765
H317	H	0.656801	0.553472	0.095737
H318	H	0.145952	1.237582	-0.535491
H319	H	1.217924	0.243908	-0.012809
H320	H	0.956447	0.436611	0.340140
H321	H	0.842560	0.196806	0.095161
C322	C	0.853972	0.317893	0.105525
C323	C	0.949430	0.257560	0.117463
C324	C	1.021736	0.229026	0.182929
C325	C	0.998584	0.260826	0.236458
C326	C	0.903122	0.321163	0.224521
C327	C	0.830816	0.349696	0.159055
H328	H	0.966572	0.234017	0.077837
H329	H	1.092404	0.184361	0.191765
H330	H	1.052109	0.239704	0.284920
H331	H	0.885979	0.344706	0.264148
H332	H	0.760148	0.394361	0.150219
C333	C	0.480684	1.034682	0.032439
C334	C	0.489626	1.073657	0.075630
C335	C	0.580610	1.034720	0.122882
C336	C	0.662652	0.956807	0.126944
C337	C	0.653713	0.917827	0.083752
C338	C	0.562729	0.956765	0.036500
H339	H	0.428891	1.131337	0.072624
H340	H	0.587227	1.063576	0.154856
H341	H	0.730004	0.927983	0.161923
H342	H	0.714448	0.860147	0.086758
H343	H	0.556112	0.927909	0.004526
C344	C	0.758153	1.034702	-0.246261
C345	C	0.803884	1.073656	-0.239996
C346	C	0.858115	1.034692	-0.155801
C347	C	0.866615	0.956774	-0.077871
C348	C	0.820883	0.917816	-0.084134
C349	C	0.766652	0.956780	-0.168329
H350	H	0.797592	1.131340	-0.297686
H351	H	0.891969	1.063532	-0.151165
H352	H	0.906761	0.927930	-0.015545
H353	H	0.827175	0.860132	-0.026443
H354	H	0.732798	0.927940	-0.172965
C355	C	0.195936	0.643657	-0.100208
C356	C	0.274529	0.537770	-0.056044
C357	C	0.274672	0.486010	-0.088886
C358	C	0.196222	0.540136	-0.165892
C359	C	0.117623	0.646029	-0.210060
C360	C	0.117480	0.697790	-0.177218
H361	H	0.332608	0.497697	0.000964
H362	H	0.332856	0.407621	-0.056190
H363	H	0.196328	0.501820	-0.190204
H364	H	0.059544	0.686102	-0.267069
H365	H	0.059295	0.776179	-0.209915
H366	H	0.565244	1.173356	-0.545889
H367	H	0.433164	1.044832	-0.417369
C368	C	1.105490	0.446791	0.169003
C369	C	1.193557	0.407851	0.162730
C370	C	1.195566	0.446817	0.078532
C371	C	1.109508	0.524722	0.000607
C372	C	1.021434	0.563667	0.006878
C373	C	1.019426	0.524702	0.091076
H374	H	1.257268	0.350177	0.220417
H375	H	1.260764	0.417987	0.073891
H376	H	1.110995	0.553567	-0.061721
H377	H	0.957723	0.621342	-0.050809
H378	H	0.954228	0.553532	0.095717
H379	H	1.246921	0.308186	0.319368
H380	H	0.334105	0.573471	0.049421
C381	C	0.193603	0.837710	0.023152
C382	C	0.265077	0.847223	0.029273
C383	C	0.264857	0.898927	0.062213
C384	C	0.193162	0.941118	0.089031
C385	C	0.121682	0.931606	0.082910
C386	C	0.121903	0.879902	0.049971
H387	H	0.318155	0.815990	0.009420
H388	H	0.317771	0.905968	0.066744
H389	H	0.192999	0.979392	0.113415
H390	H	0.068605	0.962839	0.102763
H391	H	0.068989	0.872861	0.045440
H392	H	0.321769	1.173294	0.013487
H393	H	1.243656	0.243903	0.458259
H394	H	0.789879	0.740746	-0.326929
H395	H	0.547065	0.284631	-0.172408
H396	H	0.171682	1.237570	-0.064458
H397	H	0.783240	0.740731	-0.448748
H398	H	0.568296	0.740696	-0.326896
