data_functionalizedCrystal
_audit_creation_method	'MofGen! by Chris Wilmer'
_symmetry_space_group_name_H-M	'P1'
_symmetry_Int_Tables_number	1
_symmetry_cell_setting	triclinic
loop_
_symmetry_equiv_pos_as_xyz
  x,y,z
_cell_length_a	10.654550
_cell_length_b	9.730223
_cell_length_c	10.654550
_cell_angle_alpha	90.004253
_cell_angle_beta	84.484931
_cell_angle_gamma	90.000043
loop_
_atom_site_label
_atom_site_type_symbol
_atom_site_fract_x
_atom_site_fract_y
_atom_site_fract_z
O1	O	-1.667839	-0.114187	-0.176399
O2	O	-1.302361	-0.114212	-0.193205
O3	O	-1.493503	-0.114190	-0.002062
O4	O	-1.476697	-0.114209	-0.367541
O5	O	-1.493490	0.114390	-0.002057
O6	O	-1.302348	0.114368	-0.193199
O7	O	-1.667827	0.114393	-0.176393
Zn8	Zn	-1.485085	0.150672	-0.184796
Zn9	Zn	-1.485102	-0.150492	-0.184802
O10	O	-1.476684	0.114371	-0.367536
C11	C	-1.255556	0.000075	-0.191968
C12	C	-1.116113	0.000065	-0.188276
C13	C	-1.492263	0.000099	0.044738
C14	C	-1.488571	0.000096	0.184181
C15	C	-1.714631	0.000103	-0.177630
C16	C	-1.854074	0.000104	-0.181322
N17	N	-1.485083	0.356209	-0.184790
C18	C	-1.036628	0.000064	-0.300818
C19	C	-0.905607	0.000088	-0.297341
C20	C	-0.933570	0.000109	-0.068772
C21	C	-1.064588	0.000095	-0.072250
N22	N	-1.485114	-0.356028	-0.184798
C23	C	-1.569750	0.428144	-0.100188
C24	C	-1.569763	0.572027	-0.100189
C25	C	-1.400438	0.572026	-0.269404
C26	C	-1.400420	0.428146	-0.269396
C27	C	-1.477925	0.000079	-0.414336
C28	C	-1.481617	0.000072	-0.553779
C29	C	-1.601112	0.000104	0.263667
C30	C	-1.597636	0.000087	0.394688
C31	C	-1.369066	0.000061	0.366725
C32	C	-1.372544	0.000068	0.235706
H33	H	-0.840894	0.000089	-0.388984
C34	C	-1.662894	0.651157	-0.007129
H35	H	-1.650773	0.747151	-0.019237
H36	H	-1.746825	0.627567	-0.021548
H37	H	-1.648520	0.627586	0.076823
C38	C	-1.248746	0.000053	0.148261
H39	H	-1.267437	0.000044	0.062853
H40	H	-1.201204	0.079754	0.163988
H41	H	-1.201234	-0.079678	0.163983
C42	C	-1.307327	0.651162	-0.362474
H43	H	-1.319472	0.747155	-0.350373
H44	H	-1.223390	0.627601	-0.348058
H45	H	-1.321699	0.627562	-0.446424
C46	C	-1.307293	0.349005	-0.362469
H47	H	-1.319404	0.253013	-0.350338
H48	H	-1.321661	0.372569	-0.446418
H49	H	-1.223355	0.372594	-0.348048
C50	C	-1.093302	0.000045	-0.428441
H51	H	-1.027193	0.000060	-0.494967
H52	H	-1.143824	-0.079671	-0.434553
H53	H	-1.143836	0.079761	-0.434546
C54	C	-1.662864	0.349018	-0.007115
H55	H	-1.713281	0.412472	0.043278
H56	H	-1.715528	0.292872	-0.052772
H57	H	-1.617219	0.292909	0.045594
C58	C	-1.728735	0.000119	0.206993
H59	H	-1.795262	0.000109	0.273101
H60	H	-1.734842	0.079832	0.156471
H61	H	-1.734846	-0.079600	0.156458
H62	H	-0.891602	0.000142	0.025693
H63	H	-1.274601	0.000041	0.408693
C64	C	-1.152028	0.000091	0.051552
H65	H	-1.102579	0.000090	0.121151
H66	H	-1.203728	0.079795	0.054946
H67	H	-1.203710	-0.079636	0.054941
C68	C	-1.721432	0.000103	0.482117
H69	H	-1.791026	0.000131	0.432661
H70	H	-1.724840	-0.079610	0.533800
H71	H	-1.724814	0.079822	0.533815
