data_functionalizedCrystal
_audit_creation_method	'MofGen! by Chris Wilmer'
_symmetry_space_group_name_H-M	'P1'
_symmetry_Int_Tables_number	1
_symmetry_cell_setting	triclinic
loop_
_symmetry_equiv_pos_as_xyz
  x,y,z
_cell_length_a	27.731993
_cell_length_b	16.992695
_cell_length_c	15.455313
_cell_angle_alpha	92.853997
_cell_angle_beta	87.353086
_cell_angle_gamma	86.644306
loop_
_atom_site_label
_atom_site_type_symbol
_atom_site_fract_x
_atom_site_fract_y
_atom_site_fract_z
O1	O	0.646946	0.089606	-0.071885
O2	O	0.506765	0.103827	-0.071936
O3	O	0.576294	-0.017419	-0.071918
O4	O	0.577417	0.210853	-0.071903
O5	O	0.572317	-0.010514	0.072343
O6	O	0.502788	0.110733	0.072325
O7	O	0.642969	0.096511	0.072376
Cu8	Cu	0.572515	0.104252	0.085523
Cu9	Cu	0.577219	0.096086	-0.085083
O10	O	0.573440	0.217758	0.072358
C11	C	0.486757	0.106988	0.000188
C12	C	0.433063	0.106108	0.000167
C13	C	0.051794	0.095973	-0.078428
C14	C	0.253597	0.099323	-0.078451
O15	O	0.281531	0.096524	-0.145330
N16	N	0.276668	0.103506	0.000184
C17	C	0.249284	0.106847	0.078830
O18	O	0.273538	0.110474	0.145714
C19	C	0.047483	0.103491	0.078853
C20	C	0.024415	0.099316	0.000213
C21	C	0.028726	0.091797	-0.157061
C22	C	-0.021722	0.090964	-0.157055
C23	C	-0.049102	0.094307	-0.078414
C24	C	-0.026033	0.098483	0.000219
C25	C	0.020101	0.106826	0.157498
C26	C	-0.030353	0.105985	0.157497
C27	C	-0.053421	0.101809	0.078857
C28	C	-0.103861	0.100992	0.078866
N29	N	-0.126931	0.096809	0.000231
C30	C	-0.099552	0.093466	-0.078409
C31	C	0.355233	0.108610	0.078813
C32	C	0.405683	0.109450	0.078808
C33	C	0.409993	0.101925	-0.078474
C34	C	0.359541	0.101090	-0.078468
C35	C	0.332163	0.104427	0.000178
C36	C	-0.205496	0.091717	-0.078389
C37	C	-0.255949	0.090888	-0.078376
C38	C	-0.260254	0.098409	0.078905
C39	C	-0.209806	0.099243	0.078892
C40	C	-0.182428	0.095894	0.000238
O41	O	-0.131825	0.103781	0.145710
O42	O	-0.123814	0.089822	-0.145282
C43	C	0.102242	0.096806	-0.078434
C44	C	0.125310	0.100982	0.000199
C45	C	0.097931	0.104325	0.078840
C46	C	0.175760	0.101822	0.000194
C47	C	0.203140	0.098480	-0.078446
C48	C	0.180070	0.094296	-0.157081
C49	C	0.129622	0.093463	-0.157075
C50	C	0.121001	0.108508	0.157475
C51	C	0.171449	0.109342	0.157462
C52	C	0.198829	0.105999	0.078821
C53	C	0.572860	-0.043161	0.000208
C54	C	0.568546	-0.130153	0.000195
C55	C	0.662977	0.093351	0.000250
C56	C	0.716671	0.094231	0.000265
C57	C	0.576875	0.243500	0.000230
C58	C	0.581188	0.330491	0.000237
N59	N	0.569211	0.109995	0.205517
C60	C	0.539565	0.381248	0.000222
C61	C	0.543622	0.462984	0.000212
C62	C	0.589302	0.493961	0.000225
C63	C	0.630928	0.443197	0.000238
C64	C	0.626872	0.361463	0.000241
C65	C	0.606116	0.737349	0.000211
C66	C	0.610169	0.819090	0.000210
C67	C	0.522862	0.838871	0.000183
C68	C	0.518809	0.757135	0.000192
C69	C	0.560436	0.706378	0.000200
N70	N	0.593449	0.577508	0.000218
N71	N	0.556288	0.622832	0.000201
N72	N	0.580527	0.090337	-0.205078
C73	C	0.598761	0.058504	0.250919
C74	C	0.596266	0.062855	0.341726
C75	C	0.564224	0.118701	0.387130
C76	C	0.534671	0.170194	0.341722
C77	C	0.537163	0.165839	0.250916
C78	C	0.553466	0.137476	0.658709
C79	C	0.550977	0.141828	0.749521
C80	C	0.612572	0.034487	0.749519
C81	C	0.615063	0.030141	0.658711
C82	C	0.585509	0.081631	0.613311
N83	N	0.561675	0.123150	0.479950
N84	N	0.588056	0.077177	0.520493
H85	H	-0.040499	0.087560	-0.221092
H86	H	0.110844	0.090063	-0.221112
Br87	Br	-0.067506	0.110506	0.264237
H88	H	-0.191023	0.102658	0.142928
H89	H	0.332946	0.111325	0.142860
H90	H	-0.282555	0.101134	0.142932
Br91	Br	0.436983	0.115137	0.185538
Br92	Br	0.692924	0.485236	0.000244
Br93	Br	0.051394	0.112495	0.264231
H94	H	0.508579	0.215662	0.378695
Br95	Br	0.507489	0.217629	0.811135
Br96	Br	0.662609	0.668475	0.000229
Br97	Br	0.497055	0.235718	0.189300
Br98	Br	0.466372	0.907758	0.000168
H99	H	0.481612	0.731919	0.000172
H100	H	0.202371	0.091579	-0.221113
H101	H	0.647370	0.844308	0.000221
Br102	Br	0.652679	-0.035391	0.811136
H103	H	0.502367	0.356034	0.000222
H104	H	0.509727	0.504308	0.000197
Br105	Br	0.642253	-0.017285	0.189309
H106	H	0.098714	0.111226	0.221515
H107	H	0.190227	0.112749	0.221505
Br108	Br	0.683363	0.292576	0.000253
Br109	Br	0.636369	-0.007030	0.403346
H110	H	0.641155	-0.015333	0.621745
H111	H	-0.274729	0.087490	-0.142417
Br112	Br	-0.168349	0.087172	-0.185135
H113	H	0.051013	0.089072	-0.221103
H114	H	0.529402	0.179403	0.621751
H115	H	0.340763	0.097690	-0.142503
H116	H	0.432294	0.099206	-0.142506
