data_functionalizedCrystal
_audit_creation_method	'MofGen! by Chris Wilmer'
_symmetry_space_group_name_H-M	'P1'
_symmetry_Int_Tables_number	1
_symmetry_cell_setting	triclinic
loop_
_symmetry_equiv_pos_as_xyz
  x,y,z
_cell_length_a	21.395362
_cell_length_b	10.686285
_cell_length_c	21.395355
_cell_angle_alpha	94.380557
_cell_angle_beta	90.043940
_cell_angle_gamma	85.645931
loop_
_atom_site_label
_atom_site_type_symbol
_atom_site_fract_x
_atom_site_fract_y
_atom_site_fract_z
Zn1	Zn	0.977081	-0.501939	0.335532
Zn2	Zn	0.985062	-0.712908	0.222746
Zn3	Zn	0.872298	-0.501998	0.230731
Zn4	Zn	0.880345	-0.712934	0.327450
O5	O	0.928696	-0.607445	0.279115
O6	O	1.065816	-0.529889	0.320611
O7	O	0.970076	-0.684945	0.136127
O8	O	0.879490	-0.325422	0.251357
O9	O	1.071680	-0.684888	0.237748
O10	O	0.956473	-0.325378	0.328354
O11	O	0.887229	-0.529990	0.141993
O12	O	0.785689	-0.530015	0.243520
O13	O	0.893204	-0.684932	0.416201
O14	O	0.791601	-0.684989	0.314579
O15	O	0.964276	-0.529915	0.422138
O16	O	0.977879	-0.889481	0.229911
O17	O	0.900944	-0.889500	0.306837
C18	C	0.765911	-0.607512	0.279040
C19	C	0.696272	-0.607571	0.279021
C20	C	0.941168	-0.935273	0.266644
C21	C	0.946560	-1.075519	0.261330
C22	C	0.666658	-0.688373	0.315957
C23	C	0.601221	-0.688342	0.315987
C24	C	0.565402	-0.607522	0.279068
C25	C	0.595024	-0.526705	0.242129
C26	C	0.660459	-0.526729	0.242106
C27	C	0.461288	-0.597357	0.223048
C28	C	0.395855	-0.597342	0.223070
C29	C	0.363578	-0.607440	0.279140
C30	C	0.396745	-0.617580	0.335189
C31	C	0.462180	-0.617604	0.335165
C32	C	0.494448	-0.607486	0.279089
C33	C	0.263010	-0.688213	0.316111
C34	C	0.197572	-0.688173	0.316141
C35	C	0.191376	-0.526542	0.242278
C36	C	0.256813	-0.526575	0.242254
C37	C	0.292626	-0.607417	0.279169
C38	C	1.092117	-0.607379	0.279191
C39	C	1.161757	-0.607351	0.279223
C40	C	0.928747	-0.607420	0.442539
C41	C	0.928769	-0.607409	0.512181
C42	C	0.916194	-0.278338	0.291648
C43	C	0.910866	-0.138091	0.296989
C44	C	0.928678	-0.607380	0.116330
C45	C	0.928764	-0.607035	0.046702
C46	C	0.965774	-0.526688	0.547987
C47	C	0.965771	-0.526634	0.613424
C48	C	0.928771	-0.607323	0.643053
C49	C	0.891758	-0.688049	0.607238
C50	C	0.891757	-0.688092	0.541802
C51	C	0.928146	-0.720937	0.742404
C52	C	0.928151	-0.720896	0.807838
C53	C	0.928770	-0.607189	0.844878
C54	C	0.929396	-0.493520	0.816476
C55	C	0.929395	-0.493563	0.751040
C56	C	0.928767	-0.607284	0.714006
C57	C	0.965773	-0.526403	0.951640
C58	C	0.965766	-0.526347	1.017078
C59	C	0.891756	-0.687773	1.010891
C60	C	0.891760	-0.687818	0.945453
C61	C	0.928772	-0.607135	0.915832
H62	H	0.577105	-0.754140	0.346067
H63	H	0.487562	-0.589129	0.177387
C64	C	0.864722	-1.066401	0.343203
C65	C	0.897304	-0.990656	0.386255
C66	C	0.854818	-0.924601	0.428842
H67	H	0.835468	-1.014966	0.321202
H68	H	0.843060	-1.124419	0.364901
H69	H	0.918955	-0.932645	0.364560
H70	H	0.926555	-1.042060	0.408271
H71	H	0.833156	-0.982619	0.450539
H72	H	0.825566	-0.873173	0.406836
H73	H	0.876919	-0.873209	0.458061
H74	H	0.981242	-1.129246	0.226729
H75	H	0.995911	-0.460987	0.523873
C76	C	1.006020	-0.438946	0.652199
C77	C	1.038443	-0.368318	0.612251
C78	C	1.075532	-0.287542	0.647944
H79	H	0.980033	-0.383849	0.679803
H80	H	1.035183	-0.487169	0.675899
H81	H	1.009284	-0.320099	0.588561
H82	H	1.064441	-0.423383	0.584647
H83	H	1.104695	-0.335765	0.671645
H84	H	1.049541	-0.232453	0.675547
H85	H	1.097540	-0.239620	0.620845
H86	H	0.368856	-0.589093	0.177431
H87	H	0.995907	-0.460699	0.927521
H88	H	0.995899	-0.460607	1.046231
H89	H	0.927645	-0.813452	0.830958
C90	C	0.929938	-0.370098	0.720239
C91	C	0.876669	-0.292150	0.739066
C92	C	0.877140	-0.178409	0.710698
H93	H	0.966505	-0.329564	0.732499
H94	H	0.929814	-0.386354	0.675960
H95	H	0.876798	-0.275892	0.783335
H96	H	0.840094	-0.332644	0.726806
H97	H	0.877016	-0.194665	0.666419
H98	H	0.913709	-0.137888	0.722961
H99	H	0.840995	-0.125512	0.723464
C100	C	0.851656	-0.775345	1.043164
C101	C	0.859589	-0.758057	1.108134
C102	C	0.822665	-0.838722	1.137887
H103	H	0.808833	-0.756996	1.033184
H104	H	0.864060	-0.860149	1.029262
H105	H	0.847182	-0.673272	1.122031
H106	H	0.902404	-0.776415	1.118132
H107	H	0.835069	-0.923526	1.123984
H108	H	0.779845	-0.820366	1.127902
H109	H	0.828047	-0.827012	1.181971
H110	H	0.370467	-0.625800	0.380846
C111	C	0.556222	-0.439031	0.201938
C112	C	0.573117	-0.466306	0.138883
C113	C	0.537394	-0.385549	0.101842
H114	H	0.512996	-0.450508	0.207156
H115	H	0.563764	-0.354263	0.214361
H116	H	0.565570	-0.551054	0.126464
H117	H	0.616337	-0.454822	0.133645
H118	H	0.544937	-0.300781	0.114265
H119	H	0.494170	-0.397032	0.107066
H120	H	0.548857	-0.404036	0.059056
H121	H	0.861631	-0.753558	0.916299
C122	C	0.301787	-0.776013	0.356263
C123	C	0.261841	-0.846737	0.388637
C124	C	0.297537	-0.927617	0.425638
H125	H	0.329368	-0.831045	0.330220
H126	H	0.325511	-0.727860	0.385456
H127	H	0.238128	-0.894886	0.359447
H128	H	0.234260	-0.791739	0.414691
H129	H	0.321261	-0.879465	0.454831
H130	H	0.325117	-0.982641	0.399590
H131	H	0.270439	-0.975605	0.447612
H132	H	0.929901	-0.400930	0.846633
H133	H	0.489181	-0.625857	0.380802
C134	C	0.927322	-0.844434	0.702243
C135	C	0.873299	-0.903575	0.715893
C136	C	0.872497	-1.017326	0.678905
H137	H	0.927360	-0.828293	0.659196
H138	H	0.963386	-0.897633	0.710950
H139	H	0.837244	-0.850387	0.707181
H140	H	0.873249	-0.919747	0.758933
H141	H	0.908561	-1.070525	0.687611
H142	H	0.872537	-1.001173	0.635860
H143	H	0.835846	-1.057473	0.688165
H144	H	0.861630	-0.753743	0.631366
H145	H	0.695813	-0.754199	0.346018
H146	H	0.173462	-0.753969	0.346223
H147	H	0.162212	-0.460731	0.212221
H148	H	0.280925	-0.460784	0.212173
C149	C	0.692703	-0.439208	0.201953
C150	C	0.732930	-0.510551	0.159019
C151	C	0.762652	-0.429972	0.122024
H152	H	0.662072	-0.391036	0.179911
H153	H	0.716221	-0.384336	0.228026
H154	H	0.709414	-0.565402	0.132949
H155	H	0.763572	-0.558720	0.181044
H156	H	0.786169	-0.375099	0.148098
H157	H	0.732016	-0.381804	0.099987
H158	H	0.789953	-0.478365	0.092894
H159	H	0.861620	-0.753823	0.512649
