data_functionalizedCrystal
_audit_creation_method	'MofGen! by Chris Wilmer'
_symmetry_space_group_name_H-M	'P1'
_symmetry_Int_Tables_number	1
_symmetry_cell_setting	triclinic
loop_
_symmetry_equiv_pos_as_xyz
  x,y,z
_cell_length_a	10.654562
_cell_length_b	11.792254
_cell_length_c	9.730223
_cell_angle_alpha	89.998472
_cell_angle_beta	89.996961
_cell_angle_gamma	84.344351
loop_
_atom_site_label
_atom_site_type_symbol
_atom_site_fract_x
_atom_site_fract_y
_atom_site_fract_z
O1	O	1.667382	0.159483	-0.114381
O2	O	1.301863	0.174656	-0.114364
O3	O	1.493484	0.001921	-0.114363
O4	O	1.475760	0.332218	-0.114382
O5	O	1.493482	0.001925	0.114217
O6	O	1.301861	0.174660	0.114216
O7	O	1.667379	0.159487	0.114199
Zn8	Zn	1.484620	0.167074	0.150499
Zn9	Zn	1.484623	0.167069	-0.150665
O10	O	1.475758	0.332222	0.114198
C11	C	1.255067	0.173541	-0.000072
C12	C	1.115634	0.170199	-0.000065
C13	C	1.050107	0.168642	0.124523
C14	C	0.919093	0.165511	0.124500
C15	C	0.919146	0.165498	-0.124710
C16	C	1.050158	0.168621	-0.124686
C17	C	1.115583	0.170220	0.249144
C18	C	1.050055	0.168665	0.373742
C19	C	0.919041	0.165534	0.373720
C20	C	0.853556	0.163957	0.249098
C21	C	1.492367	-0.040371	-0.000074
C22	C	1.489025	-0.166391	-0.000075
C23	C	1.486310	-0.268734	-0.000080
C24	C	1.482914	-0.397129	-0.000092
C25	C	1.714175	0.160602	-0.000096
C26	C	1.853608	0.163944	-0.000112
C27	C	1.476876	0.374514	-0.000095
C28	C	1.480218	0.500534	-0.000102
N29	N	1.484627	0.167078	0.356036
N30	N	1.484625	0.167056	-0.356201
C31	C	1.569499	0.090617	0.427962
C32	C	1.569495	0.090603	0.571845
C33	C	1.399745	0.243521	0.571863
C34	C	1.399743	0.243529	0.427982
C35	C	1.654383	0.014166	0.356016
C36	C	1.739262	-0.062301	0.427942
C37	C	1.739259	-0.062315	0.571825
C38	C	1.654376	0.014138	0.643782
H39	H	0.746876	0.161405	0.249090
H40	H	1.222260	0.172774	0.249176
C41	C	1.831468	-0.145433	0.350074
C42	C	1.905770	-0.212420	0.443865
C43	C	1.990713	-0.289026	0.372187
H44	H	1.884141	-0.104287	0.293944
H45	H	1.786006	-0.193122	0.293972
H46	H	1.951229	-0.164737	0.499944
H47	H	1.853131	-0.253591	0.499998
H48	H	1.945250	-0.336716	0.316085
H49	H	2.043377	-0.247871	0.316060
H50	H	2.041129	-0.334493	0.435813
C51	C	0.847948	0.164033	-0.259962
C52	C	0.759318	0.259735	-0.267270
C53	C	0.693721	0.258437	-0.391853
H54	H	0.805837	0.096820	-0.265281
H55	H	0.905690	0.165468	-0.334203
H56	H	0.701585	0.258289	-0.193049
H57	H	0.801396	0.326963	-0.261975
H58	H	0.751462	0.259872	-0.466094
H59	H	0.651617	0.191220	-0.397161
H60	H	0.633586	0.323374	-0.396833
C61	C	1.307538	0.326346	0.650161
C62	C	1.230279	0.265229	0.732795
C63	C	1.145336	0.341493	0.804955
H64	H	1.256865	0.371919	0.586876
H65	H	1.353005	0.373956	0.706366
H66	H	1.184815	0.217639	0.676595
H67	H	1.280916	0.219660	0.796105
H68	H	1.190803	0.389102	0.861160
H69	H	1.094673	0.387061	0.741661
H70	H	1.092914	0.300036	0.861040
C71	C	1.654239	0.014398	0.199801
C72	C	1.561764	0.097744	0.152208
C73	C	1.561609	0.098007	0.008312
H74	H	1.636521	-0.058220	0.167063
H75	H	1.734584	0.030680	0.167210
H76	H	1.481436	0.081454	0.184784
H77	H	1.579461	0.170374	0.184907
H78	H	1.641955	0.114290	-0.024278
H79	H	1.543894	0.025385	-0.024411
H80	H	1.498875	0.154563	-0.023998
H81	H	1.654372	0.014113	0.760941
H82	H	1.103511	0.169894	-0.226137
H83	H	1.808363	-0.124584	0.630386
C84	C	1.307547	0.326674	0.350128
C85	C	1.233240	0.393653	0.443928
C86	C	1.148303	0.470267	0.372259
H87	H	1.254877	0.285534	0.293996
H88	H	1.353014	0.374369	0.294029
H89	H	1.187777	0.345965	0.500003
H90	H	1.285876	0.434817	0.500063
H91	H	1.193770	0.517962	0.316160
H92	H	1.095642	0.429118	0.316129
H93	H	1.097884	0.515729	0.435890
H94	H	1.103383	0.169940	0.475204
H95	H	0.865693	0.164258	0.475173
