data_functionalizedCrystal
_audit_creation_method	'MofGen! by Chris Wilmer'
_symmetry_space_group_name_H-M	'P1'
_symmetry_Int_Tables_number	1
_symmetry_cell_setting	triclinic
loop_
_symmetry_equiv_pos_as_xyz
  x,y,z
_cell_length_a	12.759401
_cell_length_b	16.625545
_cell_length_c	12.759393
_cell_angle_alpha	90.032830
_cell_angle_beta	90.020938
_cell_angle_gamma	90.027083
loop_
_atom_site_label
_atom_site_type_symbol
_atom_site_fract_x
_atom_site_fract_y
_atom_site_fract_z
Zn1	Zn	1.606187	-0.320930	0.594003
Zn2	Zn	1.606045	-0.455784	0.418316
Zn3	Zn	1.430486	-0.320973	0.418338
Zn4	Zn	1.430444	-0.455728	0.593953
O5	O	1.518291	-0.388354	0.506153
O6	O	1.753189	-0.338824	0.570709
O7	O	1.582714	-0.437943	0.271298
O8	O	1.453870	-0.208135	0.441671
O9	O	1.753085	-0.437901	0.441633
O10	O	1.582957	-0.208103	0.570731
O11	O	1.453732	-0.338897	0.271314
O12	O	1.283459	-0.338843	0.441622
O13	O	1.453799	-0.437805	0.740981
O14	O	1.283429	-0.437847	0.570646
O15	O	1.582917	-0.338770	0.741018
O16	O	1.582674	-0.568609	0.441585
O17	O	1.453661	-0.568568	0.570624
C18	C	1.245323	-0.388344	0.506132
C19	C	1.128547	-0.388359	0.506148
C20	C	1.073696	-0.439989	0.573225
C21	C	0.963972	-0.439992	0.573245
C22	C	0.963958	-0.336733	0.439104
C23	C	1.073680	-0.336727	0.439089
C24	C	1.518176	-0.597844	0.506120
C25	C	1.518224	-0.687466	0.506141
C26	C	1.518265	-0.760248	0.506161
C27	C	1.518326	-0.851556	0.506185
C28	C	1.518380	-0.924333	0.506198
C29	C	1.518440	-1.015647	0.506219
C30	C	1.792324	-0.388364	0.506174
C31	C	1.909100	-0.388369	0.506183
C32	C	1.518369	-0.388276	0.780186
C33	C	1.518403	-0.388243	0.896963
C34	C	1.518434	-0.178045	0.506209
C35	C	1.518495	-0.088424	0.506233
C36	C	1.518273	-0.388373	0.233185
C37	C	1.518443	-0.388178	0.116409
C38	C	1.585639	-0.336667	0.951846
C39	C	1.585657	-0.336632	1.061570
C40	C	1.451199	-0.439757	1.061519
C41	C	1.451177	-0.439787	0.951797
H42	H	1.118341	-0.294678	0.384467
O43	O	1.650966	-0.286519	0.898742
C44	C	1.710331	-0.241003	0.970717
H45	H	1.667314	-0.238189	1.048924
H46	H	1.790106	-0.270529	0.982392
C47	C	1.778356	-0.158655	0.831869
C48	C	1.725518	-0.155194	0.927921
H49	H	1.787729	-0.105724	0.805470
H50	H	1.738365	-0.189321	0.783376
H51	H	1.844830	-0.183263	0.841611
H52	H	1.659041	-0.130595	0.918176
H53	H	1.765499	-0.124521	0.976411
O54	O	1.386007	-0.489932	0.898361
C55	C	1.445775	-0.542041	0.834906
H56	H	1.525412	-0.513612	0.818494
H57	H	1.457281	-0.601785	0.877172
C58	C	1.290129	-0.591576	0.750820
C59	C	1.387938	-0.556657	0.730656
H60	H	1.254452	-0.600596	0.686516
H61	H	1.249861	-0.556472	0.793573
H62	H	1.299732	-0.641359	0.786045
H63	H	1.378334	-0.506870	0.695444
H64	H	1.428203	-0.591753	0.687895
O65	O	1.650820	-0.286444	1.114926
C66	C	1.591055	-0.234354	1.178411
H67	H	1.508305	-0.229382	1.145332
H68	H	1.587435	-0.259254	1.261563
C69	C	1.744075	-0.156641	1.220744
C70	C	1.642442	-0.150529	1.180111
H71	H	1.775775	-0.104935	1.221798
H72	H	1.784342	-0.191737	1.177977
H73	H	1.741045	-0.177394	1.290034
H74	H	1.645475	-0.129786	1.110818
H75	H	1.602177	-0.115428	1.222867
O76	O	1.385756	-0.489743	1.114738
C77	C	1.281051	-0.472138	1.087897
H78	H	1.275783	-0.407731	1.057755
H79	H	1.253546	-0.515381	1.024189
C80	C	1.217418	-0.560602	1.222372
C81	C	1.210947	-0.481493	1.185360
H82	H	1.174172	-0.566375	1.282490
H83	H	1.287959	-0.572465	1.240454
H84	H	1.194499	-0.596629	1.169273
H85	H	1.233878	-0.445469	1.238454
H86	H	1.140407	-0.469623	1.167290
O87	O	0.910807	-0.490108	0.638547
C88	C	0.937665	-0.472572	0.743297
H89	H	1.017349	-0.441574	0.745534
H90	H	0.875954	-0.431155	0.778794
C91	C	0.844860	-0.589310	0.804003
C92	C	0.942733	-0.551244	0.806750
H93	H	0.847982	-0.637837	0.843146
H94	H	0.826761	-0.601123	0.733431
H95	H	0.793444	-0.554787	0.833581
H96	H	0.994144	-0.585762	0.777161
H97	H	0.960841	-0.539438	0.877319
H98	H	1.118365	-0.482029	0.627831
H99	H	0.919273	-0.294697	0.384505
