data_functionalizedCrystal
_audit_creation_method	'MofGen! by Chris Wilmer'
_symmetry_space_group_name_H-M	'P1'
_symmetry_Int_Tables_number	1
_symmetry_cell_setting	triclinic
loop_
_symmetry_equiv_pos_as_xyz
  x,y,z
_cell_length_a	18.215407
_cell_length_b	19.076808
_cell_length_c	18.215399
_cell_angle_alpha	87.671678
_cell_angle_beta	89.982632
_cell_angle_gamma	92.320961
loop_
_atom_site_label
_atom_site_type_symbol
_atom_site_fract_x
_atom_site_fract_y
_atom_site_fract_z
Zn1	Zn	1.113296	-0.280271	-0.404282
Zn2	Zn	1.446629	0.053062	-0.070949
Zn3	Zn	1.779962	0.386395	0.262385
Zn4	Zn	1.108258	-0.397979	-0.276266
Zn5	Zn	1.441591	-0.064646	0.057067
Zn6	Zn	1.774925	0.268687	0.390400
Zn7	Zn	0.990227	-0.280288	-0.281234
Zn8	Zn	1.323561	0.053045	0.052099
Zn9	Zn	1.656894	0.386378	0.385433
Zn10	Zn	0.985250	-0.397934	-0.399298
Zn11	Zn	1.318583	-0.064601	-0.065965
Zn12	Zn	1.651917	0.268733	0.267368
O13	O	1.049258	-0.339118	-0.340270
O14	O	1.382591	-0.005785	-0.006937
O15	O	1.715924	0.327548	0.326396
O16	O	1.215611	-0.295898	-0.387307
O17	O	1.548944	0.037436	-0.053974
O18	O	1.882278	0.370769	0.279359
O19	O	1.092576	-0.382393	-0.173940
O20	O	1.425909	-0.049060	0.159393
O21	O	1.759243	0.284273	0.492727
O22	O	1.010744	-0.181790	-0.301721
O23	O	1.344077	0.151544	0.031612
O24	O	1.677411	0.484877	0.364945
O25	O	1.211910	-0.382377	-0.293255
O26	O	1.545243	-0.049044	0.040079
O27	O	1.878577	0.284290	0.373412
O28	O	1.101161	-0.181777	-0.392124
O29	O	1.434495	0.151556	-0.058791
O30	O	1.767828	0.484889	0.274542
O31	O	1.005859	-0.295926	-0.177590
O32	O	1.339193	0.037407	0.155744
O33	O	1.672526	0.370740	0.489077
O34	O	0.886583	-0.295882	-0.296889
O35	O	1.219917	0.037451	0.036444
O36	O	1.553250	0.370784	0.369778
O37	O	1.002261	-0.382300	-0.502945
O38	O	1.335594	-0.048966	-0.169612
O39	O	1.668927	0.284367	0.163722
O40	O	0.882927	-0.382316	-0.383630
O41	O	1.216260	-0.048983	-0.050297
O42	O	1.549593	0.284351	0.283036
O43	O	1.096335	-0.295854	-0.506606
O44	O	1.429669	0.037480	-0.173273
O45	O	1.763002	0.370813	0.160060
O46	O	1.087750	-0.496470	-0.288422
O47	O	1.421083	-0.163136	0.044911
O48	O	1.754416	0.170197	0.378245
O49	O	0.997376	-0.496436	-0.378813
O50	O	1.330709	-0.163103	-0.045480
O51	O	1.664043	0.170230	0.287854
C52	C	0.858052	-0.339097	-0.340258
C53	C	1.191386	-0.005763	-0.006925
C54	C	1.524719	0.327570	0.326408
C55	C	0.776253	-0.339104	-0.340270
C56	C	1.109587	-0.005771	-0.006937
C57	C	1.442920	0.327562	0.326397
C58	C	0.589981	-0.294167	-0.389314
C59	C	0.923315	0.039166	-0.055980
C60	C	1.256648	0.372499	0.277353
C61	C	0.513122	-0.294173	-0.389316
C62	C	0.846456	0.039160	-0.055982
C63	C	1.179789	0.372493	0.277351
C64	C	0.509285	-0.384089	-0.291239
C65	C	0.842619	-0.050756	0.042094
C66	C	1.175952	0.282578	0.375428
C67	C	0.586143	-0.384079	-0.291234
C68	C	0.919476	-0.050746	0.042100
C69	C	1.252810	0.282588	0.375433
C70	C	0.626489	-0.339119	-0.340275
C71	C	0.959822	-0.005786	-0.006942
C72	C	1.293156	0.327548	0.326391
C73	C	0.472772	-0.339135	-0.340283
C74	C	0.806106	-0.005802	-0.006949
C75	C	1.139439	0.327531	0.326384
C76	C	0.389438	-0.339142	-0.340285
C77	C	0.722772	-0.005809	-0.006951
C78	C	1.056105	0.327525	0.326382
C79	C	0.709828	-0.339111	-0.340272
C80	C	1.043162	-0.005778	-0.006939
C81	C	1.376495	0.327556	0.326394
C82	C	1.041496	-0.521992	-0.332554
C83	C	1.374829	-0.188659	0.000780
C84	C	1.708163	0.144675	0.334113
C85	C	1.038243	-0.600226	-0.329277
C86	C	1.371576	-0.266893	0.004056
C87	C	1.704910	0.066441	0.337389
C88	C	1.083755	-0.636914	-0.374844
C89	C	1.417088	-0.303580	-0.041511
C90	C	1.750422	0.029753	0.291823
C91	C	1.080695	-0.710423	-0.371767
C92	C	1.414029	-0.377090	-0.038433
C93	C	1.747362	-0.043756	0.294900
C94	C	1.032127	-0.747243	-0.323118
C95	C	1.365460	-0.413910	0.010215
C96	C	1.698794	-0.080577	0.343548
C97	C	0.986610	-0.710551	-0.277550
C98	C	1.319943	-0.377217	0.055784
C99	C	1.653277	-0.043884	0.389117
C100	C	0.989666	-0.637043	-0.280631
C101	C	1.323000	-0.303709	0.052702
C102	C	1.656333	0.029624	0.386035
C103	C	1.017938	-0.967096	-0.308854
C104	C	1.351272	-0.633762	0.024479
C105	C	1.684605	-0.300429	0.357813
C106	C	1.014887	-1.040609	-0.305774
C107	C	1.348220	-0.707275	0.027559
C108	C	1.681553	-0.373942	0.360892
C109	C	1.108972	-1.040476	-0.399992
C110	C	1.442305	-0.707143	-0.066659
C111	C	1.775638	-0.373809	0.266674
C112	C	1.112027	-0.966967	-0.403067
C113	C	1.445360	-0.633633	-0.069733
C114	C	1.778694	-0.300300	0.263600
C115	C	1.066507	-0.930280	-0.357501
C116	C	1.399841	-0.596947	-0.024168
C117	C	1.733174	-0.263614	0.309166
N118	N	1.029000	-0.822382	-0.319970
N119	N	1.362333	-0.489048	0.013363
N120	N	1.695667	-0.155715	0.346697
N121	N	1.069631	-0.855143	-0.360653
N122	N	1.402964	-0.521810	-0.027320
N123	N	1.736298	-0.188477	0.306013
C124	C	1.241210	-0.339141	-0.340283
C125	C	1.574543	-0.005807	-0.006949
C126	C	1.907876	0.327526	0.326384
C127	C	1.323008	-0.339150	-0.340288
C128	C	1.656342	-0.005817	-0.006955
C129	C	1.989675	0.327517	0.326379
C130	C	1.049305	-0.339070	-0.532225
C131	C	1.382638	-0.005736	-0.198892
C132	C	1.715971	0.327597	0.134441
C133	C	1.049325	-0.339049	-0.614025
C134	C	1.382658	-0.005716	-0.280692
C135	C	1.715991	0.327618	0.052642
C136	C	1.057070	-0.155531	-0.348033
C137	C	1.390403	0.177803	-0.014700
C138	C	1.723736	0.511136	0.318634
C139	C	1.060399	-0.077296	-0.351341
C140	C	1.393732	0.256037	-0.018008
C141	C	1.727065	0.589370	0.315326
C142	C	1.098328	-0.293994	-0.804129
C143	C	1.431661	0.039339	-0.470795
C144	C	1.764995	0.372672	-0.137462
C145	C	1.098338	-0.293974	-0.880988
C146	C	1.431671	0.039359	-0.547655
C147	C	1.765004	0.372693	-0.214322
C148	C	1.000378	-0.383995	-0.877164
C149	C	1.333711	-0.050662	-0.543831
C150	C	1.667045	0.282672	-0.210497
C151	C	1.000365	-0.384011	-0.800306
C152	C	1.333699	-0.050678	-0.466973
C153	C	1.667032	0.282655	-0.133639
C154	C	1.049344	-0.339012	-0.763790
C155	C	1.382678	-0.005679	-0.430457
C156	C	1.716011	0.327655	-0.097124
C157	C	1.049367	-0.338975	-0.917508
C158	C	1.382700	-0.005642	-0.584175
C159	C	1.716033	0.327691	-0.250841
C160	C	1.049377	-0.338953	-1.000843
C161	C	1.382710	-0.005620	-0.667509
C162	C	1.716043	0.327713	-0.334176
C163	C	1.049334	-0.339033	-0.680450
C164	C	1.382667	-0.005700	-0.347117
C165	C	1.716000	0.327634	-0.013784
C166	C	1.049256	-0.339116	-0.149064
C167	C	1.382589	-0.005783	0.184269
C168	C	1.715922	0.327551	0.517603
C169	C	1.049387	-0.338938	-0.067273
C170	C	1.382720	-0.005605	0.266060
C171	C	1.716053	0.327728	0.599394
H172	H	0.483402	-0.257568	-0.429247
H173	H	0.816735	0.075766	-0.095913
H174	H	1.150068	0.409099	0.237420
H175	H	0.622829	-0.257556	-0.429244
H176	H	0.956163	0.075778	-0.095911
H177	H	1.289496	0.409111	0.237423
Br178	Br	0.454525	-0.445104	-0.224687
Br179	Br	0.787859	-0.111771	0.108646
Br180	Br	1.121192	0.221562	0.441979
H181	H	0.615868	-0.420685	-0.251297
H182	H	0.949201	-0.087352	0.082036
H183	H	1.282535	0.245982	0.415370
Br184	Br	1.177945	-0.917001	-0.469091
Br185	Br	1.511278	-0.583668	-0.135758
Br186	Br	1.844611	-0.250334	0.197576
H187	H	0.947061	-0.740536	-0.237942
H188	H	1.280395	-0.407202	0.095391
H189	H	1.613728	-0.073869	0.428724
Br190	Br	1.142452	-0.760211	-0.433623
Br191	Br	1.475785	-0.426878	-0.100289
Br192	Br	1.809119	-0.093544	0.233044
Br193	Br	1.149679	-0.586950	-0.440864
Br194	Br	1.483012	-0.253617	-0.107531
Br195	Br	1.816345	0.079716	0.225803
H196	H	1.146030	-1.070354	-0.437090
H197	H	1.479364	-0.737021	-0.103757
H198	H	1.812697	-0.403687	0.229576
Br199	Br	0.948973	-1.090579	-0.239742
Br200	Br	1.282306	-0.757246	0.093591
Br201	Br	1.615640	-0.423913	0.426924
Br202	Br	0.933877	-0.445105	-0.745556
Br203	Br	1.267210	-0.111772	-0.412223
Br204	Br	1.600543	0.221562	-0.078889
H205	H	1.138208	-0.257351	-0.774400
H206	H	1.471541	0.075982	-0.441067
H207	H	1.804875	0.409315	-0.107733
H208	H	0.980876	-0.937231	-0.271751
H209	H	1.314209	-0.603898	0.061582
H210	H	1.647542	-0.270565	0.394916
Br211	Br	1.164823	-0.232881	-0.935731
Br212	Br	1.498157	0.100452	-0.602397
Br213	Br	1.831490	0.433786	-0.269064
Br214	Br	0.933912	-0.445065	-0.926726
Br215	Br	1.267246	-0.111731	-0.593392
Br216	Br	1.600579	0.221602	-0.260059
H217	H	0.952605	-0.607172	-0.243527
H218	H	1.285938	-0.273839	0.089806
H219	H	1.619271	0.059494	0.423140
