data_functionalizedCrystal
_audit_creation_method	'MofGen! by Chris Wilmer'
_symmetry_space_group_name_H-M	'P1'
_symmetry_Int_Tables_number	1
_symmetry_cell_setting	triclinic
loop_
_symmetry_equiv_pos_as_xyz
  x,y,z
_cell_length_a	16.974800
_cell_length_b	14.044220
_cell_length_c	16.053810
_cell_angle_alpha	87.189008
_cell_angle_beta	88.912688
_cell_angle_gamma	88.279480
loop_
_atom_site_label
_atom_site_type_symbol
_atom_site_fract_x
_atom_site_fract_y
_atom_site_fract_z
O1	O	1.057574	0.120850	-0.002053
O2	O	0.829129	0.135360	0.013390
O3	O	0.939922	-0.009888	0.005892
O4	O	0.946781	0.266098	0.005445
O5	O	0.933851	-0.001896	-0.132556
O6	O	0.823058	0.143352	-0.125058
O7	O	1.051503	0.128843	-0.140501
Zn8	Zn	0.936316	0.137366	-0.154761
Zn9	Zn	0.944316	0.126836	0.027650
O10	O	0.940710	0.274090	-0.133003
C11	C	0.796681	0.138657	-0.053846
C12	C	0.709040	0.136566	-0.047921
C13	C	0.664562	0.139937	-0.120608
C14	C	0.582214	0.137957	-0.115044
C15	C	0.544347	0.132611	-0.036792
C16	C	0.588832	0.129237	0.035900
C17	C	0.671178	0.131210	0.030335
C18	C	0.298423	0.126235	-0.012056
C19	C	0.216071	0.124264	-0.006496
C20	C	0.209459	0.132983	-0.157440
C21	C	0.291807	0.134962	-0.162998
C22	C	0.336285	0.131582	-0.090306
N23	N	0.460174	0.130590	-0.031103
N24	N	0.420456	0.133597	-0.095997
C25	C	0.933885	-0.041214	-0.063129
C26	C	0.924931	-0.146462	-0.062525
C27	C	0.908561	-0.339166	-0.061406
C28	C	0.972068	-0.396638	-0.065697
C29	C	0.962960	-0.503865	-0.065075
C30	C	0.917668	-0.231929	-0.062029
C31	C	1.083951	0.125544	-0.073264
C32	C	1.171592	0.127636	-0.079183
C33	C	0.946747	0.305416	-0.063980
C34	C	0.955702	0.410664	-0.064579
N35	N	0.930863	0.144552	-0.279252
C36	C	0.902619	0.181430	-0.800973
C37	C	0.906452	0.176422	-0.713826
C38	C	0.957446	0.109629	-0.673567
C39	C	1.004604	0.047834	-0.720460
C40	C	1.000766	0.052839	-0.807605
C41	C	0.974183	0.087762	-0.413290
C42	C	0.978019	0.082764	-0.326139
C43	C	0.879866	0.211351	-0.319511
C44	C	0.876036	0.216354	-0.406658
C45	C	0.923191	0.154556	-0.453543
N46	N	0.961367	0.104510	-0.584488
N47	N	0.919265	0.159671	-0.542620
N48	N	0.949775	0.119642	0.152141
H49	H	0.185242	0.119914	0.057229
H50	H	0.546003	0.140687	-0.174233
H51	H	1.033282	-0.365315	-0.069779
H52	H	1.012580	0.037446	-0.451457
H53	H	0.847355	-0.370490	-0.057267
H54	H	0.861098	0.235824	-0.833746
C55	C	0.854677	0.244506	-0.662261
N56	N	0.815713	0.295829	-0.623425
H57	H	0.173236	0.135733	-0.216622
H58	H	0.834513	0.270742	-0.439435
H59	H	0.841474	0.261663	-0.281329
C60	C	1.034116	0.009281	-0.281856
N61	N	1.076366	-0.046064	-0.248502
C62	C	1.052642	-0.015132	-0.859180
N63	N	1.091715	-0.066332	-0.898025
C64	C	0.706208	0.145817	-0.206692
N65	N	0.737574	0.150241	-0.271532
C66	C	0.333455	0.140837	-0.249081
N67	N	0.364824	0.145264	-0.313920
C68	C	0.347339	0.122509	0.067909
N69	N	0.384185	0.119698	0.128142
C70	C	0.547175	0.123354	0.121978
N71	N	0.515799	0.118926	0.186814
H72	H	1.046121	-0.006555	-0.687676
H73	H	0.707392	0.128467	0.089524
