data_functionalizedCrystal
_audit_creation_method	'MofGen! by Chris Wilmer'
_symmetry_space_group_name_H-M	'P1'
_symmetry_Int_Tables_number	1
_symmetry_cell_setting	triclinic
loop_
_symmetry_equiv_pos_as_xyz
  x,y,z
_cell_length_a	15.995350
_cell_length_b	15.995350
_cell_length_c	15.072220
_cell_angle_alpha	89.998899
_cell_angle_beta	89.991149
_cell_angle_gamma	96.507625
loop_
_atom_site_label
_atom_site_type_symbol
_atom_site_fract_x
_atom_site_fract_y
_atom_site_fract_z
O1	O	1.110996	-0.107921	-0.073703
O2	O	0.867221	-0.121249	-0.073721
O3	O	0.995772	0.007303	-0.073710
O4	O	0.982444	-0.236472	-0.073713
O5	O	0.995740	0.007296	0.073855
O6	O	0.867189	-0.121256	0.073844
O7	O	1.110964	-0.107928	0.073862
Zn8	Zn	0.989071	-0.114593	0.097283
Zn9	Zn	0.989113	-0.114584	-0.097141
O10	O	0.982413	-0.236480	0.073852
C11	C	0.836010	-0.120701	0.000060
C12	C	0.743060	-0.119049	0.000053
C13	C	0.405312	-0.113117	0.000071
C14	C	0.452746	-0.021565	0.000401
C15	C	0.549436	-0.023217	0.000063
C16	C	0.572873	-0.116060	0.000063
C17	C	0.531804	-0.161212	-0.084201
C18	C	0.435168	-0.158912	-0.084266
C19	C	0.434793	-0.160812	0.083543
C20	C	0.531738	-0.160790	0.084651
C21	C	0.667570	-0.117727	0.000055
C22	C	0.310614	-0.111452	0.000073
C23	C	0.995205	0.038494	0.000070
C24	C	0.993553	0.131444	0.000065
C25	C	1.142175	-0.108476	0.000080
C26	C	1.235125	-0.110127	0.000081
C27	C	0.982980	-0.267671	0.000069
C28	C	0.984631	-0.360621	0.000069
N29	N	0.989049	-0.114599	0.229971
C30	C	0.987621	0.469192	0.000068
C31	C	0.896069	0.421758	-0.000270
C32	C	0.897721	0.325068	0.000063
C33	C	0.990564	0.301631	0.000066
C34	C	1.035702	0.342705	0.084335
C35	C	1.033402	0.439341	0.084405
C36	C	1.035330	0.439707	-0.083404
C37	C	1.035308	0.342761	-0.084518
C38	C	0.992231	0.206934	0.000068
C39	C	0.985956	0.563890	0.000072
N40	N	0.989142	-0.114571	-0.229830
C41	C	0.989112	-0.114580	0.589173
C42	C	0.920095	-0.183135	0.551560
C43	C	0.920254	-0.183385	0.448735
C44	C	0.989080	-0.114590	0.410969
C45	C	1.076445	-0.133671	0.448266
C46	C	1.076058	-0.134159	0.551124
C47	C	0.971542	-0.026741	0.551272
C48	C	0.969537	-0.027327	0.448409
C49	C	0.989067	-0.114593	0.310255
C50	C	0.989130	-0.114579	0.689886
H51	H	0.416873	-0.125979	-0.147255
H52	H	1.100617	0.471588	0.088231
H53	H	1.129029	-0.085068	0.423801
H54	H	0.855314	-0.172016	0.423519
C55	C	0.587092	0.025060	-0.081685
N56	N	0.615453	0.061423	-0.143261
C57	C	0.391601	-0.249715	-0.089451
N58	N	0.358790	-0.318106	-0.093366
C59	C	1.126518	0.482619	-0.084170
N60	N	1.195198	0.514946	-0.084742
C61	C	0.990766	0.305906	-0.168739
N62	N	0.957209	0.278149	-0.232174
H63	H	1.103014	0.327400	-0.089603
C64	C	0.552508	-0.252251	0.091538
N65	N	0.568156	-0.321141	0.096724
C66	C	0.846645	0.446806	-0.081903
N67	N	0.809416	0.465681	-0.143390
C68	C	0.887328	-0.001970	0.586345
N69	N	0.823893	0.016677	0.612762
C70	C	1.147540	-0.069290	0.584737
N71	N	1.201389	-0.020443	0.610051
C72	C	0.994907	0.467455	-0.169691
N73	N	0.964452	0.488353	-0.234677
H74	H	0.560191	-0.129845	-0.146912
H75	H	1.103910	0.328579	0.087471
H76	H	0.434211	0.015027	0.060830
H77	H	1.000460	0.457639	0.147395
C78	C	0.391881	-0.252001	0.084316
N79	N	0.359556	-0.320681	0.084892
C80	C	0.832081	-0.168045	0.585026
N81	N	0.765787	-0.156682	0.610244
C82	C	0.993309	0.304366	0.169052
N83	N	0.961373	0.275491	0.232858
C84	C	1.039531	0.042181	0.584137
N85	N	1.090742	0.094087	0.608897
H86	H	0.931160	-0.247952	0.577399
H87	H	0.577852	0.012275	0.060467
H88	H	0.545929	-0.229421	-0.087335
H89	H	0.859626	0.441349	0.059819
C90	C	0.426282	0.027658	-0.080774
N91	N	0.406345	0.064732	-0.141915
H92	H	0.862238	0.296649	-0.060344
C93	C	0.849431	0.287416	0.081805
N94	N	0.813057	0.259058	0.143378
H95	H	0.931473	-0.248570	0.424121
H96	H	1.091540	-0.198219	0.575106
C97	C	1.033049	0.044821	0.413702
N98	N	1.080899	0.099161	0.387569
H99	H	0.414244	-0.130885	0.147414
H100	H	1.092297	-0.197002	0.422498
C101	C	0.568592	-0.116236	0.168868
N102	N	0.596348	-0.082671	0.232299
H103	H	0.905271	-0.012846	0.424032
