data_functionalizedCrystal
_audit_creation_method	'MofGen! by Chris Wilmer'
_symmetry_space_group_name_H-M	'P1'
_symmetry_Int_Tables_number	1
_symmetry_cell_setting	triclinic
loop_
_symmetry_equiv_pos_as_xyz
  x,y,z
_cell_length_a	12.827893
_cell_length_b	12.759399
_cell_length_c	12.827885
_cell_angle_alpha	90.030910
_cell_angle_beta	89.980728
_cell_angle_gamma	89.984913
loop_
_atom_site_label
_atom_site_type_symbol
_atom_site_fract_x
_atom_site_fract_y
_atom_site_fract_z
Zn1	Zn	1.597672	0.418216	-0.590840
Zn2	Zn	2.097672	0.918216	-0.090840
Zn3	Zn	1.597567	0.593932	-0.416097
Zn4	Zn	2.097567	1.093932	0.083903
Zn5	Zn	1.422913	0.418267	-0.416114
Zn6	Zn	1.922913	0.918267	0.083886
Zn7	Zn	1.422899	0.593854	-0.590797
Zn8	Zn	1.922899	1.093854	-0.090797
O9	O	1.510263	0.506067	-0.503462
O10	O	2.010263	1.006067	-0.003462
O11	O	1.743894	0.441537	-0.567671
O12	O	2.243894	0.941537	-0.067671
O13	O	1.574360	0.570684	-0.269863
O14	O	2.074360	1.070684	0.230137
O15	O	1.446145	0.271240	-0.439317
O16	O	1.946145	0.771240	0.060683
O17	O	1.743816	0.570634	-0.439288
O18	O	2.243816	1.070634	0.060712
O19	O	1.574539	0.271202	-0.567688
O20	O	2.074539	0.771202	-0.067688
O21	O	1.446043	0.441624	-0.269876
O22	O	1.946043	0.941624	0.230124
O23	O	1.276675	0.441548	-0.439275
O24	O	1.776675	0.941548	0.060725
O25	O	1.446121	0.570501	-0.737039
O26	O	1.946121	1.070501	-0.237039
O27	O	1.276665	0.570550	-0.567614
O28	O	1.776665	1.070550	-0.067614
O29	O	1.574526	0.441461	-0.737071
O30	O	2.074526	0.941461	-0.237071
O31	O	1.574347	0.740943	-0.439247
O32	O	2.074347	1.240943	0.060753
O33	O	1.446019	0.740885	-0.567598
O34	O	1.946019	1.240885	-0.067598
C35	C	1.238753	0.506047	-0.503442
C36	C	1.738753	1.006047	-0.003442
C37	C	1.122600	0.506064	-0.503459
C38	C	1.622600	1.006064	-0.003459
C39	C	1.510199	0.779035	-0.503439
C40	C	2.010199	1.279035	-0.003439
C41	C	1.510267	0.895811	-0.503463
C42	C	2.010267	1.395811	-0.003463
C43	C	1.510334	0.505966	-0.776033
C44	C	2.010334	1.005966	-0.276033
C45	C	1.510364	0.505923	-0.892186
C46	C	2.010364	1.005923	-0.392186
C47	C	1.070837	0.569998	-0.566867
C48	C	1.570837	1.069998	-0.066867
C49	C	0.950787	0.570017	-0.566885
C50	C	1.450787	1.070017	-0.066885
C51	C	1.782833	0.506088	-0.503483
C52	C	2.282833	1.006088	-0.003483
C53	C	1.898986	0.506097	-0.503492
C54	C	2.398986	1.006097	-0.003492
C55	C	1.510355	0.232034	-0.503509
C56	C	2.010355	0.732034	-0.003509
C57	C	1.510395	0.115257	-0.503529
C58	C	2.010395	0.615257	-0.003529
C59	C	1.577163	0.950668	-0.436707
C60	C	2.077163	1.450668	0.063293
C61	C	1.577230	1.060392	-0.436742
C62	C	2.077230	1.560392	0.063258
C63	C	1.443496	1.060393	-0.570293
C64	C	1.943496	1.560393	-0.070293
C65	C	1.443435	0.950671	-0.570262
C66	C	1.943435	1.450671	-0.070262
C67	C	1.573910	0.442058	-0.943986
C68	C	2.073910	0.942058	-0.443986
C69	C	1.573942	0.442012	-1.064037
C70	C	2.073942	0.942012	-0.564037
C71	C	1.510252	0.506092	-0.231952
C72	C	2.010252	1.006092	0.268048
C73	C	1.510424	0.505839	-0.115800
C74	C	2.010424	1.005839	0.384200
H75	H	0.906273	0.624756	-0.621168
H76	H	1.406273	1.124756	-0.121168
O77	O	1.645947	0.369677	-0.885008
O78	O	2.145947	0.869677	-0.385008
H79	H	1.628074	0.287190	-0.905899
H80	H	2.128074	0.787190	-0.405899
H81	H	1.631583	0.906004	-0.382316
H82	H	2.131583	1.406004	0.117684
H83	H	1.078038	0.451337	-0.449190
H84	H	1.578038	0.951337	0.050810
H85	H	1.628350	0.387338	-1.108584
H86	H	2.128350	0.887338	-0.608584
O87	O	1.438327	0.578255	-1.056817
O88	O	1.938327	1.078255	-0.556817
H89	H	1.456193	0.660731	-1.077683
H90	H	1.956193	1.160731	-0.577683
O91	O	1.649376	1.119564	-0.364735
O92	O	2.149376	1.619564	0.135265
H93	H	1.695829	1.062979	-0.318278
H94	H	2.195829	1.562979	0.181722
O95	O	1.371260	0.891502	-0.642258
O96	O	1.871260	1.391502	-0.142258
H97	H	1.389136	0.912483	-0.724298
H98	H	1.889136	1.412483	-0.224298
H99	H	1.389082	1.105073	-0.624677
H100	H	1.889082	1.605073	-0.124677
H101	H	0.943493	0.451362	-0.449199
H102	H	1.443493	0.951362	0.050801
H103	H	1.455978	0.560560	-0.936714
H104	H	1.955978	1.060560	-0.436714
H105	H	1.115399	0.624717	-0.621143
H106	H	1.615399	1.124717	-0.121143
