data_functionalizedCrystal
_audit_creation_method	'MofGen! by Chris Wilmer'
_symmetry_space_group_name_H-M	'P1'
_symmetry_Int_Tables_number	1
_symmetry_cell_setting	triclinic
loop_
_symmetry_equiv_pos_as_xyz
  x,y,z
_cell_length_a	23.532407
_cell_length_b	23.532407
_cell_length_c	22.610064
_cell_angle_alpha	90.005928
_cell_angle_beta	90.004154
_cell_angle_gamma	97.151323
loop_
_atom_site_label
_atom_site_type_symbol
_atom_site_fract_x
_atom_site_fract_y
_atom_site_fract_z
O1	O	0.755259	-0.069122	0.049224
O2	O	1.088592	0.264211	0.382557
O3	O	1.421925	0.597544	0.715890
O4	O	0.589395	-0.079125	0.049218
O5	O	0.922729	0.254208	0.382552
O6	O	1.256062	0.587541	0.715885
O7	O	0.677329	0.008808	0.049210
O8	O	1.010662	0.342141	0.382544
O9	O	1.343995	0.675475	0.715877
O10	O	0.667325	-0.157056	0.049232
O11	O	1.000659	0.176278	0.382565
O12	O	1.333992	0.509611	0.715898
O13	O	0.677323	0.008785	-0.049159
O14	O	1.010656	0.342119	0.284174
O15	O	1.343989	0.675452	0.617508
O16	O	0.589389	-0.079148	-0.049151
O17	O	0.922723	0.254185	0.284183
O18	O	1.256056	0.587519	0.617516
O19	O	0.755253	-0.069145	-0.049146
O20	O	1.088586	0.264189	0.284188
O21	O	1.421919	0.597522	0.617521
Zn22	Zn	0.672320	-0.074150	-0.064766
Zn23	Zn	1.005653	0.259183	0.268567
Zn24	Zn	1.338987	0.592517	0.601900
Zn25	Zn	0.672328	-0.074120	0.064839
Zn26	Zn	1.005661	0.259213	0.398173
Zn27	Zn	1.338995	0.592546	0.731506
O28	O	0.667319	-0.157078	-0.049138
O29	O	1.000653	0.176255	0.284196
O30	O	1.333986	0.509589	0.617529
C31	C	0.568176	-0.078882	0.000033
C32	C	0.901510	0.254451	0.333366
C33	C	1.234843	0.587785	0.666700
C34	C	0.504959	-0.078116	0.000030
C35	C	0.838293	0.255217	0.333364
C36	C	1.171626	0.588551	0.666697
C37	C	0.677071	0.030013	0.000024
C38	C	1.010404	0.363346	0.333358
C39	C	1.343738	0.696679	0.666691
C40	C	0.676305	0.093230	0.000020
C41	C	1.009638	0.426563	0.333353
C42	C	1.342972	0.759896	0.666686
N43	N	0.672319	-0.074170	-0.153219
N44	N	1.005652	0.259164	0.180115
N45	N	1.338985	0.592497	0.513448
C46	C	0.776472	-0.069388	0.000041
C47	C	1.109805	0.263945	0.333375
C48	C	1.443138	0.597278	0.666708
C49	C	0.839689	-0.070154	0.000048
C50	C	1.173022	0.263179	0.333381
C51	C	1.506355	0.596513	0.666714
C52	C	1.238792	-0.022921	0.000021
C53	C	1.572125	0.310413	0.333354
C54	C	1.905459	0.643746	0.666688
C55	C	1.298192	-0.023632	0.000018
C56	C	1.631525	0.309701	0.333352
C57	C	1.964859	0.643035	0.666685
O58	O	1.334937	0.020154	-0.000008
O59	O	1.668270	0.353487	0.333325
O60	O	2.001603	0.686820	0.666658
N61	N	1.320818	-0.075908	0.000027
N62	N	1.654152	0.257425	0.333360
N63	N	1.987485	0.590758	0.666694
C64	C	1.284041	-0.127477	0.000032
C65	C	1.617374	0.205857	0.333365
C66	C	1.950707	0.539190	0.666699
O67	O	1.308740	-0.172007	0.000038
O68	O	1.642074	0.161326	0.333372
O69	O	1.975407	0.494660	0.666705
C70	C	1.224642	-0.126765	0.000030
C71	C	1.557975	0.206569	0.333364
C72	C	1.891308	0.539902	0.666697
C73	C	1.202019	-0.074485	0.000028
C74	C	1.535352	0.258848	0.333361
C75	C	1.868686	0.592182	0.666694
C76	C	1.216169	0.029355	0.000018
C77	C	1.549502	0.362688	0.333351
C78	C	1.882835	0.696022	0.666685
C79	C	1.156772	0.030066	0.000022
C80	C	1.490106	0.363399	0.333355
C81	C	1.823439	0.696733	0.666688
C82	C	1.120000	-0.021498	0.000028
C83	C	1.453333	0.311835	0.333362
C84	C	1.786666	0.645168	0.666695
C85	C	1.142623	-0.073774	0.000031
C86	C	1.475956	0.259560	0.333365
C87	C	1.809290	0.592893	0.666698
C88	C	1.187865	-0.178332	0.000031
C89	C	1.521198	0.155001	0.333364
C90	C	1.854532	0.488335	0.666698
C91	C	1.128463	-0.177616	0.000029
C92	C	1.461796	0.155718	0.333362
C93	C	1.795129	0.489051	0.666695
C94	C	1.105840	-0.125336	0.000026
C95	C	1.439173	0.207997	0.333360
C96	C	1.772507	0.541331	0.666693
C97	C	1.046454	-0.124627	0.000042
C98	C	1.379787	0.208707	0.333375
C99	C	1.713120	0.542040	0.666708
N100	N	1.023828	-0.072350	0.000033
N101	N	1.357161	0.260983	0.333367
N102	N	1.690494	0.594316	0.666700
C103	C	1.060601	-0.020786	0.000027
C104	C	1.393934	0.312547	0.333360
C105	C	1.727267	0.645881	0.666693
C106	C	1.408783	-0.128968	0.000034
C107	C	1.742117	0.204365	0.333368
C108	C	2.075450	0.537699	0.666701
C109	C	1.468181	-0.129681	0.000040
C110	C	1.801514	0.203653	0.333374
C111	C	2.134848	0.536986	0.666707
C112	C	1.482329	-0.025836	0.000026
C113	C	1.815662	0.307497	0.333359
C114	C	2.148995	0.640831	0.666692
C115	C	1.422929	-0.025124	0.000024
C116	C	1.756263	0.308210	0.333357
C117	C	2.089596	0.641543	0.666691
C118	C	1.386157	-0.076692	0.000026
C119	C	1.719490	0.256642	0.333359
C120	C	2.052824	0.589975	0.666693
C121	C	0.935864	-0.019296	0.000035
C122	C	1.269197	0.314037	0.333368
C123	C	1.602530	0.647370	0.666701
C124	C	0.876462	-0.018590	0.000041
C125	C	1.209795	0.314744	0.333374
C126	C	1.543128	0.648077	0.666707
C127	C	0.862320	-0.122434	0.000052
C128	C	1.195653	0.210899	0.333386
C129	C	1.528986	0.544232	0.666719
C130	C	0.921716	-0.123141	0.000049
C131	C	1.255050	0.210192	0.333383
C132	C	1.588383	0.543525	0.666716
C133	C	0.958488	-0.071568	0.000038
C134	C	1.291821	0.261766	0.333372
C135	C	1.625154	0.595099	0.666705
O136	O	1.009675	-0.168390	0.000066
O137	O	1.343008	0.164944	0.333399
O138	O	1.676341	0.498277	0.666733
O139	O	1.035893	0.023737	0.000012
O140	O	1.369226	0.357070	0.333346
O141	O	1.702559	0.690404	0.666679
C142	C	0.667577	-0.178283	0.000050
C143	C	1.000910	0.155051	0.333383
C144	C	1.334244	0.488384	0.666717
C145	C	0.668343	-0.241500	0.000058
C146	C	1.001676	0.091834	0.333392
C147	C	1.335010	0.425167	0.666725
C148	C	0.723539	0.492333	0.000054
C149	C	1.056872	0.825666	0.333387
C150	C	1.390205	1.158999	0.666720
C151	C	0.722827	0.551733	0.000058
C152	C	1.056160	0.885066	0.333391
C153	C	1.389494	1.218400	0.666725
O154	O	0.766613	0.588478	0.000081
O155	O	1.099946	0.921811	0.333415
O156	O	1.433280	1.255144	0.666748
N157	N	0.670551	0.574359	0.000056
N158	N	1.003884	0.907693	0.333389
N159	N	1.337217	1.241026	0.666723
C160	C	0.618983	0.537582	0.000055
C161	C	0.952316	0.870915	0.333389
C162	C	1.285649	1.204248	0.666722
O163	O	0.574452	0.562281	0.000055
O164	O	0.907785	0.895615	0.333388
O165	O	1.241119	1.228948	0.666721
C166	C	0.619695	0.478183	0.000055
C167	C	0.953028	0.811516	0.333389
C168	C	1.286361	1.144849	0.666722
C169	C	0.671974	0.455560	0.000051
C170	C	1.005308	0.788893	0.333385
C171	C	1.338641	1.122227	0.666718
C172	C	0.775814	0.469710	0.000050
C173	C	1.109147	0.803043	0.333384
C174	C	1.442481	1.136376	0.666717
C175	C	0.776525	0.410313	0.000045
C176	C	1.109859	0.743647	0.333378
C177	C	1.443192	1.076980	0.666711
C178	C	0.724961	0.373540	0.000042
C179	C	1.058294	0.706874	0.333376
C180	C	1.391628	1.040207	0.666709
C181	C	0.672685	0.396164	0.000046
C182	C	1.006019	0.729497	0.333379
C183	C	1.339352	1.062830	0.666712
C184	C	0.568127	0.441406	0.000059
C185	C	0.901460	0.774739	0.333392
C186	C	1.234794	1.108073	0.666726
C187	C	0.568844	0.382004	0.000059
C188	C	0.902177	0.715337	0.333392
C189	C	1.235510	1.048670	0.666726
C190	C	0.621123	0.359381	0.000055
C191	C	0.954457	0.692714	0.333388
C192	C	1.287790	1.026048	0.666722
C193	C	0.621832	0.299995	0.000038
C194	C	0.955166	0.633328	0.333371
C195	C	1.288499	0.966661	0.666704
N196	N	0.674109	0.277369	0.000040
N197	N	1.007442	0.610702	0.333373
N198	N	1.340775	0.944035	0.666707
C199	C	0.725673	0.314141	0.000042
C200	C	1.059006	0.647475	0.333376
C201	C	1.392340	0.980808	0.666709
C202	C	0.617491	0.662324	0.000057
C203	C	0.950824	0.995657	0.333390
C204	C	1.284158	1.328991	0.666724
C205	C	0.616778	0.721722	0.000053
C206	C	0.950112	1.055055	0.333386
C207	C	1.283445	1.388389	0.666720
C208	C	0.720623	0.735869	0.000057
C209	C	1.053957	1.069203	0.333390
C210	C	1.387290	1.402536	0.666723
C211	C	0.721335	0.676470	0.000056
C212	C	1.054669	1.009804	0.333390
C213	C	1.388002	1.343137	0.666723
C214	C	0.669767	0.639698	0.000059
C215	C	1.003101	0.973031	0.333392
C216	C	1.336434	1.306365	0.666726
C217	C	0.727163	0.189405	0.000030
C218	C	1.060496	0.522738	0.333363
C219	C	1.393829	0.856071	0.666697
C220	C	0.727869	0.130003	0.000022
C221	C	1.061203	0.463336	0.333355
C222	C	1.394536	0.796669	0.666689
C223	C	0.624025	0.115860	0.000021
C224	C	0.957358	0.449194	0.333355
C225	C	1.290692	0.782527	0.666688
C226	C	0.623318	0.175257	0.000026
C227	C	0.956651	0.508591	0.333360
C228	C	1.289985	0.841924	0.666693
C229	C	0.674891	0.212029	0.000033
C230	C	1.008225	0.545362	0.333366
C231	C	1.341558	0.878695	0.666699
O232	O	0.578070	0.263215	0.000017
O233	O	0.911403	0.596549	0.333350
O234	O	1.244736	0.929882	0.666684
O235	O	0.770196	0.289434	0.000051
O236	O	1.103529	0.622767	0.333384
O237	O	1.436863	0.956100	0.666717
C238	C	0.633369	-0.113059	-0.438063
C239	C	0.966703	0.220274	-0.104730
C240	C	1.300036	0.553607	0.228603
C241	C	0.633368	-0.113065	-0.376143
C242	C	0.966701	0.220268	-0.042810
C243	C	1.300034	0.553602	0.290523
O244	O	0.600234	-0.146156	-0.344122
O245	O	0.933567	0.187178	-0.010788
O246	O	1.266901	0.520511	0.322545
N247	N	0.672315	-0.074147	-0.345171
N248	N	1.005648	0.259187	-0.011838
N249	N	1.338981	0.592520	0.321496
C250	C	0.711262	-0.035217	-0.376122
C251	C	1.044595	0.298117	-0.042789
C252	C	1.377929	0.631450	0.290545
O253	O	0.744389	-0.002114	-0.344092
O254	O	1.077722	0.331219	-0.010758
O255	O	1.411056	0.664553	0.322575
C256	C	0.711260	-0.035209	-0.438041
C257	C	1.044594	0.298124	-0.104707
C258	C	1.377927	0.631458	0.228626
C259	C	0.672315	-0.074134	-0.469010
C260	C	1.005648	0.259200	-0.135677
C261	C	1.338981	0.592533	0.197657
C262	C	0.594426	-0.151980	-0.469033
C263	C	0.927760	0.181353	-0.135699
C264	C	1.261093	0.514686	0.197634
C265	C	0.594429	-0.151975	-0.530948
C266	C	0.927762	0.181358	-0.197615
C267	C	1.261095	0.514691	0.135718
C268	C	0.633374	-0.113050	-0.561895
C269	C	0.966708	0.220284	-0.228561
C270	C	1.300041	0.553617	0.104772
C271	C	0.672317	-0.074129	-0.530925
C272	C	1.005650	0.259205	-0.197592
C273	C	1.338984	0.592538	0.135741
C274	C	0.750205	0.003723	-0.468990
C275	C	1.083538	0.337057	-0.135657
C276	C	1.416871	0.670390	0.197676
C277	C	0.750199	0.003728	-0.530913
C278	C	1.083533	0.337061	-0.197580
C279	C	1.416866	0.670395	0.135753
C280	C	0.711254	-0.035197	-0.561883
C281	C	1.044587	0.298137	-0.228549
C282	C	1.377920	0.631470	0.104784
C283	C	0.711265	-0.035198	-0.623788
C284	C	1.044598	0.298136	-0.290454
C285	C	1.377932	0.631469	0.042879
N286	N	0.672318	-0.074116	-0.654760
N287	N	1.005651	0.259217	-0.321427
N288	N	1.338985	0.592551	0.011907
C289	C	0.633373	-0.113042	-0.623813
C290	C	0.966706	0.220292	-0.290480
C291	C	1.300039	0.553625	0.042853
C292	C	0.711262	-0.035235	-0.246088
C293	C	1.044595	0.298098	0.087245
C294	C	1.377928	0.631431	0.420578
C295	C	0.711266	-0.035245	-0.184171
C296	C	1.044600	0.298088	0.149163
C297	C	1.377933	0.631421	0.482496
C298	C	0.633371	-0.113093	-0.184197
C299	C	0.966705	0.220240	0.149137
C300	C	1.300038	0.553574	0.482470
C301	C	0.633370	-0.113085	-0.246115
C302	C	0.966703	0.220248	0.087218
C303	C	1.300036	0.553581	0.420551
C304	C	0.672315	-0.074154	-0.277061
C305	C	1.005648	0.259180	0.056273
C306	C	1.338981	0.592513	0.389606
C307	C	0.633381	-0.113029	-0.753841
C308	C	0.966714	0.220305	-0.420507
C309	C	1.300048	0.553638	-0.087174
C310	C	0.633388	-0.113022	-0.815762
C311	C	0.966722	0.220311	-0.482429
C312	C	1.300055	0.553645	-0.149095
C313	C	0.711281	-0.035172	-0.815731
C314	C	1.044615	0.298161	-0.482397
C315	C	1.377948	0.631494	-0.149064
C316	C	0.711276	-0.035181	-0.753815
C317	C	1.044609	0.298152	-0.420482
C318	C	1.377943	0.631486	-0.087148
C319	C	0.672321	-0.074111	-0.722872
C320	C	1.005655	0.259222	-0.389538
C321	C	1.338988	0.592555	-0.056205
O322	O	0.744380	-0.002122	-0.655849
O323	O	1.077713	0.331211	-0.322515
O324	O	1.411047	0.664544	0.010818
O325	O	0.600246	-0.146134	-0.655851
O326	O	0.933580	0.187199	-0.322518
O327	O	1.266913	0.520533	0.010816
N328	N	0.672334	-0.074096	0.153292
N329	N	1.005667	0.259237	0.486625
N330	N	1.339001	0.592571	0.819958
H331	H	0.965797	0.022700	0.000026
H332	H	1.299130	0.356033	0.333360
H333	H	1.632463	0.689366	0.666693
H334	H	0.742992	-0.003481	-0.840937
H335	H	1.076325	0.329852	-0.507604
H336	H	1.409659	0.663186	-0.174270
O337	O	0.513220	0.342345	0.000059
O338	O	0.846553	0.675678	0.333392
O339	O	1.179887	1.009011	0.666725
H340	H	0.522493	0.297239	0.000059
H341	H	0.855826	0.630572	0.333393
H342	H	1.189159	0.963905	0.666726
O343	O	0.566933	0.199664	0.000018
O344	O	0.900266	0.532997	0.333352
O345	O	1.233600	0.866330	0.666685
H346	H	0.564128	0.226391	0.040113
H347	H	0.897461	0.559724	0.373446
H348	H	1.230794	0.893057	0.706780
O349	O	1.369126	-0.184594	0.000045
O350	O	1.702460	0.148739	0.333379
O351	O	2.035793	0.482073	0.666712
H352	H	1.341725	-0.186771	-0.040051
H353	H	1.675059	0.146563	0.293282
H354	H	2.008392	0.479896	0.626615
H355	H	0.582043	0.085909	0.000017
H356	H	0.915376	0.419243	0.333351
H357	H	1.248709	0.752576	0.666684
H358	H	0.601674	-0.144721	-0.840975
H359	H	0.935007	0.188612	-0.507642
H360	H	1.268341	0.521946	-0.174308
H361	H	0.781913	0.035433	-0.556106
H362	H	1.115246	0.368766	-0.222773
H363	H	1.448579	0.702099	0.110561
O364	O	0.792205	0.045712	-0.435596
O365	O	1.125538	0.379046	-0.102263
O366	O	1.458871	0.712379	0.231070
H367	H	0.819275	0.072783	-0.467527
H368	H	1.152608	0.406117	-0.134194
H369	H	1.485941	0.739450	0.199139
H370	H	0.817806	0.499645	0.000054
H371	H	1.151140	0.832978	0.333388
H372	H	1.484473	1.166312	0.666721
O373	O	1.521997	0.029782	0.000007
O374	O	1.855331	0.363116	0.333340
O375	O	2.188664	0.696449	0.666673
H376	H	1.549409	0.031951	0.040095
H377	H	1.882743	0.365285	0.373428
H378	H	2.216076	0.698618	0.706762
H379	H	1.206274	-0.220904	0.000036
H380	H	1.539607	0.112430	0.333369
H381	H	1.872940	0.445763	0.666702
O382	O	0.852060	0.037799	0.000030
O383	O	1.185394	0.371133	0.333364
O384	O	1.518727	0.704466	0.666697
H385	H	0.887614	0.073534	0.000017
H386	H	1.220947	0.406867	0.333350
H387	H	1.554280	0.740201	0.666683
O388	O	0.753271	0.006801	-0.720396
O389	O	1.086604	0.340134	-0.387063
O390	O	1.419937	0.673468	-0.053730
H391	H	0.797631	-0.000217	-0.732265
H392	H	1.130964	0.333117	-0.398932
H393	H	1.464297	0.666450	-0.065599
H394	H	0.742986	-0.003555	-0.158960
H395	H	1.076319	0.329778	0.174373
H396	H	1.409652	0.663111	0.507707
O397	O	1.088801	-0.233237	0.000026
O398	O	1.422134	0.100096	0.333360
O399	O	1.755467	0.433430	0.666693
H400	H	1.061400	-0.235391	0.040118
H401	H	1.394733	0.097942	0.373451
H402	H	1.728067	0.431275	0.706784
O403	O	0.822649	-0.178047	0.000050
O404	O	1.155982	0.155287	0.333383
O405	O	1.489315	0.488620	0.666716
H406	H	0.795245	-0.180198	0.040139
H407	H	1.128579	0.153135	0.373472
H408	H	1.461912	0.486469	0.706805
O409	O	1.132375	0.086453	0.000004
O410	O	1.465708	0.419787	0.333337
O411	O	1.799042	0.753120	0.666670
H412	H	1.167932	0.122184	-0.000010
H413	H	1.501265	0.455518	0.333323
H414	H	1.834599	0.788851	0.666656
H415	H	1.486595	-0.172252	0.000051
H416	H	1.819928	0.161081	0.333384
H417	H	2.153261	0.494415	0.666717
H418	H	1.246104	0.071347	0.000010
H419	H	1.579437	0.404680	0.333344
H420	H	1.912771	0.738014	0.666677
O421	O	0.777721	0.652071	0.000063
O422	O	1.111055	0.985404	0.333397
O423	O	1.444388	1.318737	0.666730
H424	H	0.813454	0.687626	0.000070
H425	H	1.146788	1.020959	0.333403
H426	H	1.480121	1.354292	0.666736
H427	H	0.601660	-0.144729	-0.728654
H428	H	0.934993	0.188605	-0.395320
H429	H	1.268326	0.521938	-0.061987
O430	O	0.552440	-0.193976	-0.564348
O431	O	0.885774	0.139358	-0.231015
O432	O	1.219107	0.472691	0.102319
H433	H	0.525367	-0.221044	-0.532418
H434	H	0.858700	0.112289	-0.199085
H435	H	1.192034	0.445622	0.134249
H436	H	1.404515	0.017447	0.000022
H437	H	1.737848	0.350780	0.333355
H438	H	2.071181	0.684114	0.666688
H439	H	0.742980	-0.003534	-0.271281
H440	H	1.076313	0.329799	0.062052
H441	H	1.409647	0.663133	0.395386
O442	O	0.946123	-0.179526	0.000054
O443	O	1.279456	0.153807	0.333387
O444	O	1.612789	0.487140	0.666721
H445	H	0.910570	-0.215262	0.000057
H446	H	1.243904	0.118071	0.333390
H447	H	1.577237	0.451405	0.666723
H448	H	0.770444	0.111587	0.000017
H449	H	1.103777	0.444920	0.333351
H450	H	1.437110	0.778254	0.666684
H451	H	0.769159	0.219337	0.000037
H452	H	1.102492	0.552671	0.333371
H453	H	1.435826	0.886004	0.666704
H454	H	0.819097	0.391900	0.000044
H455	H	1.152430	0.725233	0.333377
H456	H	1.485763	1.058567	0.666711
O457	O	0.561865	0.622668	0.000046
O458	O	0.895198	0.956001	0.333379
O459	O	1.228532	1.289334	0.666713
H460	H	0.559696	0.595271	0.040140
H461	H	0.893029	0.928605	0.373474
H462	H	1.226362	1.261938	0.706807
H463	H	0.601657	-0.144781	-0.271327
H464	H	0.934990	0.188553	0.062007
H465	H	1.268323	0.521886	0.395340
H466	H	0.762610	0.765821	0.000061
H467	H	1.095943	1.099154	0.333394
H468	H	1.429276	1.432488	0.666728
O469	O	0.560392	0.746121	0.000049
O470	O	0.893725	1.079454	0.333383
O471	O	1.227058	1.412787	0.666716
H472	H	0.524659	0.710565	0.000050
H473	H	0.857992	1.043899	0.333384
H474	H	1.191326	1.377232	0.666717
H475	H	0.525555	0.459814	0.000066
H476	H	0.858889	0.793148	0.333399
H477	H	1.192222	1.126481	0.666732
O478	O	0.552421	-0.193972	-0.435659
O479	O	0.885754	0.139362	-0.102326
O480	O	1.219088	0.472695	0.231008
H481	H	0.525349	-0.221033	-0.467606
H482	H	0.858682	0.112300	-0.134273
H483	H	1.192016	0.445634	0.199061
H484	H	0.601659	-0.144788	-0.158989
H485	H	0.934992	0.188545	0.174345
H486	H	1.268326	0.521879	0.507678
