data_functionalizedCrystal
_audit_creation_method	'MofGen! by Chris Wilmer'
_symmetry_space_group_name_H-M	'P1'
_symmetry_Int_Tables_number	1
_symmetry_cell_setting	triclinic
loop_
_symmetry_equiv_pos_as_xyz
  x,y,z
_cell_length_a	9.065218
_cell_length_b	12.503552
_cell_length_c	9.065218
_cell_angle_alpha	93.573739
_cell_angle_beta	85.015919
_cell_angle_gamma	86.422336
loop_
_atom_site_label
_atom_site_type_symbol
_atom_site_fract_x
_atom_site_fract_y
_atom_site_fract_z
O1	O	-1.968811	0.089372	-0.207937
O2	O	-1.468811	0.589372	0.292063
O3	O	-1.539525	0.089361	-0.225685
O4	O	-1.039525	0.589361	0.274315
O5	O	-1.763041	0.089364	-0.002169
O6	O	-1.263041	0.589364	0.497831
O7	O	-1.745295	0.089368	-0.431453
O8	O	-1.245295	0.589368	0.068547
O9	O	-1.746212	-0.089278	-0.018993
O10	O	-1.246212	0.410722	0.481007
O11	O	-1.522696	-0.089282	-0.242509
O12	O	-1.022696	0.410718	0.257491
O13	O	-1.951982	-0.089271	-0.224762
O14	O	-1.451982	0.410729	0.275238
Cu15	Cu	-1.735802	-0.105588	-0.235172
Cu16	Cu	-1.235802	0.394412	0.264828
Cu17	Cu	-1.755705	0.105678	-0.215275
Cu18	Cu	-1.255705	0.605678	0.284725
O19	O	-1.728466	-0.089274	-0.448278
O20	O	-1.228466	0.410726	0.051722
C21	C	-1.476124	0.000039	-0.232391
C22	C	-0.976124	0.500039	0.267609
C23	C	-1.312281	0.000035	-0.227292
C24	C	-0.812281	0.500035	0.272708
N25	N	-1.721815	-0.254181	-0.249165
N26	N	-1.221815	0.245819	0.250835
C27	C	-1.790272	-0.526613	-0.180680
C28	C	-1.290272	-0.026613	0.319320
C29	C	-1.701251	-0.473290	-0.269750
C30	C	-1.201251	0.026710	0.230250
C31	C	-1.712696	-0.351366	-0.258294
C32	C	-1.212696	0.148634	0.241706
C33	C	-1.778829	-0.648548	-0.192134
C34	C	-1.278829	-0.148548	0.307866
C35	C	-1.015383	0.000047	-0.218055
C36	C	-0.515383	0.500047	0.281945
C37	C	-1.179225	0.000038	-0.223156
C38	C	-0.679225	0.500038	0.276844
C39	C	-1.752921	0.000045	0.044406
C40	C	-1.252921	0.500045	0.544406
C41	C	-1.747822	0.000050	0.208249
C42	C	-1.247822	0.500050	0.708249
N43	N	-1.769704	0.254271	-0.201270
N44	N	-1.269704	0.754271	0.298730
C45	C	-1.738586	0.000048	-0.494852
C46	C	-1.238586	0.500048	0.005148
C47	C	-1.743686	0.000050	-0.658695
C48	C	-1.243686	0.500050	-0.158695
H49	H	-1.616443	-0.519207	-0.354611
H50	H	-1.116443	-0.019207	0.145389
H51	H	-1.875076	-0.480701	-0.095827
H52	H	-1.375076	0.019299	0.404173
