data_functionalizedCrystal
_audit_creation_method	'MofGen! by Chris Wilmer'
_symmetry_space_group_name_H-M	'P1'
_symmetry_Int_Tables_number	1
_symmetry_cell_setting	triclinic
loop_
_symmetry_equiv_pos_as_xyz
  x,y,z
_cell_length_a	11.792254
_cell_length_b	10.868271
_cell_length_c	11.792253
_cell_angle_alpha	89.993028
_cell_angle_beta	84.198598
_cell_angle_gamma	89.994440
loop_
_atom_site_label
_atom_site_type_symbol
_atom_site_fract_x
_atom_site_fract_y
_atom_site_fract_z
O1	O	-1.506908	0.102373	-0.155630
O2	O	-1.256908	0.352373	0.094370
O3	O	-1.006908	0.602373	0.344370
O4	O	-0.756908	0.852373	0.594370
O5	O	-1.176569	0.102370	-0.171648
O6	O	-0.926569	0.352370	0.078352
O7	O	-0.676569	0.602370	0.328352
O8	O	-0.426569	0.852370	0.578352
O9	O	-1.349747	0.102346	0.001530
O10	O	-1.099747	0.352346	0.251530
O11	O	-0.849747	0.602346	0.501530
O12	O	-0.599747	0.852346	0.751530
O13	O	-1.333729	0.102397	-0.328808
O14	O	-1.083729	0.352397	-0.078808
O15	O	-0.833729	0.602397	0.171192
O16	O	-0.583729	0.852397	0.421192
O17	O	-1.349732	-0.102298	0.001525
O18	O	-1.099732	0.147702	0.251525
O19	O	-0.849732	0.397702	0.501525
O20	O	-0.599732	0.647702	0.751525
O21	O	-1.176553	-0.102275	-0.171653
O22	O	-0.926553	0.147725	0.078347
O23	O	-0.676553	0.397725	0.328347
O24	O	-0.426553	0.647725	0.578347
O25	O	-1.506892	-0.102271	-0.155635
O26	O	-1.256892	0.147729	0.094365
O27	O	-1.006892	0.397729	0.344365
O28	O	-0.756892	0.647729	0.594365
Zn29	Zn	-1.341720	-0.134765	-0.163645
Zn30	Zn	-1.091720	0.115235	0.086355
Zn31	Zn	-0.841720	0.365235	0.336355
Zn32	Zn	-0.591720	0.615235	0.586355
Zn33	Zn	-1.341741	0.134863	-0.163638
Zn34	Zn	-1.091741	0.384863	0.086362
Zn35	Zn	-0.841741	0.634863	0.336362
Zn36	Zn	-0.591741	0.884863	0.586362
O37	O	-1.333714	-0.102248	-0.328814
O38	O	-1.083714	0.147752	-0.078814
O39	O	-0.833714	0.397752	0.171186
O40	O	-0.583714	0.647752	0.421186
C41	C	-1.134271	0.000047	-0.170642
C42	C	-0.884271	0.250047	0.079358
C43	C	-0.634271	0.500047	0.329358
C44	C	-0.384271	0.750047	0.579358
C45	C	-1.008257	0.000044	-0.167621
C46	C	-0.758257	0.250044	0.082379
C47	C	-0.508257	0.500044	0.332379
C48	C	-0.258257	0.750044	0.582379
C49	C	-0.905921	0.000047	-0.165168
C50	C	-0.655921	0.250047	0.084832
C51	C	-0.405921	0.500047	0.334832
C52	C	-0.155921	0.750047	0.584832
C53	C	-0.777534	0.000044	-0.162099
C54	C	-0.527534	0.250044	0.087901
C55	C	-0.277534	0.500044	0.337901
C56	C	-0.027534	0.750044	0.587901
N57	N	-1.341714	-0.318779	-0.163650
N58	N	-1.091714	-0.068779	0.086350
N59	N	-0.841714	0.181221	0.336350
N60	N	-0.591714	0.431221	0.586350
C61	C	-1.341723	-0.430116	-0.163650
C62	C	-1.091723	-0.180116	0.086350
C63	C	-0.841723	0.069884	0.336350
C64	C	-0.591723	0.319884	0.586350
C65	C	-1.341738	-0.569794	-0.163640
C66	C	-1.091738	-0.319794	0.086360
C67	C	-0.841738	-0.069794	0.336360
C68	C	-0.591738	0.180206	0.586360
C69	C	-0.549190	0.000049	-0.156642
C70	C	-0.299190	0.250049	0.093358
C71	C	-0.049190	0.500049	0.343358
C72	C	0.200810	0.750049	0.593358
C73	C	-0.675204	0.000041	-0.159662
C74	C	-0.425204	0.250041	0.090338
C75	C	-0.175204	0.500041	0.340338
C76	C	0.074796	0.750041	0.590338
C77	C	-1.348730	0.000020	0.043818
C78	C	-1.098730	0.250020	0.293818
C79	C	-0.848730	0.500020	0.543818
C80	C	-0.598730	0.750020	0.793818
C81	C	-1.345710	0.000008	0.169832
C82	C	-1.095710	0.250008	0.419832
C83	C	-0.845710	0.500008	0.669832
C84	C	-0.595710	0.750008	0.919832
N85	N	-1.341756	0.318878	-0.163625
N86	N	-1.091756	0.568878	0.086375
N87	N	-0.841756	0.818878	0.336375
N88	N	-0.591756	1.068878	0.586375
C89	C	-1.343256	0.000002	0.272168
C90	C	-1.093256	0.250002	0.522168
C91	C	-0.843256	0.500002	0.772168
C92	C	-0.593256	0.750002	1.022168
C93	C	-1.340188	0.000000	0.400555
C94	C	-1.090188	0.250000	0.650555
C95	C	-0.840188	0.500000	0.900555
C96	C	-0.590188	0.750000	1.150555
C97	C	-1.334731	0.000056	0.628898
C98	C	-1.084731	0.250056	0.878898
C99	C	-0.834731	0.500056	1.128898
C100	C	-0.584731	0.750056	1.378898
C101	C	-1.337751	-0.000001	0.502885
C102	C	-1.087751	0.249999	0.752885
C103	C	-0.837751	0.499999	1.002885
C104	C	-0.587751	0.749999	1.252885
