data_functionalizedCrystal
_audit_creation_method	'MofGen! by Chris Wilmer'
_symmetry_space_group_name_H-M	'P1'
_symmetry_Int_Tables_number	1
_symmetry_cell_setting	triclinic
loop_
_symmetry_equiv_pos_as_xyz
  x,y,z
_cell_length_a	12.759400
_cell_length_b	17.640112
_cell_length_c	12.759401
_cell_angle_alpha	78.812394
_cell_angle_beta	90.009275
_cell_angle_gamma	101.237514
loop_
_atom_site_label
_atom_site_type_symbol
_atom_site_fract_x
_atom_site_fract_y
_atom_site_fract_z
Zn1	Zn	-0.093307	1.208291	0.269883
Zn2	Zn	-0.268971	1.208254	0.094217
Zn3	Zn	-0.128852	1.076149	0.129668
Zn4	Zn	-0.304512	1.076106	0.305305
O5	O	-0.198910	1.142200	0.199768
O6	O	-0.086859	1.318893	0.216920
O7	O	-0.250386	1.190733	-0.048102
O8	O	0.022893	1.093712	0.148280
O9	O	-0.215919	1.318865	0.087859
O10	O	0.049008	1.190796	0.251295
O11	O	-0.147441	1.093676	-0.022057
O12	O	-0.181904	0.965537	0.182627
O13	O	-0.276493	1.093637	0.447628
O14	O	-0.310960	0.965505	0.311667
O15	O	-0.121322	1.190754	0.421604
O16	O	-0.420716	1.190690	0.122206
O17	O	-0.446827	1.093601	0.277291
C18	C	-0.254146	0.936842	0.254838
C19	C	-0.277802	0.848989	0.278422
C20	C	-0.019184	0.560025	0.020611
C21	C	-0.041433	0.477474	0.042786
C22	C	-0.176004	0.477495	0.176924
C23	C	-0.153763	0.560048	0.154764
C24	C	-0.075352	0.601306	0.076605
C25	C	-0.209931	0.601329	0.210758
C26	C	-0.187695	0.683875	0.188595
C27	C	-0.109291	0.725139	0.110438
C28	C	-0.053116	0.683852	0.054443
C29	C	-0.288347	0.560069	0.288910
C30	C	-0.344515	0.601350	0.344904
C31	C	-0.322274	0.683897	0.322747
C32	C	-0.243870	0.725162	0.244591
C33	C	-0.378448	0.725184	0.378743
C34	C	-0.356212	0.807730	0.356580
C35	C	-0.221633	0.807708	0.222428
C36	C	-0.471889	1.142159	0.199763
C37	C	-0.588651	1.142213	0.199776
C38	C	-0.629842	1.192740	0.253478
C39	C	-0.739556	1.192776	0.253494
C40	C	-0.766879	1.091758	0.146097
C41	C	-0.657168	1.091718	0.146088
C42	C	-0.614067	1.251064	0.315479
C43	C	-0.723782	1.251101	0.315495
C44	C	0.075140	1.142263	0.199791
C45	C	0.191924	1.142290	0.199801
C46	C	-0.198907	1.142195	0.473803
C47	C	-0.198906	1.142193	0.590580
C48	C	-0.143460	1.348360	0.144484
C49	C	-0.119830	1.436213	0.120925
C50	C	-0.145308	1.091665	0.659007
C51	C	-0.145317	1.091667	0.768731
C52	C	-0.252523	1.192729	0.741589
C53	C	-0.252520	1.192724	0.631868
C54	C	-0.083409	1.033320	0.674678
C55	C	-0.083418	1.033321	0.784402
C56	C	-0.198933	1.142199	0.926801
C57	C	-0.198919	1.142200	0.810024
H58	H	0.004319	0.443865	-0.002810
H59	H	-0.306449	0.492854	0.306952
H60	H	-0.822679	1.050646	0.102388
C61	C	0.113243	0.776678	0.015160
C62	C	0.033081	0.729207	-0.031468
H63	H	0.166456	0.804672	-0.037877
H64	H	0.082969	0.813076	0.045322
H65	H	0.144681	0.744476	0.069648
H66	H	0.001637	0.761410	-0.085951
H67	H	0.063358	0.692805	-0.061646
H68	H	-0.737032	1.312342	0.277353
C69	C	-0.438408	1.325571	0.258181
C70	C	-0.546928	1.329566	0.255156
H71	H	-0.396962	1.374033	0.220932
H72	H	-0.417962	1.316094	0.330396
H73	H	-0.426704	1.283882	0.225250
H74	H	-0.558634	1.371252	0.288094
H75	H	-0.567381	1.339052	0.182928
C76	C	-0.701210	1.201957	0.501489
C77	C	-0.777699	1.221461	0.427768
H78	H	-0.734500	1.183661	0.570799
H79	H	-0.670191	1.161715	0.481825
H80	H	-0.647074	1.247273	0.501852
H81	H	-0.831832	1.176142	0.427399
H82	H	-0.808735	1.261705	0.447437
C83	C	-0.267719	1.326556	0.739453
C84	C	-0.311449	1.248276	0.786971
H85	H	-0.304103	1.360848	0.767465
H86	H	-0.194025	1.338137	0.754353
H87	H	-0.275388	1.333774	0.664314
H88	H	-0.303772	1.241057	0.862110
H89	H	-0.385161	1.236692	0.772080
H90	H	-0.296183	1.233856	0.576161
H91	H	-0.128205	0.975163	0.834028
C92	C	-0.166401	0.900558	0.755439
C93	C	-0.135062	0.950677	0.656637
H94	H	-0.198296	0.849542	0.744297
H95	H	-0.105554	0.897243	0.797692
H96	H	-0.216622	0.920894	0.791326
H97	H	-0.084835	0.930343	0.620754
H98	H	-0.195918	0.953989	0.614367
C99	C	-0.402776	0.575964	0.529541
C100	C	-0.430692	0.555992	0.430823
H101	H	-0.455979	0.547964	0.582585
H102	H	-0.335858	0.562438	0.548646
H103	H	-0.397578	0.631034	0.524343
H104	H	-0.435882	0.500922	0.436018
H105	H	-0.497628	0.569513	0.411715
H106	H	0.002367	1.049727	0.809797
H107	H	-0.157768	0.841303	0.158799
H108	H	-0.588707	1.234610	0.401239
C109	C	-0.177340	0.843382	0.051733
C110	C	-0.084846	0.815876	0.086067
H111	H	-0.162248	0.899398	0.036692
H112	H	-0.200428	0.824694	-0.011070
H113	H	-0.232067	0.824716	0.106302
H114	H	-0.030121	0.834536	0.031494
H115	H	-0.061743	0.834572	0.148878
C116	C	0.111609	0.551721	-0.109785
C117	C	0.067000	0.605385	-0.065310
H118	H	0.164804	0.579727	-0.162834
H119	H	0.143067	0.519540	-0.055306
H120	H	0.057209	0.519512	-0.141393
H121	H	0.121399	0.637591	-0.033695
H122	H	0.035542	0.637580	-0.119799
C123	C	-0.436729	0.699790	0.563378
C124	C	-0.464632	0.679825	0.464654
H125	H	-0.489939	0.671789	0.616414
H126	H	-0.369814	0.686261	0.582490
H127	H	-0.431529	0.754860	0.558185
H128	H	-0.469825	0.624755	0.469844
H129	H	-0.531566	0.693348	0.445538
H130	H	-0.000213	1.055266	0.634774
H131	H	-0.239849	0.443890	0.240557
H132	H	-0.401949	0.841342	0.402178
C133	C	-0.695200	0.991870	0.039935
C134	C	-0.611890	1.036176	0.087060
H135	H	-0.667244	0.957584	0.003487
H136	H	-0.746142	0.961627	0.093799
H137	H	-0.728701	1.026355	-0.009454
H138	H	-0.578394	1.001692	0.136456
H139	H	-0.560930	1.066422	0.033190
