data_functionalizedCrystal
_audit_creation_method	'MofGen! by Chris Wilmer'
_symmetry_space_group_name_H-M	'P1'
_symmetry_Int_Tables_number	1
_symmetry_cell_setting	triclinic
loop_
_symmetry_equiv_pos_as_xyz
  x,y,z
_cell_length_a	14.971486
_cell_length_b	9.065218
_cell_length_c	13.448316
_cell_angle_alpha	89.995277
_cell_angle_beta	89.998199
_cell_angle_gamma	84.315007
loop_
_atom_site_label
_atom_site_type_symbol
_atom_site_fract_x
_atom_site_fract_y
_atom_site_fract_z
O1	O	1.188380	0.192261	-0.082573
O2	O	0.928152	0.215285	-0.082600
O3	O	1.063645	-0.010978	-0.082584
O4	O	1.052887	0.418525	-0.082589
O5	O	1.063628	-0.010992	0.082800
O6	O	0.928134	0.215271	0.082784
O7	O	1.188363	0.192248	0.082811
Cu8	Cu	1.058247	0.203758	0.097898
Cu9	Cu	1.058268	0.203775	-0.097687
O10	O	1.052870	0.418511	0.082795
C11	C	0.894811	0.214248	0.000089
C12	C	0.795491	0.211163	0.000078
C13	C	1.062602	-0.065951	0.000106
C14	C	1.059511	-0.229731	0.000101
C15	C	0.739256	0.344086	0.000078
C16	C	0.645935	0.341178	0.000093
C17	C	0.608850	0.205345	0.000101
C18	C	0.665092	0.072412	0.000104
C19	C	0.758411	0.075321	0.000096
C20	C	0.470584	0.066357	0.000118
C21	C	0.377259	0.063446	0.000124
C22	C	0.358108	0.332214	0.000115
C23	C	0.451427	0.335123	0.000107
C24	C	0.507663	0.202189	0.000108
C25	C	1.221704	0.193284	0.000120
C26	C	1.321024	0.196370	0.000124
C27	C	1.053912	0.473483	0.000102
C28	C	1.057004	0.637264	0.000101
N29	N	1.058239	0.203746	0.235462
N30	N	1.058283	0.203775	-0.235252
C31	C	1.118255	0.103597	0.287510
C32	C	1.118260	0.103596	0.391613
C33	C	1.058254	0.203751	0.443667
C34	C	0.998232	0.303904	0.391612
C35	C	0.998223	0.303897	0.287511
C36	C	0.998257	0.303914	0.608592
C37	C	0.998267	0.303924	0.712701
C38	C	1.118294	0.103613	0.712694
C39	C	1.118285	0.103606	0.608593
C40	C	1.058264	0.203761	0.556546
H41	H	0.600152	0.449418	0.000092
H42	H	1.167151	0.022060	0.566211
H43	H	0.949403	0.385479	0.755078
H44	H	1.167165	0.022064	0.755078
C45	C	0.336457	-0.085964	0.000150
C46	C	0.357181	-0.196408	0.086048
C47	C	0.316377	-0.345817	0.086079
C48	C	0.254849	-0.384783	0.000213
C49	C	0.234122	-0.274336	-0.085692
C50	C	0.274926	-0.124927	-0.085723
H51	H	0.402730	-0.167565	0.149617
H52	H	0.331720	-0.427576	0.149672
H53	H	0.224643	-0.495384	0.000236
H54	H	0.188573	-0.303179	-0.149261
H55	H	0.259583	-0.043168	-0.149315
H56	H	1.167122	0.022046	0.245134
C57	C	0.532447	-0.079870	0.000117
C58	C	0.527524	-0.191147	0.085996
C59	C	0.589388	-0.337367	0.085990
C60	C	0.656174	-0.372310	0.000105
C61	C	0.661099	-0.261030	-0.085780
C62	C	0.599236	-0.114810	-0.085773
H63	H	0.478083	-0.165282	0.149579
H64	H	0.585741	-0.419744	0.149568
H65	H	0.701969	-0.480551	0.000101
H66	H	0.710541	-0.286895	-0.149362
H67	H	0.602883	-0.032433	-0.149352
C68	C	0.820273	-0.070898	0.000093
C69	C	0.887062	-0.105853	-0.085788
C70	C	0.948922	-0.252077	-0.085786
C71	C	0.943993	-0.363346	0.000097
C72	C	0.877201	-0.328394	0.085984
C73	C	0.815341	-0.182170	0.085982
H74	H	0.890713	-0.023482	-0.149369
H75	H	0.998365	-0.277950	-0.149365
H76	H	0.989786	-0.471589	0.000098
H77	H	0.873551	-0.410764	0.149565
H78	H	0.765898	-0.156297	0.149562
C79	C	0.932206	0.414065	0.230256
C80	C	0.866231	0.524287	0.287509
C81	C	0.800209	0.634453	0.230256
C82	C	0.800161	0.634398	0.115748
C83	C	0.866138	0.524173	0.058488
C84	C	0.932161	0.414006	0.115742
H85	H	0.866264	0.524331	0.372280
H86	H	0.751368	0.716049	0.272644
H87	H	0.751287	0.715950	0.073366
H88	H	0.866105	0.524129	-0.026283
H89	H	0.981001	0.332410	0.073353
H90	H	0.634890	-0.038186	0.000125
H91	H	0.949378	0.385467	0.566219
H92	H	0.769442	0.454697	0.000071
H93	H	0.481618	0.445730	0.000091
H94	H	0.312316	0.440454	0.000118
H95	H	1.167129	0.022047	0.433990
H96	H	0.949369	0.385448	0.434001
