data_functionalizedCrystal
_audit_creation_method	'MofGen! by Chris Wilmer'
_symmetry_space_group_name_H-M	'P1'
_symmetry_Int_Tables_number	1
_symmetry_cell_setting	triclinic
loop_
_symmetry_equiv_pos_as_xyz
  x,y,z
_cell_length_a	14.519731
_cell_length_b	14.519709
_cell_length_c	9.482900
_cell_angle_alpha	99.350820
_cell_angle_beta	80.692239
_cell_angle_gamma	83.684499
loop_
_atom_site_label
_atom_site_type_symbol
_atom_site_fract_x
_atom_site_fract_y
_atom_site_fract_z
O1	O	1.238206	0.106569	-0.120901
O2	O	1.738206	0.606569	0.379099
O3	O	0.969732	0.120785	-0.120904
O4	O	1.469732	0.620785	0.379096
O5	O	1.111086	-0.020559	-0.120889
O6	O	1.611086	0.479441	0.379111
O7	O	1.096852	0.247913	-0.120915
O8	O	1.596852	0.747913	0.379085
O9	O	1.082374	0.008266	0.120900
O10	O	1.582374	0.508266	0.620900
O11	O	0.941020	0.149610	0.120886
O12	O	1.441020	0.649610	0.620886
O13	O	1.209494	0.135395	0.120889
O14	O	1.709494	0.635395	0.620889
Cu15	Cu	1.072635	0.145135	0.142965
Cu16	Cu	1.572635	0.645135	0.642965
Cu17	Cu	1.106591	0.111045	-0.142980
Cu18	Cu	1.606591	0.611045	0.357020
O19	O	1.068140	0.276739	0.120874
O20	O	1.568140	0.776739	0.620874
C21	C	0.921017	0.134531	-0.000009
C22	C	1.421017	0.634531	0.499991
C23	C	0.818637	0.132535	-0.000010
C24	C	1.318637	0.632535	0.499990
C25	C	0.735493	0.130913	-0.000015
C26	C	1.235493	0.630913	0.499985
C27	C	0.631184	0.128886	-0.000016
C28	C	1.131184	0.628886	0.499984
C29	C	0.548045	0.127278	-0.000015
C30	C	1.048045	0.627278	0.499985
C31	C	0.443730	0.125251	-0.000018
C32	C	0.943730	0.625251	0.499982
C33	C	1.096066	-0.040506	0.000006
C34	C	1.596066	0.459494	0.500006
C35	C	1.094078	-0.142888	0.000007
C36	C	1.594078	0.357112	0.500007
C37	C	1.086763	-0.517789	-0.000031
C38	C	1.586763	-0.017789	0.499969
C39	C	1.088794	-0.413479	-0.000020
C40	C	1.588794	0.086521	0.499980
C41	C	1.090420	-0.330341	-0.000011
C42	C	1.590420	0.169659	0.499989
C43	C	1.092452	-0.226026	-0.000003
C44	C	1.592452	0.273974	0.499997
C45	C	1.258210	0.121648	-0.000009
C46	C	1.758210	0.621648	0.499991
C47	C	1.360591	0.123643	-0.000018
C48	C	1.860591	0.623643	0.499982
C49	C	1.083160	0.296685	-0.000024
C50	C	1.583160	0.796685	0.499976
C51	C	1.085150	0.399066	-0.000034
C52	C	1.585150	0.899066	0.499966
N53	N	1.048760	0.169111	0.344082
N54	N	1.548760	0.669111	0.844082
N55	N	1.130473	0.087061	-0.344097
N56	N	1.630473	0.587061	0.155903
C57	C	1.099542	0.118112	0.416287
C58	C	1.599542	0.618112	0.916287
C59	C	1.079684	0.138068	0.583702
C60	C	1.579684	0.638068	1.083702
H61	H	1.021499	0.196504	0.645821
H62	H	1.521499	0.696504	1.145821
C63	C	1.158605	-0.047113	0.369045
C64	C	1.658605	0.452887	0.869045
C65	C	1.178086	0.039239	0.332395
C66	C	1.678086	0.539239	0.832395
H67	H	1.207095	-0.095802	0.317237
H68	H	1.707095	0.404198	0.817237
H69	H	1.155587	-0.044070	0.470531
H70	H	1.655587	0.455930	0.970531
H71	H	1.099925	-0.060037	0.344199
H72	H	1.599925	0.439963	0.844199
H73	H	1.236763	0.052166	0.357251
H74	H	1.736763	0.552166	0.857251
H75	H	1.181114	0.036197	0.230887
H76	H	1.681114	0.536197	0.730887
H77	H	1.188652	0.028618	0.593784
H78	H	1.688652	0.528618	1.093784
C79	C	0.965752	0.252501	0.577552
C80	C	1.465752	0.752501	1.077552
C81	C	0.970220	0.248001	0.427934
C82	C	1.470220	0.748001	0.927934
H83	H	0.917267	0.301210	0.629313
H84	H	1.417267	0.801210	1.129313
H85	H	0.952524	0.193932	0.602424
H86	H	1.452524	0.693932	1.102424
H87	H	1.024432	0.265429	0.602390
H88	H	1.524432	0.765429	1.102390
H89	H	0.911542	0.235066	0.403094
H90	H	1.411542	0.735066	0.903094
H91	H	0.983442	0.306583	0.403053
H92	H	1.483442	0.806583	0.903053
