data_functionalizedCrystal
_audit_creation_method	'MofGen! by Chris Wilmer'
_symmetry_space_group_name_H-M	'P1'
_symmetry_Int_Tables_number	1
_symmetry_cell_setting	triclinic
loop_
_symmetry_equiv_pos_as_xyz
  x,y,z
_cell_length_a	10.723022
_cell_length_b	10.723024
_cell_length_c	7.540329
_cell_angle_alpha	89.997572
_cell_angle_beta	89.997341
_cell_angle_gamma	84.467548
loop_
_atom_site_label
_atom_site_type_symbol
_atom_site_fract_x
_atom_site_fract_y
_atom_site_fract_z
O1	O	1.657187	0.175016	-0.147466
O2	O	2.157187	0.675016	0.352534
O3	O	1.294034	0.191771	-0.147472
O4	O	1.794034	0.691771	0.352528
O5	O	1.483987	0.001818	-0.147462
O6	O	1.983987	0.501818	0.352538
O7	O	1.467234	0.364970	-0.147476
O8	O	1.967234	0.864970	0.352524
O9	O	1.483976	0.001815	0.147503
O10	O	1.983976	0.501815	0.647503
O11	O	1.294023	0.191769	0.147493
O12	O	1.794023	0.691769	0.647493
O13	O	1.657176	0.175014	0.147499
O14	O	2.157176	0.675014	0.647499
Cu15	Cu	1.475598	0.183391	0.174429
Cu16	Cu	1.975598	0.683391	0.674429
Cu17	Cu	1.475612	0.183394	-0.174402
Cu18	Cu	1.975612	0.683394	0.325598
O19	O	1.467223	0.364968	0.147490
O20	O	1.967223	0.864968	0.647490
C21	C	1.247529	0.190551	0.000010
C22	C	1.747529	0.690551	0.500010
C23	C	1.108975	0.186904	0.000008
C24	C	1.608975	0.686904	0.500008
C25	C	0.890796	0.289421	0.000001
C26	C	1.390796	0.789421	0.500001
C27	C	1.033999	0.293192	0.000003
C28	C	1.533999	0.793192	0.500003
C29	C	1.482763	-0.044683	0.000018
C30	C	1.982763	0.455317	0.500018
C31	C	1.479115	-0.183238	0.000012
C32	C	1.979115	0.316762	0.500012
C33	C	1.585403	-0.258221	0.000011
C34	C	2.085403	0.241779	0.500011
C35	C	1.581635	-0.401424	0.000005
C36	C	2.081635	0.098576	0.500005
C37	C	1.703681	0.176234	0.000013
C38	C	2.203681	0.676234	0.500013
C39	C	1.842235	0.179881	0.000004
C40	C	2.342235	0.679881	0.500004
C41	C	1.468448	0.411468	0.000005
C42	C	1.968448	0.911468	0.500005
C43	C	1.472095	0.550023	-0.000000
C44	C	1.972095	1.050023	0.500000
N45	N	1.475598	0.183388	0.419777
N46	N	1.975598	0.683388	0.919777
N47	N	1.475622	0.183387	-0.419750
N48	N	1.975622	0.683387	0.080250
H49	H	1.067171	0.093113	-0.000036
H50	H	1.567171	0.593113	0.499964
H51	H	1.075811	0.386980	0.000010
H52	H	1.575811	0.886980	0.500010
H53	H	1.672625	-0.465857	0.000012
H54	H	2.172625	0.034143	0.500012
O55	O	0.813800	0.397892	-0.000241
O56	O	1.313800	0.897892	0.499759
C57	C	0.737697	0.402622	-0.153031
C58	C	1.237697	0.902622	0.346969
H59	H	0.730400	0.303493	-0.203961
H60	H	1.230400	0.803493	0.296039
H61	H	0.640218	0.448149	-0.118678
H62	H	1.140218	0.948149	0.381322
H63	H	0.780933	0.460049	-0.260002
H64	H	1.280933	0.960049	0.239998
O65	O	0.919231	0.071409	-0.000229
O66	O	1.419231	0.571409	0.499771
C67	C	0.995344	0.066681	-0.153018
C68	C	1.495344	0.566681	0.346982
H69	H	1.002648	0.165811	-0.203953
H70	H	1.502648	0.665811	0.296047
H71	H	1.092821	0.021152	-0.118660
H72	H	1.592821	0.521152	0.381340
H73	H	0.952116	0.009258	-0.259986
H74	H	1.452116	0.509258	0.240014
O75	O	1.697188	-0.208135	0.000094
O76	O	2.197188	0.291865	0.500094
C77	C	1.676063	-0.076303	0.000051
C78	C	2.176063	0.423697	0.500051
H79	H	1.578910	-0.046700	0.055891
H80	H	2.078910	0.453300	0.555891
H81	H	1.749822	-0.035606	0.085690
H82	H	2.249822	0.464394	0.585690
H83	H	1.682377	-0.040001	-0.141458
H84	H	2.182377	0.459999	0.358542
H85	H	1.385329	-0.225059	-0.000001
H86	H	1.885329	0.274941	0.499999
H87	H	1.381100	-0.385552	0.000013
H88	H	1.881100	0.114448	0.500013
