data_functionalizedCrystal
_audit_creation_method	'MofGen! by Chris Wilmer'
_symmetry_space_group_name_H-M	'P1'
_symmetry_Int_Tables_number	1
_symmetry_cell_setting	triclinic
loop_
_symmetry_equiv_pos_as_xyz
  x,y,z
_cell_length_a	12.837943
_cell_length_b	11.792241
_cell_length_c	11.295663
_cell_angle_alpha	94.129270
_cell_angle_beta	85.468589
_cell_angle_gamma	89.511178
loop_
_atom_site_label
_atom_site_type_symbol
_atom_site_fract_x
_atom_site_fract_y
_atom_site_fract_z
O1	O	1.370171	0.302118	0.099009
O2	O	1.068283	0.287534	0.099014
O3	O	1.226554	0.130398	0.099003
O4	O	1.211901	0.459254	0.099020
O5	O	1.240426	0.116618	-0.099043
O6	O	1.082155	0.273754	-0.099032
O7	O	1.384043	0.288338	-0.099037
Cu8	Cu	1.234366	0.279788	-0.117118
Cu9	Cu	1.217961	0.296084	0.117095
O10	O	1.225773	0.445474	-0.099026
C11	C	1.036571	0.275717	-0.000008
C12	C	0.921411	0.261024	-0.000006
C13	C	1.232569	0.081123	-0.000020
C14	C	1.229815	-0.045170	-0.000018
C15	C	1.224748	-0.276394	0.000002
C16	C	1.227563	-0.147724	-0.000009
C17	C	1.415755	0.300155	-0.000012
C18	C	1.530915	0.314849	-0.000007
C19	C	1.770882	0.138201	-0.000028
C20	C	1.879085	0.152003	-0.000023
C21	C	1.855526	0.356251	0.000001
C22	C	1.747323	0.342449	-0.000004
C23	C	1.705005	0.233422	-0.000017
C24	C	1.596799	0.219622	-0.000014
C25	C	1.573244	0.423868	0.000001
C26	C	1.681447	0.437670	0.000007
C27	C	1.219757	0.494748	-0.000001
C28	C	1.222511	0.621042	0.000006
N29	N	1.245912	0.268326	-0.281850
C30	C	1.329132	0.185774	-0.468842
C31	C	1.320384	0.194442	-0.344181
C32	C	1.180185	0.333548	-0.344189
C33	C	1.188933	0.324880	-0.468849
C34	C	1.263408	0.250989	-0.531172
C35	C	1.272150	0.242315	-0.655835
C36	C	1.131956	0.381427	-0.655840
C37	C	1.123209	0.390095	-0.531179
N38	N	1.206423	0.307538	0.281827
H39	H	1.562346	0.130846	-0.000020
H40	H	1.389765	0.125601	-0.519586
N41	N	1.946362	0.054725	-0.000044
N42	N	1.908560	-0.042610	-0.000063
H43	H	1.956075	-0.111318	-0.000081
N44	N	1.898771	0.467607	-0.000017
N45	N	1.962368	0.492275	-0.083504
H46	H	1.992912	0.570921	-0.083521
H47	H	1.332788	0.182147	-0.706576
H48	H	1.736425	0.049427	-0.000027
N49	N	1.104112	0.409027	-0.280535
N50	N	1.045434	0.467254	-0.336197
H51	H	0.991708	0.520565	-0.291242
H52	H	1.373904	0.141339	-0.293436
N53	N	1.064801	0.448052	-0.719486
N54	N	0.967948	0.437034	-0.705567
H55	H	0.920516	0.484086	-0.750515
H56	H	1.062575	0.450259	-0.480422
H57	H	1.715918	0.526437	0.000013
H58	H	1.519595	0.501404	0.000011
