data_functionalizedCrystal
_audit_creation_method	'MofGen! by Chris Wilmer'
_symmetry_space_group_name_H-M	'P1'
_symmetry_Int_Tables_number	1
_symmetry_cell_setting	triclinic
loop_
_symmetry_equiv_pos_as_xyz
  x,y,z
_cell_length_a	29.839131
_cell_length_b	12.645331
_cell_length_c	12.645323
_cell_angle_alpha	90.022676
_cell_angle_beta	89.967288
_cell_angle_gamma	89.959601
loop_
_atom_site_label
_atom_site_type_symbol
_atom_site_fract_x
_atom_site_fract_y
_atom_site_fract_z
Zn1	Zn	-0.178862	-1.620556	-0.599388
Zn2	Zn	-0.253994	-1.620365	-0.422104
Zn3	Zn	-0.178877	-1.443271	-0.422133
Zn4	Zn	-0.253964	-1.443179	-0.599320
O5	O	-0.216424	-1.531843	-0.510736
O6	O	-0.188834	-1.768878	-0.575888
O7	O	-0.244048	-1.596831	-0.273761
O8	O	-0.116008	-1.466907	-0.445687
O9	O	-0.244033	-1.768737	-0.445638
O10	O	-0.115997	-1.597158	-0.575916
O11	O	-0.188860	-1.466721	-0.273782
O12	O	-0.188832	-1.294912	-0.445620
O13	O	-0.243983	-1.466751	-0.747676
O14	O	-0.243998	-1.294844	-0.575799
O15	O	-0.188806	-1.597069	-0.747727
O16	O	-0.316857	-1.596742	-0.445571
O17	O	-0.316835	-1.466565	-0.575771
C18	C	-0.216414	-1.256413	-0.510706
C19	C	-0.216420	-1.138583	-0.510718
C20	C	-0.333147	-1.531651	-0.510684
C21	C	-0.383081	-1.531667	-0.510697
C22	C	-0.216390	-1.531921	-0.787242
C23	C	-0.216375	-1.531954	-0.905072
C24	C	-0.692723	-1.599749	-0.443041
C25	C	-0.880396	-1.599880	-0.443082
O26	O	-0.904660	-1.657615	-0.385518
N27	N	-0.903866	-1.532063	-0.510816
C28	C	-0.880415	-1.464212	-0.578550
O29	O	-0.904684	-1.406540	-0.636171
C30	C	-0.692743	-1.464088	-0.578514
C31	C	-0.669275	-1.531902	-0.510767
C32	C	-0.669256	-1.667559	-0.375300
C33	C	-0.622340	-1.667522	-0.375287
C34	C	-0.598892	-1.599674	-0.443013
C35	C	-0.622360	-1.531865	-0.510753
C36	C	-0.669293	-1.396244	-0.646252
C37	C	-0.622372	-1.396220	-0.646239
C38	C	-0.598904	-1.464035	-0.578492
C39	C	-0.551997	-1.463980	-0.578466
N40	N	-0.528527	-1.531798	-0.510732
C41	C	-0.551975	-1.599645	-0.443005
C42	C	-0.978946	-1.464281	-0.578563
C43	C	-1.025864	-1.464311	-0.578571
C44	C	-1.025842	-1.599980	-0.443104
C45	C	-0.978923	-1.599945	-0.443091
C46	C	-0.955476	-1.532099	-0.510829
C47	C	-0.453449	-1.599560	-0.442981
C48	C	-0.406529	-1.599514	-0.442970
C49	C	-0.406555	-1.463849	-0.578441
C50	C	-0.453471	-1.463891	-0.578448
C51	C	-0.476916	-1.531755	-0.510715
O52	O	-0.527704	-1.406284	-0.636009
O53	O	-0.527697	-1.657325	-0.385409
C54	C	-0.739639	-1.599787	-0.443054
C55	C	-0.763106	-1.531977	-0.510794
C56	C	-0.739659	-1.464130	-0.578521
C57	C	-0.810024	-1.532007	-0.510802
C58	C	-0.833472	-1.599854	-0.443076
C59	C	-0.810002	-1.667672	-0.375341
C60	C	-0.763087	-1.667634	-0.375328
C61	C	-0.763129	-1.396312	-0.646256
C62	C	-0.810044	-1.396354	-0.646263
C63	C	-0.833492	-1.464202	-0.578536
C64	C	-0.099246	-1.532064	-0.510812
C65	C	-0.049312	-1.532158	-0.510845
C66	C	-0.216435	-1.808348	-0.510768
C67	C	-0.216440	-1.926178	-0.510781
C68	C	-0.181555	-0.971026	-0.429274
C69	C	-0.181645	-1.093586	-0.428915
C70	C	-0.263746	-1.094017	-0.480188
C71	C	-0.263555	-0.971418	-0.479632
C72	C	-0.204409	-0.971445	-0.623006
C73	C	-0.203352	-1.094052	-0.622382
C74	C	-0.250923	-1.449718	-1.072604
C75	C	-0.251094	-1.449934	-0.950044
C76	C	-0.229224	-1.643641	-0.949588
C77	C	-0.229441	-1.643190	-1.072186
C78	C	-0.168784	-1.503559	-1.072285
C79	C	-0.169069	-1.501067	-0.949679
C80	C	-0.216427	-1.531826	-0.235307
C81	C	-0.216315	-1.531998	-0.117477
H82	H	-0.387423	-1.654736	-0.387799
N83	N	-0.694544	-1.740737	-0.302245
H84	H	-0.686341	-1.816467	-0.318773
H85	H	-0.686392	-1.724207	-0.226519
H86	H	-0.286331	-1.468704	-0.920719
N87	N	-0.478783	-1.390741	-0.651510
H88	H	-0.498214	-1.433812	-0.700685
H89	H	-0.498259	-1.341667	-0.608317
N90	N	-0.299157	-0.932109	-0.554813
H91	H	-0.299312	-0.852239	-0.555035
H92	H	-0.292546	-0.958935	-0.628430
H93	H	-0.603236	-1.722745	-0.320125
H94	H	-0.189419	-0.940171	-0.346601
N95	N	-0.478732	-1.672755	-0.369928
H96	H	-0.456741	-1.715700	-0.327017
H97	H	-0.498231	-1.629646	-0.320831
H98	H	-0.204814	-1.706588	-0.920460
N99	N	-1.051173	-1.391151	-0.651622
H100	H	-1.029195	-1.348169	-0.694522
H101	H	-1.070608	-1.434282	-0.700729
N102	N	-0.835301	-1.740841	-0.302290
H103	H	-0.854734	-1.789952	-0.345429
H104	H	-0.813292	-1.783732	-0.259380
N105	N	-0.953613	-1.673090	-0.370027
H106	H	-0.975591	-1.716070	-0.327126
H107	H	-0.934116	-1.722118	-0.413221
H108	H	-0.243054	-1.367112	-0.919945
N109	N	-0.238061	-0.932995	-0.703443
H110	H	-0.222130	-0.891089	-0.760087
H111	H	-0.253603	-0.995680	-0.736631
H112	H	-0.242960	-1.366652	-1.102080
H113	H	-0.688392	-1.341017	-0.701414
N114	N	-0.835355	-1.323213	-0.719339
H115	H	-0.854857	-1.274119	-0.676227
H116	H	-0.813351	-1.280301	-0.762228
N117	N	-0.192183	-1.132355	-0.318758
H118	H	-0.220366	-1.176512	-0.320409
H119	H	-0.166432	-1.176677	-0.291868
H120	H	-1.044941	-1.655225	-0.387958
H121	H	-0.959858	-1.409030	-0.633725
N122	N	-0.597083	-1.323045	-0.719303
H123	H	-0.619072	-1.280095	-0.762216
H124	H	-0.577650	-1.273989	-0.676105
N125	N	-0.381261	-1.390666	-0.651479
H126	H	-0.347978	-1.400941	-0.641187
H127	H	-0.389431	-1.407133	-0.727209
N128	N	-0.737778	-1.740783	-0.302264
H129	H	-0.759758	-1.783767	-0.259371
H130	H	-0.718281	-1.789809	-0.345459
H131	H	-0.285940	-1.468306	-1.103412
N132	N	-0.157219	-1.132631	-0.652880
H133	H	-0.144832	-1.178764	-0.594617
H134	H	-0.159203	-1.174898	-0.720498
H135	H	-0.142999	-1.563489	-1.101307
N136	N	-0.737842	-1.323128	-0.719304
H137	H	-0.759833	-1.280176	-0.762209
H138	H	-0.718412	-1.274075	-0.676098
N139	N	-0.156226	-1.392203	-0.911131
H140	H	-0.151547	-1.343879	-0.973741
H141	H	-0.180957	-1.363097	-0.864950
N142	N	-0.135160	-1.133514	-0.454255
H143	H	-0.114426	-1.071474	-0.465759
H144	H	-0.123768	-1.177745	-0.393448
H145	H	-0.146356	-0.941597	-0.448207
H146	H	-0.226907	-1.124687	-0.686360
N147	N	-0.277487	-1.134595	-0.372672
H148	H	-0.282306	-1.072922	-0.323169
H149	H	-0.306221	-1.176228	-0.379309
H150	H	-0.273757	-0.942763	-0.397590
N151	N	-0.275464	-1.675126	-1.110080
H152	H	-0.295420	-1.689363	-1.047145
H153	H	-0.288718	-1.616150	-1.153914
H154	H	-0.290432	-1.123160	-0.537689
N155	N	-0.159497	-0.930564	-0.659791
H156	H	-0.146494	-0.882278	-0.604074
H157	H	-0.138520	-0.992089	-0.671999
N158	N	-0.197510	-1.727156	-1.111520
H159	H	-0.183357	-1.764302	-1.049216
H160	H	-0.214478	-1.780178	-1.155807
N161	N	-0.274766	-1.676132	-0.908925
H162	H	-0.297931	-1.622818	-0.932396
H163	H	-0.282696	-1.748114	-0.938020
N164	N	-0.153265	-1.397560	-1.113209
H165	H	-0.151458	-1.399790	-1.192938
H166	H	-0.175245	-1.341050	-1.090807
N167	N	-0.133104	-1.574650	-0.909137
H168	H	-0.147029	-1.629298	-0.861069
H169	H	-0.118147	-1.611165	-0.970830
