data_functionalizedCrystal
_audit_creation_method	'MofGen! by Chris Wilmer'
_symmetry_space_group_name_H-M	'P1'
_symmetry_Int_Tables_number	1
_symmetry_cell_setting	triclinic
loop_
_symmetry_equiv_pos_as_xyz
  x,y,z
_cell_length_a	16.109318
_cell_length_b	16.053789
_cell_length_c	16.109301
_cell_angle_alpha	92.890227
_cell_angle_beta	83.465022
_cell_angle_gamma	92.885241
loop_
_atom_site_label
_atom_site_type_symbol
_atom_site_fract_x
_atom_site_fract_y
_atom_site_fract_z
O1	O	1.106246	0.069363	0.110058
O2	O	0.864187	0.069380	0.123343
O3	O	0.991865	0.069362	-0.004330
O4	O	0.978567	0.069380	0.237732
O5	O	0.985603	-0.069497	-0.010585
O6	O	0.857924	-0.069479	0.117088
O7	O	1.099983	-0.069497	0.103803
Zn8	Zn	0.977959	-0.091535	0.109453
Zn9	Zn	0.986211	0.091418	0.117694
O10	O	0.972304	-0.069479	0.231477
C11	C	0.830081	-0.000047	0.119675
C12	C	0.737786	-0.000041	0.118055
C13	C	0.442126	0.075636	0.116229
C14	C	0.528847	0.075641	0.117746
C15	C	0.522038	-0.075751	0.110915
C16	C	0.435319	-0.075755	0.109392
C17	C	0.395365	-0.000059	0.112053
C18	C	0.568805	-0.000050	0.115094
C19	C	0.662832	-0.000045	0.116740
C20	C	0.301332	-0.000064	0.110406
N21	N	0.972334	-0.216396	0.103828
C22	C	1.020773	-0.260086	0.152306
C23	C	1.016850	-0.347493	0.148366
C24	C	0.964481	-0.391208	0.095951
C25	C	0.916039	-0.347512	0.047467
C26	C	0.919968	-0.260106	0.051403
C27	C	0.947330	-0.652619	0.078765
C28	C	0.943403	-0.740031	0.074834
C29	C	1.044215	-0.740006	0.175732
C30	C	1.048135	-0.652599	0.179667
C31	C	0.999697	-0.608910	0.131180
N32	N	0.960467	-0.480552	0.091924
N33	N	1.003716	-0.519567	0.135203
C34	C	1.134089	-0.000067	0.107471
C35	C	1.226383	-0.000068	0.109092
C36	C	0.988195	-0.000068	-0.038433
C37	C	0.986580	-0.000069	-0.130728
N38	N	0.991843	0.216279	0.123312
C39	C	1.058588	-0.000061	-0.352996
C40	C	1.057064	-0.000054	-0.439716
C41	C	0.905577	-0.000046	-0.419851
C42	C	0.907101	-0.000047	-0.333132
C43	C	0.983609	-0.000059	-0.299707
C44	C	0.980561	-0.000051	-0.473146
C45	C	0.978908	-0.000043	-0.567172
C46	C	0.985262	-0.000065	-0.205675
C47	C	0.975974	-0.000047	0.265579
C48	C	0.977590	-0.000040	0.357875
H49	H	0.566917	0.137280	0.121146
N50	N	1.104628	-0.605453	0.236192
H51	H	1.070053	-0.569187	0.278509
H52	H	1.134710	-0.646450	0.266245
N53	N	1.096458	-0.787126	0.228025
H54	H	1.086025	-0.849131	0.217580
H55	H	1.157613	-0.771843	0.212308
N56	N	0.823061	-0.000037	-0.455902
H57	H	0.833470	-0.000040	-0.518925
H58	H	0.787933	-0.051513	-0.438728
N59	N	1.137933	-0.000055	-0.497192
H60	H	1.186628	-0.000063	-0.462856
H61	H	1.138278	-0.051531	-0.535930
H62	H	0.846041	-0.000043	-0.289741
H63	H	0.409598	0.137272	0.118394
N64	N	1.077263	-0.212947	0.208839
H65	H	1.119595	-0.176682	0.174288
H66	H	1.042628	-0.176729	0.251147
N67	N	0.565131	-0.157391	0.108052
H68	H	0.627163	-0.145904	0.109655
H69	H	0.541729	-0.190443	0.157805
H70	H	0.397244	-0.137399	0.105990
N71	N	0.859556	-0.394665	-0.009063
H72	H	0.799747	-0.379456	0.007999
H73	H	0.876729	-0.379444	-0.068846
N74	N	1.141102	-0.000072	-0.316942
H75	H	1.188369	-0.000071	-0.363862
H76	H	1.147355	0.051404	-0.279070
H77	H	0.900753	-0.775621	0.032152
H78	H	0.907888	-0.617058	0.039283
H79	H	1.056296	-0.383062	0.187840
H80	H	0.880523	-0.224535	0.011927
