data_functionalizedCrystal
_audit_creation_method	'MofGen! by Chris Wilmer'
_symmetry_space_group_name_H-M	'P1'
_symmetry_Int_Tables_number	1
_symmetry_cell_setting	triclinic
loop_
_symmetry_equiv_pos_as_xyz
  x,y,z
_cell_length_a	14.519709
_cell_length_b	10.654550
_cell_length_c	9.130313
_cell_angle_alpha	90.004369
_cell_angle_beta	89.997908
_cell_angle_gamma	84.082538
loop_
_atom_site_label
_atom_site_type_symbol
_atom_site_fract_x
_atom_site_fract_y
_atom_site_fract_z
O1	O	-1.224720	-0.164623	-0.121608
O2	O	-0.724720	0.335377	0.378392
O3	O	-0.956343	-0.184009	-0.121653
O4	O	-0.456343	0.315991	0.378347
O5	O	-1.096702	0.008483	-0.121620
O6	O	-0.596702	0.508483	0.378380
O7	O	-1.084361	-0.357115	-0.121641
O8	O	-0.584361	0.142885	0.378359
O9	O	-1.096692	0.008488	0.121979
O10	O	-0.596692	0.508488	0.621979
O11	O	-0.956334	-0.184004	0.121946
O12	O	-0.456334	0.315996	0.621946
O13	O	-1.224710	-0.164617	0.121991
O14	O	-0.724710	0.335383	0.621991
Cu15	Cu	-1.090521	-0.174310	0.144211
Cu16	Cu	-0.590521	0.325690	0.644211
Cu17	Cu	-1.090532	-0.174317	-0.143873
Cu18	Cu	-0.590532	0.325683	0.356127
O19	O	-1.084351	-0.357109	0.121958
O20	O	-0.584351	0.142891	0.621958
C21	C	-0.921974	-0.183103	0.000141
C22	C	-0.421974	0.316897	0.500141
C23	C	-0.819579	-0.180396	0.000124
C24	C	-0.319579	0.319604	0.500124
C25	C	-1.095791	0.055275	0.000178
C26	C	-0.595791	0.555275	0.500178
C27	C	-1.093080	0.194692	0.000176
C28	C	-0.593080	0.694692	0.500176
C29	C	-1.259079	-0.165524	0.000194
C30	C	-0.759079	0.334476	0.500194
C31	C	-1.361475	-0.168231	0.000201
C32	C	-0.861475	0.331769	0.500201
C33	C	-0.444631	-0.170428	0.000191
C34	C	0.055369	0.329572	0.500191
C35	C	-0.548954	-0.173196	0.000172
C36	C	-0.048954	0.326804	0.500172
C37	C	-0.632102	-0.175412	0.000156
C38	C	-0.132102	0.324588	0.500156
C39	C	-0.736431	-0.178180	0.000140
C40	C	-0.236431	0.321820	0.500140
C41	C	-1.085262	-0.403901	0.000156
C42	C	-0.585262	0.096099	0.500156
C43	C	-1.087973	-0.543318	0.000150
C44	C	-0.587973	-0.043318	0.500150
N45	N	-1.090520	-0.174305	0.346834
N46	N	-0.590520	0.325695	0.846834
C47	C	-1.175721	0.274972	0.000189
C48	C	-0.675721	0.774972	0.500189
C49	C	-1.173168	0.405968	0.000171
C50	C	-0.673168	0.905968	0.500171
C51	C	-1.005326	0.376391	0.000132
C52	C	-0.505326	0.876391	0.500132
C53	C	-1.007880	0.245397	0.000140
C54	C	-0.507880	0.745397	0.500140
N55	N	-1.090541	-0.174312	-0.346496
N56	N	-0.590541	0.325688	0.153504
C57	C	-1.152692	-0.089105	0.423500
C58	C	-0.652692	0.410895	0.923500
C59	C	-1.152701	-0.089105	0.576837
C60	C	-0.652701	0.410895	1.076837
C61	C	-1.028362	-0.259516	0.576827
C62	C	-0.528362	0.240484	1.076827
C63	C	-1.028350	-0.259509	0.423493
C64	C	-0.528350	0.240491	0.923493
H65	H	-1.245096	0.233692	0.000215
H66	H	-0.745096	0.733692	0.500215
H67	H	-0.977717	-0.328889	0.361067
H68	H	-0.477717	0.171111	0.861067
N69	N	-0.961316	-0.351409	0.659523
N70	N	-0.461316	0.148591	1.159523
H71	H	-0.996915	-0.407127	0.723123
H72	H	-0.496915	0.092873	1.223123
H73	H	-0.921940	-0.405296	0.587596
H74	H	-0.421940	0.094704	1.087596
H75	H	-1.203325	-0.019726	0.639254
H76	H	-0.703325	0.480274	1.139254
N77	N	-1.262307	0.492548	0.000198
N78	N	-0.762307	0.992548	0.500198
H79	H	-1.264979	0.547568	0.090495
H80	H	-0.764979	1.047568	0.590495
H81	H	-1.264947	0.547464	-0.090169
H82	H	-0.764947	1.047464	0.409831
H83	H	-0.940579	0.180029	0.000125
H84	H	-0.440579	0.680029	0.500125
N85	N	-0.913436	0.431082	0.000100
N86	N	-0.413436	0.931082	0.500100
H87	H	-0.924356	0.526248	0.000102
H88	H	-0.424356	1.026248	0.500102
H89	H	-0.877232	0.401733	0.090399
H90	H	-0.377232	0.901733	0.590399
H91	H	-1.203313	-0.019725	0.361087
H92	H	-0.703313	0.480275	0.861087
