data_functionalizedCrystal
_audit_creation_method	'MofGen! by Chris Wilmer'
_symmetry_space_group_name_H-M	'P1'
_symmetry_Int_Tables_number	1
_symmetry_cell_setting	triclinic
loop_
_symmetry_equiv_pos_as_xyz
  x,y,z
_cell_length_a	10.654554
_cell_length_b	17.038272
_cell_length_c	9.730223
_cell_angle_alpha	89.998176
_cell_angle_beta	89.999030
_cell_angle_gamma	87.799199
loop_
_atom_site_label
_atom_site_type_symbol
_atom_site_fract_x
_atom_site_fract_y
_atom_site_fract_z
O1	O	1.678035	0.109892	-0.114316
O2	O	1.313528	0.120357	-0.114314
O3	O	1.493615	0.001297	-0.114304
O4	O	1.497948	0.228952	-0.114326
O5	O	1.493613	0.001300	0.114276
O6	O	1.313527	0.120360	0.114266
O7	O	1.678033	0.109895	0.114264
Zn8	Zn	1.495779	0.115128	0.150557
Zn9	Zn	1.495782	0.115124	-0.150607
O10	O	1.497946	0.228955	0.114254
C11	C	1.266658	0.119589	-0.000023
C12	C	1.127002	0.117288	-0.000022
C13	C	0.937529	0.042860	-0.000033
C14	C	1.068751	0.045022	-0.000019
C15	C	1.054023	0.187397	-0.000025
C16	C	0.922803	0.185235	-0.000029
C17	C	0.946033	-0.039339	-0.000035
C18	C	1.077256	-0.037177	-0.000022
C19	C	1.489673	-0.027852	-0.000014
C20	C	1.477916	-0.114710	-0.000015
C21	C	1.585860	-0.164220	-0.000014
C22	C	1.574806	-0.245833	-0.000027
C23	C	1.455806	-0.277934	-0.000031
C24	C	1.347854	-0.228417	-0.000036
C25	C	1.358910	-0.146806	-0.000032
C26	C	1.416748	-0.523910	-0.000049
C27	C	1.405701	-0.605527	-0.000048
C28	C	1.632654	-0.622937	-0.000042
C29	C	1.643699	-0.541324	-0.000031
C30	C	1.535747	-0.491815	-0.000043
C31	C	1.444504	-0.361354	-0.000040
C32	C	1.547050	-0.408396	-0.000044
C33	C	1.724903	0.110663	-0.000030
C34	C	1.864559	0.112964	-0.000040
C35	C	1.501888	0.258104	-0.000039
C36	C	1.513645	0.344963	-0.000048
N37	N	1.495787	0.115130	0.356093
N38	N	1.495784	0.115116	-0.356143
C39	C	1.575553	0.062429	0.428024
C40	C	1.575548	0.062419	0.571907
C41	C	1.416009	0.167820	0.571916
C42	C	1.416008	0.167825	0.428036
C43	C	1.667666	0.001579	0.428019
C44	C	1.667661	0.001569	0.571902
H45	H	1.682763	-0.138091	-0.000002
H46	H	1.328845	-0.483609	-0.000059
H47	H	1.631872	-0.055253	0.616523
Br48	Br	0.882587	-0.082961	-0.164533
H49	H	1.760618	0.020633	0.383390
Br50	Br	1.149491	-0.078567	0.164485
H51	H	1.765417	0.014974	0.610951
Br52	Br	1.142074	-0.088782	-0.159461
H53	H	1.351044	0.210732	0.369471
Br54	Br	1.622624	-0.098638	0.362922
Br55	Br	1.307739	0.239329	0.669559
Br56	Br	1.721309	-0.313023	-0.000026
H57	H	0.863395	0.242320	-0.000019
H58	H	1.250962	-0.254560	-0.000047
H59	H	1.720542	-0.663256	-0.000035
Br60	Br	1.133075	0.285474	-0.000008
Br61	Br	1.805204	-0.497765	-0.000070
H62	H	1.308792	-0.631660	-0.000029
Br63	Br	1.212408	-0.079612	-0.000044
Br64	Br	0.892103	-0.092919	0.159392
Br65	Br	1.283008	-0.404926	-0.000058
H66	H	1.643939	-0.382256	-0.000071
