data_functionalizedCrystal
_audit_creation_method	'MofGen! by Chris Wilmer'
_symmetry_space_group_name_H-M	'P1'
_symmetry_Int_Tables_number	1
_symmetry_cell_setting	triclinic
loop_
_symmetry_equiv_pos_as_xyz
  x,y,z
_cell_length_a	16.625548
_cell_length_b	29.839131
_cell_length_c	16.625539
_cell_angle_alpha	89.962116
_cell_angle_beta	89.982945
_cell_angle_gamma	90.036296
loop_
_atom_site_label
_atom_site_type_symbol
_atom_site_fract_x
_atom_site_fract_y
_atom_site_fract_z
Zn1	Zn	1.232581	-0.178848	-0.455845
Zn2	Zn	1.565914	0.154485	-0.122512
Zn3	Zn	1.899248	0.487819	0.210821
Zn4	Zn	1.232462	-0.253976	-0.320985
Zn5	Zn	1.565796	0.079357	0.012348
Zn6	Zn	1.899129	0.412690	0.345681
Zn7	Zn	1.097751	-0.178863	-0.321026
Zn8	Zn	1.431084	0.154471	0.012308
Zn9	Zn	1.764418	0.487804	0.345641
Zn10	Zn	1.097683	-0.253953	-0.455775
Zn11	Zn	1.431017	0.079380	-0.122442
Zn12	Zn	1.764350	0.412714	0.210891
O13	O	1.165119	-0.216410	-0.388408
O14	O	1.498453	0.116923	-0.055075
O15	O	1.831786	0.450257	0.278259
O16	O	1.345398	-0.188818	-0.437968
O17	O	1.678731	0.144516	-0.104635
O18	O	2.012064	0.477849	0.228698
O19	O	1.214571	-0.244028	-0.208158
O20	O	1.547905	0.089305	0.125175
O21	O	1.881238	0.422638	0.458508
O22	O	1.115715	-0.115994	-0.338956
O23	O	1.449048	0.217340	-0.005623
O24	O	1.782381	0.550673	0.327711
O25	O	1.345311	-0.244014	-0.338887
O26	O	1.678644	0.089319	-0.005554
O27	O	2.011977	0.422653	0.327779
O28	O	1.214774	-0.115983	-0.438007
O29	O	1.548107	0.217351	-0.104674
O30	O	1.881440	0.550684	0.228659
O31	O	1.115600	-0.188843	-0.208188
O32	O	1.448933	0.144491	0.125145
O33	O	1.782266	0.477824	0.458479
O34	O	0.984910	-0.188820	-0.338888
O35	O	1.318243	0.144513	-0.005555
O36	O	1.651576	0.477847	0.327778
O37	O	1.115599	-0.243974	-0.568617
O38	O	1.448932	0.089359	-0.235284
O39	O	1.782266	0.422692	0.098050
O40	O	0.984860	-0.243989	-0.437888
O41	O	1.318193	0.089345	-0.104555
O42	O	1.651527	0.422678	0.228779
O43	O	1.214708	-0.188795	-0.568668
O44	O	1.548041	0.144538	-0.235335
O45	O	1.881374	0.477872	0.097998
O46	O	1.214506	-0.316841	-0.338820
O47	O	1.547839	0.016493	-0.005486
O48	O	1.881172	0.349826	0.327847
O49	O	1.115484	-0.316823	-0.437849
O50	O	1.448817	0.016510	-0.104516
O51	O	1.782151	0.349843	0.228818
C52	C	0.955629	-0.216404	-0.388385
C53	C	1.288962	0.116930	-0.055052
C54	C	1.622295	0.450263	0.278281
C55	C	0.866007	-0.216412	-0.388395
C56	C	1.199341	0.116922	-0.055062
C57	C	1.532674	0.450255	0.278272
C58	C	0.537832	-0.216415	-0.388429
C59	C	0.871165	0.116919	-0.055096
C60	C	1.204498	0.450252	0.278237
C61	C	0.629140	-0.216413	-0.388417
C62	C	0.962474	0.116921	-0.055084
C63	C	1.295807	0.450254	0.278249
C64	C	0.701917	-0.216413	-0.388411
C65	C	1.035250	0.116920	-0.055078
C66	C	1.368583	0.450253	0.278255
C67	C	0.793231	-0.216411	-0.388401
C68	C	1.126564	0.116922	-0.055067
C69	C	1.459898	0.450256	0.278266
C70	C	1.164996	-0.333133	-0.388340
C71	C	1.498330	0.000201	-0.055007
C72	C	1.831663	0.333534	0.278327
C73	C	1.165018	-0.383067	-0.388338
C74	C	1.498351	-0.049734	-0.055005
C75	C	1.831684	0.283600	0.278329
C76	C	1.216688	-0.692670	-0.440057
C77	C	1.550022	-0.359337	-0.106724
C78	C	1.883355	-0.026003	0.226609
C79	C	1.216776	-0.880343	-0.440106
C80	C	1.550109	-0.547010	-0.106773
C81	C	1.883442	-0.213676	0.226561
O82	O	1.260587	-0.904573	-0.484029
O83	O	1.593921	-0.571240	-0.150696
O84	O	1.927254	-0.237907	0.182637
N85	N	1.165256	-0.903852	-0.388497
N86	N	1.498590	-0.570519	-0.055164
N87	N	1.831923	-0.237185	0.278169
C88	C	1.113708	-0.880440	-0.336877
C89	C	1.447041	-0.547107	-0.003544
C90	C	1.780374	-0.213773	0.329790
O91	O	1.069884	-0.904742	-0.292988
O92	O	1.403217	-0.571409	0.040346
O93	O	1.736550	-0.238076	0.373679
C94	C	1.113617	-0.692768	-0.336833
C95	C	1.446950	-0.359435	-0.003500
C96	C	1.780283	-0.026101	0.329834
C97	C	1.165145	-0.669261	-0.388439
C98	C	1.498479	-0.335928	-0.055106
C99	C	1.831812	-0.002595	0.278227
C100	C	1.268212	-0.669163	-0.491660
C101	C	1.601545	-0.335830	-0.158327
C102	C	1.934878	-0.002497	0.175007
C103	C	1.268193	-0.622248	-0.491644
C104	C	1.601526	-0.288914	-0.158311
C105	C	1.934859	0.044419	0.175022
C106	C	1.216650	-0.598839	-0.440026
C107	C	1.549983	-0.265506	-0.106693
C108	C	1.883316	0.067828	0.226641
C109	C	1.165126	-0.622346	-0.388423
C110	C	1.498459	-0.289012	-0.055090
C111	C	1.831793	0.044321	0.278243
C112	C	1.062065	-0.669357	-0.285217
C113	C	1.395398	-0.336023	0.048116
C114	C	1.728731	-0.002690	0.381449
C115	C	1.062045	-0.622436	-0.285212
C116	C	1.395378	-0.289102	0.048121
C117	C	1.728712	0.044231	0.381454
C118	C	1.113574	-0.598929	-0.336818
C119	C	1.446907	-0.265596	-0.003485
C120	C	1.780240	0.067738	0.329848
C121	C	1.113564	-0.552022	-0.336790
C122	C	1.446897	-0.218688	-0.003456
C123	C	1.780230	0.114645	0.329877
N124	N	1.165083	-0.528512	-0.388398
N125	N	1.498416	-0.195179	-0.055065
N126	N	1.831750	0.138154	0.278269
C127	C	1.216626	-0.551921	-0.440016
C128	C	1.549959	-0.218588	-0.106683
C129	C	1.883293	0.114745	0.226650
C130	C	1.113760	-0.978971	-0.336902
C131	C	1.447094	-0.645637	-0.003569
C132	C	1.780427	-0.312304	0.329764
C133	C	1.113784	-1.025889	-0.336912
C134	C	1.447117	-0.692555	-0.003579
C135	C	1.780451	-0.359222	0.329754
C136	C	1.216851	-1.025788	-0.440142
C137	C	1.550184	-0.692455	-0.106809
C138	C	1.883518	-0.359121	0.226524
C139	C	1.216831	-0.978869	-0.440128
C140	C	1.550164	-0.645536	-0.106795
C141	C	1.883498	-0.312203	0.226539
C142	C	1.165280	-0.955462	-0.388511
C143	C	1.498613	-0.622128	-0.055178
C144	C	1.831946	-0.288795	0.278156
C145	C	1.216582	-0.453395	-0.439979
C146	C	1.549915	-0.120062	-0.106645
C147	C	1.883249	0.213271	0.226688
C148	C	1.216561	-0.406476	-0.439956
C149	C	1.549894	-0.073142	-0.106623
C150	C	1.883227	0.260191	0.226711
C151	C	1.113491	-0.406580	-0.336729
C152	C	1.446824	-0.073247	-0.003396
C153	C	1.780157	0.260086	0.329937
C154	C	1.113515	-0.453496	-0.336749
C155	C	1.446848	-0.120162	-0.003415
C156	C	1.780182	0.213171	0.329918
C157	C	1.165063	-0.476902	-0.388380
C158	C	1.498397	-0.143569	-0.055047
C159	C	1.831730	0.189765	0.278287
O160	O	1.069769	-0.527762	-0.292896
O161	O	1.403102	-0.194429	0.040438
O162	O	1.736435	0.138904	0.373771
O163	O	1.260431	-0.527611	-0.483911
O164	O	1.593764	-0.194278	-0.150578
O165	O	1.927098	0.139056	0.182755
C166	C	1.216707	-0.739585	-0.440073
C167	C	1.550041	-0.406252	-0.106740
C168	C	1.883374	-0.072919	0.226593
C169	C	1.165184	-0.763092	-0.388471
C170	C	1.498517	-0.429759	-0.055137
C171	C	1.831850	-0.096425	0.278196
C172	C	1.113641	-0.739683	-0.336852
C173	C	1.446974	-0.406350	-0.003519
C174	C	1.780308	-0.073017	0.329814
C175	C	1.165207	-0.810010	-0.388480
C176	C	1.498541	-0.476677	-0.055147
C177	C	1.831874	-0.143343	0.278186
C178	C	1.216750	-0.833419	-0.440099
C179	C	1.550084	-0.500085	-0.106765
C180	C	1.883417	-0.166752	0.226568
C181	C	1.268270	-0.809910	-0.491707
C182	C	1.601603	-0.476576	-0.158374
C183	C	1.934936	-0.143243	0.174960
C184	C	1.268250	-0.762994	-0.491691
C185	C	1.601584	-0.429661	-0.158358
C186	C	1.934917	-0.096327	0.174975
C187	C	1.062122	-0.763193	-0.285244
C188	C	1.395455	-0.429859	0.048089
C189	C	1.728788	-0.096526	0.381423
C190	C	1.062146	-0.810108	-0.285263
C191	C	1.395479	-0.476775	0.048070
C192	C	1.728812	-0.143441	0.381403
C193	C	1.113689	-0.833517	-0.336882
C194	C	1.447022	-0.500183	-0.003548
C195	C	1.780355	-0.166850	0.329785
C196	C	1.375428	-0.216417	-0.388431
C197	C	1.708762	0.116916	-0.055098
C198	C	2.042095	0.450250	0.278236
C199	C	1.465049	-0.216420	-0.388441
C200	C	1.798383	0.116914	-0.055108
C201	C	2.131716	0.450247	0.278226
C202	C	1.165159	-0.216380	-0.598717
C203	C	1.498492	0.116953	-0.265384
C204	C	1.831826	0.450286	0.067950
C205	C	1.165176	-0.216368	-0.688338
C206	C	1.498509	0.116966	-0.355005
C207	C	1.831842	0.450299	-0.021671
C208	C	1.165265	-0.099232	-0.388494
C209	C	1.498598	0.234102	-0.055160
C210	C	1.831932	0.567435	0.278173
C211	C	1.165327	-0.049297	-0.388530
C212	C	1.498660	0.284036	-0.055197
C213	C	1.831993	0.617369	0.278136
C214	C	1.165189	-0.216358	-0.761121
C215	C	1.498522	0.116975	-0.427787
C216	C	1.831856	0.450309	-0.094454
C217	C	1.165208	-0.216341	-0.852429
C218	C	1.498541	0.116992	-0.519096
C219	C	1.831874	0.450326	-0.185762
C220	C	1.165227	-0.216325	-0.925206
C221	C	1.498560	0.117008	-0.591872
C222	C	1.831893	0.450341	-0.258539
C223	C	1.165247	-0.216309	-1.016520
C224	C	1.498580	0.117024	-0.683187
C225	C	1.831914	0.450358	-0.349853
C226	C	1.165126	-0.216407	-0.178917
C227	C	1.498460	0.116926	0.154416
C228	C	1.831793	0.450259	0.487750
C229	C	1.165266	-0.216293	-0.089296
C230	C	1.498599	0.117040	0.244037
C231	C	1.831933	0.450373	0.577370
H232	H	1.258524	-0.387338	-0.481980
H233	H	1.591857	-0.054005	-0.148647
H234	H	1.925191	0.279329	0.184687
H235	H	1.258552	-0.472447	-0.482027
H236	H	1.591885	-0.139114	-0.148694
H237	H	1.925219	0.194219	0.184639
Br238	Br	1.338224	-0.841688	-0.561756
Br239	Br	1.671558	-0.508355	-0.228423
Br240	Br	2.004891	-0.175021	0.104911
Br241	Br	1.043596	-0.485399	-0.266699
Br242	Br	1.376929	-0.152065	0.066635
Br243	Br	1.710263	0.181268	0.399968
Br244	Br	1.286765	-0.946972	-0.510167
Br245	Br	1.620098	-0.613639	-0.176834
Br246	Br	1.953431	-0.280306	0.156500
H247	H	1.071527	-0.387514	-0.294700
H248	H	1.404861	-0.054180	0.038634
H249	H	1.738194	0.279153	0.371967
Br250	Br	1.338186	-0.731099	-0.561732
Br251	Br	1.671519	-0.397766	-0.228399
Br252	Br	2.004853	-0.064433	0.104935
H253	H	1.071833	-1.045024	-0.294881
H254	H	1.405166	-0.711690	0.038453
H255	H	1.738500	-0.378357	0.371786
Br256	Br	0.992127	-0.701247	-0.215178
Br257	Br	1.325460	-0.367913	0.118156
Br258	Br	1.658793	-0.034580	0.451489
H259	H	1.310149	-0.603111	-0.533669
H260	H	1.643482	-0.269778	-0.200335
H261	H	1.976816	0.063555	0.132998
Br262	Br	0.992212	-0.842004	-0.215215
Br263	Br	1.325545	-0.508671	0.118119
Br264	Br	1.658879	-0.175337	0.451452
H265	H	1.071780	-0.959915	-0.294868
H266	H	1.405113	-0.626582	0.038466
H267	H	1.738447	-0.293248	0.371799
Br268	Br	1.286803	-1.057566	-0.510195
Br269	Br	1.620136	-0.724233	-0.176862
Br270	Br	1.953469	-0.390899	0.156472
H271	H	1.020148	-0.744137	-0.243211
H272	H	1.353481	-0.410803	0.090122
H273	H	1.686815	-0.077470	0.423456
Br274	Br	0.992077	-0.590671	-0.215158
Br275	Br	1.325410	-0.257337	0.118175
Br276	Br	1.658744	0.075996	0.451509
H277	H	1.310184	-0.688218	-0.533699
H278	H	1.643517	-0.354884	-0.200365
H279	H	1.976851	-0.021551	0.132968
