data_functionalizedCrystal
_audit_creation_method	'MofGen! by Chris Wilmer'
_symmetry_space_group_name_H-M	'P1'
_symmetry_Int_Tables_number	1
_symmetry_cell_setting	triclinic
loop_
_symmetry_equiv_pos_as_xyz
  x,y,z
_cell_length_a	18.215405
_cell_length_b	21.395364
_cell_length_c	21.395355
_cell_angle_alpha	89.975273
_cell_angle_beta	89.980149
_cell_angle_gamma	90.023218
loop_
_atom_site_label
_atom_site_type_symbol
_atom_site_fract_x
_atom_site_fract_y
_atom_site_fract_z
Zn1	Zn	-0.293102	0.957884	-0.354259
Zn2	Zn	0.040231	1.291218	-0.020925
Zn3	Zn	0.373564	1.624551	0.312408
Zn4	Zn	-0.416151	0.957798	-0.249479
Zn5	Zn	-0.082817	1.291131	0.083855
Zn6	Zn	0.250516	1.624464	0.417188
Zn7	Zn	-0.293099	0.853099	-0.249495
Zn8	Zn	0.040235	1.186433	0.083838
Zn9	Zn	0.373568	1.519766	0.417172
Zn10	Zn	-0.416128	0.853079	-0.354218
Zn11	Zn	-0.082795	1.186413	-0.020885
Zn12	Zn	0.250539	1.519746	0.312448
O13	O	-0.354620	0.905465	-0.301863
O14	O	-0.021287	1.238798	0.031471
O15	O	0.312047	1.572132	0.364804
O16	O	-0.309436	1.045551	-0.340369
O17	O	0.023898	1.378884	-0.007036
O18	O	0.357231	1.712217	0.326298
O19	O	-0.399835	0.943881	-0.161803
O20	O	-0.066502	1.277215	0.171530
O21	O	0.266831	1.610548	0.504864
O22	O	-0.190115	0.867044	-0.263416
O23	O	0.143218	1.200377	0.069918
O24	O	0.476552	1.533711	0.403251
O25	O	-0.399839	1.045487	-0.263388
O26	O	-0.066505	1.378820	0.069946
O27	O	0.266828	1.712154	0.403279
O28	O	-0.190118	0.944029	-0.340385
O29	O	0.143216	1.277363	-0.007052
O30	O	0.476549	1.610696	0.326282
O31	O	-0.309430	0.866960	-0.161815
O32	O	0.023903	1.200293	0.171518
O33	O	0.357237	1.533627	0.504852
O34	O	-0.309408	0.765419	-0.263377
O35	O	0.023925	1.098752	0.069957
O36	O	0.357259	1.432085	0.403290
O37	O	-0.399800	0.867010	-0.441902
O38	O	-0.066467	1.200343	-0.108568
O39	O	0.266866	1.533676	0.224765
O40	O	-0.399797	0.765404	-0.340317
O41	O	-0.066464	1.098737	-0.006983
O42	O	0.266870	1.432071	0.326350
O43	O	-0.309414	0.944010	-0.441931
O44	O	0.023919	1.277343	-0.108598
O45	O	0.357253	1.610676	0.224736
O46	O	-0.519132	0.943862	-0.263349
O47	O	-0.185798	1.277195	0.069984
O48	O	0.147535	1.610528	0.403318
O49	O	-0.519115	0.866926	-0.340301
O50	O	-0.185782	1.200259	-0.006968
O51	O	0.147551	1.533592	0.326366
C52	C	-0.354600	0.742678	-0.301845
C53	C	-0.021267	1.076011	0.031489
C54	C	0.312066	1.409344	0.364822
C55	C	-0.354610	0.673036	-0.301852
C56	C	-0.021276	1.006370	0.031482
C57	C	0.312057	1.339703	0.364815
C58	C	-0.545826	0.905399	-0.301832
C59	C	-0.212493	1.238732	0.031501
C60	C	0.120840	1.572066	0.364834
C61	C	-0.627625	0.905428	-0.301841
C62	C	-0.294292	1.238761	0.031493
C63	C	0.039042	1.572095	0.364826
C64	C	-0.401772	0.171249	-0.341886
C65	C	-0.068438	0.504582	-0.008553
C66	C	0.264895	0.837915	0.324780
C67	C	-0.401772	0.236684	-0.341880
C68	C	-0.068438	0.570018	-0.008547
C69	C	0.264895	0.903351	0.324787
C70	C	-0.354636	0.269398	-0.301882
C71	C	-0.021303	0.602731	0.031451
C72	C	0.312031	0.936065	0.364784
C73	C	-0.307510	0.236671	-0.261877
C74	C	0.025823	0.570004	0.071456
C75	C	0.359157	0.903338	0.404789
C76	C	-0.307516	0.171237	-0.261880
C77	C	0.025817	0.504570	0.071453
C78	C	0.359150	0.837903	0.404786
C79	C	-0.288313	0.373081	-0.297033
C80	C	0.045020	0.706414	0.036301
C81	C	0.378353	1.039748	0.369634
C82	C	-0.288306	0.438514	-0.297034
C83	C	0.045028	0.771847	0.036300
C84	C	0.378361	1.105181	0.369633
C85	C	-0.354617	0.471219	-0.301869
C86	C	-0.021283	0.804552	0.031465
C87	C	0.312050	1.137885	0.364798
C88	C	-0.420937	0.438482	-0.306716
C89	C	-0.087604	0.771816	0.026617
C90	C	0.245729	1.105149	0.359951
C91	C	-0.420944	0.373048	-0.306719
C92	C	-0.087610	0.706382	0.026614
C93	C	0.245723	1.039715	0.359948
C94	C	-0.354624	0.340350	-0.301874
C95	C	-0.021291	0.673684	0.031459
C96	C	0.312043	1.007017	0.364792
C97	C	-0.401744	0.574890	-0.341861
C98	C	-0.068410	0.908224	-0.008528
C99	C	0.264923	1.241557	0.324805
C100	C	-0.401745	0.640327	-0.341850
C101	C	-0.068412	0.973660	-0.008517
C102	C	0.264922	1.306994	0.324816
C103	C	-0.307476	0.640312	-0.261851
C104	C	0.025857	0.973646	0.071482
C105	C	0.359190	1.306979	0.404816
C106	C	-0.307482	0.574877	-0.261859
C107	C	0.025852	0.908210	0.071475
C108	C	0.359185	1.241544	0.404808
C109	C	-0.354614	0.542170	-0.301867
C110	C	-0.021281	0.875503	0.031466
C111	C	0.312052	1.208837	0.364800
C112	C	-0.815803	0.945583	-0.261845
C113	C	-0.482470	1.278916	0.071488
C114	C	-0.149137	1.612249	0.404821
C115	C	-0.892662	0.945611	-0.261861
C116	C	-0.559329	1.278944	0.071473
C117	C	-0.225995	1.612277	0.404806
C118	C	-0.892685	0.865428	-0.341925
C119	C	-0.559351	1.198761	-0.008592
C120	C	-0.226018	1.532094	0.324742
C121	C	-0.815827	0.865403	-0.341912
C122	C	-0.482494	1.198737	-0.008579
C123	C	-0.149161	1.532070	0.324754
C124	C	-0.777389	0.905480	-0.301869
C125	C	-0.444055	1.238813	0.031464
C126	C	-0.110722	1.572147	0.364798
C127	C	-0.931105	0.905532	-0.301897
C128	C	-0.597771	1.238866	0.031437
C129	C	-0.264438	1.572199	0.364770
C130	C	-1.014438	0.905562	-0.301913
C131	C	-0.681105	1.238896	0.031420
C132	C	-0.347772	1.572229	0.364753
C133	C	-0.694050	0.905451	-0.301853
C134	C	-0.360716	1.238784	0.031480
C135	C	-0.027383	1.572117	0.364814
C136	C	-0.162667	0.905549	-0.301907
C137	C	0.170666	1.238882	0.031427
C138	C	0.504000	1.572215	0.364760
C139	C	-0.080868	0.905584	-0.301925
C140	C	0.252465	1.238918	0.031408
C141	C	0.585799	1.572251	0.364741
C142	C	-0.354605	0.905517	-0.465286
C143	C	-0.021272	1.238850	-0.131953
C144	C	0.312062	1.572184	0.201381
C145	C	-0.354599	0.905539	-0.534927
C146	C	-0.021265	1.238873	-0.201594
C147	C	0.312068	1.572206	0.131739
C148	C	-0.354640	1.068888	-0.301881
C149	C	-0.021307	1.402222	0.031452
C150	C	0.312026	1.735555	0.364786
C151	C	-0.354649	1.138530	-0.301889
C152	C	-0.021315	1.471863	0.031444
C153	C	0.312018	1.805196	0.364778
C154	C	-0.307532	0.945631	-0.567657
C155	C	0.025801	1.278965	-0.234323
C156	C	0.359134	1.612298	0.099010
C157	C	-0.307501	0.945631	-0.633092
C158	C	0.025833	1.278964	-0.299759
C159	C	0.359166	1.612297	0.033575
C160	C	-0.354549	0.905544	-0.665796
C161	C	-0.021215	1.238878	-0.332462
C162	C	0.312118	1.572211	0.000871
C163	C	-0.401618	0.865444	-0.633058
C164	C	-0.068285	1.198778	-0.299725
C165	C	0.265049	1.532111	0.033608
C166	C	-0.401643	0.865442	-0.567624
C167	C	-0.068310	1.198775	-0.234291
C168	C	0.265024	1.532108	0.099043
C169	C	-0.420812	0.900574	-0.769460
C170	C	-0.087479	1.233907	-0.436127
C171	C	0.245854	1.567241	-0.102793
C172	C	-0.420789	0.900581	-0.834893
C173	C	-0.087455	1.233914	-0.501560
C174	C	0.245878	1.567247	-0.168226
C175	C	-0.354471	0.905548	-0.867616
C176	C	-0.021137	1.238881	-0.534283
C177	C	0.312196	1.572215	-0.200950
C178	C	-0.288175	0.910522	-0.834899
C179	C	0.045159	1.243855	-0.501566
C180	C	0.378492	1.577188	-0.168232
C181	C	-0.288200	0.910519	-0.769465
C182	C	0.045133	1.243853	-0.436132
C183	C	0.378467	1.577186	-0.102798
C184	C	-0.354526	0.905542	-0.736748
C185	C	-0.021193	1.238875	-0.403415
C186	C	0.312140	1.572209	-0.070081
C187	C	-0.307366	0.945641	-0.971299
C188	C	0.025967	1.278975	-0.637965
C189	C	0.359300	1.612308	-0.304632
C190	C	-0.307333	0.945636	-1.036735
C191	C	0.026000	1.278969	-0.703402
C192	C	0.359333	1.612303	-0.370069
C193	C	-0.401457	0.865453	-1.036700
C194	C	-0.068124	1.198786	-0.703367
C195	C	0.265209	1.532120	-0.370033
C196	C	-0.401483	0.865455	-0.971265
C197	C	-0.068150	1.198788	-0.637931
C198	C	0.265183	1.532122	-0.304598
C199	C	-0.354439	0.905553	-0.938568
C200	C	-0.021106	1.238886	-0.605235
C201	C	0.312228	1.572219	-0.271901
C202	C	-0.354582	0.905449	-0.139075
C203	C	-0.021248	1.238783	0.194258
C204	C	0.312085	1.572116	0.527592
C205	C	-0.354381	0.905549	-0.069434
C206	C	-0.021047	1.238882	0.263899
C207	C	0.312286	1.572215	0.597233
H208	H	-0.440153	0.144623	-0.374462
H209	H	-0.106820	0.477956	-0.041129
H210	H	0.226513	0.811289	0.292204
H211	H	-0.784508	0.978216	-0.229241
H212	H	-0.451175	1.311550	0.104093
H213	H	-0.117841	1.644883	0.437426
F214	F	-0.451908	0.540079	-0.384439
F215	F	-0.118575	0.873412	-0.051105
F216	F	0.214759	1.206746	0.282228
H217	H	-0.269141	0.144597	-0.229309
H218	H	0.064192	0.477930	0.104024
H219	H	0.397526	0.811264	0.437357
F220	F	-0.451524	0.822785	-1.071501
F221	F	-0.118191	1.156118	-0.738168
F222	F	0.215143	1.489452	-0.404835
F223	F	-0.451740	0.822768	-0.532790
F224	F	-0.118406	1.156102	-0.199457
F225	F	0.214927	1.489435	0.133877
F226	F	-0.933542	0.988295	-0.219263
F227	F	-0.600209	1.321629	0.114070
F228	F	-0.266876	1.654962	0.447403
F229	F	-0.933600	0.822777	-0.384538
F230	F	-0.600267	1.156110	-0.051205
F231	F	-0.266934	1.489443	0.282129
H232	H	-0.439922	0.832804	-0.659690
H233	H	-0.106589	1.166137	-0.326356
H234	H	0.226744	1.499470	0.006977
H235	H	-0.474934	0.465109	-0.310658
H236	H	-0.141600	0.798442	0.022676
H237	H	0.191733	1.131776	0.356009
H238	H	-0.784548	0.832747	-0.374507
H239	H	-0.451215	1.166080	-0.041174
H240	H	-0.117881	1.499413	0.292159
H241	H	-0.269224	0.978281	-0.541039
H242	H	0.064109	1.311615	-0.207706
H243	H	0.397442	1.644948	0.125628
H244	H	-0.474802	0.896361	-0.742822
H245	H	-0.141469	1.229695	-0.409488
H246	H	0.191864	1.563028	-0.076155
F247	F	-0.451928	0.271513	-0.384453
F248	F	-0.118595	0.604847	-0.051119
F249	F	0.214739	0.938180	0.282214
H250	H	-0.474944	0.346397	-0.310664
H251	H	-0.141611	0.679730	0.022669
H252	H	0.191723	1.013064	0.356002
H253	H	-0.440123	0.666966	-0.374419
H254	H	-0.106790	1.000299	-0.041086
H255	H	0.226543	1.333633	0.292247
F256	F	-0.257316	0.675124	-0.219277
F257	F	0.076017	1.008458	0.114056
F258	F	0.409350	1.341791	0.447389
H259	H	-0.234303	0.465163	-0.293094
H260	H	0.099030	0.798496	0.040239
H261	H	0.432364	1.131830	0.373573
F262	F	-0.257321	0.540054	-0.219291
F263	F	0.076012	0.873387	0.114042
F264	F	0.409345	1.206720	0.447375
F265	F	-0.257245	0.988317	-1.071568
F266	F	0.076089	1.321651	-0.738235
F267	F	0.409422	1.654984	-0.404901
H268	H	-0.234312	0.346458	-0.293085
H269	H	0.099021	0.679792	0.040249
H270	H	0.432354	1.013125	0.373582
H271	H	-0.269133	0.263311	-0.229310
H272	H	0.064201	0.596644	0.104023
H273	H	0.397534	0.929977	0.437357
F274	F	-0.257392	0.988294	-0.667932
F275	F	0.075941	1.321627	-0.334599
F276	F	0.409274	1.654960	-0.001266
H277	H	-0.234173	0.914567	-0.861541
H278	H	0.099161	1.247901	-0.528208
H279	H	0.432494	1.581234	-0.194875
F280	F	-0.217645	0.915809	-0.734647
F281	F	0.115688	1.249142	-0.401314
F282	F	0.449022	1.582476	-0.067980
F283	F	-0.257295	0.988313	-0.936498
F284	F	0.076038	1.321647	-0.603165
F285	F	0.409371	1.654980	-0.269831
F286	F	-0.451581	0.822785	-0.936430
F287	F	-0.118248	1.156118	-0.603097
F288	F	0.215086	1.489452	-0.269764
H289	H	-0.474771	0.896535	-0.861526
H290	H	-0.141437	1.229868	-0.528193
H291	H	0.191896	1.563201	-0.194860
