data_functionalizedCrystal
_audit_creation_method	'MofGen! by Chris Wilmer'
_symmetry_space_group_name_H-M	'P1'
_symmetry_Int_Tables_number	1
_symmetry_cell_setting	triclinic
loop_
_symmetry_equiv_pos_as_xyz
  x,y,z
_cell_length_a	6.394989
_cell_length_b	10.654550
_cell_length_c	9.130313
_cell_angle_alpha	90.000110
_cell_angle_beta	89.999773
_cell_angle_gamma	85.491307
loop_
_atom_site_label
_atom_site_type_symbol
_atom_site_fract_x
_atom_site_fract_y
_atom_site_fract_z
O1	O	-2.774464	-0.205778	-0.121780
O2	O	-2.166486	-0.216145	-0.121786
O3	O	-2.484453	-0.028370	-0.121777
O4	O	-2.456496	-0.393553	-0.121788
O5	O	-2.484449	-0.028375	0.121822
O6	O	-2.166482	-0.216150	0.121813
O7	O	-2.774460	-0.205783	0.121819
Cu8	Cu	-2.470471	-0.210967	0.144059
Cu9	Cu	-2.470475	-0.210961	-0.144025
O10	O	-2.456492	-0.393558	0.121811
C11	C	-2.482399	0.018447	0.000020
C12	C	-2.476257	0.157955	0.000015
C13	C	-2.458547	-0.440375	0.000010
C14	C	-2.464688	-0.579883	0.000005
N15	N	-2.470483	-0.210971	0.346681
C16	C	-2.088633	-0.214098	0.000021
C17	C	-1.852307	-0.207833	0.000027
N18	N	-2.470480	-0.210948	-0.346648
C19	C	-2.663471	0.235458	0.000022
C20	C	-2.657688	0.366540	0.000011
C21	C	-2.277460	0.342604	-0.000005
C22	C	-2.283245	0.211524	-0.000006
C23	C	-2.882994	0.249279	0.000037
C24	C	-2.877210	0.380361	0.000027
C25	C	-2.611315	-0.127854	0.423337
C26	C	-2.611309	-0.127838	0.576674
C27	C	-2.329632	-0.294069	0.576686
C28	C	-2.329629	-0.294077	0.423352
C29	C	-2.773946	-0.031885	0.423331
C30	C	-2.773940	-0.031870	0.576668
H31	H	-2.120316	0.386236	-0.000024
H32	H	-2.738275	0.065025	0.381714
H33	H	-2.925631	-0.064080	0.375774
H34	H	-2.130797	0.148425	-0.000031
H35	H	-2.968858	0.219013	-0.101900
H36	H	-2.952896	0.212909	0.105219
O37	O	-2.956162	0.433824	-0.125586
C38	C	-2.837721	0.385391	-0.246034
H39	H	-2.756041	0.289937	-0.215856
H40	H	-2.715149	0.453093	-0.276243
C41	C	-3.084572	0.487213	-0.414626
C42	C	-2.984266	0.369970	-0.377565
H43	H	-3.174964	0.477705	-0.495764
H44	H	-3.164366	0.519848	-0.333479
H45	H	-2.982410	0.543619	-0.439791
H46	H	-3.086427	0.313572	-0.352383
H47	H	-2.904493	0.337326	-0.458711
O48	O	-2.713067	0.077497	0.633459
C49	C	-2.532509	0.051810	0.720353
H50	H	-2.447832	-0.041289	0.684548
H51	H	-2.580168	0.045287	0.840265
C52	C	-2.489286	0.272666	0.745635
C53	C	-2.385274	0.158326	0.701650
H54	H	-2.398467	0.338373	0.734105
H55	H	-2.610936	0.289974	0.687098
H56	H	-2.528996	0.267214	0.845559
H57	H	-2.345589	0.163776	0.601724
H58	H	-2.263613	0.141022	0.760171
H59	H	-2.959921	0.421243	0.101972
H60	H	-2.214934	-0.361746	0.360940
H61	H	-2.214951	-0.361730	0.639127
H62	H	-2.934488	-0.055089	0.618286
