data_functionalizedCrystal
_audit_creation_method	'MofGen! by Chris Wilmer'
_symmetry_space_group_name_H-M	'P1'
_symmetry_Int_Tables_number	1
_symmetry_cell_setting	triclinic
loop_
_symmetry_equiv_pos_as_xyz
  x,y,z
_cell_length_a	19.288859
_cell_length_b	16.109304
_cell_length_c	17.766277
_cell_angle_alpha	89.996447
_cell_angle_beta	89.989768
_cell_angle_gamma	83.298182
loop_
_atom_site_label
_atom_site_type_symbol
_atom_site_fract_x
_atom_site_fract_y
_atom_site_fract_z
O1	O	0.921604	0.103691	-0.062604
O2	O	0.719376	0.117688	-0.062602
O3	O	0.826045	-0.010360	-0.062604
O4	O	0.814936	0.231740	-0.062603
O5	O	0.826026	-0.010367	0.062585
O6	O	0.719358	0.117681	0.062586
O7	O	0.921585	0.103685	0.062584
Cu8	Cu	0.820470	0.110683	0.074016
Cu9	Cu	0.820492	0.110690	-0.074034
O10	O	0.814917	0.231733	0.062586
C11	C	0.693489	0.117235	-0.000008
C12	C	0.616382	0.115886	-0.000007
C13	C	0.052500	0.181891	-0.000008
C14	C	0.124949	0.183166	-0.000012
C15	C	0.169476	0.108033	-0.000011
C16	C	0.141548	0.031619	-0.000025
C17	C	0.069100	0.030346	-0.000028
C18	C	0.290606	0.051997	0.043851
C19	C	0.363052	0.053273	0.043859
C20	C	0.392931	0.111956	-0.000003
C21	C	0.350353	0.169377	-0.043864
C22	C	0.277905	0.168104	-0.043867
C23	C	0.248035	0.109405	-0.000007
C24	C	0.499409	0.189747	0.000002
C25	C	0.571861	0.191019	-0.000007
C26	C	0.588458	0.039471	-0.000012
C27	C	0.516008	0.038201	-0.000011
C28	C	0.471488	0.113342	-0.000001
C29	C	0.825585	-0.041337	-0.000011
C30	C	0.824235	-0.133627	-0.000016
C31	C	0.821126	-0.345951	-0.068254
C32	C	0.819851	-0.432666	-0.068253
C33	C	0.819834	-0.432670	0.068234
C34	C	0.821104	-0.345955	0.068233
C35	C	0.821753	-0.302598	-0.000013
C36	C	0.819208	-0.476029	-0.000011
C37	C	0.817826	-0.570050	-0.000010
C38	C	0.823135	-0.208571	-0.000015
C39	C	0.947472	0.104138	-0.000012
C40	C	1.024579	0.105487	-0.000018
C41	C	0.815377	0.262710	-0.000008
C42	C	0.816727	0.355000	-0.000008
N43	N	0.820459	0.110677	0.178146
N44	N	0.820508	0.110689	-0.178164
C45	C	0.867707	0.054005	0.217532
C46	C	0.867711	0.054001	0.296334
C47	C	0.820474	0.110683	0.335747
C48	C	0.773217	0.167360	0.296351
C49	C	0.773210	0.167356	0.217551
C50	C	0.811357	0.186437	0.460585
C51	C	0.811369	0.186441	0.539384
C52	C	0.820493	0.110693	0.578793
C53	C	0.829619	0.034938	0.539394
C54	C	0.829612	0.034934	0.460594
C55	C	0.820476	0.110693	0.421193
C56	C	0.867747	0.054012	0.703625
C57	C	0.867747	0.054007	0.782429
C58	C	0.773256	0.167373	0.782444
C59	C	0.773253	0.167371	0.703642
C60	C	0.820503	0.110691	0.664238
H61	H	0.243241	0.214856	-0.079581
H62	H	0.819307	-0.467983	0.123798
C63	C	0.821796	-0.298265	0.143301
H64	H	0.821238	-0.336507	0.183946
H65	H	0.781811	-0.257944	0.146138
H66	H	0.862777	-0.270933	0.146132
H67	H	0.046368	-0.031873	-0.000037
H68	H	0.463159	0.250931	0.000009
H69	H	0.819338	-0.467960	-0.123821
H70	H	0.016255	0.243076	-0.000003
C71	C	0.721260	0.229711	0.339702
H72	H	0.728035	0.221603	0.392274
H73	H	0.674906	0.220825	0.326805
H74	H	0.728791	0.285178	0.326777
H75	H	0.734782	0.213522	0.671572
C76	C	0.919711	-0.008340	0.660277
H77	H	0.947845	-0.042102	0.695024
H78	H	0.948615	0.021477	0.629526
H79	H	0.894727	-0.042874	0.629548
C80	C	0.821835	-0.298256	-0.143319
H81	H	0.822688	-0.240403	-0.133549
H82	H	0.781150	-0.305972	-0.171357
H83	H	0.862116	-0.318962	-0.171358
C84	C	0.919672	-0.008349	0.174192
H85	H	0.947808	-0.042107	0.208939
H86	H	0.948574	0.021465	0.143436
H87	H	0.894688	-0.042888	0.143467
H88	H	0.594591	0.253239	-0.000005
H89	H	0.906188	0.007850	0.328408
C90	C	0.839639	-0.048388	0.417255
H91	H	0.845169	-0.093502	0.452004
H92	H	0.880020	-0.050146	0.386417
H93	H	0.799900	-0.052925	0.386613
H94	H	0.837048	-0.026744	0.571479
C95	C	0.801331	0.269765	0.582720
H96	H	0.802651	0.258920	0.635294
H97	H	0.757516	0.299542	0.569818
H98	H	0.837647	0.302235	0.569789
H99	H	0.906220	0.007854	0.814497
H100	H	0.734792	0.213522	0.814533
C101	C	0.637426	-0.043177	-0.000014
H102	H	0.610418	-0.088864	-0.000023
H103	H	0.666027	-0.045837	0.043641
H104	H	0.666038	-0.045824	-0.043676
C105	C	0.801325	0.269765	0.417243
H106	H	0.795903	0.314881	0.451991
H107	H	0.760881	0.271577	0.386512
H108	H	0.841015	0.274249	0.386494
H109	H	0.734734	0.213506	0.185482
H110	H	0.374679	0.217164	-0.079578
C111	C	0.155670	0.267213	0.000003
H112	H	0.118779	0.311780	0.000012
H113	H	0.183598	0.270867	-0.043650
H114	H	0.183577	0.270846	0.043668
H115	H	0.397714	0.006522	0.079577
C116	C	0.485290	-0.045842	-0.000018
H117	H	0.435766	-0.035840	-0.000027
H118	H	0.500564	-0.076776	0.043635
H119	H	0.500583	-0.076757	-0.043682
C120	C	0.257746	-0.012557	0.092104
H121	H	0.293477	-0.046563	0.118234
H122	H	0.233166	-0.046622	0.060484
H123	H	0.226330	0.015694	0.127373
C124	C	0.190524	-0.051025	-0.000021
H125	H	0.237671	-0.039324	-0.000009
H126	H	0.182072	-0.082363	-0.043679
H127	H	0.182050	-0.082369	0.043639
