data_functionalizedCrystal
_audit_creation_method	'MofGen! by Chris Wilmer'
_symmetry_space_group_name_H-M	'P1'
_symmetry_Int_Tables_number	1
_symmetry_cell_setting	triclinic
loop_
_symmetry_equiv_pos_as_xyz
  x,y,z
_cell_length_a	19.805407
_cell_length_b	19.805405
_cell_length_c	19.805398
_cell_angle_alpha	89.972363
_cell_angle_beta	89.983299
_cell_angle_gamma	90.028350
loop_
_atom_site_label
_atom_site_type_symbol
_atom_site_fract_x
_atom_site_fract_y
_atom_site_fract_z
Zn1	Zn	1.034711	-0.269455	-0.382727
Zn2	Zn	1.284711	-0.019455	-0.132727
Zn3	Zn	1.534711	0.230545	0.117273
Zn4	Zn	1.784711	0.480545	0.367273
Zn5	Zn	1.034633	-0.382640	-0.269535
Zn6	Zn	1.284633	-0.132640	-0.019535
Zn7	Zn	1.534633	0.117360	0.230465
Zn8	Zn	1.784633	0.367360	0.480465
Zn9	Zn	0.921533	-0.269474	-0.269550
Zn10	Zn	1.171533	-0.019474	-0.019550
Zn11	Zn	1.421533	0.230526	0.230450
Zn12	Zn	1.671533	0.480526	0.480450
Zn13	Zn	0.921489	-0.382611	-0.382680
Zn14	Zn	1.171489	-0.132611	-0.132680
Zn15	Zn	1.421489	0.117389	0.117320
Zn16	Zn	1.671489	0.367389	0.367320
O17	O	0.978091	-0.326045	-0.326123
O18	O	1.228091	-0.076045	-0.076123
O19	O	1.478091	0.173955	0.173877
O20	O	1.728091	0.423955	0.423877
O21	O	1.129417	-0.284473	-0.367725
O22	O	1.379417	-0.034473	-0.117725
O23	O	1.629417	0.215527	0.132275
O24	O	1.879417	0.465527	0.382275
O25	O	1.019616	-0.367648	-0.174820
O26	O	1.269616	-0.117648	0.075180
O27	O	1.519616	0.132352	0.325180
O28	O	1.769616	0.382352	0.575180
O29	O	0.936597	-0.174755	-0.284588
O30	O	1.186597	0.075245	-0.034588
O31	O	1.436597	0.325245	0.215412
O32	O	1.686597	0.575245	0.465412
O33	O	1.129360	-0.367630	-0.284564
O34	O	1.379360	-0.117630	-0.034564
O35	O	1.629360	0.132370	0.215436
O36	O	1.879360	0.382370	0.465436
O37	O	1.019749	-0.174741	-0.367739
O38	O	1.269749	0.075259	-0.117739
O39	O	1.519749	0.325259	0.132261
O40	O	1.769749	0.575259	0.382261
O41	O	0.936522	-0.284506	-0.174831
O42	O	1.186522	-0.034506	0.075169
O43	O	1.436522	0.215494	0.325169
O44	O	1.686522	0.465494	0.575169
O45	O	0.826811	-0.284478	-0.284543
O46	O	1.076811	-0.034478	-0.034543
O47	O	1.326811	0.215522	0.215457
O48	O	1.576811	0.465522	0.465457
O49	O	0.936522	-0.367581	-0.477403
O50	O	1.186522	-0.117581	-0.227403
O51	O	1.436522	0.132419	0.022597
O52	O	1.686522	0.382419	0.272597
O53	O	0.826778	-0.367599	-0.367660
O54	O	1.076778	-0.117599	-0.117660
O55	O	1.326778	0.132401	0.132340
O56	O	1.576778	0.382401	0.382340
O57	O	1.019706	-0.284445	-0.477437
O58	O	1.269706	-0.034445	-0.227437
O59	O	1.519706	0.215555	0.022563
O60	O	1.769706	0.465555	0.272563
O61	O	1.019573	-0.477353	-0.284518
O62	O	1.269573	-0.227353	-0.034518
O63	O	1.519573	0.022647	0.215482
O64	O	1.769573	0.272647	0.465482
O65	O	0.936447	-0.477332	-0.367646
O66	O	1.186447	-0.227332	-0.117646
O67	O	1.436447	0.022668	0.132354
O68	O	1.686447	0.272668	0.382354
C69	C	0.802235	-0.326038	-0.326098
C70	C	1.052235	-0.076038	-0.076098
C71	C	1.302235	0.173962	0.173902
C72	C	1.552235	0.423962	0.423902
C73	C	0.727003	-0.326051	-0.326104
C74	C	0.977003	-0.076051	-0.076104
C75	C	1.227003	0.173949	0.173896
C76	C	1.477003	0.423949	0.423896
C77	C	0.265246	-0.282826	-0.369517
C78	C	0.515246	-0.032826	-0.119517
C79	C	0.765246	0.217174	0.130483
C80	C	1.015246	0.467174	0.380483
C81	C	0.335934	-0.282828	-0.369513
C82	C	0.585934	-0.032828	-0.119513
C83	C	0.835934	0.217172	0.130487
C84	C	1.085934	0.467172	0.380487
C85	C	0.371242	-0.326055	-0.326145
C86	C	0.621242	-0.076055	-0.076145
C87	C	0.871242	0.173945	0.173855
C88	C	1.121242	0.423945	0.423855
C89	C	0.335857	-0.369290	-0.282784
C90	C	0.585857	-0.119290	-0.032784
C91	C	0.835857	0.130710	0.217216
C92	C	1.085857	0.380710	0.467216
C93	C	0.265170	-0.369291	-0.282793
C94	C	0.515170	-0.119291	-0.032793
C95	C	0.765170	0.130709	0.217207
C96	C	1.015170	0.380709	0.467207
C97	C	0.620931	-0.369284	-0.282748
C98	C	0.870931	-0.119284	-0.032748
C99	C	1.120931	0.130716	0.217252
C100	C	1.370931	0.380716	0.467252
C101	C	0.691623	-0.369278	-0.282741
C102	C	0.941623	-0.119278	-0.032741
C103	C	1.191623	0.130722	0.217259
C104	C	1.441623	0.380722	0.467259
C105	C	0.691695	-0.282821	-0.369468
C106	C	0.941695	-0.032821	-0.119468
C107	C	1.191695	0.217179	0.130532
C108	C	1.441695	0.467179	0.380532
C109	C	0.621007	-0.282822	-0.369477
C110	C	0.871007	-0.032822	-0.119477
C111	C	1.121007	0.217178	0.130523
C112	C	1.371007	0.467178	0.380523
C113	C	0.585629	-0.326059	-0.326119
C114	C	0.835629	-0.076059	-0.076119
C115	C	1.085629	0.173941	0.173881
C116	C	1.335629	0.423941	0.423881
C117	C	0.508981	-0.326058	-0.326125
C118	C	0.758981	-0.076058	-0.076125
C119	C	1.008981	0.173942	0.173875
C120	C	1.258981	0.423942	0.423875
C121	C	0.447889	-0.326053	-0.326134
C122	C	0.697889	-0.076053	-0.076134
C123	C	0.947889	0.173947	0.173866
C124	C	1.197889	0.423947	0.423866
C125	C	0.978015	-0.501901	-0.326090
C126	C	1.228015	-0.251901	-0.076090
C127	C	1.478015	-0.001901	0.173910
C128	C	1.728015	0.248099	0.423910
C129	C	0.978045	-0.577133	-0.326099
C130	C	1.228045	-0.327133	-0.076099
C131	C	1.478045	-0.077133	0.173901
C132	C	1.728045	0.172867	0.423901
C133	C	1.021371	-0.612466	-0.282860
C134	C	1.271371	-0.362466	-0.032860
C135	C	1.521371	-0.112466	0.217140
C136	C	1.771371	0.137534	0.467140
C137	C	1.021399	-0.683154	-0.282875
C138	C	1.271399	-0.433154	-0.032875
C139	C	1.521399	-0.183154	0.217125
C140	C	1.771399	0.066846	0.467125
C141	C	0.978098	-0.718509	-0.326126
C142	C	1.228098	-0.468509	-0.076126
C143	C	1.478098	-0.218509	0.173874
C144	C	1.728098	0.031491	0.423874
C145	C	0.934770	-0.683171	-0.369370
C146	C	1.184770	-0.433171	-0.119370
C147	C	1.434770	-0.183171	0.130630
C148	C	1.684770	0.066829	0.380630
C149	C	0.934746	-0.612484	-0.369357
C150	C	1.184746	-0.362484	-0.119357
C151	C	1.434746	-0.112484	0.130643
C152	C	1.684746	0.137516	0.380643
C153	C	0.934870	-0.968244	-0.369420
C154	C	1.184870	-0.718244	-0.119420
C155	C	1.434870	-0.468244	0.130580
C156	C	1.684870	-0.218244	0.380580
C157	C	0.934897	-1.038936	-0.369427
C158	C	1.184897	-0.788936	-0.119427
C159	C	1.434897	-0.538936	0.130573
C160	C	1.684897	-0.288936	0.380573
C161	C	1.021524	-1.038915	-0.282937
C162	C	1.271524	-0.788915	-0.032937
C163	C	1.521524	-0.538915	0.217063
C164	C	1.771524	-0.288915	0.467063
C165	C	1.021499	-0.968227	-0.282925
C166	C	1.271499	-0.718227	-0.032925
C167	C	1.521499	-0.468227	0.217075
C168	C	1.771499	-0.218227	0.467075
C169	C	0.978174	-0.932896	-0.326171
C170	C	1.228174	-0.682896	-0.076171
C171	C	1.478174	-0.432896	0.173829
C172	C	1.728174	-0.182896	0.423829
C173	C	0.978144	-0.856248	-0.326155
C174	C	1.228144	-0.606248	-0.076155
C175	C	1.478144	-0.356248	0.173845
C176	C	1.728144	-0.106248	0.423845
C177	C	0.978124	-0.795156	-0.326139
C178	C	1.228124	-0.545156	-0.076139
C179	C	1.478124	-0.295156	0.173861
C180	C	1.728124	-0.045156	0.423861
C181	C	1.154634	-0.326053	-0.326148
C182	C	1.404634	-0.076053	-0.076148
C183	C	1.654634	0.173947	0.173852
C184	C	1.904634	0.423947	0.423852
C185	C	1.229866	-0.326056	-0.326158
C186	C	1.479866	-0.076056	-0.076158
C187	C	1.729866	0.173944	0.173842
C188	C	1.979866	0.423944	0.423842
C189	C	0.978118	-0.326008	-0.502666
C190	C	1.228118	-0.076008	-0.252666
C191	C	1.478118	0.173992	-0.002666
C192	C	1.728118	0.423992	0.247334
C193	C	0.978129	-0.325992	-0.577898
C194	C	1.228129	-0.075992	-0.327898
C195	C	1.478129	0.174008	-0.077898
C196	C	1.728129	0.424008	0.172102
C197	C	0.978186	-0.149502	-0.326171
C198	C	1.228186	0.100498	-0.076171
C199	C	1.478186	0.350498	0.173829
C200	C	1.728186	0.600498	0.423829
C201	C	0.978227	-0.074270	-0.326191
C202	C	1.228227	0.175730	-0.076191
C203	C	1.478227	0.425730	0.173809
C204	C	1.728227	0.675730	0.423809
C205	C	1.021525	-0.282583	-1.039708
C206	C	1.271525	-0.032583	-0.789708
C207	C	1.521525	0.217417	-0.539708
C208	C	1.771525	0.467417	-0.289708
C209	C	1.021514	-0.282604	-0.969019
C210	C	1.271514	-0.032604	-0.719019
C211	C	1.521514	0.217396	-0.469019
C212	C	1.771514	0.467396	-0.219019
C213	C	0.978199	-0.325897	-0.933660
C214	C	1.228199	-0.075897	-0.683660
C215	C	1.478199	0.174103	-0.433660
C216	C	1.728199	0.424103	-0.183660
C217	C	0.934896	-0.369178	-0.968992
C218	C	1.184896	-0.119178	-0.718992
C219	C	1.434896	0.130822	-0.468992
C220	C	1.684896	0.380822	-0.218992
C221	C	0.934911	-0.369160	-1.039679
C222	C	1.184911	-0.119160	-0.789679
C223	C	1.434911	0.130840	-0.539679
C224	C	1.684911	0.380840	-0.289679
C225	C	0.934837	-0.369251	-0.683919
C226	C	1.184837	-0.119251	-0.433919
C227	C	1.434837	0.130749	-0.183919
C228	C	1.684837	0.380749	0.066081
C229	C	0.934825	-0.369264	-0.613226
C230	C	1.184825	-0.119264	-0.363226
C231	C	1.434825	0.130736	-0.113226
C232	C	1.684825	0.380736	0.136774
C233	C	1.021441	-0.282695	-0.613259
C234	C	1.271441	-0.032695	-0.363259
C235	C	1.521441	0.217305	-0.113259
C236	C	1.771441	0.467305	0.136741
C237	C	1.021455	-0.282677	-0.683946
C238	C	1.271455	-0.032677	-0.433946
C239	C	1.521455	0.217323	-0.183946
C240	C	1.771455	0.467323	0.066054
C241	C	0.978155	-0.325960	-0.719272
C242	C	1.228155	-0.075960	-0.469272
C243	C	1.478155	0.174040	-0.219272
C244	C	1.728155	0.424040	0.030728
C245	C	0.978168	-0.325938	-0.795921
C246	C	1.228168	-0.075938	-0.545921
C247	C	1.478168	0.174062	-0.295921
C248	C	1.728168	0.424062	-0.045921
C249	C	0.978182	-0.325917	-0.857012
C250	C	1.228182	-0.075917	-0.607012
C251	C	1.478182	0.174083	-0.357012
C252	C	1.728182	0.424083	-0.107012
C253	C	0.978104	-0.326034	-0.150267
C254	C	1.228104	-0.076034	0.099733
C255	C	1.478104	0.173966	0.349733
C256	C	1.728104	0.423966	0.599733
C257	C	0.978224	-0.325859	-0.075035
C258	C	1.228224	-0.075859	0.174965
C259	C	1.478224	0.174141	0.424965
C260	C	1.728224	0.424141	0.674965
H261	H	0.236365	-0.404494	-0.247486
H262	H	0.486365	-0.154494	0.002514
H263	H	0.736365	0.095506	0.252514
H264	H	0.986365	0.345506	0.502514
H265	H	0.899631	-0.404431	-0.940196
H266	H	1.149631	-0.154431	-0.690196
H267	H	1.399631	0.095569	-0.440196
H268	H	1.649631	0.345569	-0.190196
H269	H	1.056679	-0.711919	-0.247665
H270	H	1.306679	-0.461919	0.002335
H271	H	1.556679	-0.211919	0.252335
H272	H	1.806679	0.038081	0.502335
H273	H	1.056757	-0.939444	-0.247704
H274	H	1.306757	-0.689444	0.002296
H275	H	1.556757	-0.439444	0.252296
H276	H	1.806757	-0.189444	0.502296
H277	H	1.056776	-0.247366	-0.940259
H278	H	1.306776	0.002634	-0.690259
H279	H	1.556776	0.252634	-0.440259
H280	H	1.806776	0.502634	-0.190259
H281	H	0.899651	-0.404400	-1.068442
H282	H	1.149651	-0.154400	-0.818442
H283	H	1.399651	0.095600	-0.568442
H284	H	1.649651	0.345600	-0.318442
H285	H	1.056804	-1.067690	-0.247726
H286	H	1.306804	-0.817690	0.002274
H287	H	1.556804	-0.567690	0.252274
H288	H	1.806804	-0.317690	0.502274
H289	H	0.592263	-0.247620	-0.404789
H290	H	0.842263	0.002380	-0.154789
H291	H	1.092263	0.252380	0.095211
H292	H	1.342263	0.502380	0.345211
H293	H	0.899548	-0.404519	-0.584438
H294	H	1.149548	-0.154519	-0.334438
H295	H	1.399548	0.095481	-0.084438
H296	H	1.649548	0.345481	0.165562
Br297	Br	1.080248	-0.223926	-0.731931
Br298	Br	1.330248	0.026074	-0.481931
Br299	Br	1.580248	0.276074	-0.231931
Br300	Br	1.830248	0.526074	0.018069
H301	H	0.899637	-1.067720	-0.404652
H302	H	1.149637	-0.817720	-0.154652
H303	H	1.399637	-0.567720	0.095348
H304	H	1.649637	-0.317720	0.345348
H305	H	1.056628	-0.583685	-0.247637
H306	H	1.306628	-0.333685	0.002363
H307	H	1.556628	-0.083685	0.252363
H308	H	1.806628	0.166315	0.502363
H309	H	0.899592	-0.939483	-0.404631
H310	H	1.149592	-0.689483	-0.154631
H311	H	1.399592	-0.439483	0.095369
H312	H	1.649592	-0.189483	0.345369
H313	H	0.236503	-0.247621	-0.404829
H314	H	0.486503	0.002379	-0.154829
H315	H	0.736503	0.252379	0.095171
H316	H	0.986503	0.502379	0.345171
Br317	Br	0.876009	-0.731151	-0.428074
Br318	Br	1.126009	-0.481151	-0.178074
Br319	Br	1.376009	-0.231151	0.071926
Br320	Br	1.626009	0.018849	0.321926
H321	H	0.899466	-0.583717	-0.404568
H322	H	1.149466	-0.333717	-0.154568
H323	H	1.399466	-0.083717	0.095432
H324	H	1.649466	0.166283	0.345432
Br325	Br	1.080304	-0.223815	-1.087689
Br326	Br	1.330304	0.026185	-0.837689
Br327	Br	1.580304	0.276185	-0.587689
Br328	Br	1.830304	0.526185	-0.337689
Br329	Br	0.876078	-0.427997	-0.731853
Br330	Br	1.126078	-0.177997	-0.481853
Br331	Br	1.376078	0.072003	-0.231853
Br332	Br	1.626078	0.322003	0.018147
Br333	Br	1.080203	-0.223949	-0.565312
Br334	Br	1.330203	0.026051	-0.315312
Br335	Br	1.580203	0.276051	-0.065312
Br336	Br	1.830203	0.526051	0.184688
Br337	Br	0.739712	-0.224143	-0.428314
Br338	Br	0.989712	0.025857	-0.178314
Br339	Br	1.239712	0.275857	0.071686
Br340	Br	1.489712	0.525857	0.321686
H341	H	0.720368	-0.404482	-0.247424
H342	H	0.970368	-0.154482	0.002576
H343	H	1.220368	0.095518	0.252576
H344	H	1.470368	0.345518	0.502576
Br345	Br	0.383947	-0.224162	-0.428365
Br346	Br	0.633947	0.025838	-0.178365
Br347	Br	0.883947	0.275838	0.071635
Br348	Br	1.133947	0.525838	0.321635
H349	H	0.592134	-0.404488	-0.247441
H350	H	0.842134	-0.154488	0.002559
H351	H	1.092134	0.095512	0.252559
H352	H	1.342134	0.345512	0.502559
H353	H	0.364610	-0.404489	-0.247475
H354	H	0.614610	-0.154489	0.002525
H355	H	0.864610	0.095511	0.252525
H356	H	1.114610	0.345511	0.502525
