data_functionalizedCrystal
_audit_creation_method	'MofGen! by Chris Wilmer'
_symmetry_space_group_name_H-M	'P1'
_symmetry_Int_Tables_number	1
_symmetry_cell_setting	triclinic
loop_
_symmetry_equiv_pos_as_xyz
  x,y,z
_cell_length_a	14.519731
_cell_length_b	15.995350
_cell_length_c	13.596369
_cell_angle_alpha	89.998161
_cell_angle_beta	90.006024
_cell_angle_gamma	83.590614
loop_
_atom_site_label
_atom_site_type_symbol
_atom_site_fract_x
_atom_site_fract_y
_atom_site_fract_z
O1	O	1.223659	0.109838	0.081788
O2	O	1.723659	0.609838	0.581788
O3	O	0.955161	0.122745	0.081789
O4	O	1.455161	0.622745	0.581789
O5	O	1.096749	-0.005585	0.081788
O6	O	1.596749	0.494415	0.581788
O7	O	1.082070	0.238168	0.081790
O8	O	1.582070	0.738168	0.581790
O9	O	1.096732	-0.005578	-0.081795
O10	O	1.596732	0.494422	0.418205
O11	O	0.955143	0.122752	-0.081794
O12	O	1.455143	0.622752	0.418206
O13	O	1.223641	0.109845	-0.081794
O14	O	1.723641	0.609845	0.418206
Zn15	Zn	1.089389	0.116300	-0.107766
Zn16	Zn	1.589389	0.616300	0.392234
Zn17	Zn	1.089412	0.116290	0.107761
Zn18	Zn	1.589412	0.616290	0.607761
O19	O	1.082053	0.238175	-0.081793
O20	O	1.582053	0.738175	0.418207
C21	C	0.920794	0.122144	-0.000002
C22	C	1.420794	0.622144	0.499998
C23	C	0.818417	0.120331	-0.000001
C24	C	1.318417	0.620331	0.499999
C25	C	0.735275	0.118859	0.000003
C26	C	1.235275	0.618859	0.500003
C27	C	0.630970	0.117019	0.000003
C28	C	1.130970	0.617019	0.500003
C29	C	0.547834	0.115559	0.000003
C30	C	1.047834	0.615559	0.500003
C31	C	0.443521	0.113719	0.000005
C32	C	0.943521	0.613719	0.500005
C33	C	1.096134	-0.036777	-0.000002
C34	C	1.596134	0.463223	0.499998
C35	C	1.094314	-0.129730	0.000004
C36	C	1.594314	0.370270	0.500004
C37	C	1.087781	-0.467488	0.000001
C38	C	1.587781	0.032512	0.500001
C39	C	0.986944	-0.420212	0.000368
C40	C	1.486944	0.079788	0.500368
C41	C	0.988764	-0.323519	-0.000001
C42	C	1.488764	0.176481	0.499999
C43	C	1.091021	-0.299922	0.000003
C44	C	1.591021	0.200078	0.500003
C45	C	1.140748	-0.340918	-0.093409
C46	C	1.640748	0.159082	0.406591
C47	C	1.138215	-0.437558	-0.093488
C48	C	1.638215	0.062442	0.406512
C49	C	1.140317	-0.437920	0.092537
C50	C	1.640317	0.062080	0.592537
C51	C	1.140294	-0.340975	0.093771
C52	C	1.640294	0.159025	0.593771
C53	C	1.092858	-0.205222	0.000001
C54	C	1.592858	0.294778	0.500001
C55	C	1.085947	-0.562189	-0.000004
C56	C	1.585947	-0.062189	0.499996
C57	C	1.258008	0.110446	-0.000001
C58	C	1.758008	0.610446	0.499999
C59	C	1.360385	0.112258	0.000005
C60	C	1.860385	0.612258	0.500005
C61	C	1.082668	0.269367	-0.000001
C62	C	1.582668	0.769367	0.499999
C63	C	1.084488	0.362320	-0.000000
C64	C	1.584488	0.862320	0.500000
N65	N	1.089381	0.116305	-0.254858
N66	N	1.589381	0.616305	0.245142
C67	C	1.089385	0.116307	-0.343856
C68	C	1.589385	0.616307	0.156144
C69	C	1.089394	0.116302	-0.455507
C70	C	1.589394	0.616302	0.044493
C71	C	1.089406	0.116292	-0.544498
C72	C	1.589406	0.616292	-0.044498
C73	C	1.089417	0.116287	-0.656156
C74	C	1.589417	0.616287	-0.156156
N75	N	1.089429	0.116278	0.254853
N76	N	1.589429	0.616278	0.754853
H77	H	0.946648	-0.438810	0.067356
H78	H	1.446648	0.061190	0.567356
H79	H	1.215873	-0.326674	-0.096881
H80	H	1.715873	0.173326	0.403119
N81	N	1.231078	-0.477884	-0.098808
N82	N	1.731078	0.022116	0.401192
N83	N	1.262179	-0.526411	-0.031624
N84	N	1.762179	-0.026411	0.468376
H85	H	1.327762	-0.554889	-0.035387
H86	H	1.827762	-0.054889	0.464613
N87	N	1.097397	-0.305375	-0.180612
N88	N	1.597397	0.194625	0.319388
N89	N	1.029891	-0.249864	-0.174206
N90	N	1.529891	0.250136	0.325794
H91	H	0.999269	-0.224762	-0.235791
H92	H	1.499269	0.275238	0.264209
H93	H	0.949398	-0.295713	-0.067076
H94	H	1.449398	0.204287	0.432924
N95	N	1.094736	-0.306802	0.180459
N96	N	1.594736	0.193198	0.680459
N97	N	1.026235	-0.252413	0.173284
N98	N	1.526235	0.247587	0.673284
H99	H	0.994057	-0.228273	0.234506
H100	H	1.494057	0.271727	0.734506
H101	H	0.949675	-0.295161	0.066961
H102	H	1.449675	0.204839	0.566961
N103	N	0.936575	-0.444834	-0.083197
N104	N	1.436575	0.055166	0.416803
N105	N	0.863877	-0.478763	-0.071391
N106	N	1.363877	0.021237	0.428609
H107	H	0.828303	-0.496146	-0.130413
H108	H	1.328303	0.003854	0.369587
H109	H	1.107357	-0.458515	0.163338
H110	H	1.607357	0.041485	0.663338
N111	N	1.233836	-0.321538	0.100855
N112	N	1.733836	0.178462	0.600855
N113	N	1.265855	-0.276919	0.036618
N114	N	1.765855	0.223081	0.536618
H115	H	1.331921	-0.263187	0.041616
H116	H	1.831921	0.236813	0.541616
H117	H	1.101939	-0.455913	-0.163317
H118	H	1.601939	0.044087	0.336683
N119	N	1.233592	-0.477596	0.093327
N120	N	1.733592	0.022404	0.593327
N121	N	1.286745	-0.466376	0.023416
N122	N	1.786745	0.033624	0.523416
H123	H	1.352620	-0.494396	0.023967
H124	H	1.852620	0.005604	0.523967
