data_functionalizedCrystal
_audit_creation_method	'MofGen! by Chris Wilmer'
_symmetry_space_group_name_H-M	'P1'
_symmetry_Int_Tables_number	1
_symmetry_cell_setting	triclinic
loop_
_symmetry_equiv_pos_as_xyz
  x,y,z
_cell_length_a	10.654550
_cell_length_b	10.540510
_cell_length_c	9.730223
_cell_angle_alpha	90.001116
_cell_angle_beta	89.996251
_cell_angle_gamma	84.499107
loop_
_atom_site_label
_atom_site_type_symbol
_atom_site_fract_x
_atom_site_fract_y
_atom_site_fract_z
O1	O	1.667878	0.178297	-0.114395
O2	O	1.302404	0.195285	-0.114372
O3	O	1.493498	0.002079	-0.114383
O4	O	1.476783	0.371503	-0.114383
O5	O	1.493496	0.002084	0.114197
O6	O	1.302401	0.195290	0.114208
O7	O	1.667876	0.178302	0.114185
Zn8	Zn	1.485138	0.186797	0.150489
Zn9	Zn	1.485141	0.186790	-0.150675
O10	O	1.476781	0.371508	0.114197
C11	C	1.255604	0.194040	-0.000079
C12	C	1.116160	0.190308	-0.000071
C13	C	1.036702	0.304065	-0.000091
C14	C	0.905681	0.300551	-0.000115
C15	C	0.933587	0.069514	-0.000104
C16	C	1.064606	0.073029	-0.000070
C17	C	1.088256	0.421344	-0.000091
C18	C	1.008797	0.535110	-0.000113
C19	C	0.877775	0.531596	-0.000137
C20	C	0.826213	0.414316	-0.000139
C21	C	1.492252	-0.045222	-0.000096
C22	C	1.488525	-0.186170	-0.000104
C23	C	1.621278	-0.403673	0.000411
C24	C	1.625253	-0.257079	-0.000111
C25	C	1.418535	-0.230906	-0.130627
C26	C	1.415528	-0.377666	-0.130729
C27	C	1.412678	-0.377468	0.129209
C28	C	1.419163	-0.231129	0.130927
C29	C	1.714675	0.179547	-0.000111
C30	C	1.854119	0.183279	-0.000128
C31	C	1.478028	0.418809	-0.000094
C32	C	1.481754	0.559757	-0.000095
N33	N	1.485145	0.186800	0.356025
N34	N	1.485144	0.186777	-0.356212
C35	C	1.569784	0.101278	0.427946
C36	C	1.569781	0.101263	0.571829
C37	C	1.400496	0.272303	0.571857
C38	C	1.400494	0.272311	0.427977
C39	C	1.654435	0.015767	0.355994
C40	C	1.739082	-0.069761	0.427915
C41	C	1.739078	-0.069776	0.571798
C42	C	1.654429	0.015736	0.643760
H43	H	1.129303	-0.019601	-0.000058
H44	H	1.654424	0.015708	0.760919
H45	H	1.331579	0.341925	0.630458
H46	H	1.674545	-0.445646	0.094016
N47	N	1.064396	0.661602	-0.000117
H48	H	1.035478	0.711497	0.084612
H49	H	1.159444	0.646468	-0.000155
H50	H	1.194939	0.424218	-0.000078
H51	H	1.310022	-0.399581	0.130095
N52	N	1.280076	-0.408092	-0.138587
H53	H	1.222582	-0.326197	-0.141975
H54	H	1.267721	-0.459702	-0.224144
H55	H	0.813083	0.624229	-0.000140
N56	N	0.684897	0.410521	-0.000145
H57	H	0.642381	0.500382	-0.000150
H58	H	0.658937	0.364262	-0.084888
H59	H	1.331572	0.341950	0.369418
H60	H	0.891594	-0.025970	-0.000128
N61	N	1.697756	-0.218215	0.123840
H62	H	1.727421	-0.296378	0.179310
H63	H	1.773037	-0.174408	0.092585
N64	N	1.691445	-0.461327	-0.122877
H65	H	1.633247	-0.511030	-0.179056
H66	H	1.722049	-0.391169	-0.181070
H67	H	1.680336	-0.228695	-0.093843
N68	N	1.478905	-0.430977	-0.259961
H69	H	1.508528	-0.359109	-0.316326
H70	H	1.553588	-0.492833	-0.234537
H71	H	1.807992	-0.139425	0.630355
H72	H	1.317878	-0.183481	-0.135475
H73	H	1.467143	-0.200069	-0.227769
N74	N	1.469909	-0.433701	0.260262
H75	H	1.541200	-0.500448	0.237137
H76	H	1.503360	-0.364041	0.316898
H77	H	1.470091	-0.202534	0.227487
H78	H	1.654448	0.015775	0.238837
N79	N	1.286917	-0.166134	0.141359
H80	H	1.270018	-0.106355	0.060936
H81	H	1.224528	-0.232471	0.140234
N82	N	1.830351	-0.162016	0.350310
H83	H	1.817508	-0.149036	0.248248
H84	H	1.919579	-0.146533	0.375448
