data_functionalizedCrystal
_audit_creation_method	'MofGen! by Chris Wilmer'
_symmetry_space_group_name_H-M	'P1'
_symmetry_Int_Tables_number	1
_symmetry_cell_setting	triclinic
loop_
_symmetry_equiv_pos_as_xyz
  x,y,z
_cell_length_a	25.639239
_cell_length_b	16.120566
_cell_length_c	16.120256
_cell_angle_alpha	89.874858
_cell_angle_beta	92.870449
_cell_angle_gamma	92.865350
loop_
_atom_site_label
_atom_site_type_symbol
_atom_site_fract_x
_atom_site_fract_y
_atom_site_fract_z
Zn1	Zn	-0.264887	-1.247326	-0.534606
Zn2	Zn	0.235113	-0.747326	-0.034606
Zn3	Zn	-0.348116	-1.254242	-0.395539
Zn4	Zn	0.151884	-0.754242	0.104461
Zn5	Zn	-0.256050	-1.115321	-0.388517
Zn6	Zn	0.243950	-0.615321	0.111483
Zn7	Zn	-0.347638	-1.108199	-0.527501
Zn8	Zn	0.152362	-0.608199	-0.027501
O9	O	-0.304173	-1.181272	-0.461540
O10	O	0.195827	-0.681272	0.038460
O11	O	-0.279826	-1.364608	-0.522070
O12	O	0.220174	-0.864608	-0.022070
O13	O	-0.332405	-1.241689	-0.278242
O14	O	0.167595	-0.741689	0.221758
O15	O	-0.184061	-1.132917	-0.407931
O16	O	0.315939	-0.632917	0.092069
O17	O	-0.340974	-1.369689	-0.419898
O18	O	0.159026	-0.869689	0.080102
O19	O	-0.190553	-1.229901	-0.515261
O20	O	0.309447	-0.729901	-0.015261
O21	O	-0.264764	-1.139624	-0.273083
O22	O	0.235236	-0.639624	0.226917
O23	O	-0.264301	-0.998012	-0.401041
O24	O	0.235699	-0.498012	0.098959
O25	O	-0.340159	-1.120780	-0.644808
O26	O	0.159841	-0.620780	-0.144808
O27	O	-0.331590	-0.992779	-0.503152
O28	O	0.168410	-0.492779	-0.003152
O29	O	-0.279362	-1.222996	-0.650028
O30	O	0.220638	-0.722996	-0.150028
O31	O	-0.421214	-1.234783	-0.413009
O32	O	0.078786	-0.734783	0.086991
O33	O	-0.420863	-1.127486	-0.509961
O34	O	0.079137	-0.627486	-0.009961
C35	C	-0.296935	-0.965224	-0.450564
C36	C	0.203065	-0.465224	0.049436
C37	C	-0.293852	-0.872796	-0.445888
C38	C	0.206148	-0.372796	0.054112
C39	C	-0.288211	-0.703569	-0.437358
C40	C	0.211789	-0.203569	0.062642
C41	C	-0.320180	-0.659815	-0.485729
C42	C	0.179820	-0.159815	0.014271
C43	C	-0.317041	-0.565651	-0.480983
C44	C	0.182959	-0.065651	0.019017
C45	C	-0.291349	-0.797741	-0.442103
C46	C	0.208651	-0.297741	0.057897
C47	C	-0.440009	-1.181134	-0.461495
C48	C	0.059991	-0.681134	0.038505
C49	C	-0.498124	-1.181150	-0.461508
C50	C	0.001876	-0.681150	0.038492
C51	C	-0.858670	-1.237276	-0.411155
C52	C	-0.358670	-0.737276	0.088845
C53	C	-0.913276	-1.237307	-0.411168
C54	C	-0.413276	-0.737307	0.088832
O55	O	-0.941662	-1.284885	-0.368307
O56	O	-0.441662	-0.784885	0.131693
N57	N	-0.940418	-1.181415	-0.461603
N58	N	-0.440418	-0.681415	0.038397
C59	C	-0.912953	-1.125494	-0.512035
C60	C	-0.412953	-0.625494	-0.012035
O61	O	-0.941053	-1.077956	-0.554935
O62	O	-0.441053	-0.577956	-0.054935
C63	C	-0.858348	-1.125467	-0.512026
C64	C	-0.358348	-0.625467	-0.012026
C65	C	-0.831208	-1.181357	-0.461581
C66	C	-0.331208	-0.681357	0.038419
C67	C	-0.831530	-1.293162	-0.360716
C68	C	-0.331530	-0.793162	0.139284
C69	C	-0.776928	-1.293129	-0.360702
C70	C	-0.276928	-0.793129	0.139298
C71	C	-0.749466	-1.237210	-0.411128
C72	C	-0.249466	-0.737210	0.088872
C73	C	-0.776606	-1.181324	-0.461568
C74	C	-0.276606	-0.681324	0.038432
C75	C	-0.830884	-1.069549	-0.562461
C76	C	-0.330884	-0.569549	-0.062461
C77	C	-0.776275	-1.069528	-0.562449
C78	C	-0.276275	-0.569528	-0.062449
C79	C	-0.749135	-1.125418	-0.512004
C80	C	-0.249135	-0.625418	-0.012004
C81	C	-0.694542	-1.125372	-0.511980
C82	C	-0.194542	-0.625372	-0.011980
N83	N	-0.667400	-1.181264	-0.461545
N84	N	-0.167400	-0.681264	0.038455
C85	C	-0.694862	-1.237183	-0.411119
C86	C	-0.194862	-0.737183	0.088881
C87	C	-1.027626	-1.125556	-0.512051
C88	C	-0.527626	-0.625556	-0.012051
C89	C	-1.082229	-1.125578	-0.512056
C90	C	-0.582229	-0.625578	-0.012056
C91	C	-1.082548	-1.237393	-0.411190
C92	C	-0.582548	-0.737393	0.088810
C93	C	-1.027944	-1.237366	-0.411181
C94	C	-0.527944	-0.737366	0.088819
C95	C	-1.000483	-1.181448	-0.461616
C96	C	-0.500483	-0.681448	0.038384
C97	C	-0.580193	-1.237109	-0.411093
C98	C	-0.080193	-0.737109	0.088907
C99	C	-0.525586	-1.237069	-0.411082
C100	C	-0.025586	-0.737069	0.088918
C101	C	-0.525272	-1.125257	-0.511950
C102	C	-0.025272	-0.625257	-0.011950
C103	C	-0.579874	-1.125294	-0.511959
C104	C	-0.079874	-0.625294	-0.011959
C105	C	-0.607333	-1.181227	-0.461528
C106	C	-0.107333	-0.681227	0.038472
O107	O	-0.666122	-1.077821	-0.554821
O108	O	-0.166122	-0.577821	-0.054821
O109	O	-0.666754	-1.284719	-0.368234
O110	O	-0.166754	-0.784719	0.131766
C111	C	-0.167807	-1.181432	-0.461605
C112	C	0.332193	-0.681432	0.038395
C113	C	-0.109696	-1.181500	-0.461633
C114	C	0.390304	-0.681500	0.038367
C115	C	-0.310693	-1.170322	-0.678434
C116	C	0.189307	-0.670322	-0.178434
C117	C	-0.313472	-1.165656	-0.770861
C118	C	0.186528	-0.665656	-0.270861
C119	C	-0.311440	-0.398165	-0.472546
C120	C	0.188560	0.101835	0.027454
C121	C	-0.314541	-0.490593	-0.477202
C122	C	0.185459	0.009407	0.022798
C123	C	-0.289669	-1.205604	-0.983850
C124	C	0.210331	-0.705604	-0.483850
C125	C	-0.318522	-1.157109	-0.940081
C126	C	0.181478	-0.657109	-0.440081
C127	C	-0.315711	-1.161866	-0.845918
C128	C	0.184289	-0.661866	-0.345918
C129	C	-0.292479	-1.200848	-1.078021
C130	C	0.207521	-0.700848	-0.578021
C131	C	-0.297642	-1.192227	-0.245493
C132	C	0.202358	-0.692227	0.254507
C133	C	-0.294721	-1.197055	-0.153074
C134	C	0.205279	-0.697055	0.346926
H135	H	-0.258486	-0.670312	-0.392385
H136	H	0.241514	-0.170312	0.107615
H137	H	-0.262859	-1.250693	-0.950606
H138	H	0.237141	-0.750693	-0.450606
O139	O	-0.857221	-1.015343	-0.611593
O140	O	-0.357221	-0.515343	-0.111593
C141	C	-0.846924	-1.029259	-0.695395
C142	C	-0.346924	-0.529259	-0.195395
H143	H	-0.834225	-1.095468	-0.703004
H144	H	-0.334225	-0.595468	-0.203004
H145	H	-0.814405	-0.983557	-0.714818
H146	H	-0.314405	-0.483557	-0.214818
C147	C	-0.912356	-0.935438	-0.741073
C148	C	-0.412356	-0.435438	-0.241073
C149	C	-0.896763	-1.016760	-0.750420
C150	C	-0.396763	-0.516760	-0.250420
H151	H	-0.943098	-0.927725	-0.775016
H152	H	-0.443098	-0.427725	-0.275016
H153	H	-0.919292	-0.926060	-0.684614
H154	H	-0.419292	-0.426060	-0.184614
H155	H	-0.885253	-0.897363	-0.757258
H156	H	-0.385253	-0.397363	-0.257258
H157	H	-0.923863	-1.054833	-0.734225
H158	H	-0.423863	-0.554833	-0.234225
H159	H	-0.889833	-1.026145	-0.806877
H160	H	-0.389833	-0.526145	-0.306877
H161	H	-0.349906	-0.693074	-0.530707
H162	H	0.150094	-0.193074	-0.030707
O163	O	-0.350508	-1.103398	-0.979868
O164	O	0.149492	-0.603398	-0.479868
C165	C	-0.346230	-1.110543	-1.066390
C166	C	0.153770	-0.610543	-0.566390
H167	H	-0.331589	-1.174147	-1.081418
H168	H	0.168411	-0.674147	-0.581418
H169	H	-0.317467	-1.060022	-1.088541
H170	H	0.182533	-0.560022	-0.588541
C171	C	-0.418168	-1.022558	-1.092222
C172	C	0.081832	-0.522558	-0.592222
C173	C	-0.400190	-1.100681	-1.110680
C174	C	0.099810	-0.600681	-0.610680
H175	H	-0.451452	-1.016471	-1.119544
H176	H	0.048548	-0.516471	-0.619544
H177	H	-0.421049	-1.017741	-1.033931
H178	H	0.078951	-0.517741	-0.533931
H179	H	-0.394194	-0.980465	-1.110681
H180	H	0.105806	-0.480465	-0.610681
H181	H	-0.424160	-1.142772	-1.092212
H182	H	0.075840	-0.642772	-0.592212
H183	H	-0.397314	-1.105505	-1.168970
H184	H	0.102686	-0.605505	-0.668970
H185	H	-0.503491	-1.282581	-0.370001
H186	H	-0.003491	-0.782581	0.129999
H187	H	-0.602545	-1.282657	-0.370030
H188	H	-0.102545	-0.782657	0.129970
H189	H	-0.754834	-1.338642	-0.319628
H190	H	-0.254834	-0.838642	0.180372
O191	O	-0.858119	-1.347515	-0.311648
O192	O	-0.358119	-0.847515	0.188352
C193	C	-0.822446	-1.396842	-0.267151
C194	C	-0.322446	-0.896842	0.232849
H195	H	-0.782319	-1.362904	-0.262522
H196	H	-0.282319	-0.862904	0.237478
H197	H	-0.819620	-1.458431	-0.300856
H198	H	-0.319620	-0.958431	0.199144
C199	C	-0.890783	-1.455058	-0.184951
C200	C	-0.390783	-0.955058	0.315049
C201	C	-0.841500	-1.413371	-0.179261
C202	C	-0.341500	-0.913371	0.320739
H203	H	-0.902537	-1.465257	-0.130738
H204	H	-0.402537	-0.965257	0.369262
H205	H	-0.914818	-1.421828	-0.214932
H206	H	-0.414818	-0.921828	0.285068
H207	H	-0.888422	-1.506377	-0.213043
H208	H	-0.388422	-1.006377	0.286957
H209	H	-0.843863	-1.362048	-0.151179
H210	H	-0.343863	-0.862048	0.348821
H211	H	-0.817466	-1.446593	-0.149273
H212	H	-0.317466	-0.946593	0.350727
H213	H	-1.005850	-1.282877	-0.370105
H214	H	-0.505850	-0.782877	0.129895
H215	H	-1.104918	-1.282928	-0.370133
H216	H	-0.604918	-0.782928	0.129867
H217	H	-1.005269	-1.080013	-0.553118
H218	H	-0.505269	-0.580013	-0.053118
O219	O	-1.108510	-1.071249	-0.561128
O220	O	-0.608510	-0.571249	-0.061128
C221	C	-1.072554	-1.021876	-0.605611
C222	C	-0.572554	-0.521876	-0.105611
H223	H	-1.034835	-1.055770	-0.610234
H224	H	-0.534835	-0.555770	-0.110234
H225	H	-1.063765	-0.960284	-0.571898
H226	H	-0.563765	-0.460284	-0.071898
C227	C	-1.142429	-0.963732	-0.687821
C228	C	-0.642429	-0.463732	-0.187821
C229	C	-1.096103	-1.005363	-0.693505
C230	C	-0.596103	-0.505363	-0.193505
H231	H	-1.156956	-0.953542	-0.742037
H232	H	-0.656956	-0.453542	-0.242037
H233	H	-1.166654	-0.996993	-0.657850
H234	H	-0.666654	-0.496993	-0.157850
H235	H	-1.135099	-0.912410	-0.659724
H236	H	-0.635099	-0.412410	-0.159724
H237	H	-1.103435	-1.056689	-0.721593
H238	H	-0.603435	-0.556689	-0.221593
H239	H	-1.071881	-0.972110	-0.723483
H240	H	-0.571881	-0.472110	-0.223483
H241	H	-0.502904	-1.079726	-0.553004
H242	H	-0.002904	-0.579726	-0.053004
H243	H	-0.753920	-1.023993	-0.603521
H244	H	-0.253920	-0.523993	-0.103521
O245	O	-0.606161	-1.070971	-0.561034
O246	O	-0.106161	-0.570971	-0.061034
C247	C	-0.570209	-1.021592	-0.605519
C248	C	-0.070209	-0.521592	-0.105519
H249	H	-0.532486	-1.055476	-0.610137
H250	H	-0.032486	-0.555476	-0.110137
H251	H	-0.561427	-0.959996	-0.571811
H252	H	-0.061427	-0.459996	-0.071811
C253	C	-0.640089	-0.963471	-0.687738
C254	C	-0.140089	-0.463471	-0.187738
C255	C	-0.593759	-1.005091	-0.693415
C256	C	-0.093759	-0.505091	-0.193415
H257	H	-0.654616	-0.953289	-0.741955
H258	H	-0.154616	-0.453289	-0.241955
H259	H	-0.664311	-0.996736	-0.657765
H260	H	-0.164311	-0.496736	-0.157765
H261	H	-0.632765	-0.912146	-0.659644
H262	H	-0.132765	-0.412146	-0.159644
H263	H	-0.601085	-1.056420	-0.721499
H264	H	-0.101085	-0.556420	-0.221499
H265	H	-0.569539	-0.971835	-0.723395
H266	H	-0.069539	-0.471835	-0.223395
