data_functionalizedCrystal
_audit_creation_method	'MofGen! by Chris Wilmer'
_symmetry_space_group_name_H-M	'P1'
_symmetry_Int_Tables_number	1
_symmetry_cell_setting	triclinic
loop_
_symmetry_equiv_pos_as_xyz
  x,y,z
_cell_length_a	10.489741
_cell_length_b	14.044220
_cell_length_c	12.503572
_cell_angle_alpha	86.156832
_cell_angle_beta	93.551639
_cell_angle_gamma	88.864026
loop_
_atom_site_label
_atom_site_type_symbol
_atom_site_fract_x
_atom_site_fract_y
_atom_site_fract_z
O1	O	-1.714360	-0.128402	-0.089257
O2	O	-1.344439	-0.140964	-0.089274
O3	O	-1.523846	0.003339	-0.089255
O4	O	-1.534953	-0.272705	-0.089275
O5	O	-1.510356	-0.007531	0.089386
O6	O	-1.330949	-0.151834	0.089367
O7	O	-1.700869	-0.139273	0.089384
Cu8	Cu	-1.514677	-0.146546	0.105687
Cu9	Cu	-1.530631	-0.133690	-0.105576
O10	O	-1.521462	-0.283575	0.089365
C11	C	-1.290066	-0.145450	0.000045
C12	C	-1.148150	-0.142611	0.000038
C13	C	-1.512240	0.033251	0.000066
C14	C	-1.497740	0.138576	0.000066
C15	C	-1.755242	-0.134786	0.000063
C16	C	-1.897160	-0.137625	0.000062
C17	C	-1.070696	-0.050796	0.000055
C18	C	-0.989620	-0.088809	-0.088025
C19	C	-0.976355	-0.099548	0.088101
C20	C	-1.068948	-0.180657	-0.088114
C21	C	-1.055686	-0.191389	0.088090
C22	C	-0.974646	-0.229468	-0.000011
C23	C	-1.533069	-0.313487	0.000042
C24	C	-1.547569	-0.418812	0.000034
N25	N	-1.503465	-0.155587	0.254278
C26	C	-1.471233	0.331419	0.000050
C27	C	-1.574071	0.388351	0.000051
C28	C	-1.559322	0.495655	0.000042
C29	C	-1.485980	0.224105	0.000059
N30	N	-1.541853	-0.124641	-0.254168
C31	C	-1.486973	-0.168896	0.473391
C32	C	-1.558341	-0.111336	0.526726
C33	C	-1.549164	-0.118741	0.648648
C34	C	-1.496148	-0.161492	0.351458
H35	H	-1.112738	0.024690	-0.000049
H36	H	-1.372122	0.363266	0.000043
H37	H	-1.109343	-0.214940	-0.162663
O38	O	-1.639491	-0.045835	0.472136
C39	C	-1.704075	0.006208	0.545739
H40	H	-1.645667	0.002804	0.625940
H41	H	-1.717193	0.083784	0.513144
H42	H	-1.801589	-0.025877	0.557648
H43	H	-1.418987	-0.223732	0.519292
H44	H	-0.960288	-0.045428	-0.162486
H45	H	-0.932889	-0.305023	-0.000065
H46	H	-1.085046	-0.234738	0.162555
H47	H	-1.673195	0.356507	-0.000016
O48	O	-0.928145	-0.058465	0.176908
C49	C	-0.977281	0.035738	0.176559
H50	H	-1.070927	0.042810	0.124996
H51	H	-0.995135	0.053086	0.262219
H52	H	-0.905515	0.087493	0.142181
