data_functionalizedCrystal
_audit_creation_method	'MofGen! by Chris Wilmer'
_symmetry_space_group_name_H-M	'P1'
_symmetry_Int_Tables_number	1
_symmetry_cell_setting	triclinic
loop_
_symmetry_equiv_pos_as_xyz
  x,y,z
_cell_length_a	12.759401
_cell_length_b	21.295416
_cell_length_c	12.759393
_cell_angle_alpha	90.035874
_cell_angle_beta	89.981227
_cell_angle_gamma	89.969685
loop_
_atom_site_label
_atom_site_type_symbol
_atom_site_fract_x
_atom_site_fract_y
_atom_site_fract_z
Zn1	Zn	1.606138	0.250577	-0.593961
Zn2	Zn	1.605985	0.355860	-0.418265
Zn3	Zn	1.430441	0.250609	-0.418298
Zn4	Zn	1.430381	0.355813	-0.593905
O5	O	1.518236	0.303215	-0.506107
O6	O	1.753139	0.264550	-0.570664
O7	O	1.582660	0.341931	-0.271248
O8	O	1.453837	0.162515	-0.441638
O9	O	1.753027	0.341901	-0.441581
O10	O	1.582920	0.162492	-0.570696
O11	O	1.453689	0.264603	-0.271273
O12	O	1.283412	0.264557	-0.441583
O13	O	1.453734	0.341820	-0.740933
O14	O	1.283368	0.341850	-0.570601
O15	O	1.582862	0.264504	-0.740974
O16	O	1.582602	0.443943	-0.441527
O17	O	1.453586	0.443908	-0.570568
C18	C	1.245269	0.303203	-0.506090
C19	C	1.128492	0.303213	-0.506108
C20	C	0.963959	0.263017	-0.573434
C21	C	1.073683	0.263008	-0.573424
C22	C	1.073572	0.343433	-0.438803
C23	C	0.963850	0.343444	-0.438819
C24	C	0.909155	0.222805	-0.640748
C25	C	0.964068	0.182586	-0.708054
C26	C	1.073792	0.182577	-0.708044
C27	C	1.128603	0.222788	-0.640729
C28	C	1.518099	0.466766	-0.506061
C29	C	1.518137	0.536734	-0.506076
C30	C	1.585375	0.569598	-0.438955
C31	C	1.585425	0.635341	-0.438984
C32	C	1.518217	0.668217	-0.506122
C33	C	1.450974	0.635345	-0.573256
C34	C	1.450934	0.569604	-0.573233
N35	N	1.426311	0.771482	-0.514133
N36	N	1.426352	0.833934	-0.514148
C37	C	1.518336	0.866292	-0.506196
N38	N	1.610279	0.833839	-0.498207
N39	N	1.610237	0.771382	-0.498186
C40	C	1.518254	0.739502	-0.506154
C41	C	1.585634	0.970441	-0.439103
C42	C	1.585685	1.036185	-0.439138
C43	C	1.451225	1.036188	-0.573405
C44	C	1.451183	0.970445	-0.573375
C45	C	1.518386	0.937576	-0.506218
C46	C	1.792269	0.303227	-0.506125
C47	C	1.909046	0.303233	-0.506133
C48	C	1.518404	1.139024	-0.506195
C49	C	1.518478	1.069056	-0.506278
C50	C	1.518308	0.303154	-0.780141
C51	C	1.518339	0.303127	-0.896917
C52	C	1.451156	0.343346	-1.061485
C53	C	1.451124	0.343369	-0.951760
C54	C	1.585584	0.262856	-0.951804
C55	C	1.585610	0.262830	-1.061526
C56	C	1.383944	0.383595	-1.116322
C57	C	1.316697	0.423866	-1.061443
C58	C	1.316665	0.423889	-0.951719
C59	C	1.383879	0.383641	-0.896874
C60	C	1.518225	0.303230	-0.233140
C61	C	1.518398	0.303079	-0.116364
H62	H	0.919139	0.376193	-0.384018
C63	C	1.658464	0.534026	-0.366017
C64	C	1.717382	0.576883	-0.307262
C65	C	1.784735	0.544136	-0.240075
H66	H	1.618407	0.508419	-0.320102
H67	H	1.704261	0.508352	-0.406219
H68	H	1.671591	0.602546	-0.267064
H69	H	1.757460	0.602491	-0.353150
H70	H	1.830532	0.518462	-0.280277
H71	H	1.744670	0.518530	-0.194167
H72	H	1.824725	0.573209	-0.200209
C73	C	1.658530	0.671073	-0.366261
C74	C	1.725882	0.708750	-0.425794
C75	C	1.793236	0.741670	-0.358833
H76	H	1.618469	0.696807	-0.320457
H77	H	1.698610	0.642108	-0.326269
H78	H	1.685806	0.737711	-0.465769
H79	H	1.765967	0.683031	-0.471597
H80	H	1.833316	0.712705	-0.318841
H81	H	1.753166	0.767401	-0.313031
H82	H	1.838949	0.767233	-0.399216
C83	C	1.378227	0.934841	-0.646410
C84	C	1.401035	0.950780	-0.750386
C85	C	1.333839	0.918001	-0.817699
H86	H	1.387759	0.890971	-0.636925
H87	H	1.307635	0.945676	-0.631035
H88	H	1.471610	0.939941	-0.765755
H89	H	1.391497	0.994645	-0.759904
H90	H	1.263247	0.928836	-0.802324
H91	H	1.343376	0.874132	-0.808204
H92	H	1.349298	0.928815	-0.888253
C93	C	1.658733	1.071755	-0.366145
C94	C	1.717553	1.028894	-0.307312
C95	C	1.784845	1.061639	-0.240049
H96	H	1.704602	1.097356	-0.406264
H97	H	1.618604	1.097433	-0.320291
H98	H	1.757679	1.003227	-0.353160
H99	H	1.671711	1.003292	-0.267172
H100	H	1.744716	1.087318	-0.194195
H101	H	1.830707	1.087240	-0.280176
H102	H	1.824755	1.032564	-0.200116
C103	C	1.243899	0.467639	-1.121038
C104	C	1.303367	0.507987	-1.183990
C105	C	1.236340	0.548326	-1.238890
H106	H	1.198136	0.443623	-1.163937
H107	H	1.203864	0.491660	-1.072668
H108	H	1.343383	0.483969	-1.232354
H109	H	1.349127	0.532017	-1.141117
H110	H	1.196305	0.572346	-1.190520
H111	H	1.190580	0.524304	-1.281783
H112	H	1.276679	0.575710	-1.281602
C113	C	1.243616	0.467677	-0.892323
C114	C	1.184783	0.502928	-0.963837
C115	C	1.117492	0.543281	-0.909163
H116	H	1.197755	0.443677	-0.849524
H117	H	1.283747	0.495148	-0.849534
H118	H	1.144655	0.475460	-1.006608
H119	H	1.230616	0.526940	-1.006638
H120	H	1.157623	0.570753	-0.866374
H121	H	1.071638	0.519277	-0.866365
H122	H	1.077573	0.567208	-0.957676
H123	H	1.640359	0.230038	-1.106210
H124	H	1.118499	0.149833	-0.762855
C125	C	1.378299	1.071987	-0.646190
C126	C	1.392710	1.136596	-0.631831
C127	C	1.325542	1.169596	-0.698860
H128	H	1.393566	1.061243	-0.716832
H129	H	1.307686	1.061297	-0.630741
H130	H	1.463307	1.147281	-0.647288
H131	H	1.377436	1.147358	-0.561204
H132	H	1.254929	1.158906	-0.683410
H133	H	1.340814	1.158847	-0.769497
H134	H	1.335304	1.213436	-0.689120
C135	C	1.133268	0.387015	-0.365755
C136	C	1.241111	0.378384	-0.380126
C137	C	1.296133	0.418514	-0.312839
H138	H	1.115398	0.429349	-0.380937
H139	H	1.115318	0.377747	-0.295172
H140	H	1.259053	0.387656	-0.450693
H141	H	1.259012	0.336058	-0.364937
H142	H	1.278184	0.409246	-0.242256
H143	H	1.278255	0.460845	-0.328026
H144	H	1.369310	0.412659	-0.322573
H145	H	0.819812	0.222805	-0.640758
C146	C	0.904375	0.138956	-0.781025
C147	C	0.796530	0.147558	-0.766611
C148	C	0.741511	0.107372	-0.833807
H149	H	0.922253	0.148177	-0.851629
H150	H	0.922318	0.096635	-0.765763
H151	H	0.778594	0.189870	-0.781880
H152	H	0.778620	0.138333	-0.696021
H153	H	0.759455	0.065050	-0.818545
H154	H	0.759399	0.116596	-0.904406
H155	H	0.668334	0.113198	-0.824030
C156	C	1.378044	0.671150	-0.646034
C157	C	1.392448	0.735758	-0.631667
C158	C	1.325275	0.768759	-0.698689
H159	H	1.393309	0.660410	-0.716677
H160	H	1.307432	0.660456	-0.630584
H161	H	1.463043	0.746447	-0.647125
H162	H	1.377175	0.746517	-0.561038
H163	H	1.254663	0.758066	-0.683238
H164	H	1.340546	0.758014	-0.769328
H165	H	1.335032	0.812599	-0.688943
C166	C	1.383789	0.383817	-0.777743
C167	C	1.310559	0.427723	-0.741417
C168	C	1.310490	0.427929	-0.631683
H169	H	1.365639	0.343249	-0.752738
H170	H	1.451572	0.394755	-0.752952
H171	H	1.242791	0.416781	-0.766197
H172	H	1.328692	0.468297	-0.766393
H173	H	1.378273	0.438867	-0.606892
H174	H	1.292341	0.387359	-0.606688
H175	H	1.260811	0.457722	-0.607021
C176	C	1.658426	0.934714	-0.366073
C177	C	1.598949	0.897053	-0.298648
C178	C	1.665968	0.864141	-0.231351
H179	H	1.704182	0.908970	-0.406173
H180	H	1.698469	0.963684	-0.326044
H181	H	1.558924	0.868087	-0.338673
H182	H	1.553196	0.922782	-0.258525
H183	H	1.706011	0.893110	-0.191321
H184	H	1.711720	0.838400	-0.271459
H185	H	1.625623	0.838588	-0.185589
H186	H	1.217948	0.222773	-0.640719
H187	H	1.396179	0.542846	-0.627892
H188	H	1.383965	0.383582	-1.205665
H189	H	1.640307	0.230088	-0.907141
