data_functionalizedCrystal
_audit_creation_method	'MofGen! by Chris Wilmer'
_symmetry_space_group_name_H-M	'P1'
_symmetry_Int_Tables_number	1
_symmetry_cell_setting	triclinic
loop_
_symmetry_equiv_pos_as_xyz
  x,y,z
_cell_length_a	19.077236
_cell_length_b	29.839132
_cell_length_c	19.077174
_cell_angle_alpha	87.731998
_cell_angle_beta	85.294282
_cell_angle_gamma	87.662196
loop_
_atom_site_label
_atom_site_type_symbol
_atom_site_fract_x
_atom_site_fract_y
_atom_site_fract_z
Zn1	Zn	1.093645	0.162207	-0.441944
Zn2	Zn	1.426979	0.495541	-0.108611
Zn3	Zn	1.760312	0.828874	0.224723
Zn4	Zn	1.088789	0.234437	-0.324043
Zn5	Zn	1.422122	0.567770	0.009291
Zn6	Zn	1.755455	0.901104	0.342624
Zn7	Zn	0.971027	0.162214	-0.319327
Zn8	Zn	1.304360	0.495548	0.014006
Zn9	Zn	1.637693	0.828881	0.347340
Zn10	Zn	0.975676	0.240207	-0.437146
Zn11	Zn	1.309009	0.573540	-0.103813
Zn12	Zn	1.642343	0.906873	0.229521
O13	O	1.032284	0.199766	-0.380615
O14	O	1.365617	0.533100	-0.047282
O15	O	1.698951	0.866433	0.286052
O16	O	1.191655	0.169371	-0.430286
O17	O	1.524989	0.502704	-0.096952
O18	O	1.858322	0.836038	0.236381
O19	O	1.069189	0.222444	-0.224767
O20	O	1.402522	0.555778	0.108566
O21	O	1.735856	0.889111	0.441899
O22	O	0.987379	0.099345	-0.335627
O23	O	1.320712	0.432678	-0.002293
O24	O	1.654046	0.766011	0.331040
O25	O	1.188087	0.222438	-0.343664
O26	O	1.521421	0.555771	-0.010331
O27	O	1.854754	0.889104	0.323003
O28	O	1.077466	0.099340	-0.425713
O29	O	1.410800	0.432673	-0.092380
O30	O	1.744133	0.766006	0.240954
O31	O	0.982670	0.169383	-0.221303
O32	O	1.316003	0.502716	0.112031
O33	O	1.649336	0.836049	0.445364
O34	O	0.872989	0.174978	-0.330975
O35	O	1.206322	0.508311	0.002359
O36	O	1.539656	0.841644	0.335692
O37	O	0.995303	0.232272	-0.536432
O38	O	1.328636	0.565605	-0.203099
O39	O	1.661970	0.898939	0.130234
O40	O	0.876405	0.232279	-0.417536
O41	O	1.209738	0.565612	-0.084202
O42	O	1.543071	0.898945	0.249131
O43	O	1.081975	0.174966	-0.539957
O44	O	1.415308	0.508299	-0.206624
O45	O	1.748641	0.841633	0.126709
O46	O	1.073697	0.298071	-0.339012
O47	O	1.407031	0.631404	-0.005678
O48	O	1.740364	0.964737	0.327655
O49	O	0.990594	0.302310	-0.422108
O50	O	1.323927	0.635643	-0.088775
O51	O	1.657261	0.968977	0.244558
C52	C	0.849117	0.204255	-0.373223
C53	C	1.182450	0.537589	-0.039890
C54	C	1.515784	0.870922	0.293444
C55	C	0.770758	0.206187	-0.370078
C56	C	1.104091	0.539520	-0.036744
C57	C	1.437424	0.872854	0.296589
C58	C	0.735806	0.179513	-0.413768
C59	C	1.069139	0.512846	-0.080435
C60	C	1.402472	0.846179	0.252899
C61	C	0.662179	0.181325	-0.410806
C62	C	0.995512	0.514659	-0.077473
C63	C	1.328845	0.847992	0.255860
C64	C	0.623505	0.209815	-0.364157
C65	C	0.956839	0.543148	-0.030824
C66	C	1.290172	0.876482	0.302509
C67	C	0.658463	0.236490	-0.320462
C68	C	0.991796	0.569824	0.012871
C69	C	1.325129	0.903157	0.346204
C70	C	0.732088	0.234675	-0.323421
C71	C	1.065421	0.568008	0.009912
C72	C	1.398755	0.901342	0.343246
C73	C	0.403109	0.218200	-0.350462
C74	C	0.736442	0.551533	-0.017129
C75	C	1.069776	0.884866	0.316205
C76	C	0.329479	0.220014	-0.347508
C77	C	0.662812	0.553347	-0.014175
C78	C	0.996145	0.886681	0.319158
C79	C	0.333200	0.164848	-0.437852
C80	C	0.666533	0.498182	-0.104518
C81	C	0.999866	0.831515	0.228815
C82	C	0.406827	0.163038	-0.440809
C83	C	0.740160	0.496371	-0.107476
C84	C	1.073493	0.829704	0.225858
C85	C	0.441777	0.189711	-0.397111
C86	C	0.775111	0.523044	-0.063778
C87	C	1.108444	0.856378	0.269555
N88	N	0.548247	0.211670	-0.361131
N89	N	0.881580	0.545003	-0.027797
N90	N	1.214914	0.878336	0.305536
N91	N	0.517034	0.187854	-0.400135
N92	N	0.850368	0.521187	-0.066802
N93	N	1.183701	0.854520	0.266531
C94	C	1.032143	0.316491	-0.380567
C95	C	1.365476	0.649825	-0.047234
C96	C	1.698810	0.983158	0.286099
C97	C	1.032148	0.366426	-0.380573
C98	C	1.365481	0.699759	-0.047240
C99	C	1.698815	1.033092	0.286094
C100	C	1.075589	0.673847	-0.337385
C101	C	1.408923	1.007180	-0.004052
C102	C	1.742256	1.340514	0.329282
C103	C	1.075657	0.861519	-0.337404
C104	C	1.408991	1.194852	-0.004070
C105	C	1.742324	1.528185	0.329263
O106	O	1.112517	0.883896	-0.300668
O107	O	1.445850	1.217229	0.032665
O108	O	1.779183	1.550562	0.365999
N109	N	1.032358	0.887207	-0.380629
N110	N	1.365692	1.220540	-0.047296
N111	N	1.699025	1.553873	0.286037
C112	C	0.989043	0.865974	-0.423857
C113	C	1.322376	1.199308	-0.090524
C114	C	1.655709	1.532641	0.242810
O115	O	0.952221	0.892130	-0.460629
O116	O	1.285555	1.225463	-0.127296
O117	O	1.618888	1.558797	0.206038
C118	C	0.988979	0.678303	-0.423842
C119	C	1.322312	1.011637	-0.090508
C120	C	1.655646	1.344970	0.242825
C121	C	1.032276	0.652617	-0.380608
C122	C	1.365609	0.985951	-0.047274
C123	C	1.698942	1.319284	0.286059
C124	C	1.118883	0.648161	-0.294155
C125	C	1.452216	0.981494	0.039178
C126	C	1.785550	1.314828	0.372512
C127	C	1.118863	0.601246	-0.294148
C128	C	1.452196	0.934579	0.039185
C129	C	1.785529	1.267913	0.372519
C130	C	1.075549	0.580017	-0.337371
C131	C	1.408882	0.913350	-0.004037
C132	C	1.742216	1.246683	0.329296
C133	C	1.032255	0.605702	-0.380601
C134	C	1.365589	0.939036	-0.047267
C135	C	1.698922	1.272369	0.286066
C136	C	0.945668	0.657072	-0.467072
C137	C	1.279001	0.990405	-0.133739
C138	C	1.612334	1.323738	0.199594
C139	C	0.945657	0.610151	-0.467066
C140	C	1.278990	0.943484	-0.133733
C141	C	1.612324	1.276818	0.199601
C142	C	0.988953	0.584465	-0.423832
C143	C	1.322287	0.917798	-0.090499
C144	C	1.655620	1.251132	0.242835
C145	C	0.988921	0.537558	-0.423816
C146	C	1.322255	0.870891	-0.090483
C147	C	1.655588	1.204225	0.242850
N148	N	1.032220	0.511870	-0.380590
N149	N	1.365554	0.845203	-0.047257
N150	N	1.698887	1.178536	0.286076
C151	C	1.075534	0.533099	-0.337368
C152	C	1.408867	0.866432	-0.004034
C153	C	1.742201	1.199766	0.329299
C154	C	0.989078	0.964504	-0.423861
C155	C	1.322412	1.297837	-0.090528
C156	C	1.655745	1.631171	0.242806
C157	C	0.989093	1.011422	-0.423864
C158	C	1.322427	1.344755	-0.090531
C159	C	1.655760	1.678088	0.242802
C160	C	1.075709	1.006963	-0.337411
C161	C	1.409042	1.340296	-0.004078
C162	C	1.742375	1.673629	0.329255
C163	C	1.075690	0.960044	-0.337405
C164	C	1.409023	1.293378	-0.004072
C165	C	1.742356	1.626711	0.329261
C166	C	1.032377	0.938816	-0.380635
C167	C	1.365711	1.272149	-0.047302
C168	C	1.699044	1.605483	0.286031
C169	C	1.075488	0.434574	-0.337356
C170	C	1.408821	0.767907	-0.004022
C171	C	1.742155	1.101241	0.329311
C172	C	1.075462	0.387655	-0.337350
C173	C	1.408795	0.720988	-0.004017
C174	C	1.742128	1.054322	0.329316
C175	C	0.988849	0.392118	-0.423805
C176	C	1.322182	0.725451	-0.090472
C177	C	1.655516	1.058785	0.242861
C178	C	0.988872	0.439033	-0.423808
C179	C	1.322206	0.772366	-0.090475
C180	C	1.655539	1.105700	0.242858
C181	C	1.032197	0.460260	-0.380581
C182	C	1.365531	0.793593	-0.047248
C183	C	1.698864	1.126926	0.286085
O184	O	0.952087	0.515151	-0.460539
O185	O	1.285421	0.848484	-0.127205
O186	O	1.618754	1.181818	0.206128
O187	O	1.112362	0.506936	-0.300613
O188	O	1.445695	0.840269	0.032721
O189	O	1.779028	1.173602	0.366054
C190	C	1.075610	0.720762	-0.337392
C191	C	1.408943	1.054095	-0.004059
C192	C	1.742276	1.387429	0.329275
C193	C	1.032316	0.746448	-0.380622
C194	C	1.365649	1.079781	-0.047288
C195	C	1.698983	1.413114	0.286045
C196	C	0.989002	0.725218	-0.423845
C197	C	1.322336	1.058552	-0.090511
C198	C	1.655669	1.391885	0.242822
C199	C	1.032331	0.793365	-0.380625
C200	C	1.365664	1.126699	-0.047292
C201	C	1.698998	1.460032	0.286042
C202	C	1.075645	0.814595	-0.337402
C203	C	1.408978	1.147928	-0.004069
C204	C	1.742311	1.481261	0.329265
C205	C	1.118944	0.788906	-0.294176
C206	C	1.452277	1.122240	0.039157
C207	C	1.785610	1.455573	0.372490
C208	C	1.118923	0.741991	-0.294169
C209	C	1.452257	1.075325	0.039164
C210	C	1.785590	1.408658	0.372498
C211	C	0.945703	0.750907	-0.467070
C212	C	1.279037	1.084240	-0.133737
C213	C	1.612370	1.417573	0.199596
C214	C	0.945727	0.797822	-0.467073
C215	C	1.279060	1.131155	-0.133740
C216	C	1.612393	1.464488	0.199593
C217	C	0.989040	0.819051	-0.423851
C218	C	1.322374	1.152384	-0.090517
C219	C	1.655707	1.485718	0.242816
C220	C	1.216167	0.195260	-0.388036
C221	C	1.549500	0.528593	-0.054703
C222	C	1.882833	0.861927	0.278631
C223	C	1.294526	0.193340	-0.391199
C224	C	1.627860	0.526673	-0.057865
C225	C	1.961193	0.860006	0.275468
C226	C	1.039699	0.204262	-0.564489
C227	C	1.373033	0.537595	-0.231156
C228	C	1.706366	0.870928	0.102178
C229	C	1.042859	0.206178	-0.642845
C230	C	1.376192	0.539511	-0.309512
C231	C	1.709526	0.872844	0.023822
C232	C	1.032419	1.082586	-0.380663
C233	C	1.365752	1.415919	-0.047329
C234	C	1.699085	1.749252	0.286004
C235	C	1.032407	1.032651	-0.380641
C236	C	1.365740	1.365984	-0.047308
C237	C	1.699074	1.699318	0.286025
C238	C	0.999300	0.179452	-0.677852
C239	C	1.332633	0.512785	-0.344519
C240	C	1.665966	0.846118	-0.011186
C241	C	1.002266	0.181255	-0.751476
C242	C	1.335599	0.514589	-0.418143
C243	C	1.668933	0.847922	-0.084810
C244	C	1.048796	0.209783	-0.790091
C245	C	1.382129	0.543116	-0.456758
C246	C	1.715462	0.876450	-0.123425
C247	C	1.092357	0.236512	-0.755079
C248	C	1.425690	0.569845	-0.421745
C249	C	1.759024	0.903179	-0.088412
C250	C	1.089387	0.234710	-0.681456
C251	C	1.422720	0.568044	-0.348123
C252	C	1.756053	0.901377	-0.014789
C253	C	1.062506	0.218136	-1.010473
C254	C	1.395840	0.551470	-0.677139
C255	C	1.729173	0.884803	-0.343806
C256	C	1.065475	0.219935	-1.084100
C257	C	1.398808	0.553268	-0.750767
C258	C	1.732142	0.886602	-0.417434
C259	C	0.975382	0.164679	-1.080493
C260	C	1.308716	0.498012	-0.747160
C261	C	1.642049	0.831346	-0.413826
C262	C	0.972419	0.162878	-1.006869
C263	C	1.305753	0.496211	-0.673536
C264	C	1.639086	0.829544	-0.340202
C265	C	1.015978	0.189608	-0.971863
C266	C	1.349311	0.522942	-0.638530
C267	C	1.682644	0.856275	-0.305196
N268	N	1.051830	0.211627	-0.865347
N269	N	1.385164	0.544960	-0.532013
N270	N	1.718497	0.878293	-0.198680
N271	N	1.012939	0.187767	-0.896609
N272	N	1.346272	0.521100	-0.563275
N273	N	1.679606	0.854434	-0.229942
C274	C	1.024939	0.195255	-0.197458
C275	C	1.358272	0.528588	0.135875
C276	C	1.691605	0.861922	0.469209
C277	C	1.021915	0.193209	-0.119108
C278	C	1.355249	0.526543	0.214225
C279	C	1.688582	0.859876	0.547559
H280	H	0.760545	0.256396	-0.287843
H281	H	1.093878	0.589729	0.045490
H282	H	1.427212	0.923062	0.378823
Br283	Br	0.936154	0.140730	-0.625454
Br284	Br	1.269487	0.474063	-0.292120
Br285	Br	1.602821	0.807397	0.041213
H286	H	1.124863	0.256470	-0.652954
H287	H	1.458196	0.589803	-0.319621
H288	H	1.791529	0.923136	0.013712
H289	H	1.110946	0.939133	-0.302201
H290	H	1.444279	1.272467	0.031132
H291	H	1.777612	1.605800	0.364466
H292	H	0.431557	0.239920	-0.314881
H293	H	0.764890	0.573253	0.018452
H294	H	1.098223	0.906586	0.351786
H295	H	1.110719	0.366743	-0.302142
H296	H	1.444052	0.700076	0.031192
H297	H	1.777385	1.033409	0.364525
H298	H	1.110769	0.451851	-0.302158
H299	H	1.444102	0.785184	0.031176
H300	H	1.777436	1.118518	0.364509
H301	H	0.767288	0.156315	-0.451756
H302	H	1.100622	0.489648	-0.118423
H303	H	1.433955	0.822981	0.214910
H304	H	0.626969	0.259685	-0.282476
H305	H	0.960302	0.593018	0.050857
H306	H	1.293635	0.926351	0.384190
H307	H	0.966792	0.159494	-0.779976
H308	H	1.300126	0.492828	-0.446643
H309	H	1.633459	0.826161	-0.113309
Br310	Br	1.177636	0.566394	-0.235481
Br311	Br	1.510970	0.899727	0.097853
Br312	Br	1.844303	1.233060	0.431186
H313	H	1.154158	0.665441	-0.258958
H314	H	1.487491	0.998774	0.074376
H315	H	1.820825	1.332107	0.407709
Br316	Br	0.909273	0.124158	-0.954468
Br317	Br	1.242606	0.457491	-0.621135
Br318	Br	1.575939	0.790825	-0.287801
H319	H	0.304735	0.143132	-0.473427
H320	H	0.638068	0.476465	-0.140093
H321	H	0.971402	0.809798	0.193240
H322	H	1.097967	0.239907	-0.981979
H323	H	1.431300	0.573241	-0.648646
H324	H	1.764634	0.906574	-0.315313
H325	H	1.110977	1.024255	-0.302218
H326	H	1.444310	1.357589	0.031115
H327	H	1.777644	1.690922	0.364449
H328	H	1.103368	0.243166	-1.115539
H329	H	1.436701	0.576499	-0.782206
H330	H	1.770035	0.909833	-0.448872
Br331	Br	0.614746	0.145123	-0.470103
Br332	Br	0.948079	0.478457	-0.136770
Br333	Br	1.281413	0.811790	0.196563
Br334	Br	0.459307	0.124376	-0.504127
Br335	Br	0.792641	0.457710	-0.170794
Br336	Br	1.125974	0.791043	0.162539
Br337	Br	0.930320	1.046275	-0.482530
Br338	Br	1.263654	1.379609	-0.149197
Br339	Br	1.596987	1.712942	0.184136
H340	H	0.953806	0.947223	-0.459065
H341	H	1.287140	1.280557	-0.125732
H342	H	1.620473	1.613890	0.207602
H343	H	0.297993	0.243216	-0.309521
H344	H	0.631326	0.576549	0.023813
H345	H	0.964659	0.909882	0.357146
H346	H	0.910408	0.677977	-0.502275
H347	H	1.243741	1.011311	-0.168941
H348	H	1.577074	1.344644	0.164392
Br349	Br	0.886875	0.581344	-0.525742
Br350	Br	1.220208	0.914677	-0.192408
Br351	Br	1.553542	1.248010	0.140925
H352	H	1.130239	0.259742	-0.786525
H353	H	1.463572	0.593075	-0.453191
H354	H	1.796906	0.926409	-0.119858
H355	H	0.953619	0.459948	-0.459015
H356	H	1.286952	0.793281	-0.125682
H357	H	1.620286	1.126614	0.207651
Br358	Br	0.916269	0.128405	-1.128005
Br359	Br	1.249602	0.461738	-0.794672
Br360	Br	1.582936	0.795072	-0.461338
H361	H	0.953581	0.374826	-0.458995
H362	H	1.286914	0.708159	-0.125662
H363	H	1.620248	1.041493	0.207672
H364	H	1.154180	0.721081	-0.258964
H365	H	1.487513	1.054414	0.074369
H366	H	1.820846	1.387748	0.407702
H367	H	1.154209	0.806199	-0.258981
H368	H	1.487543	1.139533	0.074353
H369	H	1.820876	1.472866	0.407686
H370	H	0.910463	0.818731	-0.502279
H371	H	1.243796	1.152065	-0.168945
H372	H	1.577130	1.485398	0.164388
H373	H	0.910433	0.733626	-0.502269
H374	H	1.243766	1.066959	-0.168935
H375	H	1.577100	1.400292	0.164398
