data_functionalizedCrystal
_audit_creation_method	'MofGen! by Chris Wilmer'
_symmetry_space_group_name_H-M	'P1'
_symmetry_Int_Tables_number	1
_symmetry_cell_setting	triclinic
loop_
_symmetry_equiv_pos_as_xyz
  x,y,z
_cell_length_a	12.759401
_cell_length_b	16.625545
_cell_length_c	12.759393
_cell_angle_alpha	89.966614
_cell_angle_beta	89.979527
_cell_angle_gamma	90.027083
loop_
_atom_site_label
_atom_site_type_symbol
_atom_site_fract_x
_atom_site_fract_y
_atom_site_fract_z
Zn1	Zn	1.606182	-0.320925	-0.594003
Zn2	Zn	1.606042	-0.455781	-0.418316
Zn3	Zn	1.430482	-0.320970	-0.418338
Zn4	Zn	1.430440	-0.455723	-0.593953
O5	O	1.518286	-0.388350	-0.506153
O6	O	1.753185	-0.338820	-0.570709
O7	O	1.582712	-0.437941	-0.271298
O8	O	1.453866	-0.208131	-0.441671
O9	O	1.753081	-0.437898	-0.441633
O10	O	1.582952	-0.208099	-0.570731
O11	O	1.453730	-0.338895	-0.271314
O12	O	1.283456	-0.338839	-0.441622
O13	O	1.453793	-0.437799	-0.740981
O14	O	1.283424	-0.437842	-0.570646
O15	O	1.582911	-0.338764	-0.741018
O16	O	1.582671	-0.568606	-0.441585
O17	O	1.453657	-0.568563	-0.570624
C18	C	1.245319	-0.388340	-0.506132
C19	C	1.128542	-0.388355	-0.506148
C20	C	1.073692	-0.439984	-0.573225
C21	C	0.963968	-0.439988	-0.573245
C22	C	0.963955	-0.336730	-0.439104
C23	C	1.073677	-0.336723	-0.439089
C24	C	1.518172	-0.597841	-0.506120
C25	C	1.518220	-0.687462	-0.506141
C26	C	1.518260	-0.760244	-0.506161
C27	C	1.518322	-0.851553	-0.506185
C28	C	1.518376	-0.924329	-0.506198
C29	C	1.518436	-1.015643	-0.506219
C30	C	1.792320	-0.388360	-0.506174
C31	C	1.909096	-0.388365	-0.506183
C32	C	1.518363	-0.388270	-0.780186
C33	C	1.518395	-0.388237	-0.896963
C34	C	1.518430	-0.178041	-0.506209
C35	C	1.518491	-0.088420	-0.506233
C36	C	1.585654	-0.336630	-1.061577
C37	C	1.585633	-0.336661	-0.951853
C38	C	1.451181	-0.439790	-0.951803
C39	C	1.451207	-0.439762	-1.061525
C40	C	1.518271	-0.388371	-0.233185
C41	C	1.518442	-0.388177	-0.116409
H42	H	0.919313	-0.482028	-0.627868
O43	O	0.904780	-0.281069	-0.366742
H44	H	0.819268	-0.289759	-0.378002
O45	O	1.378706	-0.495363	-1.120669
H46	H	1.390030	-0.486682	-1.206186
H47	H	1.396439	-0.481787	-0.907103
O48	O	1.132873	-0.495660	-0.645561
H49	H	1.076294	-0.531555	-0.692215
H50	H	1.118338	-0.294675	-0.384467
O51	O	1.658165	-0.281001	-1.120789
H52	H	1.740610	-0.294841	-1.099752
O53	O	1.658125	-0.281064	-0.892708
H54	H	1.704874	-0.245189	-0.949310
