data_functionalizedCrystal
_audit_creation_method	'MofGen! by Chris Wilmer'
_symmetry_space_group_name_H-M	'P1'
_symmetry_Int_Tables_number	1
_symmetry_cell_setting	triclinic
loop_
_symmetry_equiv_pos_as_xyz
  x,y,z
_cell_length_a	18.215399
_cell_length_b	12.759401
_cell_length_c	18.215405
_cell_angle_alpha	89.979829
_cell_angle_beta	89.973526
_cell_angle_gamma	90.017560
loop_
_atom_site_label
_atom_site_type_symbol
_atom_site_fract_x
_atom_site_fract_y
_atom_site_fract_z
Zn1	Zn	-0.416079	-1.606181	-0.293028
Zn2	Zn	-0.293016	-1.606059	-0.416099
Zn3	Zn	-0.293031	-1.430489	-0.293047
Zn4	Zn	-0.416045	-1.430449	-0.416054
O5	O	-0.354543	-1.518295	-0.354557
O6	O	-0.399762	-1.753186	-0.309365
O7	O	-0.190033	-1.582735	-0.399804
O8	O	-0.309374	-1.453863	-0.190060
O9	O	-0.309348	-1.753096	-0.399785
O10	O	-0.399777	-1.582943	-0.190046
O11	O	-0.190045	-1.453745	-0.309398
O12	O	-0.309342	-1.283463	-0.309353
O13	O	-0.519034	-1.453795	-0.399707
O14	O	-0.399720	-1.283434	-0.399725
O15	O	-0.519059	-1.582904	-0.309321
O16	O	-0.309315	-1.582696	-0.519078
O17	O	-0.399705	-1.453677	-0.519044
C18	C	-0.354529	-1.245327	-0.354537
C19	C	-0.354541	-1.128551	-0.354546
C20	C	-0.546496	-1.518359	-0.354506
C21	C	-0.628295	-1.518386	-0.354485
C22	C	-0.401522	-1.073701	-0.401677
C23	C	-0.401529	-0.963977	-0.401683
C24	C	-0.307566	-0.963962	-0.307426
C25	C	-0.307564	-1.073684	-0.307417
C26	C	-0.455769	-1.073709	-0.456097
C27	C	-0.455775	-0.963985	-0.456104
C28	C	-0.816503	-1.585637	-0.307377
C29	C	-0.893361	-1.585650	-0.307355
C30	C	-0.893325	-1.451209	-0.401479
C31	C	-0.816467	-1.451192	-0.401496
C32	C	-0.778058	-1.518412	-0.354446
C33	C	-0.931774	-1.518442	-0.354407
C34	C	-1.015108	-1.518455	-0.354385
C35	C	-0.694719	-1.518398	-0.354468
C36	C	-0.163336	-1.518291	-0.354555
C37	C	-0.081538	-1.518468	-0.354369
C38	C	-0.354521	-1.518197	-0.545763
C39	C	-0.354536	-1.518252	-0.627562
C40	C	-0.354553	-0.792328	-0.354572
C41	C	-0.354550	-0.909105	-0.354562
C42	C	-0.401681	-1.585527	-0.892555
C43	C	-0.401670	-1.585491	-0.815696
C44	C	-0.307447	-1.451197	-0.815818
C45	C	-0.307455	-1.451239	-0.892675
C46	C	-0.354576	-1.518402	-0.931042
C47	C	-0.354557	-1.518325	-0.777326
C48	C	-0.354544	-1.518286	-0.693992
C49	C	-0.354588	-1.518442	-1.014381
C50	C	-0.354581	-1.518421	-0.162604
C51	C	-0.354597	-1.518475	-0.080805
H52	H	-0.269312	-1.118339	-0.269033
C53	C	-0.935647	-1.659603	-0.255582
H54	H	-0.901762	-1.699637	-0.227570
H55	H	-0.965632	-1.619444	-0.223505
H56	H	-0.965627	-1.705371	-0.283736
H57	H	-0.924607	-1.396483	-0.439787
C58	C	-0.255894	-0.903606	-0.255591
H59	H	-0.262621	-0.830403	-0.262348
H60	H	-0.266751	-0.921613	-0.206157
H61	H	-0.206424	-0.921557	-0.266299
C62	C	-0.774252	-1.659567	-0.255620
H63	H	-0.722971	-1.649938	-0.262375
H64	H	-0.786858	-1.644223	-0.206170
H65	H	-0.786853	-1.730157	-0.266395
C66	C	-0.453489	-1.659322	-0.773363
H67	H	-0.481556	-1.699318	-0.807223
H68	H	-0.425370	-1.705113	-0.743374
H69	H	-0.485526	-1.619076	-0.743385
H70	H	-0.440053	-1.640211	-0.923790
H71	H	-0.509958	-0.929988	-0.435765
H72	H	-0.785165	-1.396441	-0.439825
H73	H	-0.512793	-1.103517	-0.440905
H74	H	-0.269093	-1.396576	-0.924012
C75	C	-0.435012	-0.923707	-0.533072
H76	H	-0.435025	-0.849249	-0.533074
H77	H	-0.387496	-0.948485	-0.545738
H78	H	-0.469720	-0.948526	-0.567886
C79	C	-0.428062	-1.119655	-0.529196
H80	H	-0.415729	-1.064190	-0.561756
H81	H	-0.385869	-1.161544	-0.520392
H82	H	-0.465504	-1.161567	-0.550543
C83	C	-0.255625	-1.377314	-0.773613
H84	H	-0.262372	-1.386894	-0.722327
H85	H	-0.206189	-1.392738	-0.786227
H86	H	-0.266357	-1.306718	-0.786241
