data_functionalizedCrystal
_audit_creation_method	'MofGen! by Chris Wilmer'
_symmetry_space_group_name_H-M	'P1'
_symmetry_Int_Tables_number	1
_symmetry_cell_setting	triclinic
loop_
_symmetry_equiv_pos_as_xyz
  x,y,z
_cell_length_a	19.077432
_cell_length_b	17.077404
_cell_length_c	17.077396
_cell_angle_alpha	90.021457
_cell_angle_beta	87.672793
_cell_angle_gamma	92.273989
loop_
_atom_site_label
_atom_site_type_symbol
_atom_site_fract_x
_atom_site_fract_y
_atom_site_fract_z
Zn1	Zn	-0.280214	-1.212590	-0.431333
Zn2	Zn	-0.397916	-1.217763	-0.294795
Zn3	Zn	-0.280236	-1.081323	-0.300075
Zn4	Zn	-0.397872	-1.086554	-0.426016
O5	O	-0.339060	-1.149558	-0.363055
O6	O	-0.295837	-1.323124	-0.413236
O7	O	-0.382334	-1.199640	-0.185647
O8	O	-0.181744	-1.094382	-0.321922
O9	O	-0.382312	-1.326924	-0.312922
O10	O	-0.181727	-1.190824	-0.418356
O11	O	-0.295875	-1.099398	-0.189526
O12	O	-0.295832	-0.972170	-0.316766
O13	O	-0.382237	-1.103297	-0.536569
O14	O	-0.382258	-0.976013	-0.409294
O15	O	-0.295794	-1.195896	-0.540476
O16	O	-0.496400	-1.204712	-0.307766
O17	O	-0.496368	-1.108313	-0.404174
C18	C	-0.339043	-0.945609	-0.363027
C19	C	-0.339053	-0.858360	-0.363033
C20	C	-0.384123	-0.819394	-0.411127
C21	C	-0.384123	-0.737414	-0.411137
C22	C	-0.339057	-0.694400	-0.363047
C23	C	-0.293982	-0.733372	-0.314951
C24	C	-0.293979	-0.815350	-0.314946
C25	C	-0.293993	-0.562502	-0.314964
C26	C	-0.293997	-0.480518	-0.314967
C27	C	-0.384137	-0.484565	-0.411154
C28	C	-0.384134	-0.566544	-0.411149
C29	C	-0.339060	-0.605510	-0.363052
C30	C	-0.521921	-1.157662	-0.354837
C31	C	-0.600150	-1.161201	-0.351348
C32	C	-0.636911	-1.112640	-0.399862
C33	C	-0.710415	-1.115969	-0.396580
C34	C	-0.747157	-1.167863	-0.344789
C35	C	-0.710391	-1.216427	-0.296270
C36	C	-0.636888	-1.213094	-0.299548
C37	C	-0.966987	-1.183215	-0.329603
C38	C	-1.040495	-1.186546	-0.326330
C39	C	-1.040513	-1.086086	-0.426640
C40	C	-0.967009	-1.082761	-0.429917
C41	C	-0.930249	-1.131321	-0.381395
N42	N	-0.822290	-1.171269	-0.341435
N43	N	-0.855118	-1.127911	-0.384746
C44	C	-0.155484	-1.141443	-0.371321
C45	C	-0.077255	-1.137984	-0.374844
C46	C	-0.339008	-1.149603	-0.567801
C47	C	-0.338986	-1.149622	-0.655052
C48	C	-0.339072	-0.354302	-0.363075
C49	C	-0.339066	-0.441552	-0.363062
C50	C	-0.293971	-1.197840	-0.698078
C51	C	-0.293948	-1.197848	-0.780059
C52	C	-0.338943	-1.149642	-0.819014
C53	C	-0.383959	-1.101419	-0.775982
C54	C	-0.383979	-1.101407	-0.694002
C55	C	-0.383917	-1.101449	-0.946854
C56	C	-0.383899	-1.101462	-1.028840
C57	C	-0.293886	-1.197890	-1.032911
C58	C	-0.293905	-1.197878	-0.950931
C59	C	-0.338923	-1.149656	-0.907905
C60	C	-0.339061	-1.149556	-0.159107
C61	C	-0.338884	-1.149679	-0.071865
H62	H	-0.257283	-0.594225	-0.275805
H63	H	-0.257285	-0.698344	-0.275799
H64	H	-0.420593	-1.062166	-0.807705
O65	O	-1.076331	-1.038943	-0.473688
C66	C	-1.149085	-1.053024	-0.459706
H67	H	-1.159141	-1.079225	-0.398704
H68	H	-1.177064	-0.995490	-0.463725
H69	H	-1.169881	-1.095739	-0.505381
H70	H	-0.420536	-1.062207	-1.060554
O71	O	-0.427803	-0.861256	-0.457885
C72	C	-0.387787	-0.906908	-0.510466
H73	H	-0.334418	-0.916811	-0.485274
H74	H	-0.416465	-0.965832	-0.519643
H75	H	-0.380119	-0.874998	-0.568998
O76	O	-0.250160	-1.244580	-0.660282
C77	C	-0.180010	-1.224336	-0.683489
H78	H	-0.176449	-1.161471	-0.706169
H79	H	-0.145249	-1.229553	-0.631146
H80	H	-0.161605	-1.265612	-0.731915
O81	O	-1.076078	-1.236977	-0.275945
C82	C	-1.027873	-1.279137	-0.233834
H83	H	-0.975506	-1.244613	-0.233417
H84	H	-1.049146	-1.288507	-0.171048
H85	H	-1.019987	-1.338382	-0.262984
H86	H	-0.257270	-1.237136	-0.919217
H87	H	-0.420824	-0.705692	-0.450299
O88	O	-0.427781	-1.054557	-0.652322
C89	C	-0.467484	-1.012002	-0.704282
H90	H	-0.469902	-1.044267	-0.762620
H91	H	-0.522944	-1.006089	-0.678098
H92	H	-0.441712	-0.951241	-0.714143
H93	H	-0.257275	-0.847075	-0.275787
H94	H	-0.257294	-1.237114	-0.815087
H95	H	-0.257230	-1.237153	-1.067947
O96	O	-0.427853	-0.446594	-0.457859
C97	C	-0.418204	-0.365015	-0.447544
H98	H	-0.363858	-0.351396	-0.424381
H99	H	-0.423047	-0.334102	-0.506119
H100	H	-0.459902	-0.343579	-0.403792
H101	H	-0.607000	-1.070385	-0.442040
H102	H	-0.937063	-1.222756	-0.290096
H103	H	-0.937095	-1.040504	-0.472090
O104	O	-0.746158	-1.068720	-0.443597
C105	C	-0.788758	-1.019986	-0.396964
H106	H	-0.766647	-1.014161	-0.336123
H107	H	-0.789628	-0.959603	-0.425267
H108	H	-0.844445	-1.046785	-0.391795
O109	O	-0.601285	-1.260345	-0.252391
C110	C	-0.649474	-1.306849	-0.205961
H111	H	-0.701847	-1.311929	-0.235781
H112	H	-0.628188	-1.367734	-0.198589
H113	H	-0.657354	-1.278491	-0.145967
H114	H	-0.257292	-0.445498	-0.275819
H115	H	-0.740312	-1.258677	-0.254096
O116	O	-0.427754	-1.054707	-0.905081
C117	C	-0.497893	-1.074970	-0.921975
H118	H	-0.501432	-1.137836	-0.944379
H119	H	-0.532678	-1.069759	-0.866492
H120	H	-0.516286	-1.033700	-0.968714
O121	O	-0.427934	-0.608208	-0.457934
C122	C	-0.467730	-0.556240	-0.500373
H123	H	-0.438911	-0.496524	-0.504447
H124	H	-0.475308	-0.580294	-0.561863
H125	H	-0.521151	-0.549880	-0.469129
