data_functionalizedCrystal
_audit_creation_method	'MofGen! by Chris Wilmer'
_symmetry_space_group_name_H-M	'P1'
_symmetry_Int_Tables_number	1
_symmetry_cell_setting	triclinic
loop_
_symmetry_equiv_pos_as_xyz
  x,y,z
_cell_length_a	10.489741
_cell_length_b	27.732048
_cell_length_c	9.565339
_cell_angle_alpha	89.995294
_cell_angle_beta	89.999100
_cell_angle_gamma	83.590915
loop_
_atom_site_label
_atom_site_type_symbol
_atom_site_fract_x
_atom_site_fract_y
_atom_site_fract_z
O1	O	1.691056	0.068187	-0.116191
O2	O	1.319579	0.074588	-0.116214
O3	O	1.516855	0.001064	-0.116175
O4	O	1.493780	0.141712	-0.116230
O5	O	1.516839	0.001068	0.116345
O6	O	1.319563	0.074593	0.116306
O7	O	1.691040	0.068192	0.116329
Zn8	Zn	1.505299	0.071393	0.153235
Zn9	Zn	1.505320	0.071387	-0.153120
O10	O	1.493765	0.141716	0.116290
C11	C	1.272061	0.074107	0.000043
C12	C	1.130495	0.072661	0.000036
C13	C	1.064411	0.025879	0.000067
C14	C	0.971320	0.047976	-0.114583
C15	C	0.971339	0.047992	0.114663
C16	C	1.039269	0.094777	-0.114709
C17	C	1.039297	0.094786	0.114640
C18	C	0.946232	0.116916	-0.000038
C19	C	1.516363	-0.016944	0.000089
C20	C	1.514904	-0.070608	0.000100
C21	C	1.622299	-0.408745	0.000035
C22	C	1.616888	-0.610439	0.000015
O23	O	1.715093	-0.641075	-0.000040
N24	N	1.499911	-0.630301	0.000009
C25	C	1.384279	-0.599736	-0.000001
O26	O	1.284660	-0.621258	-0.000021
C27	C	1.389692	-0.398044	0.000009
C28	C	1.506676	-0.378184	0.000029
C29	C	1.739274	-0.388886	0.000054
C30	C	1.740625	-0.338465	0.000066
C31	C	1.625002	-0.307904	0.000060
C32	C	1.508028	-0.327764	0.000042
C33	C	1.274062	-0.367480	-0.000011
C34	C	1.275425	-0.317054	-0.000012
C35	C	1.392409	-0.297195	0.000008
C36	C	1.393757	-0.246783	0.000048
N37	N	1.510733	-0.226920	0.000054
C38	C	1.626356	-0.257481	0.000060
C39	C	1.381446	-0.705628	-0.000003
C40	C	1.380092	-0.756051	-0.000003
C41	C	1.612701	-0.766751	0.000010
C42	C	1.614053	-0.716327	0.000020
C43	C	1.498422	-0.685766	0.000003
C44	C	1.629186	-0.151594	0.000088
C45	C	1.630527	-0.101169	0.000106
C46	C	1.397919	-0.090474	0.000085
C47	C	1.396577	-0.140895	0.000074
C48	C	1.512221	-0.171454	0.000071
O49	O	1.295604	-0.216118	0.000088
O50	O	1.725961	-0.235950	0.000049
C51	C	1.620947	-0.459166	0.000023
C52	C	1.503973	-0.479025	0.000004
C53	C	1.388350	-0.448464	-0.000002
C54	C	1.502619	-0.529448	0.000004
C55	C	1.618242	-0.560009	0.000010
C56	C	1.735219	-0.540147	0.000016
C57	C	1.736570	-0.489727	0.000029
C58	C	1.271374	-0.468327	-0.000008
C59	C	1.270032	-0.518748	-0.000019
C60	C	1.385654	-0.549308	-0.000013
C61	C	1.738559	0.068673	0.000069
C62	C	1.880124	0.070119	0.000067
C63	C	1.494257	0.159724	0.000023
C64	C	1.495715	0.213388	0.000003
N65	N	1.505295	0.071397	0.362315
N66	N	1.505335	0.071379	-0.362199
C67	C	1.414034	0.105388	0.453500
C68	C	1.529101	0.115168	0.546682
C69	C	1.390277	0.061621	0.546688
C70	C	1.620419	0.081198	0.453445
C71	C	1.481520	0.027633	0.453443
C72	C	1.596671	0.037394	0.546583
H73	H	0.941183	0.028180	-0.211498
H74	H	1.835885	-0.322301	0.000077
H75	H	1.717725	0.089504	0.412659
F76	F	1.078736	0.120640	0.241322
F77	F	1.862347	-0.421404	0.000059
H78	H	1.831831	-0.473562	0.000045
F79	F	1.152351	-0.284532	-0.000034
F80	F	1.255582	-0.777181	0.000000
F81	F	1.738562	-0.695196	0.000042
H82	H	1.549238	0.152170	0.587636
H83	H	1.723354	-0.176470	0.000080
F84	F	1.078430	0.120626	-0.241546
F85	F	1.313251	0.142993	0.400072
H86	H	1.706846	-0.791642	0.000016
F87	F	1.455154	-0.020718	0.399867
H88	H	1.292993	0.053360	0.587650
F89	F	1.148305	-0.435807	-0.000019
F90	F	1.697674	-0.000189	0.599676
F91	F	0.879416	0.167235	-0.000136
F92	F	0.931979	0.022112	0.241358
F93	F	1.258367	-0.673109	-0.000022
F94	F	1.131518	-0.024395	-0.000059
F95	F	1.755042	-0.080037	0.000127
H96	H	1.174762	-0.534912	-0.000023
F97	F	1.272071	-0.162031	0.000078
F98	F	1.274871	-0.057940	0.000079
F99	F	1.149550	-0.388604	-0.000039
F100	F	1.858273	-0.572681	0.000030
