data_functionalizedCrystal
_audit_creation_method	'MofGen! by Chris Wilmer'
_symmetry_space_group_name_H-M	'P1'
_symmetry_Int_Tables_number	1
_symmetry_cell_setting	triclinic
loop_
_symmetry_equiv_pos_as_xyz
  x,y,z
_cell_length_a	14.519709
_cell_length_b	12.996460
_cell_length_c	11.792241
_cell_angle_alpha	90.006284
_cell_angle_beta	83.936780
_cell_angle_gamma	89.999966
loop_
_atom_site_label
_atom_site_type_symbol
_atom_site_fract_x
_atom_site_fract_y
_atom_site_fract_z
O1	O	1.224413	0.085433	0.148782
O2	O	0.956001	0.085465	0.166303
O3	O	1.096721	0.085441	-0.007664
O4	O	1.083693	0.085457	0.322749
O5	O	1.096706	-0.085693	-0.007674
O6	O	0.955986	-0.085669	0.166294
O7	O	1.224399	-0.085701	0.148773
Cu8	Cu	1.090191	-0.101311	0.157532
Cu9	Cu	1.090208	0.101075	0.157544
O10	O	1.083678	-0.085677	0.322740
C11	C	0.921630	-0.000098	0.165482
C12	C	0.819240	-0.000086	0.163035
N13	N	1.090185	-0.243658	0.157524
C14	C	0.444311	-0.000134	0.154027
C15	C	0.548628	-0.000120	0.156528
C16	C	0.631772	-0.000109	0.158531
C17	C	0.736096	-0.000098	0.161033
C18	C	1.090207	-0.663472	0.157545
C19	C	1.090198	-0.546667	0.157543
C20	C	1.090197	-0.453569	0.157535
C21	C	1.090187	-0.336756	0.157531
C22	C	1.258769	-0.000135	0.149594
C23	C	1.361159	-0.000141	0.152041
N24	N	1.090221	0.243422	0.157543
C25	C	1.095895	-0.000126	-0.049955
C26	C	1.093446	-0.000124	-0.175955
C27	C	1.088942	-0.000106	-0.406642
C28	C	1.091444	-0.000116	-0.278271
C29	C	1.084504	-0.000108	0.365031
C30	C	1.086954	-0.000103	0.491031
