data_functionalizedCrystal
_audit_creation_method	'MofGen! by Chris Wilmer'
_symmetry_space_group_name_H-M	'P1'
_symmetry_Int_Tables_number	1
_symmetry_cell_setting	triclinic
loop_
_symmetry_equiv_pos_as_xyz
  x,y,z
_cell_length_a	10.654554
_cell_length_b	27.732048
_cell_length_c	9.730223
_cell_angle_alpha	89.993758
_cell_angle_beta	89.999614
_cell_angle_gamma	83.564749
loop_
_atom_site_label
_atom_site_type_symbol
_atom_site_fract_x
_atom_site_fract_y
_atom_site_fract_z
O1	O	1.664976	0.067895	-0.114312
O2	O	1.299227	0.074360	-0.114315
O3	O	1.493461	0.000801	-0.114288
O4	O	1.470742	0.141453	-0.114340
O5	O	1.493459	0.000803	0.114292
O6	O	1.299225	0.074362	0.114264
O7	O	1.664974	0.067897	0.114268
Zn8	Zn	1.482099	0.071129	0.150558
Zn9	Zn	1.482102	0.071127	-0.150606
O10	O	1.470740	0.141455	0.114240
C11	C	1.252448	0.073886	-0.000026
C12	C	1.113065	0.072464	-0.000026
C13	C	0.932436	0.026480	-0.000020
C14	C	1.063401	0.027816	-0.000011
C15	C	1.031755	0.115779	-0.000036
C16	C	0.900792	0.114443	-0.000036
C17	C	0.882780	-0.018170	-0.000019
C18	C	0.964081	-0.061486	-0.000006
C19	C	1.095047	-0.060150	0.000003
C20	C	1.144711	-0.015499	-0.000000
C21	C	1.492983	-0.017208	0.000006
C22	C	1.491547	-0.070871	0.000017
C23	C	1.597286	-0.409027	-0.000052
C24	C	1.591958	-0.610720	-0.000072
O25	O	1.688649	-0.641373	-0.000131
N26	N	1.476785	-0.630562	-0.000071
C27	C	1.362936	-0.599977	-0.000075
O28	O	1.264853	-0.621482	-0.000089
C29	C	1.368266	-0.398285	-0.000066
C30	C	1.483446	-0.378446	-0.000052
C31	C	1.712457	-0.389188	-0.000040
C32	C	1.713788	-0.338768	-0.000028
C33	C	1.599948	-0.308187	-0.000028
C34	C	1.484777	-0.328026	-0.000040
C35	C	1.254418	-0.367701	-0.000079
C36	C	1.255761	-0.317275	-0.000081
C37	C	1.370941	-0.297437	-0.000067
C38	C	1.372267	-0.247025	-0.000027
N39	N	1.487440	-0.227183	-0.000028
C40	C	1.601280	-0.257764	-0.000028
C41	C	1.360146	-0.705868	-0.000077
C42	C	1.358814	-0.756291	-0.000077
C43	C	1.587836	-0.767031	-0.000076
C44	C	1.589167	-0.716607	-0.000066
C45	C	1.475319	-0.686027	-0.000078
C46	C	1.604066	-0.151878	-0.000001
C47	C	1.605387	-0.101452	0.000017
C48	C	1.376366	-0.090717	0.000009
C49	C	1.375044	-0.141138	-0.000002
C50	C	1.488905	-0.171717	-0.000011
O51	O	1.275628	-0.216343	0.000017
O52	O	1.699350	-0.236250	-0.000044
C53	C	1.595955	-0.459448	-0.000065
C54	C	1.480784	-0.479287	-0.000077
C55	C	1.366944	-0.448706	-0.000076
C56	C	1.479452	-0.529710	-0.000077
C57	C	1.593292	-0.560290	-0.000077
C58	C	1.708465	-0.540449	-0.000077
C59	C	1.709796	-0.490028	-0.000065
C60	C	1.251771	-0.468548	-0.000076
C61	C	1.250450	-0.518968	-0.000087
C62	C	1.364290	-0.549549	-0.000087
C63	C	1.711753	0.068371	-0.000025
C64	C	1.851136	0.069792	-0.000034
C65	C	1.471218	0.159464	-0.000057
C66	C	1.472654	0.213128	-0.000077
N67	N	1.482106	0.071131	0.356094
N68	N	1.482105	0.071122	-0.356142
C69	C	1.568134	0.038570	0.428033
C70	C	1.568131	0.038564	0.571916
C71	C	1.396067	0.103684	0.571909
C72	C	1.396065	0.103687	0.428029
C73	C	1.654175	0.006014	0.356098
C74	C	1.740211	-0.026549	0.428037
C75	C	1.740208	-0.026555	0.571920
C76	C	1.654169	0.006002	0.643864
H77	H	1.161239	-0.095420	0.000027
Cl78	Cl	1.654188	0.006021	0.175217
H79	H	1.072203	0.152132	-0.000040
H80	H	1.326012	0.130201	0.369456
H81	H	0.834595	0.149712	-0.000042
Cl82	Cl	0.718140	-0.019852	-0.000041
H83	H	1.654165	0.005991	0.761023
Cl84	Cl	1.851576	-0.578903	-0.000071
Cl85	Cl	1.287915	0.144612	0.662354
H86	H	1.283680	-0.065809	0.000014
H87	H	1.810255	-0.053059	0.369452
Cl88	Cl	1.730948	-0.805485	-0.000083
H89	H	1.251353	-0.014415	0.000020
Cl90	Cl	1.848355	-0.067494	0.662355
H91	H	0.923635	-0.097839	-0.000015
H92	H	1.699185	-0.085303	0.000032
H93	H	1.696783	-0.176770	-0.000014
H94	H	1.807579	-0.322620	-0.000023
Cl95	Cl	1.105637	-0.543901	-0.000097
H96	H	1.805165	-0.414083	-0.000046
Cl97	Cl	1.733970	-0.691672	-0.000051
Cl98	Cl	1.108642	-0.430110	-0.000078
Cl99	Cl	1.217007	-0.667431	-0.000090
Cl100	Cl	1.109611	-0.392629	-0.000106
Cl101	Cl	1.214010	-0.781225	-0.000068
H102	H	1.163049	-0.292379	-0.000092
Cl103	Cl	1.854602	-0.465096	-0.000060
H104	H	1.281255	-0.157291	0.000025
