data_functionalizedCrystal
_audit_creation_method	'MofGen! by Chris Wilmer'
_symmetry_space_group_name_H-M	'P1'
_symmetry_Int_Tables_number	1
_symmetry_cell_setting	triclinic
loop_
_symmetry_equiv_pos_as_xyz
  x,y,z
_cell_length_a	17.699083
_cell_length_b	10.654550
_cell_length_c	16.776229
_cell_angle_alpha	89.994543
_cell_angle_beta	89.998886
_cell_angle_gamma	83.883959
loop_
_atom_site_label
_atom_site_type_symbol
_atom_site_fract_x
_atom_site_fract_y
_atom_site_fract_z
O1	O	1.005088	0.158809	-0.066174
O2	O	1.505088	0.658809	0.433826
O3	O	0.784841	0.179470	-0.066200
O4	O	1.284841	0.679470	0.433800
O5	O	0.900029	-0.013689	-0.066184
O6	O	1.400029	0.486311	0.433816
O7	O	0.889901	0.351967	-0.066191
O8	O	1.389901	0.851967	0.433809
O9	O	0.900013	-0.013700	0.066393
O10	O	1.400013	0.486300	0.566393
O11	O	0.784826	0.179458	0.066376
O12	O	1.284826	0.679458	0.566376
O13	O	1.005073	0.158797	0.066402
O14	O	1.505073	0.658797	0.566402
Zn15	Zn	0.894947	0.169126	0.087439
Zn16	Zn	1.394947	0.669126	0.587439
Zn17	Zn	0.894967	0.169141	-0.087237
Zn18	Zn	1.394967	0.669141	0.412763
O19	O	0.889885	0.351955	0.066386
O20	O	1.389885	0.851955	0.566386
C21	C	0.756632	0.178724	0.000085
C22	C	1.256632	0.678724	0.500085
C23	C	0.672599	0.176503	0.000075
C24	C	1.172599	0.676503	0.500075
C25	C	0.624699	0.289883	0.000073
C26	C	1.124699	0.789883	0.500073
C27	C	0.545743	0.287788	0.000083
C28	C	1.045743	0.787788	0.500083
C29	C	0.514688	0.172313	0.000090
C30	C	1.014688	0.672313	0.500090
C31	C	0.562594	0.058924	0.000094
C32	C	1.062594	0.558924	0.500094
C33	C	0.641549	0.061020	0.000090
C34	C	1.141549	0.561020	0.500090
C35	C	0.244177	0.050470	0.000114
C36	C	0.744177	0.550470	0.500114
C37	C	0.165216	0.048383	0.000116
C38	C	0.665216	0.548383	0.500116
C39	C	0.148371	0.277239	0.000108
C40	C	0.648371	0.777239	0.500108
C41	C	0.227326	0.279334	0.000103
C42	C	0.727326	0.779334	0.500103
C43	C	0.275225	0.165946	0.000112
C44	C	0.775225	0.665946	0.500112
C45	C	0.360839	0.168219	0.000102
C46	C	0.860839	0.668219	0.500102
C47	C	0.429076	0.170039	0.000094
C48	C	0.929076	0.670039	0.500094
C49	C	0.899277	-0.060479	0.000103
C50	C	1.399277	0.439521	0.500103
C51	C	0.897052	-0.199884	0.000100
C52	C	1.397052	0.300116	0.500100
C53	C	0.964873	-0.280557	0.000111
C54	C	1.464873	0.219443	0.500111
C55	C	0.962778	-0.411541	0.000105
C56	C	1.462778	0.088459	0.500105
C57	C	0.825036	-0.381166	0.000082
C58	C	1.325036	0.118834	0.500082
C59	C	0.827132	-0.250185	0.000082
C60	C	1.327132	0.249815	0.500082
C61	C	1.034794	-0.230256	0.000129
C62	C	1.534794	0.269744	0.500129
C63	C	1.102620	-0.310930	0.000141
C64	C	1.602620	0.189070	0.500141
C65	C	1.100525	-0.441914	0.000135
C66	C	1.600525	0.058086	0.500135
C67	C	1.030603	-0.492224	0.000118
C68	C	1.530603	0.007776	0.500118
C69	C	1.033282	0.159543	0.000115
C70	C	1.533282	0.659543	0.500115
C71	C	1.117314	0.161764	0.000120
C72	C	1.617314	0.661764	0.500120
C73	C	0.890637	0.398746	0.000097
C74	C	1.390637	0.898746	0.500097
C75	C	0.892861	0.538151	0.000095
C76	C	1.392861	1.038151	0.500095
N77	N	0.894938	0.169114	0.206650
N78	N	1.394938	0.669114	0.706650
N79	N	0.894981	0.169143	-0.206448
N80	N	1.394981	0.669143	0.293552
C81	C	0.945959	0.083619	0.248374
C82	C	1.445959	0.583619	0.748374
C83	C	0.945963	0.083618	0.331826
C84	C	1.445963	0.583618	0.831826
C85	C	0.894950	0.169119	0.373553
C86	C	1.394950	0.669119	0.873553
C87	C	0.843923	0.254619	0.331822
C88	C	1.343923	0.754619	0.831822
C89	C	0.843916	0.254613	0.248372
C90	C	1.343916	0.754613	0.748372
C91	C	0.843951	0.254643	0.668370
C92	C	1.343951	0.754643	1.168370
C93	C	0.843964	0.254645	0.751826
C94	C	1.343964	0.754645	1.251826
C95	C	0.945998	0.083648	0.751824
C96	C	1.445998	0.583648	1.251824
C97	C	0.945991	0.083642	0.668374
C98	C	1.445991	0.583642	1.168374
C99	C	0.894962	0.169137	0.626651
C100	C	1.394962	0.669137	1.126651
C101	C	0.894957	0.169135	0.536162
C102	C	1.394957	0.669135	1.036162
C103	C	0.894958	0.169128	0.464040
C104	C	1.394958	0.669128	0.964040
H105	H	0.109361	0.369564	0.000105
H106	H	0.609361	0.869564	0.500105
Cl107	Cl	0.266362	0.424509	0.000090
Cl108	Cl	0.766362	0.924509	0.500090
Cl109	Cl	0.779787	0.362103	0.384277
Cl110	Cl	1.279787	0.862103	0.884277
Cl111	Cl	1.190515	-0.247684	0.000152
Cl112	Cl	1.690515	0.252316	0.500152
Cl113	Cl	1.027972	-0.656892	0.000146
Cl114	Cl	1.527972	-0.156892	0.500146
Cl115	Cl	0.485528	0.430330	0.000076
Cl116	Cl	0.985528	0.930330	0.500076
Cl117	Cl	0.126177	-0.096798	0.000125
Cl118	Cl	0.626177	0.403202	0.500125
Cl119	Cl	1.185790	-0.543329	0.000141
Cl120	Cl	1.685790	-0.043329	0.500141
H121	H	0.283168	-0.041858	0.000122
H122	H	0.783168	0.458142	0.500122
H123	H	0.771906	-0.184498	0.000074
H124	H	1.271906	0.315502	0.500074
H125	H	0.802419	0.324273	0.785798
H126	H	1.302419	0.824273	1.285798
Cl127	Cl	1.010126	-0.023845	0.615921
Cl128	Cl	1.510126	0.476155	1.115921
Cl129	Cl	0.523553	-0.086247	0.000108
Cl130	Cl	1.023553	0.413753	0.500108
Cl131	Cl	1.010147	-0.023838	0.804280
Cl132	Cl	1.510147	0.476162	1.304280
Cl133	Cl	0.737141	-0.444415	0.000063
Cl134	Cl	1.237141	0.055585	0.500063
H135	H	0.802403	0.324258	0.634405
H136	H	1.302403	0.824258	1.134405
Cl137	Cl	0.701767	-0.081521	0.000096
Cl138	Cl	1.201767	0.418479	0.500096
Cl139	Cl	1.037432	-0.065591	0.000139
Cl140	Cl	1.537432	0.434409	0.500139
Cl141	Cl	1.010098	-0.023870	0.195927
Cl142	Cl	1.510098	0.476130	0.695927
H143	H	0.987508	0.014000	0.365798
H144	H	1.487508	0.514000	0.865798
H145	H	0.802369	0.324230	0.214401
H146	H	1.302369	0.824230	0.714401
H147	H	0.649978	0.383916	0.000067
H148	H	1.149978	0.883916	0.500067
