data_functionalizedCrystal
_audit_creation_method	'MofGen! by Chris Wilmer'
_symmetry_space_group_name_H-M	'P1'
_symmetry_Int_Tables_number	1
_symmetry_cell_setting	triclinic
loop_
_symmetry_equiv_pos_as_xyz
  x,y,z
_cell_length_a	8.497367
_cell_length_b	8.497374
_cell_length_c	15.297475
_cell_angle_alpha	99.665776
_cell_angle_beta	99.721690
_cell_angle_gamma	90.038609
loop_
_atom_site_label
_atom_site_type_symbol
_atom_site_fract_x
_atom_site_fract_y
_atom_site_fract_z
Zn1	Zn	1.046597	1.309687	1.379604
Zn2	Zn	1.310368	1.046131	1.379688
Zn3	Zn	1.000838	1.000297	1.228761
Zn4	Zn	1.264618	1.264241	1.228830
O5	O	1.155605	1.155089	1.304221
O6	O	1.119884	1.312927	1.505878
O7	O	1.269305	0.819291	1.359673
O8	O	0.786126	1.041175	1.248707
O9	O	1.313676	1.119294	1.505939
O10	O	0.819745	1.268483	1.359530
O11	O	1.041894	0.785616	1.248788
O12	O	0.997532	0.997108	1.102508
O13	O	1.235700	1.491030	1.248825
O14	O	1.191330	1.191027	1.102558
O15	O	1.075521	1.524419	1.359597
O16	O	1.525081	1.075227	1.359740
O17	O	1.491469	1.235471	1.248906
C18	C	1.084502	1.084164	1.069795
C19	C	1.054122	1.053859	0.969506
C20	C	1.744106	1.154924	1.304158
C21	C	1.565497	1.155247	1.304272
C22	C	1.155606	1.566567	1.304214
C23	C	1.155623	1.745212	1.304216
C24	C	1.372749	1.371686	0.687016
C25	C	1.401305	1.400154	0.781242
C26	C	1.314511	1.313583	0.828312
C27	C	1.199158	1.198538	0.781148
C28	C	1.170608	1.170058	0.686912
C29	C	1.112370	1.111956	0.828209
C30	C	0.997017	0.996911	0.781045
C31	C	0.968472	0.968437	0.686818
C32	C	1.055265	1.055007	0.639748
C33	C	1.140920	1.140436	0.922445
C34	C	0.938779	0.938808	0.922341
C35	C	0.910223	0.910340	0.828115
C36	C	1.226987	1.226292	1.539562
C37	C	1.257406	1.256635	1.639851
H38	H	1.234841	1.234108	0.960837
H39	H	1.443413	1.442150	0.648682
H40	H	1.495229	1.493820	0.819637
H41	H	1.337767	1.336770	0.905036
C42	C	1.023883	1.023669	0.536098
H43	H	1.092105	1.091697	0.514824
H44	H	0.915655	1.044574	0.514728
H45	H	1.044569	0.915391	0.514796
H46	H	0.816302	0.816668	0.789700
H47	H	0.874559	0.874743	0.648420
H48	H	0.868106	0.868313	0.960666
