data_functionalizedCrystal
_audit_creation_method	'MofGen! by Chris Wilmer'
_symmetry_space_group_name_H-M	'P1'
_symmetry_Int_Tables_number	1
_symmetry_cell_setting	triclinic
loop_
_symmetry_equiv_pos_as_xyz
  x,y,z
_cell_length_a	14.908571
_cell_length_b	18.101395
_cell_length_c	14.908694
_cell_angle_alpha	93.269480
_cell_angle_beta	83.592472
_cell_angle_gamma	86.727274
loop_
_atom_site_label
_atom_site_type_symbol
_atom_site_fract_x
_atom_site_fract_y
_atom_site_fract_z
Zn1	Zn	1.413252	-0.389879	-0.591502
Zn2	Zn	1.913252	0.110121	-0.091502
Zn3	Zn	1.404393	-0.506142	-0.440135
Zn4	Zn	1.904393	-0.006142	0.059865
Zn5	Zn	1.253157	-0.374732	-0.431437
Zn6	Zn	1.753157	0.125268	0.068563
Zn7	Zn	1.261825	-0.506085	-0.582733
Zn8	Zn	1.761825	-0.006085	-0.082733
O9	O	1.333157	-0.444210	-0.511452
O10	O	1.833157	0.055790	-0.011452
O11	O	1.538742	-0.411665	-0.578732
O12	O	2.038742	0.088335	-0.078732
O13	O	1.376996	-0.482395	-0.312316
O14	O	1.876996	0.017605	0.187684
O15	O	1.274474	-0.273114	-0.452700
O16	O	1.774474	0.226886	0.047300
O17	O	1.532234	-0.497083	-0.467524
O18	O	2.032234	0.002917	0.032476
O19	O	1.392095	-0.284242	-0.570298
O20	O	1.892095	0.215758	-0.070298
O21	O	1.265884	-0.385849	-0.305926
O22	O	1.765884	0.114151	0.194074
O23	O	1.127641	-0.385793	-0.444197
O24	O	1.627641	0.114207	0.055803
O25	O	1.289247	-0.496985	-0.710562
O26	O	1.789247	0.003015	-0.210562
O27	O	1.134010	-0.482297	-0.555354
O28	O	1.634010	0.017703	-0.055354
O29	O	1.400499	-0.411609	-0.717004
O30	O	1.900499	0.088391	-0.217004
O31	O	1.385401	-0.609762	-0.459022
O32	O	1.885401	-0.109762	0.040978
O33	O	1.280657	-0.609720	-0.563788
O34	O	1.780657	-0.109720	-0.063788
C35	C	1.097983	-0.432396	-0.497881
C36	C	1.597983	0.067604	0.002119
C37	C	0.997375	-0.427361	-0.492097
C38	C	1.497375	0.072639	0.007903
C39	C	0.814994	-0.518528	-0.596819
C40	C	1.314994	-0.018528	-0.096819
C41	C	0.720465	-0.513800	-0.591388
C42	C	1.220465	-0.013800	-0.091388
C43	C	0.713786	-0.413172	-0.475807
C44	C	1.213786	0.086828	0.024193
C45	C	0.808315	-0.417901	-0.481238
C46	C	1.308315	0.082099	0.018762
C47	C	0.858916	-0.470581	-0.541746
C48	C	1.358916	0.029419	-0.041746
C49	C	0.953447	-0.475313	-0.547172
C50	C	1.453447	0.024687	-0.047172
C51	C	0.946767	-0.374682	-0.431597
C52	C	1.446767	0.125318	0.068403
C53	C	0.852237	-0.369954	-0.426165
C54	C	1.352237	0.130046	0.073835
C55	C	1.333034	-0.636613	-0.511418
C56	C	1.833034	-0.136613	-0.011418
C57	C	1.333066	-0.718929	-0.511439
C58	C	1.833066	-0.218929	-0.011439
C59	C	1.333267	-1.018033	-0.511499
C60	C	1.833267	-0.518033	-0.011499
C61	C	1.267537	-0.986729	-0.577598
C62	C	1.767537	-0.486729	-0.077598
C63	C	1.267193	-0.901083	-0.577360
C64	C	1.767193	-0.401083	-0.077360
C65	C	1.333168	-0.869644	-0.511470
C66	C	1.833168	-0.369644	-0.011470
C67	C	1.301840	-0.894723	-0.414588
C68	C	1.801840	-0.394723	0.085412
C69	C	1.301414	-0.980366	-0.414981
C70	C	1.801414	-0.480366	0.085019
C71	C	1.430430	-0.992404	-0.541452
C72	C	1.930430	-0.492404	-0.041452
C73	C	1.429987	-0.906829	-0.543511
C74	C	1.929987	-0.406829	-0.043511
C75	C	1.333112	-0.785781	-0.511448
C76	C	1.833112	-0.285781	-0.011448
C77	C	1.333320	-1.101895	-0.511515
C78	C	1.833320	-0.601895	-0.011515
C79	C	1.569249	-0.456070	-0.525076
C80	C	2.069249	0.043930	-0.025076
C81	C	1.669857	-0.461124	-0.530882
C82	C	2.169857	0.038876	-0.030882
C83	C	1.346828	-0.455980	-0.747544
C84	C	1.846828	0.044020	-0.247544
C85	C	1.352654	-0.460996	-0.848153
C86	C	1.852654	0.039004	-0.348153
C87	C	1.333306	-0.251057	-0.511507
C88	C	1.833306	0.248943	-0.011507
C89	C	1.333369	-0.168747	-0.511530
C90	C	1.833369	0.331253	-0.011530
C91	C	1.247879	-0.369889	-1.030553
C92	C	1.747879	0.130111	-0.530553
C93	C	1.253350	-0.374600	-1.125084
C94	C	1.753350	0.125400	-0.625084
C95	C	1.369061	-0.475131	-1.131746
C96	C	1.869061	0.024869	-0.631746
C97	C	1.363591	-0.470420	-1.037215
C98	C	1.863591	0.029580	-0.537215
C99	C	1.302998	-0.417797	-0.986622
C100	C	1.802998	0.082203	-0.486622
C101	C	1.297533	-0.413084	-0.892090
C102	C	1.797533	0.086916	-0.392090
C103	C	1.413239	-0.513618	-0.898754
C104	C	1.913239	-0.013618	-0.398754
C105	C	1.418710	-0.518328	-0.993284
C106	C	1.918710	-0.018328	-0.493284
C107	C	1.319590	-0.432434	-0.276281
C108	C	1.819590	0.067566	0.223719
C109	C	1.313940	-0.427218	-0.175683
C110	C	1.813940	0.072782	0.324317
H111	H	0.672571	-0.370278	-0.426551
H112	H	1.172571	0.129722	0.073449
H113	H	1.196073	-1.003976	-0.557552
H114	H	1.696073	-0.503976	-0.057552
H115	H	0.982538	-0.335642	-0.386750
H116	H	1.482538	0.164358	0.113250
Cl117	Cl	1.482537	-0.573847	-0.843521
Cl118	Cl	1.982537	-0.073847	-0.343521
H119	H	1.287628	-1.011632	-0.649483
H120	H	1.787628	-0.511632	-0.149483
H121	H	1.248199	-0.370232	-0.850899
H122	H	1.748199	0.129768	-0.350899
H123	H	1.481992	-0.885792	-0.499316
H124	H	1.981992	-0.385792	0.000684
H125	H	1.195285	-0.876288	-0.557085
H126	H	1.695285	-0.376288	-0.057085
H127	H	0.811025	-0.327061	-0.376904
H128	H	1.311025	0.172939	0.123096
Cl129	Cl	1.191504	-1.004293	-0.376798
Cl130	Cl	1.691504	-0.504293	0.123202
H131	H	1.453512	-0.890959	-0.614838
H132	H	1.953512	-0.390959	-0.114838
H133	H	1.347966	-0.874134	-0.363755
H134	H	1.847966	-0.374134	0.136245
Cl135	Cl	1.506148	-1.023762	-0.467243
Cl136	Cl	2.006148	-0.523762	0.032757
Cl137	Cl	1.298434	-0.875278	-0.688006
Cl138	Cl	1.798434	-0.375278	-0.188006
H139	H	1.198551	-0.327035	-0.989360
H140	H	1.698551	0.172965	-0.489360
H141	H	1.457919	-1.018557	-0.611184
H142	H	1.957919	-0.518557	-0.111184
Cl143	Cl	1.017058	-0.541540	-0.623235
Cl144	Cl	1.517058	-0.041540	-0.123235
Cl145	Cl	0.878609	-0.584760	-0.672873
Cl146	Cl	1.378609	-0.084760	-0.172873
H147	H	0.684707	-0.552842	-0.636236
H148	H	1.184707	-0.052842	-0.136236
Cl149	Cl	1.494875	-0.584481	-1.056895
Cl150	Cl	1.994875	-0.084481	-0.556895
H151	H	1.346914	-1.000817	-0.363757
H152	H	1.846914	-0.500817	0.136243
Cl153	Cl	1.193038	-0.854719	-0.375895
Cl154	Cl	1.693038	-0.354719	0.124105
Cl155	Cl	1.445215	-0.541289	-1.195363
Cl156	Cl	1.945215	-0.041289	-0.695363
H157	H	1.208466	-0.335588	-1.160848
H158	H	1.708466	0.164412	-0.660848
