data_functionalizedCrystal
_audit_creation_method	'MofGen! by Chris Wilmer'
_symmetry_space_group_name_H-M	'P1'
_symmetry_Int_Tables_number	1
_symmetry_cell_setting	triclinic
loop_
_symmetry_equiv_pos_as_xyz
  x,y,z
_cell_length_a	19.077212
_cell_length_b	12.827892
_cell_length_c	19.076919
_cell_angle_alpha	87.724465
_cell_angle_beta	90.114942
_cell_angle_gamma	92.307656
loop_
_atom_site_label
_atom_site_type_symbol
_atom_site_fract_x
_atom_site_fract_y
_atom_site_fract_z
Zn1	Zn	1.058332	-0.379361	0.440602
Zn2	Zn	1.062989	-0.546831	0.323103
Zn3	Zn	0.945547	-0.378811	0.318377
Zn4	Zn	0.940810	-0.560770	0.435837
O5	O	1.001920	-0.466443	0.379480
O6	O	1.157283	-0.395973	0.428987
O7	O	1.051342	-0.518479	0.224145
O8	O	0.960542	-0.232647	0.334607
O9	O	1.160705	-0.519012	0.342661
O10	O	1.043404	-0.233051	0.424405
O11	O	0.965058	-0.395035	0.220673
O12	O	0.846586	-0.408551	0.329987
O13	O	0.952468	-0.542769	0.534800
O14	O	0.843105	-0.542236	0.416284
O15	O	1.038811	-0.409489	0.538301
O16	O	1.046749	-0.694917	0.338041
O17	O	0.956984	-0.705158	0.420866
C18	C	0.819349	-0.476847	0.372106
C19	C	0.741243	-0.481324	0.368968
C20	C	0.301783	-0.513393	0.346495
C21	C	0.375172	-0.509180	0.349438
C22	C	0.410084	-0.443128	0.395928
C23	C	0.371603	-0.381276	0.439473
C24	C	0.298216	-0.385484	0.436526
C25	C	0.629376	-0.423681	0.409566
C26	C	0.702768	-0.419480	0.412511
C27	C	0.706332	-0.547383	0.322475
C28	C	0.632943	-0.551589	0.319535
C29	C	0.594469	-0.489734	0.363077
N30	N	0.485098	-0.438823	0.398939
N31	N	0.519456	-0.494034	0.360062
C32	C	1.001876	-0.737955	0.379466
C33	C	1.001921	-0.854106	0.379486
C34	C	1.046388	-0.900789	0.338551
C35	C	1.046435	-1.020838	0.338570
C36	C	1.185204	-0.455999	0.386883
C37	C	1.263308	-0.451548	0.390038
C38	C	0.994591	-0.477745	0.562759
C39	C	0.991468	-0.482562	0.640862
C40	C	1.001982	-0.193871	0.379510
C41	C	1.002008	-0.077717	0.379523
C42	C	1.009260	-0.455107	0.196915
C43	C	1.012519	-0.449988	0.118818
C44	C	1.034953	-0.415436	0.679379
C45	C	1.032010	-0.419958	0.752764
C46	C	0.985586	-0.491612	0.787632
C47	C	0.942096	-0.558740	0.749110
C48	C	0.945036	-0.554213	0.675726
C49	C	0.971970	-0.512589	1.006912
C50	C	0.969035	-0.517114	1.080302
C51	C	1.058948	-0.378330	1.083950
C52	C	1.061886	-0.373813	1.010565
C53	C	1.018395	-0.440938	0.972049
N54	N	0.982578	-0.496238	0.862644
N55	N	1.021399	-0.436306	0.897039
H56	H	0.273364	-0.567185	0.308641
H57	H	0.963933	-1.037559	0.414568
H58	H	1.099692	-0.315467	0.982181
H59	H	0.936566	-0.567262	0.975562
F60	F	0.892685	-0.634996	0.786221
F61	F	1.096194	-1.073333	0.292757
H62	H	1.072759	-0.357091	0.650995
F63	F	1.105230	-0.306893	1.124946
F64	F	0.739922	-0.349173	0.461993
F65	F	1.096108	-0.836867	0.292726
H66	H	0.931228	-0.575466	1.108689
H67	H	0.909619	-0.608864	0.644366
F68	F	0.952208	-0.918028	0.425318
F69	F	0.595794	-0.621867	0.270038
F70	F	0.408761	-0.310975	0.488949
F71	F	1.078317	-0.348547	0.793754
H72	H	0.737665	-0.597741	0.287025
F73	F	0.416117	-0.574983	0.303079
H74	H	0.598059	-0.373319	0.445024
F75	F	0.257268	-0.319656	0.482867
