data_functionalizedCrystal
_audit_creation_method	'MofGen! by Chris Wilmer'
_symmetry_space_group_name_H-M	'P1'
_symmetry_Int_Tables_number	1
_symmetry_cell_setting	triclinic
loop_
_symmetry_equiv_pos_as_xyz
  x,y,z
_cell_length_a	14.908571
_cell_length_b	16.994746
_cell_length_c	14.908308
_cell_angle_alpha	86.704843
_cell_angle_beta	89.824947
_cell_angle_gamma	86.707907
loop_
_atom_site_label
_atom_site_type_symbol
_atom_site_fract_x
_atom_site_fract_y
_atom_site_fract_z
Zn1	Zn	1.345367	-0.411654	0.587812
Zn2	Zn	1.353969	-0.536423	0.437522
Zn3	Zn	1.203680	-0.396503	0.428801
Zn4	Zn	1.194997	-0.535486	0.579173
O5	O	1.274503	-0.470016	0.508327
O6	O	1.472335	-0.434938	0.575140
O7	O	1.341267	-0.511914	0.310537
O8	O	1.222509	-0.288131	0.449860
O9	O	1.478655	-0.526605	0.464723
O10	O	1.326606	-0.299263	0.566684
O11	O	1.230850	-0.409115	0.304130
O12	O	1.076701	-0.408206	0.441483
O13	O	1.207710	-0.525008	0.706147
O14	O	1.070321	-0.510316	0.551961
O15	O	1.318186	-0.434029	0.712494
O16	O	1.332847	-0.646680	0.456346
O17	O	1.216051	-0.645991	0.560417
C18	C	1.040885	-0.457516	0.494839
C19	C	0.940941	-0.452188	0.489090
C20	C	1.274451	-0.674957	0.508388
C21	C	1.274459	-0.764279	0.508396
Zn22	Zn	1.203836	-1.027568	0.428655
Zn23	Zn	1.354104	-0.903674	0.437630
Zn24	Zn	1.345279	-1.042740	0.587884
Zn25	Zn	1.194913	-0.902883	0.579036
O26	O	1.274533	-0.969216	0.508301
O27	O	1.231198	-1.005115	0.304029
O28	O	1.478749	-0.928803	0.465020
O29	O	1.326557	-1.151108	0.566709
O30	O	1.341598	-0.914091	0.310623
O31	O	1.222640	-1.139961	0.449724
O32	O	1.472265	-1.030974	0.575411
O33	O	1.317904	-1.030206	0.712527
O34	O	1.070281	-0.912741	0.551628
O35	O	1.207431	-0.927453	0.706026
O36	O	1.076837	-1.004347	0.441144
O37	O	1.332946	-0.793189	0.456441
O38	O	1.215989	-0.792607	0.560331
C39	C	0.746551	-0.548654	0.593173
C40	C	0.652644	-0.543650	0.587774
C41	C	0.659220	-0.437175	0.472899
C42	C	0.753127	-0.442179	0.478298
C43	C	0.796789	-0.497920	0.538436
C44	C	0.890697	-0.502927	0.543829
C45	C	0.897271	-0.396449	0.428959
C46	C	0.803364	-0.391445	0.423561
C47	C	1.509033	-0.482566	0.521868
C48	C	1.608976	-0.487914	0.527639
C49	C	1.261020	-0.481104	0.742858
C50	C	1.255274	-0.485829	0.842802
C51	C	1.274560	-0.264276	0.508260
C52	C	1.274588	-0.174954	0.508232
C53	C	1.287986	-0.458918	0.274711
C54	C	1.293906	-0.453980	0.174778
C55	C	1.359514	-0.399953	1.037216
C56	C	1.354118	-0.404390	1.131122
C57	C	1.239083	-0.499135	1.124521
C58	C	1.244479	-0.494698	1.030615
C59	C	1.304697	-0.445106	0.986966
C60	C	1.310097	-0.440674	0.893059
C61	C	1.195058	-0.535414	0.886459
C62	C	1.189662	-0.539851	0.980364
C63	C	1.260741	-0.980390	0.741899
C64	C	1.254820	-0.985150	0.841832
C65	C	1.040024	-0.956763	0.494398
C66	C	0.940090	-0.951457	0.488474
C67	C	1.288378	-0.957999	0.273791
C68	C	1.294278	-0.953218	0.173857
C69	C	1.508133	-0.981674	0.522099
C70	C	1.608076	-0.987193	0.527852
C71	C	1.194605	-0.933812	0.885362
C72	C	1.189024	-0.938283	0.979259
C73	C	1.243662	-0.994089	1.029624
C74	C	1.303879	-1.045432	0.986088
C75	C	1.309456	-1.040964	0.892193
C76	C	0.896569	-0.996665	0.428168
C77	C	0.802671	-0.991695	0.422601
C78	C	0.752296	-0.941512	0.477337
C79	C	0.795823	-0.896302	0.537649
C80	C	0.889720	-0.901277	0.543220
C81	C	1.354566	-1.004477	0.130306
C82	C	1.360110	-1.000002	0.036407
C83	C	1.305369	-0.944263	-0.013939
C84	C	1.245073	-0.893002	0.029617
C85	C	1.239526	-0.897482	0.123514
C86	C	1.651870	-0.941719	0.587679
C87	C	1.745776	-0.946905	0.593103
C88	C	1.795888	-0.997561	0.538693
C89	C	1.752088	-1.043040	0.478863
C90	C	1.658182	-1.037858	0.473445
H91	H	0.926245	-0.548316	0.592795
H92	H	1.872351	-1.001770	0.543110
H93	H	1.359131	-0.400295	0.857522
H94	H	0.754794	-0.855444	0.582213
H95	H	0.937572	-1.037530	0.383592
H96	H	1.408551	-0.359577	1.001677
C97	C	0.936802	-0.852088	0.608715
C98	C	0.872581	-0.807063	0.655432
C99	C	0.915914	-0.761730	0.715768
H100	H	0.971134	-0.885984	0.650134
H101	H	0.975420	-0.817971	0.576526
H102	H	0.833979	-0.841177	0.687619
H103	H	0.838245	-0.773152	0.614036
H104	H	0.954532	-0.727612	0.683579
H105	H	0.950245	-0.795631	0.757181
H106	H	0.872348	-0.731170	0.747467
H107	H	0.938185	-0.355139	0.384386
C108	C	1.597438	-0.886615	0.646611
C109	C	1.546613	-0.830932	0.592221
C110	C	1.496476	-0.780153	0.646485
H111	H	1.558396	-0.916308	0.683919
H112	H	1.636954	-0.860234	0.682999
H113	H	1.507101	-0.857310	0.555848
H114	H	1.585632	-0.801221	0.554913
H115	H	1.535991	-0.753772	0.682873
H116	H	1.457439	-0.809852	0.683790
H117	H	1.461991	-0.742362	0.609589
H118	H	1.398753	-0.367619	1.172033
H119	H	1.309894	-0.940625	-0.090396
C120	C	1.610529	-1.087091	0.408418
C121	C	1.560044	-1.037049	0.347348
C122	C	1.516130	-1.082378	0.287438
H123	H	1.653729	-1.118007	0.376701
H124	H	1.571769	-1.120862	0.440927
H125	H	1.598801	-1.003291	0.314842
H126	H	1.516829	-1.006132	0.379040
H127	H	1.477370	-1.116149	0.319947
H128	H	1.559336	-1.113292	0.255727
H129	H	1.481865	-1.048431	0.246000
H130	H	1.792903	-1.084283	0.434565
H131	H	0.782101	-0.594045	0.642134
H132	H	0.611744	-0.584961	0.632348
H133	H	1.399148	-1.049866	0.171287
H134	H	1.409214	-1.041744	0.000958
C135	C	1.793153	-0.897424	0.658082
C136	C	1.729164	-0.851933	0.704540
C137	C	1.772771	-0.806334	0.764396
H138	H	1.827445	-0.931162	0.699691
H139	H	1.831842	-0.863600	0.625554
H140	H	1.690491	-0.885754	0.737066
H141	H	1.694869	-0.818180	0.662954
H142	H	1.811459	-0.772510	0.731868
H143	H	1.807061	-0.840078	0.805999
H144	H	1.729362	-0.775457	0.795919
H145	H	1.190056	-0.539510	1.160076
C146	C	0.611640	-0.376709	0.407674
C147	C	0.518648	-0.383187	0.414669
C148	C	0.474788	-0.327492	0.354604
H149	H	0.626185	-0.325146	0.421760
H150	H	0.630414	-0.386109	0.348089
H151	H	0.499881	-0.373781	0.474241
H152	H	0.504077	-0.434738	0.400575
H153	H	0.493562	-0.336892	0.295019
H154	H	0.489340	-0.275933	0.368696
H155	H	0.411690	-0.331885	0.359336
C156	C	1.174209	-0.841790	0.170919
C157	C	1.221910	-0.796520	0.227877
C158	C	1.161765	-0.745216	0.271566
H159	H	1.142378	-0.807883	0.127585
H160	H	1.132890	-0.871610	0.205267
H161	H	1.263213	-0.766702	0.193531
H162	H	1.253738	-0.830406	0.271227
H163	H	1.120445	-0.775035	0.305914
H164	H	1.129937	-0.711313	0.228226
H165	H	1.194120	-0.714499	0.310223
H166	H	0.767802	-0.346060	0.374601
H167	H	1.150424	-0.572184	0.845535
C168	C	1.185538	-0.832459	-0.024896
C169	C	1.131529	-0.788532	0.033330
C170	C	1.076668	-0.732758	-0.016858
H171	H	1.221990	-0.798100	-0.059482
H172	H	1.148492	-0.858787	-0.063845
H173	H	1.168570	-0.762205	0.072263
H174	H	1.095057	-0.822869	0.067916
H175	H	1.039623	-0.759086	-0.055807
H176	H	1.113128	-0.698404	-0.051442
H177	H	1.040011	-0.702951	0.022640
C178	C	1.124374	-0.593674	1.027926
C179	C	1.131393	-0.587910	1.120922
C180	C	1.071273	-0.637491	1.164763
H181	H	1.064803	-0.578230	1.009151
H182	H	1.138414	-0.646670	1.013369
H183	H	1.117347	-0.534926	1.135473
H184	H	1.190950	-0.603361	1.139724
H185	H	1.085313	-0.690486	1.150205
H186	H	1.011706	-0.622041	1.145980
H187	H	1.076033	-0.633592	1.227865
H188	H	1.150111	-0.888365	0.844366
C189	C	1.123529	-0.882660	1.026551
C190	C	1.062612	-0.926734	1.076982
C191	C	1.002258	-0.875521	1.120545
H192	H	1.155682	-0.851892	1.065310
H193	H	1.091744	-0.848796	0.983126
H194	H	1.094394	-0.960584	1.120403
H195	H	1.030438	-0.957499	1.038244
H196	H	0.970473	-0.841657	1.077120
H197	H	1.034418	-0.844756	1.159300
H198	H	0.960914	-0.905417	1.154761
H199	H	1.239114	-0.997718	1.106079
H200	H	1.348362	-1.090869	1.027109
H201	H	1.358495	-1.082768	0.856759
C202	C	0.755539	-1.040914	0.357168
C203	C	0.777292	-1.121104	0.378039
C204	C	0.733904	-1.166466	0.317775
H205	H	0.692391	-1.030876	0.361627
H206	H	0.774513	-1.027334	0.297667
H207	H	0.758312	-1.134679	0.437526
H208	H	0.840431	-1.131165	0.373575
H209	H	0.752879	-1.152886	0.258273
H210	H	0.670759	-1.156422	0.322238
H211	H	0.748664	-1.220879	0.331922
H212	H	0.675840	-0.937468	0.472792
