data_functionalizedCrystal
_audit_creation_method	'MofGen! by Chris Wilmer'
_symmetry_space_group_name_H-M	'P1'
_symmetry_Int_Tables_number	1
_symmetry_cell_setting	triclinic
loop_
_symmetry_equiv_pos_as_xyz
  x,y,z
_cell_length_a	16.959454
_cell_length_b	16.959455
_cell_length_c	16.959447
_cell_angle_alpha	89.984280
_cell_angle_beta	90.026736
_cell_angle_gamma	89.981311
loop_
_atom_site_label
_atom_site_type_symbol
_atom_site_fract_x
_atom_site_fract_y
_atom_site_fract_z
Zn1	Zn	-0.314695	-1.208384	0.446958
Zn2	Zn	-0.446888	-1.208306	0.314788
Zn3	Zn	-0.314724	-1.076212	0.314792
Zn4	Zn	-0.446832	-1.076177	0.446923
O5	O	-0.380785	-1.142270	0.380865
O6	O	-0.332242	-1.318984	0.429438
O7	O	-0.429391	-1.190766	0.204177
O8	O	-0.204109	-1.093792	0.332341
O9	O	-0.429363	-1.318927	0.332333
O10	O	-0.204088	-1.190898	0.429442
O11	O	-0.332291	-1.093717	0.204181
O12	O	-0.332237	-0.965597	0.332307
O13	O	-0.429269	-1.093732	0.557539
O14	O	-0.429297	-0.965571	0.429383
O15	O	-0.332188	-1.190864	0.557564
O16	O	-0.557491	-1.190732	0.332299
O17	O	-0.557451	-1.093657	0.429378
C18	C	-0.380765	-0.936904	0.380842
C19	C	-0.380775	-0.849047	0.380851
C20	C	-0.586151	-1.142204	0.380852
C21	C	-0.674008	-1.142248	0.380872
C22	C	-0.431269	-0.807741	0.330220
C23	C	-0.330286	-0.807799	0.431486
C24	C	-0.330291	-0.725253	0.431494
C25	C	-0.380785	-0.683948	0.380864
C26	C	-0.431274	-0.725188	0.330225
C27	C	-0.279798	-0.684006	0.482126
C28	C	-0.279800	-0.601455	0.482136
C29	C	-0.330299	-0.560149	0.431509
C30	C	-0.380790	-0.601394	0.380868
C31	C	-0.431284	-0.560088	0.330238
C32	C	-0.481780	-0.601332	0.279601
C33	C	-0.481773	-0.683881	0.279597
C34	C	-0.330306	-0.477600	0.431512
C35	C	-0.431289	-0.477535	0.330242
C36	C	-1.045492	-1.091796	0.431409
C37	C	-1.045474	-1.192964	0.330402
C38	C	-0.962928	-1.192936	0.330395
C39	C	-0.921661	-1.142337	0.380894
C40	C	-0.962938	-1.091765	0.431402
C41	C	-0.921644	-1.243501	0.279883
C42	C	-0.839093	-1.243475	0.279873
C43	C	-0.797824	-1.192879	0.330377
C44	C	-0.839107	-1.142306	0.380887
C45	C	-0.797839	-1.091707	0.431387
C46	C	-0.839121	-1.041137	0.481901
C47	C	-0.921669	-1.041170	0.481906
C48	C	-0.715276	-1.192847	0.330373
C49	C	-0.715286	-1.091676	0.431379
C50	C	-0.174617	-1.142358	0.380896
C51	C	-0.086760	-1.142395	0.380909
C52	C	-0.380719	-1.142303	0.587033
C53	C	-0.380691	-1.142317	0.674890
C54	C	-0.380802	-0.348438	0.380884
C55	C	-0.380800	-0.436295	0.380881
C56	C	-0.380793	-1.142283	0.175499
C57	C	-0.380598	-1.142422	0.087643
C58	C	-0.431153	-1.091839	1.046355
C59	C	-0.330063	-1.192983	1.046377
C60	C	-0.330079	-1.192962	0.963831
C61	C	-0.380635	-1.142380	0.922543
C62	C	-0.431173	-1.091818	0.963801
C63	C	-0.279547	-1.243529	0.922566
C64	C	-0.279563	-1.243510	0.840015
C65	C	-0.330115	-1.192923	0.798726
C66	C	-0.380655	-1.142359	0.839990
C67	C	-0.431210	-1.091776	0.798702
C68	C	-0.481747	-1.041207	0.839964
C69	C	-0.481725	-1.041231	0.922512
C70	C	-0.330136	-1.192899	0.716178
C71	C	-0.431230	-1.091755	0.716148
H72	H	-0.472411	-0.443910	0.289015
H73	H	-0.472297	-1.050665	1.079954
H74	H	-0.472392	-1.050557	0.682538
H75	H	-1.079080	-1.234154	0.289282
C76	C	-0.224260	-0.729438	0.537818
H77	H	-0.194184	-0.693054	0.567971
H78	H	-0.254539	-0.761641	0.572206
H79	H	-0.189783	-0.761642	0.507632
H80	H	-0.289173	-0.841435	0.472704
H81	H	-0.955251	-1.284690	0.238763
H82	H	-0.522872	-1.000063	0.956115
C83	C	-0.274453	-1.248615	1.091791
H84	H	-0.281675	-1.241382	1.146863
H85	H	-0.286020	-1.301717	1.078262
H86	H	-0.221345	-1.237054	1.078274
C87	C	-0.486808	-0.853104	0.274522
H88	H	-0.479574	-0.908184	0.281764
H89	H	-0.539930	-0.839562	0.286001
H90	H	-0.475171	-0.839561	0.221430
C91	C	-0.537354	-0.985570	0.794542
H92	H	-0.530122	-0.992802	0.739470
H93	H	-0.590462	-0.997112	0.808058
H94	H	-0.525769	-0.932465	0.808065
H95	H	-0.522882	-0.717469	0.238370
H96	H	-0.805487	-1.284651	0.238743
C97	C	-0.274549	-1.248513	0.670793
H98	H	-0.244435	-1.278638	0.707206
H99	H	-0.304793	-1.282930	0.638579
H100	H	-0.240109	-1.218275	0.638604
C101	C	-0.223944	-1.299169	0.967979
H102	H	-0.193856	-1.329287	0.931584
H103	H	-0.189492	-1.268957	1.000188
H104	H	-0.254185	-1.333603	1.000175
C105	C	-0.223969	-1.299126	0.794635
H106	H	-0.193855	-1.329249	0.831048
H107	H	-0.254212	-1.333544	0.762421
H108	H	-0.189530	-1.268887	0.762445
H109	H	-0.522889	-0.567691	0.238374
H110	H	-0.238684	-0.567882	0.523369
H111	H	-0.681690	-1.050475	0.472506
C112	C	-0.274772	-0.432235	0.487208
H113	H	-0.244701	-0.468658	0.517363
H114	H	-0.240301	-0.400027	0.457033
H115	H	-0.305058	-0.400042	0.521606
H116	H	-0.805511	-0.999936	0.523015
C117	C	-0.669869	-1.248466	0.274815
H118	H	-0.706270	-1.278606	0.244742
H119	H	-0.637704	-1.218240	0.240347
H120	H	-0.637630	-1.282880	0.305085
C121	C	-1.090893	-1.036174	0.486973
H122	H	-1.054490	-1.006041	0.517050
H123	H	-1.123141	-1.001765	0.456714
H124	H	-1.123049	-1.066408	0.521449
H125	H	-0.955288	-0.999998	0.523031
