data_functionalizedCrystal
_audit_creation_method	'MofGen! by Chris Wilmer'
_symmetry_space_group_name_H-M	'P1'
_symmetry_Int_Tables_number	1
_symmetry_cell_setting	triclinic
loop_
_symmetry_equiv_pos_as_xyz
  x,y,z
_cell_length_a	19.121063
_cell_length_b	19.121385
_cell_length_c	19.120904
_cell_angle_alpha	85.254489
_cell_angle_beta	94.741613
_cell_angle_gamma	85.196193
loop_
_atom_site_label
_atom_site_type_symbol
_atom_site_fract_x
_atom_site_fract_y
_atom_site_fract_z
Zn1	Zn	-0.250417	-1.047502	-0.363282
Zn2	Zn	-0.363068	-1.047414	-0.250637
Zn3	Zn	-0.250439	-0.934863	-0.250634
Zn4	Zn	-0.373535	-0.924316	-0.373721
O5	O	-0.309365	-0.988524	-0.309568
O6	O	-0.260971	-1.146147	-0.343972
O7	O	-0.343756	-1.036861	-0.151982
O8	O	-0.151775	-0.954255	-0.261207
O9	O	-0.343735	-1.146083	-0.261212
O10	O	-0.151759	-1.037010	-0.343970
O11	O	-0.261008	-0.954170	-0.151980
O12	O	-0.271158	-0.834807	-0.271329
O13	O	-0.361575	-0.936279	-0.470990
O14	O	-0.361596	-0.827058	-0.361760
O15	O	-0.271121	-1.026783	-0.463322
O16	O	-0.463118	-1.026635	-0.271334
O17	O	-0.470808	-0.936195	-0.361763
C18	C	-0.317516	-0.805351	-0.317677
C19	C	-0.321020	-0.726988	-0.321164
C20	C	-0.492544	-0.980279	-0.317696
C21	C	-0.570908	-0.976816	-0.321194
C22	C	-0.343187	-0.283578	-0.343296
C23	C	-0.339898	-0.357209	-0.340007
C24	C	-0.291099	-0.398036	-0.291352
C25	C	-0.245589	-0.365228	-0.245977
C26	C	-0.248881	-0.291598	-0.249263
C27	C	-0.278803	-0.620551	-0.279075
C28	C	-0.275513	-0.694185	-0.275794
C29	C	-0.369823	-0.686161	-0.369824
C30	C	-0.373108	-0.612530	-0.373108
C31	C	-0.327601	-0.579729	-0.327731
C32	C	-0.287735	-0.473298	-0.287990
C33	C	-0.330969	-0.504467	-0.331090
C34	C	-0.603696	-1.022309	-0.275791
C35	C	-0.677326	-1.019056	-0.279084
C36	C	-0.718168	-0.970305	-0.327778
C37	C	-0.685375	-0.924809	-0.373185
C38	C	-0.611745	-0.928067	-0.369894
C39	C	-0.940683	-0.958115	-0.340070
C40	C	-1.014317	-0.954860	-0.343356
C41	C	-1.006263	-1.049108	-0.249256
C42	C	-0.932633	-1.052358	-0.245967
C43	C	-0.899846	-1.006865	-0.291376
C44	C	-0.793430	-0.966977	-0.331144
C45	C	-0.824585	-1.010197	-0.288013
C46	C	-0.125470	-0.996819	-0.301424
C47	C	-0.047105	-1.000354	-0.297953
C48	C	-0.317513	-0.980365	-0.493451
C49	C	-0.320985	-0.976888	-0.571811
C50	C	-0.301179	-0.172411	-0.301420
C51	C	-0.297679	-0.250775	-0.297926
C52	C	-0.275524	-1.022373	-0.604633
C53	C	-0.278784	-1.019097	-0.678261
C54	C	-0.327510	-0.970340	-0.719065
C55	C	-0.372973	-0.924850	-0.686238
C56	C	-0.369709	-0.928123	-0.612612
C57	C	-0.339718	-0.958099	-0.941569
C58	C	-0.342980	-0.954831	-1.015200
C59	C	-0.248790	-1.049078	-1.007218
C60	C	-0.245533	-1.052349	-0.933591
C61	C	-0.290994	-1.006857	-0.900770
C62	C	-0.330845	-0.966992	-0.794325
C63	C	-0.287655	-1.010201	-0.825512
C64	C	-0.301196	-0.996694	-0.126397
C65	C	-0.297519	-1.000316	-0.048023
H66	H	-0.376957	-0.383913	-0.376950
H67	H	-0.704019	-1.056101	-0.242112
C68	C	-0.396868	-0.238671	-0.396818
C69	C	-0.476294	-0.245455	-0.394030
C70	C	-0.529979	-0.200550	-0.447552
C71	C	-0.504237	-0.148862	-0.503862
C72	C	-0.424807	-0.142077	-0.506652
C73	C	-0.371123	-0.186981	-0.453130
H74	H	-0.495353	-0.283719	-0.352344
H75	H	-0.588778	-0.205574	-0.445486
H76	H	-0.543978	-0.115621	-0.543482
H77	H	-0.405748	-0.103812	-0.548338
H78	H	-0.312323	-0.181958	-0.455196
H79	H	-0.247980	-1.049896	-0.792286
C80	C	-0.221826	-0.739104	-0.222279
C81	C	-0.142400	-0.732320	-0.225071
C82	C	-0.088712	-0.777242	-0.171566
C83	C	-0.114450	-0.828947	-0.115269
C84	C	-0.193880	-0.835733	-0.112475
C85	C	-0.247568	-0.790811	-0.165980
H86	H	-0.123344	-0.694043	-0.266747
H87	H	-0.029913	-0.772218	-0.173635
H88	H	-0.074707	-0.862201	-0.075662
H89	H	-0.212936	-0.874010	-0.070799
H90	H	-0.306367	-0.795835	-0.163912
H91	H	-0.826692	-0.927282	-0.370789
H92	H	-0.205858	-0.398475	-0.206358
C93	C	-0.887714	-1.105989	-0.192403
C94	C	-0.894587	-1.103406	-0.112961
C95	C	-0.849671	-1.157036	-0.059393
C96	C	-0.797882	-1.213248	-0.085267
C97	C	-0.791008	-1.215833	-0.164712
C98	C	-0.835924	-1.162203	-0.218280
H99	H	-0.932926	-1.061792	-0.093804
H100	H	-0.854760	-1.155122	-0.000582
H101	H	-0.764633	-1.252948	-0.045613
H102	H	-0.752669	-1.257447	-0.183869
H103	H	-0.830835	-1.164117	-0.277092
H104	H	-1.032966	-1.086146	-0.212287
C105	C	-0.575675	-0.878022	-0.419836
C106	C	-0.526222	-0.826293	-0.389434
C107	C	-0.490152	-0.776249	-0.439379
C108	C	-0.503535	-0.777935	-0.519727
C109	C	-0.552990	-0.829666	-0.550133
C110	C	-0.589060	-0.879710	-0.500188
H111	H	-0.516313	-0.825043	-0.329952
H112	H	-0.453542	-0.737954	-0.416870
H113	H	-0.476834	-0.740890	-0.556700
H114	H	-0.562899	-0.830916	-0.609615
H115	H	-0.625670	-0.918005	-0.522697
H116	H	-0.241766	-1.056137	-0.704981
C117	C	-0.904619	-0.908072	-0.390013
C118	C	-0.855048	-0.938361	-0.441774
C119	C	-0.818978	-0.888315	-0.491718
C120	C	-0.832479	-0.807981	-0.489900
C121	C	-0.882052	-0.777687	-0.438137
C122	C	-0.918122	-0.827733	-0.388193
H123	H	-0.845051	-0.997833	-0.443121
H124	H	-0.782281	-0.910741	-0.530036
H125	H	-0.805778	-0.770934	-0.526872
H126	H	-0.892049	-0.718215	-0.436790
H127	H	-0.954820	-0.805308	-0.349875
H128	H	-0.370520	-0.927297	-0.827556
C129	C	-0.779662	-1.063821	-0.234451
C130	C	-0.786521	-1.061235	-0.155007
C131	C	-0.741590	-1.114857	-0.101443
C132	C	-0.689799	-1.171064	-0.127323
C133	C	-0.682938	-1.173652	-0.206770
C134	C	-0.727869	-1.120031	-0.260334
H135	H	-0.824861	-1.019625	-0.135846
H136	H	-0.746669	-1.112941	-0.042631
H137	H	-0.656539	-1.210758	-0.087671
H138	H	-0.644598	-1.215262	-0.225931
H139	H	-0.722790	-1.121947	-0.319147
C140	C	-0.221924	-1.076007	-0.559751
C141	C	-0.142480	-1.073417	-0.566580
C142	C	-0.088877	-1.127050	-0.521700
C143	C	-0.114718	-1.183275	-0.469992
C144	C	-0.194167	-1.185867	-0.463161
C145	C	-0.247770	-1.132233	-0.508041
H146	H	-0.123346	-1.031794	-0.604860
H147	H	-0.030063	-1.125131	-0.526757
H148	H	-0.075038	-1.222978	-0.436769
H149	H	-0.213300	-1.227490	-0.424881
H150	H	-0.306583	-1.134153	-0.502984
C151	C	-0.191930	-1.105982	-0.888712
C152	C	-0.112485	-1.103394	-0.895543
C153	C	-0.058883	-1.157030	-0.850666
C154	C	-0.084725	-1.213255	-0.798958
C155	C	-0.164174	-1.215846	-0.792126
C156	C	-0.217776	-1.162209	-0.837002
H157	H	-0.093352	-1.061771	-0.933821
H158	H	-0.000070	-1.155112	-0.855724
H159	H	-0.045046	-1.252960	-0.765738
H160	H	-0.183307	-1.257469	-0.753847
H161	H	-0.276589	-1.164127	-0.831944
H162	H	-0.211778	-1.086114	-1.033949
H163	H	-0.406722	-0.891077	-0.585889
H164	H	-0.211822	-0.264891	-0.212320
C165	C	-0.558773	-1.075937	-0.222227
C166	C	-0.565640	-1.073359	-0.142784
C167	C	-0.520719	-1.126989	-0.089221
C168	C	-0.468931	-1.183198	-0.115101
C169	C	-0.462061	-1.185778	-0.194548
C170	C	-0.506982	-1.132148	-0.248111
H171	H	-0.603979	-1.031748	-0.123623
H172	H	-0.525805	-1.125079	-0.030409
H173	H	-0.435678	-1.222899	-0.075450
H174	H	-0.423723	-1.227390	-0.213709
H175	H	-0.501897	-1.134058	-0.306923
C176	C	-0.384646	-0.459560	-0.384611
C177	C	-0.440853	-0.407804	-0.358682
C178	C	-0.494528	-0.362889	-0.412206
C179	C	-0.491996	-0.369731	-0.491658
C180	C	-0.435787	-0.421490	-0.517590
C181	C	-0.382112	-0.466405	-0.464067
H182	H	-0.442729	-0.402737	-0.299864
H183	H	-0.536137	-0.324574	-0.393009
H184	H	-0.531729	-0.336482	-0.531279
H185	H	-0.433911	-0.426557	-0.576409
H186	H	-0.340503	-0.504720	-0.483264
C187	C	-0.396603	-0.901216	-1.060087
C188	C	-0.446625	-0.851192	-1.023988
C189	C	-0.500256	-0.797592	-1.068875
C190	C	-0.503866	-0.794016	-1.149861
C191	C	-0.453842	-0.844042	-1.185965
C192	C	-0.400210	-0.897642	-1.141078
H193	H	-0.443954	-0.853837	-0.964034
H194	H	-0.537287	-0.760560	-1.042149
H195	H	-0.543567	-0.754339	-1.183089
H196	H	-0.456512	-0.841397	-1.245919
H197	H	-0.363179	-0.934674	-1.167804
C198	C	-0.234047	-0.518215	-0.234483
C199	C	-0.154621	-0.511438	-0.237282
C200	C	-0.100932	-0.556359	-0.183778
C201	C	-0.126669	-0.608057	-0.127475
C202	C	-0.206098	-0.614837	-0.124673
C203	C	-0.259788	-0.569916	-0.178177
H204	H	-0.135565	-0.473165	-0.278963
H205	H	-0.042132	-0.551340	-0.185852
H206	H	-0.086925	-0.641311	-0.087868
H207	H	-0.225154	-0.653109	-0.082992
H208	H	-0.318587	-0.574935	-0.176103
C209	C	-0.426796	-0.567627	-0.426626
C210	C	-0.483005	-0.515875	-0.400695
C211	C	-0.536693	-0.470973	-0.454215
C212	C	-0.534172	-0.477823	-0.533667
C213	C	-0.477961	-0.529577	-0.559602
C214	C	-0.424273	-0.574479	-0.506082
H215	H	-0.484873	-0.510802	-0.341876
H216	H	-0.578304	-0.432661	-0.435015
H217	H	-0.573916	-0.444583	-0.573286
H218	H	-0.476093	-0.534649	-0.618421
H219	H	-0.382662	-0.612790	-0.525282
H220	H	-0.406873	-0.712876	-0.406766
C221	C	-1.059245	-0.901232	-0.396923
C222	C	-1.023183	-0.851191	-0.446873
C223	C	-1.068111	-0.797565	-0.500435
C224	C	-1.149100	-0.793979	-0.504047
C225	C	-1.185166	-0.844022	-0.454095
C226	C	-1.140238	-0.897648	-0.400533
H227	H	-0.963226	-0.853844	-0.444201
H228	H	-1.041412	-0.760520	-0.537412
H229	H	-1.182359	-0.754282	-0.543697
H230	H	-1.245123	-0.841369	-0.456767
H231	H	-1.166937	-0.934693	-0.363556
C232	C	-0.389730	-0.908050	-0.905488
C233	C	-0.387982	-0.827717	-0.918927
C234	C	-0.437998	-0.777661	-0.882850
C235	C	-0.489762	-0.807937	-0.833335
C236	C	-0.491511	-0.888274	-0.819894
C237	C	-0.441496	-0.938331	-0.855971
H238	H	-0.349662	-0.805301	-0.955583
H239	H	-0.436703	-0.718190	-0.892800
H240	H	-0.526787	-0.770882	-0.806629
H241	H	-0.529832	-0.910690	-0.783238
H242	H	-0.442791	-0.997802	-0.846021
H243	H	-0.412644	-0.885149	-0.719467
H244	H	-0.718634	-0.885118	-0.412835
H245	H	-0.241750	-0.593853	-0.242124
