data_functionalizedCrystal
_audit_creation_method	'MofGen! by Chris Wilmer'
_symmetry_space_group_name_H-M	'P1'
_symmetry_Int_Tables_number	1
_symmetry_cell_setting	triclinic
loop_
_symmetry_equiv_pos_as_xyz
  x,y,z
_cell_length_a	11.026607
_cell_length_b	10.654550
_cell_length_c	9.130313
_cell_angle_alpha	90.000276
_cell_angle_beta	89.997484
_cell_angle_gamma	83.464526
loop_
_atom_site_label
_atom_site_type_symbol
_atom_site_fract_x
_atom_site_fract_y
_atom_site_fract_z
O1	O	0.170768	-1.704908	-0.121683
O2	O	0.670768	-1.204908	0.378317
O3	O	0.187037	-1.342961	-0.121709
O4	O	0.687037	-0.842961	0.378291
O5	O	0.001997	-1.493937	-0.121693
O6	O	0.501997	-0.993937	0.378307
O7	O	0.355808	-1.553932	-0.121699
O8	O	0.855808	-1.053932	0.378301
O9	O	0.001991	-1.493922	0.121906
O10	O	0.501991	-0.993922	0.621906
O11	O	0.187032	-1.342947	0.121889
O12	O	0.687032	-0.842947	0.621889
O13	O	0.170762	-1.704894	0.121916
O14	O	0.670762	-1.204894	0.621916
Cu15	Cu	0.178896	-1.523919	0.144145
Cu16	Cu	0.678896	-1.023919	0.644145
Cu17	Cu	0.178903	-1.523936	-0.143939
Cu18	Cu	0.678903	-1.023936	0.356061
O19	O	0.355802	-1.553918	0.121899
O20	O	0.855802	-1.053918	0.621899
C21	C	0.185840	-1.295897	0.000087
C22	C	0.685840	-0.795897	0.500087
C23	C	0.182266	-1.155678	0.000076
C24	C	0.682266	-0.655678	0.500076
C25	C	-0.043310	-1.482861	0.000104
C26	C	0.456690	-0.982861	0.500104
C27	C	-0.178302	-1.449867	0.000096
C28	C	0.321698	-0.949867	0.500096
N29	N	0.178891	-1.523916	0.346768
N30	N	0.678891	-1.023916	0.846768
C31	C	-0.251341	-1.540970	0.000101
C32	C	0.248659	-1.040970	0.500101
C33	C	-0.390862	-1.506871	0.000093
C34	C	0.109138	-1.006871	0.500093
C35	C	0.401109	-1.564993	0.000099
C36	C	0.901109	-1.064993	0.500099
C37	C	0.536101	-1.597988	0.000097
C38	C	1.036101	-1.097988	0.500097
C39	C	0.171959	-1.751958	0.000116
C40	C	0.671959	-1.251958	0.500116
C41	C	0.175533	-1.892177	0.000117
C42	C	0.675533	-1.392177	0.500117
C43	C	0.291214	-1.099841	0.000079
C44	C	0.791214	-0.599841	0.500079
C45	C	0.287849	-0.968090	0.000104
C46	C	0.787849	-0.468090	0.500104
C47	C	0.066576	-0.948022	0.000119
C48	C	0.566576	-0.448022	0.500119
C49	C	0.069943	-1.079771	0.000104
C50	C	0.569943	-0.579771	0.500104
N51	N	0.178898	-1.523947	-0.346561
N52	N	0.678898	-1.023947	0.153439
C53	C	0.096990	-1.590804	0.423427
C54	C	0.596990	-1.090804	0.923427
C55	C	0.096990	-1.590816	0.576764
C56	C	0.596990	-1.090816	1.076764
C57	C	0.260803	-1.457050	0.576769
C58	C	0.760803	-0.957050	1.076769
C59	C	0.260796	-1.457031	0.423435
C60	C	0.760796	-0.957031	0.923435
H61	H	-0.210580	-1.644212	0.000117
H62	H	0.289420	-1.144212	0.500117
Cl63	Cl	0.363760	-1.372929	0.327054
Cl64	Cl	0.863760	-0.872929	0.827054
Cl65	Cl	0.432419	-1.195263	0.000053
Cl66	Cl	0.932419	-0.695263	0.500053
Cl67	Cl	-0.005981	-1.674882	0.327052
Cl68	Cl	0.494019	-1.174882	0.827052
H69	H	0.327491	-1.402596	0.639206
H70	H	0.827491	-0.902596	1.139206
H71	H	-0.423146	-1.701236	-0.000005
H72	H	0.076854	-1.201236	0.499995
Cl73	Cl	-0.241221	-1.290465	0.000070
Cl74	Cl	0.258779	-0.790465	0.500070
H75	H	-0.431617	-1.403623	0.000076
H76	H	0.068383	-0.903623	0.500076
Cl77	Cl	0.424820	-0.897902	0.000109
Cl78	Cl	0.924820	-0.397902	0.500109
Cl79	Cl	-0.067033	-1.149970	0.000113
Cl80	Cl	0.432967	-0.649970	0.500113
H81	H	0.030298	-1.645281	0.639175
H82	H	0.530298	-1.145281	1.139175
Cl83	Cl	-0.074622	-0.852588	0.000144
Cl84	Cl	0.425378	-0.352588	0.500144
