data_functionalizedCrystal
_audit_creation_method	'MofGen! by Chris Wilmer'
_symmetry_space_group_name_H-M	'P1'
_symmetry_Int_Tables_number	1
_symmetry_cell_setting	triclinic
loop_
_symmetry_equiv_pos_as_xyz
  x,y,z
_cell_length_a	9.565339
_cell_length_b	9.065218
_cell_length_c	9.065218
_cell_angle_alpha	85.015918
_cell_angle_beta	90.007197
_cell_angle_gamma	90.003684
loop_
_atom_site_label
_atom_site_type_symbol
_atom_site_fract_x
_atom_site_fract_y
_atom_site_fract_z
O1	O	-0.116291	-1.960401	-0.216346
O2	O	-0.116295	-1.531116	-0.234093
O3	O	-0.116257	-1.754631	-0.010577
O4	O	-0.116328	-1.736885	-0.439862
O5	O	0.116263	-1.754614	-0.010591
O6	O	0.116225	-1.531098	-0.234107
O7	O	0.116230	-1.960383	-0.216360
Zn8	Zn	0.153145	-1.745738	-0.225236
Zn9	Zn	-0.153210	-1.745761	-0.225217
O10	O	0.116192	-1.736867	-0.439876
C11	C	-0.000035	-1.476120	-0.232394
C12	C	-0.000035	-1.312277	-0.227294
N13	N	0.362224	-1.745733	-0.225247
N14	N	-0.362290	-1.745778	-0.225194
C15	C	0.453410	-1.642332	-0.328581
C16	C	0.546584	-1.776054	-0.358994
C17	C	0.546605	-1.612069	-0.194846
C18	C	0.453347	-1.879522	-0.255728
C19	C	0.453360	-1.715449	-0.091521
C20	C	0.546492	-1.849266	-0.121879
C21	C	0.000009	-1.752917	0.044403
C22	C	0.000028	-1.747817	0.208245
C23	C	-0.000034	-2.015378	-0.218059
C24	C	-0.000043	-2.179221	-0.223158
C25	C	-0.000039	-1.738582	0.505145
C26	C	0.000048	-1.743681	0.341302
H27	H	0.587533	-1.801698	-0.472061
H28	H	0.587106	-1.936825	-0.034466
H29	H	0.412379	-1.689763	0.021510
O30	O	0.600871	-1.462321	-0.160795
H31	H	0.563576	-1.376679	-0.246747
O32	O	0.399250	-1.526613	-0.444427
H33	H	0.436588	-1.552136	-0.555310
O34	O	0.399334	-2.029316	-0.289947
H35	H	0.283302	-2.028102	-0.289760
