data_functionalizedCrystal
_audit_creation_method	'MofGen! by Chris Wilmer'
_symmetry_space_group_name_H-M	'P1'
_symmetry_Int_Tables_number	1
_symmetry_cell_setting	triclinic
loop_
_symmetry_equiv_pos_as_xyz
  x,y,z
_cell_length_a	10.723023
_cell_length_b	14.044190
_cell_length_c	9.198806
_cell_angle_alpha	89.991997
_cell_angle_beta	89.996513
_cell_angle_gamma	88.829662
loop_
_atom_site_label
_atom_site_type_symbol
_atom_site_fract_x
_atom_site_fract_y
_atom_site_fract_z
O1	O	1.670503	0.133036	-0.120896
O2	O	1.308625	0.145772	-0.120904
O3	O	1.484127	0.001384	-0.120871
O4	O	1.495000	0.277424	-0.120928
O5	O	1.484112	0.001384	0.120914
O6	O	1.308609	0.145771	0.120881
O7	O	1.670487	0.133036	0.120889
Cu8	Cu	1.489547	0.139404	0.142962
Cu9	Cu	1.489565	0.139404	-0.142977
O10	O	1.494985	0.277424	0.120857
C11	C	1.262025	0.144845	-0.000012
C12	C	1.123193	0.142073	-0.000013
C13	C	1.061289	0.140836	0.125238
C14	C	0.917799	0.137971	0.125239
C15	C	1.479363	-0.033962	0.000025
C16	C	1.465175	-0.139280	0.000038
C17	C	1.539861	-0.389081	-0.000017
C18	C	1.439257	-0.332106	-0.000010
C19	C	1.453681	-0.224808	0.000017
C20	C	1.525438	-0.496389	-0.000044
C21	C	1.717087	0.133963	-0.000006
C22	C	1.855919	0.136735	-0.000014
C23	C	1.499749	0.312769	-0.000043
C24	C	1.513937	0.418088	-0.000065
N25	N	1.489543	0.139403	0.344076
N26	N	1.489578	0.139398	-0.344091
C27	C	1.563205	0.078511	0.416287
C28	C	1.563224	0.078508	0.583699
H29	H	1.114521	0.141894	0.232469
F30	F	1.312518	-0.373675	-0.000016
F31	F	1.666591	-0.347511	0.000003
H32	H	0.864563	0.136913	0.232470
H33	H	1.626252	0.026378	0.354172
F34	F	1.645664	0.010370	0.664862
H35	H	1.426488	0.191529	0.406193
F36	F	0.925489	0.138132	-0.140185
F37	F	1.053622	0.140676	-0.140178
H38	H	1.426514	0.191536	0.593821
