data_functionalizedCrystal
_audit_creation_method	'MofGen! by Chris Wilmer'
_symmetry_space_group_name_H-M	'P1'
_symmetry_Int_Tables_number	1
_symmetry_cell_setting	triclinic
loop_
_symmetry_equiv_pos_as_xyz
  x,y,z
_cell_length_a	8.497374
_cell_length_b	19.805407
_cell_length_c	19.805405
_cell_angle_alpha	89.973590
_cell_angle_beta	89.985911
_cell_angle_gamma	90.004504
loop_
_atom_site_label
_atom_site_type_symbol
_atom_site_fract_x
_atom_site_fract_y
_atom_site_fract_z
Zn1	Zn	0.892011	1.034635	0.269581
Zn2	Zn	0.628188	1.034580	0.382739
Zn3	Zn	0.628226	0.921479	0.269569
Zn4	Zn	0.891907	0.921413	0.382733
O5	O	0.760083	0.978027	0.326155
O6	O	0.857043	1.129344	0.284598
O7	O	0.407431	1.019581	0.367724
O8	O	0.663277	0.936541	0.174854
O9	O	0.663213	1.129303	0.367735
O10	O	0.857079	1.019676	0.174862
O11	O	0.407458	0.936487	0.284579
O12	O	0.663176	0.826754	0.284573
O13	O	1.112683	0.936428	0.367725
O14	O	0.856901	0.826705	0.367714
O15	O	1.112760	1.019611	0.284593
O16	O	0.663111	1.019517	0.477455
O17	O	0.856864	0.936374	0.477450
C18	C	0.760032	0.802171	0.326142
C19	C	0.760048	0.726939	0.326153
C20	C	0.760007	0.977951	0.502011
C21	C	0.760027	0.977980	0.577243
C22	C	0.860757	0.691587	0.369510
C23	C	0.860779	0.620899	0.369511
C24	C	0.760083	0.585563	0.326158
C25	C	0.659369	0.620920	0.282797
C26	C	0.659356	0.691607	0.282793
C27	C	0.659421	0.335847	0.282812
C28	C	0.659439	0.265155	0.282821
C29	C	0.860844	0.265138	0.369530
C30	C	0.860831	0.335825	0.369526
C31	C	0.760124	0.371176	0.326162
C32	C	0.760103	0.447824	0.326161
C33	C	0.760095	0.508916	0.326163
C34	C	1.171563	0.978022	0.326156
C35	C	1.350207	0.978023	0.326164
C36	C	0.760135	1.154569	0.326169
C37	C	0.760157	1.229801	0.326175
C38	C	0.760194	0.978122	0.149613
C39	C	0.760241	0.978162	0.074381
C40	C	0.659245	1.021314	0.612567
C41	C	0.659280	1.021343	0.683256
C42	C	0.760090	0.978034	0.718619
C43	C	0.860882	0.934697	0.683290
C44	C	0.860854	0.934672	0.612603
C45	C	0.860999	0.934797	0.968363
C46	C	0.861016	0.934824	1.039055
C47	C	0.659425	1.021468	1.039016
C48	C	0.659397	1.021443	0.968329
C49	C	0.760195	0.978109	0.933006
C50	C	0.760158	0.978080	0.856358
C51	C	0.760120	0.978059	0.795266
H52	H	0.942751	0.720352	0.404815
H53	H	0.577148	1.056579	0.583779
O54	O	0.550716	0.582813	0.236053
H55	H	0.567615	0.527720	0.243350
O56	O	0.550564	1.068079	0.721353
H57	H	0.621251	1.102509	0.753513
O58	O	0.550717	0.729742	0.236038
H59	H	0.480682	0.693297	0.205899
H60	H	0.577303	1.056707	0.939538
H61	H	0.577357	1.056755	1.067784
O62	O	0.969763	0.888108	1.077194
H63	H	0.899089	0.853703	1.109431
O64	O	0.969097	0.582766	0.416403
H65	H	1.038990	0.619213	0.446601
H66	H	0.943069	0.899512	0.939609
H67	H	0.942970	0.899437	0.712088
H68	H	0.942823	0.364592	0.404830
H69	H	0.942851	0.236347	0.404836
O70	O	0.550841	0.227038	0.236054
H71	H	0.480822	0.263495	0.205894
H72	H	0.942923	0.899386	0.583843
H73	H	0.577407	0.364621	0.247508
