data_functionalizedCrystal
_audit_creation_method	'MofGen! by Chris Wilmer'
_symmetry_space_group_name_H-M	'P1'
_symmetry_Int_Tables_number	1
_symmetry_cell_setting	triclinic
loop_
_symmetry_equiv_pos_as_xyz
  x,y,z
_cell_length_a	22.010155
_cell_length_b	15.995350
_cell_length_c	15.995350
_cell_angle_alpha	83.492375
_cell_angle_beta	90.006484
_cell_angle_gamma	89.995184
loop_
_atom_site_label
_atom_site_type_symbol
_atom_site_fract_x
_atom_site_fract_y
_atom_site_fract_z
O1	O	0.050471	-1.110992	-0.107915
O2	O	0.050483	-0.867216	-0.121242
O3	O	0.050476	-0.995768	0.007309
O4	O	0.050478	-0.982440	-0.236466
O5	O	-0.050575	-0.995744	0.007290
O6	O	-0.050568	-0.867193	-0.121262
O7	O	-0.050580	-1.110968	-0.107934
Cu8	Cu	-0.059800	-0.989079	-0.114600
Cu9	Cu	0.059703	-0.989106	-0.114577
O10	O	-0.050573	-0.982417	-0.236486
C11	C	-0.000041	-0.836010	-0.120701
C12	C	-0.000036	-0.743060	-0.119049
C13	C	-0.000048	-0.995205	0.038494
C14	C	-0.000045	-0.993553	0.131444
N15	N	-0.143853	-0.989065	-0.114615
C16	C	-0.563635	-1.046032	-0.057663
C17	C	-0.627243	-1.046036	-0.057657
O18	O	-0.660137	-1.094438	-0.009244
N19	N	-0.659060	-0.989106	-0.114559
C20	C	-0.627266	-0.932162	-0.171466
O21	O	-0.660170	-0.883738	-0.219865
C22	C	-0.563660	-0.932155	-0.171467
C23	C	-0.531846	-0.989095	-0.114566
C24	C	-0.531822	-1.102966	-0.000766
C25	C	-0.468218	-1.102963	-0.000773
C26	C	-0.436429	-1.046026	-0.057677
C27	C	-0.468243	-0.989092	-0.114573
C28	C	-0.531867	-0.875208	-0.228369
C29	C	-0.468256	-0.875205	-0.228364
C30	C	-0.436442	-0.932145	-0.171464
C31	C	-0.372850	-0.932151	-0.171484
N32	N	-0.341033	-0.989081	-0.114581
C33	C	-0.372822	-1.046019	-0.057678
C34	C	-0.760844	-0.932181	-0.171458
C35	C	-0.824449	-0.932191	-0.171462
C36	C	-0.824422	-1.046064	-0.057652
C37	C	-0.760815	-1.046057	-0.057653
C38	C	-0.729027	-0.989111	-0.114556
C39	C	-0.239251	-1.046009	-0.057697
C40	C	-0.175642	-1.046003	-0.057712
C41	C	-0.175675	-0.932127	-0.171519
C42	C	-0.239279	-0.932136	-0.171508
C43	C	-0.271065	-0.989079	-0.114590
O44	O	-0.339916	-0.883772	-0.219870
O45	O	-0.339911	-1.094427	-0.009279
N46	N	0.143756	-0.989126	-0.114555
C47	C	-0.000055	-1.142175	-0.108476
C48	C	-0.000056	-1.235125	-0.110127
C49	C	-0.000049	-0.405312	-0.113117
C50	C	-0.000275	-0.452746	-0.021565
C51	C	-0.000043	-0.549436	-0.023217
C52	C	-0.000043	-0.572873	-0.116060
C53	C	0.057660	-0.531799	-0.161205
C54	C	0.057704	-0.435163	-0.158905
C55	C	-0.057209	-0.434798	-0.160819
C56	C	-0.057968	-0.531743	-0.160797
C57	C	-0.000037	-0.667570	-0.117727
C58	C	-0.000050	-0.310614	-0.111452
C59	C	-0.000047	-0.982980	-0.267671
C60	C	-0.000047	-0.984631	-0.360621
C61	C	-0.000046	-0.987621	0.469192
C62	C	0.000185	-0.896069	0.421758
C63	C	-0.000043	-0.897721	0.325068
C64	C	-0.000045	-0.990564	0.301631
C65	C	-0.057751	-1.035707	0.342698
C66	C	-0.057799	-1.033407	0.439334
C67	C	0.057114	-1.035325	0.439714
C68	C	0.057876	-1.035303	0.342768
C69	C	-0.000047	-0.992231	0.206934
C70	C	-0.000049	-0.985956	0.563890
H71	H	-0.149741	-1.092373	-0.011376
H72	H	-0.100947	-0.414252	-0.130897
Br73	Br	-0.282379	-1.123290	0.019549
H74	H	0.059805	-0.545924	-0.229414
Br75	Br	-0.425049	-1.180237	0.076456
H76	H	-0.734916	-1.092422	-0.011319
Br77	Br	-0.574953	-1.180248	0.076472
Br78	Br	-0.061334	-1.149394	0.319159
H79	H	0.100603	-0.560183	-0.129833
Br80	Br	-0.063778	-0.557343	-0.273647
H81	H	-0.149783	-0.885772	-0.217851
Br82	Br	0.069160	-0.835089	0.452653
Br83	Br	-0.867578	-1.123337	0.019575
H84	H	-0.850348	-0.885834	-0.217804
Br85	Br	-0.425119	-0.797913	-0.305592
Br86	Br	-0.282453	-0.854869	-0.248743
H87	H	-0.100656	-0.559050	-0.127841
Br88	Br	-0.717708	-0.854895	-0.248697
Br89	Br	-0.129325	-0.983419	0.295384
H90	H	-0.057600	-0.403036	-0.228319
H91	H	-0.041407	-0.577856	0.012270
Br92	Br	-0.069099	-0.838140	0.278603
H93	H	0.041323	-0.862235	0.296653
Br94	Br	-0.129691	-0.978505	0.469828
H95	H	-0.040963	-0.859630	0.441344
H96	H	-0.060419	-1.100623	0.471581
Br97	Br	-0.069247	-0.421856	0.039419
Br98	Br	0.130013	-0.985444	0.473949
Br99	Br	0.129041	-0.980754	0.296827
Br100	Br	0.068309	-0.420100	0.039171
Br101	Br	0.063687	-1.148150	0.317160
Br102	Br	0.057759	-1.147830	0.492649
H103	H	0.041392	-0.577304	0.012526
Br104	Br	-0.575030	-0.797929	-0.305594
H105	H	0.060323	-0.402915	-0.226121
Br106	Br	0.129597	-0.404659	-0.104007
