data_functionalizedCrystal
_audit_creation_method	'MofGen! by Chris Wilmer'
_symmetry_space_group_name_H-M	'P1'
_symmetry_Int_Tables_number	1
_symmetry_cell_setting	triclinic
loop_
_symmetry_equiv_pos_as_xyz
  x,y,z
_cell_length_a	12.759400
_cell_length_b	18.215407
_cell_length_c	18.215384
_cell_angle_alpha	89.940064
_cell_angle_beta	89.907215
_cell_angle_gamma	90.012128
loop_
_atom_site_label
_atom_site_type_symbol
_atom_site_fract_x
_atom_site_fract_y
_atom_site_fract_z
Zn1	Zn	-0.417641	1.125433	-0.416086
Zn2	Zn	-0.593548	1.125272	-0.293027
Zn3	Zn	-0.417876	1.002274	-0.293038
Zn4	Zn	-0.593271	1.002354	-0.416057
O5	O	-0.505584	1.063833	-0.354552
O6	O	-0.440993	1.228396	-0.399769
O7	O	-0.570459	1.108856	-0.190044
O8	O	-0.270823	1.018646	-0.309378
O9	O	-0.570231	1.228278	-0.309358
O10	O	-0.270651	1.109130	-0.399780
O11	O	-0.441393	1.018490	-0.190052
O12	O	-0.441124	0.899301	-0.309350
O13	O	-0.569759	1.018781	-0.519046
O14	O	-0.569987	0.899359	-0.399731
O15	O	-0.440725	1.109207	-0.519067
O16	O	-0.740532	1.108932	-0.309330
O17	O	-0.740329	1.018625	-0.399720
C18	C	-0.505552	0.872627	-0.354539
C19	C	-0.505563	0.790828	-0.354551
C20	C	-0.438407	0.602695	-0.401702
C21	C	-0.438416	0.525836	-0.401705
C22	C	-0.572790	0.525724	-0.307414
C23	C	-0.572775	0.602581	-0.307409
C24	C	-0.505585	0.641065	-0.354557
C25	C	-0.505609	0.487349	-0.354565
C26	C	-0.505619	0.404015	-0.354567
C27	C	-0.505573	0.724404	-0.354554
C28	C	-0.778551	1.063790	-0.354537
C29	C	-0.895328	1.063838	-0.354555
C30	C	-0.950261	1.110914	-0.307541
C31	C	-1.059985	1.110959	-0.307563
C32	C	-1.059833	1.016847	-0.401616
C33	C	-0.950111	1.016806	-0.401597
C34	C	-0.895478	1.157946	-0.260499
C35	C	-0.950411	1.205025	-0.213480
C36	C	-1.060135	1.205070	-0.213503
C37	C	-1.114925	1.158037	-0.260544
C38	C	-0.231551	1.063897	-0.354584
C39	C	-0.114774	1.063925	-0.354597
C40	C	-0.505185	1.064021	-0.546505
C41	C	-0.505015	1.064101	-0.628305
C42	C	-0.505617	1.255786	-0.354565
C43	C	-0.505631	1.337585	-0.354571
C44	C	-0.505905	1.063689	-0.163345
C45	C	-0.505779	1.063752	-0.081547
C46	C	-0.573127	1.017159	0.106860
C47	C	-0.572996	1.017216	0.183719
C48	C	-0.437660	1.110696	0.183283
C49	C	-0.437787	1.110634	0.106426
C50	C	-0.505526	1.063867	0.068217
C51	C	-0.505269	1.063986	0.221932
C52	C	-0.505126	1.064048	0.305266
C53	C	-0.505667	1.063803	-0.015122
H54	H	-0.383712	0.494599	-0.440094
H55	H	-0.383694	0.634026	-0.440091
O56	O	-0.638027	0.488226	-0.261691
C57	C	-0.697564	0.369773	-0.219882
C58	C	-0.623643	0.412146	-0.271712
H59	H	-0.685945	0.308255	-0.227955
H60	H	-0.782301	0.384841	-0.232706
H61	H	-0.679118	0.384862	-0.160569
H62	H	-0.641994	0.397079	-0.331043
H63	H	-0.538928	0.397074	-0.258825
H64	H	-1.104453	0.978554	-0.439914
O65	O	-0.638816	0.971926	0.221224
C66	C	-0.817847	0.937060	0.245119
C67	C	-0.743424	0.988412	0.202612
H68	H	-0.902437	0.950360	0.230074
H69	H	-0.806214	0.945136	0.306623
H70	H	-0.799975	0.877623	0.230088
H71	H	-0.761250	1.047868	0.217581
H72	H	-0.755072	0.980272	0.141118
O73	O	-0.638136	0.639745	-0.261586
C74	C	-0.771373	0.631529	-0.168031
C75	C	-0.697432	0.589350	-0.219899
H76	H	-0.819317	0.590803	-0.134303
H77	H	-0.826373	0.667528	-0.201716
H78	H	-0.723106	0.667490	-0.129638
H79	H	-0.745614	0.553349	-0.258303
H80	H	-0.642430	0.553398	-0.186168
H81	H	-0.628282	0.979076	0.075752
H82	H	-0.806135	1.157913	-0.260473
H83	H	-0.382511	1.148773	0.214403
O84	O	-0.897030	1.250643	-0.167812
C85	C	-0.728065	1.292317	-0.126125
C86	C	-0.788384	1.240603	-0.177869
H87	H	-0.640214	1.284229	-0.134249
H88	H	-0.749737	1.279390	-0.066761
H89	H	-0.749599	1.351662	-0.139096
H90	H	-0.766882	1.181242	-0.164964
H91	H	-0.766706	1.253594	-0.237218
O92	O	-0.372082	1.156079	0.068996
C93	C	-0.237788	1.248772	0.076668
C94	C	-0.312161	1.197362	0.119149
H95	H	-0.189307	1.282152	0.117198
H96	H	-0.285640	1.287504	0.040725
H97	H	-0.183303	1.214676	0.040624
H98	H	-0.366660	1.231399	0.155233
H99	H	-0.264243	1.158628	0.155045
O100	O	-1.113336	1.250825	-0.167765
C101	C	-1.101899	1.344195	-0.074505
C102	C	-1.041522	1.292405	-0.126257
H103	H	-1.043865	1.377837	-0.040943
H104	H	-1.153382	1.310455	-0.035956
H105	H	-1.153162	1.382673	-0.108345
H106	H	-0.990202	1.253916	-0.092476
H107	H	-0.990106	1.326191	-0.164807
O108	O	-1.221512	1.158153	-0.260455
C109	C	-1.379051	1.209893	-0.208919
C110	C	-1.258347	1.209825	-0.208936
H111	H	-1.408869	1.251676	-0.167282
H112	H	-1.409007	1.152934	-0.193562
H113	H	-1.408638	1.225153	-0.265949
H114	H	-1.228671	1.194595	-0.151923
H115	H	-1.228463	1.266790	-0.224334
H116	H	-0.905384	0.978474	-0.439880
