data_functionalizedCrystal
_audit_creation_method	'MofGen! by Chris Wilmer'
_symmetry_space_group_name_H-M	'P1'
_symmetry_Int_Tables_number	1
_symmetry_cell_setting	triclinic
loop_
_symmetry_equiv_pos_as_xyz
  x,y,z
_cell_length_a	14.971486
_cell_length_b	16.992695
_cell_length_c	14.048226
_cell_angle_alpha	89.993436
_cell_angle_beta	89.998499
_cell_angle_gamma	87.141176
loop_
_atom_site_label
_atom_site_type_symbol
_atom_site_fract_x
_atom_site_fract_y
_atom_site_fract_z
O1	O	1.194127	0.102190	-0.079052
O2	O	0.934587	0.114427	-0.079078
O3	O	1.063316	-0.005835	-0.079057
O4	O	1.065397	0.222452	-0.079072
O5	O	1.063299	-0.005842	0.079264
O6	O	0.934570	0.114420	0.079244
O7	O	1.194110	0.102183	0.079270
Zn8	Zn	1.064337	0.108300	0.104394
Zn9	Zn	1.064359	0.108310	-0.104201
O10	O	1.065380	0.222445	0.079249
C11	C	0.901215	0.113876	0.000080
C12	C	0.801803	0.112236	0.000070
C13	C	0.749541	0.182887	0.000067
C14	C	0.656133	0.181341	0.000081
C15	C	0.614988	0.109144	0.000092
C16	C	0.667257	0.038488	0.000098
C17	C	0.760663	0.040034	0.000091
C18	C	0.472568	0.035269	0.000111
C19	C	0.379155	0.033723	0.000117
C20	C	0.368038	0.176577	0.000102
C21	C	0.461445	0.178123	0.000094
C22	C	0.513707	0.107466	0.000099
C23	C	1.060631	-0.035054	0.000103
C24	C	1.052644	-0.122105	0.000102
C25	C	1.129708	-0.172274	0.000111
C26	C	1.122198	-0.254067	0.000101
C27	C	1.037623	-0.285691	0.000089
C28	C	0.960553	-0.235517	0.000078
C29	C	0.968064	-0.153724	0.000081
C30	C	1.006493	-0.529318	0.000073
C31	C	0.998988	-0.611117	0.000073
C32	C	1.160634	-0.629662	0.000094
C33	C	1.168138	-0.547867	0.000103
C34	C	1.091068	-0.497700	0.000087
N35	N	1.029945	-0.369297	0.000082
N36	N	1.098747	-0.414095	0.000087
C37	C	1.227482	0.102733	0.000110
C38	C	1.326894	0.104373	0.000114
C39	C	1.068066	0.251664	0.000087
C40	C	1.076053	0.338715	0.000082
N41	N	1.064328	0.108293	0.246754
N42	N	1.064375	0.108310	-0.246562
C43	C	1.121350	0.055063	0.296581
C44	C	1.121356	0.055063	0.396239
C45	C	1.064344	0.108297	0.446068
C46	C	1.007316	0.161529	0.396234
C47	C	1.007306	0.161526	0.296578
C48	C	1.007342	0.161535	0.603948
C49	C	1.007353	0.161540	0.703611
C50	C	1.121393	0.055072	0.703609
C51	C	1.121383	0.055068	0.603953
C52	C	1.064355	0.108302	0.554126
H53	H	0.494942	0.236912	0.000077
H54	H	0.783034	0.241679	0.000057
H55	H	0.960871	0.204870	0.256010
H56	H	0.613586	0.238873	0.000077
C57	C	0.817363	-0.036698	-0.000107
C58	C	0.798013	-0.080153	-0.081568
C59	C	0.850236	-0.150839	-0.081785
H60	H	0.804389	-0.066395	0.055041
H61	H	0.878896	-0.025469	-0.000163
H62	H	0.736494	-0.091384	-0.081503
H63	H	0.810991	-0.050480	-0.136729
H64	H	0.911768	-0.139611	-0.081841
H65	H	0.837258	-0.180530	-0.026633
H66	H	0.837120	-0.180329	-0.137059
H67	H	1.237008	-0.522126	0.000113
H68	H	0.325482	0.234108	0.000103
H69	H	1.198578	-0.146533	0.000126
H70	H	1.223380	-0.670517	0.000106
H71	H	1.184952	-0.294912	0.000110
H72	H	1.167780	0.011717	0.256017
C73	C	0.922713	-0.474988	0.000118
C74	C	0.847042	-0.520193	0.000140
C75	C	0.769845	-0.470168	0.000199
H76	H	0.922155	-0.442671	-0.055075
H77	H	0.922229	-0.442714	0.055353
H78	H	0.847526	-0.552454	-0.055088
H79	H	0.847570	-0.552509	0.055329
H80	H	0.769360	-0.437894	0.055433
H81	H	0.769296	-0.437853	-0.054996
H82	H	0.718493	-0.500832	0.000222
H83	H	0.930114	-0.636861	0.000079
H84	H	0.960901	0.204881	0.563382
C85	C	0.334649	-0.044742	0.000179
C86	C	0.400407	-0.106289	0.000213
C87	C	0.359441	-0.178582	0.000281
H88	H	0.298448	-0.048424	-0.055015
H89	H	0.298463	-0.048353	0.055413
H90	H	0.436577	-0.102680	-0.055015
H91	H	0.436612	-0.102633	0.055403
H92	H	0.323256	-0.182193	0.055515
H93	H	0.323241	-0.182256	-0.054914
H94	H	0.404051	-0.220350	0.000313
H95	H	0.905310	-0.112878	0.000073
C96	C	0.868669	-0.269739	0.000210
C97	C	0.821716	-0.244237	0.081644
C98	C	0.737063	-0.275735	0.081793
H99	H	0.875102	-0.325634	0.000261
H100	H	0.836654	-0.252495	-0.054976
H101	H	0.853723	-0.261486	0.136816
H102	H	0.815258	-0.188346	0.081611
H103	H	0.705048	-0.258491	0.026607
H104	H	0.743505	-0.331629	0.081841
H105	H	0.705192	-0.258431	0.137040
H106	H	0.960927	0.204888	0.744176
H107	H	1.167788	0.011718	0.436808
H108	H	0.515117	-0.022267	0.000116
C109	C	1.183012	-0.002955	0.549860
C110	C	1.131760	-0.050995	0.492802
C111	C	1.188445	-0.104536	0.443007
H112	H	1.216882	-0.034724	0.593803
H113	H	1.222353	0.025088	0.510826
H114	H	1.092435	-0.079037	0.531832
H115	H	1.097892	-0.019248	0.448841
H116	H	1.227786	-0.076492	0.403973
H117	H	1.222312	-0.136300	0.486956
H118	H	1.153680	-0.137133	0.404281
C119	C	1.183158	-0.002820	0.757749
C120	C	1.132091	-0.050911	0.814956
C121	C	1.188959	-0.104253	0.864836
H122	H	1.222428	0.025351	0.796694
H123	H	1.217097	-0.034565	0.713827
H124	H	1.098168	-0.019170	0.858873
H125	H	1.092824	-0.079100	0.776035
H126	H	1.222898	-0.135998	0.820914
H127	H	1.228226	-0.076075	0.903775
H128	H	1.154319	-0.136893	0.903650
C129	C	0.945363	0.219201	0.450455
C130	C	0.887647	0.177351	0.507705
C131	C	0.830573	0.230453	0.557676
H132	H	0.911313	0.250925	0.406616
H133	H	0.979853	0.251881	0.489373
H134	H	0.853161	0.144685	0.468791
H135	H	0.921673	0.145629	0.551562
H136	H	0.865063	0.263133	0.596594
H137	H	0.796529	0.262175	0.513830
H138	H	0.791412	0.202066	0.596532
H139	H	0.633749	-0.020297	0.000120
