data_functionalizedCrystal
_audit_creation_method	'MofGen! by Chris Wilmer'
_symmetry_space_group_name_H-M	'P1'
_symmetry_Int_Tables_number	1
_symmetry_cell_setting	triclinic
loop_
_symmetry_equiv_pos_as_xyz
  x,y,z
_cell_length_a	29.839134
_cell_length_b	29.839131
_cell_length_c	15.296720
_cell_angle_alpha	80.362437
_cell_angle_beta	80.349372
_cell_angle_gamma	90.034165
loop_
_atom_site_label
_atom_site_type_symbol
_atom_site_fract_x
_atom_site_fract_y
_atom_site_fract_z
Zn1	Zn	0.642730	-0.222905	0.510311
Zn2	Zn	0.655666	-0.285039	0.359458
Zn3	Zn	0.580617	-0.209914	0.359451
Zn4	Zn	0.567568	-0.297991	0.510221
O5	O	0.611645	-0.253962	0.434860
O6	O	0.707310	-0.231163	0.490340
O7	O	0.656585	-0.264216	0.233227
O8	O	0.588904	-0.148773	0.379498
O9	O	0.716814	-0.276813	0.379509
O10	O	0.634538	-0.158317	0.490334
O11	O	0.601447	-0.209022	0.233222
O12	O	0.516023	-0.221581	0.379411
O13	O	0.566664	-0.298888	0.636463
O14	O	0.506436	-0.286291	0.490181
O15	O	0.621885	-0.243722	0.636529
O16	O	0.643932	-0.349621	0.379422
O17	O	0.579207	-0.359137	0.490187
C18	C	0.494929	-0.253932	0.434786
C19	C	0.444996	-0.253932	0.434775
C20	C	0.093370	-0.220235	0.377300
C21	C	0.281048	-0.220218	0.377245
O22	O	0.309539	-0.191522	0.328294
N23	N	0.299547	-0.253944	0.434820
C24	C	0.271122	-0.287674	0.492418
O25	O	0.291162	-0.316357	0.541394
C26	C	0.083445	-0.287689	0.492476
C27	C	0.064950	-0.253964	0.434891
C28	C	0.074875	-0.186513	0.319720
C29	C	0.027958	-0.186519	0.319731
C30	C	-0.000462	-0.220248	0.377322
C31	C	0.018033	-0.253970	0.434902
C32	C	0.055021	-0.321418	0.550077
C33	C	0.008099	-0.321418	0.550088
C34	C	-0.010396	-0.287693	0.492503
C35	C	-0.057304	-0.287705	0.492503
N36	N	-0.075802	-0.253980	0.434928
C37	C	-0.047381	-0.220251	0.377337
C38	C	0.369656	-0.287664	0.492382
C39	C	0.416575	-0.287661	0.492366
C40	C	0.426498	-0.220204	0.377195
C41	C	0.379578	-0.220210	0.377206
C42	C	0.351157	-0.253939	0.434806
C43	C	-0.145910	-0.220266	0.377364
C44	C	-0.192830	-0.220277	0.377377
C45	C	-0.202749	-0.287732	0.492551
C46	C	-0.155833	-0.287723	0.492535
C47	C	-0.127414	-0.253987	0.434938
O48	O	-0.085822	-0.316383	0.541436
O49	O	-0.067431	-0.191567	0.328382
C50	C	0.140287	-0.220229	0.377289
C51	C	0.158782	-0.253952	0.434869
C52	C	0.130362	-0.287681	0.492460
C53	C	0.205702	-0.253949	0.434854
C54	C	0.234122	-0.220220	0.377263
C55	C	0.215624	-0.186494	0.319688
C56	C	0.168708	-0.186500	0.319699
C57	C	0.148860	-0.321406	0.550035
C58	C	0.195777	-0.321398	0.550019
C59	C	0.224198	-0.287669	0.492428
C60	C	0.611568	-0.370681	0.434815
C61	C	0.611574	-0.420616	0.434827
C62	C	0.645393	-0.725302	0.377269
C63	C	0.645445	-0.912978	0.377304
O64	O	0.674138	-0.933025	0.328333
N65	N	0.611733	-0.941410	0.434928
C66	C	0.578006	-0.922921	0.492552
O67	O	0.549336	-0.951411	0.541572
C68	C	0.577956	-0.735246	0.492521
C69	C	0.611668	-0.706816	0.434886
C70	C	0.679102	-0.696872	0.319640
C71	C	0.679087	-0.649956	0.319629
C72	C	0.645363	-0.631469	0.377246
C73	C	0.611653	-0.659899	0.434875
C74	C	0.544232	-0.716758	0.550148
C75	C	0.544224	-0.669836	0.550137
C76	C	0.577935	-0.641405	0.492503
C77	C	0.577914	-0.594496	0.492480
N78	N	0.611627	-0.566064	0.434856
C79	C	0.645351	-0.584551	0.377239
C80	C	0.578035	-1.021452	0.492563
C81	C	0.578047	-1.068371	0.492570
C82	C	0.645486	-1.058425	0.377323
C83	C	0.645472	-1.011506	0.377312
C84	C	0.611747	-0.993020	0.434939
C85	C	0.645317	-0.486023	0.377218
C86	C	0.645298	-0.439103	0.377209
C87	C	0.577860	-0.449053	0.492459
C88	C	0.577878	-0.495969	0.492465
C89	C	0.611610	-0.514453	0.434842
O90	O	0.549239	-0.574419	0.541434
O91	O	0.674023	-0.556055	0.328240
C92	C	0.645407	-0.772219	0.377281
C93	C	0.611698	-0.800649	0.434910
C94	C	0.577974	-0.782162	0.492527
C95	C	0.611710	-0.847567	0.434917
C96	C	0.645434	-0.866054	0.377299
C97	C	0.679147	-0.837622	0.319675
C98	C	0.679132	-0.790705	0.319664
C99	C	0.544261	-0.810594	0.550151
C100	C	0.544279	-0.857510	0.550157
C101	C	0.578003	-0.875996	0.492540
C102	C	0.728817	-0.253992	0.434936
C103	C	0.778749	-0.254005	0.434968
C104	C	0.591376	-0.274199	0.670141
C105	C	0.582738	-0.282823	0.770404
C106	C	0.611733	-0.136789	0.434925
C107	C	0.611771	-0.086857	0.434953
C108	C	0.631862	-0.233772	0.200495
C109	C	0.640586	-0.225021	0.100232
C110	C	0.673397	-0.192248	1.053166
C111	C	0.681515	-0.184146	0.958964
C112	C	0.656821	-0.208815	0.911819
C113	C	0.624008	-0.241586	0.958886
C114	C	0.615892	-0.249691	1.053097
C115	C	0.599316	-0.266258	0.911751
C116	C	0.566503	-0.299030	0.958817
C117	C	0.558388	-0.307133	1.053019
C118	C	0.583082	-0.282465	1.100163
C119	C	0.607433	-0.258153	0.817539
C120	C	0.549928	-0.315596	0.817471
C121	C	0.541810	-0.323698	0.911672
H122	H	0.098011	-0.159044	0.272823
H123	H	0.550401	-0.433993	0.539368
H124	H	0.663433	-0.202216	0.835116
H125	H	0.706583	-0.767560	0.272733
H126	H	0.576473	-0.289059	1.176870
H127	H	0.706539	-0.626811	0.272701
H128	H	0.693501	-0.172169	1.091560
H129	H	0.672786	-0.501067	0.330298
C130	C	-0.213173	-0.183176	0.314035
H131	H	-0.189524	-0.163085	0.279743
H132	H	-0.228102	-0.196945	0.274672
H133	H	-0.234436	-0.166602	0.348622
H134	H	-0.225898	-0.315194	0.539437
C135	C	0.540795	-0.527243	0.555859
H136	H	0.520710	-0.509511	0.590175
H137	H	0.524216	-0.542604	0.521322
H138	H	0.554587	-0.548902	0.595212
C139	C	0.716200	-0.717200	0.256251
H140	H	0.736269	-0.693542	0.221929
H141	H	0.732794	-0.738452	0.290790
H142	H	0.702422	-0.732137	0.216904
C143	C	0.522763	-0.342731	0.765622
H144	H	0.532292	-0.333208	0.702776
H145	H	0.527983	-0.374245	0.781043
H146	H	0.491253	-0.337473	0.781045
H147	H	-0.122776	-0.192793	0.330467
C148	C	0.007619	-0.149416	0.256397
H149	H	0.031270	-0.129328	0.222108
H150	H	-0.007312	-0.163181	0.217031
H151	H	-0.013642	-0.132841	0.290986
H152	H	0.634149	-0.231469	0.779227
H153	H	0.550571	-1.006406	0.539491
C154	C	0.359237	-0.183109	0.313871
H155	H	0.382887	-0.163022	0.279577
H156	H	0.344304	-0.196877	0.274510
H157	H	0.337977	-0.166533	0.348460
H158	H	0.672923	-0.988360	0.330382
H159	H	0.449646	-0.192741	0.330301
C160	C	0.540961	-1.099638	0.555962
H161	H	0.520879	-1.081905	0.590279
H162	H	0.524380	-1.114995	0.521421
H163	H	0.554749	-1.121302	0.595313
H164	H	0.153654	-0.159038	0.272807
H165	H	0.708232	-0.157465	0.920649
C166	C	0.216120	-0.358503	0.613351
H167	H	0.248134	-0.353676	0.605096
H168	H	0.203223	-0.357194	0.673986
H169	H	0.209556	-0.387532	0.600028
C170	C	0.682581	-1.078766	0.313943
H171	H	0.677758	-1.110781	0.322210
H172	H	0.681254	-1.065880	0.253317
H173	H	0.711617	-1.072194	0.327219
C174	C	0.246892	-0.149392	0.256343
H175	H	0.277483	-0.154220	0.264595
H176	H	0.244414	-0.150702	0.195710
H177	H	0.238076	-0.120362	0.269665
H178	H	0.431630	-0.315128	0.539248
H179	H	0.531673	-0.333822	1.091338
H180	H	0.706605	-0.852681	0.272759
C181	C	0.505721	-0.359748	0.963452
H182	H	0.504428	-0.361043	1.026308
H183	H	0.476872	-0.351840	0.948000
H184	H	0.513606	-0.388607	0.948001
C185	C	0.075354	-0.358513	0.613430
H186	H	0.051701	-0.378594	0.647735
H187	H	0.096619	-0.375092	0.578865
H188	H	0.090281	-0.344737	0.652795
C189	C	-0.023165	-0.358507	0.613484
H190	H	-0.005427	-0.378586	0.647780
H191	H	-0.044832	-0.344722	0.652841
H192	H	-0.038517	-0.375096	0.578944
C193	C	-0.135486	-0.324821	0.555872
H194	H	-0.159135	-0.344909	0.590174
H195	H	-0.114219	-0.341394	0.521298
H196	H	-0.120562	-0.311045	0.595239
C197	C	0.682384	-0.407832	0.313813
H198	H	0.702473	-0.425566	0.279509
H199	H	0.668601	-0.386168	0.274464
H200	H	0.698964	-0.392478	0.348366
C201	C	0.338400	-0.324777	0.555725
H202	H	0.356142	-0.344864	0.589996
H203	H	0.316719	-0.311022	0.595107
H204	H	0.323064	-0.341352	0.521135
H205	H	0.125724	-0.348873	0.596934
H206	H	0.516779	-0.739898	0.597076
H207	H	0.516761	-0.654788	0.597066
C208	C	0.507194	-0.888778	0.613561
H209	H	0.487111	-0.871045	0.647878
H210	H	0.490612	-0.904138	0.579027
H211	H	0.520984	-0.910439	0.652913
H212	H	0.516799	-0.795546	0.597071
