data_functionalizedCrystal
_audit_creation_method	'MofGen! by Chris Wilmer'
_symmetry_space_group_name_H-M	'P1'
_symmetry_Int_Tables_number	1
_symmetry_cell_setting	triclinic
loop_
_symmetry_equiv_pos_as_xyz
  x,y,z
_cell_length_a	21.395364
_cell_length_b	29.839131
_cell_length_c	29.839109
_cell_angle_alpha	89.879167
_cell_angle_beta	89.927972
_cell_angle_gamma	90.037185
loop_
_atom_site_label
_atom_site_type_symbol
_atom_site_fract_x
_atom_site_fract_y
_atom_site_fract_z
Zn1	Zn	0.958106	-0.178510	-0.254009
Zn2	Zn	1.291440	0.154824	0.079324
Zn3	Zn	1.624773	0.488157	0.412658
Zn4	Zn	0.957902	-0.253757	-0.178879
Zn5	Zn	1.291236	0.079576	0.154455
Zn6	Zn	1.624569	0.412910	0.487788
Zn7	Zn	0.853235	-0.178636	-0.178891
Zn8	Zn	1.186568	0.154697	0.154442
Zn9	Zn	1.519901	0.488030	0.487776
Zn10	Zn	0.853271	-0.253608	-0.253980
Zn11	Zn	1.186604	0.079725	0.079353
Zn12	Zn	1.519938	0.413059	0.412687
O13	O	0.905629	-0.216128	-0.216440
O14	O	1.238962	0.117206	0.116894
O15	O	1.572295	0.450539	0.450227
O16	O	1.045757	-0.188501	-0.244050
O17	O	1.379091	0.144832	0.089284
O18	O	1.712424	0.478166	0.422617
O19	O	0.943917	-0.243907	-0.116013
O20	O	1.277251	0.089426	0.217320
O21	O	1.610584	0.422759	0.550654
O22	O	0.867216	-0.115752	-0.188873
O23	O	1.200549	0.217581	0.144460
O24	O	1.533883	0.550914	0.477794
O25	O	1.045607	-0.243785	-0.188852
O26	O	1.378941	0.089549	0.144482
O27	O	1.712274	0.422882	0.477815
O28	O	0.944265	-0.115659	-0.244062
O29	O	1.277598	0.217674	0.089272
O30	O	1.610932	0.551007	0.422605
O31	O	0.867018	-0.188717	-0.116022
O32	O	1.200352	0.144617	0.217311
O33	O	1.533685	0.477950	0.550645
O34	O	0.765561	-0.188572	-0.188845
O35	O	1.098895	0.144761	0.144488
O36	O	1.432228	0.478095	0.477822
O37	O	0.867278	-0.243531	-0.316851
O38	O	1.200612	0.089803	0.016482
O39	O	1.533945	0.423136	0.349815
O40	O	0.765588	-0.243653	-0.244013
O41	O	1.098922	0.089680	0.089321
O42	O	1.432255	0.423013	0.422654
O43	O	0.944301	-0.188356	-0.316873
O44	O	1.277634	0.144977	0.016461
O45	O	1.610967	0.478310	0.349794
O46	O	0.943953	-0.316604	-0.188824
O47	O	1.277286	0.016729	0.144510
O48	O	1.610619	0.350062	0.477843
O49	O	0.867081	-0.316495	-0.244000
O50	O	1.200414	0.016838	0.089333
O51	O	1.533747	0.350172	0.422666
C52	C	0.742841	-0.216111	-0.216427
C53	C	1.076174	0.117223	0.116906
C54	C	1.409508	0.450556	0.450239
C55	C	0.673200	-0.216114	-0.216432
C56	C	1.006533	0.117219	0.116901
C57	C	1.339866	0.450553	0.450234
C58	C	0.171481	-0.187409	-0.245234
C59	C	0.504814	0.145924	0.088099
C60	C	0.838148	0.479258	0.421432
C61	C	0.236916	-0.187406	-0.245234
C62	C	0.570250	0.145927	0.088099
C63	C	0.903583	0.479261	0.421432
C64	C	0.269561	-0.216141	-0.216450
C65	C	0.602895	0.117192	0.116884
C66	C	0.936228	0.450525	0.450217
C67	C	0.236766	-0.244891	-0.187671
C68	C	0.570099	0.088443	0.145662
C69	C	0.903432	0.421776	0.478995
C70	C	0.171331	-0.244896	-0.187675
C71	C	0.504665	0.088437	0.145658
C72	C	0.837998	0.421770	0.478991
C73	C	0.373150	-0.219691	-0.175961
C74	C	0.706483	0.113642	0.157372
C75	C	1.039817	0.446975	0.490705
C76	C	0.438583	-0.219683	-0.175956
C77	C	0.771916	0.113651	0.157377
C78	C	1.105250	0.446984	0.490710
C79	C	0.471382	-0.216127	-0.216437
C80	C	0.804716	0.117207	0.116896
C81	C	1.138049	0.450540	0.450229
C82	C	0.438740	-0.212570	-0.256925
C83	C	0.772074	0.120763	0.076409
C84	C	1.105407	0.454097	0.409742
C85	C	0.373306	-0.212576	-0.256929
C86	C	0.706639	0.120758	0.076405
C87	C	1.039973	0.454091	0.409738
C88	C	0.340514	-0.216139	-0.216442
C89	C	0.673847	0.117195	0.116891
C90	C	1.007180	0.450528	0.450224
C91	C	0.575123	-0.187378	-0.245216
C92	C	0.908456	0.145956	0.088117
C93	C	1.241789	0.479289	0.421451
C94	C	0.640559	-0.187378	-0.245217
C95	C	0.973893	0.145956	0.088117
C96	C	1.307226	0.479289	0.421450
C97	C	0.640407	-0.244860	-0.187650
C98	C	0.973741	0.088473	0.145684
C99	C	1.307074	0.421807	0.479017
C100	C	0.574972	-0.244863	-0.187653
C101	C	0.908305	0.088471	0.145680
C102	C	1.241638	0.421804	0.479014
C103	C	0.542334	-0.216119	-0.216436
C104	C	0.875667	0.117214	0.116898
C105	C	1.209000	0.450548	0.450231
C106	C	0.905515	-0.332850	-0.216417
C107	C	1.238849	0.000483	0.116916
C108	C	1.572182	0.333816	0.450249
C109	C	0.905524	-0.382785	-0.216423
C110	C	1.238858	-0.049451	0.116910
C111	C	1.572191	0.283882	0.450244
C112	C	0.945729	-0.692472	-0.187751
C113	C	1.279062	-0.359139	0.145582
C114	C	1.612396	-0.025806	0.478915
C115	C	0.945806	-0.880145	-0.187769
C116	C	1.279140	-0.546812	0.145565
C117	C	1.612473	-0.213479	0.478898
O118	O	0.979900	-0.904448	-0.163374
O119	O	1.313233	-0.571115	0.169960
O120	O	1.646566	-0.237781	0.503293
N121	N	0.905759	-0.903570	-0.216474
N122	N	1.239092	-0.570236	0.116860
N123	N	1.572425	-0.236903	0.450193
C124	C	0.865692	-0.880073	-0.245178
C125	C	1.199025	-0.546740	0.088155
C126	C	1.532358	-0.213406	0.421488
O127	O	0.831635	-0.904303	-0.269597
O128	O	1.164968	-0.570970	0.063736
O129	O	1.498302	-0.237636	0.397069
C130	C	0.865618	-0.692401	-0.245163
C131	C	1.198951	-0.359067	0.088170
C132	C	1.532285	-0.025734	0.421504
C133	C	0.905664	-0.668979	-0.216453
C134	C	1.238997	-0.335646	0.116881
C135	C	1.572330	-0.002312	0.450214
C136	C	0.985772	-0.669051	-0.159044
C137	C	1.319105	-0.335717	0.174290
C138	C	1.652439	-0.002384	0.507623
C139	C	0.985750	-0.622135	-0.159038
C140	C	1.319083	-0.288802	0.174295
C141	C	1.652416	0.044532	0.507629
C142	C	0.945685	-0.598642	-0.187740
C143	C	1.279018	-0.265308	0.145594
C144	C	1.612351	0.068025	0.478927
C145	C	0.905642	-0.622063	-0.216447
C146	C	1.238975	-0.288730	0.116886
C147	C	1.572308	0.044603	0.450220
C148	C	0.825555	-0.668905	-0.273870
C149	C	1.158888	-0.335571	0.059464
C150	C	1.492221	-0.002238	0.392797
C151	C	0.825541	-0.621984	-0.273864
C152	C	1.158874	-0.288650	0.059469
C153	C	1.492208	0.044683	0.392803
C154	C	0.865587	-0.598562	-0.245154
C155	C	1.198920	-0.265229	0.088180
C156	C	1.532253	0.068105	0.421513
C157	C	0.865554	-0.551654	-0.245143
C158	C	1.198888	-0.218321	0.088191
C159	C	1.532221	0.115012	0.421524
N160	N	0.905602	-0.528230	-0.216438
N161	N	1.238935	-0.194897	0.116896
N162	N	1.572269	0.138436	0.450229
C163	C	0.945667	-0.551724	-0.187736
C164	C	1.279000	-0.218390	0.145597
C165	C	1.612334	0.114943	0.478930
C166	C	0.865732	-0.978603	-0.245184
C167	C	1.199066	-0.645270	0.088150
C168	C	1.532399	-0.311937	0.421483
C169	C	0.865750	-1.025521	-0.245187
C170	C	1.199083	-0.692188	0.088146
C171	C	1.532416	-0.358855	0.421479
C172	C	0.945865	-1.025591	-0.187778
C173	C	1.279199	-0.692257	0.145555
C174	C	1.612532	-0.358924	0.478889
C175	C	0.945844	-0.978672	-0.187773
C176	C	1.279178	-0.645339	0.145561
C177	C	1.612511	-0.312005	0.478894
C178	C	0.905780	-0.955179	-0.216479
C179	C	1.239113	-0.621846	0.116854
C180	C	1.572447	-0.288513	0.450188
C181	C	0.945617	-0.453198	-0.187726
C182	C	1.278950	-0.119865	0.145607
C183	C	1.612284	0.213469	0.478941
C184	C	0.945590	-0.406278	-0.187721
C185	C	1.278923	-0.072945	0.145612
C186	C	1.612256	0.260388	0.478945
C187	C	0.865477	-0.406213	-0.245132
C188	C	1.198810	-0.072880	0.088201
C189	C	1.532143	0.260454	0.421535
C190	C	0.865502	-0.453129	-0.245135
C191	C	1.198835	-0.119795	0.088198
C192	C	1.532168	0.213538	0.421532
C193	C	0.905577	-0.476620	-0.216431
C194	C	1.238910	-0.143287	0.116903
C195	C	1.572244	0.190047	0.450236
O196	O	0.831484	-0.527323	-0.269528
O197	O	1.164817	-0.193990	0.063805
O198	O	1.498150	0.139344	0.397138
O199	O	0.979728	-0.527486	-0.163328
O200	O	1.313062	-0.194152	0.170005
O201	O	1.646395	0.139181	0.503339
C202	C	0.945751	-0.739388	-0.187757
C203	C	1.279084	-0.406055	0.145576
C204	C	1.612418	-0.072721	0.478910
C205	C	0.905708	-0.762810	-0.216464
C206	C	1.239041	-0.429476	0.116869
C207	C	1.572375	-0.096143	0.450202
C208	C	0.865643	-0.739316	-0.245166
C209	C	1.198976	-0.405983	0.088167
C210	C	1.532309	-0.072650	0.421501
C211	C	0.905726	-0.809728	-0.216468
C212	C	1.239059	-0.476394	0.116866
C213	C	1.572392	-0.143061	0.450199
C214	C	0.945791	-0.833221	-0.187766
C215	C	1.279124	-0.499888	0.145567
C216	C	1.612457	-0.166554	0.478901
C217	C	0.985838	-0.809797	-0.159061
C218	C	1.319172	-0.476464	0.174272
C219	C	1.652505	-0.143130	0.507605
C220	C	0.985816	-0.762881	-0.159055
C221	C	1.319150	-0.429548	0.174278
C222	C	1.652483	-0.096215	0.507611
C223	C	0.825595	-0.762740	-0.273871
C224	C	1.158929	-0.429407	0.059462
C225	C	1.492262	-0.096074	0.392796
C226	C	0.825620	-0.809656	-0.273874
C227	C	1.158953	-0.476323	0.059459
C228	C	1.492287	-0.142989	0.392793
C229	C	0.865685	-0.833150	-0.245172
C230	C	1.199019	-0.499816	0.088161
C231	C	1.532352	-0.166483	0.421494
C232	C	1.069052	-0.216145	-0.216453
C233	C	1.402385	0.117188	0.116881
C234	C	1.735719	0.450521	0.450214
C235	C	1.138693	-0.216153	-0.216458
C236	C	1.472026	0.117180	0.116875
C237	C	1.805360	0.450514	0.450209
C238	C	0.905816	-0.215913	-0.333618
C239	C	1.239150	0.117421	-0.000285
C240	C	1.572483	0.450754	0.333048
C241	C	0.905896	-0.215821	-0.383553
C242	C	1.239230	0.117512	-0.050220
C243	C	1.572563	0.450846	0.283114
C244	C	0.905759	-0.098949	-0.216472
C245	C	1.239093	0.234384	0.116861
C246	C	1.572426	0.567717	0.450195
C247	C	0.905815	-0.049015	-0.216486
C248	C	1.239148	0.284318	0.116848
C249	C	1.572482	0.617652	0.450181
C250	C	0.905478	-0.216310	-0.099717
C251	C	1.238811	0.117024	0.233617
C252	C	1.572144	0.450357	0.566950
C253	C	0.905519	-0.216275	-0.049782
C254	C	1.238852	0.117059	0.283551
C255	C	1.572186	0.450392	0.616884
C256	C	0.865871	-0.244995	0.259997
C257	C	1.199205	0.088338	0.593331
C258	C	1.532538	0.421672	0.926664
C259	C	0.865982	-0.244867	0.447670
C260	C	1.199315	0.088466	0.781004
C261	C	1.532649	0.421799	1.114337
O262	O	0.832122	-0.269444	0.472051
O263	O	1.165456	0.063889	0.805385
O264	O	1.498789	0.397223	1.138718
N265	N	0.905807	-0.215919	0.471002
N266	N	1.239140	0.117415	0.804335
N267	N	1.572474	0.450748	1.137669
C268	C	0.945604	-0.186997	0.447413
C269	C	1.278937	0.146336	0.780746
C270	C	1.612271	0.479669	1.114079
O271	O	0.979475	-0.162368	0.471564
O272	O	1.312809	0.170965	0.804897
O273	O	1.646142	0.504298	1.138230
C274	C	0.945490	-0.187123	0.259741
C275	C	1.278823	0.146210	0.593074
C276	C	1.612156	0.479544	0.926407
C277	C	0.905667	-0.216077	0.236411
C278	C	1.239000	0.117256	0.569745
C279	C	1.572333	0.450590	0.903078
C280	C	0.826051	-0.273946	0.236668
C281	C	1.159385	0.059387	0.570001
C282	C	1.492718	0.392720	0.903335
C283	C	0.826026	-0.273980	0.189753
C284	C	1.159360	0.059354	0.523086
C285	C	1.492693	0.392687	0.856419
C286	C	0.865822	-0.245062	0.166167
C287	C	1.199155	0.088272	0.499500
C288	C	1.532488	0.421605	0.832833
C289	C	0.905642	-0.216110	0.189496
C290	C	1.238975	0.117223	0.522829
C291	C	1.572308	0.450556	0.856163
C292	C	0.985283	-0.158200	0.236152
C293	C	1.318616	0.175133	0.569485
C294	C	1.651950	0.508467	0.902819
C295	C	0.985250	-0.158233	0.189231
C296	C	1.318583	0.175100	0.522564
C297	C	1.651916	0.508434	0.855898
C298	C	0.945427	-0.187187	0.165902
C299	C	1.278760	0.146146	0.499235
C300	C	1.612093	0.479480	0.832569
C301	C	0.945412	-0.187226	0.118994
C302	C	1.278746	0.146108	0.452328
C303	C	1.612079	0.479441	0.785661
N304	N	0.905587	-0.216175	0.095663
N305	N	1.238921	0.117159	0.428996
N306	N	1.572254	0.450492	0.762329
C307	C	0.865792	-0.245093	0.119249
C308	C	1.199125	0.088241	0.452582
C309	C	1.532459	0.421574	0.785916
C310	C	0.945662	-0.186934	0.545943
C311	C	1.278995	0.146399	0.879276
C312	C	1.612329	0.479733	1.212610
C313	C	0.945692	-0.186903	0.592861
C314	C	1.279025	0.146430	0.926194
C315	C	1.612358	0.479764	1.259527
C316	C	0.866069	-0.244773	0.593115
C317	C	1.199402	0.088561	0.926449
C318	C	1.532735	0.421894	1.259782
C319	C	0.866043	-0.244806	0.546197
C320	C	1.199376	0.088528	0.879530
C321	C	1.532710	0.421861	1.212863
C322	C	0.905837	-0.215883	0.522611
C323	C	1.239171	0.117450	0.855945
C324	C	1.572504	0.450784	1.189278
C325	C	0.865743	-0.245161	0.020723
C326	C	1.199077	0.088173	0.354057
C327	C	1.532410	0.421506	0.687390
C328	C	0.865724	-0.245193	-0.026196
C329	C	1.199057	0.088141	0.307137
C330	C	1.532391	0.421474	0.640470
C331	C	0.945344	-0.187322	-0.026447
C332	C	1.278677	0.146012	0.306887
C333	C	1.612011	0.479345	0.640220
C334	C	0.945366	-0.187291	0.020469
C335	C	1.278700	0.146042	0.353802
C336	C	1.612033	0.479376	0.687135
C337	C	0.905561	-0.216212	0.044053
C338	C	1.238894	0.117121	0.377386
C339	C	1.572227	0.450455	0.710719
O340	O	0.979249	-0.162659	0.094584
O341	O	1.312583	0.170675	0.427918
O342	O	1.645916	0.504008	0.761251
O343	O	0.831916	-0.269711	0.095090
O344	O	1.165249	0.063622	0.428423
O345	O	1.498583	0.396956	0.761756
C346	C	0.865896	-0.244962	0.306913
C347	C	1.199230	0.088372	0.640246
C348	C	1.532563	0.421705	0.973580
C349	C	0.905716	-0.216010	0.330242
C350	C	1.239050	0.117323	0.663575
C351	C	1.572383	0.450656	0.996909
C352	C	0.945512	-0.187092	0.306656
C353	C	1.278845	0.146241	0.639989
C354	C	1.612178	0.479574	0.973323
C355	C	0.905746	-0.215979	0.377160
C356	C	1.239079	0.117354	0.710493
C357	C	1.572413	0.450687	1.043827
C358	C	0.865951	-0.244897	0.400746
C359	C	1.199284	0.088436	0.734079
C360	C	1.532617	0.421769	1.067413
C361	C	0.826126	-0.273846	0.377414
C362	C	1.159459	0.059487	0.710748
C363	C	1.492792	0.392820	1.044081
C364	C	0.826101	-0.273880	0.330499
C365	C	1.159434	0.059454	0.663832
C366	C	1.492768	0.392787	0.997166
C367	C	0.985337	-0.158143	0.329988
C368	C	1.318670	0.175190	0.663321
C369	C	1.652003	0.508523	0.996654
C370	C	0.985359	-0.158113	0.376903
C371	C	1.318692	0.175220	0.710236
C372	C	1.652025	0.508554	1.043570
C373	C	0.945563	-0.187031	0.400489
C374	C	1.278897	0.146302	0.733823
C375	C	1.612230	0.479636	1.067156
H376	H	0.666986	-0.268261	-0.164216
H377	H	1.000319	0.065073	0.169117
H378	H	1.333653	0.398406	0.502450
H379	H	0.667254	-0.163972	-0.268653
H380	H	1.000588	0.169361	0.064680
H381	H	1.333921	0.502694	0.398013
H382	H	0.978453	-0.959605	-0.164395
H383	H	1.311787	-0.626271	0.168939
H384	H	1.645120	-0.292938	0.502272
N385	N	0.822304	-0.478394	-0.276095
N386	N	1.155637	-0.145061	0.057238
N387	N	1.488971	0.188273	0.390572
H388	H	0.796918	-0.456390	-0.294275
H389	H	1.130252	-0.123056	0.039059
H390	H	1.463585	0.210277	0.372392
H391	H	0.847828	-0.497794	-0.296906
H392	H	1.181162	-0.164460	0.036427
H393	H	1.514495	0.168873	0.369761
H394	H	1.017653	-0.134678	0.170030
H395	H	1.350986	0.198655	0.503364
H396	H	1.684320	0.531988	0.836697
H397	H	0.548276	-0.268267	-0.164218
H398	H	0.881609	0.065066	0.169115
H399	H	1.214942	0.398400	0.502448
N400	N	0.473787	-0.223511	-0.132290
N401	N	0.807121	0.109822	0.201043
N402	N	1.140454	0.443156	0.534376
H403	H	0.443082	-0.225769	-0.106647
H404	H	0.776415	0.107564	0.226686
H405	H	1.109748	0.440898	0.560020
H406	H	0.500921	-0.251188	-0.132885
H407	H	0.834254	0.082146	0.200448
H408	H	1.167588	0.415479	0.533782
H409	H	0.978200	-0.387210	-0.164341
H410	H	1.311533	-0.053876	0.168993
H411	H	1.644866	0.279457	0.502326
N412	N	1.028951	-0.596876	-0.128079
N413	N	1.362285	-0.263543	0.205255
N414	N	1.695618	0.069790	0.538588
H415	H	1.054336	-0.618885	-0.109902
H416	H	1.387669	-0.285551	0.223431
H417	H	1.721003	0.047782	0.556764
H418	H	1.057947	-0.577354	-0.146388
H419	H	1.391280	-0.244021	0.186945
H420	H	1.724614	0.089313	0.520279
N421	N	1.028989	-0.694386	-0.128085
N422	N	1.362323	-0.361052	0.205248
N423	N	1.695656	-0.027719	0.538582
H424	H	1.054350	-0.672422	-0.109902
H425	H	1.387683	-0.339089	0.223432
H426	H	1.721016	-0.005755	0.556765
H427	H	1.003483	-0.713913	-0.107277
H428	H	1.336817	-0.380579	0.226056
H429	H	1.670150	-0.047246	0.559390
H430	H	0.346732	-0.209681	-0.289895
H431	H	0.680065	0.123653	0.043439
H432	H	1.013398	0.456986	0.376772
N433	N	0.823130	-0.275951	0.618560
N434	N	1.156463	0.057382	0.951894
N435	N	1.489796	0.390716	1.285227
H436	H	0.797887	-0.294293	0.596665
H437	H	1.131221	0.039040	0.929998
H438	H	1.464554	0.372373	1.263332
H439	H	0.848819	-0.296601	0.638059
H440	H	1.182153	0.036732	0.971392
H441	H	1.515486	0.370066	1.304725
H442	H	0.465444	-0.209672	-0.289888
H443	H	0.798777	0.123662	0.043445
H444	H	1.132111	0.456995	0.376779
N445	N	0.822812	-0.276358	0.046150
N446	N	1.156145	0.056976	0.379484
N447	N	1.489478	0.390309	0.712817
H448	H	0.848469	-0.297035	0.065644
H449	H	1.181803	0.036298	0.398977
H450	H	1.515136	0.369632	0.732310
H451	H	0.793624	-0.258209	0.065574
H452	H	1.126957	0.075124	0.398907
H453	H	1.460290	0.408458	0.732240
N454	N	0.539914	-0.156380	-0.276260
N455	N	0.873247	0.176954	0.057074
N456	N	1.206581	0.510287	0.390407
H457	H	0.570617	-0.138172	-0.294493
H458	H	0.903950	0.195161	0.038840
H459	H	1.237284	0.528495	0.372174
H460	H	0.512788	-0.174662	-0.297018
H461	H	0.846121	0.158671	0.036316
H462	H	1.179455	0.492004	0.369649
H463	H	0.978488	-1.044727	-0.164408
H464	H	1.311822	-0.711394	0.168925
H465	H	1.645155	-0.378060	0.502259
N466	N	0.988324	-0.156069	0.045634
N467	N	1.321657	0.177265	0.378968
N468	N	1.654991	0.510598	0.712301
H469	H	1.013532	-0.137756	0.023571
H470	H	1.346865	0.195577	0.356905
H471	H	1.680199	0.528911	0.690238
H472	H	0.962643	-0.135393	0.065071
H473	H	1.295976	0.197940	0.398404
H474	H	1.629310	0.531273	0.731737
N475	N	1.028313	-0.126880	0.402061
N476	N	1.361646	0.206453	0.735395
N477	N	1.694980	0.539786	1.068728
H478	H	1.022295	-0.131243	0.435363
H479	H	1.355628	0.202090	0.768697
H480	H	1.688961	0.535423	1.102030
H481	H	1.073118	-0.133649	0.393825
H482	H	1.406452	0.199685	0.727159
H483	H	1.739785	0.533018	1.060492
N484	N	0.337777	-0.223531	-0.132297
N485	N	0.671110	0.109803	0.201036
N486	N	1.004443	0.443136	0.534369
H487	H	0.368382	-0.225779	-0.106649
H488	H	0.701716	0.107554	0.226684
H489	H	1.035049	0.440887	0.560017
H490	H	0.310639	-0.196162	-0.128176
H491	H	0.643973	0.137171	0.205157
H492	H	0.977306	0.470504	0.538491
H493	H	0.263349	-0.268289	-0.164236
H494	H	0.596683	0.065045	0.169097
H495	H	0.930016	0.398378	0.502431
N496	N	0.135963	-0.275899	-0.156636
N497	N	0.469296	0.057434	0.176697
N498	N	0.802629	0.390767	0.510030
H499	H	0.166569	-0.294105	-0.138401
H500	H	0.499903	0.039229	0.194932
H501	H	0.833236	0.372562	0.528265
H502	H	0.108790	-0.257620	-0.135880
H503	H	0.442124	0.075713	0.197453
H504	H	0.775457	0.409047	0.530787
H505	H	0.792970	-0.743616	-0.297244
H506	H	1.126303	-0.410282	0.036090
H507	H	1.459637	-0.076949	0.369423
N508	N	0.823078	-0.276030	0.521043
N509	N	1.156412	0.057304	0.854376
N510	N	1.489745	0.390637	1.187709
H511	H	0.793864	-0.257932	0.501565
H512	H	1.127198	0.075401	0.834899
H513	H	1.460531	0.408734	1.168232
H514	H	0.848749	-0.296730	0.501625
H515	H	1.182082	0.036604	0.834959
H516	H	1.515416	0.369937	1.168292
N517	N	0.988594	-0.155737	0.520515
N518	N	1.321927	0.177596	0.853848
N519	N	1.655261	0.510930	1.187181
H520	H	1.017785	-0.173856	0.501063
H521	H	1.351118	0.159478	0.834396
H522	H	1.684452	0.492811	1.167730
H523	H	0.962896	-0.135062	0.501049
H524	H	1.296229	0.198272	0.834382
H525	H	1.629562	0.531605	1.167716
N526	N	0.782428	-0.834918	-0.304843
N527	N	1.115762	-0.501585	0.028491
N528	N	1.449095	-0.168251	0.361824
H529	H	0.753390	-0.854447	-0.286573
H530	H	1.086723	-0.521113	0.046761
H531	H	1.420057	-0.187780	0.380094
H532	H	0.757088	-0.812885	-0.323018
H533	H	1.090422	-0.479551	0.010315
H534	H	1.423755	-0.146218	0.343648
N535	N	0.988840	-0.478531	-0.156767
N536	N	1.322174	-0.145198	0.176566
N537	N	1.655507	0.188136	0.509899
H538	H	1.014200	-0.456568	-0.138582
H539	H	1.347533	-0.123235	0.194751
H540	H	1.680867	0.210098	0.528084
H541	H	0.963336	-0.498061	-0.135961
H542	H	1.296670	-0.164727	0.197373
H543	H	1.630003	0.168606	0.530706
H544	H	0.833295	-0.268772	-0.045189
H545	H	1.166628	0.064561	0.288144
H546	H	1.499962	0.397894	0.621478
N547	N	0.822547	-1.050781	-0.276145
N548	N	1.155881	-0.717448	0.057188
N549	N	1.489214	-0.384114	0.390522
H550	H	0.797166	-1.028774	-0.294325
H551	H	1.130499	-0.695441	0.039008
H552	H	1.463833	-0.362108	0.372341
H553	H	0.848064	-1.070186	-0.296956
H554	H	1.181398	-0.736852	0.036377
H555	H	1.514731	-0.403519	0.369711
H556	H	0.793597	-0.297556	0.170762
H557	H	1.126930	0.035778	0.504096
H558	H	1.460263	0.369111	0.837429
N559	N	1.029047	-0.835141	-0.128100
N560	N	1.362380	-0.501808	0.205233
N561	N	1.695713	-0.168474	0.538567
H562	H	1.022978	-0.868416	-0.132462
H563	H	1.356312	-0.535083	0.200871
H564	H	1.689645	-0.201750	0.534204
H565	H	1.073796	-0.826897	-0.135119
H566	H	1.407129	-0.493564	0.198214
H567	H	1.740463	-0.160230	0.531547
N568	N	0.822514	-0.953268	-0.276145
N569	N	1.155848	-0.619935	0.057188
N570	N	1.489181	-0.286601	0.390521
H571	H	0.797149	-0.975230	-0.294326
H572	H	1.130482	-0.641897	0.039007
H573	H	1.463815	-0.308564	0.372341
H574	H	0.793502	-0.933862	-0.257837
H575	H	1.126835	-0.600529	0.075497
H576	H	1.460168	-0.267195	0.408830
H577	H	0.792942	-0.687967	-0.297246
H578	H	1.126275	-0.354633	0.036087
H579	H	1.459609	-0.021300	0.369420
N580	N	0.782329	-0.596645	-0.304827
N581	N	1.115663	-0.263312	0.028506
N582	N	1.448996	0.070021	0.361839
H583	H	0.756966	-0.618605	-0.323013
H584	H	1.090300	-0.285272	0.010320
H585	H	1.423633	0.048061	0.343653
H586	H	0.753314	-0.577240	-0.286521
H587	H	1.086647	-0.243906	0.046812
H588	H	1.419980	0.089427	0.380146
N589	N	0.783114	-0.305131	0.262103
N590	N	1.116447	0.028203	0.595436
N591	N	1.449781	0.361536	0.928770
H592	H	0.757884	-0.323470	0.240198
H593	H	1.091217	0.009863	0.573531
H594	H	1.424551	0.343196	0.906865
H595	H	0.808805	-0.325783	0.281598
H596	H	1.142139	0.007551	0.614931
H597	H	1.475472	0.340884	0.948265
H598	H	0.832854	-0.387077	-0.268499
H599	H	1.166187	-0.053744	0.064834
H600	H	1.499521	0.279589	0.398167
H601	H	1.017743	-0.134594	0.310789
H602	H	1.351076	0.198739	0.644122
H603	H	1.684410	0.532072	0.977455
H604	H	0.144911	-0.164006	-0.268673
H605	H	0.478244	0.169328	0.064660
H606	H	0.811578	0.502661	0.397993
N607	N	1.029012	-0.737623	-0.128092
N608	N	1.362346	-0.404289	0.205241
N609	N	1.695679	-0.070956	0.538575
H610	H	1.054395	-0.759631	-0.109914
H611	H	1.387728	-0.426298	0.223419
H612	H	1.721062	-0.092964	0.556752
H613	H	1.058010	-0.718098	-0.146397
H614	H	1.391343	-0.384765	0.186936
H615	H	1.724677	-0.051431	0.520269
N616	N	0.988653	-0.155681	0.618021
N617	N	1.321986	0.177652	0.951354
N618	N	1.655319	0.510986	1.284687
H619	H	1.013855	-0.137367	0.595955
H620	H	1.347189	0.195966	0.929289
H621	H	1.680522	0.529299	1.262622
H622	H	0.962976	-0.135007	0.637461
H623	H	1.296309	0.198327	0.970794
H624	H	1.629643	0.531660	1.304128
N625	N	1.028236	-0.126971	0.261307
N626	N	1.361569	0.206362	0.594640
N627	N	1.694902	0.539696	0.927973
H628	H	1.053435	-0.108657	0.239239
H629	H	1.386768	0.224676	0.572572
H630	H	1.720101	0.558009	0.905906
H631	H	1.002556	-0.106297	0.280745
H632	H	1.335889	0.227037	0.614079
H633	H	1.669223	0.560370	0.947412
H634	H	0.977746	-0.163779	-0.045659
H635	H	1.311080	0.169555	0.287674
H636	H	1.644413	0.502888	0.621008
H637	H	0.793673	-0.297457	0.311508
H638	H	1.127006	0.035876	0.644842
H639	H	1.460339	0.369210	0.978175
H640	H	0.793725	-0.297394	0.396626
H641	H	1.127059	0.035939	0.729960
H642	H	1.460392	0.369273	1.063293
H643	H	0.263618	-0.163997	-0.268667
H644	H	0.596951	0.169336	0.064666
H645	H	0.930284	0.502669	0.398000
