data_functionalizedCrystal
_audit_creation_method	'MofGen! by Chris Wilmer'
_symmetry_space_group_name_H-M	'P1'
_symmetry_Int_Tables_number	1
_symmetry_cell_setting	triclinic
loop_
_symmetry_equiv_pos_as_xyz
  x,y,z
_cell_length_a	15.944499
_cell_length_b	11.792241
_cell_length_c	10.868271
_cell_angle_alpha	89.999844
_cell_angle_beta	89.998169
_cell_angle_gamma	96.164488
loop_
_atom_site_label
_atom_site_type_symbol
_atom_site_fract_x
_atom_site_fract_y
_atom_site_fract_z
O1	O	0.115126	-1.505932	0.102193
O2	O	0.126992	-1.175490	0.102221
O3	O	-0.001178	-1.349765	0.102208
O4	O	0.243296	-1.331657	0.102206
O5	O	-0.001174	-1.349749	-0.102436
O6	O	0.126996	-1.175474	-0.102424
O7	O	0.115130	-1.505916	-0.102451
Zn8	Zn	0.121064	-1.340693	-0.134929
Zn9	Zn	0.121058	-1.340713	0.134699
O10	O	0.243300	-1.331641	-0.102439
C11	C	0.126248	-1.133197	-0.000098
C12	C	0.124017	-1.007203	-0.000087
C13	C	-0.032474	-1.349016	-0.000111
C14	C	-0.125732	-1.346793	-0.000101
C15	C	0.115874	-1.548208	-0.000130
C16	C	0.118104	-1.674203	-0.000133
C17	C	-0.416811	-1.448042	-0.000116
C18	C	-0.356022	-1.395403	-0.101017
C19	C	-0.461405	-1.338718	-0.000115
C20	C	-0.356032	-1.395389	0.100747
C21	C	-0.296479	-1.342691	-0.000106
C22	C	-0.401844	-1.286048	-0.101099
C23	C	-0.401861	-1.286049	0.100756
C24	C	-0.341089	-1.233330	-0.000170
C25	C	-0.556416	-1.336432	-0.000121
C26	C	-0.201469	-1.344969	-0.000109
C27	C	0.274596	-1.332390	-0.000117
C28	C	0.367854	-1.334613	-0.000118
N29	N	0.121067	-1.340687	-0.318943
C30	C	0.119915	-0.776525	-0.000122
C31	C	0.122195	-0.904891	-0.000103
C32	C	0.121067	-1.340695	-0.430281
C33	C	0.121059	-1.340710	-0.569959
N34	N	0.121048	-1.340728	0.318713
H35	H	-0.449732	-1.538771	-0.000221
H36	H	-0.422183	-1.239853	0.186069
H37	H	-0.335721	-1.441637	-0.186326
H38	H	-0.422032	-1.239839	-0.186491
H39	H	-0.308316	-1.142523	-0.000221
H40	H	-0.335745	-1.441655	0.186042
