data_functionalizedCrystal
_audit_creation_method	'MofGen! by Chris Wilmer'
_symmetry_space_group_name_H-M	'P1'
_symmetry_Int_Tables_number	1
_symmetry_cell_setting	triclinic
loop_
_symmetry_equiv_pos_as_xyz
  x,y,z
_cell_length_a	16.959455
_cell_length_b	21.295418
_cell_length_c	16.959447
_cell_angle_alpha	90.033505
_cell_angle_beta	90.020374
_cell_angle_gamma	90.024419
loop_
_atom_site_label
_atom_site_type_symbol
_atom_site_fract_x
_atom_site_fract_y
_atom_site_fract_z
Zn1	Zn	1.208344	-0.250647	0.447019
Zn2	Zn	1.208249	-0.355924	0.314833
Zn3	Zn	1.076172	-0.250667	0.314842
Zn4	Zn	1.076120	-0.355877	0.446958
O5	O	1.142221	-0.303278	0.380913
O6	O	1.318942	-0.264623	0.429506
O7	O	1.190711	-0.341989	0.204223
O8	O	1.093766	-0.162575	0.332405
O9	O	1.318873	-0.341970	0.332389
O10	O	1.190872	-0.162560	0.429515
O11	O	1.093675	-0.264657	0.204230
O12	O	0.965554	-0.264612	0.332346
O13	O	1.093677	-0.341890	0.557577
O14	O	0.965516	-0.341909	0.429410
O15	O	1.190821	-0.264578	0.557622
O16	O	1.190661	-0.444007	0.332330
O17	O	1.093586	-0.443972	0.429401
C18	C	0.936855	-0.303258	0.380873
C19	C	0.848998	-0.303264	0.380875
C20	C	0.477476	-0.343513	0.330319
C21	C	0.477569	-0.263096	0.431603
C22	C	0.560115	-0.263086	0.431584
C23	C	0.601345	-0.303290	0.380932
C24	C	0.560029	-0.343505	0.330299
C25	C	0.601437	-0.222876	0.482222
C26	C	0.683988	-0.222865	0.482205
C27	C	0.725220	-0.263067	0.431549
C28	C	0.683899	-0.303282	0.380913
C29	C	0.725129	-0.343487	0.330261
C30	C	0.683809	-0.383700	0.279621
C31	C	0.601261	-0.383707	0.279643
C32	C	0.807768	-0.263060	0.431527
C33	C	0.807682	-0.343479	0.330242
C34	C	1.142129	-0.466830	0.380875
C35	C	1.142161	-0.536798	0.380885
C36	C	1.192958	-1.036253	0.330495
C37	C	1.192928	-0.970511	0.330477
C38	C	1.142332	-0.937637	0.380968
C39	C	1.091749	-0.970512	0.431468
C40	C	1.091775	-1.036254	0.431480
N41	N	1.136183	-0.834381	0.450134
N42	N	1.136163	-0.771930	0.450120
C43	C	1.142250	-0.739563	0.380935
N44	N	1.148374	-0.772006	0.311762
N45	N	1.148398	-0.834464	0.311776
C46	C	1.142298	-0.866352	0.380961
C47	C	1.192794	-0.635410	0.330414
C48	C	1.192758	-0.569667	0.330394
C49	C	1.091584	-0.569670	0.431393
C50	C	1.091615	-0.635412	0.431406
C51	C	1.142224	-0.668279	0.380918
C52	C	1.348389	-0.303299	0.380953
C53	C	1.436246	-0.303308	0.380971
C54	C	1.142254	-0.303226	0.587081
C55	C	1.142268	-0.303204	0.674938
C56	C	1.142336	-0.139088	0.380968
C57	C	1.142384	-0.069120	0.380992
C58	C	1.142234	-0.303285	0.175547
C59	C	1.142373	-0.303130	0.087691
C60	C	1.091784	-0.343390	1.046393
C61	C	1.192941	-0.262885	1.046435
C62	C	1.192920	-0.262898	0.963889
C63	C	1.142331	-0.303159	0.922591
C64	C	1.091763	-0.343406	0.963839
C65	C	1.243493	-0.222656	0.922634
C66	C	1.243474	-0.222668	0.840083
C67	C	1.192881	-0.262926	0.798784
C68	C	1.142310	-0.303175	0.840037
C69	C	1.091721	-0.343436	0.798740
C70	C	1.041146	-0.383681	0.839991
C71	C	1.041169	-0.383664	0.922540
C72	C	1.192857	-0.262943	0.716236
C73	C	1.091700	-0.343451	0.716186
H74	H	0.717390	-0.416437	0.238385
H75	H	0.567611	-0.416446	0.238414
H76	H	0.841246	-0.376216	0.288992
H77	H	1.050592	-1.063014	0.472603
C78	C	0.452241	-0.232573	0.565524
C79	C	0.432248	-0.218910	0.487281
H80	H	0.424255	-0.205295	0.599897
H81	H	0.507310	-0.226806	0.572754
H82	H	0.438705	-0.274884	0.576987
H83	H	0.445790	-0.176600	0.475816
H84	H	0.377167	-0.224671	0.480048
H85	H	1.234165	-1.063009	0.289381
H86	H	1.284685	-0.189882	0.956265
C87	C	1.343463	-0.143085	0.848426
C88	C	1.299058	-0.178426	0.794743
H89	H	1.377772	-0.115768	0.820432
H90	H	1.373690	-0.170509	0.880608
H91	H	1.309041	-0.119001	0.880636
H92	H	1.333480	-0.202513	0.762537
H93	H	1.268829	-0.150998	0.762548
H94	H	1.234037	-0.230178	0.682652
H95	H	0.567862	-0.190148	0.523465
C96	C	0.350899	-0.379235	0.285367
C97	C	0.432062	-0.387716	0.274659
H98	H	0.322864	-0.406528	0.251008
H99	H	0.337385	-0.336935	0.273895
H100	H	0.337403	-0.388502	0.338459
H101	H	0.445560	-0.378444	0.221568
H102	H	0.445581	-0.430025	0.286125
C103	C	0.675780	-0.143370	0.582318
C104	C	0.729403	-0.178658	0.537858
H105	H	0.703820	-0.116075	0.616670
H106	H	0.643597	-0.170830	0.612501
H107	H	0.643566	-0.119267	0.547933
H108	H	0.761613	-0.202765	0.572244
H109	H	0.761599	-0.151195	0.507673
H110	H	1.234112	-0.943745	0.289355
C111	C	1.080673	-0.896530	0.537773
C112	C	1.036137	-0.934381	0.486973
H113	H	1.046337	-0.874228	0.572042
H114	H	1.110782	-0.867548	0.507694
H115	H	1.115097	-0.922148	0.568045
H116	H	1.001718	-0.908762	0.456697
H117	H	1.006015	-0.963366	0.517055
C118	C	0.900667	-0.254420	0.537847
C119	C	0.853188	-0.218865	0.487186
H120	H	0.928703	-0.227133	0.572213
H121	H	0.937032	-0.278353	0.507674
H122	H	0.868464	-0.281879	0.568022
H123	H	0.885392	-0.191408	0.457007
H124	H	0.816819	-0.194920	0.517363
C125	C	0.957705	-0.549488	0.469747
C126	C	1.035965	-0.533542	0.486891
H127	H	0.923367	-0.527178	0.504006
H128	H	0.950489	-0.593340	0.476987
H129	H	0.946182	-0.538750	0.416621
H130	H	1.047490	-0.544284	0.540016
H131	H	1.043184	-0.489680	0.479658
H132	H	1.234002	-0.662172	0.289303
H133	H	1.233938	-0.542906	0.289270
C134	C	1.204006	-0.178199	1.139307
C135	C	1.248548	-0.218634	1.091828
H136	H	1.238338	-0.150877	1.167329
H137	H	1.173901	-0.202168	1.175684
H138	H	1.169579	-0.154123	1.107105
H139	H	1.282972	-0.242714	1.124031
H140	H	1.278666	-0.194663	1.055447
C141	C	1.030101	-0.468366	0.747112
C142	C	0.985545	-0.427936	0.794584
H143	H	0.995776	-0.495683	0.719073
H144	H	1.064515	-0.492443	0.779315
H145	H	1.060219	-0.444390	0.710743
H146	H	0.955431	-0.451912	0.830957
H147	H	0.951117	-0.403857	0.762378
C148	C	1.053037	-0.655599	0.565216
C149	C	1.036032	-0.671544	0.486923
H150	H	1.018722	-0.677908	0.599489
H151	H	1.045777	-0.611747	0.572429
H152	H	1.106144	-0.666338	0.576830
H153	H	0.982926	-0.660801	0.475307
H154	H	1.043285	-0.715406	0.479707
C155	C	1.080640	-0.428143	0.623315
C156	C	1.036093	-0.387708	0.670789
H157	H	1.046310	-0.455462	0.595285
H158	H	1.115058	-0.452218	0.655515
H159	H	1.110753	-0.404171	0.586938
H160	H	1.005984	-0.411680	0.707170
H161	H	1.001661	-0.363630	0.638586
H162	H	0.999996	-0.416432	0.956134
H163	H	1.050605	-0.376156	1.079984
