data_functionalizedCrystal
_audit_creation_method	'MofGen! by Chris Wilmer'
_symmetry_space_group_name_H-M	'P1'
_symmetry_Int_Tables_number	1
_symmetry_cell_setting	triclinic
loop_
_symmetry_equiv_pos_as_xyz
  x,y,z
_cell_length_a	12.827893
_cell_length_b	12.827892
_cell_length_c	10.686551
_cell_angle_alpha	85.594922
_cell_angle_beta	85.605088
_cell_angle_gamma	90.015363
loop_
_atom_site_label
_atom_site_type_symbol
_atom_site_fract_x
_atom_site_fract_y
_atom_site_fract_z
Zn1	Zn	1.643030	-0.370628	-0.713447
Zn2	Zn	2.143030	0.129372	-0.213447
Zn3	Zn	1.629509	-0.558819	-0.502448
Zn4	Zn	2.129509	-0.058819	-0.002448
Zn5	Zn	1.454858	-0.384091	-0.502465
Zn6	Zn	1.954858	0.115909	-0.002465
Zn7	Zn	1.468254	-0.545330	-0.713400
Zn8	Zn	1.968254	-0.045330	-0.213400
O9	O	1.548913	-0.464717	-0.607940
O10	O	2.048913	0.035283	-0.107940
O11	O	1.787474	-0.395602	-0.685470
O12	O	2.287474	0.104398	-0.185470
O13	O	1.595076	-0.546920	-0.325869
O14	O	2.095076	-0.046920	0.174131
O15	O	1.479871	-0.236067	-0.530479
O16	O	1.979871	0.263933	-0.030479
O17	O	1.777540	-0.533865	-0.530450
O18	O	2.277540	-0.033865	-0.030450
O19	O	1.618121	-0.226176	-0.685487
O20	O	2.118121	0.273824	-0.185487
O21	O	1.466760	-0.418549	-0.325881
O22	O	1.966760	0.081451	0.174119
O23	O	1.310398	-0.405469	-0.530433
O24	O	1.810398	0.094531	-0.030433
O25	O	1.502704	-0.510876	-0.889987
O26	O	2.002704	-0.010876	-0.389987
O27	O	1.320240	-0.523931	-0.685406
O28	O	1.820240	-0.023931	-0.185406
O29	O	1.631111	-0.382523	-0.890022
O30	O	2.131111	0.117477	-0.390022
O31	O	1.608066	-0.703267	-0.530404
O32	O	2.108066	-0.203267	-0.030404
O33	O	1.489593	-0.693357	-0.685390
O34	O	1.989593	-0.193357	-0.185390
C35	C	1.277402	-0.464698	-0.607917
C36	C	1.777402	0.035302	-0.107917
C37	C	1.161250	-0.464713	-0.607937
C38	C	1.661250	0.035287	-0.107937
C39	C	1.548846	-0.736228	-0.607918
C40	C	2.048846	-0.236228	-0.107918
C41	C	1.548916	-0.852379	-0.607950
C42	C	2.048916	-0.352379	-0.107950
C43	C	0.994345	-0.396419	-0.684785
C44	C	1.494345	0.103581	-0.184785
C45	C	1.114394	-0.396402	-0.684766
C46	C	1.614394	0.103598	-0.184766
C47	C	1.607621	-0.909028	-0.531344
C48	C	2.107621	-0.409028	-0.031344
C49	C	1.607694	-1.029076	-0.531376
C50	C	2.107694	-0.529076	-0.031376
C51	C	1.821485	-0.464736	-0.607964
C52	C	2.321485	0.035264	-0.107964
C53	C	1.937638	-0.464745	-0.607974
C54	C	2.437638	0.035255	-0.107974
C55	C	1.569910	-0.443693	-0.937070
C56	C	2.069910	0.056307	-0.437070
C57	C	1.578858	-0.434734	-1.077326
C58	C	2.078858	0.065266	-0.577326
C59	C	1.549010	-0.192144	-0.607990
C60	C	2.049010	0.307856	-0.107990
C61	C	1.549052	-0.075989	-0.608011
C62	C	2.049052	0.424011	-0.108011
C63	C	1.528058	-0.485584	-0.280090
C64	C	2.028058	0.014416	0.219910
C65	C	1.519312	-0.494248	-0.139835
C66	C	2.019312	0.005752	0.360165
H67	H	1.163141	-0.337901	-0.750520
H68	H	1.663141	0.162099	-0.250520
H69	H	0.954018	-0.337939	-0.750564
H70	H	1.454018	0.162061	-0.250564
H71	H	0.977966	-0.523233	-0.542206
H72	H	1.477966	-0.023233	-0.042206
H73	H	1.498785	-1.027299	-0.673596
H74	H	1.998785	-0.527299	-0.173596
O75	O	1.674154	-0.855559	-0.444455
O76	O	2.174154	-0.355559	0.055545
H77	H	1.663663	-0.769658	-0.458073
H78	H	2.163663	-0.269658	0.041927
H79	H	1.112509	-0.523211	-0.542171
H80	H	1.612509	-0.023211	-0.042171
O81	O	1.655446	-0.358135	-1.148559
O82	O	2.155446	0.141865	-0.648559
H83	H	1.650681	-0.362865	-1.251239
H84	H	2.150681	0.137135	-0.751239
H85	H	1.657951	-1.077774	-0.465786
H86	H	2.157951	-0.577774	0.034214
O87	O	1.482400	-0.905855	-0.694850
O88	O	1.982400	-0.405855	-0.194850
H89	H	1.533294	-0.951431	-0.759054
H90	H	2.033294	-0.451431	-0.259054
O91	O	1.442706	-0.570821	-1.068608
O92	O	1.942706	-0.070821	-0.568608
H93	H	1.447455	-0.566071	-0.965928
H94	H	1.947455	-0.066071	-0.465928
