data_functionalizedCrystal
_audit_creation_method	'MofGen! by Chris Wilmer'
_symmetry_space_group_name_H-M	'P1'
_symmetry_Int_Tables_number	1
_symmetry_cell_setting	triclinic
loop_
_symmetry_equiv_pos_as_xyz
  x,y,z
_cell_length_a	16.625548
_cell_length_b	29.839131
_cell_length_c	16.625539
_cell_angle_alpha	90.032094
_cell_angle_beta	90.020568
_cell_angle_gamma	90.042488
loop_
_atom_site_label
_atom_site_type_symbol
_atom_site_fract_x
_atom_site_fract_y
_atom_site_fract_z
Zn1	Zn	1.232574	-0.178840	0.455888
Zn2	Zn	1.565908	0.154494	0.789221
Zn3	Zn	1.899241	0.487827	1.122555
Zn4	Zn	1.232433	-0.253971	0.321046
Zn5	Zn	1.565766	0.079363	0.654380
Zn6	Zn	1.899100	0.412696	0.987713
Zn7	Zn	1.097736	-0.178857	0.321069
Zn8	Zn	1.431069	0.154476	0.654402
Zn9	Zn	1.764403	0.487810	0.987735
Zn10	Zn	1.097662	-0.253945	0.455836
Zn11	Zn	1.430995	0.079388	0.789170
Zn12	Zn	1.764329	0.412722	1.122503
O13	O	1.165101	-0.216403	0.388460
O14	O	1.498435	0.116930	0.721793
O15	O	1.831768	0.450264	1.055126
O16	O	1.345388	-0.188810	0.438013
O17	O	1.678721	0.144524	0.771347
O18	O	2.012055	0.477857	1.104680
O19	O	1.214537	-0.244025	0.208217
O20	O	1.547870	0.089309	0.541550
O21	O	1.881204	0.422642	0.874884
O22	O	1.115713	-0.115987	0.338984
O23	O	1.449046	0.217346	0.672317
O24	O	1.782380	0.550679	1.005650
O25	O	1.345284	-0.244008	0.338946
O26	O	1.678617	0.089325	0.672279
O27	O	2.011951	0.422659	1.005612
O28	O	1.214778	-0.115975	0.438035
O29	O	1.548111	0.217358	0.771368
O30	O	1.881445	0.550692	1.104702
O31	O	1.115576	-0.188839	0.208233
O32	O	1.448909	0.144495	0.541567
O33	O	1.782242	0.477828	0.874900
O34	O	0.984894	-0.188814	0.338933
O35	O	1.318227	0.144520	0.672267
O36	O	1.651561	0.477853	1.005600
O37	O	1.115586	-0.243964	0.568676
O38	O	1.448920	0.089369	0.902009
O39	O	1.782253	0.422703	1.235342
O40	O	0.984839	-0.243981	0.437947
O41	O	1.318173	0.089353	0.771280
O42	O	1.651506	0.422686	1.104613
O43	O	1.214706	-0.188785	0.568714
O44	O	1.548039	0.144549	0.902047
O45	O	1.881373	0.477882	1.235380
O46	O	1.214465	-0.316834	0.338896
O47	O	1.547798	0.016499	0.672229
O48	O	1.881132	0.349832	1.005562
O49	O	1.115449	-0.316815	0.437925
O50	O	1.448783	0.016518	0.771258
O51	O	1.782116	0.349851	1.104592
C52	C	0.955610	-0.216397	0.388437
C53	C	1.288944	0.116937	0.721771
C54	C	1.622277	0.450270	1.055104
C55	C	0.865989	-0.216405	0.388447
C56	C	1.199323	0.116929	0.721780
C57	C	1.532656	0.450262	1.055113
C58	C	0.537814	-0.216408	0.388481
C59	C	0.871147	0.116926	0.721815
C60	C	1.204480	0.450259	1.055148
C61	C	0.629122	-0.216406	0.388469
C62	C	0.962455	0.116928	0.721802
C63	C	1.295789	0.450261	1.055136
C64	C	0.701899	-0.216406	0.388463
C65	C	1.035232	0.116927	0.721797
C66	C	1.368565	0.450260	1.055130
C67	C	0.793213	-0.216404	0.388452
C68	C	1.126546	0.116929	0.721786
C69	C	1.459880	0.450263	1.055119
C70	C	1.164956	-0.333126	0.388420
C71	C	1.498289	0.000208	0.721753
C72	C	1.831622	0.333541	1.055087
C73	C	1.164967	-0.383060	0.388430
C74	C	1.498301	-0.049727	0.721763
C75	C	1.831634	0.283607	1.055096
C76	C	1.216752	-0.692701	0.336971
C77	C	1.550086	-0.359367	0.670304
C78	C	1.883419	-0.026034	1.003637
C79	C	1.216852	-0.880374	0.337002
C80	C	1.550185	-0.547040	0.670335
C81	C	1.883519	-0.213707	1.003668
O82	O	1.260766	-0.904636	0.293219
O83	O	1.594100	-0.571303	0.626552
O84	O	1.927433	-0.237969	0.959885
N85	N	1.165268	-0.903845	0.388521
N86	N	1.498602	-0.570512	0.721854
N87	N	1.831935	-0.237178	1.055187
C88	C	1.113660	-0.880395	0.440039
C89	C	1.446993	-0.547062	0.773372
C90	C	1.780327	-0.213729	1.106706
O91	O	1.069793	-0.904665	0.483866
O92	O	1.403127	-0.571332	0.817199
O93	O	1.736460	-0.237999	1.150532
C94	C	1.113565	-0.692723	0.440011
C95	C	1.446899	-0.359390	0.773345
C96	C	1.780232	-0.026056	1.106678
C97	C	1.165146	-0.669254	0.388483
C98	C	1.498480	-0.335921	0.721817
C99	C	1.831813	-0.002588	1.055150
C100	C	1.268330	-0.669232	0.285447
C101	C	1.601663	-0.335898	0.618781
C102	C	1.934997	-0.002565	0.952114
C103	C	1.268302	-0.622316	0.285437
C104	C	1.601635	-0.288983	0.618770
C105	C	1.934968	0.044351	0.952104
C106	C	1.216695	-0.598870	0.336950
C107	C	1.550029	-0.265536	0.670283
C108	C	1.883362	0.067797	1.003616
C109	C	1.165118	-0.622339	0.388473
C110	C	1.498451	-0.289005	0.721806
C111	C	1.831785	0.044328	1.055140
C112	C	1.061962	-0.669274	0.491533
C113	C	1.395295	-0.335941	0.824866
C114	C	1.728628	-0.002608	1.158200
C115	C	1.061944	-0.622353	0.491523
C116	C	1.395277	-0.289020	0.824856
C117	C	1.728611	0.044313	1.158190
C118	C	1.113525	-0.598884	0.439995
C119	C	1.446858	-0.265551	0.773328
C120	C	1.780192	0.067782	1.106662
C121	C	1.113483	-0.551977	0.439975
C122	C	1.446817	-0.218644	0.773309
C123	C	1.780150	0.114690	1.106642
N124	N	1.165067	-0.528505	0.388456
N125	N	1.498400	-0.195172	0.721790
N126	N	1.831734	0.138161	1.055123
C127	C	1.216673	-0.551952	0.336944
C128	C	1.550006	-0.218619	0.670277
C129	C	1.883340	0.114715	1.003610
C130	C	1.113712	-0.978926	0.440049
C131	C	1.447046	-0.645593	0.773382
C132	C	1.780379	-0.312259	1.106716
C133	C	1.113735	-1.025844	0.440055
C134	C	1.447068	-0.692510	0.773388
C135	C	1.780402	-0.359177	1.106722
C136	C	1.216928	-1.025819	0.337019
C137	C	1.550262	-0.692485	0.670352
C138	C	1.883595	-0.359152	1.003685
C139	C	1.216901	-0.978900	0.337009
C140	C	1.550234	-0.645567	0.670342
C141	C	1.883568	-0.312233	1.003676
C142	C	1.165296	-0.955455	0.388530
C143	C	1.498629	-0.622121	0.721863
C144	C	1.831963	-0.288788	1.055197
C145	C	1.216609	-0.453426	0.336925
C146	C	1.549942	-0.120093	0.670258
C147	C	1.883275	0.213241	1.003592
C148	C	1.216573	-0.406506	0.336917
C149	C	1.549907	-0.073173	0.670250
C150	C	1.883240	0.260160	1.003584
C151	C	1.113383	-0.406535	0.439956
C152	C	1.446717	-0.073202	0.773289
C153	C	1.780050	0.260131	1.106623
C154	C	1.113416	-0.453451	0.439962
C155	C	1.446749	-0.120118	0.773295
C156	C	1.780082	0.213216	1.106628
C157	C	1.165035	-0.476895	0.388443
C158	C	1.498368	-0.143562	0.721777
C159	C	1.831701	0.189772	1.055110
O160	O	1.069599	-0.527685	0.483742
O161	O	1.402932	-0.194352	0.817075
O162	O	1.736265	0.138981	1.150409
O163	O	1.260546	-0.527674	0.293136
O164	O	1.593879	-0.194340	0.626470
O165	O	1.927212	0.138993	0.959803
C166	C	1.216781	-0.739616	0.336981
C167	C	1.550114	-0.406283	0.670314
C168	C	1.883448	-0.072949	1.003648
C169	C	1.165203	-0.763085	0.388504
C170	C	1.498537	-0.429752	0.721837
C171	C	1.831870	-0.096418	1.055171
C172	C	1.113597	-0.739639	0.440017
C173	C	1.446931	-0.406305	0.773350
C174	C	1.780264	-0.072972	1.106683
C175	C	1.165226	-0.810003	0.388510
C176	C	1.498559	-0.476670	0.721843
C177	C	1.831893	-0.143336	1.055177
C178	C	1.216832	-0.833449	0.336997
C179	C	1.550165	-0.500116	0.670331
C180	C	1.883499	-0.166783	1.003664
C181	C	1.268416	-0.809978	0.285479
C182	C	1.601749	-0.476645	0.618812
C183	C	1.935082	-0.143311	0.952145
C184	C	1.268387	-0.763062	0.285468
C185	C	1.601720	-0.429729	0.618802
C186	C	1.935054	-0.096396	0.952135
C187	C	1.062014	-0.763110	0.491536
C188	C	1.395347	-0.429777	0.824869
C189	C	1.728680	-0.096443	1.158202
C190	C	1.062046	-0.810026	0.491541
C191	C	1.395379	-0.476692	0.824875
C192	C	1.728713	-0.143359	1.158208
C193	C	1.113652	-0.833472	0.440028
C194	C	1.446985	-0.500139	0.773362
C195	C	1.780319	-0.166805	1.106695
C196	C	1.375410	-0.216410	0.388483
C197	C	1.708743	0.116924	0.721816
C198	C	2.042077	0.450257	1.055150
C199	C	1.465031	-0.216413	0.388493
C200	C	1.798365	0.116921	0.721826
C201	C	2.131698	0.450254	1.055159
C202	C	1.165154	-0.216370	0.598769
C203	C	1.498487	0.116964	0.932102
C204	C	1.831820	0.450297	1.265435
C205	C	1.165176	-0.216355	0.688390
C206	C	1.498509	0.116978	1.021723
C207	C	1.831843	0.450311	1.355057
C208	C	1.165269	-0.099225	0.388518
C209	C	1.498603	0.234109	0.721851
C210	C	1.831936	0.567442	1.055184
C211	C	1.165341	-0.049290	0.388542
C212	C	1.498674	0.284043	0.721876
C213	C	1.832008	0.617376	1.055209
C214	C	1.165095	-0.216404	0.178969
C215	C	1.498429	0.116929	0.512302
C216	C	1.831762	0.450263	0.845636
C217	C	1.165229	-0.216292	0.089348
C218	C	1.498563	0.117042	0.422682
C219	C	1.831896	0.450375	0.756015
C220	C	1.165213	-0.216305	1.016566
C221	C	1.498547	0.117028	1.349899
C222	C	1.831880	0.450362	1.683233
C223	C	1.165201	-0.216320	0.925257
C224	C	1.498534	0.117013	1.258591
C225	C	1.831867	0.450346	1.591924
C226	C	1.165195	-0.216330	0.852481
C227	C	1.498528	0.117003	1.185814
C228	C	1.831862	0.450336	1.519148
C229	C	1.165182	-0.216345	0.761167
C230	C	1.498515	0.116988	1.094500
C231	C	1.831848	0.450321	1.427833
H232	H	1.258577	-0.387399	0.294954
H233	H	1.591910	-0.054066	0.628287
H234	H	1.925243	0.279267	0.961621
H235	H	1.071417	-0.472560	0.481922
H236	H	1.404750	-0.139227	0.815256
H237	H	1.738083	0.194106	1.148589
C238	C	1.273382	-0.479208	0.280251
C239	C	1.606715	-0.145875	0.613584
C240	C	1.940049	0.187459	0.946917
H241	H	1.304086	-0.458506	0.249562
H242	H	1.637419	-0.125172	0.582896
H243	H	1.970753	0.208161	0.916229
H244	H	1.308513	-0.497480	0.311120
H245	H	1.641847	-0.164146	0.644453
H246	H	1.975180	0.169187	0.977787
H247	H	1.242562	-0.497540	0.245089
H248	H	1.575896	-0.164206	0.578423
H249	H	1.909229	0.169127	0.911756
H250	H	1.258903	-0.959794	0.295051
H251	H	1.592236	-0.626461	0.628384
H252	H	1.925570	-0.293128	0.961718
H253	H	1.019955	-0.688375	0.533489
H254	H	1.353288	-0.355041	0.866822
H255	H	1.686621	-0.021708	1.200156
C256	C	1.273691	-1.051616	0.280354
C257	C	1.607025	-0.718282	0.613687
C258	C	1.940358	-0.384949	0.947020
H259	H	1.266315	-1.082919	0.287744
H260	H	1.599648	-0.749585	0.621078
H261	H	1.932982	-0.416252	0.954411
H262	H	1.261923	-1.043954	0.226165
H263	H	1.595256	-0.710621	0.559498
H264	H	1.928590	-0.377287	0.892831
H265	H	1.327860	-1.043895	0.292209
H266	H	1.661194	-0.710562	0.625543
H267	H	1.994527	-0.377228	0.958876
H268	H	1.019991	-0.744024	0.533485
H269	H	1.353324	-0.410690	0.866818
H270	H	1.686657	-0.077357	1.200151
H271	H	1.310389	-0.743957	0.243509
H272	H	1.643723	-0.410624	0.576843
H273	H	1.977056	-0.077291	0.910176
C274	C	1.325097	-0.695016	0.228774
C275	C	1.658430	-0.361682	0.562107
C276	C	1.991764	-0.028349	0.895440
H277	H	1.355802	-0.674312	0.198088
H278	H	1.689135	-0.340979	0.531422
H279	H	2.022469	-0.007646	0.864755
H280	H	1.360227	-0.713290	0.259639
H281	H	1.693561	-0.379956	0.592973
H282	H	2.026894	-0.046623	0.926306
H283	H	1.294276	-0.713345	0.193609
H284	H	1.627609	-0.380011	0.526943
H285	H	1.960942	-0.046678	0.860276
H286	H	1.071725	-1.044948	0.482007
H287	H	1.405058	-0.711615	0.815340
H288	H	1.738392	-0.378282	1.148673
C289	C	1.056935	-0.953141	0.496717
C290	C	1.390268	-0.619808	0.830050
C291	C	1.723601	-0.286475	1.163384
H292	H	1.026215	-0.973844	0.527390
H293	H	1.359548	-0.640510	0.860723
H294	H	1.692881	-0.307177	1.194056
H295	H	1.087738	-0.934807	0.531882
H296	H	1.421072	-0.601474	0.865215
H297	H	1.754405	-0.268141	1.198548
H298	H	1.021807	-0.934872	0.465831
H299	H	1.355140	-0.601539	0.799165
H300	H	1.688473	-0.268205	1.132498
C301	C	1.005177	-0.596566	0.548198
C302	C	1.338511	-0.263232	0.881532
C303	C	1.671844	0.070101	1.214865
H304	H	0.974462	-0.617265	0.578880
H305	H	1.307795	-0.283932	0.912213
H306	H	1.641128	0.049401	1.245547
H307	H	1.035992	-0.578232	0.583354
H308	H	1.369325	-0.244898	0.916687
H309	H	1.702659	0.088435	1.250020
H310	H	0.970045	-0.578296	0.517319
H311	H	1.303378	-0.244963	0.850652
H312	H	1.636711	0.088371	1.183985
C313	C	1.325051	-0.596506	0.228766
C314	C	1.658384	-0.263173	0.562099
C315	C	1.991718	0.070161	0.895432
H316	H	1.355792	-0.617195	0.198099
H317	H	1.689125	-0.283862	0.531432
H318	H	2.022459	0.049472	0.864765
H319	H	1.294229	-0.578232	0.193596
H320	H	1.627562	-0.244899	0.526929
H321	H	1.960896	0.088435	0.860263
H322	H	1.360161	-0.578175	0.259646
H323	H	1.693494	-0.244842	0.592980
H324	H	2.026828	0.088492	0.926313
H325	H	1.071364	-0.387438	0.481895
H326	H	1.404697	-0.054105	0.815228
H327	H	1.738030	0.279229	1.148561
C328	C	1.325180	-0.835775	0.228815
C329	C	1.658513	-0.502442	0.562148
C330	C	1.991846	-0.169108	0.895482
H331	H	1.317807	-0.867078	0.236210
H332	H	1.651140	-0.533745	0.569543
H333	H	1.984473	-0.200411	0.902877
H334	H	1.313410	-0.828116	0.174626
H335	H	1.646743	-0.494783	0.507959
H336	H	1.980077	-0.161449	0.841292
H337	H	1.379348	-0.828052	0.240669
H338	H	1.712682	-0.494719	0.574003
H339	H	2.046015	-0.161386	0.907336
C340	C	1.005304	-0.835836	0.548228
C341	C	1.338638	-0.502503	0.881561
C342	C	1.671971	-0.169170	1.214894
H343	H	0.974574	-0.815149	0.578908
H344	H	1.307908	-0.481815	0.912242
H345	H	1.641241	-0.148482	1.245575
H346	H	0.970196	-0.854174	0.517366
H347	H	1.303529	-0.520841	0.850700
H348	H	1.636863	-0.187508	1.184033
H349	H	1.036149	-0.854104	0.583396
H350	H	1.369482	-0.520770	0.916729
H351	H	1.702815	-0.187437	1.250063
