data_functionalizedCrystal
_audit_creation_method	'MofGen! by Chris Wilmer'
_symmetry_space_group_name_H-M	'P1'
_symmetry_Int_Tables_number	1
_symmetry_cell_setting	triclinic
loop_
_symmetry_equiv_pos_as_xyz
  x,y,z
_cell_length_a	14.560438
_cell_length_b	23.096457
_cell_length_c	14.560438
_cell_angle_alpha	89.999359
_cell_angle_beta	60.000905
_cell_angle_gamma	59.999411
loop_
_atom_site_label
_atom_site_type_symbol
_atom_site_fract_x
_atom_site_fract_y
_atom_site_fract_z
Zr1	Zr	1.005292	0.557764	-0.120540
O2	O	1.196892	0.465313	-0.267179
O3	O	0.813691	0.586105	-0.075589
O4	O	1.005295	0.586102	-0.267190
O5	O	1.005286	0.465319	0.075562
O6	O	1.005297	0.681382	-0.267195
O7	O	1.005288	0.465316	-0.075579
O8	O	0.662553	0.681387	0.075543
O9	O	1.348030	0.465314	-0.267176
O10	O	0.892501	0.669299	-0.056419
O11	O	0.892497	0.598194	0.056379
O12	O	1.118086	0.598191	-0.169206
O13	O	1.118082	0.527086	-0.056407
Zr14	Zr	1.005292	0.709729	0.120504
Zr15	Zr	1.005296	0.709725	-0.120548
Zr16	Zr	1.005288	0.557768	0.120513
Zr17	Zr	1.246339	0.557764	-0.120535
Zr18	Zr	0.764244	0.709729	0.120499
O19	O	1.196892	0.681388	0.075553
O20	O	1.196898	0.681383	-0.267192
O21	O	1.196887	0.465319	0.075566
O22	O	0.813691	0.802180	0.267143
O23	O	0.813697	0.802174	-0.075602
O24	O	0.813685	0.586110	0.267156
O25	O	1.005297	0.802174	-0.075598
O26	O	1.005288	0.681391	0.267154
O27	O	1.005286	0.586111	0.267160
O28	O	1.005295	0.802177	0.075543
O29	O	1.348034	0.586102	-0.267183
O30	O	0.662550	0.681391	0.267148
O31	O	0.662553	0.802179	0.267141
O32	O	0.662556	0.802176	0.075536
O33	O	1.348027	0.465317	-0.075572
O34	O	1.348030	0.586105	-0.075579
O35	O	0.892497	0.669302	0.169170
O36	O	0.892501	0.740407	0.056371
O37	O	1.118086	0.669299	-0.056415
O38	O	1.118082	0.598194	0.056384
C39	C	0.703778	0.633746	-0.000024
C40	C	0.601447	0.633746	-0.000026
C41	C	0.553373	0.670861	-0.058905
C42	C	0.457213	0.670863	-0.058895
C43	C	0.457215	0.596631	0.058877
C44	C	0.553366	0.596633	0.058872
C45	C	1.005287	0.443666	-0.000007
C46	C	1.005285	0.379155	-0.000003
C47	C	0.887535	0.385967	0.058859
C48	C	0.887533	0.325351	0.058864
C49	C	1.005288	0.257924	-0.000015
C50	C	1.123053	0.251114	-0.058881
C51	C	1.123052	0.311730	-0.058874
N52	N	1.092940	0.135127	-0.095841
N53	N	1.092933	0.077547	-0.095845
C54	C	1.005300	0.075291	-0.000035
N55	N	0.917653	0.132796	0.095776
N56	N	0.917656	0.190382	0.095778
C57	C	1.005303	0.192193	-0.000028
C58	C	0.887540	0.016380	0.058838
C59	C	0.887543	-0.044238	0.058846
C60	C	1.123066	-0.118475	-0.058910
C61	C	1.123059	-0.057857	-0.058907
C62	C	1.005293	0.009568	-0.000036
C63	C	1.306806	0.633747	-0.000012
C64	C	1.409137	0.633747	-0.000010
C65	C	1.005297	0.633742	-0.301537
C66	C	1.005299	0.633740	-0.403870
C67	C	1.005297	0.823827	-0.000029
C68	C	1.005299	0.888338	-0.000033
C69	C	1.123049	0.596623	-0.510820
C70	C	1.123043	0.596631	-0.606969
C71	C	0.887525	0.670875	-0.489205
C72	C	0.887532	0.670870	-0.393058
C73	C	1.005287	0.633751	0.301502
C74	C	1.005285	0.633753	0.403834
C75	C	0.703783	0.823826	-0.000035
C76	C	0.601454	0.888338	-0.000040
C77	C	0.703773	0.633751	0.301496
C78	C	0.601440	0.633752	0.403827
C79	C	0.703778	0.823831	0.301485
C80	C	0.601447	0.888344	0.403812
C81	C	1.306806	0.443662	-0.301521
C82	C	1.409137	0.379149	-0.403848
C83	C	1.306800	0.443667	-0.000001
C84	C	1.409130	0.379155	0.000004
C85	C	1.306811	0.633742	-0.301532
C86	C	1.409143	0.633741	-0.403863
C87	C	0.553399	0.881515	-0.058929
C88	C	0.457263	0.942125	-0.058956
C89	C	0.409177	1.009556	-0.000089
C90	C	0.457241	1.016377	0.058801
C91	C	0.553382	0.955769	0.058822
C92	C	0.553393	0.955763	0.392986
C93	C	0.457256	1.016385	0.489124
C94	C	0.409167	1.009588	0.596087
C95	C	0.457230	0.942163	0.606911
C96	C	0.553373	0.881541	0.510774
C97	C	1.457202	0.311730	-0.393022
C98	C	1.553369	0.251108	-0.489160
C99	C	1.601463	0.257905	-0.596123
C100	C	1.553394	0.325330	-0.606947
C101	C	1.457234	0.385952	-0.510810
C102	C	1.457195	0.385978	0.058883
C103	C	1.553357	0.325368	0.058884
C104	C	1.601446	0.257937	0.000013
C105	C	1.553377	0.251116	-0.058873
C106	C	1.457223	0.311724	-0.058880
C107	C	0.553362	0.670870	0.510778
C108	C	0.457219	0.670864	0.606925
C109	C	0.457236	0.596620	0.489156
C110	C	0.553384	0.596623	0.393012
H111	H	0.592507	0.566409	0.106824
C112	C	0.606287	0.807345	-0.123696
C113	C	0.553421	0.799856	-0.188478
C114	C	0.606308	0.725688	-0.253257
C115	C	0.712062	0.659010	-0.253253
C116	C	0.764934	0.666498	-0.188469
C117	C	0.712046	0.740665	-0.123690
H118	H	0.475130	0.849216	-0.188483
H119	H	0.567168	0.720146	-0.301214
H120	H	0.751212	0.604107	-0.301206
H121	H	0.843224	0.617137	-0.188464
H122	H	0.751186	0.746208	-0.075733
C123	C	0.758002	0.332837	0.123594
C124	C	0.628466	0.407000	0.188337
C125	C	0.498936	0.414488	0.253057
C126	C	0.498941	0.347812	0.253034
C127	C	0.628481	0.273644	0.188289
C128	C	0.758012	0.266156	0.123569
H129	H	0.628458	0.456362	0.188357
H130	H	0.403041	0.469393	0.300986
H131	H	0.403054	0.353355	0.300944
H132	H	0.628489	0.224282	0.188270
H133	H	0.853906	0.211252	0.075640
C134	C	1.606268	0.176938	-0.123612
C135	C	1.712018	0.110276	-0.123578
C136	C	1.764901	0.036097	-0.188306
C137	C	1.712034	0.028578	-0.253068
C138	C	1.606278	0.095242	-0.253105
C139	C	1.553395	0.169421	-0.188377
H140	H	1.751158	0.115840	-0.075635
H141	H	1.843188	-0.013252	-0.188279
H142	H	1.751181	-0.026334	-0.300984
H143	H	1.567138	0.089678	-0.301048
H144	H	1.475108	0.218770	-0.188404
H145	H	0.330882	1.058955	0.674359
H146	H	0.791640	0.701099	-0.305969
C147	C	1.606220	0.176946	-0.477236
C148	C	1.672275	0.154672	-0.415402
C149	C	1.725120	0.080514	-0.403474
C150	C	1.711910	0.028629	-0.453380
C151	C	1.645852	0.050901	-0.515219
C152	C	1.593007	0.125060	-0.527146
H153	H	1.682057	0.193082	-0.378455
H154	H	1.774020	0.064026	-0.357697
H155	H	1.751029	-0.026268	-0.444551
H156	H	1.636070	0.012492	-0.552166
H157	H	1.544106	0.141547	-0.572924
C158	C	1.252584	0.176946	-0.123652
C159	C	1.284973	0.125072	-0.219173
C160	C	1.414507	0.050902	-0.283941
C161	C	1.511653	0.028607	-0.253189
C162	C	1.479267	0.080483	-0.157663
C163	C	1.349732	0.154652	-0.092894
H164	H	1.213057	0.141575	-0.241942
H165	H	1.438481	0.012501	-0.354656
H166	H	1.607543	-0.026297	-0.301135
H167	H	1.551183	0.063979	-0.134894
H168	H	1.325758	0.193053	-0.022180
C169	C	0.606237	0.711704	0.522671
C170	C	0.711995	0.711711	0.416922
C171	C	0.764870	0.752543	0.428820
C172	C	0.711988	0.793368	0.546469
C173	C	0.606224	0.793362	0.652227
C174	C	0.553348	0.752530	0.640328
H175	H	0.751147	0.681489	0.329824
H176	H	0.843164	0.752547	0.350530
H177	H	0.751130	0.823594	0.555277
H178	H	0.567072	0.823584	0.739325
H179	H	0.475054	0.752526	0.718618
H180	H	0.791640	0.440863	0.106790
H181	H	0.418132	1.071281	0.480292
H182	H	1.679761	0.208538	-0.674395
H183	H	1.218940	0.306178	-0.106805
H184	H	0.418140	0.936557	-0.106911
H185	H	0.791647	0.071281	0.106798
H186	H	0.592486	0.826649	0.519604
H187	H	0.418076	1.071288	0.106729
H188	H	1.218944	-0.063407	-0.106847
C189	C	1.252572	0.555804	-0.724614
C190	C	1.252575	0.555814	-0.830377
C191	C	1.382109	0.514988	-0.948026
C192	C	1.511641	0.474153	-0.959911
C193	C	1.511643	0.474142	-0.854145
C194	C	1.382108	0.514968	-0.736497
H195	H	1.156683	0.586044	-0.821582
H196	H	1.382107	0.514997	-1.026321
H197	H	1.607530	0.443932	-1.047002
H198	H	1.607535	0.443913	-0.862940
H199	H	1.382111	0.514959	-0.658202
H200	H	1.592564	0.330856	-0.694047
H201	H	0.418062	0.936639	0.694013
H202	H	0.791653	-0.038685	0.106787
C203	C	0.606220	0.963281	0.123621
C204	C	0.553307	1.037457	0.188380
C205	C	0.606137	1.044975	0.253184
C206	C	0.711880	0.978317	0.253230
C207	C	0.764799	0.904136	0.188468
C208	C	0.711969	0.896617	0.123664
H209	H	0.475024	1.086805	0.188348
H210	H	0.566962	1.099889	0.301125
H211	H	0.750988	0.983882	0.301202
H212	H	0.843082	0.854787	0.188500
H213	H	0.751144	0.841703	0.075723
H214	H	0.592516	0.701081	-0.106862
H215	H	0.418073	0.701086	-0.106839
H216	H	0.418056	0.566414	0.106828
H217	H	1.218944	-0.173374	-0.106852
H218	H	1.218942	0.566390	-0.519630
H219	H	0.791644	0.701104	-0.480415
H220	H	0.330892	1.058902	-0.000114
H221	H	0.592533	0.961311	0.305900
H222	H	1.418049	0.306182	-0.305936
H223	H	1.418100	0.440845	-0.519638
H224	H	1.418048	0.440878	0.106830
H225	H	1.592479	0.330936	0.106840
H226	H	1.679741	0.208591	0.000028
H227	H	1.418091	0.306159	-0.106822
H228	H	0.418079	0.701088	0.694006
H229	H	0.418095	0.566392	0.480365
H230	H	0.592533	0.566394	0.305921
