data_functionalizedCrystal
_audit_creation_method	'MofGen! by Chris Wilmer'
_symmetry_space_group_name_H-M	'P1'
_symmetry_Int_Tables_number	1
_symmetry_cell_setting	triclinic
loop_
_symmetry_equiv_pos_as_xyz
  x,y,z
_cell_length_a	23.532407
_cell_length_b	22.610064
_cell_length_c	23.532409
_cell_angle_alpha	90.007112
_cell_angle_beta	82.849157
_cell_angle_gamma	89.995143
loop_
_atom_site_label
_atom_site_type_symbol
_atom_site_fract_x
_atom_site_fract_y
_atom_site_fract_z
O1	O	-0.755264	0.049135	-0.069127
O2	O	-0.421931	0.382468	0.264206
O3	O	-0.088597	0.715801	0.597539
O4	O	-0.589401	0.049145	-0.079131
O5	O	-0.256067	0.382479	0.254203
O6	O	0.077266	0.715812	0.587536
O7	O	-0.677333	0.049140	0.008803
O8	O	-0.344000	0.382474	0.342136
O9	O	-0.010667	0.715807	0.675469
O10	O	-0.667331	0.049140	-0.157061
O11	O	-0.333998	0.382473	0.176273
O12	O	-0.000665	0.715806	0.509606
O13	O	-0.677318	-0.049229	0.008790
O14	O	-0.343984	0.284105	0.342123
O15	O	-0.010651	0.617438	0.675456
O16	O	-0.589385	-0.049224	-0.079143
O17	O	-0.256052	0.284110	0.254190
O18	O	0.077282	0.617443	0.587523
O19	O	-0.755248	-0.049234	-0.069140
O20	O	-0.421915	0.284099	0.264193
O21	O	-0.088582	0.617432	0.597526
Zn22	Zn	-0.672314	-0.064847	-0.074144
Zn23	Zn	-0.338981	0.268486	0.259189
Zn24	Zn	-0.005648	0.601819	0.592523
Zn25	Zn	-0.672335	0.064758	-0.074127
Zn26	Zn	-0.339001	0.398092	0.259206
Zn27	Zn	-0.005668	0.731425	0.592540
O28	O	-0.667316	-0.049230	-0.157073
O29	O	-0.333982	0.284104	0.176260
O30	O	-0.000649	0.617437	0.509593
C31	C	-0.568177	-0.000038	-0.078882
C32	C	-0.234844	0.333296	0.254451
C33	C	0.098490	0.666629	0.587784
C34	C	-0.504960	-0.000033	-0.078116
C35	C	-0.171627	0.333300	0.255217
C36	C	0.161707	0.666633	0.588550
N37	N	-0.672305	-0.153300	-0.074155
N38	N	-0.338971	0.180034	0.259178
N39	N	-0.005638	0.513367	0.592512
C40	C	-0.238792	-0.000046	-0.022921
C41	C	0.094541	0.333287	0.310412
C42	C	0.427875	0.666621	0.643746
C43	C	-0.298192	-0.000047	-0.023632
C44	C	0.035141	0.333287	0.309701
C45	C	0.368474	0.666620	0.643034
O46	O	-0.334936	-0.000067	0.020153
O47	O	-0.001603	0.333266	0.353487
O48	O	0.331730	0.666599	0.686820
N49	N	-0.320819	-0.000043	-0.075909
N50	N	0.012515	0.333290	0.257425
N51	N	0.345848	0.666623	0.590758
C52	C	-0.284042	-0.000045	-0.127477
C53	C	0.049292	0.333288	0.205856
C54	C	0.382625	0.666621	0.539190
O55	O	-0.308742	-0.000043	-0.172007
O56	O	0.024592	0.333290	0.161326
O57	O	0.357925	0.666624	0.494659
C58	C	-0.224643	-0.000049	-0.126765
C59	C	0.108691	0.333284	0.206569
C60	C	0.442024	0.666618	0.539902
C61	C	-0.202020	-0.000046	-0.074485
C62	C	0.131314	0.333287	0.258848
C63	C	0.464647	0.666620	0.592181
C64	C	-0.216168	-0.000044	0.029354
C65	C	0.117165	0.333289	0.362688
C66	C	0.450498	0.666622	0.696021
C67	C	-0.156772	-0.000043	0.030066
C68	C	0.176561	0.333291	0.363399
C69	C	0.509895	0.666624	0.696732
C70	C	-0.120000	-0.000043	-0.021499
C71	C	0.213334	0.333290	0.311835
C72	C	0.546667	0.666624	0.645168
C73	C	-0.142623	-0.000045	-0.073774
C74	C	0.190710	0.333289	0.259559
C75	C	0.524043	0.666622	0.592893
C76	C	-0.187867	-0.000055	-0.178332
C77	C	0.145467	0.333278	0.155001
C78	C	0.478800	0.666611	0.488334
C79	C	-0.128464	-0.000059	-0.177616
C80	C	0.204869	0.333274	0.155718
C81	C	0.538203	0.666607	0.489051
C82	C	-0.105841	-0.000057	-0.125336
C83	C	0.227492	0.333277	0.207997
C84	C	0.560826	0.666610	0.541330
C85	C	-0.046455	-0.000043	-0.124627
C86	C	0.286879	0.333290	0.208706
C87	C	0.620212	0.666623	0.542040
N88	N	-0.023828	-0.000047	-0.072351
N89	N	0.309505	0.333287	0.260983
N90	N	0.642839	0.666620	0.594316
C91	C	-0.060601	-0.000047	-0.020787
C92	C	0.272733	0.333287	0.312547
C93	C	0.606066	0.666620	0.645880
C94	C	-0.408784	-0.000039	-0.128968
C95	C	-0.075451	0.333295	0.204365
C96	C	0.257882	0.666628	0.537698
C97	C	-0.468182	-0.000031	-0.129681
C98	C	-0.134849	0.333303	0.203652
C99	C	0.198485	0.666636	0.536986
C100	C	-0.482329	-0.000033	-0.025836
C101	C	-0.148995	0.333300	0.307497
C102	C	0.184338	0.666634	0.640830
C103	C	-0.422930	-0.000037	-0.025124
C104	C	-0.089596	0.333296	0.308209
C105	C	0.243737	0.666630	0.641543
C106	C	-0.386158	-0.000042	-0.076692
C107	C	-0.052824	0.333291	0.256641
C108	C	0.280509	0.666625	0.589975
C109	C	0.064136	-0.000043	-0.019297
C110	C	0.397470	0.333291	0.314036
C111	C	0.730803	0.666624	0.647370
C112	C	0.123538	-0.000038	-0.018590
C113	C	0.456872	0.333295	0.314743
C114	C	0.790205	0.666628	0.648076
C115	C	0.137680	-0.000039	-0.122435
C116	C	0.471013	0.333294	0.210899
C117	C	0.804346	0.666628	0.544232
C118	C	0.078283	-0.000040	-0.123142
C119	C	0.411616	0.333293	0.210192
C120	C	0.744949	0.666627	0.543525
C121	C	0.041512	-0.000044	-0.071568
C122	C	0.374845	0.333290	0.261765
C123	C	0.708179	0.666623	0.595099
O124	O	-0.009676	-0.000025	-0.168390
O125	O	0.323657	0.333308	0.164943
O126	O	0.656991	0.666642	0.498277
O127	O	-0.035892	-0.000057	0.023736
O128	O	0.297441	0.333277	0.357070
O129	O	0.630774	0.666610	0.690403
C130	C	-0.711273	-0.561943	-0.035196
C131	C	-0.377940	-0.228610	0.298137
C132	C	-0.044606	0.104723	0.631471
C133	C	-0.711276	-0.623863	-0.035192
C134	C	-0.377943	-0.290530	0.298141
C135	C	-0.044609	0.042803	0.631475
O136	O	-0.744384	-0.655884	-0.002076
O137	O	-0.411051	-0.322551	0.331257
O138	O	-0.077717	0.010783	0.664590
N139	N	-0.672334	-0.654837	-0.074115
N140	N	-0.339001	-0.321504	0.259218
N141	N	-0.005668	0.011830	0.592551
C142	C	-0.633383	-0.623887	-0.113041
C143	C	-0.300050	-0.290554	0.220292
C144	C	0.033283	0.042779	0.553625
O145	O	-0.600261	-0.655919	-0.146148
O146	O	-0.266927	-0.322585	0.187186
O147	O	0.066406	0.010748	0.520519
C148	C	-0.633378	-0.561969	-0.113042
C149	C	-0.300045	-0.228635	0.220291
C150	C	0.033288	0.104698	0.553624
C151	C	-0.672326	-0.530998	-0.074120
C152	C	-0.338993	-0.197665	0.259213
C153	C	-0.005660	0.135668	0.592546
C154	C	-0.750217	-0.530973	0.003723
C155	C	-0.416884	-0.197640	0.337056
C156	C	-0.083551	0.135694	0.670390
C157	C	-0.750215	-0.469057	0.003718
C158	C	-0.416882	-0.135724	0.337051
C159	C	-0.083548	0.197609	0.670385
C160	C	-0.711268	-0.438112	-0.035206
C161	C	-0.377935	-0.104779	0.298127
C162	C	-0.044602	0.228555	0.631461
C163	C	-0.672324	-0.469083	-0.074125
C164	C	-0.338991	-0.135749	0.259208
C165	C	-0.005657	0.197584	0.592541
C166	C	-0.594425	-0.531020	-0.151965
C167	C	-0.261092	-0.197687	0.181368
C168	C	0.072242	0.135646	0.514702
C169	C	-0.594423	-0.469097	-0.151962
C170	C	-0.261090	-0.135764	0.181371
C171	C	0.072244	0.197569	0.514704
C172	C	-0.633371	-0.438127	-0.113040
C173	C	-0.300038	-0.104794	0.220293
C174	C	0.033296	0.228540	0.553626
C175	C	-0.633375	-0.376222	-0.113054
C176	C	-0.300041	-0.042889	0.220279
C177	C	0.033292	0.290445	0.553612
N178	N	-0.672316	-0.345248	-0.074131
N179	N	-0.338983	-0.011915	0.259202
N180	N	-0.005650	0.321418	0.592535
C181	C	-0.711263	-0.376193	-0.035207
C182	C	-0.377930	-0.042860	0.298126
C183	C	-0.044596	0.290473	0.631460
C184	C	-0.633397	-0.753921	-0.113036
C185	C	-0.300063	-0.420588	0.220298
C186	C	0.033270	-0.087254	0.553631
C187	C	-0.633404	-0.815839	-0.113038
C188	C	-0.300071	-0.482505	0.220296
C189	C	0.033263	-0.149172	0.553629
C190	C	-0.711296	-0.815810	-0.035188
C191	C	-0.377963	-0.482477	0.298146
C192	C	-0.044629	-0.149144	0.631479
C193	C	-0.711291	-0.753892	-0.035189
C194	C	-0.377958	-0.420558	0.298145
C195	C	-0.044624	-0.087225	0.631478
C196	C	-0.672338	-0.722947	-0.074112
C197	C	-0.339005	-0.389614	0.259221
C198	C	-0.005672	-0.056281	0.592554
C199	C	-0.711256	-0.246166	-0.035221
C200	C	-0.377922	0.087167	0.298112
C201	C	-0.044589	0.420501	0.631446
C202	C	-0.711251	-0.184245	-0.035231
C203	C	-0.377918	0.149088	0.298102
C204	C	-0.044585	0.482422	0.631436
C205	C	-0.633358	-0.184279	-0.113079
C206	C	-0.300024	0.149055	0.220255
C207	C	0.033309	0.482388	0.553588
C208	C	-0.633364	-0.246194	-0.113071
C209	C	-0.300030	0.087139	0.220262
C210	C	0.033303	0.420472	0.553596
C211	C	-0.672315	-0.277137	-0.074137
C212	C	-0.338981	0.056197	0.259196
C213	C	-0.005648	0.389530	0.592529
O214	O	-0.600282	-0.344162	-0.146152
O215	O	-0.266949	-0.010829	0.187182
O216	O	0.066385	0.322505	0.520515
O217	O	-0.744376	-0.344155	-0.002101
O218	O	-0.411042	-0.010821	0.331232
O219	O	-0.077709	0.322512	0.664565
C220	C	0.223528	-0.000047	-0.069389
C221	C	0.556861	0.333286	0.263945
C222	C	0.890194	0.666620	0.597278
C223	C	0.160311	-0.000039	-0.070154
C224	C	0.493644	0.333295	0.263179
C225	C	0.826977	0.666628	0.596512
C226	C	-0.677071	-0.000043	0.030012
C227	C	-0.343737	0.333291	0.363345
C228	C	-0.010404	0.666624	0.696679
C229	C	-0.676304	-0.000038	0.093229
C230	C	-0.342971	0.333295	0.426562
C231	C	-0.009638	0.666628	0.759896
N232	N	-0.672349	0.153211	-0.074111
N233	N	-0.339016	0.486544	0.259222
N234	N	-0.005682	0.819877	0.592555
C235	C	-0.667578	-0.000045	-0.178283
C236	C	-0.334245	0.333288	0.155050
C237	C	-0.000912	0.666622	0.488384
C238	C	-0.668345	-0.000046	-0.241500
C239	C	-0.335011	0.333288	0.091833
C240	C	-0.001678	0.666621	0.425167
C241	C	-0.673054	0.053586	0.366481
C242	C	-0.339720	0.386919	0.699815
C243	C	-0.006387	0.720252	1.033148
C244	C	-0.673765	0.053586	0.307081
C245	C	-0.340432	0.386919	0.640414
C246	C	-0.007099	0.720252	0.973748
O247	O	-0.674161	0.099187	0.276362
O248	O	-0.340827	0.432520	0.609695
O249	O	-0.007494	0.765853	0.943029
N250	N	-0.674109	-0.000036	0.277372
N251	N	-0.340776	0.333297	0.610705
N252	N	-0.007443	0.666630	0.944039
C253	C	-0.673747	-0.053662	0.307067
C254	C	-0.340414	0.279671	0.640400
C255	C	-0.007080	0.613005	0.973733
O256	O	-0.674105	-0.099271	0.276343
O257	O	-0.340772	0.234062	0.609676
O258	O	-0.007439	0.567395	0.943009
C259	C	-0.673040	-0.053661	0.366466
C260	C	-0.339706	0.279672	0.699800
C261	C	-0.006373	0.613005	1.033133
C262	C	-0.672690	-0.000036	0.396172
C263	C	-0.339357	0.333298	0.729505
C264	C	-0.006023	0.666631	1.062838
C265	C	-0.672705	0.107207	0.396187
C266	C	-0.339372	0.440540	0.729520
C267	C	-0.006038	0.773873	1.062853
C268	C	-0.671992	0.107206	0.455583
C269	C	-0.338659	0.440540	0.788916
C270	C	-0.005326	0.773873	1.122249
C271	C	-0.671628	0.053585	0.485273
C272	C	-0.338295	0.386918	0.818606
C273	C	-0.004962	0.720252	1.151940
C274	C	-0.671977	-0.000036	0.455568
C275	C	-0.338644	0.333297	0.788901
C276	C	-0.005311	0.666631	1.122234
C277	C	-0.672682	-0.107286	0.396161
C278	C	-0.339348	0.226047	0.729494
C279	C	-0.006015	0.559380	1.062828
C280	C	-0.671974	-0.107281	0.455565
C281	C	-0.338641	0.226052	0.788898
C282	C	-0.005308	0.559386	1.122231
C283	C	-0.671625	-0.053656	0.485270
C284	C	-0.338292	0.279678	0.818603
C285	C	-0.004958	0.613011	1.151937
C286	C	-0.670901	-0.053658	0.544654
C287	C	-0.337568	0.279676	0.877988
C288	C	-0.004234	0.613009	1.211321
N289	N	-0.670557	-0.000036	0.574363
N290	N	-0.337224	0.333297	0.907697
N291	N	-0.003890	0.666631	1.241030
C292	C	-0.670921	0.053586	0.544673
C293	C	-0.337588	0.386919	0.878006
C294	C	-0.004254	0.720252	1.211339
C295	C	-0.675234	-0.053659	0.182324
C296	C	-0.341901	0.279674	0.515657
C297	C	-0.008567	0.613008	0.848990
C298	C	-0.675937	-0.053660	0.122924
C299	C	-0.342604	0.279673	0.456258
C300	C	-0.009271	0.613007	0.789591
C301	C	-0.675957	0.053588	0.122943
C302	C	-0.342623	0.386921	0.456276
C303	C	-0.009290	0.720254	0.789610
C304	C	-0.675249	0.053588	0.182343
C305	C	-0.341916	0.386922	0.515676
C306	C	-0.008583	0.720255	0.849009
C307	C	-0.674890	-0.000037	0.212033
C308	C	-0.341557	0.333296	0.545366
C309	C	-0.008224	0.666630	0.878699
C310	C	-0.669424	0.053581	0.669409
C311	C	-0.336090	0.386914	1.002742
C312	C	-0.002757	0.720248	1.336075
C313	C	-0.668709	0.053576	0.728809
C314	C	-0.335375	0.386909	1.062143
C315	C	-0.002042	0.720242	1.395476
C316	C	-0.668692	-0.053672	0.728786
C317	C	-0.335359	0.279662	1.062120
C318	C	-0.002026	0.612995	1.395453
C319	C	-0.669404	-0.053667	0.669390
C320	C	-0.336071	0.279666	1.002723
C321	C	-0.002738	0.613000	1.336057
C322	C	-0.669772	-0.000036	0.639703
C323	C	-0.336439	0.333297	0.973036
C324	C	-0.003105	0.666631	1.306370
O325	O	-0.670508	-0.099235	0.575411
O326	O	-0.337174	0.234098	0.908744
O327	O	-0.003841	0.567431	1.242078
O328	O	-0.670570	0.099188	0.575405
O329	O	-0.337237	0.432521	0.908739
O330	O	-0.003903	0.765854	1.242072
H331	H	0.141954	-0.000035	0.023984
H332	H	0.475288	0.333298	0.357317
H333	H	0.808621	0.666632	0.690651
N334	N	-0.673066	-0.165128	0.364136
N335	N	-0.339732	0.168205	0.697469
N336	N	-0.006399	0.501539	1.030802
H337	H	-0.708670	-0.167519	0.344303
H338	H	-0.375337	0.165814	0.677637
H339	H	-0.042003	0.499148	1.010970
H340	H	-0.638030	-0.167493	0.334709
H341	H	-0.304696	0.165840	0.668042
H342	H	0.028637	0.499173	1.001375
H343	H	-0.676211	-0.097327	0.098742
H344	H	-0.342878	0.236006	0.432075
H345	H	-0.009545	0.569339	0.765409
N346	N	-0.398537	-0.000043	0.031266
N347	N	-0.065204	0.333290	0.364599
N348	N	0.268129	0.666624	0.697932
H349	H	-0.374209	-0.036512	0.033872
H350	H	-0.040876	0.296821	0.367206
H351	H	0.292457	0.630155	0.700539
H352	H	-0.374237	0.036443	0.033853
H353	H	-0.040904	0.369777	0.367187
H354	H	0.292430	0.703110	0.700520
N355	N	-0.753259	-0.150849	0.006759
N356	N	-0.419926	0.182485	0.340092
N357	N	-0.086592	0.515818	0.673426
H358	H	-0.731639	-0.125158	0.031864
H359	H	-0.398305	0.208176	0.365197
H360	H	-0.064972	0.541509	0.698531
H361	H	-0.778344	-0.125193	-0.014913
H362	H	-0.445011	0.208140	0.318420
H363	H	-0.111677	0.541474	0.651754
N364	N	-0.521996	-0.000033	0.029782
N365	N	-0.188663	0.333300	0.363115
N366	N	0.144670	0.666633	0.696448
H367	H	-0.563057	-0.000034	0.021393
H368	H	-0.229723	0.333300	0.354727
H369	H	0.103610	0.666633	0.688060
H370	H	-0.514703	-0.036501	0.052574
H371	H	-0.181369	0.296832	0.385907
H372	H	0.151964	0.630165	0.719241
N373	N	-0.492580	-0.000018	-0.186068
N374	N	-0.159246	0.333315	0.147266
N375	N	0.174087	0.666649	0.480599
H376	H	-0.460266	-0.000016	-0.218622
H377	H	-0.126933	0.333317	0.114711
H378	H	0.206401	0.666651	0.448044
H379	H	-0.516913	-0.036483	-0.188636
H380	H	-0.183580	0.296850	0.144697
H381	H	0.149754	0.630183	0.478030
H382	H	-0.743005	-0.728679	-0.003495
H383	H	-0.409672	-0.395346	0.329839
H384	H	-0.076339	-0.062012	0.663172
H385	H	-0.742972	-0.271352	-0.003517
H386	H	-0.409639	0.061981	0.329816
H387	H	-0.076306	0.395315	0.663150
H388	H	-0.669724	0.097252	0.645244
H389	H	-0.336390	0.430586	0.978578
H390	H	-0.003057	0.763919	1.311911
H391	H	0.034204	-0.000045	0.022699
H392	H	0.367537	0.333288	0.356033
H393	H	0.700870	0.666621	0.689366
N394	N	-0.674836	-0.111500	0.214344
N395	N	-0.341503	0.221833	0.547678
N396	N	-0.008170	0.555166	0.881011
H397	H	-0.709851	-0.113899	0.243797
H398	H	-0.376517	0.219435	0.577131
H399	H	-0.043184	0.552768	0.910464
H400	H	-0.675139	-0.145432	0.186468
H401	H	-0.341806	0.187901	0.519801
H402	H	-0.008473	0.521235	0.853135
N403	N	-0.671590	-0.165121	0.487588
N404	N	-0.338257	0.168212	0.820921
N405	N	-0.004924	0.501546	1.154254
H406	H	-0.671920	-0.199088	0.459753
H407	H	-0.338586	0.134245	0.793086
H408	H	-0.005253	0.467578	1.126419
H409	H	-0.635986	-0.167459	0.507422
H410	H	-0.302652	0.165874	0.840755
H411	H	0.030681	0.499208	1.174088
H412	H	-0.206275	-0.000055	-0.220904
H413	H	0.127058	0.333279	0.112429
H414	H	0.460391	0.666612	0.445763
N415	N	0.053882	-0.000038	-0.179529
N416	N	0.387215	0.333295	0.153804
N417	N	0.720548	0.666629	0.487138
H418	H	0.029559	-0.036506	-0.182144
H419	H	0.362893	0.296827	0.151189
H420	H	0.696226	0.630161	0.484523
H421	H	0.029574	0.036449	-0.182101
H422	H	0.362907	0.369783	0.151232
H423	H	0.696241	0.703116	0.484566
N424	N	-0.591399	-0.849239	-0.155021
N425	N	-0.258066	-0.515906	0.178313
N426	N	0.075267	-0.182573	0.511646
H427	H	-0.566728	-0.820234	-0.179676
H428	H	-0.233394	-0.486901	0.153657
H429	H	0.099939	-0.153568	0.486990
H430	H	-0.566348	-0.874926	-0.133341
H431	H	-0.233015	-0.541593	0.199993
H432	H	0.100319	-0.208259	0.533326
N433	N	-0.591383	-0.720548	-0.155022
N434	N	-0.258049	-0.387214	0.178311
N435	N	0.075284	-0.053881	0.511645
H436	H	-0.566717	-0.749569	-0.179676
H437	H	-0.233384	-0.416236	0.153657
H438	H	0.099950	-0.082902	0.486990
H439	H	-0.613036	-0.694857	-0.180093
H440	H	-0.279703	-0.361523	0.153241
H441	H	0.053630	-0.028190	0.486574
H442	H	-0.562710	-0.556228	-0.183658
H443	H	-0.229377	-0.222895	0.149675
H444	H	0.103957	0.110439	0.483008
H445	H	-0.601654	-0.271411	-0.144770
H446	H	-0.268321	0.061922	0.188563
H447	H	0.065013	0.395256	0.521896
N448	N	-0.792219	-0.435660	0.045705
N449	N	-0.458885	-0.102327	0.379038
N450	N	-0.125552	0.231007	0.712371
H451	H	-0.786313	-0.391737	0.039803
H452	H	-0.452980	-0.058404	0.373136
H453	H	-0.119647	0.274929	0.706469
H454	H	-0.832581	-0.446482	0.039330
H455	H	-0.499247	-0.113149	0.372664
H456	H	-0.165914	0.220185	0.705997
H457	H	-0.138358	-0.000043	0.072637
H458	H	0.194975	0.333290	0.405970
H459	H	0.528308	0.666624	0.739304
H460	H	-0.671712	0.150874	0.479764
H461	H	-0.338378	0.484207	0.813097
H462	H	-0.005045	0.817540	1.146431
H463	H	-0.378847	-0.000038	-0.170964
H464	H	-0.045514	0.333295	0.162370
H465	H	0.287820	0.666628	0.495703
N466	N	-0.255825	-0.000048	0.084975
N467	N	0.077508	0.333285	0.418308
N468	N	0.410842	0.666618	0.751641
H469	H	-0.232470	-0.000049	0.118194
H470	H	0.100863	0.333284	0.451527
H471	H	0.434196	0.666618	0.784860
H472	H	-0.280780	0.036420	0.086951
H473	H	0.052554	0.369753	0.420284
H474	H	0.385887	0.703087	0.753618
N475	N	-0.753307	-0.849191	0.006796
N476	N	-0.419974	-0.515858	0.340129
N477	N	-0.086640	-0.182524	0.673462
H478	H	-0.731691	-0.874881	0.031904
H479	H	-0.398358	-0.541547	0.365237
H480	H	-0.065025	-0.208214	0.698571
H481	H	-0.777968	-0.820138	0.031413
H482	H	-0.444634	-0.486805	0.364746
H483	H	-0.111301	-0.153472	0.698080
H484	H	-0.098526	-0.000066	-0.219610
H485	H	0.234807	0.333267	0.113724
H486	H	0.568140	0.666600	0.447057
H487	H	-0.562701	-0.443906	-0.183658
H488	H	-0.229368	-0.110572	0.149675
H489	H	0.103965	0.222761	0.483008
N490	N	0.177347	-0.000037	-0.178048
N491	N	0.510680	0.333297	0.155285
N492	N	0.844013	0.666630	0.488618
H493	H	0.218407	-0.000038	-0.169660
H494	H	0.551740	0.333295	0.163673
H495	H	0.885074	0.666628	0.497007
H496	H	0.170059	-0.036505	-0.200849
H497	H	0.503392	0.296828	0.132484
H498	H	0.836725	0.630162	0.465818
N499	N	-0.673099	0.165046	0.364169
N500	N	-0.339766	0.498379	0.697502
N501	N	-0.006432	0.831713	1.030836
H502	H	-0.672771	0.199009	0.392009
H503	H	-0.339438	0.532342	0.725343
H504	H	-0.006104	0.865676	1.058676
H505	H	-0.638082	0.167387	0.334717
H506	H	-0.304749	0.500721	0.668050
H507	H	0.028584	0.834054	1.001384
H508	H	-0.781933	-0.556163	0.035422
H509	H	-0.448599	-0.222830	0.368756
H510	H	-0.115266	0.110504	0.702089
H511	H	-0.601649	-0.159074	-0.144772
H512	H	-0.268316	0.174260	0.188561
H513	H	0.065018	0.507593	0.521895
N514	N	-0.668363	0.111417	0.760853
N515	N	-0.335030	0.444750	1.094186
N516	N	-0.001696	0.778083	1.427520
H517	H	-0.668715	0.145384	0.733029
H518	H	-0.335381	0.478717	1.066362
H519	H	-0.002048	0.812051	1.399696
H520	H	-0.703388	0.113727	0.790298
H521	H	-0.370055	0.447061	1.123631
H522	H	-0.036722	0.780394	1.456965
H523	H	-0.674963	0.097255	0.206525
H524	H	-0.341630	0.430588	0.539858
H525	H	-0.008297	0.763922	0.873191
H526	H	-0.676251	0.097249	0.098758
H527	H	-0.342918	0.430583	0.432091
H528	H	-0.009584	0.763916	0.765424
N529	N	-0.669770	-0.111503	0.637345
N530	N	-0.336437	0.221830	0.970678
N531	N	-0.003103	0.555163	1.304012
H532	H	-0.669428	-0.145472	0.665169
H533	H	-0.336095	0.187861	0.998502
H534	H	-0.002762	0.521195	1.331836
H535	H	-0.705376	-0.113844	0.617514
H536	H	-0.372043	0.219489	0.950847
H537	H	-0.038709	0.552822	1.284180
N538	N	-0.668309	-0.111504	0.760817
N539	N	-0.334976	0.221829	1.094150
N540	N	-0.001643	0.555163	1.427483
H541	H	-0.667811	-0.103362	0.802953
H542	H	-0.334478	0.229971	1.136286
H543	H	-0.001145	0.563305	1.469620
H544	H	-0.703745	-0.134912	0.755239
H545	H	-0.370412	0.198421	1.088573
H546	H	-0.037078	0.531754	1.421906
