data_functionalizedCrystal
_audit_creation_method	'MofGen! by Chris Wilmer'
_symmetry_space_group_name_H-M	'P1'
_symmetry_Int_Tables_number	1
_symmetry_cell_setting	triclinic
loop_
_symmetry_equiv_pos_as_xyz
  x,y,z
_cell_length_a	13.897449
_cell_length_b	16.959453
_cell_length_c	16.959447
_cell_angle_alpha	89.971568
_cell_angle_beta	90.014291
_cell_angle_gamma	89.972745
loop_
_atom_site_label
_atom_site_type_symbol
_atom_site_fract_x
_atom_site_fract_y
_atom_site_fract_z
Zn1	Zn	1.474586	0.314639	0.446918
Zn2	Zn	1.474475	0.446831	0.314744
Zn3	Zn	1.313293	0.314674	0.314756
Zn4	Zn	1.313233	0.446782	0.446883
O5	O	1.393897	0.380732	0.380825
O6	O	1.609553	0.332181	0.429395
O7	O	1.453072	0.429336	0.204135
O8	O	1.334760	0.204058	0.332307
O9	O	1.609471	0.429302	0.332287
O10	O	1.453261	0.204033	0.429407
O11	O	1.334653	0.332240	0.204144
O12	O	1.178304	0.332192	0.332273
O13	O	1.334659	0.429218	0.557499
O14	O	1.178260	0.429252	0.429346
O15	O	1.453204	0.332133	0.557525
O16	O	1.453014	0.557436	0.332253
O17	O	1.334551	0.557400	0.429335
C18	C	1.143282	0.380721	0.380807
C19	C	1.036068	0.380736	0.380818
C20	C	1.393790	0.586098	0.380806
C21	C	1.393833	0.673955	0.380824
C22	C	1.393937	0.380666	0.586994
C23	C	1.393954	0.380638	0.674850
C24	C	0.839773	0.380738	0.380839
C25	C	0.949006	0.380734	0.380825
C26	C	1.645490	0.380743	0.380844
C27	C	1.752704	0.380748	0.380852
C28	C	1.332123	0.715239	0.431336
C29	C	1.455588	0.715224	0.330333
C30	C	1.455634	0.797770	0.330351
C31	C	1.393924	0.839054	0.380864
C32	C	1.332169	0.797792	0.431358
C33	C	1.517396	0.839037	0.279864
C34	C	1.517445	0.921588	0.279881
C35	C	1.455729	0.962874	0.330390
C36	C	1.393970	0.921607	0.380885
C37	C	1.332261	0.962892	0.431397
C38	C	1.270496	0.921626	0.481889
C39	C	1.270454	0.839078	0.481866
C40	C	1.455772	1.045423	0.330412
C41	C	1.332307	1.045445	0.431419
C42	C	1.394024	1.174563	0.380874
C43	C	1.394062	1.086707	0.380925
C44	C	1.393912	0.380740	0.175459
C45	C	1.394082	0.380545	0.087603
C46	C	1.332348	0.431103	1.046315
C47	C	1.455790	0.330007	1.046337
C48	C	1.455765	0.330024	0.963791
C49	C	1.394031	0.380582	0.922503
C50	C	1.332323	0.431123	0.963761
C51	C	1.517478	0.279490	0.922527
C52	C	1.517456	0.279505	0.839976
C53	C	1.455716	0.330059	0.798687
C54	C	1.394005	0.380602	0.839950
C55	C	1.332271	0.431159	0.798662
C56	C	1.270554	0.481698	0.839924
C57	C	1.270583	0.481677	0.922472
C58	C	1.455688	0.330081	0.716138
C59	C	1.332246	0.431179	0.716108
H60	H	1.282054	1.079053	0.472552
H61	H	1.506056	0.288850	1.079959
O62	O	1.522151	0.670688	0.275870
H63	H	1.505686	0.686582	0.213819
O64	O	1.584025	0.224933	0.967055
H65	H	1.573651	0.233393	1.031387
H66	H	1.220257	0.955251	0.523020
O67	O	1.203848	0.794574	0.536329
H68	H	1.214195	0.730237	0.527835
H69	H	1.281832	0.681639	0.472444
O70	O	1.584017	0.224998	0.795475
H71	H	1.567516	0.162957	0.811332
H72	H	1.220340	0.522826	0.956075
O73	O	1.583986	0.794514	0.225413
H74	H	1.573579	0.730181	0.233885
H75	H	1.567736	0.955180	0.238766
H76	H	1.505939	0.288935	0.682547
H77	H	1.220295	0.522866	0.806296
H78	H	1.506065	1.079017	0.289307
H79	H	1.281965	0.472343	0.682498
H80	H	1.282097	0.472248	1.079914
