data_functionalizedCrystal
_audit_creation_method	'MofGen! by Chris Wilmer'
_symmetry_space_group_name_H-M	'P1'
_symmetry_Int_Tables_number	1
_symmetry_cell_setting	triclinic
loop_
_symmetry_equiv_pos_as_xyz
  x,y,z
_cell_length_a	12.827892
_cell_length_b	16.120566
_cell_length_c	12.827885
_cell_angle_alpha	92.921612
_cell_angle_beta	89.970214
_cell_angle_gamma	92.888300
loop_
_atom_site_label
_atom_site_type_symbol
_atom_site_fract_x
_atom_site_fract_y
_atom_site_fract_z
Zn1	Zn	-0.497082	-1.274617	-0.671912
Zn2	Zn	0.002918	-0.774617	-0.171912
Zn3	Zn	-0.671854	-1.274533	-0.497167
Zn4	Zn	-0.171854	-0.774533	0.002833
Zn5	Zn	-0.488262	-1.135195	-0.488318
Zn6	Zn	0.011738	-0.635195	0.011682
Zn7	Zn	-0.662910	-1.135183	-0.663004
Zn8	Zn	-0.162910	-0.635183	-0.163004
O9	O	-0.580027	-1.204882	-0.580100
O10	O	-0.080027	-0.704882	-0.080100
O11	O	-0.527700	-1.391273	-0.656162
O12	O	-0.027700	-0.891273	-0.156162
O13	O	-0.647552	-1.256019	-0.349755
O14	O	-0.147552	-0.756019	0.150245
O15	O	-0.343198	-1.153730	-0.512697
O16	O	0.156802	-0.653730	-0.012697
O17	O	-0.656104	-1.391211	-0.527778
O18	O	-0.156104	-0.891211	-0.027778
O19	O	-0.349678	-1.256163	-0.647582
O20	O	0.150322	-0.756163	-0.147582
O21	O	-0.512668	-1.153648	-0.343254
O22	O	-0.012668	-0.653648	0.156746
O23	O	-0.503995	-1.018527	-0.504060
O24	O	-0.003995	-0.518527	-0.004060
O25	O	-0.640861	-1.153710	-0.810424
O26	O	-0.140861	-0.653710	-0.310424
O27	O	-0.632308	-1.018518	-0.632401
O28	O	-0.132308	-0.518518	-0.132401
O29	O	-0.519027	-1.256151	-0.816968
O30	O	-0.019027	-0.756151	-0.316968
O31	O	-0.816901	-1.256007	-0.519141
O32	O	-0.316901	-0.756007	-0.019141
O33	O	-0.810330	-1.153628	-0.640981
O34	O	-0.310330	-0.653628	-0.140981
C35	C	-0.851534	-1.204830	-0.580078
C36	C	-0.351534	-0.704830	-0.080078
C37	C	-0.967690	-1.204884	-0.580109
C38	C	-0.467690	-0.704884	-0.080109
C39	C	-0.566225	-0.988272	-0.566304
C40	C	-0.066225	-0.488272	-0.066304
C41	C	-0.560345	-0.895605	-0.560427
C42	C	-0.060345	-0.395605	-0.060427
C43	C	-1.022696	-1.255605	-0.519893
C44	C	-0.522696	-0.755605	-0.019893
C45	C	-1.142750	-1.255661	-0.519923
C46	C	-0.642750	-0.755661	-0.019923
C47	C	-0.549587	-0.725942	-0.549706
C48	C	-0.049587	-0.225942	-0.049706
C49	C	-0.610557	-0.684662	-0.610503
C50	C	-0.110557	-0.184662	-0.110503
C51	C	-0.604571	-0.590256	-0.604537
C52	C	-0.104571	-0.090256	-0.104537
C53	C	-0.555571	-0.820357	-0.555670
C54	C	-0.055571	-0.320357	-0.055670
C55	C	-0.307462	-1.204957	-0.580146
C56	C	0.192538	-0.704957	-0.080146
C57	C	-0.191310	-1.204989	-0.580166
C58	C	0.308690	-0.704989	-0.080166
C59	C	-0.579930	-1.204939	-0.852674
C60	C	-0.079930	-0.704939	-0.352674
C61	C	-0.579889	-1.204963	-0.968829
C62	C	-0.079889	-0.704963	-0.468829
C63	C	-0.593887	-0.422338	-0.593933
C64	C	-0.093887	0.077662	-0.093933
C65	C	-0.599802	-0.515005	-0.599785
C66	C	-0.099802	-0.015005	-0.099785
C67	C	-0.519590	-1.255660	-1.023852
C68	C	-0.019590	-0.755660	-0.523852
C69	C	-0.519546	-1.255686	-1.143904
C70	C	-0.019546	-0.755686	-0.643904
C71	C	-0.580051	-1.204874	-0.308590
C72	C	-0.080051	-0.704874	0.191410
C73	C	-0.579808	-1.205011	-0.192446
C74	C	-0.079808	-0.705011	0.307554
H75	H	-1.190040	-1.299083	-0.468367
H76	H	-0.690040	-0.799083	0.031633
H77	H	-0.980911	-1.298990	-0.468321
H78	H	-0.480911	-0.798990	0.031679
H79	H	-1.009477	-1.161506	-0.631689
H80	H	-0.509477	-0.661506	-0.131689
N81	N	-0.644560	-1.150543	-1.133116
N82	N	-0.144560	-0.650543	-0.633116
N83	N	-0.632725	-1.073609	-1.140325
N84	N	-0.132725	-0.573609	-0.640325
H85	H	-0.678454	-1.035139	-1.098417
H86	H	-0.178454	-0.535139	-0.598417
H87	H	-0.667250	-0.720223	-0.667034
H88	H	-0.167250	-0.220223	-0.167034
H89	H	-0.492898	-0.690384	-0.493180
H90	H	0.007102	-0.190384	0.006820
N91	N	-0.644621	-1.150530	-1.021202
N92	N	-0.144621	-0.650530	-0.521202
N93	N	-0.701310	-1.102865	-0.969532
N94	N	-0.201310	-0.602865	-0.469532
H95	H	-0.747027	-1.064418	-1.006517
H96	H	-0.247027	-0.564418	-0.506517
N97	N	-1.131985	-1.150521	-0.644850
N98	N	-0.631985	-0.650521	-0.144850
N99	N	-1.072844	-1.179844	-0.713267
N100	N	-0.572844	-0.679844	-0.213267
H101	H	-1.030938	-1.141378	-0.758952
H102	H	-0.530938	-0.641378	-0.258952
N103	N	-0.454863	-1.310076	-0.971446
N104	N	0.045137	-0.810076	-0.471446
N105	N	-0.454987	-1.309975	-0.873997
N106	N	0.045013	-0.809975	-0.373997
H107	H	-0.409271	-1.348408	-0.836985
H108	H	0.090729	-0.848408	-0.336985
H109	H	-0.467925	-1.299092	-1.191211
H110	H	0.032075	-0.799092	-0.691211
