data_functionalizedCrystal
_audit_creation_method	'MofGen! by Chris Wilmer'
_symmetry_space_group_name_H-M	'P1'
_symmetry_Int_Tables_number	1
_symmetry_cell_setting	triclinic
loop_
_symmetry_equiv_pos_as_xyz
  x,y,z
_cell_length_a	10.723024
_cell_length_b	9.130313
_cell_length_c	10.723024
_cell_angle_alpha	90.000784
_cell_angle_beta	84.467869
_cell_angle_gamma	89.999939
loop_
_atom_site_label
_atom_site_type_symbol
_atom_site_fract_x
_atom_site_fract_y
_atom_site_fract_z
O1	O	1.657182	-0.121786	0.175020
O2	O	2.157182	0.378214	0.675020
O3	O	1.294029	-0.121790	0.191773
O4	O	1.794029	0.378210	0.691773
O5	O	1.483982	-0.121783	0.001820
O6	O	1.983982	0.378217	0.501820
O7	O	1.467229	-0.121794	0.364973
O8	O	1.967229	0.378206	0.864973
O9	O	1.483979	0.121816	0.001829
O10	O	1.983979	0.621816	0.501829
O11	O	1.294026	0.121808	0.191782
O12	O	1.794026	0.621808	0.691782
O13	O	1.657179	0.121813	0.175028
O14	O	2.157179	0.621813	0.675028
Cu15	Cu	1.475602	0.144053	0.183406
Cu16	Cu	1.975602	0.644053	0.683406
Cu17	Cu	1.475606	-0.144031	0.183396
Cu18	Cu	1.975606	0.355969	0.683396
O19	O	1.467226	0.121805	0.364981
O20	O	1.967226	0.621805	0.864981
C21	C	1.247528	0.000008	0.190558
C22	C	1.747528	0.500008	0.690558
C23	C	1.108974	0.000007	0.186911
C24	C	1.608974	0.500007	0.686911
N25	N	1.475609	0.346676	0.183412
N26	N	1.975609	0.846676	0.683412
C27	C	1.033991	0.000002	0.293198
C28	C	1.533991	0.500002	0.793198
C29	C	0.890788	0.000001	0.289431
C30	C	1.390788	0.500001	0.789431
C31	C	1.559741	0.423331	0.099331
C32	C	2.059741	0.923331	0.599331
C33	C	1.559738	0.576668	0.099318
C34	C	2.059738	1.076668	0.599318
C35	C	1.391464	0.576681	0.267479
C36	C	1.891464	1.076681	0.767479
C37	C	1.391463	0.423347	0.267484
C38	C	1.891463	0.923347	0.767484
C39	C	1.643887	0.346661	0.015259
C40	C	2.143887	0.846661	0.515259
C41	C	1.728027	0.423316	-0.068829
C42	C	2.228027	0.923316	0.431171
C43	C	1.728024	0.576653	-0.068841
C44	C	2.228024	1.076653	0.431159
C45	C	1.643879	0.653334	0.015233
C46	C	2.143879	1.153334	0.515233
C47	C	1.703680	0.000011	0.176243
C48	C	2.203680	0.500011	0.676243
C49	C	1.842234	0.000003	0.179891
C50	C	2.342234	0.500003	0.679891
N51	N	1.475606	0.653347	0.183393
N52	N	1.975606	1.153347	0.683393
C53	C	1.482762	0.000015	-0.044675
C54	C	1.982762	0.500015	0.455325
C55	C	1.479114	0.000010	-0.183229
C56	C	1.979114	0.500010	0.316771
C57	C	1.585401	0.000009	-0.258212
C58	C	2.085401	0.500009	0.241788
C59	C	1.581634	0.000004	-0.401415
C60	C	2.081634	0.500004	0.098585
C61	C	1.468447	0.000004	0.411477
C62	C	1.968447	0.500004	0.911477
C63	C	1.472094	-0.000000	0.550031
C64	C	1.972094	0.500000	1.050031
H65	H	1.075814	0.000008	0.386984
H66	H	1.575814	0.500008	0.886984
H67	H	0.906659	-0.000003	0.088896
H68	H	1.406659	0.499997	0.588896
Cl69	Cl	0.791315	-0.000016	0.429921
Cl70	Cl	1.291315	0.499984	0.929921
Cl71	Cl	1.044415	0.000021	0.042105
Cl72	Cl	1.544415	0.500021	0.542105
H73	H	1.679187	0.000019	-0.216390
H74	H	2.179187	0.500019	0.283610
H75	H	1.643900	0.221806	0.015264
H76	H	2.143900	0.721806	0.515264
Cl77	Cl	1.285695	0.673080	0.373169
Cl78	Cl	1.785695	1.173080	0.873169
H79	H	1.796528	0.360874	-0.137286
H80	H	2.296528	0.860874	0.362714
H81	H	1.672624	0.000010	-0.465848
H82	H	2.172624	0.500010	0.034152
H83	H	1.796525	0.639064	-0.137316
H84	H	2.296525	1.139064	0.362684
Cl85	Cl	1.331599	0.000012	-0.350504
Cl86	Cl	1.831599	0.500012	0.149496
Cl87	Cl	1.334308	-0.000007	-0.247788
Cl88	Cl	1.834308	0.499993	0.252212
Cl89	Cl	1.643870	0.846103	0.015200
Cl90	Cl	2.143870	1.346103	0.515200
H91	H	1.322954	0.360933	0.335950
H92	H	1.822954	0.860933	0.835950
