data_functionalizedCrystal
_audit_creation_method	'MofGen! by Chris Wilmer'
_symmetry_space_group_name_H-M	'P1'
_symmetry_Int_Tables_number	1
_symmetry_cell_setting	triclinic
loop_
_symmetry_equiv_pos_as_xyz
  x,y,z
_cell_length_a	17.077404
_cell_length_b	19.077068
_cell_length_c	17.077396
_cell_angle_alpha	92.266197
_cell_angle_beta	89.982756
_cell_angle_gamma	92.327269
loop_
_atom_site_label
_atom_site_type_symbol
_atom_site_fract_x
_atom_site_fract_y
_atom_site_fract_z
Zn1	Zn	1.187457	-0.280191	-0.456376
Zn2	Zn	1.182084	-0.397897	-0.330374
Zn3	Zn	1.056193	-0.280218	-0.325125
Zn4	Zn	1.050874	-0.397853	-0.461596
O5	O	1.119152	-0.339040	-0.393368
O6	O	1.296591	-0.295812	-0.439673
O7	O	1.165362	-0.382315	-0.219832
O8	O	1.078080	-0.181723	-0.338154
O9	O	1.292644	-0.382290	-0.347101
O10	O	1.174519	-0.181704	-0.434583
O11	O	1.072870	-0.295857	-0.215975
O12	O	0.945641	-0.295815	-0.343216
O13	O	1.069014	-0.382216	-0.570749
O14	O	0.941733	-0.382241	-0.443481
O15	O	1.169361	-0.295770	-0.566914
O16	O	1.160205	-0.496382	-0.352163
O17	O	1.063805	-0.496350	-0.448571
C18	C	0.915205	-0.339027	-0.393345
C19	C	0.827954	-0.339038	-0.393355
C20	C	0.784947	-0.384108	-0.445486
C21	C	0.702966	-0.384110	-0.445498
C22	C	0.663995	-0.339044	-0.393376
C23	C	0.707008	-0.293969	-0.341243
C24	C	0.788987	-0.293965	-0.341235
C25	C	0.536137	-0.293983	-0.341263
C26	C	0.454153	-0.293988	-0.341270
C27	C	0.450117	-0.384128	-0.445526
C28	C	0.532096	-0.384124	-0.445518
C29	C	0.575103	-0.339049	-0.393384
C30	C	1.110866	-0.521903	-0.401520
C31	C	1.107393	-0.600133	-0.405034
C32	C	1.155990	-0.636879	-0.356533
C33	C	1.152728	-0.710384	-0.359842
C34	C	1.100864	-0.747143	-0.411651
C35	C	1.052265	-0.710392	-0.460158
C36	C	1.055531	-0.636888	-0.456851
C37	C	1.085713	-0.966977	-0.426921
C38	C	1.082448	-1.040486	-0.430222
C39	C	1.182913	-1.040474	-0.329907
C40	C	1.186172	-0.966968	-0.326602
C41	C	1.137575	-0.930224	-0.375112
N42	N	1.097527	-0.822277	-0.415033
N43	N	1.140917	-0.855091	-0.371733
C44	C	1.323896	-0.339053	-0.393391
C45	C	1.411145	-0.339059	-0.393400
C46	C	1.119194	-0.338985	-0.598110
C47	C	1.119212	-0.338962	-0.685358
C48	C	1.127492	-0.155462	-0.385200
C49	C	1.131046	-0.077232	-0.381720
C50	C	1.071067	-0.293938	-0.724339
C51	C	1.071080	-0.293922	-0.806319
C52	C	1.119243	-0.338927	-0.849316
C53	C	1.167390	-0.383956	-0.810330
C54	C	1.167372	-0.383975	-0.728352
C55	C	1.167426	-0.383912	-0.981198
C56	C	1.167446	-0.383892	-1.063182
C57	C	1.071134	-0.293859	-1.059166
C58	C	1.071116	-0.293878	-0.977187
C59	C	1.119264	-0.338906	-0.938207
C60	C	1.119158	-0.339043	-0.189420
C61	C	1.119301	-0.338868	-0.102163
H62	H	1.198220	-0.606956	-0.314341
O63	O	0.835370	-0.245355	-0.285001
H64	H	0.874348	-0.209577	-0.318599
O65	O	1.019157	-0.245352	-0.848358
H66	H	0.956998	-0.257414	-0.833144
O67	O	1.219363	-0.432471	-0.939149
H68	H	1.252866	-0.463756	-0.982818
O69	O	1.219334	-0.432505	-0.856701
H70	H	1.281486	-0.420449	-0.840430
H71	H	1.031851	-0.257285	-0.689337
H72	H	1.046142	-0.937065	-0.466418
O73	O	0.826980	-0.432712	-0.501707
H74	H	0.783298	-0.464046	-0.537964
O75	O	0.656571	-0.432855	-0.501579
H76	H	0.697440	-0.464246	-0.537762
O77	O	1.019182	-0.245329	-0.930806
H78	H	0.985702	-0.214016	-0.971683
O79	O	1.242105	-0.927327	-0.270713
H80	H	1.236203	-0.870042	-0.276554
O81	O	0.403793	-0.432848	-0.501700
H82	H	0.420086	-0.420931	-0.562819
O83	O	0.574135	-0.432726	-0.501736
H84	H	0.530458	-0.464064	-0.537996
O85	O	1.026513	-1.080137	-0.486109
H86	H	0.993275	-1.042238	-0.519292
O87	O	0.412114	-0.245376	-0.285062
H88	H	0.455791	-0.214024	-0.248818
H89	H	1.206583	-0.420633	-0.696614
O90	O	1.235342	-1.080114	-0.277612
H91	H	1.198754	-1.113666	-0.239154
O92	O	0.582529	-0.245375	-0.285027
H93	H	0.541658	-0.214046	-0.248776
H94	H	1.031931	-0.257194	-1.090908
O95	O	0.664963	-0.245372	-0.285025
H96	H	0.683187	-0.190143	-0.296123
O97	O	1.205139	-0.750020	-0.307526
H98	H	1.241743	-0.712111	-0.270937
O99	O	0.996318	-0.750039	-0.516028
H100	H	1.029934	-0.783485	-0.557497
O101	O	1.003107	-0.597249	-0.509154
H102	H	0.966486	-0.635156	-0.545728
O103	O	1.219386	-0.432436	-1.109563
H104	H	1.252854	-0.463759	-1.068687
