data_functionalizedCrystal
_audit_creation_method	'MofGen! by Chris Wilmer'
_symmetry_space_group_name_H-M	'P1'
_symmetry_Int_Tables_number	1
_symmetry_cell_setting	triclinic
loop_
_symmetry_equiv_pos_as_xyz
  x,y,z
_cell_length_a	14.044191
_cell_length_b	14.044220
_cell_length_c	10.065875
_cell_angle_alpha	99.592716
_cell_angle_beta	80.446775
_cell_angle_gamma	93.190327
loop_
_atom_site_label
_atom_site_type_symbol
_atom_site_fract_x
_atom_site_fract_y
_atom_site_fract_z
O1	O	1.289948	0.217355	-0.113432
O2	O	1.623281	0.550688	0.219901
O3	O	1.956614	0.884022	0.553234
O4	O	1.013277	0.209040	-0.113449
O5	O	1.346611	0.542374	0.219884
O6	O	1.679944	0.875707	0.553217
O7	O	1.147458	0.074863	-0.113428
O8	O	1.480791	0.408197	0.219906
O9	O	1.814125	0.741530	0.553239
O10	O	1.155767	0.351532	-0.113454
O11	O	1.489100	0.684865	0.219879
O12	O	1.822433	1.018199	0.553213
O13	O	1.121881	0.100561	0.113557
O14	O	1.455214	0.433894	0.446890
O15	O	1.788548	0.767228	0.780224
O16	O	0.987700	0.234738	0.113535
O17	O	1.321034	0.568072	0.446869
O18	O	1.654367	0.901405	0.780202
O19	O	1.264371	0.243053	0.113552
O20	O	1.597704	0.576386	0.446886
O21	O	1.931037	0.909719	0.780219
Zn22	Zn	1.121975	0.242976	0.149582
Zn23	Zn	1.455308	0.576309	0.482916
Zn24	Zn	1.788641	0.909642	0.816249
Zn25	Zn	1.155673	0.209118	-0.149480
Zn26	Zn	1.489007	0.542451	0.183854
Zn27	Zn	1.822340	0.875784	0.517187
O28	O	1.130190	0.377230	0.113531
O29	O	1.463523	0.710563	0.446864
O30	O	1.796856	1.043897	0.780197
C31	C	0.964867	0.218252	0.000041
C32	C	1.298200	0.551586	0.333374
C33	C	1.631534	0.884919	0.666708
C34	C	0.858725	0.207404	0.000035
C35	C	1.192058	0.540738	0.333368
C36	C	1.525391	0.874071	0.666701
C37	C	0.613265	0.264506	0.000043
C38	C	0.946598	0.597839	0.333376
C39	C	1.279932	0.931173	0.666710
C40	C	0.664390	0.187590	0.000048
C41	C	0.997723	0.520924	0.333381
C42	C	1.331057	0.854257	0.666715
C43	C	0.772528	0.198618	0.000041
C44	C	1.105861	0.531951	0.333374
C45	C	1.439194	0.865284	0.666707
C46	C	0.505118	0.253480	0.000050
C47	C	0.838451	0.586813	0.333384
C48	C	1.171784	0.920147	0.666717
C49	C	1.131034	0.052090	0.000065
C50	C	1.464367	0.385424	0.333398
C51	C	1.797701	0.718757	0.666732
C52	C	1.120189	-0.054053	0.000066
C53	C	1.453522	0.279281	0.333399
C54	C	1.786856	0.612614	0.666733
C55	C	1.100365	-0.248393	0.000045
C56	C	1.433699	0.084940	0.333379
C57	C	1.767032	0.418274	0.666712
C58	C	1.177280	-0.299521	0.000046
C59	C	1.510613	0.033812	0.333379
C60	C	1.843946	0.367146	0.666712
C61	C	1.166249	-0.407659	0.000034
C62	C	1.499583	-0.074325	0.333367
C63	C	1.832916	0.259008	0.666701
C64	C	1.111394	-0.140246	0.000057
C65	C	1.444727	0.193088	0.333390
C66	C	1.778061	0.526421	0.666723
C67	C	1.312781	0.233840	0.000059
C68	C	1.646115	0.567174	0.333392
C69	C	1.979448	0.900507	0.666726
C70	C	1.418925	0.244687	0.000056
C71	C	1.752258	0.578021	0.333389
C72	C	2.085591	0.911354	0.666723
C73	C	1.146614	0.400002	0.000035
C74	C	1.479948	0.733336	0.333368
C75	C	1.813281	1.066669	0.666702
C76	C	1.157460	0.506144	0.000025
C77	C	1.490793	0.839478	0.333358
C78	C	1.824127	1.172811	0.666692
N79	N	1.098983	0.266083	0.353684
N80	N	1.432316	0.599416	0.687018
N81	N	1.765650	0.932750	1.020351
N82	N	1.178672	0.186003	-0.353581
N83	N	1.512005	0.519337	-0.020248
N84	N	1.845339	0.852670	0.313085
C85	C	1.147667	0.217151	0.421471
C86	C	1.481001	0.550484	0.754804
C87	C	1.814334	0.883817	1.088138
C88	C	1.129980	0.234943	0.578635
C89	C	1.463314	0.568276	0.911969
C90	C	1.796647	0.901609	1.245302
H91	H	0.650708	0.338631	0.000032
H92	H	0.984041	0.671964	0.333365
H93	H	1.317374	1.005298	0.666698
Cl94	Cl	1.045401	0.319959	0.668658
Cl95	Cl	1.378734	0.653292	1.001991
Cl96	Cl	1.712067	0.986626	1.335325
Cl97	Cl	1.014407	0.351096	0.443712
Cl98	Cl	1.347740	0.684429	0.777045
Cl99	Cl	1.681074	1.017762	1.110379
Cl100	Cl	1.232004	0.131901	0.331444
Cl101	Cl	1.565338	0.465234	0.664777
Cl102	Cl	1.898671	0.798568	0.998110
H103	H	1.233447	0.130931	0.588107
H104	H	1.566780	0.464265	0.921440
H105	H	1.900113	0.797598	1.254773
H106	H	1.026238	-0.285833	0.000037
H107	H	1.359572	0.047500	0.333371
H108	H	1.692905	0.380834	0.666704
Cl109	Cl	0.606583	0.073135	0.000058
Cl110	Cl	0.939917	0.406469	0.333391
Cl111	Cl	1.273250	0.739802	0.666724
Cl112	Cl	1.291735	-0.241717	0.000068
Cl113	Cl	1.625069	0.091617	0.333401
Cl114	Cl	1.958402	0.424950	0.666734
