data_functionalizedCrystal
_audit_creation_method	'MofGen! by Chris Wilmer'
_symmetry_space_group_name_H-M	'P1'
_symmetry_Int_Tables_number	1
_symmetry_cell_setting	triclinic
loop_
_symmetry_equiv_pos_as_xyz
  x,y,z
_cell_length_a	19.805407
_cell_length_b	12.594516
_cell_length_c	19.805399
_cell_angle_alpha	89.977527
_cell_angle_beta	89.975799
_cell_angle_gamma	90.011063
loop_
_atom_site_label
_atom_site_type_symbol
_atom_site_fract_x
_atom_site_fract_y
_atom_site_fract_z
Zn1	Zn	1.034804	-0.423788	-0.382827
Zn2	Zn	1.034748	-0.601782	-0.269649
Zn3	Zn	0.921619	-0.423815	-0.269643
Zn4	Zn	0.921611	-0.601723	-0.382787
O5	O	0.978196	-0.512777	-0.326226
O6	O	1.129513	-0.447413	-0.367834
O7	O	1.019721	-0.578210	-0.174932
O8	O	0.936660	-0.274866	-0.284671
O9	O	1.129472	-0.578184	-0.284682
O10	O	1.019817	-0.274846	-0.367827
O11	O	0.936605	-0.447459	-0.174927
O12	O	0.826901	-0.447402	-0.284632
O13	O	0.936647	-0.578083	-0.477509
O14	O	0.826896	-0.578109	-0.367758
O15	O	1.019809	-0.447356	-0.477538
O16	O	1.019713	-0.750719	-0.284643
O17	O	0.936592	-0.750676	-0.367764
C18	C	0.802340	-0.512753	-0.326190
C19	C	0.727108	-0.512768	-0.326191
C20	C	0.265331	-0.580964	-0.369486
C21	C	0.336020	-0.580963	-0.369471
C22	C	0.371346	-0.512803	-0.326253
C23	C	0.335980	-0.444647	-0.283041
C24	C	0.265293	-0.444655	-0.283052
C25	C	0.621053	-0.444615	-0.282993
C26	C	0.691745	-0.444610	-0.282987
C27	C	0.691780	-0.580922	-0.369412
C28	C	0.621093	-0.580930	-0.369424
C29	C	0.585733	-0.512779	-0.326210
C30	C	0.509085	-0.512784	-0.326225
C31	C	0.447993	-0.512792	-0.326241
C32	C	0.978164	-0.789318	-0.326215
C33	C	0.978213	-0.907623	-0.326232
C34	C	1.023475	-0.976861	-0.281071
C35	C	1.040013	-1.047567	-0.342851
C36	C	0.961760	-1.047716	-0.264492
C37	C	0.994782	-0.976771	-0.388045
C38	C	0.916500	-0.976914	-0.309644
C39	C	0.933015	-1.047588	-0.371467
C40	C	1.154738	-0.512802	-0.326263
C41	C	1.229970	-0.512812	-0.326279
C42	C	0.978234	-0.512710	-0.502769
C43	C	0.978250	-0.512681	-0.578001
C44	C	0.978246	-0.235156	-0.326253
C45	C	0.978267	-0.116851	-0.326264
C46	C	1.021553	-0.444608	-0.613362
C47	C	1.021560	-0.444577	-0.684051
C48	C	0.978267	-0.512626	-0.719377
C49	C	0.934958	-0.580702	-0.684011
C50	C	0.934948	-0.580727	-0.613324
C51	C	0.934996	-0.580603	-0.969085
C52	C	0.935011	-0.580575	-1.039777
C53	C	1.021608	-0.444453	-1.039811
C54	C	1.021599	-0.444478	-0.969124
C55	C	0.978288	-0.512550	-0.933764
C56	C	0.978280	-0.512581	-0.857116
C57	C	0.978277	-0.512601	-0.796024
C58	C	0.978197	-0.512767	-0.150370
C59	C	0.978312	-0.512496	-0.075139
H60	H	0.592272	-0.389126	-0.247803
C61	C	0.730086	-0.655098	-0.416289
C62	C	0.712857	-0.760379	-0.401455
C63	C	0.748122	-0.828732	-0.444630
H64	H	0.777254	-0.645483	-0.410136
H65	H	0.718514	-0.639673	-0.461795
H66	H	0.724434	-0.775799	-0.355960
H67	H	0.665695	-0.770027	-0.407612
H68	H	0.736550	-0.813307	-0.490136
H69	H	0.795289	-0.819107	-0.438474
H70	H	0.736433	-0.900172	-0.434576
H71	H	1.008669	-0.945741	-0.440316
H72	H	0.364748	-0.389155	-0.247849
C73	C	0.882096	-1.088686	-0.422572
C74	C	0.899664	-1.052562	-0.487098
C75	C	0.852782	-1.090414	-0.534195
H76	H	0.838344	-1.063446	-0.411241
H77	H	0.882140	-1.164117	-0.422088
H78	H	0.899614	-0.977147	-0.487580
H79	H	0.943409	-1.077799	-0.498450
H80	H	0.852826	-1.165845	-0.533711
H81	H	0.809033	-1.065172	-0.522857
H82	H	0.864699	-1.065918	-0.577981
C83	C	0.846926	-0.935544	-0.290751
C84	C	0.829930	-0.971408	-0.226014
C85	C	0.765848	-0.933306	-0.208575
H86	H	0.814611	-0.960789	-0.322330
H87	H	0.847304	-0.860116	-0.291245
H88	H	0.829547	-1.046821	-0.225524
H89	H	0.862228	-0.946166	-0.194420
H90	H	0.766226	-0.857878	-0.209070
H91	H	0.733538	-0.958554	-0.240158
H92	H	0.754311	-0.957626	-0.164647
H93	H	0.899740	-0.636047	-0.940303
H94	H	0.947821	-1.078878	-0.212265
C95	C	0.226859	-0.654853	-0.416385
C96	C	0.157385	-0.640256	-0.407162
C97	C	0.121925	-0.708298	-0.450360
H98	H	0.238351	-0.726389	-0.406442
H99	H	0.238433	-0.639358	-0.461891
H100	H	0.145815	-0.655759	-0.361666
H101	H	0.145873	-0.568734	-0.417110
H102	H	0.133499	-0.692803	-0.495867
H103	H	0.133422	-0.779830	-0.440413
H104	H	0.074783	-0.698397	-0.444113
C105	C	1.068585	-0.370608	-0.575133
C106	C	1.106496	-0.310965	-0.621234
C107	C	1.149822	-0.242771	-0.586044
H108	H	1.098126	-0.411216	-0.547559
H109	H	1.042713	-0.324180	-0.547570
H110	H	1.132367	-0.357386	-0.648785
H111	H	1.076973	-0.270335	-0.648809
H112	H	1.123949	-0.196343	-0.558482
H113	H	1.179358	-0.283388	-0.558472
H114	H	1.175545	-0.202288	-0.617318
H115	H	1.056824	-0.389147	-0.712838
H116	H	1.056855	-0.389069	-0.940365
H117	H	1.056872	-0.389022	-1.068609
H118	H	1.092225	-1.078605	-0.356899
H119	H	0.899753	-0.635990	-1.068538
H120	H	1.061758	-0.945805	-0.242913
C121	C	0.888025	-0.654542	-0.722485
C122	C	0.897314	-0.639974	-0.791959
C123	C	0.854097	-0.707990	-0.827421
H124	H	0.842521	-0.639029	-0.710972
H125	H	0.897922	-0.726086	-0.710934
H126	H	0.887413	-0.568447	-0.803506
H127	H	0.942809	-0.655496	-0.803493
H128	H	0.863994	-0.779534	-0.815869
H129	H	0.808597	-0.692471	-0.815902
H130	H	0.860399	-0.698122	-0.874562
C131	C	0.887917	-0.654768	-0.575052
C132	C	0.850020	-0.714385	-0.621117
C133	C	0.806695	-0.782617	-0.585886
H134	H	0.858366	-0.614188	-0.547466
H135	H	0.913789	-0.701210	-0.547497
H136	H	0.824150	-0.667948	-0.648659
H137	H	0.879553	-0.754987	-0.648704
H138	H	0.832567	-0.829059	-0.558332
H139	H	0.777149	-0.742028	-0.558301
H140	H	0.780982	-0.823082	-0.617135
H141	H	0.364808	-0.636461	-0.404653
H142	H	0.592334	-0.636429	-0.404619
H143	H	0.236503	-0.389156	-0.247871
C144	C	0.729979	-0.370571	-0.235981
C145	C	0.683884	-0.310911	-0.198123
C146	C	0.719080	-0.242711	-0.154812
H147	H	0.757575	-0.324147	-0.261841
H148	H	0.757520	-0.411210	-0.206411
H149	H	0.656355	-0.270276	-0.227690
H150	H	0.656286	-0.357307	-0.172250
H151	H	0.746620	-0.283350	-0.125241
H152	H	0.746675	-0.196294	-0.180676
H153	H	0.687810	-0.202231	-0.129115
