data_functionalizedCrystal
_audit_creation_method	'MofGen! by Chris Wilmer'
_symmetry_space_group_name_H-M	'P1'
_symmetry_Int_Tables_number	1
_symmetry_cell_setting	triclinic
loop_
_symmetry_equiv_pos_as_xyz
  x,y,z
_cell_length_a	17.019282
_cell_length_b	10.908937
_cell_length_c	9.482900
_cell_angle_alpha	97.015561
_cell_angle_beta	84.538131
_cell_angle_gamma	71.765515
loop_
_atom_site_label
_atom_site_type_symbol
_atom_site_fract_x
_atom_site_fract_y
_atom_site_fract_z
O1	O	1.024314	0.164779	0.007392
O2	O	0.795450	0.180891	-0.021273
O3	O	0.940219	-0.013521	-0.003137
O4	O	0.879545	0.359191	-0.010745
O5	O	0.910792	0.026129	0.234969
O6	O	0.766023	0.220541	0.216833
O7	O	0.994887	0.204428	0.245498
Cu8	Cu	0.877768	0.216105	0.252906
Cu9	Cu	0.912569	0.169214	-0.028682
O10	O	0.850118	0.398841	0.227361
C11	C	0.931176	-0.041431	0.116625
C12	C	0.948063	-0.183664	0.118734
C13	C	0.751897	0.199326	0.094168
C14	C	0.665967	0.195168	0.083405
C15	C	0.903893	-0.380841	0.113197
C16	C	0.886438	-0.233836	0.111014
C17	C	0.609561	0.214825	0.208144
C18	C	0.528824	0.210898	0.198035
C19	C	0.504493	0.187323	0.063187
C20	C	0.560906	0.167661	-0.061561
C21	C	0.641644	0.171579	-0.051451
C22	C	0.261523	0.174405	0.026169
C23	C	0.180778	0.170493	0.016068
C24	C	0.148701	0.213728	0.275666
C25	C	0.229440	0.217651	0.285763
C26	C	0.285848	0.197982	0.161016
C27	C	0.421966	0.183313	0.052851
C28	C	0.368375	0.201983	0.171353
C29	C	1.038440	0.185993	0.130054
C30	C	1.124372	0.190150	0.140807
C31	C	0.859162	0.426749	0.107597
C32	C	0.842276	0.568981	0.105478
N33	N	0.853298	0.249085	0.450961
N34	N	0.937047	0.136225	-0.226735
C35	C	0.905346	0.178935	0.529680
C36	C	0.884991	0.206385	0.694548
H37	H	0.820757	-0.167965	0.102798
C38	C	0.636323	0.240759	0.356479
C39	C	0.664187	0.360395	0.396216
C40	C	0.690948	0.386327	0.544555
C41	C	0.689845	0.292622	0.653157
C42	C	0.661980	0.172978	0.613422
C43	C	0.635219	0.147047	0.465084
H44	H	0.665005	0.429768	0.315820
H45	H	0.711576	0.474896	0.573968
H46	H	0.709655	0.311818	0.762966
H47	H	0.661162	0.103605	0.693818
H48	H	0.614591	0.058478	0.435670
C49	C	0.466782	0.232518	0.335256
C50	C	0.441422	0.361885	0.440813
C51	C	0.379383	0.383500	0.578043
C52	C	0.342703	0.275749	0.609716
C53	C	0.368062	0.146373	0.504157
C54	C	0.430102	0.124757	0.366927
H55	H	0.468575	0.441658	0.417368
H56	H	0.360610	0.479274	0.656184
H57	H	0.296778	0.291749	0.711302
H58	H	0.340910	0.066600	0.527601
H59	H	0.448874	0.028984	0.288785
H60	H	1.013742	-0.249531	0.126964
H61	H	0.969566	-0.446713	0.121430
H62	H	0.102767	0.229739	0.377228
H63	H	0.964976	0.098551	0.475023
H64	H	0.825353	0.286765	0.749201
H65	H	0.776600	-0.365144	0.097263
H66	H	0.996680	0.055836	0.718611
C67	C	0.154018	0.144552	-0.132278
C68	C	0.079703	0.246912	-0.177847
C69	C	0.052943	0.220976	-0.326186
C70	C	0.100498	0.092680	-0.428955
C71	C	0.174817	-0.009690	-0.383387
C72	C	0.201577	0.016246	-0.235049
H73	H	0.044496	0.341893	-0.101769
H74	H	-0.002073	0.296758	-0.359917
H75	H	0.080688	0.073481	-0.538764
H76	H	0.210024	-0.104670	-0.459465
H77	H	0.256594	-0.059535	-0.201318
H78	H	0.249245	0.236842	0.395571
H79	H	0.307442	0.158385	-0.075410
H80	H	0.541092	0.148457	-0.171357
H81	H	0.687569	0.155574	-0.153027
H82	H	0.388190	0.221171	0.281146
H83	H	0.402147	0.164118	-0.056943
H84	H	0.793664	0.329459	0.505620
