data_functionalizedCrystal
_audit_creation_method	'MofGen! by Chris Wilmer'
_symmetry_space_group_name_H-M	'P1'
_symmetry_Int_Tables_number	1
_symmetry_cell_setting	triclinic
loop_
_symmetry_equiv_pos_as_xyz
  x,y,z
_cell_length_a	12.594517
_cell_length_b	12.594516
_cell_length_c	19.076919
_cell_angle_alpha	87.722761
_cell_angle_beta	87.712330
_cell_angle_gamma	90.016010
loop_
_atom_site_label
_atom_site_type_symbol
_atom_site_fract_x
_atom_site_fract_y
_atom_site_fract_z
Zn1	Zn	1.603055	-0.447939	0.397856
Zn2	Zn	1.610107	-0.618783	0.280172
Zn3	Zn	1.432220	-0.440819	0.280187
Zn4	Zn	1.425042	-0.625875	0.397842
O5	O	1.517606	-0.533354	0.339014
O6	O	1.752936	-0.470613	0.382244
O7	O	1.592466	-0.589228	0.181684
O8	O	1.454934	-0.292819	0.295808
O9	O	1.758118	-0.596131	0.295783
O10	O	1.580446	-0.298049	0.382259
O11	O	1.461772	-0.458479	0.181695
O12	O	1.282322	-0.465356	0.295795
O13	O	1.442700	-0.608219	0.496334
O14	O	1.277048	-0.601315	0.382236
O15	O	1.573485	-0.477490	0.496344
O16	O	1.585506	-0.768668	0.295769
O17	O	1.449539	-0.773879	0.382221
C18	C	1.241065	-0.533333	0.339016
C19	C	1.122758	-0.533351	0.339033
C20	C	1.517537	-0.809894	0.339007
C21	C	1.517603	-0.928201	0.339028
C22	C	0.979909	-0.607423	0.385961
C23	C	1.054589	-0.629419	0.321727
C24	C	1.049651	-0.511402	0.403260
C25	C	0.986656	-0.555429	0.274745
C26	C	0.981708	-0.437369	0.356321
C27	C	1.056359	-0.459326	0.292043
C28	C	1.443645	-1.000325	0.386016
C29	C	1.421620	-1.067279	0.321796
C30	C	1.539724	-1.072046	0.403259
C31	C	1.495528	-0.993595	0.274774
C32	C	1.613675	-0.998358	0.356281
C33	C	1.591689	-1.065278	0.292016
C34	C	1.795227	-0.533375	0.339013
C35	C	1.913532	-0.533384	0.339013
C36	C	1.506505	-0.544439	0.522590
C37	C	1.501775	-0.549163	0.600819
C38	C	1.517704	-0.255734	0.339037
C39	C	1.517745	-0.137429	0.339046
C40	C	1.528724	-0.522235	0.156153
C41	C	1.533661	-0.517211	0.077924
C42	C	1.567642	-0.483322	0.637578
C43	C	1.563184	-0.487757	0.711082
C44	C	1.492864	-0.558039	0.747827
C45	C	1.426990	-0.623883	0.711063
C46	C	1.431443	-0.619442	0.637560
C47	C	1.472240	-0.578614	0.967657
C48	C	1.467794	-0.583052	1.041166
C49	C	1.603988	-0.446924	1.041179
C50	C	1.608439	-0.442494	0.967675
C51	C	1.542561	-0.508334	0.930918
N52	N	1.488308	-0.562576	0.822960
N53	N	1.547112	-0.503791	0.855786
H54	H	0.946439	-0.670092	0.425606
H55	H	1.377796	-0.673046	0.607632
C56	C	1.470734	-0.948056	0.202282
C57	C	1.547931	-0.981692	0.153206
C58	C	1.525129	-0.939749	0.086424
H59	H	1.402800	-0.972185	0.189861
H60	H	1.470853	-0.872649	0.202690
H61	H	1.547801	-1.057083	0.152796
H62	H	1.615872	-0.957564	0.165604
H63	H	1.525249	-0.864342	0.086832
H64	H	1.457194	-0.963881	0.074011
H65	H	1.577509	-0.962557	0.053119
H66	H	1.657620	-0.393320	1.071115
C67	C	1.675147	-1.103395	0.239045
C68	C	1.674929	-1.214613	0.240034
C69	C	1.751798	-1.249767	0.191252
H70	H	1.659403	-1.076418	0.193431
H71	H	1.743191	-1.078786	0.250908
H72	H	1.606900	-1.239212	0.228168
H73	H	1.690686	-1.241618	0.285637
H74	H	1.819843	-1.225159	0.203114
H75	H	1.736047	-1.222784	0.145641
H76	H	1.751667	-1.325232	0.191921
H77	H	1.665704	-0.385266	0.937762
C78	C	0.939175	-0.329055	0.375763
C79	C	0.979546	-0.251507	0.327217
C80	C	0.940395	-0.151716	0.345119
H81	H	0.863797	-0.329528	0.375176
H82	H	0.960631	-0.313485	0.421425
H83	H	0.958084	-0.267073	0.281567
H84	H	1.054920	-0.251001	0.327797
H85	H	0.961851	-0.136145	0.390781
H86	H	0.865017	-0.152200	0.344532
H87	H	0.967788	-0.099087	0.312187
H88	H	1.086567	-0.710603	0.307092
H89	H	1.694835	-0.968032	0.370889
C90	C	1.086571	-0.486771	0.475756
C91	C	1.047731	-0.564541	0.524679
C92	C	1.081705	-0.541888	0.591471
H93	H	1.162018	-0.486320	0.475234
H94	H	1.060497	-0.419101	0.488406
H95	H	1.073810	-0.632193	0.512033
H96	H	0.972287	-0.565004	0.525223
H97	H	1.055631	-0.474218	0.604121
H98	H	1.157152	-0.541437	0.590942
H99	H	1.055349	-0.594645	0.624674
H100	H	1.380998	-0.971706	0.425694
H101	H	1.624908	-0.426095	0.607665
H102	H	0.958987	-0.574107	0.220405
H103	H	1.089639	-0.396696	0.252303
H104	H	1.340440	-1.097611	0.307218
H105	H	1.558378	-1.106377	0.457572
H106	H	1.410527	-0.640286	1.071081
H107	H	1.616823	-0.434145	0.741008
C108	C	1.400653	-0.650204	0.927882
C109	C	1.338133	-0.712714	0.975797
C110	C	1.272174	-0.778679	0.939179
H111	H	1.355938	-0.607852	0.899217
H112	H	1.443042	-0.694917	0.899213
H113	H	1.295748	-0.668006	1.004455
H114	H	1.382821	-0.755087	1.004464
H115	H	1.314563	-0.823393	0.910510
H116	H	1.227465	-0.736320	0.910515
H117	H	1.229753	-0.821107	0.971683
H118	H	1.369730	-0.681104	0.740987
