data_functionalizedCrystal
_audit_creation_method	'MofGen! by Chris Wilmer'
_symmetry_space_group_name_H-M	'P1'
_symmetry_Int_Tables_number	1
_symmetry_cell_setting	triclinic
loop_
_symmetry_equiv_pos_as_xyz
  x,y,z
_cell_length_a	18.050589
_cell_length_b	12.759395
_cell_length_c	18.050591
_cell_angle_alpha	89.998793
_cell_angle_beta	90.000604
_cell_angle_gamma	90.028066
loop_
_atom_site_label
_atom_site_type_symbol
_atom_site_fract_x
_atom_site_fract_y
_atom_site_fract_z
Zn1	Zn	-0.295839	1.605956	0.419866
Zn2	Zn	-0.419984	1.605868	0.295685
Zn3	Zn	-0.295812	1.430317	0.295698
Zn4	Zn	-0.419991	1.430205	0.419841
O5	O	-0.357906	1.518087	0.357773
O6	O	-0.312315	1.752965	0.403398
O7	O	-0.403498	1.582592	0.191763
O8	O	-0.191891	1.453700	0.312184
O9	O	-0.403524	1.752901	0.312163
O10	O	-0.191911	1.582741	0.403410
O11	O	-0.312269	1.453615	0.191771
O12	O	-0.312276	1.283281	0.312160
O13	O	-0.403536	1.453508	0.523769
O14	O	-0.403510	1.283199	0.403368
O15	O	-0.312322	1.582632	0.523787
O16	O	-0.523909	1.582483	0.312140
O17	O	-0.523915	1.453423	0.403357
C18	C	-0.357892	1.245119	0.357763
C19	C	-0.357903	1.128342	0.357777
C20	C	-0.263081	1.128390	0.452934
C21	C	-0.215679	1.073553	0.500518
C22	C	-0.215692	0.963831	0.500527
C23	C	-0.263111	0.908944	0.452945
C24	C	-0.310513	0.963781	0.405361
C25	C	-0.310496	1.073505	0.405359
C26	C	-0.405330	0.963734	0.310202
C27	C	-0.405322	1.073455	0.310196
C28	C	-0.452749	0.908847	0.262621
C29	C	-0.500156	0.963684	0.215039
C30	C	-0.500142	1.073412	0.215032
C31	C	-0.452724	1.128292	0.262611
C32	C	-0.550859	1.517960	0.357760
C33	C	-0.633404	1.518002	0.357780
C34	C	-0.832885	1.447888	0.407366
C35	C	-0.882298	1.422307	0.339600
C36	C	-0.784535	1.518105	0.357790
C37	C	-0.882203	1.543738	0.425564
C38	C	-0.930520	1.518203	0.357805
C39	C	-0.832861	1.492473	0.289987
C40	C	-0.832762	1.613949	0.375997
C41	C	-0.882152	1.588404	0.308184
C42	C	-0.700436	1.518046	0.357782
C43	C	-1.014616	1.518262	0.357805
C44	C	-0.164201	1.518243	0.357801
C45	C	-0.081655	1.518309	0.357813
C46	C	-0.357933	1.518067	0.551478
C47	C	-0.357944	1.518059	0.634024
C48	C	-0.357922	1.792120	0.357782
C49	C	-0.357928	1.908897	0.357786
C50	C	-0.407540	1.447833	0.833465
C51	C	-0.425709	1.543670	0.882853
C52	C	-0.357934	1.518064	0.785154
C53	C	-0.339790	1.422233	0.882847
C54	C	-0.357926	1.518060	0.931139
C55	C	-0.376138	1.613951	0.833456
C56	C	-0.290187	1.492450	0.833445
C57	C	-0.308331	1.588353	0.882812
C58	C	-0.357941	1.518064	0.701056
C59	C	-0.357919	1.518069	1.015236
C60	C	-0.357904	1.518088	1.164821
C61	C	-0.357913	1.518066	1.082275
H62	H	-0.177070	1.118254	0.539256
O63	O	-0.804272	1.463680	0.214054
H64	H	-0.824463	1.521681	0.172922
H65	H	-0.538740	1.118054	0.176281
O66	O	-0.463152	1.369264	0.804759
H67	H	-0.434153	1.309332	0.770933
H68	H	-0.232916	1.470751	0.811727
H69	H	-0.452755	0.819505	0.262630
H70	H	-0.811251	1.388421	0.449232
O71	O	-0.263122	0.790601	0.452945
H72	H	-0.222194	0.761691	0.494026
O73	O	-0.910635	1.667120	0.252601
H74	H	-0.890765	1.645637	0.196429
O75	O	-0.804081	1.721348	0.396331
H76	H	-0.823868	1.742455	0.452604
H77	H	-0.538757	0.918986	0.176299
H78	H	-0.452704	1.217634	0.262607
H79	H	-0.177089	0.919183	0.539270
O80	O	-0.911122	1.315004	0.319196
H81	H	-0.891396	1.256814	0.360420
H82	H	-0.324447	1.341192	0.904544
O83	O	-0.910911	1.572415	0.501475
H84	H	-0.891178	1.513962	0.542509
O85	O	-0.263074	1.246733	0.452930
H86	H	-0.247966	1.275668	0.396940
H87	H	-0.482997	1.565340	0.904556
O88	O	-0.396176	1.721476	0.804849
H89	H	-0.395909	1.720675	0.743361
H90	H	-0.266377	1.647811	0.904342
