data_functionalizedCrystal
_audit_creation_method	'MofGen! by Chris Wilmer'
_symmetry_space_group_name_H-M	'P1'
_symmetry_Int_Tables_number	1
_symmetry_cell_setting	triclinic
loop_
_symmetry_equiv_pos_as_xyz
  x,y,z
_cell_length_a	17.077404
_cell_length_b	14.908178
_cell_length_c	17.077404
_cell_angle_alpha	93.309702
_cell_angle_beta	90.008318
_cell_angle_gamma	93.314115
loop_
_atom_site_label
_atom_site_type_symbol
_atom_site_fract_x
_atom_site_fract_y
_atom_site_fract_z
Zn1	Zn	1.181957	-0.359332	0.425789
Zn2	Zn	1.681957	0.140668	0.925789
Zn3	Zn	1.174330	-0.510166	0.286945
Zn4	Zn	1.674330	-0.010166	0.786945
Zn5	Zn	1.050715	-0.359317	0.294538
Zn6	Zn	1.550715	0.140683	0.794538
Zn7	Zn	1.043097	-0.510159	0.418169
Zn8	Zn	1.543097	-0.010159	0.918169
O9	O	1.112525	-0.434743	0.356361
O10	O	1.612525	0.065257	0.856361
O11	O	1.290792	-0.379349	0.407383
O12	O	1.790792	0.120651	0.907383
O13	O	1.157928	-0.490152	0.178106
O14	O	1.657928	0.009848	0.678106
O15	O	1.074505	-0.233067	0.318315
O16	O	1.574505	0.266933	0.818315
O17	O	1.285188	-0.490167	0.305375
O18	O	1.785188	0.009833	0.805375
O19	O	1.170928	-0.233077	0.414745
O20	O	1.670928	0.266923	0.914745
O21	O	1.067109	-0.379324	0.183684
O22	O	1.567109	0.120676	0.683684
O23	O	0.939858	-0.379317	0.310927
O24	O	1.439858	0.120683	0.810927
O25	O	1.061521	-0.490154	0.529027
O26	O	1.561521	0.009846	1.029027
O27	O	0.934261	-0.490140	0.401758
O28	O	1.434261	0.009860	0.901758
O29	O	1.163541	-0.379342	0.534625
O30	O	1.663541	0.120658	1.034625
O31	O	1.150541	-0.636417	0.297986
O32	O	1.650541	-0.136417	0.797986
O33	O	1.054125	-0.636412	0.394396
O34	O	1.554125	-0.136412	0.894396
C35	C	0.908578	-0.434727	0.356340
C36	C	1.408578	0.065273	0.856340
C37	C	0.821327	-0.434742	0.356348
C38	C	1.321327	0.065258	0.856348
C39	C	1.100700	-0.669150	0.344557
C40	C	1.600700	-0.169150	0.844557
C41	C	1.095713	-0.769431	0.339534
C42	C	1.595713	-0.269431	0.839534
C43	C	0.777439	-0.492534	0.403559
C44	C	1.277439	0.007466	0.903559
C45	C	0.695458	-0.492536	0.403572
C46	C	1.195458	0.007464	0.903572
C47	C	0.657367	-0.434749	0.356368
C48	C	1.157367	0.065251	0.856368
C49	C	0.701262	-0.376951	0.309156
C50	C	1.201262	0.123049	0.809156
C51	C	0.783241	-0.376945	0.309148
C52	C	1.283241	0.123055	0.809148
C53	C	0.530391	-0.376968	0.309174
C54	C	1.030391	0.123032	0.809174
C55	C	0.448406	-0.376975	0.309180
C56	C	0.948406	0.123025	0.809180
C57	C	0.442608	-0.492560	0.403597
C58	C	0.942608	0.007440	0.903597
C59	C	0.524587	-0.492554	0.403590
C60	C	1.024587	0.007446	0.903590
C61	C	0.568476	-0.434756	0.356376
C62	C	1.068476	0.065244	0.856376
C63	C	1.186671	-0.957730	0.430614
C64	C	1.686671	-0.457730	0.930614
C65	C	1.181988	-1.051952	0.425897
C66	C	1.681988	-0.551952	0.925897
C67	C	1.081660	-1.052100	0.325387
C68	C	1.581660	-0.552100	0.825387
C69	C	1.086343	-0.957877	0.330104
C70	C	1.586343	-0.457877	0.830104
C71	C	1.138851	-0.910696	0.382719
C72	C	1.638851	-0.410696	0.882719
C73	C	1.143538	-0.816471	0.387431
C74	C	1.643538	-0.316471	0.887431
C75	C	1.043207	-0.816621	0.286925
C76	C	1.543207	-0.316621	0.786925
C77	C	1.038524	-0.910843	0.282208
C78	C	1.538524	-0.410843	0.782208
C79	C	1.317268	-0.434760	0.356382
C80	C	1.817268	0.065240	0.856382
C81	C	1.404518	-0.434768	0.356391
C82	C	1.904518	0.065232	0.856391
C83	C	1.112532	-0.434749	0.561105
C84	C	1.612532	0.065251	1.061105
C85	C	1.112535	-0.434751	0.648354
C86	C	1.612535	0.065249	1.148354
C87	C	1.124417	-0.199421	0.368227
C88	C	1.624417	0.300579	0.868227
C89	C	1.129485	-0.099140	0.373284
C90	C	1.629485	0.400860	0.873284
C91	C	1.165650	-0.377061	0.692260
C92	C	1.665650	0.122939	1.192260
C93	C	1.165644	-0.377060	0.774241
C94	C	1.665644	0.122940	1.274241
C95	C	1.112525	-0.434754	0.812313
C96	C	1.612525	0.065246	1.312313
C97	C	1.059404	-0.492447	0.768402
C98	C	1.559404	0.007553	1.268402
C99	C	1.059408	-0.492443	0.686423
C100	C	1.559408	0.007557	1.186423
C101	C	1.059402	-0.492453	0.939271
C102	C	1.559402	0.007547	1.439271
C103	C	1.059400	-0.492458	1.021256
C104	C	1.559400	0.007542	1.521256
C105	C	1.165638	-0.377070	1.027089
C106	C	1.665638	0.122930	1.527089
C107	C	1.165642	-0.377066	0.945110
C108	C	1.665642	0.122934	1.445110
C109	C	1.112522	-0.434760	0.901204
C110	C	1.612522	0.065240	1.401204
C111	C	1.112512	-0.434761	1.152412
C112	C	1.612512	0.065239	1.652412
C113	C	1.112515	-0.434768	1.065162
C114	C	1.612515	0.065232	1.565162
H115	H	0.808446	-0.539594	0.441995
H116	H	1.308446	-0.039594	0.941995
H117	H	1.229430	-0.919313	0.473450
H118	H	1.729430	-0.419313	0.973450
N119	N	1.222933	-0.314833	0.904053
N120	N	1.722933	0.185167	1.404053
H121	H	1.193144	-0.273021	0.872144
H122	H	1.693144	0.226979	1.372144
H123	H	1.257446	-0.351561	0.868238
H124	H	1.757446	0.148439	1.368238
H125	H	1.208889	-0.330092	1.062842
H126	H	1.708889	0.169908	1.562842
H127	H	1.186294	-0.778057	0.430271
H128	H	1.686294	-0.278057	0.930271
N129	N	1.233549	-1.102684	0.477570
N130	N	1.733549	-0.602684	0.977570
H131	H	1.267517	-1.058493	0.511619
H132	H	1.767517	-0.558493	1.011619
H133	H	1.267966	-1.141762	0.443710
H134	H	1.767966	-0.641762	0.943710
N135	N	0.830586	-0.314619	0.258225
N136	N	1.330586	0.185381	0.758225
H137	H	0.866710	-0.272866	0.292287
H138	H	1.366710	0.227134	0.792287
H139	H	0.793968	-0.278072	0.228327
H140	H	1.293968	0.221928	0.728327
N141	N	0.648120	-0.554882	0.454480
N142	N	1.148120	-0.054882	0.954480
H143	H	0.684689	-0.591497	0.484373
H144	H	1.184689	-0.091497	0.984373
H145	H	0.612002	-0.596570	0.420358
H146	H	1.112002	-0.096570	0.920358
N147	N	1.222949	-0.314842	0.651197
N148	N	1.722949	0.185158	1.151197
H149	H	1.214019	-0.250377	0.668707
H150	H	1.714019	0.249623	1.168707
H151	H	1.214863	-0.323676	0.592612
H152	H	1.714863	0.176324	1.092612
H153	H	1.038908	-1.090531	0.282554
H154	H	1.538908	-0.590531	0.782554
N155	N	0.981897	-0.961734	0.225459
N156	N	1.481897	-0.461734	0.725459
H157	H	0.986186	-1.028561	0.229736
H158	H	1.486186	-0.528561	0.729736
H159	H	0.994989	-0.945274	0.170235
H160	H	1.494989	-0.445274	0.670235
H161	H	1.016149	-0.539411	0.650676
H162	H	1.516149	-0.039411	1.150676
N163	N	0.991630	-0.765893	0.235257
N164	N	1.491630	-0.265893	0.735257
H165	H	1.002564	-0.699043	0.246225
H166	H	1.502564	-0.199043	0.746225
H167	H	0.934736	-0.782410	0.246590
H168	H	1.434736	-0.282410	0.746590
N169	N	1.002110	-0.554684	1.062323
N170	N	1.502110	-0.054684	1.562323
H171	H	0.968455	-0.591228	1.022071
H172	H	1.468455	-0.091228	1.522071
H173	H	0.967644	-0.517952	1.098185
H174	H	1.467644	-0.017952	1.598185
H175	H	1.016152	-0.539419	0.799407
H176	H	1.516152	-0.039419	1.299407
H177	H	0.417395	-0.329910	0.270753
H178	H	0.917395	0.170090	0.770753
N179	N	1.002109	-0.554685	0.891920
N180	N	1.502109	-0.054685	1.391920
H181	H	1.031900	-0.596494	0.855804
H182	H	1.531900	-0.096494	1.355804
H183	H	0.967597	-0.517955	0.859798
H184	H	1.467597	-0.017955	1.359798
H185	H	0.555598	-0.539614	0.442022
H186	H	1.055598	-0.039614	0.942022
H187	H	0.566123	-0.329895	0.270734
H188	H	1.066123	0.170105	0.770734
H189	H	0.670242	-0.329896	0.270725
H190	H	1.170242	0.170104	0.770725
N191	N	0.395276	-0.554903	0.454519
N192	N	0.895276	-0.054903	0.954519
H193	H	0.363118	-0.518314	0.492801
H194	H	0.863118	-0.018314	0.992801
H195	H	0.431898	-0.591500	0.484362
H196	H	0.931898	-0.091500	0.984362
H197	H	1.208897	-0.330085	0.809986
H198	H	1.708897	0.169915	1.309986
