data_functionalizedCrystal
_audit_creation_method	'MofGen! by Chris Wilmer'
_symmetry_space_group_name_H-M	'P1'
_symmetry_Int_Tables_number	1
_symmetry_cell_setting	triclinic
loop_
_symmetry_equiv_pos_as_xyz
  x,y,z
_cell_length_a	10.489741
_cell_length_b	13.339070
_cell_length_c	8.965430
_cell_angle_alpha	90.000013
_cell_angle_beta	89.994421
_cell_angle_gamma	79.915766
loop_
_atom_site_label
_atom_site_type_symbol
_atom_site_fract_x
_atom_site_fract_y
_atom_site_fract_z
O1	O	1.743026	-0.143089	0.123939
O2	O	1.376429	-0.156520	0.123961
O3	O	1.517654	-0.002235	0.123948
O4	O	1.601801	-0.297375	0.123952
O5	O	1.517665	-0.002239	-0.124131
O6	O	1.376440	-0.156525	-0.124118
O7	O	1.743037	-0.143094	-0.124140
Cu8	Cu	1.559740	-0.149810	-0.146780
Cu9	Cu	1.559727	-0.149804	0.146602
O10	O	1.601812	-0.297379	-0.124127
C11	C	1.328555	-0.155508	-0.000075
C12	C	1.185887	-0.152473	-0.000066
C13	C	1.503446	0.035556	-0.000088
C14	C	1.461077	0.148166	-0.000080
N15	N	1.559758	-0.149813	-0.353129
C16	C	1.084140	-0.054306	-0.000082
C17	C	1.007883	-0.100677	0.122232
C18	C	1.007936	-0.100705	-0.122355
C19	C	1.111510	-0.198885	0.122348
C20	C	1.111567	-0.198899	-0.122348
C21	C	1.035363	-0.245341	-0.000005
C22	C	1.790911	-0.144106	-0.000100
C23	C	1.933579	-0.147141	-0.000099
C24	C	1.616021	-0.335170	-0.000087
C25	C	1.658390	-0.447780	-0.000086
C26	C	1.790514	0.510559	-0.000101
C27	C	1.830326	0.404756	-0.000117
C28	C	1.738017	0.340604	-0.000107
C29	C	1.605890	0.382264	-0.000082
C30	C	1.566074	0.488077	-0.000077
C31	C	1.513577	0.318122	-0.000084
C32	C	1.381449	0.359782	-0.000058
C33	C	1.341641	0.465585	-0.000053
C34	C	1.433949	0.529738	-0.000062
C35	C	1.553392	0.212309	-0.000088
C36	C	1.328952	0.189827	-0.000065
C37	C	1.289140	0.295630	-0.000048
C38	C	1.625100	-0.078466	-0.450401
C39	C	1.502573	-0.057925	-0.549799
C40	C	1.682217	-0.170289	-0.549859
C41	C	1.437156	-0.129226	-0.450338
C42	C	1.616891	-0.241631	-0.450390
C43	C	1.494293	-0.221128	-0.549742
N44	N	1.559716	-0.149793	0.352951
H45	H	1.106202	0.026394	0.000070
F46	F	1.439371	0.043578	-0.606865
H47	H	1.234054	0.499501	-0.000043
F48	F	1.888740	0.578839	-0.000134
H49	H	1.333521	-0.111811	-0.406807
F50	F	1.817602	-0.192936	-0.607006
H51	H	0.962644	-0.059138	0.225640
F52	F	1.680120	-0.343101	-0.393263
F53	F	1.170365	-0.253132	0.257662
F54	F	1.006906	-0.350932	0.000080
F55	F	1.170728	-0.253150	-0.257516
F56	F	1.780392	0.227999	-0.000120
F57	F	0.948860	-0.046396	-0.257517
H58	H	1.438935	-0.281458	-0.593086
H59	H	1.660971	0.178400	-0.000110
H60	H	1.937903	0.370844	-0.000140
F61	F	1.391584	0.642348	0.000096
H62	H	1.181560	0.329565	-0.000029
H63	H	1.253786	0.137593	-0.000064
H64	H	1.680274	-0.018099	-0.406781
