data_functionalizedCrystal
_audit_creation_method	'MofGen! by Chris Wilmer'
_symmetry_space_group_name_H-M	'P1'
_symmetry_Int_Tables_number	1
_symmetry_cell_setting	triclinic
loop_
_symmetry_equiv_pos_as_xyz
  x,y,z
_cell_length_a	7.190339
_cell_length_b	13.635800
_cell_length_c	7.076105
_cell_angle_alpha	117.701832
_cell_angle_beta	96.843180
_cell_angle_gamma	60.611724
loop_
_atom_site_label
_atom_site_type_symbol
_atom_site_fract_x
_atom_site_fract_y
_atom_site_fract_z
V1	V	0.291769	-2.142715	-0.663521
V2	V	0.791769	-1.642715	-0.163521
O3	O	-0.017451	-2.089376	-0.652442
O4	O	0.482549	-1.589376	-0.152442
O5	O	0.581828	-2.160516	-0.657491
O6	O	1.081828	-1.660516	-0.157491
O7	O	0.285776	-2.155337	-0.953586
O8	O	0.785776	-1.655337	-0.453586
O9	O	0.280650	-2.094591	-0.354297
O10	O	0.780650	-1.594591	0.145703
V11	V	0.254960	-2.374315	-0.626717
V12	V	0.754960	-1.874315	-0.126717
O13	O	0.372511	-2.295634	-0.744255
O14	O	0.872511	-1.795634	-0.244255
O15	O	0.174218	-2.446495	-0.545983
O16	O	0.674218	-1.946495	-0.045983
O17	O	-0.035098	-2.244911	-0.632747
O18	O	0.464902	-1.744911	-0.132747
O19	O	0.564180	-2.486353	-0.637796
O20	O	1.064180	-1.986353	-0.137796
O21	O	0.266079	-2.481138	-0.935941
O22	O	0.766079	-1.981138	-0.435941
O23	O	0.260954	-2.250090	-0.336651
O24	O	0.760954	-1.750090	0.163349
V25	V	0.254960	-1.874308	-0.626717
V26	V	0.754960	-1.374308	-0.126717
O27	O	0.266079	-1.922433	-0.935941
O28	O	0.766079	-1.422433	-0.435941
O29	O	0.260954	-1.861686	-0.336651
O30	O	0.760954	-1.361686	0.163349
O31	O	-0.035098	-1.856507	-0.632747
O32	O	0.464902	-1.356507	-0.132747
O33	O	0.564180	-1.927647	-0.637796
O34	O	1.064180	-1.427647	-0.137796
V35	V	0.291769	-1.642708	-0.663521
V36	V	0.791769	-1.142708	-0.163521
O37	O	0.174218	-1.721389	-0.545983
O38	O	0.674218	-1.221389	-0.045983
O39	O	0.372511	-1.570528	-0.744255
O40	O	0.872511	-1.070528	-0.244255
O41	O	0.285776	-1.766933	-0.953586
O42	O	0.785776	-1.266933	-0.453586
O43	O	0.280650	-1.535885	-0.354297
O44	O	0.780650	-1.035885	0.145703
O45	O	-0.017451	-1.530670	-0.652442
O46	O	0.482549	-1.030670	-0.152442
O47	O	0.581828	-1.772112	-0.657491
O48	O	1.081828	-1.272112	-0.157491
C49	C	0.652587	-2.092052	-0.646649
C50	C	1.152587	-1.592052	-0.146649
C51	C	0.894162	-2.148539	-0.643600
C52	C	1.394162	-1.648539	-0.143600
C53	C	0.274928	-2.088911	-0.024334
C54	C	0.774928	-1.588911	0.475666
C55	C	0.271834	-2.151677	-0.265902
C56	C	0.771834	-1.651677	0.234098
C57	C	0.271791	-1.931578	-0.265890
C58	C	0.771791	-1.431578	0.234110
C59	C	0.274821	-1.879373	-0.024312
C60	C	0.774821	-1.379373	0.475688
C61	C	-0.105844	-1.924977	-0.643602
C62	C	0.394156	-1.424977	-0.143602
C63	C	-0.347414	-1.868497	-0.646677
C64	C	0.152586	-1.368497	-0.146677
