data_functionalizedCrystal
_audit_creation_method	'MofGen! by Chris Wilmer'
_symmetry_space_group_name_H-M	'P1'
_symmetry_Int_Tables_number	1
_symmetry_cell_setting	triclinic
loop_
_symmetry_equiv_pos_as_xyz
  x,y,z
_cell_length_a	18.101398
_cell_length_b	18.101397
_cell_length_c	18.101390
_cell_angle_alpha	89.964458
_cell_angle_beta	89.975319
_cell_angle_gamma	90.015732
loop_
_atom_site_label
_atom_site_type_symbol
_atom_site_fract_x
_atom_site_fract_y
_atom_site_fract_z
Zn1	Zn	1.132178	-0.294895	-0.418825
Zn2	Zn	1.382178	-0.044895	-0.168825
Zn3	Zn	1.632178	0.205105	0.081175
Zn4	Zn	1.882178	0.455105	0.331175
Zn5	Zn	1.132096	-0.418752	-0.294978
Zn6	Zn	1.382096	-0.168752	-0.044978
Zn7	Zn	1.632096	0.081248	0.205022
Zn8	Zn	1.882096	0.331248	0.455022
Zn9	Zn	1.008337	-0.294918	-0.294986
Zn10	Zn	1.258337	-0.044918	-0.044986
Zn11	Zn	1.508337	0.205082	0.205014
Zn12	Zn	1.758337	0.455082	0.455014
Zn13	Zn	1.008311	-0.418689	-0.418767
Zn14	Zn	1.258311	-0.168689	-0.168767
Zn15	Zn	1.508311	0.081311	0.081233
Zn16	Zn	1.758311	0.331311	0.331233
O17	O	1.070231	-0.356813	-0.356889
O18	O	1.320231	-0.106813	-0.106889
O19	O	1.570231	0.143187	0.143111
O20	O	1.820231	0.393187	0.393111
O21	O	1.235800	-0.311341	-0.402418
O22	O	1.485800	-0.061341	-0.152418
O23	O	1.735800	0.188659	0.097582
O24	O	1.985800	0.438659	0.347582
O25	O	1.115656	-0.402361	-0.191346
O26	O	1.365656	-0.152361	0.058654
O27	O	1.615656	0.097639	0.308654
O28	O	1.865656	0.347639	0.558654
O29	O	1.024809	-0.191282	-0.311442
O30	O	1.274809	0.058718	-0.061442
O31	O	1.524809	0.308718	0.188558
O32	O	1.774809	0.558718	0.438558
O33	O	1.235740	-0.402338	-0.311428
O34	O	1.485740	-0.152338	-0.061428
O35	O	1.735740	0.097662	0.188572
O36	O	1.985740	0.347662	0.438572
O37	O	1.115795	-0.191265	-0.402426
O38	O	1.365795	0.058735	-0.152426
O39	O	1.615795	0.308735	0.097574
O40	O	1.865795	0.558735	0.347574
O41	O	1.024730	-0.311381	-0.191352
O42	O	1.274730	-0.061381	0.058648
O43	O	1.524730	0.188619	0.308648
O44	O	1.774730	0.438619	0.558648
O45	O	0.904700	-0.311320	-0.311385
O46	O	1.154700	-0.061320	-0.061385
O47	O	1.404700	0.188680	0.188615
O48	O	1.654700	0.438680	0.438615
O49	O	1.024766	-0.402231	-0.522407
O50	O	1.274766	-0.152231	-0.272407
O51	O	1.524766	0.097769	-0.022407
O52	O	1.774766	0.347769	0.227593
O53	O	0.904682	-0.402254	-0.402326
O54	O	1.154682	-0.152254	-0.152326
O55	O	1.404682	0.097746	0.097674
O56	O	1.654682	0.347746	0.347674
O57	O	1.115771	-0.311280	-0.522450
O58	O	1.365771	-0.061280	-0.272450
O59	O	1.615771	0.188720	-0.022450
O60	O	1.865771	0.438720	0.227550
O61	O	1.115631	-0.522376	-0.311371
O62	O	1.365631	-0.272376	-0.061371
O63	O	1.615631	-0.022376	0.188629
O64	O	1.865631	0.227624	0.438629
O65	O	1.024686	-0.522330	-0.402318
O66	O	1.274686	-0.272330	-0.152318
O67	O	1.524686	-0.022330	0.097682
O68	O	1.774686	0.227670	0.347682
C69	C	0.877820	-0.356783	-0.356850
C70	C	1.127820	-0.106783	-0.106850
C71	C	1.377820	0.143217	0.143150
C72	C	1.627820	0.393217	0.393150
C73	C	0.795506	-0.356788	-0.356851
C74	C	1.045506	-0.106788	-0.106851
C75	C	1.295506	0.143212	0.143149
C76	C	1.545506	0.393212	0.393149
C77	C	0.496415	-0.356835	-0.356914
C78	C	0.746415	-0.106835	-0.106914
C79	C	0.996415	0.143165	0.143086
C80	C	1.246415	0.393165	0.393086
C81	C	0.527727	-0.299336	-0.299975
C82	C	0.777727	-0.049336	-0.049975
C83	C	1.027727	0.200664	0.200025
C84	C	1.277727	0.450664	0.450025
C85	C	0.613345	-0.299490	-0.299732
C86	C	0.863345	-0.049490	-0.049732
C87	C	1.113345	0.200510	0.200268
C88	C	1.363345	0.450510	0.450268
C89	C	0.644798	-0.356811	-0.356883
C90	C	0.894798	-0.106811	-0.106883
C91	C	1.144798	0.143189	0.143117
C92	C	1.394798	0.393189	0.393117
C93	C	0.613694	-0.434824	-0.335555
C94	C	0.863694	-0.184824	-0.085555
C95	C	1.113694	0.065176	0.164445
C96	C	1.363694	0.315176	0.414445
C97	C	0.528049	-0.434505	-0.335159
C98	C	0.778049	-0.184505	-0.085159
C99	C	1.028049	0.065495	0.164841
C100	C	1.278049	0.315495	0.414841
C101	C	0.528026	-0.336998	-0.435314
C102	C	0.778026	-0.086998	-0.185314
C103	C	1.028026	0.163002	0.064686
C104	C	1.278026	0.413002	0.314686
C105	C	0.613677	-0.335261	-0.434886
C106	C	0.863677	-0.085261	-0.184886
C107	C	1.113677	0.164739	0.065114
C108	C	1.363677	0.414739	0.315114
C109	C	0.728657	-0.356802	-0.356867
C110	C	0.978657	-0.106802	-0.106867
C111	C	1.228657	0.143198	0.143133
C112	C	1.478657	0.393198	0.393133
C113	C	0.412556	-0.356848	-0.356928
C114	C	0.662556	-0.106848	-0.106928
C115	C	0.912556	0.143152	0.143072
C116	C	1.162556	0.393152	0.393072
C117	C	1.070167	-0.549224	-0.356853
C118	C	1.320167	-0.299224	-0.106853
C119	C	1.570167	-0.049224	0.143147
C120	C	1.820167	0.200776	0.393147
C121	C	1.070208	-0.631538	-0.356863
C122	C	1.320208	-0.381538	-0.106863
C123	C	1.570208	-0.131538	0.143137
C124	C	1.820208	0.118462	0.393137
C125	C	1.070302	-0.930629	-0.356930
C126	C	1.320302	-0.680629	-0.106930
C127	C	1.570302	-0.430629	0.143070
C128	C	1.820302	-0.180629	0.393070
C129	C	1.127363	-0.899302	-0.299555
C130	C	1.377363	-0.649302	-0.049555
C131	C	1.627363	-0.399302	0.200445
C132	C	1.877363	-0.149302	0.450445
C133	C	1.127560	-0.813684	-0.299704
C134	C	1.377560	-0.563684	-0.049704
C135	C	1.627560	-0.313684	0.200296
C136	C	1.877560	-0.063684	0.450296
C137	C	1.070256	-0.782246	-0.356896
C138	C	1.320256	-0.532246	-0.106896
C139	C	1.570256	-0.282246	0.143104
C140	C	1.820256	-0.032246	0.393104
C141	C	1.091412	-0.813249	-0.434959
C142	C	1.341412	-0.563249	-0.184959
C143	C	1.591412	-0.313249	0.065041
C144	C	1.841412	-0.063249	0.315041
C145	C	1.091854	-0.898894	-0.434646
C146	C	1.341854	-0.648894	-0.184646
C147	C	1.591854	-0.398894	0.065354
C148	C	1.841854	-0.148894	0.315354
C149	C	0.991933	-0.899133	-0.336918
C150	C	1.241933	-0.649133	-0.086918
C151	C	1.491933	-0.399133	0.163082
C152	C	1.741933	-0.149133	0.413082
C153	C	0.992321	-0.813484	-0.335175
C154	C	1.242321	-0.563484	-0.085175
C155	C	1.492321	-0.313484	0.164825
C156	C	1.742321	-0.063484	0.414825
C157	C	1.070228	-0.698387	-0.356881
C158	C	1.320228	-0.448387	-0.106881
C159	C	1.570228	-0.198387	0.143119
C160	C	1.820228	0.051613	0.393119
C161	C	1.070332	-1.014488	-0.356950
C162	C	1.320332	-0.764488	-0.106950
C163	C	1.570332	-0.514488	0.143050
C164	C	1.820332	-0.264488	0.393050
C165	C	1.263392	-0.356844	-0.356928
C166	C	1.513392	-0.106844	-0.106928
C167	C	1.763392	0.143156	0.143072
C168	C	2.013392	0.393156	0.393072
C169	C	1.345707	-0.356857	-0.356945
C170	C	1.595707	-0.106857	-0.106945
C171	C	1.845707	0.143143	0.143055
C172	C	2.095707	0.393143	0.393055
C173	C	1.070275	-0.356746	-0.550051
C174	C	1.320275	-0.106746	-0.300051
C175	C	1.570275	0.143254	-0.050051
C176	C	1.820275	0.393254	0.199949
C177	C	1.070293	-0.356717	-0.632365
C178	C	1.320293	-0.106717	-0.382365
C179	C	1.570293	0.143283	-0.132365
C180	C	1.820293	0.393283	0.117635
C181	C	1.070314	-0.163652	-0.356941
C182	C	1.320314	0.086348	-0.106941
C183	C	1.570314	0.336348	0.143059
C184	C	1.820314	0.586348	0.393059
C185	C	1.070350	-0.081337	-0.356964
C186	C	1.320350	0.168663	-0.106964
C187	C	1.570350	0.418663	0.143036
C188	C	1.820350	0.668663	0.393036
C189	C	1.070333	-0.356671	-0.931456
C190	C	1.320333	-0.106671	-0.681456
C191	C	1.570333	0.143329	-0.431456
C192	C	1.820333	0.393329	-0.181456
C193	C	1.127780	-0.299648	-0.900158
C194	C	1.377780	-0.049648	-0.650158
C195	C	1.627780	0.200352	-0.400158
C196	C	1.877780	0.450352	-0.150158
C197	C	1.127600	-0.299437	-0.814540
C198	C	1.377600	-0.049437	-0.564540
C199	C	1.627600	0.200563	-0.314540
C200	C	1.877600	0.450563	-0.064540
C201	C	1.070314	-0.356694	-0.783074
C202	C	1.320314	-0.106694	-0.533074
C203	C	1.570314	0.143306	-0.283074
C204	C	1.820314	0.393306	-0.033074
C205	C	0.992293	-0.335484	-0.814141
C206	C	1.242293	-0.085484	-0.564141
C207	C	1.492293	0.164516	-0.314141
C208	C	1.742293	0.414516	-0.064141
C209	C	0.992637	-0.335057	-0.899787
C210	C	1.242637	-0.085057	-0.649787
C211	C	1.492637	0.164943	-0.399787
C212	C	1.742637	0.414943	-0.149787
C213	C	1.090221	-0.435050	-0.899867
C214	C	1.340221	-0.185050	-0.649867
C215	C	1.590221	0.064950	-0.399867
C216	C	1.840221	0.314950	-0.149867
C217	C	1.091933	-0.434650	-0.814217
C218	C	1.341933	-0.184650	-0.564217
C219	C	1.591933	0.065350	-0.314217
C220	C	1.841933	0.315350	-0.064217
C221	C	1.070299	-0.356708	-0.699214
C222	C	1.320299	-0.106708	-0.449214
C223	C	1.570299	0.143292	-0.199214
C224	C	1.820299	0.393292	0.050786
C225	C	1.070344	-0.356655	-1.015316
C226	C	1.320344	-0.106655	-0.765316
C227	C	1.570344	0.143345	-0.515316
C228	C	1.820344	0.393345	-0.265316
C229	C	1.070229	-0.356827	-0.164479
C230	C	1.320229	-0.106827	0.085521
C231	C	1.570229	0.143173	0.335521
C232	C	1.820229	0.393173	0.585521
C233	C	1.070354	-0.356648	-0.082165
C234	C	1.320354	-0.106648	0.167835
C235	C	1.570354	0.143352	0.417835
C236	C	1.820354	0.393352	0.667835
H237	H	0.507146	-0.241309	-0.313197
H238	H	0.757146	0.008691	-0.063197
H239	H	1.007146	0.258691	0.186803
H240	H	1.257146	0.508691	0.436803
H241	H	0.508040	-0.451326	-0.277844
H242	H	0.758040	-0.201326	-0.027844
H243	H	1.008040	0.048674	0.222156
H244	H	1.258040	0.298674	0.472156
F245	F	0.640086	-0.316627	-0.223799
F246	F	0.890086	-0.066627	0.026201
F247	F	1.140086	0.183373	0.276201
F248	F	1.390086	0.433373	0.526201
F249	F	0.971465	-0.787006	-0.260089
F250	F	1.221465	-0.537006	-0.010089
F251	F	1.471465	-0.287006	0.239911
F252	F	1.721465	-0.037006	0.489911
H253	H	0.506444	-0.281101	-0.454705
H254	H	0.756444	-0.031101	-0.204705
H255	H	1.006444	0.218899	0.045295
H256	H	1.256444	0.468899	0.295295
F257	F	1.166983	-0.455554	-0.787682
F258	F	1.416983	-0.205554	-0.537682
F259	F	1.666983	0.044446	-0.287682
F260	F	1.916983	0.294446	-0.037682
H261	H	1.185612	-0.793144	-0.312946
H262	H	1.435612	-0.543144	-0.062946
H263	H	1.685612	-0.293144	0.187054
H264	H	1.935612	-0.043144	0.437054
H265	H	1.185454	-0.312720	-0.793536
H266	H	1.435454	-0.062720	-0.543536
H267	H	1.685454	0.187280	-0.293536
H268	H	1.935454	0.437280	-0.043536
H269	H	0.634067	-0.478814	-0.375728
H270	H	0.884067	-0.228814	-0.125728
H271	H	1.134067	0.021186	0.124272
H272	H	1.384067	0.271186	0.374272
F273	F	1.203647	-0.316791	-0.927095
F274	F	1.453647	-0.066791	-0.677095
F275	F	1.703647	0.183209	-0.427095
F276	F	1.953647	0.433209	-0.177095
H277	H	0.947519	-0.792092	-0.373903
H278	H	1.197519	-0.542092	-0.123903
H279	H	1.447519	-0.292092	0.126097
H280	H	1.697519	-0.042092	0.376097
F281	F	1.039884	-0.925978	-0.492422
F282	F	1.289884	-0.675978	-0.242422
F283	F	1.539884	-0.425978	0.007578
F284	F	1.789884	-0.175978	0.257578
H285	H	0.507778	-0.378878	-0.477738
H286	H	0.757778	-0.128878	-0.227738
H287	H	1.007778	0.121122	0.022262
H288	H	1.257778	0.371122	0.272262
H289	H	0.972687	-0.920797	-0.280981
H290	H	1.222687	-0.670797	-0.030981
H291	H	1.472687	-0.420797	0.219019
H292	H	1.722687	-0.170797	0.469019
F293	F	0.936364	-0.925614	-0.391536
F294	F	1.186364	-0.675614	-0.141536
F295	F	1.436364	-0.425614	0.108464
F296	F	1.686364	-0.175614	0.358464
H297	H	1.048383	-0.477538	-0.920111
H298	H	1.298383	-0.227538	-0.670111
H299	H	1.548383	0.022462	-0.420111
H300	H	1.798383	0.272462	-0.170111
H301	H	0.948329	-0.375737	-0.793757
H302	H	1.198329	-0.125737	-0.543757
H303	H	1.448329	0.124263	-0.293757
H304	H	1.698329	0.374263	-0.043757
F305	F	0.641685	-0.457194	-0.261449
F306	F	0.891685	-0.207194	-0.011449
F307	F	1.141685	0.042806	0.238551
F308	F	1.391685	0.292806	0.488551
H309	H	0.634010	-0.277852	-0.450968
H310	H	0.884010	-0.027852	-0.200968
H311	H	1.134010	0.222148	0.049032
H312	H	1.384010	0.472148	0.299032
H313	H	0.635090	-0.374088	-0.479583
H314	H	0.885090	-0.124088	-0.229583
H315	H	1.135090	0.125912	0.020417
H316	H	1.385090	0.375912	0.270417
F317	F	1.110221	-0.786288	-0.224057
F318	F	1.360221	-0.536288	0.025943
F319	F	1.610221	-0.286288	0.275943
F320	F	1.860221	-0.036288	0.525943
H321	H	1.114781	-0.241908	-0.921697
H322	H	1.364781	0.008092	-0.671697
H323	H	1.614781	0.258092	-0.421697
H324	H	1.864781	0.508092	-0.171697
F325	F	1.166728	-0.924936	-0.456801
F326	F	1.416728	-0.674936	-0.206801
F327	F	1.666728	-0.424936	0.043199
F328	F	1.916728	-0.174936	0.293199
H329	H	1.051123	-0.792882	-0.478857
H330	H	1.301123	-0.542882	-0.228857
H331	H	1.551123	-0.292882	0.021143
H332	H	1.801123	-0.042882	0.271143
F333	F	0.499551	-0.316270	-0.224486
F334	F	0.749551	-0.066270	0.025514
F335	F	0.999551	0.183730	0.275514
F336	F	1.249551	0.433730	0.525514
F337	F	0.934782	-0.386971	-0.926848
F338	F	1.184782	-0.136971	-0.676848
F339	F	1.434782	0.113029	-0.426848
F340	F	1.684782	0.363029	-0.176848
F341	F	1.110393	-0.223542	-0.787779
F342	F	1.360393	0.026458	-0.537779
F343	F	1.610393	0.276458	-0.287779
F344	F	1.860393	0.526458	-0.037779
F345	F	0.970576	-0.260177	-0.925920
F346	F	1.220576	-0.010177	-0.675920
F347	F	1.470576	0.239823	-0.425920
F348	F	1.720576	0.489823	-0.175920
H349	H	0.507335	-0.478797	-0.374821
H350	H	0.757335	-0.228797	-0.124821
H351	H	1.007335	0.021203	0.125179
H352	H	1.257335	0.271203	0.375179
H353	H	1.114287	-0.919949	-0.241500
H354	H	1.364287	-0.669949	0.008500
H355	H	1.614287	-0.419949	0.258500
H356	H	1.864287	-0.169949	0.508500
F357	F	0.969859	-0.261425	-0.786128
F358	F	1.219859	-0.011425	-0.536128
F359	F	1.469859	0.238575	-0.286128
F360	F	1.719859	0.488575	-0.036128
F361	F	1.041218	-0.493168	-0.786222
F362	F	1.291218	-0.243168	-0.536222
F363	F	1.541218	0.006832	-0.286222
F364	F	1.791218	0.256832	-0.036222
F365	F	1.202827	-0.927364	-0.316664
F366	F	1.452827	-0.677364	-0.066664
F367	F	1.702827	-0.427364	0.183336
F368	F	1.952827	-0.177364	0.433336
F369	F	1.165448	-0.785143	-0.457491
F370	F	1.415448	-0.535143	-0.207491
F371	F	1.665448	-0.285143	0.042509
F372	F	1.915448	-0.035143	0.292509
H373	H	0.634375	-0.241640	-0.313102
H374	H	0.884375	0.008360	-0.063102
H375	H	1.134375	0.258360	0.186898
H376	H	1.384375	0.508360	0.436898
F377	F	1.163309	-0.460264	-0.928112
F378	F	1.413309	-0.210264	-0.678112
F379	F	1.663309	0.039736	-0.428112
F380	F	1.913309	0.289736	-0.178112
