data_functionalizedCrystal
_audit_creation_method	'MofGen! by Chris Wilmer'
_symmetry_space_group_name_H-M	'P1'
_symmetry_Int_Tables_number	1
_symmetry_cell_setting	triclinic
loop_
_symmetry_equiv_pos_as_xyz
  x,y,z
_cell_length_a	13.033286
_cell_length_b	13.897448
_cell_length_c	13.032268
_cell_angle_alpha	82.849629
_cell_angle_beta	105.163409
_cell_angle_gamma	97.150608
loop_
_atom_site_label
_atom_site_type_symbol
_atom_site_fract_x
_atom_site_fract_y
_atom_site_fract_z
Zn1	Zn	1.547440	0.611380	-0.393929
Zn2	Zn	2.047440	1.111380	0.106071
Zn3	Zn	1.569888	0.754515	-0.216339
Zn4	Zn	2.069888	1.254515	0.283661
Zn5	Zn	1.392392	0.575097	-0.238937
Zn6	Zn	1.892392	1.075097	0.261063
Zn7	Zn	1.369803	0.754477	-0.416493
Zn8	Zn	1.869803	1.254477	0.083507
O9	O	1.469881	0.673867	-0.316424
O10	O	1.969881	1.173867	0.183576
O11	O	1.699043	0.645568	-0.351471
O12	O	2.199043	1.145568	0.148529
O13	O	1.565191	0.715546	-0.070707
O14	O	2.065191	1.215546	0.429293
O15	O	1.413019	0.444937	-0.259511
O16	O	1.913019	0.944937	0.240489
O17	O	1.715535	0.750728	-0.220996
O18	O	2.215535	1.250728	0.279004
O19	O	1.526932	0.471594	-0.373383
O20	O	2.026932	0.971594	0.126617
O21	O	1.434786	0.583729	-0.087310
O22	O	1.934786	1.083729	0.412690
O23	O	1.240771	0.583692	-0.281391
O24	O	1.740771	1.083692	0.218609
O25	O	1.374518	0.750663	-0.562129
O26	O	1.874518	1.250663	-0.062129
O27	O	1.224175	0.715481	-0.411840
O28	O	1.724175	1.215481	0.088160
O29	O	1.505028	0.645531	-0.545552
O30	O	2.005028	1.145531	-0.045552
O31	O	1.543287	0.889483	-0.242875
O32	O	2.043287	1.389483	0.257125
O33	O	1.396285	0.889455	-0.389927
O34	O	1.896285	1.389455	0.110073
C35	C	1.193936	0.645646	-0.351517
C36	C	1.693936	1.145646	0.148483
C37	C	1.075882	0.633599	-0.366554
C38	C	1.575882	1.133599	0.133446
C39	C	1.031423	0.680158	-0.308602
C40	C	1.531423	1.180158	0.191398
C41	C	0.909409	0.667707	-0.324143
C42	C	1.409409	1.167707	0.175857
C43	C	1.469797	0.924471	-0.316417
C44	C	1.969797	1.424471	0.183583
C45	C	1.469853	1.031694	-0.316437
C46	C	1.969853	1.531694	0.183563
C47	C	1.469948	1.228007	-0.316500
C48	C	1.969948	1.728007	0.183500
C49	C	1.469892	1.118765	-0.316469
C50	C	1.969892	1.618765	0.183531
C51	C	1.746903	0.702199	-0.281196
C52	C	2.246903	1.202199	0.218804
C53	C	1.864954	0.714273	-0.266183
C54	C	2.364954	1.214273	0.233817
C55	C	1.434750	0.702140	-0.593456
C56	C	1.934750	1.202140	-0.093456
C57	C	1.419779	0.714189	-0.711511
C58	C	1.919779	1.214189	-0.211511
C59	C	1.469981	1.422291	-0.316465
C60	C	1.969981	1.922291	0.183535
C61	C	1.469996	1.315085	-0.316517
C62	C	1.969996	1.815085	0.183483
C63	C	1.477678	0.667543	-0.755941
C64	C	1.977678	1.167543	-0.255941
C65	C	1.462206	0.679994	-0.877956
C66	C	1.962206	1.179994	-0.377956
C67	C	1.504937	0.645641	-0.040462
C68	C	2.004937	1.145641	0.459538
C69	C	1.520113	0.633342	0.077618
C70	C	2.020113	1.133342	0.577618
H71	H	0.917215	0.763363	-0.205067
H72	H	1.417215	1.263363	0.294933
Cl73	Cl	1.112112	0.755939	-0.214239
Cl74	Cl	1.612112	1.255939	0.285761
H75	H	0.857144	0.618629	-0.385271
H76	H	1.357144	1.118629	0.114729
Cl77	Cl	0.995193	0.557829	-0.460929
Cl78	Cl	1.495193	1.057829	0.039071
H79	H	1.581136	0.584179	-0.870095
H80	H	2.081136	1.084179	-0.370095
Cl81	Cl	1.571871	0.591624	-0.675216
Cl82	Cl	2.071871	1.091624	-0.175216
H83	H	1.401171	0.729144	-0.930247
H84	H	1.901171	1.229144	-0.430247
Cl85	Cl	1.325554	0.790074	-0.792239
Cl86	Cl	1.825554	1.290074	-0.292239
