data_functionalizedCrystal
_audit_creation_method	'MofGen! by Chris Wilmer'
_symmetry_space_group_name_H-M	'P1'
_symmetry_Int_Tables_number	1
_symmetry_cell_setting	triclinic
loop_
_symmetry_equiv_pos_as_xyz
  x,y,z
_cell_length_a	9.130313
_cell_length_b	16.992694
_cell_length_c	16.992695
_cell_angle_alpha	90.668223
_cell_angle_beta	89.998255
_cell_angle_gamma	90.005255
loop_
_atom_site_label
_atom_site_type_symbol
_atom_site_fract_x
_atom_site_fract_y
_atom_site_fract_z
O1	O	0.121617	-1.050846	-0.166913
O2	O	0.621617	-0.550846	0.333087
O3	O	0.121660	-0.822446	-0.165082
O4	O	0.621660	-0.322446	0.334918
O5	O	0.121627	-0.935730	-0.051797
O6	O	0.621627	-0.435730	0.448203
O7	O	0.121650	-0.937562	-0.280197
O8	O	0.621650	-0.437562	0.219803
O9	O	-0.121972	-0.935729	-0.051800
O10	O	0.378028	-0.435729	0.448200
O11	O	-0.121939	-0.822445	-0.165085
O12	O	0.378061	-0.322445	0.334915
O13	O	-0.121982	-1.050845	-0.166916
O14	O	0.378018	-0.550845	0.333084
Cu15	Cu	-0.144203	-0.936644	-0.166001
Cu16	Cu	0.355797	-0.436644	0.333999
Cu17	Cu	0.143881	-0.936646	-0.165997
Cu18	Cu	0.643881	-0.436646	0.334003
O19	O	-0.121949	-0.937560	-0.280200
O20	O	0.378051	-0.437560	0.219800
C21	C	-0.000134	-0.793085	-0.162727
C22	C	0.499866	-0.293085	0.337273
C23	C	-0.000118	-0.705600	-0.155699
C24	C	0.499882	-0.205600	0.344301
N25	N	-0.346825	-0.936649	-0.166003
N26	N	0.153175	-0.436649	0.333997
C27	C	-0.000172	-0.933374	-0.022439
C28	C	0.499828	-0.433374	0.477561
C29	C	-0.000170	-0.926345	0.065046
C30	C	0.499830	-0.426345	0.565046
C31	C	-0.423492	-0.986826	-0.115860
C32	C	0.076508	-0.486826	0.384140
C33	C	-0.576829	-0.986823	-0.115850
C34	C	-0.076829	-0.486823	0.384150
C35	C	-0.576819	-0.886465	-0.216134
C36	C	-0.076819	-0.386465	0.283866
C37	C	-0.423485	-0.886464	-0.216139
C38	C	0.076515	-0.386464	0.283861
C39	C	-0.346832	-1.037011	-0.065724
C40	C	0.153168	-0.537011	0.434276
C41	C	-0.423499	-1.087193	-0.015577
C42	C	0.076501	-0.587193	0.484423
C43	C	-0.576836	-1.087191	-0.015567
C44	C	-0.076836	-0.587191	0.484433
C45	C	-0.653506	-1.037006	-0.065705
C46	C	-0.153506	-0.537006	0.434295
N47	N	0.346504	-0.936647	-0.165989
N48	N	0.846504	-0.436647	0.334011
C49	C	-0.000184	-1.080205	-0.169270
C50	C	0.499816	-0.580205	0.330730
C51	C	-0.000191	-1.167690	-0.176299
C52	C	0.499809	-0.667690	0.323701
C53	C	-0.000112	-0.659610	-0.223517
C54	C	0.499888	-0.159610	0.276483
C55	C	-0.000133	-0.577409	-0.216908
C56	C	0.499867	-0.077409	0.283092
C57	C	-0.000149	-0.541201	-0.142480
C58	C	0.499851	-0.041201	0.357520
C59	C	-0.000159	-0.587198	-0.074657
C60	C	0.499841	-0.087198	0.425343
C61	C	-0.000148	-0.669397	-0.081267
C62	C	0.499852	-0.169397	0.418733
C63	C	-0.000191	-0.295886	-0.115086
C64	C	0.499809	0.204114	0.384914
C65	C	-0.000197	-0.213681	-0.108481
C66	C	0.499803	0.286319	0.391519
C67	C	-0.000173	-0.203898	-0.250732
C68	C	0.499827	0.296102	0.249268
C69	C	-0.000154	-0.286099	-0.257336
C70	C	0.499846	0.213901	0.242664
C71	C	-0.000172	-0.332089	-0.189512
C72	C	0.499828	0.167911	0.310488
N73	N	-0.000166	-0.457178	-0.135723
N74	N	0.499834	0.042822	0.364277
N75	N	-0.000166	-0.416110	-0.196270
N76	N	0.499834	0.083890	0.303730
C77	C	-0.000147	-0.939917	-0.309559
C78	C	0.499853	-0.439917	0.190441
C79	C	-0.000139	-0.946945	-0.397044
C80	C	0.499861	-0.446945	0.102956
C81	C	-0.000184	-0.994163	0.111037
C82	C	0.499816	-0.494163	0.611037
C83	C	-0.000169	-0.987554	0.193238
C84	C	0.499831	-0.487554	0.693238
C85	C	-0.000150	-0.913127	0.229446
C86	C	0.499850	-0.413127	0.729446
C87	C	-0.000131	-0.845303	0.183449
C88	C	0.499869	-0.345303	0.683449
C89	C	-0.000136	-0.851913	0.101250
C90	C	0.499864	-0.351913	0.601250
C91	C	-0.000125	-0.885732	0.474760
C92	C	0.499875	-0.385732	0.974760
C93	C	-0.000124	-0.879127	0.556966
C94	C	0.499876	-0.379127	1.056966
C95	C	-0.000159	-1.021379	0.566749
C96	C	0.499841	-0.521379	1.066749
C97	C	-0.000173	-1.027982	0.484547
C98	C	0.499827	-0.527982	0.984547
C99	C	-0.000146	-0.960159	0.438558
C100	C	0.499854	-0.460159	0.938558
N101	N	-0.000139	-0.906369	0.313468
N102	N	0.499861	-0.406369	0.813468
N103	N	-0.000147	-0.966917	0.354537
N104	N	0.499853	-0.466917	0.854537
H105	H	-0.221978	-1.037020	-0.065728
H106	H	0.278022	-0.537020	0.434272
H107	H	-0.000152	-0.706842	-0.026042
H108	H	0.499848	-0.206842	0.473958
Cl109	Cl	-0.000223	-1.087734	0.065526
Cl110	Cl	0.499777	-0.587734	0.565526
H111	H	-0.000124	-0.796688	0.063804
H112	H	0.499876	-0.296688	0.563804
Cl113	Cl	-0.000188	-0.541678	0.018910
Cl114	Cl	0.499812	-0.041678	0.518910
H115	H	-0.361062	-0.845604	-0.256970
H116	H	0.138938	-0.345604	0.243030
H117	H	-0.000124	-0.315574	-0.317942
H118	H	0.499876	0.184426	0.182058
Cl119	Cl	-0.673215	-1.150268	0.047479
Cl120	Cl	-0.173215	-0.650268	0.547479
Cl121	Cl	-0.000191	-1.072816	0.251052
Cl122	Cl	0.499809	-0.572816	0.751052
Cl123	Cl	-0.000149	-1.121552	0.439035
Cl124	Cl	0.499851	-0.621552	0.939035
H125	H	-0.000178	-1.076596	0.604202
H126	H	0.499822	-0.576596	1.104202
Cl127	Cl	-0.000109	-0.785554	0.602483
Cl128	Cl	0.499891	-0.285554	1.102483
H129	H	-0.361066	-1.128047	0.025248
H130	H	0.138934	-0.628047	0.525248
Cl131	Cl	-0.846274	-1.036999	-0.065682
Cl132	Cl	-0.346274	-0.536999	0.434318
H133	H	-0.000126	-0.539966	-0.272133
H134	H	0.499874	-0.039966	0.227867
H135	H	-0.639254	-0.845607	-0.256955
H136	H	-0.139254	-0.345607	0.243045
Cl137	Cl	-0.000088	-0.800468	0.416955
Cl138	Cl	0.499912	-0.300468	0.916955
Cl139	Cl	-0.000082	-0.705120	-0.317088
Cl140	Cl	0.499918	-0.205120	0.182912
H141	H	-0.000162	-0.166444	-0.305950
H142	H	0.499838	0.333556	0.194050
H143	H	-0.000208	-0.184203	-0.047870
H144	H	0.499792	0.315797	0.452130
Cl145	Cl	-0.000212	-0.353691	-0.029821
Cl146	Cl	0.499788	0.146309	0.470179
Cl147	Cl	-0.000089	-0.751737	0.228968
Cl148	Cl	0.499911	-0.251737	0.728968
