data_functionalizedCrystal
_audit_creation_method	'MofGen! by Chris Wilmer'
_symmetry_space_group_name_H-M	'P1'
_symmetry_Int_Tables_number	1
_symmetry_cell_setting	triclinic
loop_
_symmetry_equiv_pos_as_xyz
  x,y,z
_cell_length_a	9.065215
_cell_length_b	10.723023
_cell_length_c	8.140239
_cell_angle_alpha	90.002155
_cell_angle_beta	90.000939
_cell_angle_gamma	84.741123
loop_
_atom_site_label
_atom_site_type_symbol
_atom_site_fract_x
_atom_site_fract_y
_atom_site_fract_z
O1	O	1.959358	0.182966	0.136590
O2	O	2.459358	0.682966	0.636590
O3	O	1.529988	0.197979	0.136598
O4	O	2.029988	0.697979	0.636598
O5	O	1.754578	0.008937	0.136587
O6	O	2.254578	0.508937	0.636587
O7	O	1.734768	0.372009	0.136601
O8	O	2.234768	0.872009	0.636601
O9	O	1.754570	0.008935	-0.136640
O10	O	2.254570	0.508935	0.363360
O11	O	1.529980	0.197978	-0.136630
O12	O	2.029980	0.697978	0.363370
O13	O	1.959351	0.182965	-0.136637
O14	O	2.459351	0.682965	0.363363
Zn15	Zn	1.744664	0.190471	-0.180014
Zn16	Zn	2.244664	0.690471	0.319986
Zn17	Zn	1.744674	0.190473	0.179975
Zn18	Zn	2.244674	0.690473	0.679975
O19	O	1.734761	0.372008	-0.136626
O20	O	2.234761	0.872008	0.363374
C21	C	1.475005	0.196537	-0.000015
C22	C	1.975005	0.696537	0.499985
C23	C	1.311187	0.192225	-0.000012
C24	C	1.811187	0.692225	0.499988
C25	C	1.753133	-0.037569	-0.000025
C26	C	2.253133	0.462431	0.499975
C27	C	1.748820	-0.176141	-0.000019
C28	C	2.248820	0.323859	0.499981
C29	C	1.746902	-0.237914	0.141523
C30	C	2.246902	0.262086	0.641523
C31	C	1.742445	-0.381135	0.141532
C32	C	2.242445	0.118865	0.641532
C33	C	2.014333	0.184408	-0.000020
C34	C	2.514333	0.684408	0.499980
C35	C	2.178152	0.188719	-0.000012
C36	C	2.678152	0.688719	0.499988
C37	C	1.736206	0.418514	-0.000011
C38	C	2.236206	0.918514	0.499989
C39	C	1.740518	0.557086	-0.000005
C40	C	2.240518	1.057086	0.499995
N41	N	1.744669	0.190469	-0.425696
N42	N	2.244669	0.690469	0.074304
N43	N	1.744681	0.190465	0.425657
N44	N	2.244681	0.690465	0.925657
H45	H	1.748552	-0.184769	0.262695
H46	H	2.248552	0.315231	0.762695
Cl47	Cl	1.739909	-0.463147	0.328634
Cl48	Cl	2.239909	0.036853	0.828634
H49	H	1.742176	-0.389800	-0.121191
H50	H	2.242176	0.110200	0.378809
Cl51	Cl	1.746251	-0.258181	-0.187111
Cl52	Cl	2.246251	0.241819	0.312889
