data_functionalizedCrystal
_audit_creation_method	'MofGen! by Chris Wilmer'
_symmetry_space_group_name_H-M	'P1'
_symmetry_Int_Tables_number	1
_symmetry_cell_setting	triclinic
loop_
_symmetry_equiv_pos_as_xyz
  x,y,z
_cell_length_a	10.654562
_cell_length_b	15.944551
_cell_length_c	9.730223
_cell_angle_alpha	89.997716
_cell_angle_beta	89.996961
_cell_angle_gamma	83.994421
loop_
_atom_site_label
_atom_site_type_symbol
_atom_site_fract_x
_atom_site_fract_y
_atom_site_fract_z
O1	O	1.666298	0.118024	-0.114384
O2	O	1.300676	0.129252	-0.114367
O3	O	1.493471	0.001421	-0.114363
O4	O	1.473502	0.245855	-0.114387
O5	O	1.493469	0.001425	0.114217
O6	O	1.300674	0.129256	0.114213
O7	O	1.666295	0.118027	0.114196
Zn8	Zn	1.483484	0.123642	0.150497
Zn9	Zn	1.483487	0.123638	-0.150667
O10	O	1.473500	0.245858	0.114193
C11	C	1.253888	0.128427	-0.000075
C12	C	1.114477	0.125954	-0.000068
C13	C	1.048960	0.124802	0.124521
C14	C	0.917968	0.122485	0.124498
C15	C	0.918021	0.122475	-0.124713
C16	C	1.049012	0.124786	-0.124688
C17	C	1.048928	0.124811	0.268400
C18	C	0.917936	0.122494	0.268378
C19	C	1.492641	-0.029876	-0.000073
C20	C	1.490156	-0.123136	-0.000072
C21	C	1.364712	-0.338723	-0.000085
C22	C	1.422963	-0.399400	0.112616
C23	C	1.485660	-0.293888	-0.000082
C24	C	1.422993	-0.399386	-0.112746
C25	C	1.481308	-0.458826	-0.000098
C26	C	1.543944	-0.353337	0.112712
C27	C	1.543957	-0.353317	-0.112752
C28	C	1.602296	-0.413976	-0.000023
C29	C	1.488163	-0.198872	-0.000072
C30	C	1.478814	-0.553842	-0.000099
C31	C	1.713084	0.118852	-0.000099
C32	C	1.852494	0.121325	-0.000115
C33	C	1.474330	0.277155	-0.000100
C34	C	1.476816	0.370416	-0.000110
N35	N	1.483491	0.123644	0.356033
N36	N	1.483490	0.123628	-0.356204
C37	C	1.568883	0.067060	0.427961
C38	C	1.568880	0.067050	0.571844
C39	C	1.398089	0.180215	0.571859
C40	C	1.398088	0.180221	0.427978
C41	C	1.667491	0.001727	0.427953
C42	C	1.667488	0.001717	0.571836
H43	H	0.870898	0.180545	0.323608
C44	C	1.529780	-0.076655	0.295296
C45	C	1.639648	-0.085422	0.375233
H46	H	1.512593	-0.130455	0.262746
H47	H	1.460994	-0.052789	0.349543
H48	H	1.541254	-0.040786	0.219371
H49	H	1.628171	-0.121286	0.451164
H50	H	1.708450	-0.109300	0.320983
C51	C	1.783999	0.028024	0.223967
C52	C	1.790196	0.029388	0.367684
H53	H	1.859741	0.045121	0.186762
H54	H	1.773773	-0.027507	0.193810
H55	H	1.714291	0.065547	0.193863
H56	H	1.859899	-0.008140	0.397789
H57	H	1.800436	0.084928	0.397854
H58	H	1.264320	-0.305999	0.000032
C59	C	1.035903	0.124532	-0.371021
C60	C	1.121031	0.126042	-0.261639
H61	H	1.080367	0.125311	-0.455571
H62	H	0.994372	0.074739	-0.365829
H63	H	0.975248	0.172531	-0.365854
H64	H	1.181681	0.078039	-0.266800
H65	H	1.162582	0.175840	-0.266834
H66	H	1.637764	-0.059294	0.616459
C67	C	1.416060	-0.402580	0.359195
C68	C	1.353910	-0.426954	0.241244
H69	H	1.373418	-0.419585	0.438599
H70	H	1.500436	-0.428591	0.359305
H71	H	1.416455	-0.343031	0.359683
H72	H	1.353522	-0.486504	0.240752
H73	H	1.269512	-0.400946	0.241135
H74	H	1.328545	0.226289	0.369416
H75	H	1.595071	-0.332891	-0.208041
C76	C	1.229537	-0.388547	-0.241135
C77	C	1.353918	-0.426904	-0.241373
H78	H	1.186892	-0.405530	-0.320545
H79	H	1.187401	-0.405096	-0.161114
H80	H	1.229968	-0.329001	-0.241607
H81	H	1.353488	-0.486451	-0.240891
H82	H	1.396065	-0.410360	-0.321415
H83	H	1.595056	-0.333048	0.208096
H84	H	1.328555	0.226278	0.630452
C85	C	1.851042	-0.046375	0.704492
C86	C	1.797515	0.021147	0.624564
H87	H	1.931314	-0.034380	0.737037
H88	H	1.797527	-0.054374	0.780407
H89	H	1.860604	-0.096160	0.650228
H90	H	1.787945	0.070931	0.678830
H91	H	1.851043	0.029156	0.548638
H92	H	1.702777	-0.446550	0.000036
C93	C	1.153730	0.248841	0.229243
C94	C	1.087800	0.207502	0.328673
H95	H	1.177721	0.299893	0.266453
H96	H	1.227031	0.213589	0.202415
H97	H	1.101138	0.261089	0.151438
H98	H	1.140395	0.195249	0.406475
H99	H	1.014488	0.242762	0.355521
H100	H	0.864703	0.121524	-0.226174
H101	H	0.889140	0.061236	0.313030
C102	C	1.019884	-0.003396	0.388186
C103	C	1.112403	0.046448	0.342982
H104	H	1.059074	-0.051775	0.434218
H105	H	0.964129	0.028333	0.449526
H106	H	0.973716	-0.020561	0.311464
H107	H	1.158565	0.063619	0.419705
H108	H	1.168180	0.014714	0.281638
