data_functionalizedCrystal
_audit_creation_method	'MofGen! by Chris Wilmer'
_symmetry_space_group_name_H-M	'P1'
_symmetry_Int_Tables_number	1
_symmetry_cell_setting	triclinic
loop_
_symmetry_equiv_pos_as_xyz
  x,y,z
_cell_length_a	14.519709
_cell_length_b	19.288864
_cell_length_c	13.596369
_cell_angle_alpha	90.019175
_cell_angle_beta	89.993066
_cell_angle_gamma	96.591805
loop_
_atom_site_label
_atom_site_type_symbol
_atom_site_fract_x
_atom_site_fract_y
_atom_site_fract_z
O1	O	0.115045	-0.921763	-0.082109
O2	O	0.448378	-0.588430	0.251224
O3	O	0.781712	-0.255096	0.584558
O4	O	0.130564	-0.719558	-0.082042
O5	O	0.463898	-0.386225	0.251291
O6	O	0.797231	-0.052892	0.584625
O7	O	-0.011468	-0.826022	-0.082068
O8	O	0.321866	-0.492688	0.251265
O9	O	0.655199	-0.159355	0.584598
O10	O	0.257077	-0.815299	-0.082083
O11	O	0.590411	-0.481966	0.251251
O12	O	0.923744	-0.148633	0.584584
O13	O	-0.011475	-0.826011	0.081514
O14	O	0.321858	-0.492678	0.414848
O15	O	0.655192	-0.159344	0.748181
O16	O	0.130557	-0.719548	0.081541
O17	O	0.463890	-0.386214	0.414874
O18	O	0.797224	-0.052881	0.748208
O19	O	0.115038	-0.921752	0.081474
O20	O	0.448371	-0.588419	0.414807
O21	O	0.781704	-0.255086	0.748141
Zn22	Zn	0.122796	-0.820648	0.107480
Zn23	Zn	0.456130	-0.487315	0.440813
Zn24	Zn	0.789463	-0.153982	0.774146
Zn25	Zn	0.122806	-0.820662	-0.108048
Zn26	Zn	0.456139	-0.487329	0.225286
Zn27	Zn	0.789473	-0.153996	0.558619
O28	O	0.257070	-0.815289	0.081500
O29	O	0.590403	-0.481955	0.414834
O30	O	0.923737	-0.148622	0.748167
C31	C	-0.045828	-0.825517	-0.000277
C32	C	0.287505	-0.492183	0.333057
C33	C	0.620839	-0.158850	0.666390
C34	C	-0.148200	-0.824019	-0.000276
C35	C	0.185134	-0.490686	0.333058
C36	C	0.518467	-0.157353	0.666391
C37	C	0.130061	-0.693675	-0.000242
C38	C	0.463395	-0.360341	0.333091
C39	C	0.796728	-0.027008	0.666425
C40	C	0.128562	-0.616566	-0.000216
C41	C	0.461896	-0.283232	0.333117
C42	C	0.795229	0.050101	0.666451
C43	C	0.115541	-0.947636	-0.000328
C44	C	0.448874	-0.614303	0.333005
C45	C	0.782207	-0.280969	0.666338
C46	C	0.117040	-1.024745	-0.000361
C47	C	0.450373	-0.691412	0.332973
C48	C	0.783706	-0.358078	0.666306
C49	C	-0.523061	-0.818507	-0.000299
C50	C	-0.189727	-0.485173	0.333034
C51	C	0.143606	-0.151840	0.666367
C52	C	-0.418762	-0.820037	-0.000292
C53	C	-0.085429	-0.486704	0.333041
C54	C	0.247904	-0.153371	0.666374
C55	C	-0.335633	-0.821263	-0.000287
C56	C	-0.002300	-0.487929	0.333047
C57	C	0.331033	-0.154596	0.666380
C58	C	-0.231329	-0.822794	-0.000281
C59	C	0.102005	-0.489461	0.333052
C60	C	0.435338	-0.156127	0.666385
C61	C	0.291430	-0.815794	-0.000294
C62	C	0.624764	-0.482461	0.333040
C63	C	0.958097	-0.149127	0.666373
C64	C	0.393802	-0.817291	-0.000301
C65	C	0.727135	-0.483958	0.333032
C66	C	1.060469	-0.150625	0.666366
N67	N	0.122789	-0.820644	0.254572
N68	N	0.456122	-0.487310	0.587905
N69	N	0.789456	-0.153977	0.921238
C70	C	0.211900	-0.572169	-0.000236
C71	C	0.545234	-0.238836	0.333097
C72	C	0.878567	0.094497	0.666431
C73	C	0.210492	-0.499717	-0.000247
C74	C	0.543825	-0.166384	0.333087
C75	C	0.877159	0.166950	0.666420
C76	C	0.125741	-0.471665	-0.000257
C77	C	0.459074	-0.138331	0.333076
C78	C	0.792408	0.195002	0.666409
C79	C	0.042392	-0.516071	-0.000232
C80	C	0.375725	-0.182737	0.333101
C81	C	0.709059	0.150596	0.666435
C82	C	0.043803	-0.588521	-0.000211
C83	C	0.377136	-0.255188	0.333122
C84	C	0.710469	0.078145	0.666455
C85	C	0.059120	-0.363167	-0.057597
C86	C	0.392453	-0.029833	0.275736
C87	C	0.725787	0.303500	0.609069
C88	C	0.057713	-0.290717	-0.057624
C89	C	0.391046	0.042616	0.275709
C90	C	0.724379	0.375950	0.609043
C91	C	0.121387	-0.248203	-0.000317
C92	C	0.454720	0.085130	0.333017
C93	C	0.788053	0.418463	0.666350
C94	C	0.186483	-0.278147	0.057005
C95	C	0.519817	0.055187	0.390338
C96	C	0.853150	0.388520	0.723671
C97	C	0.187894	-0.350597	0.057025
C98	C	0.521227	-0.017264	0.390359
C99	C	0.854561	0.316070	0.723692
C100	C	0.124202	-0.393105	-0.000279
C101	C	0.457535	-0.059772	0.333054
C102	C	0.790869	0.273562	0.666387
C103	C	0.203203	-0.125246	-0.000347
C104	C	0.536537	0.208088	0.332986
C105	C	0.869870	0.541421	0.666320
C106	C	0.201792	-0.052792	-0.000352
C107	C	0.535125	0.280541	0.332982
C108	C	0.868458	0.613874	0.666315
C109	C	0.033689	-0.069148	-0.000347
C110	C	0.367023	0.264186	0.332987
C111	C	0.700356	0.597519	0.666320
C112	C	0.035103	-0.141599	-0.000332
C113	C	0.368437	0.191734	0.333001
C114	C	0.701770	0.525067	0.666335
C115	C	0.119863	-0.169644	-0.000337
C116	C	0.453196	0.163690	0.332996
C117	C	0.786530	0.497023	0.666330
N118	N	0.122806	-0.820672	-0.255140
N119	N	0.456139	-0.487339	0.078194
N120	N	0.789473	-0.154006	0.411527
C121	C	0.122807	-0.820661	0.655862
C122	C	0.456140	-0.487328	0.989196
C123	C	0.789474	-0.153995	1.322529
C124	C	0.122805	-0.820654	0.544211
C125	C	0.456138	-0.487321	0.877544
C126	C	0.789472	-0.153988	1.210878
C127	C	0.122799	-0.820653	0.455221
C128	C	0.456132	-0.487320	0.788554
C129	C	0.789465	-0.153986	1.121887
C130	C	0.122795	-0.820645	0.343562
C131	C	0.456129	-0.487312	0.676895
C132	C	0.789462	-0.153979	1.010229
H133	H	0.280918	-0.594998	-0.000242
H134	H	0.614252	-0.261665	0.333092
H135	H	0.947585	0.071669	0.666425
H136	H	0.272220	-0.148080	-0.000336
H137	H	0.605553	0.185253	0.332997
H138	H	0.938886	0.518586	0.666330
F139	F	-0.053598	-0.188851	-0.000316
F140	F	0.279736	0.144482	0.333017
F141	F	0.613069	0.477815	0.666351
F142	F	0.290496	-0.005542	-0.000368
F143	F	0.623830	0.327792	0.332966
F144	F	0.957163	0.661125	0.666299
F145	F	-0.008656	-0.408407	-0.118595
F146	F	0.324677	-0.075073	0.214738
F147	F	0.658011	0.258260	0.548072
H148	H	0.278358	-0.463563	-0.000260
H149	H	0.611691	-0.130229	0.333073
H150	H	0.945025	0.203104	0.666406
H151	H	0.238332	-0.243533	0.103671
H152	H	0.571666	0.089800	0.437004
H153	H	0.904999	0.423134	0.770337
H154	H	-0.035317	-0.046308	-0.000416
H155	H	0.298017	0.287025	0.332917
H156	H	0.631350	0.620358	0.666250
H157	H	0.004711	-0.266343	-0.104302
H158	H	0.338044	0.066991	0.229031
H159	H	0.671378	0.400324	0.562364
H160	H	0.240895	-0.374974	0.103701
H161	H	0.574229	-0.041641	0.437035
H162	H	0.907562	0.291693	0.770368
H163	H	-0.026613	-0.493226	-0.000254
H164	H	0.306720	-0.159893	0.333079
H165	H	0.640054	0.173441	0.666412
H166	H	-0.024063	-0.624670	-0.000196
H167	H	0.309270	-0.291336	0.333138
H168	H	0.642603	0.041997	0.666471
