data_functionalizedCrystal
_audit_creation_method	'MofGen! by Chris Wilmer'
_symmetry_space_group_name_H-M	'P1'
_symmetry_Int_Tables_number	1
_symmetry_cell_setting	triclinic
loop_
_symmetry_equiv_pos_as_xyz
  x,y,z
_cell_length_a	19.805407
_cell_length_b	12.759394
_cell_length_c	19.805399
_cell_angle_alpha	89.976033
_cell_angle_beta	89.980427
_cell_angle_gamma	90.014837
loop_
_atom_site_label
_atom_site_type_symbol
_atom_site_fract_x
_atom_site_fract_y
_atom_site_fract_z
Zn1	Zn	1.034790	-0.418291	-0.382737
Zn2	Zn	1.034728	-0.593984	-0.269556
Zn3	Zn	0.921605	-0.418320	-0.269561
Zn4	Zn	0.921591	-0.593928	-0.382702
O5	O	0.978178	-0.506131	-0.326139
O6	O	1.129498	-0.441608	-0.367735
O7	O	1.019701	-0.570717	-0.174840
O8	O	0.936651	-0.271295	-0.284591
O9	O	1.129453	-0.570689	-0.284581
O10	O	1.019808	-0.271274	-0.367740
O11	O	0.936590	-0.441658	-0.174844
O12	O	0.826886	-0.441603	-0.284558
O13	O	0.936628	-0.570594	-0.477423
O14	O	0.826876	-0.570622	-0.367682
O15	O	1.019794	-0.441554	-0.477449
O16	O	1.019688	-0.740998	-0.284548
O17	O	0.936567	-0.740957	-0.367676
C18	C	0.802322	-0.506111	-0.326117
C19	C	0.727090	-0.506127	-0.326124
C20	C	0.691759	-0.573409	-0.369336
C21	C	0.621070	-0.573411	-0.369346
C22	C	0.585715	-0.506136	-0.326139
C23	C	0.621051	-0.438847	-0.282924
C24	C	0.691739	-0.438841	-0.282919
C25	C	0.335978	-0.438870	-0.282947
C26	C	0.265286	-0.438884	-0.282954
C27	C	0.265310	-0.573440	-0.369374
C28	C	0.335997	-0.573434	-0.369368
C29	C	0.371327	-0.506142	-0.326157
C30	C	0.447976	-0.506139	-0.326148
C31	C	0.509068	-0.506143	-0.326144
C32	C	0.978138	-0.779098	-0.326123
C33	C	0.978182	-0.895875	-0.326138
C34	C	1.064801	-0.895864	-0.239641
C35	C	1.108128	-0.950720	-0.196401
C36	C	1.108168	-1.060441	-0.196419
C37	C	1.064877	-1.115310	-0.239684
C38	C	1.021550	-1.060455	-0.282925
C39	C	1.021514	-0.950730	-0.282900
C40	C	0.934936	-1.060465	-0.369424
C41	C	0.934892	-0.950744	-0.369403
C42	C	0.891645	-1.115334	-0.412689
C43	C	0.848314	-1.060478	-0.455927
C44	C	0.848275	-0.950750	-0.455906
C45	C	0.891565	-0.895888	-0.412644
C46	C	1.154721	-0.506152	-0.326161
C47	C	1.229953	-0.506161	-0.326171
C48	C	0.978216	-0.506065	-0.502682
C49	C	0.978233	-0.506036	-0.577914
C50	C	0.978238	-0.232097	-0.326170
C51	C	0.978263	-0.115321	-0.326183
C52	C	1.021539	-0.438842	-0.613272
C53	C	1.021545	-0.438811	-0.683961
C54	C	0.978249	-0.505982	-0.719289
C55	C	0.934939	-0.573179	-0.683926
C56	C	0.934929	-0.573203	-0.613239
C57	C	0.934977	-0.573081	-0.969000
C58	C	0.934992	-0.573054	-1.039692
C59	C	1.021594	-0.438689	-1.039721
C60	C	1.021584	-0.438713	-0.969034
C61	C	0.978271	-0.505907	-0.933677
C62	C	0.978263	-0.505937	-0.857028
C63	C	0.978260	-0.505957	-0.795937
C64	C	0.978180	-0.506121	-0.150283
C65	C	0.978295	-0.505853	-0.075051
H66	H	0.720505	-0.384048	-0.247734
H67	H	0.364780	-0.628219	-0.404550
H68	H	0.899658	-0.627910	-0.584451
C69	C	1.069235	-0.364765	-1.078616
C70	C	1.116862	-0.290887	-1.039754
C71	C	1.164504	-0.216969	-1.078647
C72	C	1.164518	-0.216929	-1.156400
C73	C	1.116888	-0.290810	-1.195265
C74	C	1.069247	-0.364728	-1.156373
H75	H	1.116854	-0.290914	-0.982193
H76	H	1.199763	-0.162277	-1.049875
H77	H	1.199785	-0.162210	-1.185190
H78	H	1.116897	-0.290783	-1.252827
H79	H	1.033988	-0.419420	-1.185144
C80	C	0.226445	-0.647455	-0.416915
C81	C	0.148692	-0.647466	-0.416931
C82	C	0.109829	-0.721481	-0.464469
C83	C	0.148720	-0.795485	-0.511992
C84	C	0.226477	-0.795477	-0.511978
C85	C	0.265340	-0.721462	-0.464440
H86	H	0.119899	-0.592680	-0.381750
H87	H	0.052268	-0.721486	-0.464479
H88	H	0.119951	-0.850275	-0.547183
H89	H	0.255270	-0.850262	-0.547159
H90	H	0.322901	-0.721457	-0.464430
C91	C	0.582163	-0.364843	-0.235395
C92	C	0.504410	-0.364851	-0.235395
C93	C	0.465523	-0.290848	-0.187862
C94	C	0.504389	-0.216838	-0.140330
C95	C	0.582146	-0.216827	-0.140328
C96	C	0.621033	-0.290830	-0.187860
H97	H	0.475635	-0.419640	-0.270583
H98	H	0.407961	-0.290856	-0.187864
H99	H	0.475602	-0.162056	-0.105143
H100	H	0.610921	-0.162038	-0.105140
H101	H	0.678595	-0.290822	-0.187859
C102	C	1.155748	-0.890364	-0.148813
C103	C	1.155710	-0.769674	-0.148787
C104	C	1.203332	-0.709323	-0.101202
C105	C	1.250993	-0.769662	-0.053642
C106	C	1.251034	-0.890359	-0.053666
C107	C	1.203411	-0.950710	-0.101251
H108	H	1.120427	-0.725002	-0.183996
H109	H	1.203302	-0.619975	-0.101185
H110	H	1.286246	-0.724986	-0.018417
H111	H	1.286317	-0.935031	-0.018458
H112	H	1.203441	-1.040058	-0.101269
H113	H	0.236502	-0.384094	-0.247770
H114	H	1.143452	-1.105105	-0.161213
C115	C	0.730647	-0.647413	-0.416866
C116	C	0.720908	-0.766839	-0.411213
C117	C	0.759794	-0.840843	-0.458745
C118	C	0.808419	-0.795422	-0.511931
C119	C	0.818160	-0.675990	-0.517586
C120	C	0.779274	-0.601986	-0.470053
H121	H	0.684911	-0.800468	-0.371840
H122	H	0.752583	-0.929255	-0.454559
H123	H	0.837205	-0.850204	-0.547117
H124	H	0.854158	-0.642361	-0.556959
H125	H	0.786486	-0.513574	-0.474240
C126	C	1.069166	-0.364952	-0.574414
C127	C	1.122292	-0.410498	-0.525826
C128	C	1.169920	-0.336603	-0.486970
C129	C	1.164421	-0.217163	-0.496703
C130	C	1.111293	-0.171612	-0.545294
C131	C	1.063666	-0.245506	-0.584149
H132	H	1.126364	-0.498920	-0.518619
H133	H	1.209249	-0.370324	-0.451000
H134	H	1.199678	-0.162462	-0.467940
H135	H	1.107221	-0.083190	-0.552501
H136	H	1.024337	-0.211785	-0.620120
C137	C	0.800701	-1.120833	-0.503516
C138	C	0.800749	-1.241523	-0.503543
C139	C	0.753135	-1.301882	-0.551133
C140	C	0.705473	-1.241550	-0.598695
C141	C	0.705423	-1.120854	-0.598670
C142	C	0.753037	-1.060495	-0.551080
H143	H	0.836033	-1.286189	-0.468333
H144	H	0.753173	-1.391230	-0.551151
H145	H	0.670227	-1.286232	-0.633924
H146	H	0.670139	-1.076187	-0.633880
H147	H	0.752999	-0.971147	-0.551061
C148	C	1.069181	-0.364893	-0.722855
C149	C	1.116808	-0.291011	-0.683996
C150	C	1.164443	-0.217085	-0.722890
C151	C	1.164452	-0.217042	-0.800643
C152	C	1.116824	-0.290928	-0.839506
C153	C	1.069188	-0.364853	-0.800612
H154	H	1.116803	-0.291040	-0.626434
H155	H	1.199701	-0.162390	-0.694120
H156	H	1.199715	-0.162318	-0.829435
H157	H	1.116828	-0.290899	-0.897068
H158	H	1.033930	-0.419548	-0.829382
C159	C	0.887357	-0.646937	-1.078555
C160	C	0.839711	-0.720843	-1.039666
C161	C	0.792080	-0.794722	-1.078530
C162	C	0.792095	-0.794695	-1.156283
C163	C	0.839743	-0.720786	-1.195177
C164	C	0.887374	-0.646907	-1.156313
H165	H	0.839698	-0.720866	-0.982104
H166	H	0.756808	-0.849434	-1.049738
H167	H	0.756836	-0.849384	-1.185052
H168	H	0.839756	-0.720764	-1.252738
H169	H	0.922647	-0.592196	-1.185105
C170	C	0.887327	-0.646999	-0.930127
C171	C	0.810389	-0.638398	-0.939859
C172	C	0.762732	-0.712322	-0.900991
C173	C	0.792012	-0.794846	-0.852390
C174	C	0.868954	-0.803450	-0.842655
C175	C	0.916611	-0.729527	-0.881524
H176	H	0.788710	-0.577306	-0.975839
H177	H	0.705774	-0.705952	-0.908197
H178	H	0.756733	-0.849568	-0.823617
H179	H	0.890632	-0.864543	-0.806676
H180	H	0.973569	-0.735897	-0.874318
H181	H	0.899684	-0.627866	-0.712696
H182	H	0.812996	-0.906092	-0.491120
H183	H	0.592306	-0.628199	-0.404534
H184	H	0.364736	-0.384085	-0.247756
H185	H	1.064765	-0.806523	-0.239613
H186	H	1.056842	-0.384020	-0.940273
H187	H	0.891533	-0.806547	-0.412618
H188	H	1.064919	-1.204651	-0.239701
H189	H	0.891683	-1.204675	-0.412704
