data_functionalizedCrystal
_audit_creation_method	'MofGen! by Chris Wilmer'
_symmetry_space_group_name_H-M	'P1'
_symmetry_Int_Tables_number	1
_symmetry_cell_setting	triclinic
loop_
_symmetry_equiv_pos_as_xyz
  x,y,z
_cell_length_a	13.032831
_cell_length_b	18.050589
_cell_length_c	13.033109
_cell_angle_alpha	97.157170
_cell_angle_beta	76.665514
_cell_angle_gamma	82.833186
loop_
_atom_site_label
_atom_site_type_symbol
_atom_site_fract_x
_atom_site_fract_y
_atom_site_fract_z
Zn1	Zn	1.699980	-0.522075	-0.806419
Zn2	Zn	1.677285	-0.628196	-0.628804
Zn3	Zn	1.499814	-0.485953	-0.606311
Zn4	Zn	1.522300	-0.628131	-0.783848
O5	O	1.599845	-0.566089	-0.706346
O6	O	1.845602	-0.551296	-0.801717
O7	O	1.634835	-0.594238	-0.477188
O8	O	1.526454	-0.386831	-0.632889
O9	O	1.828928	-0.629263	-0.671224
O10	O	1.673515	-0.413369	-0.779907
O11	O	1.504447	-0.489733	-0.460663
O12	O	1.354164	-0.489669	-0.611003
O13	O	1.564778	-0.629151	-0.935474
O14	O	1.370685	-0.594126	-0.741438
O15	O	1.695319	-0.551232	-0.952057
O16	O	1.656639	-0.732101	-0.649338
O17	O	1.542772	-0.732053	-0.763249
C18	C	1.323886	-0.537972	-0.671331
C19	C	1.205833	-0.525964	-0.656377
C20	C	1.161390	-0.572356	-0.714150
C21	C	1.039376	-0.559946	-0.698696
C22	C	1.599714	-0.759026	-0.706312
C23	C	1.599760	-0.841579	-0.706345
C24	C	1.537906	-1.041035	-0.768274
C25	C	1.499708	-1.077984	-0.668074
C26	C	1.599866	-0.992721	-0.706372
C27	C	1.638118	-1.102861	-0.806590
C28	C	1.599968	-1.138719	-0.706407
C29	C	1.561610	-1.028572	-0.606115
C30	C	1.700075	-1.053456	-0.744702
C31	C	1.661905	-1.090380	-0.644440
C32	C	1.599805	-0.908616	-0.706353
C33	C	1.600028	-1.222821	-0.706415
C34	C	1.876881	-0.594316	-0.741498
C35	C	1.994938	-0.606345	-0.756477
C36	C	1.635089	-0.594214	-0.983382
C37	C	1.650108	-0.606199	-1.101438
C38	C	1.600008	-0.372403	-0.706407
C39	C	1.600077	-0.289866	-0.706433
C40	C	1.592290	-0.559836	-1.145895
C41	C	1.607812	-0.572222	-1.267912
C42	C	1.564799	-0.538025	-0.430395
C43	C	1.549986	-0.525852	-0.312365
H44	H	1.415013	-1.089188	-0.635682
C45	C	1.766457	-0.609681	-1.410901
C46	C	1.690161	-0.638190	-1.338459
H47	H	1.817299	-0.650406	-1.454448
H48	H	1.732193	-0.582208	-1.454601
H49	H	1.801636	-0.577103	-1.372779
H50	H	1.654977	-0.670764	-1.376581
H51	H	1.724429	-0.665675	-1.294754
C52	C	1.528945	-0.982109	-0.921966
C53	C	1.467047	-1.011760	-0.838816
H54	H	1.485197	-0.964040	-0.965515
H55	H	1.559055	-0.941627	-0.892942
H56	H	1.584552	-1.020556	-0.963844
H57	H	1.411444	-0.973311	-0.796934
H58	H	1.436920	-1.052245	-0.867841
H59	H	1.670430	-1.135076	-0.891329
H60	H	1.153552	-0.477056	-0.595478
C61	C	1.138002	-0.643935	-0.915037
C62	C	1.065500	-0.672371	-0.838705
H63	H	1.181566	-0.684697	-0.965796
H64	H	1.099930	-0.611393	-0.950298
H65	H	1.181692	-0.616440	-0.880783
H66	H	1.021804	-0.699861	-0.872958
H67	H	1.103575	-0.704926	-0.803441
H68	H	1.531296	-0.510975	-1.093623
C69	C	1.518147	-0.907743	-0.492698
C70	C	1.517849	-0.985194	-0.491671
H71	H	1.491121	-0.880963	-0.422048
H72	H	1.589087	-0.899243	-0.519990
H73	H	1.474417	-0.890495	-0.536741
H74	H	1.561585	-1.002443	-0.447635
H75	H	1.446897	-0.993698	-0.464365
C76	C	0.998506	-0.425446	-0.642937
C77	C	0.968804	-0.493922	-0.616471
H78	H	0.954930	-0.384688	-0.592179
H79	H	1.071232	-0.425122	-0.642524
H80	H	0.989483	-0.420082	-0.712053
H81	H	0.977835	-0.499289	-0.547358
H82	H	0.896060	-0.494246	-0.616873
C83	C	1.468203	-0.460377	-1.134597
C84	C	1.467643	-0.459881	-1.241816
H85	H	1.417372	-0.419648	-1.091046
H86	H	1.450324	-0.506854	-1.114490
H87	H	1.537290	-0.454954	-1.125539
H88	H	1.398557	-0.465311	-1.250876
H89	H	1.485515	-0.413393	-1.261930
C90	C	1.808749	-0.643655	-1.244431
C91	C	1.732453	-0.672164	-1.171989
H92	H	1.859591	-0.684380	-1.287977
H93	H	1.774485	-0.616182	-1.288131
H94	H	1.843927	-0.611077	-1.206309
H95	H	1.697269	-0.704738	-1.210111
H96	H	1.766721	-0.699649	-1.128283
C97	C	1.671147	-1.150222	-0.491581
C98	C	1.732685	-1.119450	-0.573704
H99	H	1.714843	-1.168173	-0.447915
H100	H	1.614739	-1.112406	-0.449573
H101	H	1.642141	-1.190965	-0.521564
H102	H	1.761685	-1.078702	-0.543721
H103	H	1.789113	-1.157269	-0.615718
C104	C	1.854248	-1.076235	-0.893481
C105	C	1.814389	-1.038327	-0.788487
H106	H	1.924819	-1.066890	-0.920521
H107	H	1.855042	-1.129006	-0.894426
H108	H	1.809922	-1.058507	-0.936705
H109	H	1.858711	-1.056059	-0.745261
H110	H	1.813602	-0.985545	-0.787536
C111	C	1.304466	-0.609943	-0.872699
C112	C	1.231962	-0.638379	-0.796369
H113	H	1.348035	-0.650705	-0.923454
H114	H	1.266396	-0.577404	-0.907965
H115	H	1.348151	-0.582444	-0.838442
H116	H	1.188271	-0.665873	-0.830625
H117	H	1.270035	-0.670930	-0.761100
