data_functionalizedCrystal
_audit_creation_method	'MofGen! by Chris Wilmer'
_symmetry_space_group_name_H-M	'P1'
_symmetry_Int_Tables_number	1
_symmetry_cell_setting	triclinic
loop_
_symmetry_equiv_pos_as_xyz
  x,y,z
_cell_length_a	12.811445
_cell_length_b	12.837942
_cell_length_c	9.198806
_cell_angle_alpha	90.002604
_cell_angle_beta	95.435367
_cell_angle_gamma	89.412982
loop_
_atom_site_label
_atom_site_type_symbol
_atom_site_fract_x
_atom_site_fract_y
_atom_site_fract_z
O1	O	1.406646	0.139712	0.306327
O2	O	1.102581	0.154895	0.266246
O3	O	1.247871	-0.003629	0.285389
O4	O	1.261356	0.298235	0.287184
O5	O	1.247858	-0.003629	0.043602
O6	O	1.102568	0.154894	0.024459
O7	O	1.406633	0.139712	0.064540
Cu8	Cu	1.254600	0.147303	0.022423
Cu9	Cu	1.254615	0.147303	0.308363
O10	O	1.261343	0.298235	0.045397
C11	C	1.063385	0.154042	0.140186
C12	C	0.946612	0.151491	0.124793
C13	C	1.243309	-0.042269	0.163896
C14	C	1.229723	-0.157405	0.162107
C15	C	0.727195	0.146718	0.359491
C16	C	0.617476	0.144321	0.345034
C17	C	0.617454	0.144309	0.081424
C18	C	0.727173	0.146706	0.095881
C19	C	0.782039	0.147908	0.234919
C20	C	0.891760	0.150297	0.249375
C21	C	0.891736	0.150293	-0.014234
C22	C	0.782017	0.147896	-0.028691
C23	C	1.393053	-0.397656	0.183667
C24	C	1.380293	-0.505837	0.181988
C25	C	1.191443	-0.481951	0.157079
C26	C	1.204203	-0.373770	0.158758
C27	C	1.305012	-0.331626	0.172051
C28	C	1.317771	-0.223443	0.173720
C29	C	1.128922	-0.199559	0.148821
C30	C	1.116162	-0.307740	0.147142
C31	C	1.445829	0.140564	0.190603
C32	C	1.562602	0.143115	0.206005
C33	C	1.265905	0.336876	0.166894
C34	C	1.279491	0.452011	0.168692
N35	N	1.254597	0.147302	-0.178692
C36	C	1.315573	0.080450	-0.242855
C37	C	1.315589	0.080447	-0.410265
N38	N	1.254625	0.147296	0.509479
H39	H	0.771868	0.147692	0.472701
H40	H	1.202400	0.204530	-0.247697
O41	O	1.018296	-0.348807	0.134428
C42	C	0.894265	-0.457027	0.243372
C43	C	1.005137	-0.410610	0.257946
H44	H	0.883583	-0.506987	0.343235
H45	H	0.883550	-0.507152	0.140844
H46	H	0.833549	-0.391232	0.235285
H47	H	1.065921	-0.476338	0.266093
H48	H	1.015763	-0.360457	0.360454
O49	O	1.378010	0.012213	-0.160714
C50	C	1.554351	-0.048044	-0.090596
C51	C	1.483746	0.029279	-0.183695
H52	H	1.639854	-0.034260	-0.109120
H53	H	1.532248	-0.131156	-0.123402
H54	H	1.543216	-0.035912	0.029753
H55	H	1.494844	0.017242	-0.304068
H56	H	1.505866	0.112363	-0.150766
H57	H	1.367798	0.023216	-0.465472
O58	O	1.192489	0.215628	-0.424501
C59	C	1.184791	0.357105	-0.253564
C60	C	1.255278	0.279762	-0.328212
H61	H	1.235528	0.408992	-0.175721
H62	H	1.127788	0.312243	-0.189733
H63	H	1.138868	0.407389	-0.340070
H64	H	1.301268	0.229459	-0.241803
H65	H	1.312214	0.324689	-0.392074
O66	O	0.564194	0.143332	-0.053662
C67	C	0.527747	0.232306	-0.283803
C68	C	0.588103	0.233553	-0.130849
H69	H	0.547073	0.305230	-0.346263
H70	H	0.439892	0.230461	-0.272828
H71	H	0.551651	0.160251	-0.345590
H72	H	0.564288	0.305597	-0.068977
H73	H	0.675945	0.235343	-0.141928
H74	H	1.057232	-0.145785	0.139351
O75	O	0.944896	0.151514	0.384538
C76	C	0.933333	0.151229	0.644476
C77	C	0.873030	0.149866	0.491489
H78	H	0.875257	0.149875	0.730987
H79	H	0.982315	0.224859	0.657610
H80	H	0.987085	0.079881	0.658083
H81	H	0.819223	0.221164	0.477778
H82	H	0.824116	0.076189	0.478425
H83	H	0.936402	0.151261	-0.115670
O84	O	1.491046	-0.356883	0.196652
C85	C	1.677014	-0.391987	0.221086
C86	C	1.566096	-0.438298	0.206420
H87	H	1.737721	-0.457789	0.228957
H88	H	1.687779	-0.341972	0.323717
H89	H	1.687650	-0.341903	0.121327
H90	H	1.555383	-0.488430	0.306101
H91	H	1.555382	-0.488254	0.103729
H92	H	0.572825	0.143354	0.446474
O93	O	0.728835	0.146588	-0.163821
C94	C	0.698109	0.056064	-0.393122
C95	C	0.758422	0.057434	-0.240143
H96	H	0.721992	-0.016022	-0.454861
H97	H	0.717345	0.128969	-0.455694
H98	H	0.610273	0.054199	-0.382021
H99	H	0.846274	0.059263	-0.251110
H100	H	0.739099	-0.015467	-0.177627
H101	H	1.399855	-0.189132	0.184538
H102	H	1.451986	-0.559595	0.191452
O103	O	1.093600	-0.523071	0.144117
C104	C	0.990259	-0.679152	0.130594
C105	C	1.101125	-0.632723	0.145249
H106	H	0.996305	-0.767811	0.131536
H107	H	0.946176	-0.652082	0.023567
H108	H	0.946212	-0.651925	0.225945
H109	H	1.145259	-0.659929	0.049979
H110	H	1.145128	-0.659788	0.252333
