data_functionalizedCrystal
_audit_creation_method	'MofGen! by Chris Wilmer'
_symmetry_space_group_name_H-M	'P1'
_symmetry_Int_Tables_number	1
_symmetry_cell_setting	triclinic
loop_
_symmetry_equiv_pos_as_xyz
  x,y,z
_cell_length_a	10.654541
_cell_length_b	16.974800
_cell_length_c	15.455313
_cell_angle_alpha	90.973911
_cell_angle_beta	92.691200
_cell_angle_gamma	83.935819
loop_
_atom_site_label
_atom_site_type_symbol
_atom_site_fract_x
_atom_site_fract_y
_atom_site_fract_z
O1	O	0.160091	1.049949	0.001600
O2	O	0.179269	0.820621	-0.014505
O3	O	-0.013114	0.940558	-0.006077
O4	O	0.352474	0.930011	-0.006828
O5	O	-0.002158	0.933699	0.137703
O6	O	0.190225	0.813762	0.129275
O7	O	0.171046	1.043090	0.145381
Cu8	Cu	0.181636	0.927800	0.150456
Cu9	Cu	0.168680	0.935911	-0.019581
O10	O	0.363430	0.923152	0.136952
C11	C	0.183817	0.787827	0.055322
C12	C	0.181030	0.700330	0.049178
C13	C	0.185690	0.655490	0.124667
C14	C	0.183052	0.573279	0.118896
C15	C	0.175763	0.535909	0.037634
C16	C	0.171099	0.580755	-0.037861
C17	C	0.173728	0.662965	-0.032089
C18	C	0.167250	0.290438	0.011967
C19	C	0.164625	0.208221	0.006200
C20	C	0.176576	0.200750	0.162958
C21	C	0.179212	0.282962	0.168723
C22	C	0.174542	0.327802	0.093228
N23	N	0.173070	0.451875	0.031733
N24	N	0.177225	0.411834	0.099130
C25	C	-0.054426	0.936355	0.065758
C26	C	-0.193846	0.934039	0.065594
C27	C	-0.223299	1.077456	0.075678
C28	C	-0.303524	1.148074	0.080644
C29	C	-0.434519	1.145893	0.080488
C30	C	-0.485292	1.073087	0.075363
C31	C	-0.405068	1.002470	0.070396
C32	C	-0.274071	1.004658	0.070555
C33	C	-0.375615	0.859055	0.060307
C34	C	-0.244618	0.861233	0.060469
C35	C	-0.426388	0.786249	0.055181
C36	C	-0.346163	0.715629	0.050220
C37	C	-0.215160	0.717813	0.050377
C38	C	-0.164394	0.790616	0.055502
C39	C	0.404741	0.927356	0.065115
C40	C	0.544161	0.929672	0.065273
C41	C	0.166499	1.075884	0.075551
C42	C	0.169285	1.163381	0.081690
N43	N	0.190748	0.922100	0.270051
N44	N	0.159557	0.941616	-0.139175
C45	C	0.109047	0.973072	0.319027
C46	C	0.115950	0.968769	0.409533
C47	C	0.204561	0.913498	0.451061
C48	C	0.286265	0.862521	0.402078
C49	C	0.279356	0.866820	0.311574
C50	C	0.234352	0.894939	0.721338
C51	C	0.241258	0.890645	0.811849
C52	C	0.070941	0.996893	0.819297
C53	C	0.064044	1.001190	0.728791
C54	C	0.145744	0.950211	0.679816
N55	N	0.211622	0.909100	0.543572
N56	N	0.138676	0.954605	0.587306
H57	H	0.185142	0.313383	0.234895
H58	H	0.180376	0.164233	0.224422
C59	C	0.026091	1.024845	0.463403
H60	H	-0.027658	1.058387	0.425709
H61	H	-0.023627	0.994546	0.496714
H62	H	0.074127	1.056215	0.501013
C63	C	0.168611	0.712289	-0.115127
H64	H	0.163905	0.678259	-0.164351
H65	H	0.096222	0.750129	-0.115739
H66	H	0.242565	0.738899	-0.116529
H67	H	-0.591958	1.071319	0.075226
H68	H	-0.387514	0.656357	0.046042
C69	C	-0.570479	0.783845	0.055002
H70	H	-0.589225	0.730373	0.051230
H71	H	-0.601744	0.807437	0.106967
H72	H	-0.609361	0.812231	0.006683
C73	C	0.163084	0.539650	-0.127247
H74	H	0.162199	0.484265	-0.119875
H75	H	0.087895	0.560270	-0.158111
H76	H	0.234238	0.549047	-0.158898
C77	C	0.369226	0.810755	0.257696
H78	H	0.352413	0.821226	0.197848
H79	H	0.454214	0.819061	0.273148
H80	H	0.356475	0.757382	0.268845
C81	C	-0.126917	0.640135	0.044910
H82	H	-0.041628	0.651857	0.045732
H83	H	-0.138522	0.607912	0.092947
H84	H	-0.146154	0.612716	-0.007337
H85	H	0.300878	0.853430	0.681469
C86	C	-0.020303	0.793017	0.055674
H87	H	0.020208	0.740534	0.051987
H88	H	0.000074	0.822395	0.007436
H89	H	0.007706	0.817595	0.107719
C90	C	-0.033435	1.061984	0.683116
H91	H	-0.081114	1.091721	0.725248
H92	H	0.009189	1.096710	0.650116
H93	H	-0.088537	1.035023	0.645815
C94	C	0.011573	1.033870	0.273354
H95	H	-0.036104	1.063604	0.315488
H96	H	0.054195	1.068597	0.240355
H97	H	-0.043531	1.006909	0.236053
C98	C	0.156635	0.167113	-0.083192
H99	H	0.154230	0.205592	-0.127328
H100	H	0.228542	0.129593	-0.089083
H101	H	0.082197	0.140802	-0.088314
H102	H	0.191636	0.685909	0.190839
C103	C	-0.522774	1.223567	0.085949
H104	H	-0.608060	1.211837	0.085115
H105	H	-0.503546	1.250997	0.138184
H106	H	-0.511176	1.255783	0.037899
H107	H	-0.116636	1.079239	0.075817
H108	H	0.313421	0.845634	0.845656
C109	C	-0.018932	1.052958	0.873170
H110	H	-0.002137	1.042479	0.933019
H111	H	-0.006198	1.106330	0.862023
H112	H	-0.103920	1.044640	0.857714
H113	H	0.163443	0.326937	-0.049507
C114	C	-0.247671	1.228154	0.086286
H115	H	-0.158165	1.219342	0.085676
H116	H	-0.279005	1.259659	0.038196
H117	H	-0.271375	1.254859	0.138480
C118	C	0.383737	0.801725	0.447756
H119	H	0.376162	0.806469	0.508672
H120	H	0.368736	0.749762	0.429242
H121	H	0.466461	0.811450	0.433543
H122	H	0.186826	0.536775	0.180368
