data_functionalizedCrystal
_audit_creation_method	'MofGen! by Chris Wilmer'
_symmetry_space_group_name_H-M	'P1'
_symmetry_Int_Tables_number	1
_symmetry_cell_setting	triclinic
loop_
_symmetry_equiv_pos_as_xyz
  x,y,z
_cell_length_a	14.044220
_cell_length_b	15.995350
_cell_length_c	12.503572
_cell_angle_alpha	93.525550
_cell_angle_beta	86.164750
_cell_angle_gamma	88.340626
loop_
_atom_site_label
_atom_site_type_symbol
_atom_site_fract_x
_atom_site_fract_y
_atom_site_fract_z
O1	O	1.263165	0.197434	-0.089196
O2	O	1.763165	0.697434	0.410804
O3	O	0.987198	0.190148	-0.089224
O4	O	1.487198	0.690148	0.410776
O5	O	1.132725	0.072467	-0.089208
O6	O	1.632725	0.572467	0.410792
O7	O	1.117638	0.315115	-0.089212
O8	O	1.617638	0.815115	0.410788
O9	O	1.121781	0.081333	0.089432
O10	O	1.621781	0.581333	0.589432
O11	O	0.976253	0.199014	0.089417
O12	O	1.476253	0.699014	0.589417
O13	O	1.252221	0.206300	0.089445
O14	O	1.752221	0.706300	0.589445
Cu15	Cu	1.113237	0.203467	0.105742
Cu16	Cu	1.613237	0.703467	0.605742
Cu17	Cu	1.126181	0.192981	-0.105521
Cu18	Cu	1.626181	0.692981	0.394479
O19	O	1.106693	0.323981	0.089429
O20	O	1.606693	0.823981	0.589429
C21	C	0.946411	0.191392	0.000093
C22	C	1.446411	0.691392	0.500093
C23	C	0.841186	0.181881	0.000082
C24	C	1.341186	0.681881	0.500082
C25	C	0.648523	0.164494	0.000104
C26	C	1.148523	0.664494	0.500104
C27	C	0.590890	0.231950	0.000107
C28	C	1.090890	0.731950	0.500107
C29	C	0.483686	0.222276	0.000119
C30	C	0.983686	0.722276	0.500119
C31	C	0.755737	0.174167	0.000092
C32	C	1.255737	0.674167	0.500092
C33	C	1.126629	0.045658	0.000110
C34	C	1.626629	0.545658	0.500110
C35	C	1.124760	-0.047432	0.000104
C36	C	1.624760	0.452568	0.500104
C37	C	1.118044	-0.385681	0.000107
C38	C	1.618044	0.114319	0.500107
C39	C	1.014426	-0.346008	-0.000304
C40	C	1.514426	0.153992	0.499696
C41	C	1.016272	-0.249158	0.000099
C42	C	1.516272	0.250842	0.500099
C43	C	1.121375	-0.217872	0.000105
C44	C	1.621375	0.282128	0.500105
C45	C	1.166245	-0.250068	0.102120
C46	C	1.666245	0.249932	0.602120
C47	C	1.163636	-0.346894	0.102206
C48	C	1.663636	0.153106	0.602206
C49	C	1.178223	-0.357175	-0.100942
C50	C	1.678223	0.142825	0.399058
C51	C	1.178281	-0.260298	-0.102290
C52	C	1.678281	0.239702	0.397710
C53	C	1.123263	-0.123033	0.000107
C54	C	1.623263	0.376967	0.500107
C55	C	1.116158	-0.480519	0.000111
C56	C	1.616158	0.019481	0.500111
C57	C	1.293007	0.205055	0.000125
C58	C	1.793007	0.705055	0.500125
C59	C	1.398233	0.214567	0.000129
C60	C	1.898233	0.714567	0.500129
C61	C	1.112789	0.350789	0.000108
C62	C	1.612789	0.850789	0.500108
C63	C	1.114659	0.443879	0.000108
C64	C	1.614659	0.943879	0.500108
N65	N	1.104141	0.210842	0.254333
N66	N	1.604141	0.710842	0.754333
N67	N	1.135285	0.185600	-0.254113
N68	N	1.635285	0.685600	0.245887
C69	C	1.090759	0.221698	0.473447
C70	C	1.590759	0.721698	0.973447
C71	C	1.148663	0.174747	0.526780
C72	C	1.648663	0.674747	1.026780
C73	C	1.141218	0.180787	0.648703
C74	C	1.641218	0.680787	1.148703
C75	C	1.098204	0.215658	0.351514
C76	C	1.598204	0.715658	0.851514
H77	H	0.968729	-0.365072	0.072438
H78	H	1.468729	0.134928	0.572438
C79	C	0.732564	0.312442	0.000035
C80	C	1.232564	0.812442	0.500035
C81	C	0.632965	0.319721	0.000063
C82	C	1.132965	0.819721	0.500063
H83	H	0.758541	0.366626	-0.000010
H84	H	1.258541	0.866626	0.499990
H85	H	0.749552	0.286003	0.062338
H86	H	1.249552	0.786003	0.562338
H87	H	0.757145	0.279772	-0.062255
H88	H	1.257145	0.779772	0.437745
H89	H	0.608382	0.352387	0.062357
H90	H	1.108382	0.852387	0.562357
H91	H	0.615969	0.346172	-0.062247
H92	H	1.115969	0.846172	0.437753
C93	C	0.506854	0.084012	0.000102
C94	C	1.006854	0.584012	0.500102
C95	C	0.606451	0.076727	0.000098
C96	C	1.106451	0.576727	0.500098
H97	H	0.480875	0.029827	0.000089
H98	H	0.980875	0.529827	0.500089
H99	H	0.482261	0.116651	0.062400
H100	H	0.982261	0.616651	0.562400
H101	H	0.489882	0.110487	-0.062193
H102	H	0.989882	0.610487	0.437807
H103	H	0.623424	0.050257	0.062397
H104	H	1.123424	0.550257	0.562397
H105	H	0.631052	0.044075	-0.062206
H106	H	1.131052	0.544075	0.437794
H107	H	0.980568	-0.227367	-0.073031
H108	H	1.480568	0.272633	0.426969
C109	C	1.033269	0.364245	0.508316
C110	C	1.533269	0.864245	1.008316
C111	C	1.016293	0.282086	0.535405
C112	C	1.516293	0.782086	1.035405
H113	H	0.987293	0.401524	0.546570
H114	H	1.487293	0.901524	1.046570
H115	H	1.095445	0.378886	0.526684
H116	H	1.595445	0.878886	1.026684
H117	H	1.028565	0.368045	0.433322
H118	H	1.528565	0.868045	0.933322
H119	H	1.021003	0.278285	0.610398
H120	H	1.521003	0.778285	1.110398
H121	H	0.954100	0.267441	0.517044
H122	H	1.454100	0.767441	1.017044
H123	H	0.977483	-0.371265	-0.073462
H124	H	1.477483	0.128735	0.426538
H125	H	1.203829	0.130016	0.480873
H126	H	1.703829	0.630016	0.980873
H127	H	0.971331	-0.220680	0.073345
H128	H	1.471331	0.279320	0.573345
H129	H	1.255304	-0.239517	-0.108445
H130	H	1.755304	0.260483	0.391555
H131	H	1.239445	-0.373229	0.106839
H132	H	1.739445	0.126771	0.606839
C133	C	1.075729	-0.297072	0.266146
C134	C	1.575729	0.202928	0.766146
C135	C	1.106996	-0.370256	0.205136
C136	C	1.606996	0.129744	0.705136
H137	H	1.040755	-0.311494	0.329687
H138	H	1.540755	0.188506	0.829687
H139	H	1.129332	-0.265801	0.284784
H140	H	1.629332	0.234199	0.784784
H141	H	1.035881	-0.264296	0.225346
H142	H	1.535881	0.235704	0.725346
H143	H	1.146851	-0.403030	0.245933
H144	H	1.646851	0.096970	0.745933
H145	H	1.053386	-0.401540	0.186500
H146	H	1.553386	0.098460	0.686500
C147	C	1.295244	-0.176856	0.018580
C148	C	1.795244	0.323144	0.518580
C149	C	1.270169	-0.222955	0.107262
C150	C	1.770169	0.277045	0.607262
H151	H	1.359400	-0.160113	0.021759
H152	H	1.859400	0.339887	0.521759
H153	H	1.289265	-0.210588	-0.045684
H154	H	1.789265	0.289412	0.454316
H155	H	1.254082	-0.128593	0.019533
H156	H	1.754082	0.371407	0.519533
H157	H	1.311327	-0.271222	0.106305
H158	H	1.811327	0.228778	0.606305
H159	H	1.276157	-0.189222	0.171543
H160	H	1.776157	0.310778	0.671543
H161	H	1.149075	-0.384083	-0.178264
H162	H	1.649075	0.115917	0.321736
C163	C	1.202662	-0.191679	-0.266925
C164	C	1.702662	0.308321	0.233075
C165	C	1.134144	-0.232260	-0.204178
C166	C	1.634144	0.267740	0.295822
H167	H	1.175412	-0.174370	-0.329826
H168	H	1.675412	0.325630	0.170174
H169	H	1.223482	-0.144058	-0.226867
H170	H	1.723482	0.355942	0.273133
H171	H	1.255553	-0.229096	-0.286652
H172	H	1.755553	0.270904	0.213348
H173	H	1.081256	-0.194842	-0.184444
H174	H	1.581256	0.305158	0.315556
H175	H	1.113311	-0.279888	-0.244244
H176	H	1.613311	0.220112	0.255756
C177	C	1.302903	-0.443671	-0.195726
C178	C	1.802903	0.056329	0.304274
C179	C	1.281438	-0.392391	-0.101876
C180	C	1.781438	0.107609	0.398124
H181	H	1.366622	-0.465410	-0.196298
H182	H	1.866622	0.034590	0.303702
H183	H	1.260227	-0.488642	-0.197958
H184	H	1.760227	0.011358	0.302042
H185	H	1.296432	-0.411733	-0.256571
H186	H	1.796432	0.088267	0.243429
H187	H	1.287902	-0.424331	-0.041030
H188	H	1.787902	0.075669	0.458970
H189	H	1.324126	-0.347414	-0.099634
H190	H	1.824126	0.152586	0.400366
H191	H	1.126089	-0.220570	0.178033
H192	H	1.626089	0.279430	0.678033
