data_functionalizedCrystal
_audit_creation_method	'MofGen! by Chris Wilmer'
_symmetry_space_group_name_H-M	'P1'
_symmetry_Int_Tables_number	1
_symmetry_cell_setting	triclinic
loop_
_symmetry_equiv_pos_as_xyz
  x,y,z
_cell_length_a	17.666332
_cell_length_b	17.038272
_cell_length_c	17.038272
_cell_angle_alpha	88.888444
_cell_angle_beta	90.005119
_cell_angle_gamma	89.996446
loop_
_atom_site_label
_atom_site_type_symbol
_atom_site_fract_x
_atom_site_fract_y
_atom_site_fract_z
O1	O	0.062854	-1.048760	0.170537
O2	O	0.062877	-0.820948	0.167829
O3	O	0.062860	-0.933500	0.055277
O4	O	0.062871	-0.936208	0.283089
O5	O	-0.063037	-0.933479	0.055272
O6	O	-0.063020	-0.820927	0.167824
O7	O	-0.063042	-1.048738	0.170532
Cu8	Cu	-0.074527	-0.934831	0.169178
Cu9	Cu	0.074361	-0.934856	0.169184
O10	O	-0.063025	-0.936187	0.283084
C11	C	-0.000069	-0.791645	0.165364
C12	C	-0.000061	-0.704361	0.158016
C13	C	-0.000088	-0.931027	0.025982
C14	C	-0.000088	-0.923679	-0.061301
N15	N	-0.179246	-0.934819	0.169173
C16	C	-0.218852	-0.985610	0.220003
C17	C	-0.298099	-0.985623	0.220002
C18	C	-0.337738	-0.934829	0.169179
C19	C	-0.298123	-0.884034	0.118339
C20	C	-0.218877	-0.884029	0.118336
N21	N	-0.462171	-0.865902	0.162459
N22	N	-0.537452	-0.865909	0.162466
C23	C	-0.576502	-0.934844	0.169182
N24	N	-0.537429	-1.003773	0.175907
N25	N	-0.462141	-1.003764	0.175904
C26	C	-0.423667	-0.934830	0.169176
C27	C	-0.702037	-0.985653	0.220014
C28	C	-0.781286	-0.985667	0.220007
C29	C	-0.781308	-0.884071	0.118348
C30	C	-0.702061	-0.884065	0.118351
C31	C	-0.662430	-0.934855	0.169188
N32	N	0.179080	-0.934874	0.169182
C33	C	-0.000095	-1.078042	0.172997
C34	C	-0.000099	-1.165326	0.180346
C35	C	-0.000058	-0.658752	0.225479
C36	C	-0.000069	-0.576740	0.218570
C37	C	-0.000077	-0.540339	0.144197
C38	C	-0.000082	-0.585954	0.076728
C39	C	-0.000077	-0.667965	0.083638
C40	C	-0.000098	-0.292951	0.119787
C41	C	-0.000101	-0.210935	0.112882
C42	C	-0.000089	-0.201726	0.254725
C43	C	-0.000080	-0.283739	0.261628
C44	C	-0.000089	-0.329347	0.194159
C45	C	-0.000086	-0.456510	0.137133
C46	C	-0.000085	-0.413174	0.201224
C47	C	-0.000095	-0.991142	-0.106911
C48	C	-0.000087	-0.984233	-0.188923
C49	C	-0.000077	-0.909860	-0.225324
C50	C	-0.000068	-0.842391	-0.179708
C51	C	-0.000070	-0.849301	-0.097698
C52	C	-0.000065	-0.885449	-0.472712
C53	C	-0.000064	-0.878545	-0.554728
C54	C	-0.000082	-1.020387	-0.563937
C55	C	-0.000089	-1.027291	-0.481924
C56	C	-0.000076	-0.959822	-0.436316
C57	C	-0.000072	-0.902796	-0.309153
C58	C	-0.000076	-0.966886	-0.352488
C59	C	-0.000076	-0.938660	0.312379
C60	C	-0.000072	-0.946008	0.399663
H61	H	-0.186589	-1.026970	0.261396
F62	F	-0.823490	-0.830020	0.064250
F63	F	-0.000096	-1.056038	-0.237460
H64	H	-0.000092	-1.075316	-0.601079
F65	F	-0.659857	-1.039720	0.274105
F66	F	-0.659908	-0.829993	0.064261
F67	F	-0.000049	-0.763237	-0.218451
F68	F	-0.000081	-1.106449	-0.443190
F69	F	-0.000123	-0.172196	0.033720
F70	F	-0.000044	-0.697485	0.304638
F71	F	-0.000060	-0.777497	-0.049157
F72	F	-0.000062	-0.528203	0.290375
H73	H	-0.000067	-1.027441	-0.322847
F74	F	-0.340310	-0.829978	0.064247
H75	H	-0.000064	-0.313370	0.322190
H76	H	-0.330353	-1.026984	0.261396
F77	F	-0.000058	-0.823644	-0.347901
F78	F	-0.000080	-0.451917	0.280375
F79	F	-0.000081	-0.153181	0.326524
F80	F	-0.823438	-1.039733	0.274106
F81	F	-0.000108	-0.341480	0.047979
F82	F	-0.000058	-0.799383	-0.593467
F83	F	-0.176724	-0.829963	0.064237
H84	H	-0.000100	-0.556310	0.016172
H85	H	-0.000079	-0.705099	0.028702
F86	F	-0.000092	-0.417762	0.057982
H87	H	-0.000108	-1.051705	-0.077279
H88	H	-0.000054	-0.830511	-0.435587
