data_functionalizedCrystal
_audit_creation_method	'MofGen! by Chris Wilmer'
_symmetry_space_group_name_H-M	'P1'
_symmetry_Int_Tables_number	1
_symmetry_cell_setting	triclinic
loop_
_symmetry_equiv_pos_as_xyz
  x,y,z
_cell_length_a	25.639242
_cell_length_b	16.959454
_cell_length_c	16.959447
_cell_angle_alpha	89.973264
_cell_angle_beta	90.024215
_cell_angle_gamma	89.984397
loop_
_atom_site_label
_atom_site_type_symbol
_atom_site_fract_x
_atom_site_fract_y
_atom_site_fract_z
Zn1	Zn	0.799303	0.314760	0.447137
Zn2	Zn	0.799252	0.446953	0.314967
Zn3	Zn	0.711876	0.314782	0.314952
Zn4	Zn	0.711853	0.446890	0.447082
O5	O	0.755571	0.380846	0.381034
O6	O	0.872462	0.332313	0.429633
O7	O	0.787650	0.429455	0.204354
O8	O	0.723505	0.204168	0.332503
O9	O	0.872424	0.429434	0.332528
O10	O	0.787737	0.204152	0.429619
O11	O	0.723455	0.332350	0.204343
O12	O	0.638708	0.332289	0.332450
O13	O	0.723465	0.429328	0.557701
O14	O	0.638691	0.429349	0.429526
O15	O	0.787715	0.332252	0.557741
O16	O	0.787627	0.557555	0.332476
O17	O	0.723416	0.557509	0.429541
C18	C	0.755527	0.586212	0.381021
C19	C	0.755557	0.674069	0.381042
C20	C	0.619729	0.380815	0.380981
C21	C	0.561615	0.380821	0.380977
C22	C	0.755593	0.380781	0.587203
C23	C	0.755602	0.380753	0.675059
C24	C	0.201252	0.431470	0.431534
C25	C	0.146647	0.431474	0.431546
O26	O	0.118410	0.474499	0.474487
N27	N	0.119332	0.380868	0.381086
C28	C	0.146624	0.330248	0.330615
O29	O	0.118377	0.287203	0.287697
C30	C	0.201228	0.330239	0.330608
C31	C	0.228540	0.380855	0.381066
C32	C	0.228564	0.482080	0.481989
C33	C	0.283164	0.482076	0.481975
C34	C	0.310453	0.431462	0.431507
C35	C	0.283140	0.380851	0.381052
C36	C	0.228519	0.279616	0.280142
C37	C	0.283126	0.279611	0.280139
C38	C	0.310438	0.330227	0.330597
C39	C	0.365029	0.330232	0.330570
N40	N	0.392344	0.380839	0.381030
C41	C	0.365056	0.431453	0.431499
C42	C	0.031954	0.330268	0.330637
C43	C	-0.022649	0.330279	0.330640
C44	C	-0.022622	0.431505	0.431572
C45	C	0.031981	0.431497	0.431565
C46	C	0.059269	0.380874	0.381097
C47	C	0.479721	0.431442	0.431466
C48	C	0.534326	0.431435	0.431445
C49	C	0.534295	0.330207	0.330516
C50	C	0.479694	0.330216	0.330533
C51	C	0.452409	0.380836	0.381014
O52	O	0.393301	0.287227	0.287654
O53	O	0.393310	0.474484	0.474418
C54	C	0.891944	0.380878	0.381089
C55	C	0.950058	0.380892	0.381112
C56	C	0.755629	0.174678	0.381065
C57	C	0.755654	0.086821	0.381078
C58	C	0.722185	1.045551	0.431571
C59	C	0.789103	1.045538	0.330579
C60	C	0.789085	0.962993	0.330571
C61	C	0.755616	0.921722	0.381064
C62	C	0.722164	0.962997	0.431563
C63	C	0.822532	0.921711	0.280067
C64	C	0.822515	0.839160	0.280057
C65	C	0.789047	0.797888	0.330554
C66	C	0.755595	0.839168	0.381056
C67	C	0.722126	0.797898	0.431549
C68	C	0.688676	0.839177	0.482056
C69	C	0.688697	0.921725	0.482060
C70	C	0.789026	0.715340	0.330549
C71	C	0.722105	0.715344	0.431541
C72	C	0.755580	0.380854	0.175668
C73	C	0.755672	0.380660	0.087812
C74	C	0.722213	0.431212	1.046517
C75	C	0.789116	0.330127	1.046554
C76	C	0.789103	0.330144	0.964008
C77	C	0.755644	0.380696	0.922713
C78	C	0.722199	0.431232	0.963963
C79	C	0.822550	0.279614	0.922751
C80	C	0.822538	0.279630	0.840200
C81	C	0.789076	0.330179	0.798903
C82	C	0.755630	0.380716	0.840159
C83	C	0.722171	0.431269	0.798864
C84	C	0.688722	0.481803	0.840118
C85	C	0.688738	0.481781	0.922667
C86	C	0.789061	0.330200	0.716355
C87	C	0.722158	0.431289	0.716310
H88	H	0.457512	0.472659	0.472574
O89	O	0.201980	0.531179	0.530991
C90	C	0.117881	0.576119	0.575712
C91	C	0.147916	0.520451	0.520193
H92	H	0.074165	0.567476	0.566989
H93	H	0.128605	0.562317	0.639487
H94	H	0.128643	0.639823	0.561722
H95	H	0.137170	0.456729	0.534112
H96	H	0.137190	0.534321	0.456434
O97	O	0.855099	0.230485	0.962741
C98	C	0.921435	0.130189	0.954077
C99	C	0.884610	0.185805	0.908686
H100	H	0.945297	0.094039	0.910393
H101	H	0.948803	0.166437	0.992706
H102	H	0.897438	0.088878	0.992745
H103	H	0.908565	0.227127	0.869975
H104	H	0.857241	0.149507	0.870106
O105	O	-0.049216	0.480595	0.480579
C106	C	-0.133331	0.525482	0.525288
C107	C	-0.103277	0.469840	0.469766
H108	H	-0.177044	0.516818	0.516552
H109	H	-0.122611	0.511675	0.589063
H110	H	-0.122581	0.589194	0.511311
H111	H	-0.114010	0.406110	0.483671
H112	H	-0.113999	0.483716	0.406007
H113	H	0.816360	0.288974	1.080181
O114	O	0.656220	0.961945	0.531038
C115	C	0.626612	1.089124	0.575828
C116	C	0.663411	1.043670	0.520312
H117	H	0.632421	1.155206	0.567186
H118	H	0.584444	1.072999	0.561873
H119	H	0.635753	1.072808	0.639571
H120	H	0.654317	1.059961	0.456550
H121	H	0.705568	1.059799	0.534334
H122	H	0.849774	0.238481	0.806618
H123	H	0.305340	0.238383	0.239046
O124	O	0.201915	0.230547	0.231125
C125	C	0.117795	0.185698	0.186366
C126	C	0.147856	0.241307	0.241925
H127	H	0.074083	0.194367	0.195091
H128	H	0.128485	0.199535	0.122602
H129	H	0.128567	0.121977	0.200315
H130	H	0.137100	0.305047	0.228048
H131	H	0.137164	0.227403	0.305674
O132	O	0.309611	0.531264	0.531070
C133	C	0.303854	0.631694	0.631153
C134	C	0.273844	0.576016	0.575600
H135	H	0.274949	0.667902	0.667158
H136	H	0.329421	0.595491	0.672597
H137	H	0.329414	0.672949	0.594784
H138	H	0.248255	0.534749	0.611905
H139	H	0.248309	0.612267	0.534154
H140	H	0.816350	1.079146	0.289465
H141	H	0.694952	1.079164	0.472694
O142	O	0.821566	0.281045	0.676403
C143	C	0.887956	0.180820	0.685155
C144	C	0.851160	0.236440	0.730498
H145	H	0.911899	0.144755	0.728871
H146	H	0.863983	0.139436	0.646535
H147	H	0.915252	0.217141	0.646483
H148	H	0.823856	0.200183	0.769213
H149	H	0.875165	0.277826	0.769068
O150	O	0.855059	0.799188	0.230978
C151	C	0.921417	0.807895	0.130778
C152	C	0.884594	0.853263	0.186330
H153	H	0.945298	0.851594	0.094654
H154	H	0.948766	0.769227	0.167075
H155	H	0.897416	0.769268	0.089439
H156	H	0.908553	0.891933	0.227680
H157	H	0.857244	0.891880	0.149984
H158	H	0.694852	0.681747	0.472662
O159	O	0.453131	0.281159	0.281444
C160	C	0.391401	0.270360	0.174820
C161	C	0.421458	0.326019	0.230335
H162	H	0.365777	0.306605	0.133495
H163	H	0.420257	0.234190	0.138686
H164	H	0.365889	0.229068	0.211225
H165	H	0.446970	0.367359	0.193991
H166	H	0.392573	0.362133	0.266472
H167	H	0.054215	0.472712	0.472653
O168	O	-0.049114	0.281157	0.281503
C169	C	-0.065866	0.242661	0.147107
C170	C	-0.035858	0.298335	0.202668
H171	H	-0.055168	0.256541	0.083356
H172	H	-0.055100	0.178930	0.161027
H173	H	-0.109580	0.251332	0.155810
H174	H	0.007862	0.289735	0.193995
H175	H	-0.046668	0.362046	0.188734
O176	O	0.560776	0.480629	0.480539
C177	C	0.555030	0.581064	0.580618
C178	C	0.525013	0.525384	0.525074
H179	H	0.526129	0.617275	0.616626
H180	H	0.580600	0.544863	0.622058
H181	H	0.580588	0.622316	0.544241
H182	H	0.499427	0.484121	0.561386
H183	H	0.499476	0.561635	0.483631
H184	H	0.694978	0.472353	1.080110
H185	H	0.849777	0.955320	0.238953
O186	O	0.821562	0.675364	0.281465
C187	C	0.887907	0.684068	0.181245
C188	C	0.851094	0.729437	0.236810
H189	H	0.911785	0.727766	0.145116
H190	H	0.915259	0.645395	0.217532
H191	H	0.863898	0.645445	0.139912
H192	H	0.875060	0.768103	0.278155
H193	H	0.823740	0.768060	0.200474
H194	H	0.054168	0.289045	0.289535
H195	H	0.556523	0.289000	0.289424
O196	O	0.689714	0.480513	0.676232
C197	C	0.664277	0.614968	0.650976
C198	C	0.701057	0.559311	0.696400
H199	H	0.673427	0.678687	0.667278
H200	H	0.670017	0.606374	0.584880
H201	H	0.622126	0.601035	0.667182
H202	H	0.743222	0.573210	0.680260
H203	H	0.695272	0.567916	0.762485
H204	H	0.661482	0.522966	0.806485
O205	O	0.656213	0.798961	0.531076
C206	C	0.626504	0.671785	0.575772
C207	C	0.663302	0.717235	0.520232
H208	H	0.632215	0.605702	0.567012
H209	H	0.635663	0.687903	0.639544
H210	H	0.584360	0.688112	0.561837
H211	H	0.705458	0.700932	0.534096
H212	H	0.654098	0.701113	0.456477
H213	H	0.661506	0.522926	0.956263
