data_functionalizedCrystal
_audit_creation_method	'MofGen! by Chris Wilmer'
_symmetry_space_group_name_H-M	'P1'
_symmetry_Int_Tables_number	1
_symmetry_cell_setting	triclinic
loop_
_symmetry_equiv_pos_as_xyz
  x,y,z
_cell_length_a	14.044191
_cell_length_b	14.044209
_cell_length_c	13.596369
_cell_angle_alpha	90.008557
_cell_angle_beta	89.997249
_cell_angle_gamma	86.810135
loop_
_atom_site_label
_atom_site_type_symbol
_atom_site_fract_x
_atom_site_fract_y
_atom_site_fract_z
O1	O	1.277172	-0.230202	-0.081755
O2	O	1.000499	-0.221889	-0.081767
O3	O	1.134684	-0.087709	-0.081748
O4	O	1.142987	-0.364381	-0.081775
O5	O	1.134669	-0.087700	0.081835
O6	O	1.000484	-0.221880	0.081816
O7	O	1.277156	-0.230193	0.081828
Zn8	Zn	1.138818	-0.226035	0.107794
Zn9	Zn	1.138838	-0.226047	-0.107734
O10	O	1.142972	-0.364372	0.081808
C11	C	0.964870	-0.218248	0.000023
C12	C	0.858727	-0.207401	0.000019
C13	C	0.613268	-0.264501	0.000023
C14	C	0.664394	-0.187585	0.000029
C15	C	0.772531	-0.198613	0.000023
C16	C	0.505121	-0.253474	0.000028
C17	C	1.131041	-0.052083	0.000045
C18	C	1.120197	0.054060	0.000049
C19	C	1.100372	0.248398	0.000040
C20	C	1.177287	0.299526	0.000042
C21	C	1.166257	0.407663	0.000037
C22	C	1.111402	0.140252	0.000045
C23	C	1.312786	-0.233834	0.000035
C24	C	1.418929	-0.244681	0.000033
C25	C	1.146617	0.600001	0.000021
C26	C	1.157467	0.493859	0.000033
N27	N	1.138811	-0.226027	0.254886
N28	N	1.138852	-0.226048	-0.254826
C29	C	1.138837	-0.226048	0.656177
C30	C	1.138827	-0.226045	0.544525
C31	C	1.138824	-0.226038	0.455535
C32	C	1.138814	-0.226034	0.343876
H33	H	0.650708	-0.338628	0.000012
O34	O	1.265751	0.254912	-0.000116
C35	C	1.315662	0.281650	-0.084817
H36	H	1.262584	0.306777	-0.144045
H37	H	1.363471	0.341973	-0.065658
C38	C	1.442490	0.164562	-0.050468
C39	C	1.377299	0.195417	-0.123216
H40	H	1.480514	0.111372	-0.074153
H41	H	1.408867	0.146551	0.006599
H42	H	1.482322	0.214840	-0.034509
H43	H	1.337461	0.145143	-0.139165
H44	H	1.410917	0.213418	-0.180287
O45	O	0.619884	-0.099073	0.000075
C46	C	0.688718	-0.029723	0.000048
H47	H	0.758675	-0.062087	0.031018
H48	H	0.700525	-0.004353	-0.078432
C49	C	0.567540	0.095228	0.026160
C50	C	0.653460	0.055480	0.064205
H51	H	0.545790	0.147787	0.065730
H52	H	0.521164	0.048507	0.026174
H53	H	0.577390	0.116362	-0.039240
H54	H	0.643606	0.034336	0.129598
H55	H	0.699833	0.102199	0.064203
O56	O	1.012006	0.293208	0.000085
C57	C	1.020528	0.392765	0.000059
H58	H	1.093091	0.409727	0.031023
H59	H	1.013604	0.420873	-0.078419
C60	C	0.852045	0.419801	0.026186
C61	C	0.941165	0.440634	0.064224
H62	H	0.803088	0.449330	0.065762
H63	H	0.846302	0.352727	0.026200
H64	H	0.846289	0.443225	-0.039212
H65	H	0.946925	0.417200	0.129616
H66	H	0.946907	0.507705	0.064223
