data_functionalizedCrystal
_audit_creation_method	'MofGen! by Chris Wilmer'
_symmetry_space_group_name_H-M	'P1'
_symmetry_Int_Tables_number	1
_symmetry_cell_setting	triclinic
loop_
_symmetry_equiv_pos_as_xyz
  x,y,z
_cell_length_a	18.215405
_cell_length_b	18.050591
_cell_length_c	18.215399
_cell_angle_alpha	90.025700
_cell_angle_beta	90.030551
_cell_angle_gamma	90.020891
loop_
_atom_site_label
_atom_site_type_symbol
_atom_site_fract_x
_atom_site_fract_y
_atom_site_fract_z
Zn1	Zn	-0.293070	1.135345	0.416218
Zn2	Zn	0.206930	1.635345	0.916218
Zn3	Zn	-0.416141	1.135252	0.293146
Zn4	Zn	0.083859	1.635252	0.793146
Zn5	Zn	-0.293085	1.011154	0.293152
Zn6	Zn	0.206915	1.511154	0.793152
Zn7	Zn	-0.416091	1.011119	0.416158
Zn8	Zn	0.083909	1.511119	0.916158
O9	O	-0.354597	1.073217	0.354669
O10	O	0.145403	1.573217	0.854669
O11	O	-0.309411	1.239257	0.399914
O12	O	0.190589	1.739257	0.899914
O13	O	-0.399845	1.118766	0.190162
O14	O	0.100155	1.618766	0.690162
O15	O	-0.190099	1.027681	0.309505
O16	O	0.309901	1.527681	0.809505
O17	O	-0.399831	1.239189	0.309494
O18	O	0.100169	1.739189	0.809494
O19	O	-0.190088	1.118924	0.399921
O20	O	0.309912	1.618924	0.899921
O21	O	-0.309436	1.027591	0.190167
O22	O	0.190564	1.527591	0.690167
O23	O	-0.309387	0.907224	0.309447
O24	O	0.190613	1.407224	0.809447
O25	O	-0.399745	1.027622	0.519150
O26	O	0.100255	1.527622	1.019150
O27	O	-0.399759	0.907199	0.399819
O28	O	0.100241	1.407199	0.899819
O29	O	-0.309362	1.118890	0.519194
O30	O	0.190638	1.618890	1.019194
O31	O	-0.519119	1.118733	0.309436
O32	O	-0.019119	1.618733	0.809436
O33	O	-0.519082	1.027533	0.399813
O34	O	-0.019082	1.527533	0.899813
C35	C	-0.545803	1.073139	0.354633
C36	C	-0.045803	1.573139	0.854633
C37	C	-0.627602	1.073173	0.354643
C38	C	-0.127602	1.573173	0.854643
C39	C	-0.354569	0.880265	0.354628
C40	C	0.145431	1.380265	0.854628
C41	C	-0.354575	0.797720	0.354628
C42	C	0.145425	1.297720	0.854628
C43	C	-0.815791	1.120773	0.307670
C44	C	-0.315791	1.620773	0.807670
C45	C	-0.892650	1.120806	0.307688
C46	C	-0.392650	1.620806	0.807688
C47	C	-0.892651	1.025757	0.401720
C48	C	-0.392651	1.525757	0.901720
C49	C	-0.815794	1.025728	0.401705
C50	C	-0.315794	1.525728	0.901705
C51	C	-0.777365	1.073235	0.354676
C52	C	-0.277365	1.573235	0.854676
C53	C	-0.931082	1.073297	0.354709
C54	C	-0.431082	1.573297	0.854709
C55	C	-1.014415	1.073333	0.354728
C56	C	-0.514415	1.573333	0.854728
C57	C	-0.694027	1.073201	0.354657
C58	C	-0.194027	1.573201	0.854657
C59	C	-0.305374	0.598261	0.305597
C60	C	0.194626	1.098261	0.805597
C61	C	-0.372499	0.548844	0.287483
C62	C	0.127501	1.048844	0.787483
C63	C	-0.354598	0.646589	0.354661
C64	C	0.145402	1.146589	0.854661
C65	C	-0.287496	0.548925	0.372773
C66	C	0.212504	1.048925	0.872773
C67	C	-0.354613	0.500604	0.354692
C68	C	0.145387	1.000604	0.854692
C69	C	-0.421758	0.598259	0.336512
C70	C	0.078242	1.098259	0.836512
C71	C	-0.336710	0.598344	0.421833
C72	C	0.163290	1.098344	0.921833
C73	C	-0.403881	0.548949	0.403745
C74	C	0.096119	1.048949	0.903745
C75	C	-0.354588	0.730687	0.354642
C76	C	0.145412	1.230687	0.854642
C77	C	-0.354631	0.416508	0.354712
C78	C	0.145369	0.916508	0.854712
C79	C	-0.162644	1.073316	0.354720
C80	C	0.337356	1.573316	0.854720
C81	C	-0.080845	1.073359	0.354742
C82	C	0.419155	1.573359	0.854742
C83	C	-0.354546	1.073263	0.546622
C84	C	0.145454	1.573263	1.046622
C85	C	-0.354524	1.073282	0.628420
C86	C	0.145476	1.573282	1.128420
C87	C	-0.354625	1.266923	0.354710
C88	C	0.145375	1.766923	0.854710
C89	C	-0.354637	1.349469	0.354727
C90	C	0.145363	1.849469	0.854727
C91	C	-0.354594	1.073215	0.163462
C92	C	0.145406	1.573215	0.663462
C93	C	-0.354409	1.073340	0.081664
C94	C	0.145591	1.573340	0.581664
C95	C	-0.307418	1.120822	0.816639
C96	C	0.192582	1.620822	1.316639
C97	C	-0.307397	1.120831	0.893497
C98	C	0.192603	1.620831	1.393497
C99	C	-0.401517	1.025794	0.893440
C100	C	0.098483	1.525794	1.393440
C101	C	-0.401534	1.025782	0.816583
C102	C	0.098466	1.525782	1.316583
C103	C	-0.354486	1.073300	0.778184
C104	C	0.145514	1.573300	1.278184
C105	C	-0.354447	1.073321	0.931900
C106	C	0.145553	1.573321	1.431900
C107	C	-0.354424	1.073331	1.015234
C108	C	0.145576	1.573331	1.515234
C109	C	-0.354508	1.073290	0.694845
C110	C	0.145492	1.573290	1.194845
H111	H	-0.784504	1.159457	0.269377
H112	H	-0.284504	1.659457	0.769377
N113	N	-0.934095	1.172080	0.256990
N114	N	-0.434095	1.672080	0.756990
H115	H	-0.898086	1.202169	0.227198
H116	H	-0.398086	1.702169	0.727198
H117	H	-0.966032	1.141884	0.222909
H118	H	-0.466032	1.641884	0.722909
N119	N	-0.256675	1.172070	0.775221
N120	N	0.243325	1.672070	1.275221
H121	H	-0.226854	1.202175	0.811247
H122	H	0.273146	1.702175	1.311247
H123	H	-0.222622	1.141852	0.743333
H124	H	0.277378	1.641852	1.243333
N125	N	-0.934098	0.974517	0.452439
N126	N	-0.434098	1.474517	0.952439
H127	H	-0.988618	0.981745	0.445314
H128	H	-0.488618	1.481745	0.945314
H129	H	-0.920709	0.921480	0.440924
H130	H	-0.420709	1.421480	0.940924
N131	N	-0.256623	1.172078	0.934974
N132	N	0.243377	1.672078	1.434974
H133	H	-0.226820	1.202174	0.898984
H134	H	0.273180	1.702174	1.398984
H135	H	-0.286568	1.206438	0.966870
H136	H	0.213432	1.706438	1.466870
N137	N	-0.452259	0.974554	0.934870
N138	N	0.047741	1.474554	1.434870
H139	H	-0.504847	0.986057	0.921485
H140	H	-0.004847	1.486057	1.421485
H141	H	-0.440763	0.921514	0.921472
H142	H	0.059237	1.421514	1.421472
H143	H	-0.387640	0.527102	0.230690
H144	H	0.112360	1.027102	0.730690
H145	H	-0.439862	0.987079	0.785273
H146	H	0.060138	1.487079	1.285273
H147	H	-0.445563	0.527434	0.445250
H148	H	0.054437	1.027434	0.945250
H149	H	-0.784506	0.987017	0.439987
H150	H	-0.284506	1.487017	0.939987
N151	N	-0.250294	0.626950	0.250583
N152	N	0.249706	1.126950	0.750583
H153	H	-0.263912	0.608943	0.199866
H154	H	0.236088	1.108943	0.699866
H155	H	-0.250372	0.682897	0.251357
H156	H	0.249628	1.182897	0.751357
N157	N	-0.212325	0.520212	0.393052
N158	N	0.287675	1.020212	0.893052
H159	H	-0.175180	0.538150	0.355941
H160	H	0.324820	1.038150	0.855941
H161	H	-0.198489	0.538997	0.443431
H162	H	0.301511	1.038997	0.943431
H163	H	-0.478528	0.619840	0.321143
H164	H	0.021472	1.119840	0.821143
N165	N	-0.316635	0.627167	0.497042
N166	N	0.183365	1.127167	0.997042
H167	H	-0.265906	0.609254	0.510670
H168	H	0.234094	1.109254	1.010670
H169	H	-0.317296	0.683112	0.496533
H170	H	0.182704	1.183112	0.996533
