data_functionalizedCrystal
_audit_creation_method	'MofGen! by Chris Wilmer'
_symmetry_space_group_name_H-M	'P1'
_symmetry_Int_Tables_number	1
_symmetry_cell_setting	triclinic
loop_
_symmetry_equiv_pos_as_xyz
  x,y,z
_cell_length_a	16.109301
_cell_length_b	27.732048
_cell_length_c	14.586319
_cell_angle_alpha	89.991275
_cell_angle_beta	89.999213
_cell_angle_gamma	83.052068
loop_
_atom_site_label
_atom_site_type_symbol
_atom_site_fract_x
_atom_site_fract_y
_atom_site_fract_z
O1	O	1.102362	0.062130	-0.076193
O2	O	1.352362	0.312130	0.173807
O3	O	1.602362	0.562130	0.423807
O4	O	1.852362	0.812130	0.673807
O5	O	0.860204	0.069862	-0.076208
O6	O	1.110204	0.319862	0.173792
O7	O	1.360204	0.569862	0.423792
O8	O	1.610204	0.819862	0.673792
O9	O	0.988804	-0.004369	-0.076183
O10	O	1.238804	0.245631	0.173817
O11	O	1.488804	0.495631	0.423817
O12	O	1.738804	0.745631	0.673817
O13	O	0.973762	0.136361	-0.076218
O14	O	1.223762	0.386361	0.173782
O15	O	1.473762	0.636361	0.423782
O16	O	1.723762	0.886361	0.673782
O17	O	0.988795	-0.004370	0.076298
O18	O	1.238795	0.245630	0.326298
O19	O	1.488795	0.495630	0.576298
O20	O	1.738795	0.745630	0.826298
O21	O	0.860195	0.069861	0.076272
O22	O	1.110195	0.319861	0.326272
O23	O	1.360195	0.569861	0.576272
O24	O	1.610195	0.819861	0.826272
O25	O	1.102353	0.062129	0.076288
O26	O	1.352353	0.312129	0.326288
O27	O	1.602353	0.562129	0.576288
O28	O	1.852353	0.812129	0.826288
Cu29	Cu	0.981273	0.065995	0.090203
Cu30	Cu	1.231273	0.315995	0.340203
Cu31	Cu	1.481273	0.565995	0.590203
Cu32	Cu	1.731273	0.815995	0.840203
Cu33	Cu	0.981283	0.065996	-0.090123
Cu34	Cu	1.231283	0.315996	0.159877
Cu35	Cu	1.481283	0.565996	0.409877
Cu36	Cu	1.731283	0.815996	0.659877
O37	O	0.973753	0.136360	0.076262
O38	O	1.223753	0.386360	0.326262
O39	O	1.473753	0.636360	0.576262
O40	O	1.723753	0.886360	0.826262
C41	C	0.829228	0.069548	0.000030
C42	C	1.079228	0.319548	0.250030
C43	C	1.329228	0.569548	0.500030
C44	C	1.579228	0.819548	0.750030
C45	C	0.736945	0.068609	0.000025
C46	C	0.986945	0.318609	0.250025
C47	C	1.236945	0.568609	0.500025
C48	C	1.486945	0.818609	0.750025
C49	C	0.514154	0.110473	0.000025
C50	C	0.764154	0.360473	0.250025
C51	C	1.014154	0.610473	0.500025
C52	C	1.264154	0.860473	0.750025
C53	C	0.427445	0.109587	0.000031
C54	C	0.677445	0.359587	0.250031
C55	C	0.927445	0.609587	0.500031
C56	C	1.177445	0.859587	0.750031
C57	C	0.448409	0.021514	0.000050
C58	C	0.698409	0.271514	0.250050
C59	C	0.948409	0.521514	0.500050
C60	C	1.198409	0.771514	0.750050
C61	C	0.535117	0.022401	0.000050
C62	C	0.785117	0.272401	0.250050
C63	C	1.035117	0.522401	0.500050
C64	C	1.285117	0.772401	0.750050
C65	C	0.567987	0.066882	0.000033
C66	C	0.817987	0.316882	0.250033
C67	C	1.067987	0.566882	0.500033
C68	C	1.317987	0.816882	0.750033
C69	C	0.394570	0.065109	0.000039
C70	C	0.644570	0.315109	0.250039
C71	C	0.894570	0.565109	0.500039
C72	C	1.144570	0.815109	0.750039
C73	C	0.300556	0.064148	0.000045
C74	C	0.550556	0.314148	0.250045
C75	C	0.800556	0.564148	0.500045
C76	C	1.050556	0.814148	0.750045
C77	C	0.662007	0.067843	0.000028
C78	C	0.912007	0.317843	0.250028
C79	C	1.162007	0.567843	0.500028
C80	C	1.412007	0.817843	0.750028
C81	C	0.988483	-0.022378	0.000060
C82	C	1.238483	0.227622	0.250060
C83	C	1.488483	0.477622	0.500060
C84	C	1.738483	0.727622	0.750060
C85	C	0.987533	-0.076037	0.000068
C86	C	1.237533	0.173963	0.250068
C87	C	1.487533	0.423963	0.500068
C88	C	1.737533	0.673963	0.750068
C89	C	1.057541	-0.414559	0.000025
C90	C	1.307541	-0.164559	0.250025
C91	C	1.557541	0.085441	0.500025
C92	C	1.807541	0.335441	0.750025
C93	C	1.054013	-0.616233	0.000012
C94	C	1.304013	-0.366233	0.250012
C95	C	1.554013	-0.116233	0.500012
C96	C	1.804013	0.133767	0.750012
O97	O	1.118031	-0.647221	-0.000024
O98	O	1.368031	-0.397221	0.249976
O99	O	1.618031	-0.147221	0.499976
O100	O	1.868031	0.102779	0.749976
N101	N	0.977759	-0.635676	0.000008
N102	N	1.227759	-0.385676	0.250008
N103	N	1.477759	-0.135676	0.500008
N104	N	1.727759	0.114324	0.750008
C105	C	0.902381	-0.604697	0.000001
C106	C	1.152381	-0.354697	0.250001
C107	C	1.402381	-0.104697	0.500001
C108	C	1.652381	0.145303	0.750001
O109	O	0.837441	-0.625862	-0.000012
O110	O	1.087441	-0.375862	0.249988
O111	O	1.337441	-0.125862	0.499988
O112	O	1.587441	0.124138	0.749988
C113	C	0.905910	-0.403024	0.000008
C114	C	1.155910	-0.153024	0.250008
C115	C	1.405910	0.096976	0.500008
C116	C	1.655910	0.346976	0.750008
C117	C	0.982169	-0.383584	0.000021
C118	C	1.232169	-0.133584	0.250021
C119	C	1.482169	0.116416	0.500021
C120	C	1.732169	0.366416	0.750021
C121	C	1.133794	-0.395119	0.000038
C122	C	1.383794	-0.145119	0.250038
C123	C	1.633794	0.104881	0.500038
C124	C	1.883794	0.354881	0.750038
C125	C	1.134675	-0.344703	0.000046
C126	C	1.384675	-0.094703	0.250046
C127	C	1.634675	0.155297	0.500046
C128	C	1.884675	0.405297	0.750046
C129	C	1.059303	-0.313728	0.000042
C130	C	1.309303	-0.063728	0.250042
C131	C	1.559303	0.186272	0.500042
C132	C	1.809303	0.436272	0.750042
C133	C	0.983050	-0.333168	0.000029
C134	C	1.233050	-0.083168	0.250029
C135	C	1.483050	0.166832	0.500029
C136	C	1.733050	0.416832	0.750029
C137	C	0.830533	-0.372045	-0.000006
C138	C	1.080533	-0.122045	0.249994
C139	C	1.330533	0.127955	0.499994
C140	C	1.580533	0.377955	0.749994
C141	C	0.831422	-0.321624	-0.000006
C142	C	1.081422	-0.071624	0.249994
C143	C	1.331422	0.178376	0.499994
C144	C	1.581422	0.428376	0.749994
C145	C	0.907681	-0.302184	0.000007
C146	C	1.157681	-0.052184	0.250007
C147	C	1.407681	0.197816	0.500007
C148	C	1.657681	0.447816	0.750007
C149	C	0.908559	-0.251777	0.000034
C150	C	1.158559	-0.001777	0.250034
C151	C	1.408559	0.248223	0.500034
C152	C	1.658559	0.498223	0.750034
N153	N	0.984814	-0.232334	0.000038
N154	N	1.234814	0.017666	0.250038
N155	N	1.484814	0.267666	0.500038
N156	N	1.734814	0.517666	0.750038
C157	C	1.060186	-0.263310	0.000042
C158	C	1.310186	-0.013310	0.250042
C159	C	1.560186	0.236690	0.500042
C160	C	1.810186	0.486690	0.750042
C161	C	0.900534	-0.710579	-0.000000
C162	C	1.150534	-0.460579	0.250000
C163	C	1.400534	-0.210579	0.500000
C164	C	1.650534	0.039421	0.750000
C165	C	0.899652	-0.760997	-0.000000
C166	C	1.149652	-0.510997	0.250000
C167	C	1.399652	-0.260997	0.500000
C168	C	1.649652	-0.010997	0.750000
C169	C	1.051284	-0.772530	0.000009
C170	C	1.301284	-0.522530	0.250009
C171	C	1.551284	-0.272530	0.500009
C172	C	1.801284	-0.022530	0.750009
C173	C	1.052166	-0.722111	0.000016
C174	C	1.302166	-0.472111	0.250016
C175	C	1.552166	-0.222111	0.500016
C176	C	1.802166	0.027889	0.750016
C177	C	0.976789	-0.691136	0.000004
C178	C	1.226789	-0.441136	0.250004
C179	C	1.476789	-0.191136	0.500004
C180	C	1.726789	0.058864	0.750004
C181	C	1.062030	-0.157433	0.000060
C182	C	1.312030	0.092567	0.250060
C183	C	1.562030	0.342567	0.500060
C184	C	1.812030	0.592567	0.750060
C185	C	1.062905	-0.107012	0.000072
C186	C	1.312905	0.142988	0.250072
C187	C	1.562905	0.392988	0.500072
C188	C	1.812905	0.642988	0.750072
C189	C	0.911273	-0.095484	0.000058
C190	C	1.161273	0.154516	0.250058
C191	C	1.411273	0.404516	0.500058
C192	C	1.661273	0.654516	0.750058
C193	C	0.910398	-0.145900	0.000051
C194	C	1.160398	0.104100	0.250051
C195	C	1.410398	0.354100	0.500051
C196	C	1.660398	0.604100	0.750051
C197	C	0.985783	-0.176874	0.000049
C198	C	1.235783	0.073126	0.250049
C199	C	1.485783	0.323126	0.500049
C200	C	1.735783	0.573126	0.750049
O201	O	0.844576	-0.220761	0.000059
O202	O	1.094576	0.029239	0.250059
O203	O	1.344576	0.279239	0.500059
O204	O	1.594576	0.529239	0.750059
O205	O	1.125116	-0.242135	0.000035
O206	O	1.375116	0.007865	0.250035
O207	O	1.625116	0.257865	0.500035
O208	O	1.875116	0.507865	0.750035
C209	C	1.056660	-0.464975	0.000017
C210	C	1.306660	-0.214975	0.250017
C211	C	1.556660	0.035025	0.500017
C212	C	1.806660	0.285025	0.750017
C213	C	0.980407	-0.484415	0.000005
C214	C	1.230407	-0.234415	0.250005
C215	C	1.480407	0.015585	0.500005
C216	C	1.730407	0.265585	0.750005
C217	C	0.905035	-0.453440	0.000001
C218	C	1.155035	-0.203440	0.250001
C219	C	1.405035	0.046560	0.500001
C220	C	1.655035	0.296560	0.750001
C221	C	0.979525	-0.534833	0.000005
C222	C	1.229525	-0.284833	0.250005
C223	C	1.479525	-0.034833	0.500005
C224	C	1.729525	0.215167	0.750005
C225	C	1.054897	-0.565808	0.000009
C226	C	1.304897	-0.315808	0.250009
C227	C	1.554897	-0.065808	0.500009
C228	C	1.804897	0.184192	0.750009
C229	C	1.131151	-0.546365	0.000013
C230	C	1.381151	-0.296365	0.250013
C231	C	1.631151	-0.046365	0.500013
C232	C	1.881151	0.203635	0.750013
C233	C	1.132032	-0.495950	0.000021
C234	C	1.382032	-0.245950	0.250021
C235	C	1.632032	0.004050	0.500021
C236	C	1.882032	0.254050	0.750021
C237	C	0.828781	-0.472883	-0.000004
C238	C	1.078781	-0.222883	0.249996
C239	C	1.328781	0.027117	0.499996
C240	C	1.578781	0.277117	0.749996
C241	C	0.827906	-0.523299	-0.000011
C242	C	1.077906	-0.273299	0.249989
C243	C	1.327906	-0.023299	0.499989
C244	C	1.577906	0.226701	0.749989
C245	C	0.903278	-0.554274	-0.000007
C246	C	1.153278	-0.304274	0.249993
C247	C	1.403278	-0.054274	0.499993
C248	C	1.653278	0.195726	0.749993
C249	C	1.133328	0.062443	0.000048
C250	C	1.383328	0.312443	0.250048
C251	C	1.633328	0.562443	0.500048
C252	C	1.883328	0.812443	0.750048
C253	C	1.225612	0.063382	0.000047
C254	C	1.475612	0.313382	0.250047
C255	C	1.725612	0.563382	0.500047
C256	C	1.975612	0.813382	0.750047
C257	C	0.974073	0.154369	0.000017
C258	C	1.224073	0.404369	0.250017
C259	C	1.474073	0.654369	0.500017
C260	C	1.724073	0.904369	0.750017
C261	C	0.975024	0.208028	0.000004
C262	C	1.225024	0.458028	0.250004
C263	C	1.475024	0.708028	0.500004
C264	C	1.725024	0.958028	0.750004
N265	N	0.981272	0.065994	0.217035
N266	N	1.231272	0.315994	0.467035
N267	N	1.481272	0.565994	0.717035
N268	N	1.731272	0.815994	0.967035
N269	N	0.981291	0.065994	-0.216955
N270	N	1.231291	0.315994	0.033045
N271	N	1.481291	0.565994	0.283045
N272	N	1.731291	0.815994	0.533045
C273	C	1.038234	0.033135	0.452053
C274	C	1.288234	0.283135	0.702053
C275	C	1.538234	0.533135	0.952053
C276	C	1.788234	0.783135	1.202053
C277	C	1.038237	0.033134	0.548034
C278	C	1.288237	0.283134	0.798034
C279	C	1.538237	0.533134	1.048034
C280	C	1.788237	0.783134	1.298034
C281	C	0.924323	0.098854	0.548020
C282	C	1.174323	0.348854	0.798020
C283	C	1.424323	0.598854	1.048020
C284	C	1.674323	0.848854	1.298020
C285	C	0.924317	0.098852	0.452041
C286	C	1.174317	0.348852	0.702041
C287	C	1.424317	0.598852	0.952041
C288	C	1.674317	0.848852	1.202041
C289	C	0.981278	0.065993	0.404060
C290	C	1.231278	0.315993	0.654060
C291	C	1.481278	0.565993	0.904060
C292	C	1.731278	0.815993	1.154060
C293	C	0.981286	0.065994	0.596020
C294	C	1.231286	0.315994	0.846020
C295	C	1.481286	0.565994	1.096020
C296	C	1.731286	0.815994	1.346020
C297	C	0.981288	0.065993	0.700087
C298	C	1.231288	0.315993	0.950087
C299	C	1.481288	0.565993	1.200087
C300	C	1.731288	0.815993	1.450087
C301	C	0.981275	0.065994	0.299986
C302	C	1.231275	0.315994	0.549986
C303	C	1.481275	0.565994	0.799986
C304	C	1.731275	0.815994	1.049986
H305	H	1.125007	-0.091187	0.000085
H306	H	1.375007	0.158813	0.250085
H307	H	1.625007	0.408813	0.500085
H308	H	1.875007	0.658813	0.750085
Cl309	Cl	0.602798	-0.032404	0.000068
Cl310	Cl	0.852798	0.217596	0.250068
Cl311	Cl	1.102798	0.467596	0.500068
Cl312	Cl	1.352798	0.717596	0.750068
Cl313	Cl	1.156802	-0.196363	0.000059
Cl314	Cl	1.406802	0.053637	0.250059
Cl315	Cl	1.656802	0.303637	0.500059
Cl316	Cl	1.906802	0.553637	0.750059
Cl317	Cl	0.803779	-0.785429	0.000001
Cl318	Cl	1.053779	-0.535429	0.250001
Cl319	Cl	1.303779	-0.285429	0.500001
Cl320	Cl	1.553779	-0.035429	0.750001
H321	H	0.877948	0.125607	0.587097
H322	H	1.127948	0.375607	0.837097
H323	H	1.377948	0.625607	1.087097
H324	H	1.627948	0.875607	1.337097
Cl325	Cl	1.230549	-0.320272	0.000037
Cl326	Cl	1.480549	-0.070272	0.250037
Cl327	Cl	1.730549	0.179728	0.500037
Cl328	Cl	1.980549	0.429728	0.750037
H329	H	0.540913	0.146692	0.000018
H330	H	0.790913	0.396692	0.250018
H331	H	1.040913	0.646692	0.500018
H332	H	1.290913	0.896692	0.750018
H333	H	0.877932	0.125610	0.412962
H334	H	1.127932	0.375610	0.662962
H335	H	1.377932	0.625610	0.912962
H336	H	1.627932	0.875610	1.162962
H337	H	0.383617	0.145084	0.000026
H338	H	0.633617	0.395084	0.250026
H339	H	0.883617	0.645084	0.500026
H340	H	1.133617	0.895084	0.750026
Cl341	Cl	1.148038	-0.697678	0.000031
Cl342	Cl	1.398038	-0.447678	0.250031
Cl343	Cl	1.648038	-0.197678	0.500031
Cl344	Cl	1.898038	0.052322	0.750031
H345	H	1.084615	0.006377	0.587107
H346	H	1.334615	0.256377	0.837107
H347	H	1.584615	0.506377	1.087107
H348	H	1.834615	0.756377	1.337107
H349	H	0.421636	-0.014700	0.000069
H350	H	0.671636	0.235300	0.250069
H351	H	0.921636	0.485300	0.500069
H352	H	1.171636	0.735300	0.750069
H353	H	1.084614	0.006379	0.412988
H354	H	1.334614	0.256379	0.662988
H355	H	1.584614	0.506379	0.912988
H356	H	1.834614	0.756379	1.162988
H357	H	0.839149	-0.685363	-0.000010
H358	H	1.089149	-0.435363	0.249990
H359	H	1.339149	-0.185363	0.499990
H360	H	1.589149	0.064637	0.749990
H361	H	0.767402	-0.447667	-0.000009
H362	H	1.017402	-0.197667	0.249991
H363	H	1.267402	0.052333	0.499991
H364	H	1.517402	0.302333	0.749991
Cl365	Cl	1.146037	-0.811479	0.000010
Cl366	Cl	1.396037	-0.561479	0.250010
Cl367	Cl	1.646037	-0.311479	0.500010
Cl368	Cl	1.896037	-0.061479	0.750010
Cl369	Cl	1.228561	-0.434051	0.000045
Cl370	Cl	1.478561	-0.184051	0.250045
Cl371	Cl	1.728561	0.065949	0.500045
Cl372	Cl	1.978561	0.315949	0.750045
Cl373	Cl	0.736655	-0.282687	-0.000022
Cl374	Cl	0.986655	-0.032687	0.249978
Cl375	Cl	1.236655	0.217313	0.499978
Cl376	Cl	1.486655	0.467313	0.749978
Cl377	Cl	0.734658	-0.396471	-0.000029
Cl378	Cl	0.984658	-0.146471	0.249971
Cl379	Cl	1.234658	0.103529	0.499971
Cl380	Cl	1.484658	0.353529	0.749971
Cl381	Cl	0.814528	-0.170339	0.000051
Cl382	Cl	1.064528	0.079661	0.250051
Cl383	Cl	1.314528	0.329661	0.500051
Cl384	Cl	1.564528	0.579661	0.750051
Cl385	Cl	0.816525	-0.056534	0.000051
Cl386	Cl	1.066525	0.193466	0.250051
Cl387	Cl	1.316525	0.443466	0.500051
Cl388	Cl	1.566525	0.693466	0.750051
H389	H	1.194130	-0.480127	0.000032
H390	H	1.444130	-0.230127	0.250032
H391	H	1.694130	0.019873	0.500032
H392	H	1.944130	0.269873	0.750032
Cl393	Cl	1.225903	-0.585315	0.000022
Cl394	Cl	1.475903	-0.335315	0.250022
Cl395	Cl	1.725903	-0.085315	0.500022
Cl396	Cl	1.975903	0.164685	0.750022
Cl397	Cl	0.732027	-0.547730	-0.000023
Cl398	Cl	0.982027	-0.297730	0.249977
Cl399	Cl	1.232027	-0.047730	0.499977
Cl400	Cl	1.482027	0.202270	0.749977
