data_functionalizedCrystal
_audit_creation_method	'MofGen! by Chris Wilmer'
_symmetry_space_group_name_H-M	'P1'
_symmetry_Int_Tables_number	1
_symmetry_cell_setting	triclinic
loop_
_symmetry_equiv_pos_as_xyz
  x,y,z
_cell_length_a	23.532407
_cell_length_b	13.339070
_cell_length_c	11.804365
_cell_angle_alpha	74.875130
_cell_angle_beta	78.249483
_cell_angle_gamma	80.761014
loop_
_atom_site_label
_atom_site_type_symbol
_atom_site_fract_x
_atom_site_fract_y
_atom_site_fract_z
O1	O	0.276790	-1.359957	0.099117
O2	O	0.239376	-1.065803	0.099104
O3	O	0.176583	-1.221746	0.099089
O4	O	0.339583	-1.204015	0.099132
O5	O	0.193091	-1.180692	-0.098963
O6	O	0.255884	-1.024750	-0.098948
O7	O	0.293298	-1.318904	-0.098935
Cu8	Cu	0.276099	-1.168078	-0.117025
Cu9	Cu	0.256576	-1.216629	0.117194
O10	O	0.356091	-1.162961	-0.098920
C11	C	0.241310	-1.007650	0.000076
C12	C	0.222472	-0.895537	0.000070
C13	C	0.163549	-1.200767	0.000060
C14	C	0.100114	-1.199407	0.000051
C15	C	0.291364	-1.377057	0.000096
C16	C	0.310202	-1.489172	0.000110
C17	C	-0.285492	-1.283187	0.000120
C18	C	-0.345096	-1.281927	0.000129
O19	O	-0.369327	-1.359590	0.000177
N20	N	-0.382667	-1.189217	0.000124
C21	C	-0.360632	-1.097762	0.000122
O22	O	-0.398062	-1.018789	0.000120
C23	C	-0.301029	-1.099025	0.000122
C24	C	-0.263460	-1.191739	0.000115
C25	C	-0.247923	-1.375894	0.000114
C26	C	-0.188323	-1.377153	0.000103
C27	C	-0.166291	-1.285705	0.000098
C28	C	-0.203860	-1.192998	0.000103
C29	C	-0.278996	-1.007574	0.000128
C30	C	-0.219389	-1.008845	0.000129
C31	C	-0.181819	-1.101559	0.000122
C32	C	-0.122227	-1.102809	0.000087
N33	N	-0.084657	-1.195520	0.000092
C34	C	-0.106688	-1.286968	0.000097
C35	C	-0.485801	-1.095118	0.000125
C36	C	-0.545402	-1.093853	0.000117
C37	C	-0.529862	-1.278019	0.000126
C38	C	-0.470260	-1.279281	0.000126
C39	C	-0.448230	-1.187829	0.000130
C40	C	0.018476	-1.289605	0.000073
C41	C	0.078082	-1.290855	0.000057
C42	C	0.062536	-1.106691	0.000053
C43	C	0.002937	-1.105439	0.000063
C44	C	-0.019092	-1.196905	0.000077
O45	O	-0.097956	-1.025189	0.000044
O46	O	-0.069253	-1.365931	0.000115
C47	C	0.369126	-1.183941	0.000112
C48	C	0.432560	-1.185302	0.000129
N49	N	0.289830	-1.133938	-0.281762
C50	C	0.368948	-0.529284	0.000127
C51	C	0.386649	-0.634620	0.000137
C52	C	0.345606	-0.699854	0.000119
C53	C	0.286860	-0.659742	0.000094
C54	C	0.269156	-0.554397	0.000094
C55	C	0.245814	-0.724967	0.000086
C56	C	0.187067	-0.684855	0.000060
C57	C	0.169367	-0.579519	0.000059
C58	C	0.210410	-0.514285	0.000076
C59	C	0.263518	-0.830313	0.000086
C60	C	0.163726	-0.855425	0.000053
C61	C	0.146025	-0.750089	0.000043
C62	C	0.209855	-1.332761	-0.655730
C63	C	0.199464	-1.358587	-0.531071
C64	C	0.222055	-1.302427	-0.468737
C65	C	0.255038	-1.220436	-0.531076
C66	C	0.265434	-1.194613	-0.655747
C67	C	0.277633	-1.164279	-0.468755
C68	C	0.310617	-1.082288	-0.531093
C69	C	0.321010	-1.056469	-0.655752
C70	C	0.298420	-1.112629	-0.718086
C71	C	0.267238	-1.190102	-0.344083
C72	C	0.322817	-1.051954	-0.344101
C73	C	0.333207	-1.026128	-0.468760
N74	N	0.242841	-1.250777	0.281932
H75	H	0.108670	-1.366356	0.000048
F76	F	-0.462361	-0.997773	0.000119
H77	H	0.213593	-1.323458	-0.367234
F78	F	0.364447	-0.811963	0.000127
F79	F	-0.004959	-1.386954	0.000088
F80	F	0.164364	-1.445843	-0.464730
F81	F	0.185821	-1.392530	-0.722073
H82	H	-0.157739	-1.452652	0.000102
H83	H	-0.265854	-1.450368	0.000123
H84	H	0.080486	-1.032235	0.000045
F85	F	-0.430281	-1.377959	0.000119
F86	F	0.449169	-0.677305	0.000169
H87	H	0.306878	-1.091599	-0.819594
F88	F	0.356121	-0.969218	-0.722098
H89	H	0.121530	-0.546866	0.000052
H90	H	0.098191	-0.717416	0.000032
F91	F	0.346863	-0.992183	-0.277767
H92	H	0.402358	-0.476164	0.000151
H93	H	0.311350	-0.862961	0.000102
F94	F	-0.037047	-1.006758	0.000049
H95	H	0.196000	-0.428510	0.000068
H96	H	-0.309576	-0.932078	0.000141
F97	F	0.120041	-0.924849	0.000042
H98	H	-0.575985	-1.018351	0.000102
F99	F	-0.553321	-1.375348	0.000138
F100	F	0.232136	-1.277359	-0.277753
F101	F	-0.195948	-0.911506	0.000136
F102	F	0.368310	-0.938869	-0.535118
