data_functionalizedCrystal
_audit_creation_method	'MofGen! by Chris Wilmer'
_symmetry_space_group_name_H-M	'P1'
_symmetry_Int_Tables_number	1
_symmetry_cell_setting	triclinic
loop_
_symmetry_equiv_pos_as_xyz
  x,y,z
_cell_length_a	10.967926
_cell_length_b	17.019294
_cell_length_c	9.482900
_cell_angle_alpha	95.509088
_cell_angle_beta	92.549900
_cell_angle_gamma	84.884424
loop_
_atom_site_label
_atom_site_type_symbol
_atom_site_fract_x
_atom_site_fract_y
_atom_site_fract_z
O1	O	1.612635	0.137563	0.265904
O2	O	1.263452	0.139272	0.178206
O3	O	1.445591	0.025267	0.238118
O4	O	1.430495	0.251569	0.205992
O5	O	1.408597	0.048521	0.467729
O6	O	1.226457	0.162527	0.407817
O7	O	1.575640	0.160818	0.495515
Cu8	Cu	1.397671	0.163796	0.472631
Cu9	Cu	1.441421	0.136294	0.201090
O10	O	1.393500	0.274823	0.435603
C11	C	1.200234	0.149018	0.282043
C12	C	1.066981	0.143402	0.249360
C13	C	0.988409	0.152945	0.353735
C14	C	0.850685	0.147142	0.319959
C15	C	1.425792	0.007836	0.356234
C16	C	1.421898	-0.078748	0.366094
C17	C	1.440238	-0.132097	0.245566
C18	C	1.436571	-0.213451	0.254833
C19	C	1.414573	-0.241455	0.384631
C20	C	1.396229	-0.188100	0.505166
C21	C	1.399887	-0.106747	0.495896
C22	C	1.402510	-0.486454	0.418880
C23	C	1.398856	-0.567814	0.428143
C24	C	1.439196	-0.593160	0.177808
C25	C	1.442860	-0.511805	0.168551
C26	C	1.424510	-0.458456	0.289085
C27	C	1.410828	-0.324612	0.394107
C28	C	1.428246	-0.375300	0.279605
C29	C	1.638858	0.151072	0.391676
C30	C	1.772113	0.156686	0.424349
C31	C	1.413300	0.292254	0.317484
C32	C	1.417196	0.378837	0.307615
N33	N	1.366907	0.183138	0.663622
N34	N	1.472194	0.116946	0.010103
C35	C	1.432339	0.141995	0.757367
C36	C	1.406753	0.158095	0.916358
H37	H	1.032290	0.130934	0.134997
N38	N	1.272852	0.242277	0.710556
N39	N	1.164442	0.236357	0.667271
H40	H	1.098010	0.278125	0.700413
H41	H	1.458157	-0.109304	0.139873
N42	N	0.807206	0.131492	0.176471
N43	N	0.844701	0.069029	0.105415
H44	H	0.813995	0.057975	0.004077
H45	H	1.023101	0.165408	0.468100
H46	H	1.507296	0.094849	0.719924
N47	N	1.566280	0.057833	0.963133
N48	N	1.674687	0.063782	1.006405
H49	H	1.741145	0.022043	0.973224
H50	H	1.331782	0.205238	0.953794
H51	H	0.806797	0.169151	0.538722
H52	H	1.451510	-0.256886	0.156688
N53	N	1.465334	-0.483215	0.035954
N54	N	1.481705	-0.530858	-0.071652
H55	H	1.497581	-0.510668	-0.165301
H56	H	1.454134	-0.636605	0.079676
N57	N	1.376355	-0.596410	0.560735
N58	N	1.278834	-0.574248	0.621763
H59	H	1.262940	-0.594445	0.715400
N60	N	1.383767	-0.431978	0.542013
N61	N	1.364134	-0.456996	0.657893
H62	H	1.350899	-0.418520	0.744864
N63	N	1.373746	-0.216715	0.637738
N64	N	1.370483	-0.289352	0.646000
H65	H	1.354606	-0.309562	0.739632
H66	H	1.384936	-0.063309	0.594038
H67	H	1.446148	-0.352495	0.173922
H68	H	1.392921	-0.347422	0.499790
