data_functionalizedCrystal
_audit_creation_method	'MofGen! by Chris Wilmer'
_symmetry_space_group_name_H-M	'P1'
_symmetry_Int_Tables_number	1
_symmetry_cell_setting	triclinic
loop_
_symmetry_equiv_pos_as_xyz
  x,y,z
_cell_length_a	8.597187
_cell_length_b	12.503572
_cell_length_c	8.559649
_cell_angle_alpha	86.971031
_cell_angle_beta	77.625088
_cell_angle_gamma	101.262006
loop_
_atom_site_label
_atom_site_type_symbol
_atom_site_fract_x
_atom_site_fract_y
_atom_site_fract_z
O1	O	2.085854	0.282345	0.209341
O2	O	1.621833	0.239405	0.231966
O3	O	1.894724	0.264657	-0.011701
O4	O	1.812963	0.257093	0.453008
O5	O	1.874197	0.084116	0.006655
O6	O	1.601307	0.058864	0.250322
O7	O	2.065327	0.101804	0.227697
Cu8	Cu	1.831443	0.063849	0.240685
Cu9	Cu	1.855718	0.277360	0.218977
O10	O	1.792436	0.076552	0.471364
C11	C	1.552715	0.143688	0.239736
C12	C	1.377349	0.127460	0.235522
N13	N	1.814380	-0.086322	0.255952
C14	C	1.789279	-0.307760	0.278424
C15	C	1.897889	-0.351037	0.181231
C16	C	1.883923	-0.474253	0.193735
C17	C	1.803244	-0.184534	0.265923
C18	C	2.134446	0.197523	0.219927
C19	C	2.309813	0.213758	0.224139
C20	C	1.890657	0.174962	-0.062016
C21	C	1.909101	0.176675	-0.239285
N22	N	1.872794	0.427532	0.203698
C23	C	1.796504	0.166250	0.521678
C24	C	1.778060	0.164544	0.698946
H25	H	1.386161	0.300056	0.217619
C26	C	2.037715	-0.276082	0.056184
H27	H	2.028908	-0.201899	0.064102
H28	H	2.031291	-0.295026	-0.048611
H29	H	2.139229	-0.285063	0.075958
C30	C	1.274233	0.010882	0.244348
H31	H	1.340112	-0.041084	0.252064
H32	H	1.232869	0.003062	0.150243
H33	H	1.186102	-0.001261	0.336210
C34	C	2.079736	0.192459	-0.351040
H35	H	2.159470	0.199834	-0.288517
H36	H	2.099668	0.256594	-0.423179
H37	H	2.085344	0.130668	-0.410351
H38	H	1.685814	-0.363242	0.371020
C39	C	1.607438	0.148765	-0.189300
H40	H	1.617009	0.149665	-0.080821
H41	H	1.542857	0.080494	-0.202646
H42	H	1.557194	0.206421	-0.215467
