data_functionalizedCrystal
_audit_creation_method	'MofGen! by Chris Wilmer'
_symmetry_space_group_name_H-M	'P1'
_symmetry_Int_Tables_number	1
_symmetry_cell_setting	triclinic
loop_
_symmetry_equiv_pos_as_xyz
  x,y,z
_cell_length_a	23.532407
_cell_length_b	23.532407
_cell_length_c	22.610064
_cell_angle_alpha	90.000603
_cell_angle_beta	89.997161
_cell_angle_gamma	97.151322
loop_
_atom_site_label
_atom_site_type_symbol
_atom_site_fract_x
_atom_site_fract_y
_atom_site_fract_z
O1	O	0.755263	-0.069127	-0.049117
O2	O	0.589400	-0.079130	-0.049135
O3	O	0.677333	0.008803	-0.049114
O4	O	0.667330	-0.157060	-0.049137
O5	O	0.677318	0.008790	0.049255
O6	O	0.589385	-0.079143	0.049234
O7	O	0.755248	-0.069140	0.049252
Zn8	Zn	0.672314	-0.074144	0.064862
Zn9	Zn	0.672334	-0.074127	-0.064744
O10	O	0.667315	-0.157073	0.049232
C11	C	0.568176	-0.078882	0.000048
C12	C	0.504959	-0.078116	0.000041
C13	C	0.105856	-0.125350	0.000061
C14	C	0.046456	-0.124638	0.000065
O15	O	0.009711	-0.168424	0.000081
N16	N	0.023830	-0.072362	0.000071
C17	C	0.060607	-0.020794	0.000080
O18	O	0.035908	0.023737	0.000086
C19	C	0.120006	-0.021506	0.000080
C20	C	0.142629	-0.073785	0.000068
C21	C	0.128479	-0.177625	0.000050
C22	C	0.187876	-0.178336	0.000045
C23	C	0.224649	-0.126772	0.000052
C24	C	0.202025	-0.074497	0.000063
C25	C	0.156783	0.030062	0.000093
C26	C	0.216185	0.029345	0.000094
C27	C	0.238808	-0.022934	0.000082
C28	C	0.298194	-0.023643	0.000065
N29	N	0.320820	-0.075920	0.000059
C30	C	0.284048	-0.127484	0.000052
C31	C	-0.064135	-0.019302	0.000080
C32	C	-0.123533	-0.018589	0.000075
C33	C	-0.137680	-0.122434	0.000061
C34	C	-0.078281	-0.123146	0.000062
C35	C	-0.041509	-0.071578	0.000074
C36	C	0.408784	-0.128974	0.000042
C37	C	0.468186	-0.129680	0.000034
C38	C	0.482329	-0.025836	0.000051
C39	C	0.422932	-0.025129	0.000055
C40	C	0.386160	-0.076702	0.000052
O41	O	0.334974	0.020119	0.000052
O42	O	0.308755	-0.172007	0.000054
C43	C	0.677071	0.030013	0.000072
C44	C	0.676305	0.093230	0.000076
C45	C	0.776472	-0.069388	0.000069
C46	C	0.839689	-0.070154	0.000071
C47	C	0.667577	-0.178283	0.000045
C48	C	0.668343	-0.241500	0.000036
N49	N	0.672304	-0.074155	0.153314
C50	C	0.723539	0.492333	0.000049
C51	C	0.722827	0.551733	0.000044
O52	O	0.766613	0.588478	0.000027
N53	N	0.670551	0.574359	0.000039
C54	C	0.618983	0.537582	0.000032
O55	O	0.574452	0.562281	0.000027
C56	C	0.619695	0.478182	0.000033
C57	C	0.671974	0.455560	0.000044
C58	C	0.775814	0.469710	0.000060
C59	C	0.776525	0.410313	0.000065
C60	C	0.724961	0.373540	0.000060
C61	C	0.672685	0.396164	0.000050
C62	C	0.568127	0.441406	0.000022
C63	C	0.568844	0.382004	0.000021
C64	C	0.621123	0.359381	0.000033
C65	C	0.621832	0.299995	0.000050
N66	N	0.674109	0.277368	0.000056
C67	C	0.725673	0.314141	0.000061
C68	C	0.617491	0.662324	0.000031
C69	C	0.616778	0.721722	0.000034
C70	C	0.720623	0.735869	0.000045
C71	C	0.721335	0.676470	0.000046
C72	C	0.669767	0.639698	0.000036
C73	C	0.727163	0.189405	0.000073
C74	C	0.727869	0.130003	0.000081
C75	C	0.624025	0.115860	0.000067
C76	C	0.623318	0.175257	0.000062
C77	C	0.674891	0.212029	0.000063
O78	O	0.578070	0.263215	0.000065
O79	O	0.770196	0.289433	0.000058
N80	N	0.672349	-0.074111	-0.153196
C81	C	0.711273	-0.035196	0.561965
C82	C	0.711276	-0.035192	0.623884
O83	O	0.744384	-0.002076	0.655911
N84	N	0.672334	-0.074115	0.654851
C85	C	0.633383	-0.113041	0.623895
O86	O	0.600259	-0.146147	0.655920
C87	C	0.633377	-0.113042	0.561976
C88	C	0.672326	-0.074120	0.531013
C89	C	0.750218	0.003724	0.531001
C90	C	0.750215	0.003719	0.469085
C91	C	0.711268	-0.035206	0.438133
C92	C	0.672323	-0.074125	0.469097
C93	C	0.594424	-0.151965	0.531021
C94	C	0.594422	-0.151962	0.469098
C95	C	0.633370	-0.113040	0.438134
C96	C	0.633374	-0.113054	0.376229
N97	N	0.672316	-0.074131	0.345262
C98	C	0.711263	-0.035207	0.376214
C99	C	0.633396	-0.113035	0.753928
C100	C	0.633403	-0.113037	0.815846
C101	C	0.711296	-0.035187	0.815831
C102	C	0.711291	-0.035188	0.753913
C103	C	0.672338	-0.074112	0.722962
C104	C	0.711255	-0.035220	0.246187
C105	C	0.711251	-0.035230	0.184266
C106	C	0.633357	-0.113078	0.184286
C107	C	0.633363	-0.113071	0.246202
C108	C	0.672314	-0.074137	0.277151
O109	O	0.600281	-0.146152	0.344163
O110	O	0.744376	-0.002101	0.344182
H111	H	0.378851	-0.170970	0.000041
H112	H	0.582043	0.085909	0.000065
O113	O	0.770752	0.771538	-0.000034
C114	C	0.859276	0.801837	-0.051013
C115	C	0.802537	0.761400	-0.050989
H116	H	0.884985	0.793663	-0.092212
H117	H	0.885058	0.793648	-0.009871
H118	H	0.849770	0.848171	-0.050989
H119	H	0.811992	0.715052	-0.051034
H120	H	0.776772	0.769639	-0.092127
H121	H	0.206289	-0.220908	0.000035
H122	H	0.486602	-0.172255	0.000024
H123	H	0.601694	-0.144737	0.841052
H124	H	0.575496	0.632386	0.000028
H125	H	-0.141947	0.023982	0.000076
H126	H	0.743005	-0.003494	0.728706
O127	O	0.518786	0.346226	0.000092
C128	C	0.459289	0.270982	0.051067
C129	C	0.516005	0.311455	0.051052
H130	H	0.457017	0.242868	0.092269
H131	H	0.457024	0.242778	0.009929
H132	H	0.421816	0.297372	0.051029
H133	H	0.553510	0.285111	0.051110
H134	H	0.518219	0.339662	0.092186
O135	O	0.565979	0.743666	-0.000075
C136	C	0.476998	0.749702	-0.051032
C137	C	0.534515	0.724826	-0.050984
H138	H	0.451537	0.734470	-0.092181
H139	H	0.485305	0.798475	-0.051073
H140	H	0.451552	0.734544	-0.009848
H141	H	0.559989	0.739941	-0.092161
H142	H	0.526167	0.676056	-0.050912
H143	H	0.098544	-0.219617	0.000046
H144	H	0.525555	0.459814	0.000009
H145	H	0.769159	0.219337	0.000071
O146	O	0.825960	0.505345	0.000093
C147	C	0.929034	0.513088	0.000080
C148	C	0.872281	0.472671	0.000050
H149	H	0.966499	0.486688	0.000032
H150	H	0.931332	0.541238	0.041258
H151	H	0.931282	0.541265	-0.041076
H152	H	0.869995	0.444458	0.041177
H153	H	0.870007	0.444560	-0.041157
H154	H	0.601653	-0.144770	0.271413
O155	O	0.556640	-0.189748	0.561181
C156	C	0.522075	-0.224227	0.656564
C157	C	0.564910	-0.181415	0.622484
H158	H	0.528738	-0.217496	0.706134
H159	H	0.529227	-0.269820	0.644433
H160	H	0.476515	-0.217032	0.644350
H161	H	0.610487	-0.188557	0.634680
H162	H	0.557708	-0.135836	0.634619
H163	H	0.562700	-0.183658	0.443901
O164	O	-0.028359	0.030758	0.000002
C165	C	0.046886	0.090250	-0.050977
C166	C	0.006416	0.033532	-0.050957
H167	H	0.075003	0.092516	-0.092179
H168	H	0.075088	0.092523	-0.009839
H169	H	0.020494	0.127721	-0.050946
H170	H	0.032763	-0.003972	-0.051009
H171	H	-0.021788	0.031309	-0.092091
H172	H	0.138375	0.072634	0.000103
O173	O	0.572548	0.197262	0.000161
C174	C	0.511478	0.256143	0.051084
C175	C	0.568989	0.231257	0.051060
H176	H	0.508587	0.283643	0.092225
H177	H	0.474725	0.219675	0.051122
H178	H	0.508562	0.283567	0.009892
H179	H	0.571961	0.203840	0.092244
H180	H	0.605715	0.267752	0.050991
O181	O	0.827275	0.388276	-0.000011
C182	C	0.888378	0.329470	-0.050992
C183	C	0.830875	0.354371	-0.050969
H184	H	0.891312	0.302062	-0.092193
H185	H	0.891321	0.301978	-0.009853
H186	H	0.925094	0.365974	-0.050963
H187	H	0.794126	0.317903	-0.051019
H188	H	0.827982	0.381878	-0.092104
H189	H	-0.059867	-0.165717	0.000055
O190	O	0.595581	-0.150965	0.154239
C191	C	0.561611	-0.250160	0.135311
C192	C	0.604436	-0.207321	0.169368
H193	H	0.568747	-0.295733	0.147540
H194	H	0.568301	-0.243520	0.085731
H195	H	0.516047	-0.242935	0.147480
H196	H	0.650017	-0.214519	0.157248
H197	H	0.597696	-0.213971	0.218939
O198	O	0.251824	0.079493	0.000076
C199	C	0.259582	0.182567	0.000128
C200	C	0.219158	0.125819	0.000138
H201	H	0.233188	0.220037	0.000191
H202	H	0.287734	0.184878	-0.041051
H203	H	0.287757	0.184794	0.041284
H204	H	0.190947	0.123554	-0.040990
H205	H	0.191045	0.123532	0.041344
O206	O	-0.173351	-0.172562	0.000138
C207	C	-0.203659	-0.261085	0.051112
C208	C	-0.163219	-0.204348	0.051092
H209	H	-0.195489	-0.286794	0.092310
H210	H	-0.195467	-0.286868	0.009970
H211	H	-0.249992	-0.251576	0.051087
H212	H	-0.116871	-0.213805	0.051138
H213	H	-0.171460	-0.178582	0.092231
H214	H	0.404512	0.017441	0.000056
H215	H	0.601677	-0.144736	0.728731
O216	O	0.772083	0.654429	-0.000027
C217	C	0.833183	0.595617	-0.051005
C218	C	0.775684	0.620525	-0.050986
H219	H	0.836118	0.568210	-0.092207
H220	H	0.836119	0.568123	-0.009866
H221	H	0.869903	0.632117	-0.050971
H222	H	0.738931	0.584061	-0.051041
H223	H	0.772798	0.648035	-0.092121
H224	H	0.512280	0.016146	0.000054
H225	H	0.770443	0.111587	0.000092
H226	H	0.742973	-0.003516	0.271379
O227	O	0.749108	0.002637	0.154280
C228	C	0.826389	0.079830	0.160812
C229	C	0.783542	0.036987	0.194841
H230	H	0.854248	0.107606	0.193591
H231	H	0.801994	0.108196	0.131840
H232	H	0.854673	0.055374	0.131807
H233	H	0.755247	0.061397	0.223879
H234	H	0.807972	0.008622	0.223776
H235	H	0.781929	0.035414	0.443878
H236	H	0.781933	0.035423	0.556197
O237	O	0.749104	0.002706	0.845839
C238	C	0.783011	0.101907	0.864815
C239	C	0.740173	0.059059	0.830783
H240	H	0.775797	0.147478	0.852665
H241	H	0.828595	0.094768	0.852629
H242	H	0.776327	0.095191	0.914385
H243	H	0.746804	0.065749	0.781206
H244	H	0.694604	0.066209	0.843019
