data_functionalizedCrystal
_audit_creation_method	'MofGen! by Chris Wilmer'
_symmetry_space_group_name_H-M	'P1'
_symmetry_Int_Tables_number	1
_symmetry_cell_setting	triclinic
loop_
_symmetry_equiv_pos_as_xyz
  x,y,z
_cell_length_a	16.625547
_cell_length_b	18.101396
_cell_length_c	16.625527
_cell_angle_alpha	89.915529
_cell_angle_beta	90.064128
_cell_angle_gamma	89.963039
loop_
_atom_site_label
_atom_site_type_symbol
_atom_site_fract_x
_atom_site_fract_y
_atom_site_fract_z
Zn1	Zn	1.232912	0.294409	0.456009
Zn2	Zn	1.566245	0.627743	0.789342
Zn3	Zn	1.899579	0.961076	1.122676
Zn4	Zn	1.232688	0.418383	0.321179
Zn5	Zn	1.566022	0.751716	0.654512
Zn6	Zn	1.899355	1.085049	0.987846
Zn7	Zn	1.097981	0.294559	0.321179
Zn8	Zn	1.431315	0.627893	0.654513
Zn9	Zn	1.764648	0.961226	0.987846
Zn10	Zn	1.098010	0.418213	0.455959
Zn11	Zn	1.431343	0.751547	0.789292
Zn12	Zn	1.764677	1.084880	1.122626
O13	O	1.165398	0.356391	0.388582
O14	O	1.498731	0.689725	0.721915
O15	O	1.832065	1.023058	1.055248
O16	O	1.345715	0.310863	0.438144
O17	O	1.679048	0.644196	0.771478
O18	O	2.012381	0.977529	1.104811
O19	O	1.214714	0.402091	0.208346
O20	O	1.548047	0.735424	0.541680
O21	O	1.881380	1.068757	0.875013
O22	O	1.115962	0.190906	0.339086
O23	O	1.449295	0.524240	0.672419
O24	O	1.782628	0.857573	1.005752
O25	O	1.345551	0.401945	0.339085
O26	O	1.678884	0.735279	0.672419
O27	O	2.012217	1.068612	1.005752
O28	O	1.215095	0.190796	0.438145
O29	O	1.548428	0.524130	0.771478
O30	O	1.881761	0.857463	1.104811
O31	O	1.115745	0.311118	0.208347
O32	O	1.449078	0.644452	0.541680
O33	O	1.782412	0.977785	0.875013
O34	O	0.985153	0.310954	0.339037
O35	O	1.318486	0.644288	0.672371
O36	O	1.651819	0.977621	1.005704
O37	O	1.116011	0.401657	0.568798
O38	O	1.449344	0.734990	0.902132
O39	O	1.782677	1.068324	1.235465
O40	O	0.985174	0.401802	0.438060
O41	O	1.318507	0.735136	0.771393
O42	O	1.651841	1.068469	1.104726
O43	O	1.215123	0.310699	0.568835
O44	O	1.548456	0.644032	0.902168
O45	O	1.881789	0.977365	1.235502
O46	O	1.214742	0.521993	0.339037
O47	O	1.548075	0.855326	0.672370
O48	O	1.881408	1.188660	1.005704
O49	O	1.115794	0.521869	0.438059
O50	O	1.449127	0.855202	0.771393
O51	O	1.782461	1.188536	1.104726
C52	C	0.955907	0.356377	0.388544
C53	C	1.289240	0.689710	0.721877
C54	C	1.622574	1.023044	1.055210
C55	C	0.866286	0.356389	0.388546
C56	C	1.199619	0.689722	0.721880
C57	C	1.532953	1.023055	1.055213
C58	C	0.793504	0.356390	0.388556
C59	C	1.126837	0.689723	0.721890
C60	C	1.460170	1.023057	1.055223
C61	C	0.702195	0.356394	0.388577
C62	C	1.035528	0.689727	0.721910
C63	C	1.368862	1.023061	1.055243
C64	C	0.629419	0.356401	0.388597
C65	C	0.962752	0.689734	0.721930
C66	C	1.296085	1.023067	1.055264
C67	C	0.538104	0.356406	0.388616
C68	C	0.871438	0.689739	0.721950
C69	C	1.204771	1.023072	1.055283
C70	C	1.165268	0.548802	0.388560
C71	C	1.498602	0.882135	0.721894
C72	C	1.831935	1.215468	1.055227
C73	C	1.165287	0.631116	0.388578
C74	C	1.498620	0.964449	0.721911
C75	C	1.831953	1.297783	1.055245
C76	C	1.165430	0.930207	0.388625
C77	C	1.498763	1.263540	0.721958
C78	C	1.832097	1.596873	1.055292
C79	C	1.103323	0.898834	0.451082
C80	C	1.436656	1.232167	0.784415
C81	C	1.769990	1.565501	1.117748
C82	C	1.103037	0.813216	0.450885
C83	C	1.436370	1.146550	0.784218
C84	C	1.769704	1.479883	1.117552
C85	C	1.165359	0.781824	0.388602
C86	C	1.498692	1.115158	0.721936
C87	C	1.832026	1.448491	1.055269
C88	C	1.142290	0.813054	0.303623
C89	C	1.475623	1.146388	0.636956
C90	C	1.808957	1.479721	0.970290
C91	C	1.141880	0.898699	0.303998
C92	C	1.475213	1.232033	0.637331
C93	C	1.808547	1.565366	0.970664
C94	C	1.250745	0.898530	0.410400
C95	C	1.584079	1.231864	0.743733
C96	C	1.917412	1.565197	1.077066
C97	C	1.250255	0.812878	0.412262
C98	C	1.583588	1.146211	0.745596
C99	C	1.916921	1.479544	1.078929
C100	C	1.165320	0.697965	0.388584
C101	C	1.498654	1.031298	0.721918
C102	C	1.831987	1.364631	1.055251
C103	C	1.165467	1.014066	0.388637
C104	C	1.498800	1.347399	0.721971
C105	C	1.832134	1.680733	1.055304
C106	C	1.375707	0.356406	0.388620
C107	C	1.709040	0.689739	0.721954
C108	C	2.042374	1.023073	1.055287
C109	C	1.465328	0.356412	0.388637
C110	C	1.798661	0.689746	0.721970
C111	C	2.131995	1.023079	1.055303
C112	C	1.165522	1.163229	0.388624
C113	C	1.498855	1.496563	0.721957
C114	C	1.832188	1.829896	1.055290
C115	C	1.165502	1.080915	0.388649
C116	C	1.498836	1.414248	0.721983
C117	C	1.832169	1.747582	1.055316
C118	C	1.165248	0.356586	0.179090
C119	C	1.498582	0.689919	0.512424
C120	C	1.831915	1.023252	0.845757
C121	C	1.165321	0.356483	0.089469
C122	C	1.498654	0.689817	0.422803
C123	C	1.831987	1.023150	0.756136
C124	C	1.165620	0.356120	-0.238705
C125	C	1.498954	0.689454	0.094628
C126	C	1.832287	1.022787	0.427961
C127	C	1.165539	0.356224	-0.147397
C128	C	1.498872	0.689557	0.185936
C129	C	1.832206	1.022890	0.519270
C130	C	1.165470	0.356302	-0.074621
C131	C	1.498803	0.689636	0.258713
C132	C	1.832137	1.022969	0.592046
C133	C	1.165390	0.356404	0.016693
C134	C	1.498723	0.689738	0.350027
C135	C	1.832056	1.023071	0.683360
C136	C	1.165595	0.356142	0.598891
C137	C	1.498928	0.689476	0.932224
C138	C	1.832261	1.022809	1.265558
C139	C	1.165679	0.356036	0.688512
C140	C	1.499012	0.689369	1.021846
C141	C	1.832345	1.022703	1.355179
H142	H	1.117477	0.792094	0.513896
H143	H	1.450811	1.125427	0.847230
H144	H	1.784144	1.458760	1.180563
Cl145	Cl	1.283191	0.931709	0.504444
Cl146	Cl	1.616524	1.265043	0.837777
Cl147	Cl	1.949858	1.598376	1.171110
H148	H	1.267650	0.792457	0.474802
H149	H	1.600983	1.125790	0.808136
H150	H	1.934316	1.459123	1.141469
Cl151	Cl	1.125384	0.930470	0.548685
Cl152	Cl	1.458717	1.263804	0.882019
Cl153	Cl	1.792050	1.597137	1.215352
Cl154	Cl	1.006287	0.932197	0.429111
Cl155	Cl	1.339620	1.265531	0.762444
Cl156	Cl	1.672953	1.598864	1.095777
Cl157	Cl	1.325497	0.779875	0.347153
Cl158	Cl	1.658830	1.113208	0.680487
Cl159	Cl	1.992163	1.446541	1.013820
H160	H	1.080588	0.791687	0.284847
H161	H	1.413922	1.125020	0.618181
H162	H	1.747255	1.458354	0.951514
H163	H	1.039806	0.792806	0.436461
H164	H	1.373139	1.126140	0.769794
H165	H	1.706472	1.459473	1.103127
Cl166	Cl	1.045591	0.929674	0.275522
Cl167	Cl	1.378925	1.263007	0.608855
Cl168	Cl	1.712258	1.596340	0.942189
H169	H	1.185151	0.919461	0.255876
H170	H	1.518484	1.252794	0.589209
H171	H	1.851817	1.586128	0.922542
H172	H	1.186105	0.792728	0.255818
H173	H	1.519438	1.126062	0.589152
H174	H	1.852772	1.459395	0.922485
Cl175	Cl	1.322192	0.929875	0.340181
Cl176	Cl	1.655525	1.263208	0.673515
Cl177	Cl	1.988858	1.596541	1.006848
