data_functionalizedCrystal
_audit_creation_method	'MofGen! by Chris Wilmer'
_symmetry_space_group_name_H-M	'P1'
_symmetry_Int_Tables_number	1
_symmetry_cell_setting	triclinic
loop_
_symmetry_equiv_pos_as_xyz
  x,y,z
_cell_length_a	15.298206
_cell_length_b	15.299816
_cell_length_c	15.296720
_cell_angle_alpha	69.242954
_cell_angle_beta	69.221745
_cell_angle_gamma	69.257501
loop_
_atom_site_label
_atom_site_type_symbol
_atom_site_fract_x
_atom_site_fract_y
_atom_site_fract_z
Zn1	Zn	1.429649	-0.671612	0.378548
Zn2	Zn	1.929649	-0.171612	0.878548
Zn3	Zn	1.476443	-0.807091	0.243057
Zn4	Zn	1.976443	-0.307091	0.743057
Zn5	Zn	1.294162	-0.624797	0.243093
Zn6	Zn	1.794162	-0.124797	0.743093
Zn7	Zn	1.294084	-0.807077	0.425474
Zn8	Zn	1.794084	-0.307077	0.925474
O9	O	1.373585	-0.727644	0.322543
O10	O	1.873585	-0.227644	0.822543
O11	O	1.568877	-0.709181	0.340920
O12	O	2.068877	-0.209181	0.840920
O13	O	1.471880	-0.763324	0.110031
O14	O	1.971880	-0.263324	0.610031
O15	O	1.292584	-0.498024	0.241438
O16	O	1.792584	0.001976	0.741438
O17	O	1.603256	-0.808718	0.241376
O18	O	2.103256	-0.308718	0.741376
O19	O	1.392126	-0.532418	0.340956
O20	O	1.892126	-0.032418	0.840956
O21	O	1.337958	-0.629393	0.110058
O22	O	1.837958	-0.129393	0.610058
O23	O	1.161132	-0.629379	0.286941
O24	O	1.661132	-0.129379	0.786941
O25	O	1.292450	-0.808693	0.552280
O26	O	1.792450	-0.308693	1.052280
O27	O	1.161074	-0.763299	0.420935
O28	O	1.661074	-0.263299	0.920935
O29	O	1.392050	-0.709167	0.517803
O30	O	1.892050	-0.209167	1.017803
O31	O	1.471804	-0.940073	0.286878
O32	O	1.971804	-0.440073	0.786878
O33	O	1.337825	-0.940062	0.420900
O34	O	1.837825	-0.440062	0.920900
C35	C	1.126612	-0.691258	0.359035
C36	C	1.626612	-0.191258	0.859035
C37	C	1.020956	-0.675718	0.374672
C38	C	1.520956	-0.175718	0.874672
C39	C	1.409906	-0.974556	0.358994
C40	C	1.909906	-0.474556	0.858994
C41	C	1.425527	-1.080203	0.374607
C42	C	1.925527	-0.580203	0.874607
C43	C	0.953425	-0.616703	0.433959
C44	C	1.453425	-0.116703	0.933959
C45	C	0.854155	-0.602093	0.448652
C46	C	1.354155	-0.102093	0.948652
C47	C	0.822405	-0.646504	0.404066
C48	C	1.322405	-0.146504	0.904066
C49	C	0.889937	-0.705526	0.344782
C50	C	1.389937	-0.205526	0.844782
C51	C	0.989217	-0.720131	0.330082
C52	C	1.489217	-0.220131	0.830082
C53	C	0.858197	-0.749932	0.300188
C54	C	1.358197	-0.249932	0.800188
C55	C	0.925728	-0.808954	0.240905
C56	C	1.425728	-0.308954	0.740905
C57	C	1.024999	-0.823557	0.226208
C58	C	1.524999	-0.323557	0.726208
C59	C	1.056748	-0.779146	0.270795
C60	C	1.556748	-0.279146	0.770795
C61	C	0.758917	-0.735327	0.314889
C62	C	1.258917	-0.235327	0.814889
C63	C	0.794708	-0.838755	0.211011
C64	C	1.294708	-0.338755	0.711011
C65	C	0.893979	-0.853365	0.196318
C66	C	1.393979	-0.353365	0.696318
C67	C	1.262516	-1.306689	0.211187
C68	C	1.762516	-0.806689	0.711187
C69	C	1.247835	-1.207428	0.196521
C70	C	1.747835	-0.707428	0.696521
C71	C	1.292257	-1.175617	0.241041
C72	C	1.792257	-0.675617	0.741041
C73	C	1.351362	-1.243077	0.300230
C74	C	1.851362	-0.743077	0.800230
C75	C	1.366040	-1.342348	0.314903
C76	C	1.866040	-0.842348	0.814903
C77	C	1.395780	-1.211275	0.344757
C78	C	1.895780	-0.711275	0.844757
C79	C	1.454886	-1.278735	0.403946
C80	C	1.954886	-0.778735	0.903946
C81	C	1.469560	-1.377996	0.418616
C82	C	1.969560	-0.877996	0.918616
C83	C	1.425139	-1.409807	0.374096
C84	C	1.925139	-0.909807	0.874096
C85	C	1.381103	-1.112004	0.330084
C86	C	1.881103	-0.612004	0.830084
C87	C	1.484626	-1.147662	0.433800
C88	C	1.984626	-0.647662	0.933800
C89	C	1.499308	-1.246923	0.448466
C90	C	1.999308	-0.746923	0.948466
C91	C	1.621522	-0.764173	0.285909
C92	C	2.121522	-0.264173	0.785909
C93	C	1.727177	-0.779740	0.270298
C94	C	2.227177	-0.279740	0.770298
C95	C	1.337022	-0.764150	0.570500
C96	C	1.837022	-0.264150	1.070500
C97	C	1.321441	-0.779707	0.676164
C98	C	1.821441	-0.279707	1.176164
C99	C	1.337144	-0.479776	0.285967
C100	C	1.837144	0.020224	0.785967
C101	C	1.321615	-0.374149	0.270380
C102	C	1.821615	0.125851	0.770380
C103	C	1.410050	-0.691220	0.075533
C104	C	1.910050	-0.191220	0.575533
C105	C	1.425775	-0.675422	-0.030197
C106	C	1.925775	-0.175422	0.469803
C107	C	1.484955	-0.616296	0.902213
C108	C	1.984955	-0.116296	1.402213
C109	C	1.499600	-0.601683	0.802936
C110	C	1.999600	-0.101683	1.302936
C111	C	1.455061	-0.646187	0.771238
C112	C	1.955061	-0.146187	1.271238
C113	C	1.395875	-0.705309	0.838827
C114	C	1.895875	-0.205309	1.338827
C115	C	1.381235	-0.719930	0.938115
C116	C	1.881235	-0.219930	1.438115
C117	C	1.351341	-0.749821	0.807139
C118	C	1.851341	-0.249821	1.307139
C119	C	1.292155	-0.808942	0.874728
C120	C	1.792155	-0.308942	1.374728
C121	C	1.277517	-0.823560	0.974005
C122	C	1.777517	-0.323560	1.474005
C123	C	1.322055	-0.779056	1.005704
C124	C	1.822055	-0.279056	1.505704
C125	C	1.365982	-0.735199	0.707852
C126	C	1.865982	-0.235199	1.207852
C127	C	1.262262	-0.838833	0.743753
C128	C	1.762262	-0.338833	1.243753
C129	C	1.247616	-0.853447	0.843030
C130	C	1.747616	-0.353447	1.343030
H131	H	0.703942	-0.687269	0.363156
H132	H	1.203942	-0.187269	0.863156
H133	H	0.741574	-0.634602	0.416029
H134	H	1.241574	-0.134602	0.916029
Cl135	Cl	1.573608	-1.331740	0.522873
Cl136	Cl	2.073608	-0.831740	1.022873
H137	H	1.280300	-1.094793	0.229095
H138	H	1.780300	-0.594793	0.729095
Cl139	Cl	0.754803	-0.894585	0.154951
Cl140	Cl	1.254803	-0.394585	0.654951
H141	H	1.229332	-0.871710	1.029036
H142	H	1.729332	-0.371710	1.529036
Cl143	Cl	1.440383	-0.660877	0.622895
Cl144	Cl	1.940383	-0.160877	1.122895
Cl145	Cl	1.206663	-1.346687	0.155244
Cl146	Cl	1.706663	-0.846687	0.655244
H147	H	1.547792	-0.553548	0.747911
H148	H	2.047792	-0.053548	1.247911
Cl149	Cl	1.443821	-1.534596	0.392303
Cl150	Cl	1.943821	-1.034596	0.892303
H151	H	1.332978	-1.057086	0.281892
H152	H	1.832978	-0.557086	0.781892
H153	H	1.521218	-0.580074	0.928033
H154	H	2.021218	-0.080074	1.428033
Cl155	Cl	1.173522	-1.122629	0.122128
Cl156	Cl	1.673522	-0.622629	0.622128
H157	H	1.079981	-0.871607	0.177926
H158	H	1.579981	-0.371607	0.677926
H159	H	1.517684	-1.432920	0.466816
H160	H	2.017684	-0.932920	0.966816
Cl161	Cl	1.540472	-1.107679	0.489772
Cl162	Cl	2.040472	-0.607679	0.989772
H163	H	1.466989	-0.634285	0.690401
H164	H	1.966989	-0.134285	1.190401
Cl165	Cl	0.769266	-0.527901	0.523179
Cl166	Cl	1.269266	-0.027901	1.023179
Cl167	Cl	0.978885	-0.927560	0.121792
Cl168	Cl	1.478885	-0.427560	0.621792
Cl169	Cl	0.993345	-0.560874	0.489998
Cl170	Cl	1.493345	-0.060874	0.989998
Cl171	Cl	1.181550	-0.797516	0.252332
Cl172	Cl	1.681550	-0.297516	0.752332
H173	H	1.310134	-0.790951	1.086542
H174	H	1.810134	-0.290951	1.586542
H175	H	1.199426	-0.901584	0.898075
H176	H	1.699426	-0.401584	1.398075
H177	H	1.225996	-0.875074	0.717946
H178	H	1.725996	-0.375074	1.217946
