data_functionalizedCrystal
_audit_creation_method	'MofGen! by Chris Wilmer'
_symmetry_space_group_name_H-M	'P1'
_symmetry_Int_Tables_number	1
_symmetry_cell_setting	triclinic
loop_
_symmetry_equiv_pos_as_xyz
  x,y,z
_cell_length_a	10.686285
_cell_length_b	10.686154
_cell_length_c	18.215399
_cell_angle_alpha	85.652172
_cell_angle_beta	85.609148
_cell_angle_gamma	89.656155
loop_
_atom_site_label
_atom_site_type_symbol
_atom_site_fract_x
_atom_site_fract_y
_atom_site_fract_z
Zn1	Zn	-0.352140	-1.956161	-0.313053
Zn2	Zn	0.147860	-1.456161	0.186947
Zn3	Zn	-0.561927	-1.972163	-0.179912
Zn4	Zn	-0.061927	-1.472163	0.320088
Zn5	Zn	-0.368288	-1.746394	-0.198647
Zn6	Zn	0.131712	-1.246394	0.301353
Zn7	Zn	-0.577957	-1.762486	-0.311585
Zn8	Zn	-0.077957	-1.262486	0.188415
O9	O	-0.465078	-1.859301	-0.250799
O10	O	0.034922	-1.359301	0.249201
O11	O	-0.366502	-2.133822	-0.288165
O12	O	0.133498	-1.633822	0.211835
O13	O	-0.536290	-1.942177	-0.079413
O14	O	-0.036290	-1.442177	0.420587
O15	O	-0.190602	-1.760789	-0.222278
O16	O	0.309398	-1.260789	0.277722
O17	O	-0.520632	-2.145578	-0.190348
O18	O	-0.020632	-1.645578	0.309652
O19	O	-0.178738	-1.914904	-0.306331
O20	O	0.321262	-1.414904	0.193669
O21	O	-0.394024	-1.776306	-0.093177
O22	O	0.105976	-1.276306	0.406823
O23	O	-0.409568	-1.572990	-0.220855
O24	O	0.090432	-1.072990	0.279145
O25	O	-0.547952	-1.788215	-0.414765
O26	O	-0.047952	-1.288215	0.085235
O27	O	-0.563610	-1.584813	-0.303830
O28	O	-0.063610	-1.084813	0.196170
O29	O	-0.382046	-1.930507	-0.415843
O30	O	0.117954	-1.430507	0.084157
O31	O	-0.739597	-1.957780	-0.188924
O32	O	-0.239597	-1.457780	0.311076
O33	O	-0.751374	-1.803731	-0.285664
O34	O	-0.251374	-1.303731	0.214336
C35	C	-0.490082	-1.533387	-0.264216
C36	C	0.009918	-1.033387	0.235784
C37	C	-0.500809	-1.393961	-0.269972
C38	C	-0.000809	-0.893961	0.230028
C39	C	-0.791000	-1.884272	-0.235117
C40	C	-0.291000	-1.384272	0.264883
C41	C	-0.930421	-1.895070	-0.228427
C42	C	-0.430421	-1.395070	0.271573
C43	C	-0.137881	-1.834266	-0.266558
C44	C	0.362119	-1.334266	0.233442
C45	C	0.001551	-1.823598	-0.273273
C46	C	0.501551	-1.323598	0.226727
C47	C	-0.464986	-1.859371	-0.442753
C48	C	0.035014	-1.359371	0.057247
C49	C	-0.464946	-1.859400	-0.524553
C50	C	0.035054	-1.359400	-0.024553
C51	C	-0.439971	-1.186487	-0.237323
C52	C	0.060029	-0.686487	0.262677
C53	C	-0.429255	-1.325914	-0.231560
C54	C	0.070745	-0.825914	0.268440
C55	C	-0.378482	-1.933515	-0.713312
C56	C	0.121518	-1.433515	-0.213312
C57	C	-0.378444	-1.933527	-0.790172
C58	C	0.121556	-1.433527	-0.290172
C59	C	-0.551210	-1.785360	-0.789037
C60	C	-0.051210	-1.285360	-0.289037
C61	C	-0.551241	-1.785341	-0.712179
C62	C	-0.051241	-1.285341	-0.212179
C63	C	-0.464878	-1.859426	-0.674318
C64	C	0.035122	-1.359426	-0.174318
C65	C	-0.464810	-1.859457	-0.828036
C66	C	0.035190	-1.359457	-0.328036
C67	C	-0.464769	-1.859469	-0.911371
C68	C	0.035231	-1.359469	-0.411371
C69	C	-0.464916	-1.859412	-0.590978
C70	C	0.035084	-1.359412	-0.090978
C71	C	-0.465074	-1.859297	-0.059594
C72	C	0.034926	-1.359297	0.440406
C73	C	-0.464741	-1.859483	0.022198
C74	C	0.035259	-1.359483	0.522198
H75	H	-0.570277	-1.345555	-0.307261
H76	H	-0.070277	-0.845555	0.192739
N77	N	-0.644439	-1.705418	-0.670128
N78	N	-0.144439	-1.205418	-0.170128
H79	H	-0.698676	-1.760830	-0.633340
H80	H	-0.198676	-1.260830	-0.133340
H81	H	-0.597843	-1.643383	-0.643136
H82	H	-0.097843	-1.143383	-0.143136
N83	N	-0.994545	-1.987071	-0.170781
N84	N	-0.494545	-1.487071	0.329219
H85	H	-0.973364	-1.965906	-0.120066
H86	H	-0.473364	-1.465906	0.379934
H87	H	-1.088375	-1.981965	-0.174070
H88	H	-0.588375	-1.481965	0.325930
N89	N	-0.934314	-1.731603	-0.330911
N90	N	-0.434314	-1.231603	0.169089
H91	H	-0.875963	-1.778381	-0.365526
H92	H	-0.375963	-1.278381	0.134474
H93	H	-0.999590	-1.685461	-0.359834
H94	H	-0.499590	-1.185461	0.140166
N95	N	-0.337239	-1.390026	-0.182154
N96	N	0.162761	-0.890026	0.317846
H97	H	-0.342361	-1.483880	-0.184902
H98	H	0.157639	-0.983880	0.315098
H99	H	-0.249409	-1.360327	-0.198936
H100	H	0.250591	-0.860327	0.301064
N101	N	-0.644336	-1.705453	-0.829886
N102	N	-0.144336	-1.205453	-0.329886
H103	H	-0.698545	-1.760880	-0.856882
H104	H	-0.198545	-1.260880	-0.356882
H105	H	-0.698989	-1.658510	-0.793485
H106	H	-0.198989	-1.158510	-0.293485
H107	H	-0.308089	-1.993855	-0.821917
H108	H	0.191911	-1.493855	-0.321917
N109	N	-0.285336	-2.013415	-0.672474
N110	N	0.214664	-1.513415	-0.172474
H111	H	-0.230598	-2.060349	-0.708842
H112	H	0.269402	-1.560349	-0.208842
H113	H	-0.231216	-1.957903	-0.645481
H114	H	0.268784	-1.457903	-0.145481
