data_functionalizedCrystal
_audit_creation_method	'MofGen! by Chris Wilmer'
_symmetry_space_group_name_H-M	'P1'
_symmetry_Int_Tables_number	1
_symmetry_cell_setting	triclinic
loop_
_symmetry_equiv_pos_as_xyz
  x,y,z
_cell_length_a	19.288864
_cell_length_b	19.288865
_cell_length_c	18.366186
_cell_angle_alpha	89.988521
_cell_angle_beta	89.977106
_cell_angle_gamma	83.136245
loop_
_atom_site_label
_atom_site_type_symbol
_atom_site_fract_x
_atom_site_fract_y
_atom_site_fract_z
O1	O	0.921353	0.086649	-0.060791
O2	O	0.719092	0.098337	-0.060743
O3	O	0.826067	-0.008637	-0.060754
O4	O	0.814378	0.193623	-0.060780
O5	O	0.826049	-0.008643	0.060345
O6	O	0.719074	0.098332	0.060357
O7	O	0.921335	0.086643	0.060308
Zn8	Zn	0.820201	0.092487	0.079559
Zn9	Zn	0.820225	0.092494	-0.079994
O10	O	0.814360	0.193618	0.060319
C11	C	0.693207	0.097959	-0.000187
C12	C	0.616103	0.096830	-0.000167
C13	C	0.571407	0.159598	-0.000187
C14	C	0.498960	0.158537	-0.000195
C15	C	0.471212	0.094705	-0.000198
C16	C	0.515918	0.031929	-0.000174
C17	C	0.588364	0.032991	-0.000159
C18	C	0.362956	0.044527	-0.042642
C19	C	0.290512	0.043468	-0.042662
C20	C	0.247767	0.091425	-0.000241
C21	C	0.277473	0.140454	0.042189
C22	C	0.349918	0.141517	0.042205
C23	C	0.392658	0.093546	-0.000214
C24	C	0.124514	0.153047	-0.000269
C25	C	0.052066	0.151984	-0.000272
C26	C	0.069026	0.025374	-0.000259
C27	C	0.141473	0.026439	-0.000248
C28	C	0.169212	0.090278	-0.000256
C29	C	0.825682	-0.034516	-0.000202
C30	C	0.824553	-0.111620	-0.000195
C31	C	0.887321	-0.156316	-0.000207
C32	C	0.886260	-0.228763	-0.000218
C33	C	0.822428	-0.256511	-0.000203
C34	C	0.759652	-0.211805	-0.000196
C35	C	0.760714	-0.139359	-0.000192
C36	C	0.772242	-0.364800	0.042227
C37	C	0.771182	-0.437245	0.042228
C38	C	0.819148	-0.479956	-0.000219
C39	C	0.868186	-0.450216	-0.042657
C40	C	0.869248	-0.377771	-0.042653
C41	C	0.821269	-0.335065	-0.000208
C42	C	0.880770	-0.603209	-0.000244
C43	C	0.879707	-0.675657	-0.000259
C44	C	0.753097	-0.658697	-0.000230
C45	C	0.754162	-0.586250	-0.000221
C46	C	0.818001	-0.558511	-0.000225
C47	C	0.947220	0.087022	-0.000250
C48	C	1.024324	0.088151	-0.000274
C49	C	0.814745	0.219497	-0.000234
C50	C	0.815874	0.296601	-0.000246
N51	N	0.820190	0.092482	0.188451
N52	N	0.820242	0.092493	-0.188885
C53	C	0.867574	0.045137	0.226546
C54	C	0.867578	0.045134	0.302774
C55	C	0.820206	0.092488	0.340903
C56	C	0.772813	0.139836	0.302799
C57	C	0.772805	0.139834	0.226572
C58	C	0.810907	0.155775	0.461657
C59	C	0.810920	0.155779	0.537882
C60	C	0.820225	0.092496	0.576011
C61	C	0.829533	0.029207	0.537905
C62	C	0.829525	0.029204	0.461679
C63	C	0.820208	0.092496	0.423558
C64	C	0.867617	0.045144	0.696761
C65	C	0.867616	0.045140	0.772990
C66	C	0.772854	0.139849	0.773014
C67	C	0.772851	0.139847	0.696786
C68	C	0.820236	0.092495	0.658664
H69	H	0.015674	0.203099	-0.000284
N70	N	0.721743	0.190912	0.655692
H71	H	0.691732	0.220910	0.691411
H72	H	0.748230	0.221552	0.624041
H73	H	0.266331	0.003548	-0.077215
H74	H	0.242671	0.179506	0.076733
N75	N	0.718290	-0.469309	0.087999
H76	H	0.688025	-0.495366	0.055505
H77	H	0.743396	-0.502755	0.124275
H78	H	0.837102	-0.022328	0.430657
N79	N	0.450743	0.226241	-0.000219
H80	H	0.459671	0.254097	-0.045115
H81	H	0.400660	0.215823	-0.000201
H82	H	0.937375	-0.265162	-0.000231
N83	N	0.922130	-0.345694	-0.088427
H84	H	0.915523	-0.293321	-0.081980
H85	H	0.970790	-0.364903	-0.072576
H86	H	0.707679	-0.234401	-0.000185
N87	N	0.918719	-0.005927	0.655637
H88	H	0.948735	-0.035925	0.691341
H89	H	0.892225	-0.036566	0.624029
H90	H	0.046435	-0.026600	-0.000306
N91	N	0.956172	-0.126397	-0.000212
H92	H	0.995774	-0.165710	-0.000222
H93	H	0.959380	-0.096699	-0.045104
H94	H	0.397755	0.005473	-0.077191
H95	H	0.907244	-0.484991	-0.077221
H96	H	0.147101	0.205028	-0.000265
H97	H	0.177866	-0.024674	-0.000236
N98	N	0.949620	-0.573283	-0.000251
H99	H	0.989224	-0.612594	-0.000266
H100	H	0.952825	-0.543581	-0.045140
H101	H	0.703049	-0.549857	-0.000208
N102	N	0.947410	-0.723869	-0.000275
H103	H	0.988009	-0.695300	-0.000274
H104	H	0.949714	-0.754308	0.044615
N105	N	0.485996	-0.036920	-0.000169
H106	H	0.433319	-0.028069	-0.000182
H107	H	0.502387	-0.064380	-0.045053
H108	H	0.624756	-0.018124	-0.000144
N109	N	0.720500	-0.318734	0.088007
H110	H	0.689279	-0.348566	0.114894
H111	H	0.746494	-0.292107	0.124241
N112	N	0.381961	0.194390	0.087968
H113	H	0.343894	0.224612	0.114841
H114	H	0.415422	0.169266	0.124214
H115	H	0.906200	0.006582	0.804008
H116	H	0.701123	-0.681288	-0.000221
N117	N	0.721753	0.190918	0.814130
H118	H	0.729587	0.240198	0.800850
H119	H	0.672508	0.182976	0.800871
H120	H	0.709599	-0.102967	-0.000182
N121	N	0.800876	0.224037	0.578978
H122	H	0.839384	0.252906	0.565683
H123	H	0.754197	0.250443	0.565711
N124	N	0.918678	-0.005935	0.185429
H125	H	0.948695	-0.035930	0.221134
H126	H	0.892183	-0.036578	0.153826
N127	N	0.839574	-0.039055	0.579018
H128	H	0.838164	-0.029453	0.633088
H129	H	0.801051	-0.067885	0.565718
H130	H	0.906165	0.006578	0.333797
N131	N	0.800872	0.224035	0.420535
H132	H	0.794985	0.264127	0.456239
H133	H	0.843052	0.227978	0.388887
H134	H	0.734219	0.178388	0.195554
N135	N	0.601326	0.228449	-0.000201
H136	H	0.562013	0.268051	-0.000217
H137	H	0.630990	0.231653	0.044696
N138	N	0.721713	0.190908	0.343919
H139	H	0.728909	0.183727	0.397989
H140	H	0.729575	0.240164	0.330577
