data_functionalizedCrystal
_audit_creation_method	'MofGen! by Chris Wilmer'
_symmetry_space_group_name_H-M	'P1'
_symmetry_Int_Tables_number	1
_symmetry_cell_setting	triclinic
loop_
_symmetry_equiv_pos_as_xyz
  x,y,z
_cell_length_a	19.288859
_cell_length_b	19.288857
_cell_length_c	17.766277
_cell_angle_alpha	89.991474
_cell_angle_beta	89.989768
_cell_angle_gamma	83.133417
loop_
_atom_site_label
_atom_site_type_symbol
_atom_site_fract_x
_atom_site_fract_y
_atom_site_fract_z
O1	O	0.921353	0.086629	-0.062613
O2	O	1.254687	0.419962	0.270721
O3	O	1.588020	0.753295	0.604054
O4	O	0.719092	0.098322	-0.062611
O5	O	1.052425	0.431655	0.270722
O6	O	1.385758	0.764989	0.604055
O7	O	0.826070	-0.008656	-0.062603
O8	O	1.159403	0.324678	0.270730
O9	O	1.492736	0.658011	0.604064
O10	O	0.814375	0.193606	-0.062621
O11	O	1.147709	0.526939	0.270712
O12	O	1.481042	0.860273	0.604046
O13	O	0.826051	-0.008661	0.062586
O14	O	1.159384	0.324672	0.395919
O15	O	1.492718	0.658006	0.729252
O16	O	0.719073	0.098316	0.062577
O17	O	1.052406	0.431650	0.395911
O18	O	1.385740	0.764983	0.729244
O19	O	0.921335	0.086623	0.062576
O20	O	1.254668	0.419957	0.395909
O21	O	1.588001	0.753290	0.729243
Cu22	Cu	0.820202	0.092469	0.074007
Cu23	Cu	1.153535	0.425803	0.407341
Cu24	Cu	1.486869	0.759136	0.740674
Cu25	Cu	0.820224	0.092476	-0.074043
Cu26	Cu	1.153558	0.425809	0.259291
Cu27	Cu	1.486891	0.759142	0.592624
O28	O	0.814357	0.193601	0.062568
O29	O	1.147690	0.526934	0.395901
O30	O	1.481023	0.860267	0.729234
C31	C	0.693206	0.097944	-0.000017
C32	C	1.026539	0.431277	0.333317
C33	C	1.359873	0.764610	0.666650
C34	C	0.616102	0.096816	-0.000016
C35	C	0.949435	0.430150	0.333317
C36	C	1.282769	0.763483	0.666651
C37	C	0.052060	0.151960	-0.000022
C38	C	0.385393	0.485293	0.333311
C39	C	0.718727	0.818627	0.666645
C40	C	0.124506	0.153025	-0.000026
C41	C	0.457840	0.486359	0.333307
C42	C	0.791173	0.819692	0.666641
C43	C	0.169215	0.090256	-0.000019
C44	C	0.502548	0.423589	0.333314
C45	C	0.835882	0.756922	0.666648
C46	C	0.141472	0.026416	-0.000027
C47	C	0.474805	0.359749	0.333306
C48	C	0.808138	0.693083	0.666639
C49	C	0.069026	0.025353	-0.000031
C50	C	0.402360	0.358686	0.333303
C51	C	0.735693	0.692019	0.666636
C52	C	0.290480	0.043441	0.043847
C53	C	0.623813	0.376774	0.377180
C54	C	0.957147	0.710107	0.710514
C55	C	0.362923	0.044507	0.043855
C56	C	0.696257	0.377840	0.377189
C57	C	1.029590	0.711173	0.710522
C58	C	0.392661	0.093533	-0.000012
C59	C	0.725994	0.426867	0.333322
C60	C	1.059327	0.760200	0.666655
C61	C	0.349944	0.141505	-0.043877
C62	C	0.683277	0.474839	0.289457
C63	C	1.016610	0.808172	0.622790
C64	C	0.277498	0.140442	-0.043880
C65	C	0.610832	0.473775	0.289453
C66	C	0.944165	0.807108	0.622786
C67	C	0.247771	0.091402	-0.000016
C68	C	0.581104	0.424735	0.333318
C69	C	0.914437	0.758068	0.666651
C70	C	0.498950	0.158524	-0.000013
C71	C	0.832284	0.491857	0.333320
C72	C	1.165617	0.825191	0.666654
C73	C	0.571399	0.159587	-0.000022
C74	C	0.904732	0.492920	0.333312
C75	C	1.238065	0.826253	0.666645
C76	C	0.588363	0.032976	-0.000015
C77	C	0.921696	0.366309	0.333318
C78	C	1.255029	0.699642	0.666651
C79	C	0.515916	0.031915	-0.000014
C80	C	0.849249	0.365248	0.333319
C81	C	1.182582	0.698581	0.666652
C82	C	0.471214	0.094691	-0.000009
C83	C	0.804547	0.428024	0.333324
C84	C	1.137880	0.761358	0.666657
C85	C	0.825685	-0.034535	-0.000008
C86	C	1.159018	0.298799	0.333325
C87	C	1.492352	0.632132	0.666659
C88	C	0.824558	-0.111639	-0.000006
C89	C	1.157891	0.221695	0.333328
C90	C	1.491225	0.555028	0.666661
C91	C	0.824042	-0.147846	-0.068246
C92	C	1.157376	0.185487	0.265087
C93	C	1.490709	0.518820	0.598421
C94	C	0.822974	-0.220292	-0.068252
C95	C	1.156307	0.113041	0.265082
C96	C	1.489640	0.446374	0.598415
C97	C	0.822435	-0.256530	-0.000013
C98	C	1.155768	0.076804	0.333320
C99	C	1.489101	0.410137	0.666654
C100	C	0.822947	-0.220313	0.068236
C101	C	1.156280	0.113021	0.401570
C102	C	1.489613	0.446354	0.734903
C103	C	0.824008	-0.147867	0.068240
C104	C	1.157342	0.185466	0.401573
C105	C	1.490675	0.518799	0.734907
C106	C	0.861429	-0.376764	0.052262
C107	C	1.194762	-0.043431	0.385595
C108	C	1.528095	0.289902	0.718928
C109	C	0.860371	-0.449209	0.052255
C110	C	1.193705	-0.115876	0.385588
C111	C	1.527038	0.217458	0.718922
C112	C	0.819157	-0.479975	-0.000022
C113	C	1.152490	-0.146642	0.333312
C114	C	1.485824	0.186691	0.666645
C115	C	0.779009	-0.438289	-0.052304
C116	C	1.112342	-0.104956	0.281029
C117	C	1.445676	0.228377	0.614362
C118	C	0.780071	-0.365844	-0.052301
C119	C	1.113404	-0.032511	0.281033
C120	C	1.446738	0.300823	0.614366
C121	C	0.821283	-0.335085	-0.000009
C122	C	1.154616	-0.001751	0.333324
C123	C	1.487950	0.331582	0.666657
C124	C	0.817481	-0.594737	-0.068273
C125	C	1.150815	-0.261404	0.265061
C126	C	1.484148	0.071929	0.598394
C127	C	0.816408	-0.667184	-0.068275
C128	C	1.149742	-0.333851	0.265058
C129	C	1.483075	-0.000517	0.598391
C130	C	0.816388	-0.667204	0.068215
C131	C	1.149722	-0.333871	0.401548
C132	C	1.483055	-0.000537	0.734881
C133	C	0.817454	-0.594758	0.068215
C134	C	1.150788	-0.261424	0.401549
C135	C	1.484121	0.071909	0.734882
C136	C	0.818004	-0.558529	-0.000030
C137	C	1.151337	-0.225196	0.333303
C138	C	1.484671	0.108138	0.666636
C139	C	0.947220	0.087001	-0.000020
C140	C	1.280554	0.420335	0.333313
C141	C	1.613887	0.753668	0.666646
C142	C	1.024324	0.088129	-0.000026
C143	C	1.357658	0.421462	0.333307
C144	C	1.690991	0.754795	0.666641
C145	C	0.814741	0.219480	-0.000029
C146	C	1.148075	0.552813	0.333304
C147	C	1.481408	0.886147	0.666638
C148	C	0.815868	0.296584	-0.000036
C149	C	1.149202	0.629917	0.333297
C150	C	1.482535	0.963250	0.666631
N151	N	0.820192	0.092464	0.178138
N152	N	1.153525	0.425798	0.511471
N153	N	1.486858	0.759131	0.844804
N154	N	0.820240	0.092475	-0.178173
N155	N	1.153574	0.425809	0.155160
N156	N	1.486907	0.759142	0.488494
C157	C	0.867577	0.045118	0.217528
C158	C	1.200910	0.378451	0.550862
C159	C	1.534243	0.711785	0.884195
C160	C	0.867581	0.045115	0.296330
C161	C	1.200914	0.378448	0.629663
C162	C	1.534247	0.711781	0.962997
C163	C	0.820206	0.092470	0.335738
C164	C	1.153540	0.425803	0.669072
C165	C	1.486873	0.759137	1.002405
C166	C	0.772812	0.139820	0.296338
C167	C	1.106146	0.473153	0.629671
C168	C	1.439479	0.806487	0.963005
C169	C	0.772805	0.139817	0.217538
C170	C	1.106138	0.473151	0.550871
C171	C	1.439472	0.806484	0.884204
C172	C	0.810906	0.155758	0.460571
C173	C	1.144239	0.489091	0.793904
C174	C	1.477572	0.822425	1.127237
C175	C	0.810918	0.155762	0.539369
C176	C	1.144251	0.489095	0.872703
C177	C	1.477585	0.822428	1.206036
C178	C	0.820225	0.092478	0.578785
C179	C	1.153558	0.425812	0.912118
C180	C	1.486891	0.759145	1.245451
C181	C	0.829534	0.029188	0.539391
C182	C	1.162868	0.362522	0.872724
C183	C	1.496201	0.695855	1.206058
C184	C	0.829527	0.029186	0.460591
C185	C	1.162860	0.362519	0.793924
C186	C	1.496194	0.695852	1.127258
C187	C	0.820209	0.092478	0.421184
C188	C	1.153542	0.425811	0.754517
C189	C	1.486875	0.759145	1.087851
C190	C	0.867617	0.045124	0.703621
C191	C	1.200950	0.378458	1.036954
C192	C	1.534284	0.711791	1.370288
C193	C	0.867616	0.045120	0.782424
C194	C	1.200949	0.378454	1.115758
C195	C	1.534283	0.711787	1.449091
C196	C	0.772851	0.139832	0.782431
C197	C	1.106184	0.473165	1.115764
C198	C	1.439518	0.806498	1.449098
C199	C	0.772848	0.139830	0.703629
C200	C	1.106182	0.473163	1.036962
C201	C	1.439515	0.806496	1.370296
C202	C	0.820235	0.092477	0.664229
C203	C	1.153568	0.425810	0.997562
C204	C	1.486902	0.759144	1.330896
H205	H	0.493334	-0.020063	-0.000013
H206	H	0.826667	0.313270	0.333320
H207	H	1.160001	0.646603	0.666654
H208	H	0.894989	-0.351721	0.094837
H209	H	1.228323	-0.018388	0.428171
H210	H	1.561656	0.314946	0.761504
Br211	Br	0.708491	0.204077	0.164074
Br212	Br	1.041824	0.537411	0.497408
Br213	Br	1.375158	0.870744	0.830741
H214	H	0.242721	0.179501	-0.079598
H215	H	0.576055	0.512834	0.253735
H216	H	0.909388	0.846168	0.587069
Br217	Br	0.031382	-0.061282	-0.000041
Br218	Br	0.364716	0.272051	0.333292
Br219	Br	0.698049	0.605384	0.666626
H220	H	0.906201	0.006561	0.814497
H221	H	1.239534	0.339895	1.147830
H222	H	1.572867	0.673228	1.481163
H223	H	0.817880	-0.565278	0.123784
H224	H	1.151213	-0.231945	0.457117
H225	H	1.484547	0.101389	0.790451
H226	H	0.015667	0.203077	-0.000022
H227	H	0.349001	0.536411	0.333312
H228	H	0.682334	0.869744	0.666645
H229	H	0.374153	0.181429	-0.079595
H230	H	0.707487	0.514762	0.253738
H231	H	1.040820	0.848096	0.587071
H232	H	0.177878	-0.024691	-0.000024
H233	H	0.511211	0.308642	0.333310
H234	H	0.844545	0.641976	0.666643
Br235	Br	0.162158	0.239659	-0.000021
Br236	Br	0.495491	0.572993	0.333313
Br237	Br	0.828825	0.906326	0.666646
Br238	Br	0.438279	0.243717	-0.000007
Br239	Br	0.771613	0.577051	0.333326
Br240	Br	1.104946	0.910384	0.666660
H241	H	0.822506	-0.249822	0.123797
H242	H	1.155839	0.083512	0.457130
H243	H	1.489172	0.416845	0.790463
H244	H	0.624764	-0.018133	-0.000016
H245	H	0.958097	0.315201	0.333318
H246	H	1.291430	0.648534	0.666651
H247	H	0.837105	-0.022347	0.428520
H248	H	1.170439	0.310986	0.761853
H249	H	1.503772	0.644320	1.095187
H250	H	0.593978	0.211568	-0.000025
H251	H	0.927312	0.544901	0.333309
H252	H	1.260645	0.878234	0.666642
Br253	Br	0.420888	-0.020589	0.103395
Br254	Br	0.754221	0.312744	0.436728
Br255	Br	1.087555	0.646077	0.770061
H256	H	0.824488	-0.118353	-0.123817
H257	H	1.157821	0.214980	0.209516
H258	H	1.491155	0.548314	0.542849
H259	H	0.734266	0.178386	0.671555
H260	H	1.067599	0.511720	1.004888
H261	H	1.400932	0.845053	1.338222
H262	H	0.266275	0.003514	0.079570
H263	H	0.599608	0.336847	0.412903
H264	H	0.932942	0.670180	0.746237
H265	H	0.822549	-0.249778	-0.123823
H266	H	1.155883	0.083556	0.209510
H267	H	1.489216	0.416889	0.542844
Br268	Br	0.708549	0.204093	0.835907
Br269	Br	1.041882	0.537426	1.169240
Br270	Br	1.375216	0.870759	1.502573
H271	H	0.747380	-0.331906	-0.094870
H272	H	1.080713	0.001428	0.238464
H273	H	1.414046	0.334761	0.571797
H274	H	0.745449	-0.463337	-0.094873
H275	H	1.078782	-0.130004	0.238460
H276	H	1.412115	0.203329	0.571793
Br277	Br	0.798291	0.241653	0.592824
Br278	Br	1.131625	0.574987	0.926157
Br279	Br	1.464958	0.908320	1.259491
Br280	Br	0.931894	-0.019148	0.349798
Br281	Br	1.265227	0.314186	0.683132
Br282	Br	1.598560	0.647519	1.016465
Br283	Br	0.818224	-0.545565	-0.160889
Br284	Br	1.151557	-0.212232	0.172444
Br285	Br	1.484891	0.121102	0.505778
Br286	Br	0.815701	-0.716324	-0.160896
Br287	Br	1.149034	-0.382990	0.172437
Br288	Br	1.482367	-0.049657	0.505771
Br289	Br	0.815650	-0.716374	0.160826
Br290	Br	1.148983	-0.383041	0.494160
Br291	Br	1.482316	-0.049708	0.827493
Br292	Br	0.824705	-0.098724	0.160859
Br293	Br	1.158038	0.234609	0.494193
Br294	Br	1.491371	0.567942	0.827526
Br295	Br	0.914861	-0.505776	0.123205
Br296	Br	1.248195	-0.172443	0.456538
Br297	Br	1.581528	0.160890	0.789871
Br298	Br	0.842175	-0.056703	0.592872
Br299	Br	1.175508	0.276631	0.926206
Br300	Br	1.508841	0.609964	1.259539
Br301	Br	0.931924	-0.019142	0.650147
Br302	Br	1.265257	0.314192	0.983481
Br303	Br	1.598591	0.647525	1.316814
Br304	Br	0.931883	-0.019147	0.164056
Br305	Br	1.265216	0.314186	0.497389
Br306	Br	1.598549	0.647520	0.830723
H307	H	0.803315	0.207294	0.428485
H308	H	1.136648	0.540628	0.761819
H309	H	1.469981	0.873961	1.095152
Br310	Br	0.708513	0.204084	0.349817
Br311	Br	1.041846	0.537417	0.683151
Br312	Br	1.375179	0.870751	1.016484
