data_functionalizedCrystal
_audit_creation_method	'MofGen! by Chris Wilmer'
_symmetry_space_group_name_H-M	'P1'
_symmetry_Int_Tables_number	1
_symmetry_cell_setting	triclinic
loop_
_symmetry_equiv_pos_as_xyz
  x,y,z
_cell_length_a	10.967926
_cell_length_b	19.188928
_cell_length_c	17.666332
_cell_angle_alpha	89.987384
_cell_angle_beta	77.880006
_cell_angle_gamma	96.053409
loop_
_atom_site_label
_atom_site_type_symbol
_atom_site_fract_x
_atom_site_fract_y
_atom_site_fract_z
O1	O	1.655098	-0.097915	-0.152943
O2	O	1.291766	-0.107290	-0.105544
O3	O	1.483919	-0.001015	-0.130631
O4	O	1.462945	-0.204190	-0.127857
O5	O	1.483885	-0.001012	-0.256523
O6	O	1.291732	-0.107287	-0.231437
O7	O	1.655065	-0.097912	-0.278836
Cu8	Cu	1.473395	-0.102599	-0.266631
Cu9	Cu	1.473435	-0.102603	-0.117749
O10	O	1.462912	-0.204187	-0.253749
C11	C	1.245265	-0.106607	-0.162427
C12	C	1.106759	-0.104567	-0.144358
C13	C	1.044990	-0.103655	-0.201519
C14	C	0.901837	-0.101547	-0.182846
C15	C	1.483223	0.025002	-0.193492
C16	C	1.481186	0.102520	-0.193236
C17	C	1.593934	0.146712	-0.207950
C18	C	1.592020	0.219548	-0.207692
C19	C	1.477351	0.248189	-0.192733
C20	C	1.364588	0.203988	-0.178013
C21	C	1.366505	0.131153	-0.178264
N22	N	1.389690	0.356765	-0.224147
N23	N	1.387876	0.425955	-0.223911
C24	C	1.471568	0.467636	-0.191973
N25	N	1.557160	0.437513	-0.160292
N26	N	1.558978	0.368317	-0.160532
C27	C	1.475260	0.327166	-0.192458
C28	C	1.582249	0.590806	-0.206406
C29	C	1.580330	0.663643	-0.206142
C30	C	1.352894	0.648081	-0.176471
C31	C	1.354816	0.575245	-0.176727
C32	C	1.469497	0.546612	-0.191699
C33	C	1.701565	-0.098595	-0.221952
C34	C	1.840072	-0.100635	-0.240015
N35	N	1.473376	-0.102596	-0.371348
C36	C	1.463611	0.769796	-0.190898
C37	C	1.465660	0.692279	-0.191182
C38	C	1.548806	-0.145331	-0.420783
C39	C	1.548826	-0.145329	-0.500034
C40	C	1.473393	-0.102600	-0.529842
C41	C	1.397958	-0.059856	-0.480397
C42	C	1.397950	-0.059854	-0.401150
N43	N	1.364116	-0.100170	-0.640027
N44	N	1.364127	-0.100176	-0.715309
C45	C	1.473416	-0.102603	-0.768609
N46	N	1.582693	-0.105036	-0.743784
N47	N	1.582681	-0.105034	-0.668495
C48	C	1.473394	-0.102597	-0.615772
C49	C	1.548874	-0.145338	-0.903978
C50	C	1.548896	-0.145331	-0.983230
C51	C	1.398017	-0.059862	-0.963590
C52	C	1.398006	-0.059865	-0.884341
C53	C	1.473432	-0.102607	-0.854539
N54	N	1.473464	-0.102601	-0.013033
H55	H	1.098090	-0.104432	-0.264280
C56	C	1.230782	0.526632	-0.160545
N57	N	1.137353	0.490016	-0.148352
H58	H	1.683837	0.255536	-0.219671
H59	H	1.271223	0.227312	-0.165832
C60	C	0.830114	-0.100491	-0.098052
N61	N	0.776090	-0.099697	-0.034186
H62	H	1.274688	0.095171	-0.166282
C63	C	0.911794	-0.101683	-0.324810
N64	N	0.965816	-0.102471	-0.388677
H65	H	1.053660	-0.103784	-0.081597
C66	C	1.708399	0.559307	-0.222864
N67	N	1.803416	0.535584	-0.235258
H68	H	1.610329	-0.180129	-1.023481
H69	H	1.672148	0.699624	-0.218121
H70	H	1.259528	0.671400	-0.164287
H71	H	1.687317	0.123404	-0.220139
H72	H	1.336599	-0.025070	-0.987860
H73	H	1.610229	-0.180132	-0.396525
H74	H	1.610251	-0.180131	-0.540291
C75	C	1.314978	-0.012856	-0.513188
N76	N	1.252476	0.022547	-0.537886
C77	C	1.314959	-0.012844	-0.346767
N78	N	1.252446	0.022563	-0.305805
H79	H	1.336577	-0.025068	-0.844089
C80	C	1.631856	-0.192347	-0.871195
N81	N	1.694361	-0.227754	-0.846505
