data_functionalizedCrystal
_audit_creation_method	'MofGen! by Chris Wilmer'
_symmetry_space_group_name_H-M	'P1'
_symmetry_Int_Tables_number	1
_symmetry_cell_setting	triclinic
loop_
_symmetry_equiv_pos_as_xyz
  x,y,z
_cell_length_a	29.839135
_cell_length_b	29.839131
_cell_length_c	29.839125
_cell_angle_alpha	89.980740
_cell_angle_beta	89.982859
_cell_angle_gamma	90.037758
loop_
_atom_site_label
_atom_site_type_symbol
_atom_site_fract_x
_atom_site_fract_y
_atom_site_fract_z
Zn1	Zn	0.686746	-0.178913	-0.254023
Zn2	Zn	1.186746	0.321087	0.245977
Zn3	Zn	0.686684	-0.254017	-0.178883
Zn4	Zn	1.186684	0.245983	0.321117
Zn5	Zn	0.611627	-0.178905	-0.178901
Zn6	Zn	1.111627	0.321095	0.321099
Zn7	Zn	0.611585	-0.254020	-0.253980
Zn8	Zn	1.111585	0.245980	0.246020
O9	O	0.649161	-0.216464	-0.216447
O10	O	1.149161	0.283536	0.283553
O11	O	0.749605	-0.188878	-0.244066
O12	O	1.249605	0.311122	0.255934
O13	O	0.676720	-0.244049	-0.116019
O14	O	1.176720	0.255951	0.383981
O15	O	0.621635	-0.116039	-0.188892
O16	O	1.121635	0.383961	0.311108
O17	O	0.749560	-0.244056	-0.188861
O18	O	1.249560	0.255944	0.311139
O19	O	0.676825	-0.116045	-0.244084
O20	O	1.176825	0.383955	0.255916
O21	O	0.621575	-0.188864	-0.116032
O22	O	1.121575	0.311136	0.383968
O23	O	0.548754	-0.188867	-0.188850
O24	O	1.048754	0.311133	0.311150
O25	O	0.621564	-0.244061	-0.316853
O26	O	1.121564	0.255939	0.183147
O27	O	0.548723	-0.244054	-0.244010
O28	O	1.048723	0.255946	0.255990
O29	O	0.676784	-0.188881	-0.316885
O30	O	1.176784	0.311119	0.183115
O31	O	0.676679	-0.316885	-0.188819
O32	O	1.176679	0.183115	0.311181
O33	O	0.621504	-0.316887	-0.243993
O34	O	1.121504	0.183113	0.256007
C35	C	0.532438	-0.216460	-0.216428
C36	C	1.032438	0.283540	0.283572
C37	C	0.482504	-0.216470	-0.216430
C38	C	0.982504	0.283530	0.283570
C39	C	0.172881	-0.187776	-0.245235
C40	C	0.672881	0.312224	0.254765
C41	C	-0.014792	-0.187779	-0.245247
C42	C	0.485208	0.312221	0.254753
O43	O	-0.039039	-0.163372	-0.269717
O44	O	0.460961	0.336628	0.230283
N45	N	-0.038281	-0.216464	-0.216464
N46	N	0.461719	0.283536	0.283536
C47	C	-0.014850	-0.245149	-0.187672
C48	C	0.485150	0.254851	0.312328
O49	O	-0.039135	-0.269544	-0.163187
O50	O	0.460865	0.230456	0.336813
C51	C	0.172823	-0.245143	-0.187658
C52	C	0.672823	0.254857	0.312342
C53	C	0.196309	-0.216459	-0.216447
C54	C	0.696309	0.283541	0.283553
C55	C	0.196368	-0.159094	-0.274021
C56	C	0.696368	0.340906	0.225979
C57	C	0.243283	-0.159095	-0.274019
C58	C	0.743283	0.340905	0.225981
C59	C	0.266712	-0.187778	-0.245231
C60	C	0.766712	0.312222	0.254769
C61	C	0.243225	-0.216460	-0.216445
C62	C	0.743225	0.283540	0.283555
C63	C	0.196253	-0.273825	-0.158864
C64	C	0.696253	0.226175	0.341136
C65	C	0.243174	-0.273820	-0.158862
C66	C	0.743174	0.226180	0.341138
C67	C	0.266661	-0.245136	-0.187651
C68	C	0.766661	0.254864	0.312349
C69	C	0.313569	-0.245145	-0.187655
C70	C	0.813569	0.254855	0.312345
N71	N	0.337058	-0.216460	-0.216439
N72	N	0.837058	0.283540	0.283561
C73	C	0.313630	-0.187776	-0.245227
C74	C	0.813630	0.312224	0.254773
C75	C	-0.113380	-0.245150	-0.187683
C76	C	0.386620	0.254850	0.312317
C77	C	-0.160298	-0.245153	-0.187687
C78	C	0.339702	0.254847	0.312313
C79	C	-0.160237	-0.187782	-0.245262
C80	C	0.339763	0.312218	0.254738
C81	C	-0.113319	-0.187782	-0.245259
C82	C	0.386681	0.312218	0.254741
C83	C	-0.089891	-0.216465	-0.216467
C84	C	0.410109	0.283535	0.283533
C85	C	0.412156	-0.187781	-0.245221
C86	C	0.912156	0.312219	0.254779
C87	C	0.459075	-0.187786	-0.245218
C88	C	0.959075	0.312214	0.254782
C89	C	0.459010	-0.245155	-0.187642
C90	C	0.959010	0.254845	0.312358
C91	C	0.412095	-0.245152	-0.187647
C92	C	0.912095	0.254848	0.312353
C93	C	0.388669	-0.216461	-0.216438
C94	C	0.888669	0.283539	0.283562
O95	O	0.337845	-0.269535	-0.163195
O96	O	0.837845	0.230465	0.336805
O97	O	0.337923	-0.163377	-0.269702
O98	O	0.837923	0.336623	0.230298
C99	C	0.125965	-0.187775	-0.245236
C100	C	0.625965	0.312225	0.254764
C101	C	0.102479	-0.216457	-0.216450
C102	C	0.602479	0.283543	0.283550
C103	C	0.125907	-0.245140	-0.187662
C104	C	0.625907	0.254860	0.312338
C105	C	0.055561	-0.216459	-0.216454
C106	C	0.555561	0.283541	0.283546
C107	C	0.032132	-0.187775	-0.245242
C108	C	0.532132	0.312225	0.254758
C109	C	0.055622	-0.159090	-0.274026
C110	C	0.555622	0.340910	0.225974
C111	C	0.102537	-0.159091	-0.274025
C112	C	0.602537	0.340909	0.225975
C113	C	0.102418	-0.273825	-0.158878
C114	C	0.602418	0.226175	0.341122
C115	C	0.055502	-0.273822	-0.158883
C116	C	0.555502	0.226178	0.341117
C117	C	0.032074	-0.245139	-0.187671
C118	C	0.532074	0.254861	0.312329
C119	C	0.649092	-0.333186	-0.216409
C120	C	1.149092	0.166814	0.283591
C121	C	0.649104	-0.383121	-0.216408
C122	C	1.149104	0.116879	0.283592
C123	C	0.677892	-0.692732	-0.245226
C124	C	1.177892	-0.192732	0.254774
C125	C	0.677940	-0.880405	-0.245253
C126	C	1.177940	-0.380405	0.254747
O127	O	0.702350	-0.904643	-0.269728
O128	O	1.202350	-0.404643	0.230272
N129	N	0.649237	-0.903906	-0.216497
N130	N	1.149237	-0.403906	0.283503
C131	C	0.620517	-0.880485	-0.187734
C132	C	1.120517	-0.380485	0.312266
O133	O	0.596101	-0.904780	-0.163279
O134	O	1.096101	-0.404780	0.336721
C135	C	0.620466	-0.692813	-0.187709
C136	C	1.120466	-0.192813	0.312291
C137	C	0.649175	-0.669315	-0.216464
C138	C	1.149175	-0.169315	0.283536
C139	C	0.706598	-0.669234	-0.273979
C140	C	1.206598	-0.169234	0.226021
C141	C	0.706587	-0.622319	-0.273971
C142	C	1.206587	-0.122319	0.226029
C143	C	0.677870	-0.598901	-0.245209
C144	C	1.177870	-0.098901	0.254791
C145	C	0.649164	-0.622400	-0.216456
C146	C	1.149164	-0.122400	0.283544
C147	C	0.591744	-0.669393	-0.158949
C148	C	1.091744	-0.169393	0.341051
C149	C	0.591734	-0.622472	-0.158946
C150	C	1.091734	-0.122472	0.341054
C151	C	0.620442	-0.598974	-0.187701
C152	C	1.120442	-0.098974	0.312299
C153	C	0.620437	-0.552067	-0.187685
C154	C	1.120437	-0.052067	0.312315
N155	N	0.649140	-0.528566	-0.216441
N156	N	1.149140	-0.028566	0.283559
C157	C	0.677857	-0.551984	-0.245203
C158	C	1.177857	-0.051984	0.254797
C159	C	0.620546	-0.979016	-0.187748
C160	C	1.120546	-0.479016	0.312252
C161	C	0.620559	-1.025934	-0.187753
C162	C	1.120559	-0.525934	0.312247
C163	C	0.677982	-1.025851	-0.245274
C164	C	1.177982	-0.525851	0.254726
C165	C	0.677971	-0.978932	-0.245266
C166	C	1.177971	-0.478932	0.254734
C167	C	0.649250	-0.955515	-0.216504
C168	C	1.149250	-0.455515	0.283496
C169	C	0.677833	-0.453458	-0.245183
C170	C	1.177833	0.046542	0.254817
C171	C	0.677821	-0.406538	-0.245170
C172	C	1.177821	0.093462	0.254830
C173	C	0.620396	-0.406625	-0.187651
C174	C	1.120396	0.093375	0.312349
C175	C	0.620410	-0.453541	-0.187662
C176	C	1.120410	0.046459	0.312338
C177	C	0.649129	-0.476956	-0.216431
C178	C	1.149129	0.023044	0.283569
O179	O	0.596037	-0.527800	-0.163227
O180	O	1.096037	-0.027800	0.336773
O181	O	0.702263	-0.527681	-0.269662
O182	O	1.202263	-0.027681	0.230338
C183	C	0.677902	-0.739648	-0.245235
C184	C	1.177902	-0.239648	0.254765
C185	C	0.649196	-0.763146	-0.216482
C186	C	1.149196	-0.263146	0.283518
C187	C	0.620480	-0.739729	-0.187720
C188	C	1.120480	-0.239729	0.312280
C189	C	0.649210	-0.810064	-0.216487
C190	C	1.149210	-0.310064	0.283513
C191	C	0.677926	-0.833481	-0.245249
C192	C	1.177926	-0.333481	0.254751
C193	C	0.706630	-0.809981	-0.274006
C194	C	1.206630	-0.309981	0.225994
C195	C	0.706619	-0.763065	-0.273997
C196	C	1.206619	-0.263065	0.226003
C197	C	0.591776	-0.763229	-0.158964
C198	C	1.091776	-0.263229	0.341036
C199	C	0.591790	-0.810145	-0.158974
C200	C	1.091790	-0.310145	0.341026
C201	C	0.620506	-0.833562	-0.187736
C202	C	1.120506	-0.333562	0.312264
C203	C	0.766339	-0.216468	-0.216467
C204	C	1.266339	0.283532	0.283533
C205	C	0.816273	-0.216469	-0.216475
C206	C	1.316273	0.283531	0.283525
C207	C	0.649176	-0.216472	-0.333625
C208	C	1.149176	0.283528	0.166375
C209	C	0.649183	-0.216476	-0.383560
C210	C	1.149183	0.283524	0.116440
C211	C	0.649242	-0.099285	-0.216495
C212	C	1.149242	0.400715	0.283505
C213	C	0.649276	-0.049351	-0.216515
C214	C	1.149276	0.450649	0.283485
C215	C	0.620460	-0.245105	-0.740131
C216	C	1.120460	0.254895	-0.240131
C217	C	0.620444	-0.245157	-0.552458
C218	C	1.120444	0.254843	-0.052458
O219	O	0.595979	-0.269584	-0.528179
O220	O	1.095979	0.230416	-0.028179
N221	N	0.649193	-0.216434	-0.529005
N222	N	1.149193	0.283566	-0.029005
C223	C	0.677945	-0.187694	-0.552474
C224	C	1.177945	0.312306	-0.052474
O225	O	0.702394	-0.163262	-0.528220
O226	O	1.202394	0.336738	-0.028220
C227	C	0.677959	-0.187641	-0.740146
C228	C	1.177959	0.312359	-0.240146
C229	C	0.649212	-0.216369	-0.763596
C230	C	1.149212	0.283631	-0.263596
C231	C	0.591715	-0.273831	-0.763581
C232	C	1.091715	0.226169	-0.263581
C233	C	0.591721	-0.273819	-0.810496
C234	C	1.091721	0.226181	-0.310496
C235	C	0.620473	-0.245082	-0.833962
C236	C	1.120473	0.254918	-0.333962
C237	C	0.649218	-0.216357	-0.810512
C238	C	1.149218	0.283643	-0.310512
C239	C	0.706708	-0.158899	-0.763614
C240	C	1.206708	0.341101	-0.263614
C241	C	0.706708	-0.158887	-0.810535
C242	C	1.206708	0.341113	-0.310535
C243	C	0.677961	-0.187615	-0.833985
C244	C	1.177961	0.312385	-0.333985
C245	C	0.677975	-0.187609	-0.880892
C246	C	1.177975	0.312391	-0.380892
N247	N	0.649226	-0.216332	-0.904345
N248	N	1.149226	0.283668	-0.404345
C249	C	0.620475	-0.245069	-0.880880
C250	C	1.120475	0.254931	-0.380880
C251	C	0.677937	-0.187725	-0.453943
C252	C	1.177937	0.312275	0.046057
C253	C	0.677934	-0.187739	-0.407025
C254	C	1.177934	0.312261	0.092975
C255	C	0.620432	-0.245202	-0.407012
C256	C	1.120432	0.254798	0.092988
C257	C	0.620438	-0.245190	-0.453931
C258	C	1.120438	0.254810	0.046069
C259	C	0.649188	-0.216448	-0.477396
C260	C	1.149188	0.283552	0.022604
C261	C	0.620490	-0.245042	-0.979405
C262	C	1.120490	0.254958	-0.479405
C263	C	0.620500	-0.245030	-1.026325
C264	C	1.120500	0.254970	-0.526325
C265	C	0.678000	-0.187566	-1.026334
C266	C	1.178000	0.312434	-0.526334
C267	C	0.677992	-0.187580	-0.979418
C268	C	1.177992	0.312420	-0.479418
C269	C	0.649234	-0.216320	-0.955955
C270	C	1.149234	0.283680	-0.455955
O271	O	0.702423	-0.163191	-0.905200
O272	O	1.202423	0.336809	-0.405200
O273	O	0.596023	-0.269491	-0.905142
O274	O	1.096023	0.230509	-0.405142
C275	C	0.620454	-0.245117	-0.693215
C276	C	1.120454	0.254883	-0.193215
C277	C	0.649199	-0.216392	-0.669765
C278	C	1.149199	0.283608	-0.169765
C279	C	0.677951	-0.187655	-0.693231
C280	C	1.177951	0.312345	-0.193231
C281	C	0.649197	-0.216406	-0.622847
C282	C	1.149197	0.283594	-0.122847
C283	C	0.620446	-0.245142	-0.599382
C284	C	1.120446	0.254858	-0.099382
C285	C	0.591697	-0.273865	-0.622834
C286	C	1.091697	0.226135	-0.122834
C287	C	0.591703	-0.273854	-0.669750
C288	C	1.091703	0.226146	-0.169750
C289	C	0.706699	-0.158932	-0.669778
C290	C	1.206699	0.341068	-0.169778
C291	C	0.706691	-0.158946	-0.622863
C292	C	1.206691	0.341054	-0.122863
C293	C	0.677940	-0.187683	-0.599397
C294	C	1.177940	0.312317	-0.099397
C295	C	0.649171	-0.216423	-0.099725
C296	C	1.149171	0.283577	0.400275
C297	C	0.649251	-0.216293	-0.049790
C298	C	1.149251	0.283707	0.450210
H299	H	-0.094310	-0.268509	-0.164235
H300	H	0.405690	0.231491	0.335765
H301	H	0.701351	-0.164320	-0.473044
H302	H	1.201351	0.335680	0.026956
H303	H	0.478094	-0.268509	-0.164205
H304	H	0.978094	0.231491	0.335795
H305	H	0.568294	-0.297247	-0.688839
H306	H	1.068294	0.202753	-0.188839
Cl307	Cl	0.584337	-0.281174	-0.949916
Cl308	Cl	1.084337	0.218826	-0.449916
Cl309	Cl	0.026160	-0.123033	-0.310218
Cl310	Cl	0.526160	0.376967	0.189782
H311	H	0.701347	-0.164350	-0.387936
H312	H	1.201347	0.335650	0.112064
H313	H	0.121488	-0.297182	-0.135434
H314	H	0.621488	0.202818	0.364566
Cl315	Cl	0.025982	-0.309885	-0.122686
Cl316	Cl	0.525982	0.190115	0.377314
Cl317	Cl	0.714143	-0.151442	-1.055842
Cl318	Cl	1.214143	0.348558	-0.555842
Cl319	Cl	0.742849	-0.122779	-0.734145
Cl320	Cl	1.242849	0.377221	-0.234145
H321	H	0.701403	-0.164190	-0.960324
H322	H	1.201403	0.335810	-0.460324
Cl323	Cl	0.555580	-0.309936	-0.839969
Cl324	Cl	1.055580	0.190064	-0.339969
H325	H	0.729982	-0.688296	-0.297404
H326	H	1.229982	-0.188296	0.202596
H327	H	0.568344	-0.603409	-0.135526
H328	H	1.068344	-0.103409	0.364474
H329	H	0.597029	-0.268582	-0.473021
H330	H	1.097029	0.231418	0.026979
H331	H	0.730014	-0.829055	-0.297423
H332	H	1.230014	-0.329055	0.202577
Cl333	Cl	0.166923	-0.123031	-0.310217
Cl334	Cl	0.666923	0.376969	0.189783
H335	H	-0.094199	-0.164424	-0.268701
H336	H	0.405801	0.335576	0.231299
Cl337	Cl	0.555669	-0.733797	-0.122804
Cl338	Cl	1.055669	-0.233797	0.377196
H339	H	0.568412	-0.829273	-0.135554
H340	H	1.068412	-0.329273	0.364446
H341	H	-0.179321	-0.164427	-0.268702
H342	H	0.320679	0.335573	0.231298
H343	H	0.701200	-0.387407	-0.268586
H344	H	1.201200	0.112593	0.231414
Cl345	Cl	0.166739	-0.309878	-0.122661
Cl346	Cl	0.666739	0.190122	0.377339
Cl347	Cl	0.488599	-0.151725	-0.281414
Cl348	Cl	0.988599	0.348275	0.218586
Cl349	Cl	0.272803	-0.123031	-0.310211
Cl350	Cl	0.772803	0.376969	0.189789
H351	H	0.597023	-0.268601	-0.387899
H352	H	1.097023	0.231399	0.112101
H353	H	-0.179417	-0.268515	-0.164249
H354	H	0.320583	0.231485	0.335751
Cl355	Cl	0.272623	-0.309882	-0.122665
Cl356	Cl	0.772623	0.190118	0.377335
Cl357	Cl	0.555649	-0.698922	-0.122799
Cl358	Cl	1.055649	-0.198922	0.377201
Cl359	Cl	0.382568	-0.281225	-0.151467
Cl360	Cl	0.882568	0.218775	0.348533
Cl361	Cl	0.742857	-0.122812	-0.699270
Cl362	Cl	1.242857	0.377188	-0.199270
H363	H	0.597091	-0.268425	-1.045416
H364	H	1.097091	0.231575	-0.545416
H365	H	0.701216	-0.472517	-0.268612
H366	H	1.201216	0.027483	0.231388
H367	H	0.729996	-0.743936	-0.297412
H368	H	1.229996	-0.243936	0.202588
Cl369	Cl	0.714062	-0.949396	-0.281417
Cl370	Cl	1.214062	-0.449396	0.218583
H371	H	0.597017	-0.387552	-0.164232
H372	H	1.097017	0.112448	0.335768
H373	H	0.729963	-0.603189	-0.297387
H374	H	1.229963	-0.103189	0.202613
H375	H	0.701365	-1.044925	-0.268692
H376	H	1.201365	-0.544925	0.231308
Cl377	Cl	0.584473	-1.055468	-0.151596
Cl378	Cl	1.084473	-0.555468	0.348404
H379	H	0.597036	-0.472674	-0.164244
H380	H	1.097036	0.027326	0.335756
H381	H	0.730119	-0.135480	-0.829637
H382	H	1.230119	0.364520	-0.329637
H383	H	0.568300	-0.297232	-0.744480
H384	H	1.068300	0.202768	-0.244480
H385	H	0.393087	-0.164417	-0.268665
H386	H	0.893087	0.335583	0.231335
Cl387	Cl	0.584434	-0.949585	-0.151588
Cl388	Cl	1.084434	-0.449585	0.348412
H389	H	0.121656	-0.135734	-0.297467
H390	H	0.621656	0.364266	0.202533
H391	H	0.568289	-0.297266	-0.603721
H392	H	1.068289	0.202734	-0.103721
H393	H	0.730104	-0.135553	-0.603773
H394	H	1.230104	0.364447	-0.103773
