data_functionalizedCrystal
_audit_creation_method	'MofGen! by Chris Wilmer'
_symmetry_space_group_name_H-M	'P1'
_symmetry_Int_Tables_number	1
_symmetry_cell_setting	triclinic
loop_
_symmetry_equiv_pos_as_xyz
  x,y,z
_cell_length_a	19.121102
_cell_length_b	25.639240
_cell_length_c	19.120904
_cell_angle_alpha	87.596818
_cell_angle_beta	89.911827
_cell_angle_gamma	87.586654
loop_
_atom_site_label
_atom_site_type_symbol
_atom_site_fract_x
_atom_site_fract_y
_atom_site_fract_z
Zn1	Zn	1.054802	-0.255751	0.442001
Zn2	Zn	1.059707	-0.339618	0.324744
Zn3	Zn	0.942572	-0.248315	0.319786
Zn4	Zn	0.937519	-0.339266	0.436946
O5	O	0.998650	-0.295737	0.380869
O6	O	1.153558	-0.270136	0.430636
O7	O	1.048337	-0.324541	0.225982
O8	O	0.957522	-0.176139	0.336039
O9	O	1.157162	-0.331752	0.344488
O10	O	1.039977	-0.181603	0.425829
O11	O	0.962278	-0.257461	0.222340
O12	O	0.843797	-0.257120	0.331138
O13	O	0.948909	-0.331153	0.535721
O14	O	0.840084	-0.323942	0.417215
O15	O	1.035076	-0.269795	0.539434
O16	O	1.043437	-0.412733	0.339587
O17	O	0.953665	-0.412475	0.422022
C18	C	0.816503	-0.289687	0.373090
C19	C	0.738579	-0.287111	0.369779
C20	C	0.700059	-0.320740	0.412969
C21	C	0.626841	-0.318313	0.409861
C22	C	0.592145	-0.282260	0.363559
C23	C	0.630670	-0.248627	0.320368
C24	C	0.703887	-0.251052	0.323480
C25	C	0.371174	-0.273193	0.351928
C26	C	0.297952	-0.270772	0.348818
C27	C	0.294127	-0.340458	0.438312
C28	C	0.367346	-0.342881	0.441417
C29	C	0.405865	-0.309247	0.398228
C30	C	0.517304	-0.279779	0.360380
C31	C	0.480704	-0.311725	0.401411
C32	C	0.998553	-0.431575	0.380810
C33	C	0.998575	-0.489690	0.380811
C34	C	1.041603	-0.852867	0.427705
C35	C	1.041623	-0.907472	0.427720
O36	O	1.078092	-0.938096	0.467529
N37	N	0.998745	-0.931982	0.380941
C38	C	0.955838	-0.901883	0.334149
O39	O	0.919367	-0.927744	0.294362
C40	C	0.955815	-0.847279	0.334138
C41	C	0.998701	-0.822772	0.380915
C42	C	1.084486	-0.828360	0.474479
C43	C	1.084467	-0.773758	0.474463
C44	C	1.041565	-0.743663	0.427673
C45	C	0.998682	-0.768170	0.380899
C46	C	0.912905	-0.817181	0.287349
C47	C	0.912885	-0.762573	0.287343
C48	C	0.955771	-0.738066	0.334120
C49	C	0.955761	-0.683474	0.334092
N50	N	0.998639	-0.658964	0.380871
C51	C	1.041541	-0.689059	0.427661
C52	C	0.955889	-1.016556	0.334177
C53	C	0.955915	-1.071160	0.334184
C54	C	1.041700	-1.076745	0.427756
C55	C	1.041677	-1.022140	0.427745
C56	C	0.998768	-0.992046	0.380956
C57	C	1.041498	-0.574391	0.427623
C58	C	1.041477	-0.519785	0.427601
C59	C	0.955690	-0.514204	0.334032
C60	C	0.955713	-0.568806	0.334051
C61	C	0.998620	-0.598899	0.380853
O62	O	0.919309	-0.652817	0.294305
O63	O	1.077999	-0.663190	0.467448
C64	C	1.181508	-0.301812	0.388679
C65	C	1.259432	-0.304401	0.392007
C66	C	0.990882	-0.301264	0.563726
C67	C	0.987571	-0.303619	0.641649
C68	C	0.998766	-0.159371	0.380945
C69	C	0.998815	-0.101259	0.380977
C70	C	1.006429	-0.290196	0.198725
C71	C	1.009875	-0.287698	0.120809
C72	C	1.030877	-0.272781	0.680192
C73	C	1.027758	-0.274992	0.753408
C74	C	0.981337	-0.308044	0.788080
C75	C	0.938027	-0.338883	0.749532
C76	C	0.941143	-0.336669	0.676317
C77	C	0.969681	-0.316323	1.009046
C78	C	0.966570	-0.318536	1.082266
C79	C	1.056300	-0.254644	1.086137
C80	C	1.059415	-0.252436	1.012920
C81	C	1.016102	-0.283273	0.974378
C82	C	0.978149	-0.310305	0.862919
C83	C	1.019287	-0.281008	0.899541
H84	H	0.395590	-0.372241	0.479119
C85	C	0.479141	-0.240118	0.309448
C86	C	0.492569	-0.242211	0.230166
C87	C	0.454406	-0.202547	0.179238
C88	C	0.402815	-0.160790	0.207593
C89	C	0.389385	-0.158695	0.286880
C90	C	0.427549	-0.198360	0.337808
H91	H	0.530761	-0.273124	0.209172
H92	H	0.464348	-0.204097	0.120545
H93	H	0.374565	-0.131428	0.169894
H94	H	0.351193	-0.127783	0.307874
H95	H	0.417607	-0.196809	0.396501
C96	C	1.088890	-1.109855	0.479232
C97	C	1.168831	-1.104777	0.476984
C98	C	1.216018	-1.137888	0.528457
C99	C	1.183265	-1.176077	0.582178
C100	C	1.103319	-1.181156	0.584428
C101	C	1.056132	-1.148045	0.532956
H102	H	1.193081	-1.076506	0.437215
H103	H	1.275199	-1.134127	0.526790
H104	H	1.218195	-1.200587	0.620281
H105	H	1.079069	-1.209427	0.624198
H106	H	0.996951	-1.151806	0.534622
H107	H	0.921001	-1.091108	0.296086
H108	H	1.097218	-0.225523	0.984695
H109	H	1.063023	-0.249882	0.784786
C110	C	0.908694	-0.983455	0.282696
C111	C	0.917876	-0.988781	0.203254
C112	C	0.870681	-0.955684	0.151773
C113	C	0.814304	-0.917261	0.179735
C114	C	0.805119	-0.911933	0.259181
C115	C	0.852314	-0.945030	0.310661
H116	H	0.959612	-1.017226	0.182551
H117	H	0.877480	-0.959628	0.092962
H118	H	0.779367	-0.892760	0.141626
H119	H	0.763383	-0.883488	0.279884
H120	H	0.845515	-0.941086	0.369472
H121	H	0.508956	-0.341078	0.439113
H122	H	0.900227	-0.365792	0.777768
C123	C	0.908542	-0.595764	0.282591
C124	C	0.852196	-0.632411	0.310582
C125	C	0.805019	-0.659363	0.259125
C126	C	0.814187	-0.649669	0.179678
C127	C	0.870536	-0.613020	0.151683
C128	C	0.917714	-0.586068	0.203140
H129	H	0.845407	-0.639589	0.369397
H130	H	0.763305	-0.686493	0.279849
H131	H	0.779263	-0.669620	0.141587
H132	H	0.877325	-0.605843	0.092868
H133	H	0.959427	-0.558938	0.182415
H134	H	1.076403	-0.499833	0.465693
C135	C	0.251756	-0.377450	0.485822
C136	C	0.258460	-0.376018	0.565959
C137	C	0.216090	-0.413011	0.613475
C138	C	0.167015	-0.451436	0.580854
C139	C	0.160308	-0.452870	0.500713
C140	C	0.202679	-0.415877	0.453197
H141	H	0.294791	-0.347572	0.590111
H142	H	0.221055	-0.411949	0.672800
H143	H	0.135649	-0.478820	0.616028
H144	H	0.123978	-0.481316	0.476561
H145	H	0.197714	-0.416939	0.393872
C146	C	0.927100	-0.346678	0.901053
C147	C	0.847832	-0.339479	0.887585
C148	C	0.796787	-0.375857	0.925716
C149	C	0.825011	-0.419433	0.977316
C150	C	0.904284	-0.426634	0.990786
C151	C	0.955328	-0.390257	0.952654
H152	H	0.826935	-0.307219	0.849386
H153	H	0.738104	-0.370526	0.915744
H154	H	0.787225	-0.446362	1.005543
H155	H	0.925180	-0.458894	1.028985
H156	H	1.014011	-0.395587	0.962626
C157	C	1.103936	-0.220720	1.128533
C158	C	1.100511	-0.223150	1.209067
C159	C	1.148147	-0.189223	1.251463
C160	C	1.199207	-0.152866	1.213325
C161	C	1.202634	-0.150434	1.132787
C162	C	1.154998	-0.184362	1.090391
H163	H	1.062711	-0.250065	1.237303
H164	H	1.145610	-0.191023	1.311083
H165	H	1.234470	-0.127750	1.244709
H166	H	1.240433	-0.123519	1.104550
H167	H	1.157535	-0.182562	1.030771
H168	H	1.119421	-0.852858	0.512585
C169	C	0.915523	-0.354904	1.120422
C170	C	0.921643	-0.414224	1.110566
C171	C	0.870612	-0.450596	1.148729
C172	C	0.813462	-0.427648	1.196747
C173	C	0.807340	-0.368325	1.206604
C174	C	0.858371	-0.331953	1.168442
H175	H	0.963951	-0.431214	1.075019
H176	H	0.875144	-0.494511	1.141432
H177	H	0.775686	-0.454573	1.224997
H178	H	0.765032	-0.351334	1.242152
H179	H	0.853839	-0.288038	1.175739
H180	H	0.920762	-0.489692	0.295934
C181	C	0.893510	-0.370593	0.633915
C182	C	0.813387	-0.363984	0.640572
C183	C	0.765752	-0.397906	0.598169
C184	C	0.798239	-0.438438	0.549108
C185	C	0.878366	-0.445048	0.542449
C186	C	0.926001	-0.411126	0.584852
H187	H	0.789335	-0.333979	0.676892
H188	H	0.706436	-0.393013	0.603099
H189	H	0.762976	-0.463549	0.517719
H190	H	0.902418	-0.475053	0.506129
H191	H	0.985317	-0.416019	0.579922
H192	H	1.076431	-0.598887	0.465738
C193	C	0.592504	-0.208968	0.269437
C194	C	0.540905	-0.167214	0.297786
C195	C	0.502739	-0.127554	0.246854
C196	C	0.516172	-0.129649	0.167572
C197	C	0.567773	-0.171405	0.139219
C198	C	0.605939	-0.211064	0.190152
H199	H	0.530959	-0.165661	0.356479
H200	H	0.464541	-0.096644	0.267843
H201	H	0.487919	-0.100291	0.129869
H202	H	0.577719	-0.172957	0.080526
H203	H	0.644138	-0.241974	0.169162
C204	C	0.746264	-0.214060	0.275972
C205	C	0.735987	-0.154475	0.281425
C206	C	0.778364	-0.117479	0.233920
C207	C	0.831017	-0.140068	0.180961
C208	C	0.841297	-0.199656	0.175506
C209	C	0.798920	-0.236652	0.223011
H210	H	0.697008	-0.137750	0.320630
H211	H	0.770754	-0.073368	0.237958
H212	H	0.862387	-0.112682	0.145795
H213	H	0.880276	-0.216381	0.136301
H214	H	0.806529	-0.280763	0.218973
H215	H	0.934423	-0.341441	0.977674
H216	H	1.076598	-1.002191	0.465835
H217	H	1.057080	-0.254095	0.871307
H218	H	0.877982	-0.837124	0.249258
H219	H	1.119386	-0.753808	0.512554
H220	H	0.728303	-0.350100	0.450670
H221	H	0.877940	-0.738073	0.249242
H222	H	0.595480	-0.345698	0.445030
H223	H	0.269705	-0.241408	0.311118
H224	H	1.068680	-0.245869	0.651967
H225	H	0.402528	-0.245810	0.316755
