data_functionalizedCrystal
_audit_creation_method	'MofGen! by Chris Wilmer'
_symmetry_space_group_name_H-M	'P1'
_symmetry_Int_Tables_number	1
_symmetry_cell_setting	triclinic
loop_
_symmetry_equiv_pos_as_xyz
  x,y,z
_cell_length_a	17.699103
_cell_length_b	17.699097
_cell_length_c	16.776229
_cell_angle_alpha	89.989262
_cell_angle_beta	89.988386
_cell_angle_gamma	83.289745
loop_
_atom_site_label
_atom_site_type_symbol
_atom_site_fract_x
_atom_site_fract_y
_atom_site_fract_z
O1	O	0.095760	1.004079	-0.066363
O2	O	0.595760	1.504079	0.433637
O3	O	0.108202	0.783703	-0.066351
O4	O	0.608202	1.283703	0.433649
O5	O	-0.008207	0.900109	-0.066342
O6	O	0.491793	1.400109	0.433658
O7	O	0.212169	0.887672	-0.066372
O8	O	0.712169	1.387672	0.433628
O9	O	-0.008214	0.900094	0.066234
O10	O	0.491786	1.400094	0.566234
O11	O	0.108195	0.783687	0.066225
O12	O	0.608195	1.283687	0.566225
O13	O	0.095753	1.004064	0.066213
O14	O	0.595753	1.504064	0.566213
Zn15	Zn	0.101973	0.893873	0.087269
Zn16	Zn	0.601973	1.393873	0.587269
Zn17	Zn	0.101982	0.893893	-0.087407
Zn18	Zn	0.601982	1.393893	0.412593
O19	O	0.212162	0.887657	0.066204
O20	O	0.712162	1.387657	0.566204
C21	C	0.107751	0.755498	-0.000061
C22	C	0.607751	1.255498	0.499939
C23	C	0.106408	0.671481	-0.000056
C24	C	0.606408	1.171481	0.499944
C25	C	-0.036407	0.899653	-0.000052
C26	C	0.463593	1.399653	0.499948
C27	C	-0.120425	0.898309	-0.000045
C28	C	0.379575	1.398309	0.499955
C29	C	0.098183	0.155770	-0.072355
C30	C	0.598183	0.655770	0.427645
C31	C	0.099439	0.234714	-0.072351
C32	C	0.599439	0.734714	0.427649
C33	C	0.100064	0.274172	-0.000080
C34	C	0.600064	0.774172	0.499920
C35	C	0.099426	0.234682	0.072191
C36	C	0.599426	0.734682	0.572191
C37	C	0.098164	0.155740	0.072187
C38	C	0.598164	0.655740	0.572187
C39	C	0.104513	0.553047	0.072212
C40	C	0.604513	1.053047	0.572212
C41	C	0.105777	0.631994	0.072211
C42	C	0.605777	1.131994	0.572211
C43	C	0.105788	0.632021	-0.072326
C44	C	0.605788	1.132021	0.427674
C45	C	0.104526	0.553079	-0.072331
C46	C	0.604526	1.053079	0.427669
C47	C	0.103884	0.513597	-0.000060
C48	C	0.603884	1.013597	0.499940
C49	C	0.102520	0.427997	-0.000065
C50	C	0.602520	0.927997	0.499935
C51	C	0.101434	0.359770	-0.000074
C52	C	0.601434	0.859770	0.499926
C53	C	-0.636133	0.890093	-0.072364
C54	C	-0.136133	1.390093	0.427636
C55	C	-0.557189	0.891355	-0.072357
C56	C	-0.057189	1.391355	0.427643
C57	C	-0.517735	0.891977	-0.000085
C58	C	-0.017735	1.391977	0.499915
C59	C	-0.557229	0.891343	0.072185
C60	C	-0.057229	1.391343	0.572185
C61	C	-0.636171	0.890086	0.072177
C62	C	-0.136171	1.390086	0.572177
C63	C	-0.238862	0.896413	0.072218
C64	C	0.261138	1.396413	0.572218
C65	C	-0.159914	0.897668	0.072220
C66	C	0.340086	1.397668	0.572220
C67	C	-0.159880	0.897682	-0.072316
C68	C	0.340120	1.397682	0.427684
C69	C	-0.238823	0.896425	-0.072324
C70	C	0.261177	1.396425	0.427676
C71	C	-0.278310	0.895796	-0.000055
C72	C	0.221690	1.395796	0.499945
C73	C	-0.363910	0.894429	-0.000063
C74	C	0.136090	1.394429	0.499937
C75	C	-0.432136	0.893339	-0.000076
C76	C	0.067864	1.393339	0.499924
C77	C	0.240362	0.888113	-0.000088
C78	C	0.740362	1.388113	0.499912
C79	C	0.324379	0.889457	-0.000100
C80	C	0.824379	1.389457	0.499900
N81	N	0.101966	0.893865	0.206480
N82	N	0.601966	1.393865	0.706480
C83	C	0.096204	1.032268	-0.000078
C84	C	0.596204	1.532268	0.499922
C85	C	0.097546	1.116286	-0.000089
C86	C	0.597546	1.616286	0.499911
N87	N	0.101983	0.893908	-0.206618
N88	N	0.601983	1.393908	0.293382
C89	C	0.050441	0.945425	0.248201
C90	C	0.550441	1.445425	0.748201
C91	C	0.050440	0.945429	0.331653
C92	C	0.550440	1.445429	0.831653
C93	C	0.101969	0.893876	0.373383
C94	C	0.601969	1.393876	0.873383
C95	C	0.153496	0.842310	0.331656
C96	C	0.653496	1.342310	0.831656
C97	C	0.153492	0.842303	0.248205
C98	C	0.653492	1.342303	0.748205
C99	C	0.153511	0.842338	0.668203
C100	C	0.653511	1.342338	1.168203
C101	C	0.153512	0.842350	0.751660
C102	C	0.653512	1.342350	1.251660
C103	C	0.050459	0.945464	0.751651
C104	C	0.550459	1.445464	1.251651
C105	C	0.050455	0.945457	0.668200
C106	C	0.550455	1.445457	1.168200
C107	C	0.101979	0.893888	0.626481
C108	C	0.601979	1.393888	1.126481
C109	C	0.101978	0.893884	0.535992
C110	C	0.601978	1.393884	1.035992
C111	C	0.101974	0.893884	0.463870
C112	C	0.601974	1.393884	0.963870
H113	H	0.099952	0.266860	-0.131197
H114	H	0.599952	0.766860	0.368803
H115	H	-0.525099	0.891854	0.131030
H116	H	-0.025099	1.391854	0.631030
H117	H	-0.525042	0.891875	-0.131202
H118	H	-0.025042	1.391875	0.368798
O119	O	0.000295	0.995519	0.792093
O120	O	0.500295	1.495519	1.292093
C121	C	-0.074613	0.983338	0.771735
C122	C	0.425387	1.483338	1.271735
H123	H	-0.074484	0.954162	0.711151
H124	H	0.425516	1.454162	1.211151
H125	H	-0.111956	1.040293	0.768873
H126	H	0.388044	1.540293	1.268873
H127	H	-0.097973	0.945711	0.818716
H128	H	0.402027	1.445711	1.318716
H129	H	0.008485	0.987413	0.365622
H130	H	0.508485	1.487413	0.865622
H131	H	0.103979	0.520911	0.131059
H132	H	0.603979	1.020911	0.631059
H133	H	-0.127791	0.898170	0.131076
H134	H	0.372209	1.398170	0.631076
O135	O	0.203441	0.792144	0.207639
O136	O	0.703441	1.292144	0.707639
C137	C	0.162960	0.745537	0.159379
C138	C	0.662960	1.245537	0.659379
H139	H	0.103274	0.744371	0.184545
H140	H	0.603274	1.244371	0.684545
H141	H	0.193912	0.685325	0.158442
H142	H	0.693912	1.185325	0.658442
H143	H	0.158962	0.769224	0.096127
H144	H	0.658962	1.269224	0.596127
O145	O	0.103886	0.514872	-0.142606
O146	O	0.603886	1.014872	0.357394
C147	C	0.104735	0.566649	-0.206391
C148	C	0.604735	1.066649	0.293609
H149	H	0.081683	0.626093	-0.185199
H150	H	0.581683	1.126093	0.314801
H151	H	0.067641	0.548721	-0.256930
H152	H	0.567641	1.048721	0.243070
H153	H	0.165565	0.567001	-0.228622
H154	H	0.665565	1.067001	0.271378
H155	H	-0.271003	0.895902	0.131064
H156	H	0.228997	1.395902	0.631064
H157	H	0.106308	0.664177	-0.131173
H158	H	0.606308	1.164177	0.368827
H159	H	-0.270942	0.895916	-0.131176
H160	H	0.229058	1.395916	0.368824
H161	H	-0.127720	0.898197	-0.131162
H162	H	0.372280	1.398197	0.368838
H163	H	-0.668321	0.889568	0.131022
H164	H	-0.168321	1.389568	0.631022
H165	H	0.195474	0.800367	0.785634
H166	H	0.695474	1.300367	1.285634
H167	H	0.099930	0.266816	0.131035
H168	H	0.599930	0.766816	0.631035
O169	O	0.097583	0.117495	0.142457
O170	O	0.597583	0.617495	0.642457
C171	C	0.098387	0.169249	0.206247
C172	C	0.598387	0.669249	0.706247
H173	H	0.123242	0.222350	0.185062
H174	H	0.623242	0.722350	0.685062
H175	H	0.134747	0.141558	0.256788
H176	H	0.634747	0.641558	0.756788
H177	H	0.037823	0.185689	0.228474
H178	H	0.537823	0.685689	0.728474
H179	H	0.008484	0.987409	0.214230
H180	H	0.508484	1.487409	0.714230
H181	H	0.008499	0.987438	0.634227
H182	H	0.508499	1.487438	1.134227
H183	H	0.195465	0.800350	0.634241
H184	H	0.695465	1.300350	1.134241
O185	O	0.203522	0.792304	0.372313
O186	O	0.703522	1.292304	0.872313
C187	C	0.192467	0.803354	0.454916
C188	C	0.692467	1.303354	0.954916
H189	H	0.164108	0.863577	0.466303
H190	H	0.664108	1.363577	0.966303
H191	H	0.249798	0.794833	0.486617
H192	H	0.749798	1.294833	0.986617
H193	H	0.154559	0.760589	0.478623
H194	H	0.654559	1.260589	0.978623
O195	O	-0.674477	0.889350	-0.142547
O196	O	-0.174477	1.389350	0.357453
C197	C	-0.711469	0.823108	-0.146856
C198	C	-0.211469	1.323108	0.353144
H199	H	-0.681615	0.777688	-0.105841
H200	H	-0.181615	1.277688	0.394159
H201	H	-0.709439	0.801105	-0.210772
H202	H	-0.209439	1.301105	0.289228
H203	H	-0.773265	0.836966	-0.127439
H204	H	-0.273265	1.336966	0.372561
O205	O	0.097547	0.117565	-0.142631
O206	O	0.597547	0.617565	0.357369
C207	C	0.098397	0.169345	-0.206413
C208	C	0.598397	0.669345	0.293587
H209	H	0.075341	0.228788	-0.185219
H210	H	0.575341	0.728788	0.314781
H211	H	0.061307	0.151417	-0.256957
H212	H	0.561307	0.651417	0.243043
H213	H	0.159228	0.169701	-0.228640
H214	H	0.659228	0.669701	0.271360
H215	H	0.106286	0.664118	0.131066
H216	H	0.606286	1.164118	0.631066
