data_functionalizedCrystal
_audit_creation_method	'MofGen! by Chris Wilmer'
_symmetry_space_group_name_H-M	'P1'
_symmetry_Int_Tables_number	1
_symmetry_cell_setting	triclinic
loop_
_symmetry_equiv_pos_as_xyz
  x,y,z
_cell_length_a	13.033293
_cell_length_b	21.295417
_cell_length_c	13.032268
_cell_angle_alpha	97.141788
_cell_angle_beta	89.079182
_cell_angle_gamma	97.198682
loop_
_atom_site_label
_atom_site_type_symbol
_atom_site_fract_x
_atom_site_fract_y
_atom_site_fract_z
Zn1	Zn	1.498398	-0.195847	-0.781445
Zn2	Zn	1.998398	0.304153	-0.281445
Zn3	Zn	1.520112	-0.286310	-0.609455
Zn4	Zn	2.020112	0.213690	-0.109455
Zn5	Zn	1.348260	-0.192522	-0.587621
Zn6	Zn	1.848260	0.307478	-0.087621
Zn7	Zn	1.326354	-0.312551	-0.759490
Zn8	Zn	1.826354	0.187449	-0.259490
O9	O	1.423281	-0.246808	-0.684503
O10	O	1.923281	0.253192	-0.184503
O11	O	1.645201	-0.198256	-0.776956
O12	O	2.145201	0.301744	-0.276956
O13	O	1.515570	-0.261495	-0.462652
O14	O	2.015570	0.238505	0.037348
O15	O	1.368256	-0.104872	-0.613383
O16	O	1.868256	0.395128	-0.113383
O17	O	1.661153	-0.264718	-0.650595
O18	O	2.161153	0.235282	-0.150595
O19	O	1.478563	-0.107314	-0.755785
O20	O	1.978563	0.392686	-0.255785
O21	O	1.389311	-0.192590	-0.446611
O22	O	1.889311	0.307410	0.053389
O23	O	1.201432	-0.218036	-0.592094
O24	O	1.701432	0.281964	-0.092094
O25	O	1.330921	-0.309444	-0.906308
O26	O	1.830921	0.190556	-0.406308
O27	O	1.185338	-0.306220	-0.718365
O28	O	1.685338	0.193780	-0.218365
O29	O	1.457322	-0.223701	-0.922439
O30	O	1.957322	0.276299	-0.422439
O31	O	1.494329	-0.377882	-0.629306
O32	O	1.994329	0.122118	-0.129306
O33	O	1.351976	-0.397162	-0.739536
O34	O	1.851976	0.102838	-0.239536
C35	C	1.156068	-0.264615	-0.650479
C36	C	1.656068	0.235385	-0.150479
C37	C	1.041749	-0.272251	-0.635948
C38	C	1.541749	0.227749	-0.135948
C39	C	0.982877	-0.242838	-0.692086
C40	C	1.482877	0.257162	-0.192086
C41	C	0.864723	-0.250729	-0.677069
C42	C	1.364723	0.249271	-0.177069
C43	C	1.423156	-0.410363	-0.684434
C44	C	1.923156	0.089637	-0.184434
C45	C	1.423193	-0.480330	-0.684451
C46	C	1.923193	0.019670	-0.184451
C47	C	1.480586	-0.514418	-0.758642
C48	C	1.980586	-0.014418	-0.258642
C49	C	1.480619	-0.580160	-0.758672
C50	C	1.980619	-0.080160	-0.258672
C51	C	1.423272	-0.611810	-0.684494
C52	C	1.923272	-0.111810	-0.184494
C53	C	1.365867	-0.577715	-0.610297
C54	C	1.865867	-0.077715	-0.110297
C55	C	1.365828	-0.511975	-0.610276
C56	C	1.865828	-0.011975	-0.110276
N57	N	1.426941	-0.707836	-0.593510
N58	N	1.926941	-0.207836	-0.093510
N59	N	1.426984	-0.770286	-0.593534
N60	N	1.926984	-0.270286	-0.093534
C61	C	1.423386	-0.809880	-0.684556
C62	C	1.923386	-0.309880	-0.184556
N63	N	1.419763	-0.784665	-0.775557
N64	N	1.919763	-0.284665	-0.275557
N65	N	1.419726	-0.722208	-0.775532
N66	N	1.919726	-0.222208	-0.275532
C67	C	1.423308	-0.683094	-0.684509
C68	C	1.923308	-0.183094	-0.184509
C69	C	1.480818	-0.915254	-0.758785
C70	C	1.980818	-0.415254	-0.258785
C71	C	1.480844	-0.980998	-0.758816
C72	C	1.980844	-0.480998	-0.258816
C73	C	1.366099	-0.978550	-0.610433
C74	C	1.866099	-0.478550	-0.110433
C75	C	1.366066	-0.912808	-0.610410
C76	C	1.866066	-0.412808	-0.110410
C77	C	1.423432	-0.881164	-0.684586
C78	C	1.923432	-0.381164	-0.184586
C79	C	1.691538	-0.228931	-0.718660
C80	C	2.191538	0.271069	-0.218660
C81	C	1.805853	-0.221313	-0.733216
C82	C	2.305853	0.278687	-0.233216
C83	C	1.389256	-0.269871	-0.952730
C84	C	1.889256	0.230129	-0.452730
C85	C	1.374756	-0.279699	-1.067032
C86	C	1.874756	0.220301	-0.567032
C87	C	1.423431	-0.082613	-0.684598
C88	C	1.923431	0.417387	-0.184598
C89	C	1.423495	-0.012643	-0.684638
C90	C	1.923495	0.487357	-0.184638
C91	C	1.430832	-0.241657	-1.125973
C92	C	1.930832	0.258343	-0.625973
C93	C	1.415848	-0.251814	-1.244111
C94	C	1.915848	0.248186	-0.744111
C95	C	1.457233	-0.223785	-0.417326
C96	C	1.957233	0.276215	0.082674
C97	C	1.471932	-0.213766	-0.303050
C98	C	1.971932	0.286234	0.196950
H99	H	0.842917	-0.190283	-0.792396
H100	H	1.342917	0.309717	-0.292396
O101	O	1.296465	-0.332801	-1.116034
O102	O	1.796465	0.167199	-0.616034
H103	H	1.218345	-0.325624	-1.085209
H104	H	1.718345	0.174376	-0.585209
H105	H	1.004680	-0.303273	-0.576765
H106	H	1.504680	0.196727	-0.076765
O107	O	1.304169	-0.876039	-0.530380
O108	O	1.804169	-0.376039	-0.030380
H109	H	1.313769	-0.825010	-0.542831
H110	H	1.813769	-0.325010	-0.042831
H111	H	1.356735	-0.291901	-1.281105
H112	H	1.856735	0.208099	-0.781105
H113	H	1.019948	-0.211813	-0.751263
H114	H	1.519948	0.288187	-0.251263
O115	O	0.815637	-0.291822	-0.598663
O116	O	1.315637	0.208178	-0.098663
H117	H	0.833957	-0.341386	-0.618734
H118	H	1.333957	0.158614	-0.118734
O119	O	1.542475	-0.480282	-0.838625
O120	O	2.042475	0.019718	-0.338625
H121	H	1.582394	-0.515034	-0.890217
H122	H	2.082394	-0.015034	-0.390217
H123	H	1.527345	-0.607921	-0.819097
H124	H	2.027345	-0.107921	-0.319097
H125	H	1.319173	-0.603488	-0.549903
H126	H	1.819173	-0.103488	-0.049903
H127	H	1.489931	-0.201566	-1.088973
H128	H	1.989931	0.298434	-0.588973
O129	O	1.303939	-0.475200	-0.530241
O130	O	1.803939	0.024800	-0.030241
H131	H	1.264072	-0.508249	-0.478658
H132	H	1.764072	-0.008249	0.021342
O133	O	1.550233	-0.160660	-1.254063
O134	O	2.050233	0.339340	-0.754063
H135	H	1.549725	-0.161018	-1.168962
H136	H	2.049725	0.338982	-0.668962
H137	H	1.527579	-1.008751	-0.819235
H138	H	2.027579	-0.508751	-0.319235
O139	O	1.542681	-0.881116	-0.838786
O140	O	2.042681	-0.381116	-0.338786
H141	H	1.514741	-0.901833	-0.917233
H142	H	2.014741	-0.401833	-0.417233
O143	O	1.304249	-1.012675	-0.530418
O144	O	1.804249	-0.512675	-0.030418
H145	H	1.313923	-1.064114	-0.542891
H146	H	1.813923	-0.564114	-0.042891
