data_functionalizedCrystal
_audit_creation_method	'MofGen! by Chris Wilmer'
_symmetry_space_group_name_H-M	'P1'
_symmetry_Int_Tables_number	1
_symmetry_cell_setting	triclinic
loop_
_symmetry_equiv_pos_as_xyz
  x,y,z
_cell_length_a	18.101398
_cell_length_b	18.101395
_cell_length_c	18.101389
_cell_angle_alpha	90.016841
_cell_angle_beta	90.024802
_cell_angle_gamma	90.028835
loop_
_atom_site_label
_atom_site_type_symbol
_atom_site_fract_x
_atom_site_fract_y
_atom_site_fract_z
Zn1	Zn	1.132121	-0.294952	0.418856
Zn2	Zn	1.632121	0.205048	0.918856
Zn3	Zn	1.132017	-0.418778	0.295018
Zn4	Zn	1.632017	0.081222	0.795018
Zn5	Zn	1.008280	-0.294950	0.295016
Zn6	Zn	1.508280	0.205050	0.795016
Zn7	Zn	1.008231	-0.418751	0.418806
Zn8	Zn	1.508231	0.081249	0.918806
O9	O	1.070162	-0.356858	0.356924
O10	O	1.570162	0.143142	0.856924
O11	O	1.235740	-0.311390	0.402451
O12	O	1.735740	0.188610	0.902451
O13	O	1.115580	-0.402362	0.191385
O14	O	1.615580	0.097638	0.691385
O15	O	1.024772	-0.191317	0.311464
O16	O	1.524772	0.308683	0.811464
O17	O	1.235664	-0.402364	0.311467
O18	O	1.735664	0.097636	0.811467
O19	O	1.115757	-0.191319	0.402449
O20	O	1.615757	0.308681	0.902449
O21	O	1.024671	-0.311386	0.191384
O22	O	1.524671	0.188614	0.691384
O23	O	0.904641	-0.311360	0.311415
O24	O	1.404641	0.188640	0.811415
O25	O	1.024688	-0.402319	0.522445
O26	O	1.524688	0.097681	1.022445
O27	O	0.904604	-0.402317	0.402363
O28	O	1.404604	0.097683	0.902363
O29	O	1.115710	-0.311364	0.522482
O30	O	1.615710	0.188636	1.022482
O31	O	1.115532	-0.522407	0.311418
O32	O	1.615532	-0.022407	0.811418
O33	O	1.024587	-0.522388	0.402365
O34	O	1.524587	-0.022388	0.902365
C35	C	0.877752	-0.356836	0.356884
C36	C	1.377752	0.143164	0.856884
C37	C	0.795437	-0.356844	0.356884
C38	C	1.295437	0.143156	0.856884
C39	C	0.644729	-0.356860	0.356918
C40	C	1.144729	0.143140	0.856918
C41	C	0.613373	-0.299550	0.299791
C42	C	1.113373	0.200450	0.799791
C43	C	0.527755	-0.299335	0.299979
C44	C	1.027755	0.200665	0.799979
C45	C	0.496347	-0.356875	0.356949
C46	C	0.996347	0.143125	0.856949
C47	C	0.527486	-0.336055	0.435084
C48	C	1.027486	0.163945	0.935084
C49	C	0.613131	-0.335631	0.434735
C50	C	1.113131	0.164369	0.934735
C51	C	0.613125	-0.435137	0.336598
C52	C	1.113125	0.064863	0.836598
C53	C	0.527474	-0.434724	0.334895
C54	C	1.027474	0.065276	0.834895
C55	C	0.412487	-0.356884	0.356972
C56	C	0.912487	0.143116	0.856972
C57	C	0.728589	-0.356848	0.356900
C58	C	1.228589	0.143152	0.856900
C59	C	1.070063	-0.549268	0.356902
C60	C	1.570063	-0.049268	0.856902
C61	C	1.070088	-0.631582	0.356918
C62	C	1.570088	-0.131582	0.856918
C63	C	1.070251	-0.930673	0.356958
C64	C	1.570251	-0.430673	0.856958
C65	C	1.013163	-0.899367	0.414321
C66	C	1.513163	-0.399367	0.914321
C67	C	1.012892	-0.813749	0.414141
C68	C	1.512892	-0.313749	0.914141
C69	C	1.070170	-0.782291	0.356938
C70	C	1.570170	-0.282291	0.856938
C71	C	1.049041	-0.813427	0.278887
C72	C	1.549041	-0.313427	0.778887
C73	C	1.048673	-0.899072	0.279230
C74	C	1.548673	-0.399072	0.779230
C75	C	1.148593	-0.899024	0.376959
C76	C	1.648593	-0.399024	0.876959
C77	C	1.148132	-0.813373	0.378671
C78	C	1.648132	-0.313373	0.878671
C79	C	1.070126	-0.698431	0.356923
C80	C	1.570126	-0.198431	0.856923
C81	C	1.070293	-1.014533	0.356968
C82	C	1.570293	-0.514533	0.856968
C83	C	1.263324	-0.356880	0.356965
C84	C	1.763324	0.143120	0.856965
C85	C	1.345638	-0.356890	0.356982
C86	C	1.845638	0.143110	0.856982
C87	C	1.070205	-0.356839	0.550086
C88	C	1.570205	0.143161	1.050086
C89	C	1.070223	-0.356831	0.632400
C90	C	1.570223	0.143169	1.132400
C91	C	1.070282	-0.163696	0.356962
C92	C	1.570282	0.336304	0.856962
C93	C	1.070333	-0.081382	0.356978
C94	C	1.570333	0.418618	0.856978
C95	C	1.070162	-0.356823	0.164514
C96	C	1.570162	0.143177	0.664514
C97	C	1.070287	-0.356622	0.082200
C98	C	1.570287	0.143378	0.582200
C99	C	1.070266	-0.356692	0.931491
C100	C	1.570266	0.143308	1.431491
C101	C	1.012801	-0.413737	0.900143
C102	C	1.512801	0.086263	1.400143
C103	C	1.012956	-0.414001	0.814524
C104	C	1.512956	0.085999	1.314524
C105	C	1.070244	-0.356761	0.783109
C106	C	1.570244	0.143239	1.283109
C107	C	1.148270	-0.377948	0.814216
C108	C	1.648270	0.122052	1.314216
C109	C	1.147949	-0.378323	0.899861
C110	C	1.647949	0.121677	1.399861
C111	C	1.050385	-0.278334	0.899913
C112	C	1.550385	0.221666	1.399913
C113	C	1.048649	-0.278787	0.814262
C114	C	1.548649	0.221213	1.314262
C115	C	1.070237	-0.356799	0.699249
C116	C	1.570237	0.143201	1.199249
C117	C	1.070279	-0.356656	1.015351
C118	C	1.570279	0.143344	1.515351
H119	H	0.507118	-0.450428	0.277392
H120	H	1.007118	0.049572	0.777392
Cl121	Cl	1.217278	-0.780301	0.318873
Cl122	Cl	1.717278	-0.280301	0.818873
H123	H	1.026082	-0.472083	0.794044
H124	H	1.526082	0.027917	1.294044
H125	H	0.634921	-0.241876	0.313108
H126	H	1.134921	0.258124	0.813108
H127	H	1.164066	-0.793021	0.436113
H128	H	1.664066	-0.293021	0.936113
H129	H	1.191125	-0.919268	0.335180
H130	H	1.691125	-0.419268	0.835180
H131	H	0.633136	-0.278423	0.451910
H132	H	1.133136	0.221577	0.951910
Cl133	Cl	0.924056	-0.932703	0.394138
Cl134	Cl	1.424056	-0.432703	0.894138
Cl135	Cl	0.494417	-0.248708	0.462072
Cl136	Cl	0.994417	0.251292	0.962072
Cl137	Cl	0.645165	-0.397300	0.502724
Cl138	Cl	1.145165	0.102700	1.002724
Cl139	Cl	0.964066	-0.248533	0.933234
Cl140	Cl	1.464066	0.251467	1.433234
Cl141	Cl	0.646409	-0.464492	0.250098
Cl142	Cl	1.146409	0.035508	0.750098
H143	H	1.192236	-0.337705	0.793869
H144	H	1.692236	0.162295	1.293869
H145	H	0.954823	-0.793321	0.400891
H146	H	1.454823	-0.293321	0.900891
Cl147	Cl	0.496085	-0.398537	0.502622
Cl148	Cl	0.996085	0.101463	1.002622
H149	H	1.192217	-0.338578	0.920600
H150	H	1.692217	0.161422	1.420600
Cl151	Cl	0.959992	-0.254120	0.782880
Cl152	Cl	1.459992	0.245880	1.282880
H153	H	1.088449	-0.919783	0.235032
H154	H	1.588449	-0.419783	0.735032
Cl155	Cl	0.496158	-0.209789	0.320809
Cl156	Cl	0.996158	0.290211	0.820809
Cl157	Cl	1.111215	-0.781969	0.211096
Cl158	Cl	1.611215	-0.281969	0.711096
H159	H	0.506086	-0.479685	0.373442
H160	H	1.006086	0.020315	0.873442
Cl161	Cl	1.174744	-0.465446	0.781117
Cl162	Cl	1.674744	0.034554	1.281117
Cl163	Cl	1.108563	-0.209683	0.781258
Cl164	Cl	1.608563	0.290317	1.281258
H165	H	0.954768	-0.400614	0.920728
H166	H	1.454768	0.099386	1.420728
Cl167	Cl	1.115005	-0.212715	0.931215
Cl168	Cl	1.615005	0.287285	1.431215
H169	H	0.991406	-0.919110	0.262288
H170	H	1.491406	-0.419110	0.762288
Cl171	Cl	1.033365	-0.931111	0.503966
Cl172	Cl	1.533365	-0.431111	1.003966
H173	H	0.633399	-0.477831	0.378206
H174	H	1.133399	0.022169	0.878206
Cl175	Cl	1.033298	-0.781241	0.503495
Cl176	Cl	1.533298	-0.281241	1.003495
H177	H	0.992380	-0.792037	0.261641
H178	H	1.492380	-0.292037	0.761641
Cl179	Cl	0.495241	-0.319376	0.210543
Cl180	Cl	0.995241	0.180624	0.710543
H181	H	1.167856	-0.920583	0.432905
H182	H	1.667856	-0.420583	0.932905
H183	H	1.025796	-0.471464	0.921670
H184	H	1.525796	0.028536	1.421670
Cl185	Cl	0.645115	-0.319348	0.210062
Cl186	Cl	1.145115	0.180652	0.710062
H187	H	1.164804	-0.435604	0.919846
H188	H	1.664804	0.064396	1.419846
Cl189	Cl	0.923627	-0.393528	0.782047
Cl190	Cl	1.423627	0.106472	1.282047
