data_functionalizedCrystal
_audit_creation_method	'MofGen! by Chris Wilmer'
_symmetry_space_group_name_H-M	'P1'
_symmetry_Int_Tables_number	1
_symmetry_cell_setting	triclinic
loop_
_symmetry_equiv_pos_as_xyz
  x,y,z
_cell_length_a	11.792241
_cell_length_b	11.792253
_cell_length_c	11.295443
_cell_angle_alpha	85.417735
_cell_angle_beta	94.569101
_cell_angle_gamma	95.803993
loop_
_atom_site_label
_atom_site_type_symbol
_atom_site_fract_x
_atom_site_fract_y
_atom_site_fract_z
O1	O	1.513770	-0.162427	0.098927
O2	O	1.183432	-0.178462	0.098956
O3	O	1.356608	-0.005273	0.098916
O4	O	1.340594	-0.335616	0.098967
O5	O	1.342871	0.008467	-0.099137
O6	O	1.169694	-0.164722	-0.099097
O7	O	1.500032	-0.148687	-0.099127
Cu8	Cu	1.333609	-0.155450	-0.117196
Cu9	Cu	1.349855	-0.171699	0.117025
O10	O	1.326856	-0.321876	-0.099086
C11	C	1.134272	-0.170585	-0.000067
C12	C	1.008259	-0.167572	-0.000057
C13	C	1.348730	0.043888	-0.000114
C14	C	1.345709	0.169901	-0.000125
N15	N	1.322190	-0.144021	-0.281934
C16	C	0.777544	-0.162026	-0.000092
C17	C	0.905931	-0.165107	-0.000073
C18	C	1.549192	-0.156564	-0.000101
C19	C	1.675206	-0.159579	-0.000103
C20	C	1.343255	0.272238	-0.000131
C21	C	1.340186	0.400625	-0.000132
C22	C	1.334733	0.628965	-0.000078
C23	C	1.337749	0.502955	-0.000133
C24	C	1.240002	-0.061763	-0.468970
C25	C	1.248621	-0.070397	-0.344305
C26	C	1.387147	-0.209014	-0.344238
C27	C	1.378528	-0.200380	-0.468903
C28	C	1.304951	-0.126754	-0.531265
C29	C	1.296326	-0.118127	-0.655932
C30	C	1.434858	-0.256737	-0.655863
C31	C	1.443477	-0.265370	-0.531198
N32	N	1.361283	-0.183119	0.281764
H33	H	1.180083	-0.001824	-0.519746
Br34	Br	1.196469	-0.018213	-0.740566
Br35	Br	1.160477	0.017813	-0.259764
H36	H	1.447060	-0.268946	-0.293441
H37	H	1.503385	-0.325312	-0.480406
Br38	Br	1.523004	-0.344949	-0.740412
