data_functionalizedCrystal
_audit_creation_method	'MofGen! by Chris Wilmer'
_symmetry_space_group_name_H-M	'P1'
_symmetry_Int_Tables_number	1
_symmetry_cell_setting	triclinic
loop_
_symmetry_equiv_pos_as_xyz
  x,y,z
_cell_length_a	21.395362
_cell_length_b	12.594516
_cell_length_c	21.395355
_cell_angle_alpha	89.988593
_cell_angle_beta	89.956060
_cell_angle_gamma	90.031933
loop_
_atom_site_label
_atom_site_type_symbol
_atom_site_fract_x
_atom_site_fract_y
_atom_site_fract_z
Zn1	Zn	0.957923	-0.423414	-0.354617
Zn2	Zn	1.457923	0.076586	0.145383
Zn3	Zn	0.957853	-0.601379	-0.249852
Zn4	Zn	1.457853	-0.101379	0.250148
Zn5	Zn	0.853138	-0.423464	-0.249818
Zn6	Zn	1.353138	0.076536	0.250182
Zn7	Zn	0.853134	-0.601400	-0.354557
Zn8	Zn	1.353134	-0.101400	0.145443
O9	O	0.905512	-0.512414	-0.302211
O10	O	1.405512	-0.012414	0.197789
O11	O	1.045592	-0.446992	-0.340759
O12	O	1.545592	0.053008	0.159241
O13	O	0.943934	-0.577789	-0.162170
O14	O	1.443934	-0.077789	0.337830
O15	O	0.867069	-0.274511	-0.263730
O16	O	1.367069	0.225489	0.236270
O17	O	1.045540	-0.577741	-0.263789
O18	O	1.545540	-0.077741	0.236211
O19	O	0.944055	-0.274475	-0.340725
O20	O	1.444055	0.225525	0.159275
O21	O	0.867001	-0.447076	-0.162144
O22	O	1.367001	0.052924	0.337856
O23	O	0.765460	-0.447097	-0.263672
O24	O	1.265460	0.052903	0.236328
O25	O	0.867063	-0.577779	-0.442243
O26	O	1.367063	-0.077779	0.057757
O27	O	0.765457	-0.577827	-0.340624
O28	O	1.265457	-0.077827	0.159376
O29	O	0.944051	-0.447013	-0.442287
O30	O	1.444051	0.052987	0.057713
O31	O	0.943930	-0.750327	-0.263731
O32	O	1.443930	-0.250327	0.236269
O33	O	0.866994	-0.750343	-0.340657
O34	O	1.366994	-0.250343	0.159343
C35	C	0.742724	-0.512471	-0.302138
C36	C	1.242724	-0.012471	0.197862
C37	C	0.673083	-0.512520	-0.302122
C38	C	1.173083	-0.012520	0.197878
C39	C	0.905471	-0.788955	-0.302205
C40	C	1.405471	-0.288955	0.197795
C41	C	0.905511	-0.907261	-0.302223
C42	C	1.405511	-0.407261	0.197777
C43	C	0.640385	-0.580681	-0.342130
C44	C	1.140385	-0.080681	0.157870
C45	C	0.574949	-0.580655	-0.342158
C46	C	1.074949	-0.080655	0.157842
C47	C	0.542215	-0.512479	-0.302167
C48	C	1.042215	-0.012479	0.197833
C49	C	0.574921	-0.444305	-0.262155
C50	C	1.074921	0.055695	0.237845
C51	C	0.640355	-0.444326	-0.262133
C52	C	1.140355	0.055674	0.237867
C53	C	0.438489	-0.503905	-0.245761
C54	C	0.938489	-0.003905	0.254239
C55	C	0.373056	-0.503892	-0.245782
C56	C	0.873056	-0.003892	0.254218
C57	C	0.340394	-0.512410	-0.302236
C58	C	0.840394	-0.012410	0.197764
C59	C	0.373173	-0.520963	-0.358670
C60	C	0.873173	-0.020963	0.141330
C61	C	0.438608	-0.520984	-0.358648
C62	C	0.938608	-0.020984	0.141352
C63	C	0.471262	-0.512449	-0.302187
C64	C	0.971262	-0.012449	0.197813
C65	C	0.236743	-0.580546	-0.342278
C66	C	0.736743	-0.080546	0.157722
C67	C	0.171307	-0.580513	-0.342307
C68	C	0.671307	-0.080513	0.157693
C69	C	0.171280	-0.444168	-0.262298
C70	C	0.671280	0.055832	0.237702
C71	C	0.236715	-0.444196	-0.262275
C72	C	0.736715	0.055804	0.237725
C73	C	0.269443	-0.512391	-0.302264
C74	C	0.769443	-0.012391	0.197736
C75	C	0.863661	-0.976561	-0.344034
C76	C	1.363661	-0.476561	0.155966
C77	C	0.848392	-1.047409	-0.286856
C78	C	1.348392	-0.547409	0.213144
C79	C	0.920837	-1.047212	-0.359410
C80	C	1.420837	-0.547212	0.140590
C81	C	0.890211	-0.976550	-0.245015
C82	C	1.390211	-0.476550	0.254985
C83	C	0.962683	-0.976347	-0.317608
C84	C	1.462683	-0.476347	0.182392
C85	C	0.947436	-1.047163	-0.260391
C86	C	1.447436	-0.547163	0.239609
C87	C	1.068935	-0.512359	-0.302284
C88	C	1.568935	-0.012359	0.197716
C89	C	1.138577	-0.512335	-0.302315
C90	C	1.638577	-0.012335	0.197685
C91	C	0.905564	-0.512393	-0.465634
C92	C	1.405564	-0.012393	0.034366
C93	C	0.905586	-0.512384	-0.535275
C94	C	1.405586	-0.012384	-0.035275
C95	C	0.905570	-0.234793	-0.302231
C96	C	1.405570	0.265207	0.197769
C97	C	0.905595	-0.116488	-0.302239
C98	C	1.405595	0.383512	0.197761
C99	C	0.945672	-0.444291	-0.568012
C100	C	1.445672	0.055709	-0.068012
C101	C	0.945671	-0.444245	-0.633448
C102	C	1.445671	0.055755	-0.133448
C103	C	0.905591	-0.512311	-0.666144
C104	C	1.405591	-0.012311	-0.166144
C105	C	0.865497	-0.580408	-0.633399
C106	C	1.365497	-0.080408	-0.133399
C107	C	0.865495	-0.580445	-0.567965
C108	C	1.365495	-0.080445	-0.067965
C109	C	0.900630	-0.608151	-0.769815
C110	C	1.400630	-0.108151	-0.269815
C111	C	0.900636	-0.608116	-0.835248
C112	C	1.400636	-0.108116	-0.335248
C113	C	0.905595	-0.512199	-0.867965
C114	C	1.405595	-0.012199	-0.367965
C115	C	0.910560	-0.416312	-0.835241
C116	C	1.410560	0.083688	-0.335241
C117	C	0.910557	-0.416349	-0.769806
C118	C	1.410557	0.083651	-0.269806
C119	C	0.905589	-0.512279	-0.737096
C120	C	1.405589	-0.012279	-0.237096
C121	C	0.945682	-0.444051	-0.971654
C122	C	1.445682	0.055949	-0.471654
C123	C	0.945677	-0.444003	-1.037091
C124	C	1.445677	0.055997	-0.537091
C125	C	0.865506	-0.580176	-1.037041
C126	C	1.365506	-0.080176	-0.537041
C127	C	0.865508	-0.580214	-0.971605
C128	C	1.365508	-0.080214	-0.471605
C129	C	0.905599	-0.512153	-0.938916
C130	C	1.405599	-0.012153	-0.438916
C131	C	0.905496	-0.512359	-0.139423
C132	C	1.405496	-0.012359	0.360577
C133	C	0.905596	-0.512068	-0.069782
C134	C	1.405596	-0.012068	0.430218
H135	H	0.667028	-0.636209	-0.374694
H136	H	1.167028	-0.136209	0.125306
C137	C	0.821420	-0.655124	-0.935590
C138	C	1.321420	-0.155124	-0.435590
H139	H	0.827155	-0.645392	-0.891938
H140	H	1.327155	-0.145392	-0.391938
H141	H	0.830573	-0.726629	-0.946326
H142	H	1.330573	-0.226629	-0.446326
H143	H	0.779323	-0.639547	-0.946281
H144	H	1.279323	-0.139547	-0.446281
C145	C	0.995292	-1.088791	-0.212583
C146	C	1.495292	-0.588791	0.287417
H147	H	0.984332	-1.064466	-0.172002
H148	H	1.484332	-0.564466	0.327998
H149	H	1.035753	-1.063384	-0.223160
H150	H	1.535753	-0.563384	0.276840
H151	H	0.995303	-1.164216	-0.213086
H152	H	1.495303	-0.664216	0.286914
H153	H	0.465077	-0.496964	-0.199786
H154	H	0.965077	0.003036	0.300214
H155	H	0.896598	-0.686193	-0.861887
H156	H	1.396598	-0.186193	-0.361887
H157	H	0.144685	-0.636015	-0.374891
H158	H	0.644685	-0.136015	0.125109
H159	H	0.666978	-0.388818	-0.229553
H160	H	1.166978	0.111182	0.270447
C161	C	1.027942	-0.934186	-0.335193
C162	C	1.527942	-0.434186	0.164807
H163	H	1.038744	-0.958348	-0.375850
H164	H	1.538744	-0.458348	0.124150
H165	H	1.057789	-0.959436	-0.305904
H166	H	1.557789	-0.459436	0.194096
H167	H	1.027552	-0.858764	-0.334686
H168	H	1.527552	-0.358764	0.165314
H169	H	0.832862	-0.635825	-0.660024
H170	H	1.332862	-0.135825	-0.160024
C171	C	0.815770	-0.934669	-0.391728
C172	C	1.315770	-0.434669	0.108272
H173	H	0.775196	-0.959005	-0.380697
H174	H	1.275196	-0.459005	0.119303
H175	H	0.826228	-0.959901	-0.432243
H176	H	1.326228	-0.459901	0.067757
H177	H	0.816331	-0.859244	-0.391654
H178	H	1.316331	-0.359244	0.108346
C179	C	0.272750	-0.655540	-0.386270
C180	C	0.772750	-0.155540	0.113730
H181	H	0.316404	-0.645800	-0.380521
H182	H	0.816404	-0.145800	0.119479
H183	H	0.262081	-0.640060	-0.428386
H184	H	0.762081	-0.140060	0.071614
H185	H	0.261984	-0.727033	-0.377033
H186	H	0.761984	-0.227033	0.122967
C187	C	0.538916	-0.369314	-0.218165
C188	C	1.038916	0.130686	0.281835
H189	H	0.495262	-0.379070	-0.223904
H190	H	0.995262	0.120930	0.276096
H191	H	0.549680	-0.297826	-0.227402
H192	H	1.049680	0.202174	0.272598
H193	H	0.549587	-0.384793	-0.176046
H194	H	1.049587	0.115207	0.323954
C195	C	0.783128	-1.089579	-0.269282
C196	C	1.283128	-0.589579	0.230718
H197	H	0.753410	-1.065414	-0.299023
H198	H	1.253410	-0.565414	0.200977
H199	H	0.771982	-1.064346	-0.228950
H200	H	1.271982	-0.564346	0.271050
H201	H	0.783727	-1.165001	-0.269044
H202	H	1.283727	-0.665001	0.230956
C203	C	0.916422	-0.310860	-0.871220
C204	C	1.416422	0.189140	-0.371220
H205	H	0.915829	-0.324585	-0.914876
H206	H	1.415829	0.175415	-0.414876
H207	H	0.954672	-0.277286	-0.860370
H208	H	1.454672	0.222714	-0.360370
H209	H	0.882492	-0.265679	-0.860617
H210	H	1.382492	0.234321	-0.360617
C211	C	0.989763	-0.369418	-0.532055
C212	C	1.489763	0.130582	-0.032055
H213	H	0.984024	-0.379193	-0.488395
H214	H	1.484024	0.120807	0.011605
H215	H	0.980609	-0.297902	-0.542769
H216	H	1.480609	0.202098	-0.042769
H217	H	1.031860	-0.384982	-0.542809
H218	H	1.531860	0.115018	-0.042809
H219	H	0.548321	-0.636159	-0.374740
H220	H	1.048321	-0.136159	0.125260
C221	C	0.872663	-0.934801	-0.179675
C222	C	1.372663	-0.434801	0.320325
H223	H	0.872717	-0.859372	-0.180073
H224	H	1.372717	-0.359372	0.319927
H225	H	0.902232	-0.959537	-0.149955
H226	H	1.402232	-0.459537	0.350045
H227	H	0.832202	-0.959725	-0.168691
H228	H	1.332202	-0.459725	0.331309
H229	H	0.978323	-0.388625	-0.945037
H230	H	1.478323	0.111375	-0.445037
H231	H	0.933766	-1.078251	-0.407766
H232	H	1.433766	-0.578251	0.092234
H233	H	0.978319	-0.388548	-1.063744
H234	H	1.478319	0.111452	-0.563744
H235	H	0.832866	-0.635585	-1.063661
H236	H	1.332866	-0.135585	-0.563661
H237	H	0.896424	-0.686239	-0.743182
H238	H	1.396424	-0.186239	-0.243182
C239	C	0.135279	-0.369163	-0.218316
C240	C	0.635279	0.130837	0.281684
H241	H	0.091625	-0.378911	-0.224058
H242	H	0.591625	0.121089	0.275942
H243	H	0.146050	-0.297679	-0.227558
H244	H	0.646050	0.202321	0.272442
H245	H	0.145945	-0.384634	-0.176194
H246	H	0.645945	0.115366	0.323806
C247	C	0.989772	-0.369349	-0.669466
C248	C	1.489772	0.130651	-0.169466
H249	H	1.013651	-0.328826	-0.640626
H250	H	1.513651	0.171174	-0.140626
H251	H	0.965821	-0.322964	-0.694975
H252	H	1.465821	0.177036	-0.194975
H253	H	1.017063	-0.410061	-0.695011
H254	H	1.517063	0.089939	-0.195011
H255	H	0.914598	-0.338275	-0.743165
H256	H	1.414598	0.161725	-0.243165
H257	H	0.346372	-0.496933	-0.199830
H258	H	0.846372	0.003067	0.300170
H259	H	0.832849	-0.635892	-0.541311
H260	H	1.332849	-0.135892	-0.041311
H261	H	0.465294	-0.527945	-0.404598
H262	H	0.965294	-0.027945	0.095402
H263	H	0.263338	-0.388697	-0.229692
H264	H	0.763338	0.111303	0.270308
C265	C	0.337255	-0.530330	-0.420773
C266	C	0.837255	-0.030330	0.079227
H267	H	0.293590	-0.529080	-0.412707
H268	H	0.793590	-0.029080	0.087293
H269	H	0.347970	-0.595180	-0.440741
H270	H	0.847970	-0.095180	0.059259
H271	H	0.348037	-0.472491	-0.447179
H272	H	0.848037	0.027509	0.052821
