data_functionalizedCrystal
_audit_creation_method	'MofGen! by Chris Wilmer'
_symmetry_space_group_name_H-M	'P1'
_symmetry_Int_Tables_number	1
_symmetry_cell_setting	triclinic
loop_
_symmetry_equiv_pos_as_xyz
  x,y,z
_cell_length_a	29.839134
_cell_length_b	29.839131
_cell_length_c	29.839125
_cell_angle_alpha	90.013540
_cell_angle_beta	90.024313
_cell_angle_gamma	90.034448
loop_
_atom_site_label
_atom_site_type_symbol
_atom_site_fract_x
_atom_site_fract_y
_atom_site_fract_z
Zn1	Zn	0.686719	-0.179003	0.254166
Zn2	Zn	0.936719	0.070997	0.504166
Zn3	Zn	1.186719	0.320997	0.754166
Zn4	Zn	1.436719	0.570997	1.004166
Zn5	Zn	0.686651	-0.254115	0.179041
Zn6	Zn	0.936651	-0.004115	0.429041
Zn7	Zn	1.186651	0.245885	0.679041
Zn8	Zn	1.436651	0.495885	0.929041
Zn9	Zn	0.611602	-0.178991	0.179033
Zn10	Zn	0.861602	0.071009	0.429033
Zn11	Zn	1.111602	0.321009	0.679033
Zn12	Zn	1.361602	0.571009	0.929033
Zn13	Zn	0.611549	-0.254097	0.254127
Zn14	Zn	0.861549	-0.004097	0.504127
Zn15	Zn	1.111549	0.245903	0.754127
Zn16	Zn	1.361549	0.495903	1.004127
O17	O	0.649130	-0.216552	0.216592
O18	O	0.899130	0.033448	0.466592
O19	O	1.149130	0.283448	0.716592
O20	O	1.399130	0.533448	0.966592
O21	O	0.749577	-0.188980	0.244221
O22	O	0.999577	0.061020	0.494221
O23	O	1.249577	0.311020	0.744221
O24	O	1.499577	0.561020	0.994221
O25	O	0.676689	-0.244152	0.116173
O26	O	0.926689	0.005848	0.366173
O27	O	1.176689	0.255848	0.616173
O28	O	1.426689	0.505848	0.866173
O29	O	0.621617	-0.116125	0.189012
O30	O	0.871617	0.133875	0.439012
O31	O	1.121617	0.383875	0.689012
O32	O	1.371617	0.633875	0.939012
O33	O	0.749527	-0.244164	0.189027
O34	O	0.999527	0.005836	0.439027
O35	O	1.249527	0.255836	0.689027
O36	O	1.499527	0.505836	0.939027
O37	O	0.676805	-0.116134	0.244212
O38	O	0.926805	0.133866	0.494212
O39	O	1.176805	0.383866	0.744212
O40	O	1.426805	0.633866	0.994212
O41	O	0.621550	-0.188958	0.116167
O42	O	0.871550	0.061042	0.366167
O43	O	1.121550	0.311042	0.616167
O44	O	1.371550	0.561042	0.866167
O45	O	0.548727	-0.188941	0.188974
O46	O	0.798727	0.061059	0.438974
O47	O	1.048727	0.311059	0.688974
O48	O	1.298727	0.561059	0.938974
O49	O	0.621527	-0.244134	0.316999
O50	O	0.871527	0.005866	0.566999
O51	O	1.121527	0.255866	0.816999
O52	O	1.371527	0.505866	1.066999
O53	O	0.548689	-0.244122	0.244145
O54	O	0.798689	0.005878	0.494145
O55	O	1.048689	0.255878	0.744145
O56	O	1.298689	0.505878	0.994145
O57	O	0.676754	-0.188962	0.317028
O58	O	0.926754	0.061038	0.567028
O59	O	1.176754	0.311038	0.817028
O60	O	1.426754	0.561038	1.067028
O61	O	0.676638	-0.316980	0.188989
O62	O	0.926638	-0.066980	0.438989
O63	O	1.176638	0.183020	0.688989
O64	O	1.426638	0.433020	0.938989
O65	O	0.621461	-0.316967	0.244154
O66	O	0.871461	-0.066967	0.494154
O67	O	1.121461	0.183033	0.744154
O68	O	1.371461	0.433033	0.994154
C69	C	0.532407	-0.216528	0.216555
C70	C	0.782407	0.033472	0.466555
C71	C	1.032407	0.283472	0.716555
C72	C	1.282407	0.533472	0.966555
C73	C	0.482473	-0.216529	0.216549
C74	C	0.732473	0.033471	0.466549
C75	C	0.982473	0.283471	0.716549
C76	C	1.232473	0.533471	0.966549
C77	C	0.649048	-0.333274	0.216578
C78	C	0.899048	-0.083274	0.466578
C79	C	1.149048	0.166726	0.716578
C80	C	1.399048	0.416726	0.966578
C81	C	0.649054	-0.383209	0.216587
C82	C	0.899054	-0.133209	0.466587
C83	C	1.149054	0.116791	0.716587
C84	C	1.399054	0.366791	0.966587
C85	C	0.125893	-0.187777	0.187923
C86	C	0.375893	0.062223	0.437923
C87	C	0.625893	0.312223	0.687923
C88	C	0.875893	0.562223	0.937923
C89	C	0.313566	-0.187764	0.187895
C90	C	0.563566	0.062236	0.437895
C91	C	0.813566	0.312236	0.687895
C92	C	1.063566	0.562236	0.937895
O93	O	0.337838	-0.163279	0.163514
O94	O	0.587838	0.086721	0.413514
O95	O	0.837838	0.336721	0.663514
O96	O	1.087838	0.586721	0.913514
N97	N	0.337028	-0.216536	0.216572
N98	N	0.587028	0.033464	0.466572
N99	N	0.837028	0.283464	0.716572
N100	N	1.087028	0.533464	0.966572
C101	C	0.313568	-0.245312	0.245259
C102	C	0.563568	0.004688	0.495259
C103	C	0.813568	0.254688	0.745259
C104	C	1.063568	0.504688	0.995259
O105	O	0.337830	-0.269781	0.269653
O106	O	0.587830	-0.019781	0.519653
O107	O	0.837830	0.230219	0.769653
O108	O	1.087830	0.480219	1.019653
C109	C	0.125896	-0.245322	0.245289
C110	C	0.375896	0.004678	0.495289
C111	C	0.625896	0.254678	0.745289
C112	C	0.875896	0.504678	0.995289
C113	C	0.102437	-0.216551	0.216607
C114	C	0.352437	0.033449	0.466607
C115	C	0.602437	0.283449	0.716607
C116	C	0.852437	0.533449	0.966607
C117	C	0.102434	-0.159007	0.159244
C118	C	0.352434	0.090993	0.409244
C119	C	0.602434	0.340993	0.659244
C120	C	0.852434	0.590993	0.909244
C121	C	0.055519	-0.159013	0.159249
C122	C	0.305519	0.090987	0.409249
C123	C	0.555519	0.340987	0.659249
C124	C	0.805519	0.590987	0.909249
C125	C	0.032062	-0.187787	0.187933
C126	C	0.282062	0.062213	0.437933
C127	C	0.532062	0.312213	0.687933
C128	C	0.782062	0.562213	0.937933
C129	C	0.055521	-0.216556	0.216612
C130	C	0.305521	0.033444	0.466612
C131	C	0.555521	0.283444	0.716612
C132	C	0.805521	0.533444	0.966612
C133	C	0.102437	-0.274095	0.273978
C134	C	0.352437	-0.024095	0.523978
C135	C	0.602437	0.225905	0.773978
C136	C	0.852437	0.475905	1.023978
C137	C	0.055516	-0.274094	0.273984
C138	C	0.305516	-0.024094	0.523984
C139	C	0.555516	0.225906	0.773984
C140	C	0.805516	0.475906	1.023984
C141	C	0.032057	-0.245323	0.245302
C142	C	0.282057	0.004677	0.495302
C143	C	0.532057	0.254677	0.745302
C144	C	0.782057	0.504677	0.995302
C145	C	-0.014851	-0.245336	0.245302
C146	C	0.235149	0.004664	0.495302
C147	C	0.485149	0.254664	0.745302
C148	C	0.735149	0.504664	0.995302
N149	N	-0.038312	-0.216563	0.216625
N150	N	0.211688	0.033437	0.466625
N151	N	0.461688	0.283437	0.716625
N152	N	0.711688	0.533437	0.966625
C153	C	-0.014855	-0.187789	0.187941
C154	C	0.235145	0.062211	0.437941
C155	C	0.485145	0.312211	0.687941
C156	C	0.735145	0.562211	0.937941
C157	C	0.412099	-0.245305	0.245241
C158	C	0.662099	0.004695	0.495241
C159	C	0.912099	0.254695	0.745241
C160	C	1.162099	0.504695	0.995241
C161	C	0.459016	-0.245303	0.245234
C162	C	0.709016	0.004697	0.495234
C163	C	0.959016	0.254697	0.745234
C164	C	1.209016	0.504697	0.995234
C165	C	0.459012	-0.187755	0.187870
C166	C	0.709012	0.062245	0.437870
C167	C	0.959012	0.312245	0.687870
C168	C	1.209012	0.562245	0.937870
C169	C	0.412093	-0.187759	0.187876
C170	C	0.662093	0.062241	0.437876
C171	C	0.912093	0.312241	0.687876
C172	C	1.162093	0.562241	0.937876
C173	C	0.388637	-0.216533	0.216565
C174	C	0.638637	0.033467	0.466565
C175	C	0.888637	0.283467	0.716565
C176	C	1.138637	0.533467	0.966565
C177	C	-0.113381	-0.187802	0.187954
C178	C	0.136619	0.062198	0.437954
C179	C	0.386619	0.312198	0.687954
C180	C	0.636619	0.562198	0.937954
C181	C	-0.160301	-0.187811	0.187961
C182	C	0.089699	0.062189	0.437961
C183	C	0.339699	0.312189	0.687961
C184	C	0.589699	0.562189	0.937961
C185	C	-0.160292	-0.245358	0.245326
C186	C	0.089708	0.004642	0.495326
C187	C	0.339708	0.254642	0.745326
C188	C	0.589708	0.504642	0.995326
C189	C	-0.113376	-0.245351	0.245318
C190	C	0.136624	0.004649	0.495318
C191	C	0.386624	0.254649	0.745318
C192	C	0.636624	0.504649	0.995318
C193	C	-0.089922	-0.216569	0.216631
C194	C	0.160078	0.033431	0.466631
C195	C	0.410078	0.283431	0.716631
C196	C	0.660078	0.533431	0.966631
O197	O	-0.039151	-0.269804	0.269674
O198	O	0.210849	-0.019804	0.519674
O199	O	0.460849	0.230196	0.769674
O200	O	0.710849	0.480196	1.019674
O201	O	-0.039125	-0.163316	0.163558
O202	O	0.210875	0.086684	0.413558
O203	O	0.460875	0.336684	0.663558
O204	O	0.710875	0.586684	0.913558
C205	C	0.172809	-0.187771	0.187917
C206	C	0.422809	0.062229	0.437917
C207	C	0.672809	0.312229	0.687917
C208	C	0.922809	0.562229	0.937917
C209	C	0.196268	-0.216541	0.216596
C210	C	0.446268	0.033459	0.466596
C211	C	0.696268	0.283459	0.716596
C212	C	0.946268	0.533459	0.966596
C213	C	0.172811	-0.245315	0.245281
C214	C	0.422811	0.004685	0.495281
C215	C	0.672811	0.254685	0.745281
C216	C	0.922811	0.504685	0.995281
C217	C	0.243186	-0.216539	0.216588
C218	C	0.493186	0.033461	0.466588
C219	C	0.743186	0.283461	0.716588
C220	C	0.993186	0.533461	0.966588
C221	C	0.266642	-0.187764	0.187904
C222	C	0.516642	0.062236	0.437904
C223	C	0.766642	0.312236	0.687904
C224	C	1.016642	0.562236	0.937904
C225	C	0.243181	-0.158992	0.159227
C226	C	0.493181	0.091008	0.409227
C227	C	0.743181	0.341008	0.659227
C228	C	0.993181	0.591008	0.909227
C229	C	0.196265	-0.158997	0.159233
C230	C	0.446265	0.091003	0.409233
C231	C	0.696265	0.341003	0.659233
C232	C	0.946265	0.591003	0.909233
C233	C	0.196273	-0.274087	0.273957
C234	C	0.446273	-0.024087	0.523957
C235	C	0.696273	0.225913	0.773957
C236	C	0.946273	0.475913	1.023957
C237	C	0.243188	-0.274080	0.273949
C238	C	0.493188	-0.024080	0.523949
C239	C	0.743188	0.225920	0.773949
C240	C	0.993188	0.475920	1.023949
C241	C	0.266645	-0.245306	0.245265
C242	C	0.516645	0.004694	0.495265
C243	C	0.766645	0.254694	0.745265
C244	C	1.016645	0.504694	0.995265
C245	C	0.620418	-0.739805	0.245314
C246	C	0.870418	-0.489805	0.495314
C247	C	1.120418	-0.239805	0.745314
C248	C	1.370418	0.010195	0.995314
C249	C	0.620358	-0.552132	0.245300
C250	C	0.870358	-0.302132	0.495300
C251	C	1.120358	-0.052132	0.745300
C252	C	1.370358	0.197868	0.995300
O253	O	0.595913	-0.527875	0.269716
O254	O	0.845913	-0.277875	0.519716
O255	O	1.095913	-0.027875	0.769716
O256	O	1.345913	0.222125	1.019716
N257	N	0.649102	-0.528654	0.216600
N258	N	0.899102	-0.278654	0.466600
N259	N	1.149102	-0.028654	0.716600
N260	N	1.399102	0.221346	0.966600
C261	C	0.677864	-0.552097	0.187904
C262	C	0.927864	-0.302097	0.437904
C263	C	1.177864	-0.052097	0.687904
C264	C	1.427864	0.197903	0.937904
O265	O	0.702314	-0.527822	0.163497
O266	O	0.952314	-0.277822	0.413497
O267	O	1.202314	-0.027822	0.663497
O268	O	1.452314	0.222178	0.913497
C269	C	0.677926	-0.739769	0.187921
C270	C	0.927926	-0.489769	0.437921
C271	C	1.177926	-0.239769	0.687921
C272	C	1.427926	0.010231	0.937921
C273	C	0.649177	-0.763245	0.216619
C274	C	0.899177	-0.513245	0.466619
C275	C	1.149177	-0.263245	0.716619
C276	C	1.399177	-0.013245	0.966619
C277	C	0.591672	-0.763280	0.274010
C278	C	0.841672	-0.513280	0.524010
C279	C	1.091672	-0.263280	0.774010
C280	C	1.341672	-0.013280	1.024010
C281	C	0.591685	-0.810195	0.274012
C282	C	0.841685	-0.560195	0.524012
C283	C	1.091685	-0.310195	0.774012
C284	C	1.341685	-0.060195	1.024012
C285	C	0.620445	-0.833636	0.245317
C286	C	0.870445	-0.583636	0.495317
C287	C	1.120445	-0.333636	0.745317
C288	C	1.370445	-0.083636	0.995317
C289	C	0.649190	-0.810160	0.216621
C290	C	0.899190	-0.560160	0.466621
C291	C	1.149190	-0.310160	0.716621
C292	C	1.399190	-0.060160	0.966621
C293	C	0.706690	-0.763212	0.159228
C294	C	0.956690	-0.513212	0.409228
C295	C	1.206690	-0.263212	0.659228
C296	C	1.456690	-0.013212	0.909228
C297	C	0.706703	-0.810133	0.159235
C298	C	0.956703	-0.560133	0.409235
C299	C	1.206703	-0.310133	0.659235
C300	C	1.456703	-0.060133	0.909235
C301	C	0.677955	-0.833608	0.187933
C302	C	0.927955	-0.583608	0.437933
C303	C	1.177955	-0.333608	0.687933
C304	C	1.427955	-0.083608	0.937933
C305	C	0.677963	-0.880516	0.187928
C306	C	0.927963	-0.630516	0.437928
C307	C	1.177963	-0.380516	0.687928
C308	C	1.427963	-0.130516	0.937928
N309	N	0.649220	-0.903993	0.216627
N310	N	0.899220	-0.653993	0.466627
N311	N	1.149220	-0.403993	0.716627
N312	N	1.399220	-0.153993	0.966627
C313	C	0.620460	-0.880553	0.245322
C314	C	0.870460	-0.630553	0.495322
C315	C	1.120460	-0.380553	0.745322
C316	C	1.370460	-0.130553	0.995322
C317	C	0.677829	-0.453567	0.187897
C318	C	0.927829	-0.203567	0.437897
C319	C	1.177829	0.046433	0.687897
C320	C	1.427829	0.296433	0.937897
C321	C	0.677814	-0.406649	0.187892
C322	C	0.927814	-0.156649	0.437892
C323	C	1.177814	0.093351	0.687892
C324	C	1.427814	0.343351	0.937892
C325	C	0.620308	-0.406686	0.245289
C326	C	0.870308	-0.156686	0.495289
C327	C	1.120308	0.093314	0.745289
C328	C	1.370308	0.343314	0.995289
C329	C	0.620322	-0.453605	0.245291
C330	C	0.870322	-0.203605	0.495291
C331	C	1.120322	0.046395	0.745291
C332	C	1.370322	0.296395	0.995291
C333	C	0.649086	-0.477044	0.216597
C334	C	0.899086	-0.227044	0.466597
C335	C	1.149086	0.022956	0.716597
C336	C	1.399086	0.272956	0.966597
C337	C	0.620490	-0.979079	0.245323
C338	C	0.870490	-0.729079	0.495323
C339	C	1.120490	-0.479079	0.745323
C340	C	1.370490	-0.229079	0.995323
C341	C	0.620505	-1.025999	0.245320
C342	C	0.870505	-0.775999	0.495320
C343	C	1.120505	-0.525999	0.745320
C344	C	1.370505	-0.275999	0.995320
C345	C	0.678012	-1.025957	0.187926
C346	C	0.928012	-0.775957	0.437926
C347	C	1.178012	-0.525957	0.687926
C348	C	1.428012	-0.275957	0.937926
C349	C	0.677996	-0.979041	0.187926
C350	C	0.927996	-0.729041	0.437926
C351	C	1.177996	-0.479041	0.687926
C352	C	1.427996	-0.229041	0.937926
C353	C	0.649234	-0.955604	0.216628
C354	C	0.899234	-0.705604	0.466628
C355	C	1.149234	-0.455604	0.716628
C356	C	1.399234	-0.205604	0.966628
O357	O	0.702399	-0.904802	0.163528
O358	O	0.952399	-0.654802	0.413528
O359	O	1.202399	-0.404802	0.663528
O360	O	1.452399	-0.154802	0.913528
O361	O	0.596021	-0.904837	0.269733
O362	O	0.846021	-0.654837	0.519733
O363	O	1.096021	-0.404837	0.769733
O364	O	1.346021	-0.154837	1.019733
C365	C	0.620404	-0.692889	0.245313
C366	C	0.870404	-0.442889	0.495313
C367	C	1.120404	-0.192889	0.745313
C368	C	1.370404	0.057111	0.995313
C369	C	0.649150	-0.669414	0.216616
C370	C	0.899150	-0.419414	0.466616
C371	C	1.149150	-0.169414	0.716616
C372	C	1.399150	0.080586	0.966616
C373	C	0.677909	-0.692854	0.187922
C374	C	0.927909	-0.442854	0.437922
C375	C	1.177909	-0.192854	0.687922
C376	C	1.427909	0.057146	0.937922
C377	C	0.649134	-0.622496	0.216612
C378	C	0.899134	-0.372496	0.466612
C379	C	1.149134	-0.122496	0.716612
C380	C	1.399134	0.127504	0.966612
C381	C	0.620375	-0.599056	0.245306
C382	C	0.870375	-0.349056	0.495306
C383	C	1.120375	-0.099056	0.745306
C384	C	1.370375	0.150944	0.995306
C385	C	0.591632	-0.622534	0.274006
C386	C	0.841632	-0.372534	0.524006
C387	C	1.091632	-0.122534	0.774006
C388	C	1.341632	0.127466	1.024006
C389	C	0.591645	-0.669449	0.274007
C390	C	0.841645	-0.419449	0.524007
C391	C	1.091645	-0.169449	0.774007
C392	C	1.341645	0.080551	1.024007
C393	C	0.706653	-0.669376	0.159222
C394	C	0.956653	-0.419376	0.409222
C395	C	1.206653	-0.169376	0.659222
C396	C	1.456653	0.080624	0.909222
C397	C	0.706637	-0.622461	0.159222
C398	C	0.956637	-0.372461	0.409222
C399	C	1.206637	-0.122461	0.659222
C400	C	1.456637	0.127539	0.909222
C401	C	0.677877	-0.599020	0.187917
C402	C	0.927877	-0.349020	0.437917
C403	C	1.177877	-0.099020	0.687917
C404	C	1.427877	0.150980	0.937917
C405	C	0.766308	-0.216575	0.216629
C406	C	1.016308	0.033425	0.466629
C407	C	1.266308	0.283425	0.716629
C408	C	1.516308	0.533425	0.966629
C409	C	0.816243	-0.216586	0.216645
C410	C	1.066243	0.033414	0.466645
C411	C	1.316243	0.283414	0.716645
C412	C	1.566243	0.533414	0.966645
C413	C	0.649142	-0.216548	0.333770
C414	C	0.899142	0.033452	0.583770
C415	C	1.149142	0.283452	0.833770
C416	C	1.399142	0.533452	1.083770
C417	C	0.649147	-0.216546	0.383704
C418	C	0.899147	0.033454	0.633704
C419	C	1.149147	0.283454	0.883704
C420	C	1.399147	0.533454	1.133704
C421	C	0.649224	-0.099373	0.216615
C422	C	0.899224	0.150627	0.466615
C423	C	1.149224	0.400627	0.716615
C424	C	1.399224	0.650627	0.966615
C425	C	0.649264	-0.049439	0.216625
C426	C	0.899264	0.200561	0.466625
C427	C	1.149264	0.450561	0.716625
C428	C	1.399264	0.700561	0.966625
C429	C	0.649144	-0.216523	0.099869
C430	C	0.899144	0.033477	0.349869
C431	C	1.149144	0.283477	0.599869
C432	C	1.399144	0.533477	0.849869
C433	C	0.649226	-0.216398	0.049935
C434	C	0.899226	0.033602	0.299935
C435	C	1.149226	0.283602	0.549935
C436	C	1.399226	0.533602	0.799935
C437	C	0.677934	-0.187743	0.693366
C438	C	0.927934	0.062257	0.943366
C439	C	1.177934	0.312257	1.193366
C440	C	1.427934	0.562257	1.443366
C441	C	0.677956	-0.187705	0.881039
C442	C	0.927956	0.062295	1.131039
C443	C	1.177956	0.312295	1.381039
C444	C	1.427956	0.562295	1.631039
O445	O	0.702399	-0.163258	0.905319
O446	O	0.952399	0.086742	1.155319
O447	O	1.202399	0.336742	1.405319
O448	O	1.452399	0.586742	1.655319
N449	N	0.649207	-0.216426	0.904490
N450	N	0.899207	0.033574	1.154490
N451	N	1.149207	0.283574	1.404490
N452	N	1.399207	0.533574	1.654490
C453	C	0.620447	-0.245156	0.881019
C454	C	0.870447	0.004844	1.131019
C455	C	1.120447	0.254844	1.381019
C456	C	1.370447	0.504844	1.631019
O457	O	0.595991	-0.269581	0.905272
O458	O	0.845991	-0.019581	1.155272
O459	O	1.095991	0.230419	1.405272
O460	O	1.345991	0.480419	1.655272
C461	C	0.620423	-0.245192	0.693347
C462	C	0.870423	0.004808	0.943347
C463	C	1.120423	0.254808	1.193347
C464	C	1.370423	0.504808	1.443347
C465	C	0.649178	-0.216472	0.669899
C466	C	0.899178	0.033528	0.919899
C467	C	1.149178	0.283528	1.169899
C468	C	1.399178	0.533528	1.419899
C469	C	0.706686	-0.159025	0.669918
C470	C	0.956686	0.090975	0.919918
C471	C	1.206686	0.340975	1.169918
C472	C	1.456686	0.590975	1.419918
C473	C	0.706682	-0.159037	0.623002
C474	C	0.956682	0.090963	0.873002
C475	C	1.206682	0.340963	1.123002
C476	C	1.456682	0.590963	1.373002
C477	C	0.677926	-0.187766	0.599535
C478	C	0.927926	0.062234	0.849535
C479	C	1.177926	0.312234	1.099535
C480	C	1.427926	0.562234	1.349535
C481	C	0.649174	-0.216484	0.622983
C482	C	0.899174	0.033516	0.872983
C483	C	1.149174	0.283516	1.122983
C484	C	1.399174	0.533516	1.372983
C485	C	0.591662	-0.273920	0.669877
C486	C	0.841662	-0.023920	0.919877
C487	C	1.091662	0.226080	1.169877
C488	C	1.341662	0.476080	1.419877
C489	C	0.591658	-0.273925	0.622956
C490	C	0.841658	-0.023925	0.872956
C491	C	1.091658	0.226075	1.122956
C492	C	1.341658	0.476075	1.372956
C493	C	0.620412	-0.245206	0.599508
C494	C	0.870412	0.004794	0.849508
C495	C	1.120412	0.254794	1.099508
C496	C	1.370412	0.504794	1.349508
C497	C	0.620414	-0.245225	0.552601
C498	C	0.870414	0.004775	0.802601
C499	C	1.120414	0.254775	1.052601
C500	C	1.370414	0.504775	1.302601
N501	N	0.649163	-0.216504	0.529150
N502	N	0.899163	0.033496	0.779150
N503	N	1.149163	0.283496	1.029150
N504	N	1.399163	0.533496	1.279150
C505	C	0.677919	-0.187774	0.552617
C506	C	0.927919	0.062226	0.802617
C507	C	1.177919	0.312226	1.052617
C508	C	1.427919	0.562226	1.302617
C509	C	0.620463	-0.245136	0.979550
C510	C	0.870463	0.004864	1.229550
C511	C	1.120463	0.254864	1.479550
C512	C	1.370463	0.504864	1.729550
C513	C	0.620469	-0.245128	1.026468
C514	C	0.870469	0.004872	1.276468
C515	C	1.120469	0.254872	1.526468
C516	C	1.370469	0.504872	1.776468
C517	C	0.677978	-0.187675	1.026484
C518	C	0.927978	0.062325	1.276484
C519	C	1.177978	0.312325	1.526484
C520	C	1.427978	0.562325	1.776484
C521	C	0.677973	-0.187686	0.979566
C522	C	0.927973	0.062314	1.229566
C523	C	1.177973	0.312314	1.479566
C524	C	1.427973	0.562314	1.729566
C525	C	0.649212	-0.216415	0.956099
C526	C	0.899212	0.033585	1.206099
C527	C	1.149212	0.283585	1.456099
C528	C	1.399212	0.533585	1.706099
C529	C	0.677909	-0.187801	0.454091
C530	C	0.927909	0.062199	0.704091
C531	C	1.177909	0.312199	0.954091
C532	C	1.427909	0.562199	1.204091
C533	C	0.677903	-0.187817	0.407172
C534	C	0.927903	0.062183	0.657172
C535	C	1.177903	0.312183	0.907172
C536	C	1.427903	0.562183	1.157172
C537	C	0.620393	-0.245267	0.407159
C538	C	0.870393	0.004733	0.657159
C539	C	1.120393	0.254733	0.907159
C540	C	1.370393	0.504733	1.157159
C541	C	0.620400	-0.245253	0.454075
C542	C	0.870400	0.004747	0.704075
C543	C	1.120400	0.254747	0.954075
C544	C	1.370400	0.504747	1.204075
C545	C	0.649159	-0.216517	0.477540
C546	C	0.899159	0.033483	0.727540
C547	C	1.149159	0.283483	0.977540
C548	C	1.399159	0.533483	1.227540
O549	O	0.595981	-0.269655	0.528292
O550	O	0.845981	-0.019655	0.778292
O551	O	1.095981	0.230345	1.028292
O552	O	1.345981	0.480345	1.278292
O553	O	0.702365	-0.163346	0.528357
O554	O	0.952365	0.086654	0.778357
O555	O	1.202365	0.336654	1.028357
O556	O	1.452365	0.586654	1.278357
C557	C	0.677938	-0.187731	0.740282
C558	C	0.927938	0.062269	0.990282
C559	C	1.177938	0.312269	1.240282
C560	C	1.427938	0.562269	1.490282
C561	C	0.649186	-0.216449	0.763730
C562	C	0.899186	0.033551	1.013730
C563	C	1.149186	0.283551	1.263730
C564	C	1.399186	0.533551	1.513730
C565	C	0.620430	-0.245178	0.740263
C566	C	0.870430	0.004822	0.990263
C567	C	1.120430	0.254822	1.240263
C568	C	1.370430	0.504822	1.490263
C569	C	0.649193	-0.216441	0.810648
C570	C	0.899193	0.033559	1.060648
C571	C	1.149193	0.283559	1.310648
C572	C	1.399193	0.533559	1.560648
C573	C	0.677949	-0.187711	0.834115
C574	C	0.927949	0.062289	1.084115
C575	C	1.177949	0.312289	1.334115
C576	C	1.427949	0.562289	1.584115
C577	C	0.706699	-0.158990	0.810664
C578	C	0.956699	0.091010	1.060664
C579	C	1.206699	0.341010	1.310664
C580	C	1.456699	0.591010	1.560664
C581	C	0.706694	-0.159002	0.763749
C582	C	0.956694	0.090998	1.013749
C583	C	1.206694	0.340998	1.263749
C584	C	1.456694	0.590998	1.513749
C585	C	0.591680	-0.273899	0.763713
C586	C	0.841680	-0.023899	1.013713
C587	C	1.091680	0.226101	1.263713
C588	C	1.341680	0.476101	1.513713
C589	C	0.591687	-0.273886	0.810629
C590	C	0.841687	-0.023886	1.060629
C591	C	1.091687	0.226114	1.310629
C592	C	1.341687	0.476114	1.560629
C593	C	0.620443	-0.245156	0.834096
C594	C	0.870443	0.004844	1.084096
C595	C	1.120443	0.254844	1.334096
C596	C	1.370443	0.504844	1.584096
H597	H	-0.179399	-0.164382	0.164604
H598	H	0.070601	0.085618	0.414604
H599	H	0.320601	0.335618	0.664604
H600	H	0.570601	0.585618	0.914604
Br601	Br	0.716932	-0.148839	0.375352
Br602	Br	0.966932	0.101161	0.625352
Br603	Br	1.216932	0.351161	0.875352
Br604	Br	1.466932	0.601161	1.125352
H605	H	0.392996	-0.164329	0.164522
H606	H	0.642996	0.085671	0.414522
H607	H	0.892996	0.335671	0.664522
H608	H	1.142996	0.585671	0.914522
Br609	Br	0.581379	-0.284233	0.485898
Br610	Br	0.831379	-0.034233	0.735898
Br611	Br	1.081379	0.215767	0.985898
Br612	Br	1.331379	0.465767	1.235898
Br613	Br	0.552628	-0.701301	0.312958
Br614	Br	0.802628	-0.451301	0.562958
Br615	Br	1.052628	-0.201301	0.812958
Br616	Br	1.302628	0.048699	1.062958
Br617	Br	0.275024	-0.119943	0.120297
Br618	Br	0.525024	0.130057	0.370297
Br619	Br	0.775024	0.380057	0.620297
Br620	Br	1.025024	0.630057	0.870297
Br621	Br	0.716936	-0.148798	0.485929
Br622	Br	0.966936	0.101202	0.735929
Br623	Br	1.216936	0.351202	0.985929
Br624	Br	1.466936	0.601202	1.235929
H625	H	0.177179	-0.297519	0.297316
H626	H	0.427179	-0.047519	0.547316
H627	H	0.677179	0.202481	0.797316
H628	H	0.927179	0.452481	1.047316
Br629	Br	0.745727	-0.120003	0.842522
Br630	Br	0.995727	0.129997	1.092522
Br631	Br	1.245727	0.379997	1.342522
Br632	Br	1.495727	0.629997	1.592522
Br633	Br	0.581276	-0.374866	0.284230
Br634	Br	0.831276	-0.124866	0.534230
Br635	Br	1.081276	0.125134	0.784230
Br636	Br	1.331276	0.375134	1.034230
Br637	Br	0.552621	-0.312915	0.591112
Br638	Br	0.802621	-0.062915	0.841112
Br639	Br	1.052621	0.187085	1.091112
Br640	Br	1.302621	0.437085	1.341112
H641	H	0.596982	-0.268659	0.388044
H642	H	0.846982	-0.018659	0.638044
H643	H	1.096982	0.231341	0.888044
H644	H	1.346982	0.481341	1.138044
Br645	Br	0.581486	-1.057855	0.284270
Br646	Br	0.831486	-0.807855	0.534270
Br647	Br	1.081486	-0.557855	0.784270
Br648	Br	1.331486	-0.307855	1.034270
H649	H	0.262284	-0.297513	0.297304
H650	H	0.512284	-0.047513	0.547304
H651	H	0.762284	0.202487	0.797304
H652	H	1.012284	0.452487	1.047304
H653	H	-0.094290	-0.164363	0.164596
H654	H	0.155710	0.085637	0.414596
H655	H	0.405710	0.335637	0.664596
H656	H	0.655710	0.585637	0.914596
H657	H	0.478118	-0.164326	0.164514
H658	H	0.728118	0.085674	0.414514
H659	H	0.978118	0.335674	0.664514
H660	H	1.228118	0.585674	0.914514
H661	H	0.597070	-0.960001	0.268695
H662	H	0.847070	-0.710001	0.518695
H663	H	1.097070	-0.460001	0.768695
H664	H	1.347070	-0.210001	1.018695
H665	H	0.036423	-0.135584	0.135893
H666	H	0.286423	0.114416	0.385893
H667	H	0.536423	0.364416	0.635893
H668	H	0.786423	0.614416	0.885893
H669	H	0.568213	-0.603441	0.297369
H670	H	0.818213	-0.353441	0.547369
H671	H	1.068213	-0.103441	0.797369
H672	H	1.318213	0.146559	1.047369
H673	H	0.568275	-0.829305	0.297380
H674	H	0.818275	-0.579305	0.547380
H675	H	1.068275	-0.329305	0.797380
H676	H	1.318275	-0.079305	1.047380
H677	H	0.597059	-0.268519	1.045555
H678	H	0.847059	-0.018519	1.295555
H679	H	1.097059	0.231481	1.545555
H680	H	1.347059	0.481481	1.795555
H681	H	0.121528	-0.135573	0.135885
H682	H	0.371528	0.114427	0.385885
H683	H	0.621528	0.364427	0.635885
H684	H	0.871528	0.614427	0.885885
Br685	Br	0.745723	-0.120036	0.701757
Br686	Br	0.995723	0.129964	0.951757
Br687	Br	1.245723	0.379964	1.201757
Br688	Br	1.495723	0.629964	1.451757
Br689	Br	0.745706	-0.120055	0.591187
Br690	Br	0.995706	0.129945	0.841187
Br691	Br	1.245706	0.379945	1.091187
Br692	Br	1.495706	0.629945	1.341187
Br693	Br	-0.081538	-0.284403	0.284237
Br694	Br	0.168462	-0.034403	0.534237
Br695	Br	0.418462	0.215597	0.784237
Br696	Br	0.668462	0.465597	1.034237
Br697	Br	0.581305	-0.485460	0.284239
Br698	Br	0.831305	-0.235460	0.534239
Br699	Br	1.081305	0.014540	0.784239
Br700	Br	1.331305	0.264540	1.034239
H701	H	0.568253	-0.744199	0.297379
H702	H	0.818253	-0.494199	0.547379
H703	H	1.068253	-0.244199	0.797379
H704	H	1.318253	0.005801	1.047379
Br705	Br	0.164436	-0.119948	0.120306
Br706	Br	0.414436	0.130052	0.370306
Br707	Br	0.664436	0.380052	0.620306
Br708	Br	0.914436	0.630052	0.870306
Br709	Br	0.716999	-0.148708	0.947748
Br710	Br	0.966999	0.101292	1.197748
Br711	Br	1.216999	0.351292	1.447748
Br712	Br	1.466999	0.601292	1.697748
H713	H	0.701253	-0.472646	0.164529
H714	H	0.951253	-0.222646	0.414529
H715	H	1.201253	0.027354	0.664529
H716	H	1.451253	0.277354	0.914529
Br717	Br	0.716824	-0.374795	0.148936
Br718	Br	0.966824	-0.124795	0.398936
Br719	Br	1.216824	0.125205	0.648936
Br720	Br	1.466824	0.375205	0.898936
Br721	Br	0.717004	-0.148686	1.058342
Br722	Br	0.967004	0.101314	1.308342
Br723	Br	1.217004	0.351314	1.558342
Br724	Br	1.467004	0.601314	1.808342
H725	H	0.730100	-0.744105	0.135859
H726	H	0.980100	-0.494105	0.385859
H727	H	1.230100	-0.244105	0.635859
H728	H	1.480100	0.005895	0.885859
H729	H	-0.179399	-0.268787	0.268678
H730	H	0.070601	-0.018787	0.518678
H731	H	0.320601	0.231213	0.768678
H732	H	0.570601	0.481213	1.018678
H733	H	0.730128	-0.829215	0.135870
H734	H	0.980128	-0.579215	0.385870
H735	H	1.230128	-0.329215	0.635870
H736	H	1.480128	-0.079215	0.885870
H737	H	0.701401	-0.959927	0.164553
H738	H	0.951401	-0.709927	0.414553
H739	H	1.201401	-0.459927	0.664553
H740	H	1.451401	-0.209927	0.914553
Br741	Br	0.581426	-0.284129	0.947709
Br742	Br	0.831426	-0.034129	1.197709
Br743	Br	1.081426	0.215871	1.447709
Br744	Br	1.331426	0.465871	1.697709
Br745	Br	0.552638	-0.312902	0.701688
Br746	Br	0.802638	-0.062902	0.951688
Br747	Br	1.052638	0.187098	1.201688
Br748	Br	1.302638	0.437098	1.451688
H749	H	0.730109	-0.135615	0.744661
H750	H	0.980109	0.114385	0.994661
H751	H	1.230109	0.364385	1.244661
H752	H	1.480109	0.614385	1.494661
H753	H	0.568272	-0.297277	0.829716
H754	H	0.818272	-0.047277	1.079716
H755	H	1.068272	0.202723	1.329716
H756	H	1.318272	0.452723	1.579716
H757	H	0.036421	-0.297524	0.297348
H758	H	0.286421	-0.047524	0.547348
H759	H	0.536421	0.202476	0.797348
H760	H	0.786421	0.452476	1.047348
H761	H	0.701425	-1.045050	0.164562
H762	H	0.951425	-0.795050	0.414562
H763	H	1.201425	-0.545050	0.664562
H764	H	1.451425	-0.295050	0.914562
Br765	Br	0.490848	-0.284359	0.284152
Br766	Br	0.740848	-0.034359	0.534152
Br767	Br	0.990848	0.215641	0.784152
Br768	Br	1.240848	0.465641	1.034152
Br769	Br	0.380273	-0.284360	0.284179
Br770	Br	0.630273	-0.034360	0.534179
Br771	Br	0.880273	0.215640	0.784179
Br772	Br	1.130273	0.465640	1.034179
Br773	Br	0.745688	-0.701180	0.120276
Br774	Br	0.995688	-0.451180	0.370276
Br775	Br	1.245688	-0.201180	0.620276
Br776	Br	1.495688	0.048820	0.870276
H777	H	0.730046	-0.603350	0.135849
H778	H	0.980046	-0.353350	0.385849
H779	H	1.230046	-0.103350	0.635849
H780	H	1.480046	0.146650	0.885849
H781	H	0.121529	-0.297524	0.297334
H782	H	0.371529	-0.047524	0.547334
H783	H	0.621529	0.202476	0.797334
H784	H	0.871529	0.452476	1.047334
H785	H	0.568264	-0.297295	0.744611
H786	H	0.818264	-0.047295	0.994611
H787	H	1.068264	0.202705	1.244611
H788	H	1.318264	0.452705	1.494611
