data_functionalizedCrystal
_audit_creation_method	'MofGen! by Chris Wilmer'
_symmetry_space_group_name_H-M	'P1'
_symmetry_Int_Tables_number	1
_symmetry_cell_setting	triclinic
loop_
_symmetry_equiv_pos_as_xyz
  x,y,z
_cell_length_a	14.853558
_cell_length_b	19.188924
_cell_length_c	13.930277
_cell_angle_alpha	89.993371
_cell_angle_beta	89.993309
_cell_angle_gamma	83.386549
loop_
_atom_site_label
_atom_site_type_symbol
_atom_site_fract_x
_atom_site_fract_y
_atom_site_fract_z
O1	O	1.195864	0.091124	-0.079824
O2	O	1.695864	0.591124	0.420176
O3	O	0.933343	0.101990	-0.079829
O4	O	1.433343	0.601990	0.420171
O5	O	1.072182	-0.005074	-0.079815
O6	O	1.572182	0.494926	0.420185
O7	O	1.057024	0.198188	-0.079838
O8	O	1.557024	0.698188	0.420162
O9	O	1.072163	-0.005076	0.079847
O10	O	1.572163	0.494924	0.579847
O11	O	0.933323	0.101988	0.079833
O12	O	1.433323	0.601988	0.579833
O13	O	1.195845	0.091122	0.079838
O14	O	1.695845	0.591122	0.579838
Zn15	Zn	1.064581	0.096555	0.105185
Zn16	Zn	1.564581	0.596555	0.605185
Zn17	Zn	1.064606	0.096558	-0.105176
Zn18	Zn	1.564606	0.596558	0.394824
O19	O	1.057005	0.198186	0.079824
O20	O	1.557005	0.698186	0.579824
C21	C	0.899747	0.101498	0.000002
C22	C	1.399747	0.601498	0.500002
C23	C	0.799671	0.100026	0.000000
C24	C	1.299671	0.600026	0.500000
C25	C	0.752665	0.099337	-0.087035
C26	C	1.252665	0.599337	0.412965
C27	C	0.752643	0.099326	0.087034
C28	C	1.252643	0.599326	0.587034
C29	C	0.658617	0.097940	0.087036
C30	C	1.158617	0.597940	0.587036
C31	C	0.611611	0.097251	0.000001
C32	C	1.111611	0.597251	0.500001
C33	C	0.658631	0.097948	-0.087036
C34	C	1.158631	0.597948	0.412964
C35	C	0.611591	0.097235	0.174072
C36	C	1.111591	0.597235	0.674072
C37	C	0.517559	0.095847	0.174077
C38	C	1.017559	0.595847	0.674077
C39	C	0.470551	0.095163	0.087041
C40	C	0.970551	0.595163	0.587041
C41	C	0.517577	0.095862	0.000000
C42	C	1.017577	0.595862	0.500000
C43	C	0.470571	0.095173	-0.087035
C44	C	0.970571	0.595173	0.412965
C45	C	0.517594	0.095876	-0.174077
C46	C	1.017594	0.595876	0.325923
C47	C	0.611622	0.097264	-0.174072
C48	C	1.111622	0.597264	0.325928
C49	C	0.376522	0.093775	0.087036
C50	C	0.876522	0.593775	0.587036
C51	C	0.376536	0.093784	-0.087036
C52	C	0.876536	0.593784	0.412964
C53	C	1.071683	-0.031087	0.000017
C54	C	1.571683	0.468913	0.500017
C55	C	1.070212	-0.108597	0.000020
C56	C	1.570212	0.391403	0.500020
C57	C	1.069537	-0.144997	-0.087012
C58	C	1.569537	0.355003	0.412988
C59	C	1.068142	-0.217824	-0.087020
C60	C	1.568142	0.282176	0.412980
C61	C	1.067442	-0.254251	0.000010
C62	C	1.567442	0.245749	0.500010
C63	C	1.068113	-0.217842	0.087053
C64	C	1.568113	0.282158	0.587053
C65	C	1.069498	-0.145015	0.087058
C66	C	1.569498	0.354985	0.587058
N67	N	1.116562	-0.373752	0.064785
N68	N	1.616562	0.126248	0.564785
N69	N	1.115248	-0.442935	0.064774
N70	N	1.615248	0.057065	0.564774
C71	C	1.063266	-0.473674	0.000001
C72	C	1.563266	0.026326	0.500001
N73	N	1.012659	-0.432617	-0.064777
N74	N	1.512659	0.067383	0.435223
N75	N	1.013977	-0.363429	-0.064769
N76	N	1.513977	0.136571	0.435231
C77	C	1.065939	-0.333219	0.000014
C78	C	1.565939	0.166781	0.500014
C79	C	1.061077	-0.589041	-0.087045
C80	C	1.561077	-0.089041	0.412955
C81	C	1.059677	-0.661869	-0.087049
C82	C	1.559677	-0.161869	0.412951
C83	C	1.059656	-0.661886	0.087027
C84	C	1.559656	-0.161886	0.587027
C85	C	1.061047	-0.589058	0.087028
C86	C	1.561047	-0.089058	0.587028
C87	C	1.061762	-0.552641	-0.000011
C88	C	1.561762	-0.052641	0.499989
C89	C	1.229440	0.091614	0.000006
C90	C	1.729440	0.591614	0.500006
C91	C	1.329516	0.093086	0.000001
C92	C	1.829516	0.593086	0.500001
C93	C	1.057504	0.224200	-0.000010
C94	C	1.557504	0.724200	0.499990
C95	C	1.058975	0.301709	-0.000019
C96	C	1.558975	0.801709	0.499981
N97	N	1.064570	0.096552	0.248752
N98	N	1.564570	0.596552	0.748752
N99	N	1.064624	0.096555	-0.248742
N100	N	1.564624	0.596555	0.251258
C101	C	1.003126	0.143947	0.701015
C102	C	1.503126	0.643947	1.201015
C103	C	1.126112	0.049163	0.700996
C104	C	1.626112	0.549163	1.200996
C105	C	1.126101	0.049161	0.600501
C106	C	1.626101	0.549161	1.100501
C107	C	1.064603	0.096553	0.550257
C108	C	1.564603	0.596553	1.050257
C109	C	1.003115	0.143947	0.600510
C110	C	1.503115	0.643947	1.100510
C111	C	1.187594	0.001772	0.550241
C112	C	1.687594	0.501772	1.050241
C113	C	1.187586	0.001768	0.449739
C114	C	1.687586	0.501768	0.949739
C115	C	1.126083	0.049158	0.399494
C116	C	1.626083	0.549158	0.899494
C117	C	1.064592	0.096554	0.449752
C118	C	1.564592	0.596554	0.949752
C119	C	1.003094	0.143946	0.399509
C120	C	1.503094	0.643946	0.899509
C121	C	0.941598	0.191339	0.449766
C122	C	1.441598	0.691339	0.949766
C123	C	0.941612	0.191337	0.550264
C124	C	1.441612	0.691337	1.050264
C125	C	1.126069	0.049160	0.298995
C126	C	1.626069	0.549160	0.798995
C127	C	1.003083	0.143947	0.299004
C128	C	1.503083	0.643947	0.799004
H129	H	0.338239	0.093209	0.157904
H130	H	0.838239	0.593209	0.657904
H131	H	0.649871	0.097789	0.244931
H132	H	1.149871	0.597789	0.744931
H133	H	0.891529	0.229929	0.408846
H134	H	1.391529	0.729929	0.908846
O135	O	1.070285	-0.105714	-0.180885
O136	O	1.570285	0.394286	0.319115
H137	H	1.069568	-0.143264	-0.241405
H138	H	1.569568	0.356736	0.258595
O139	O	0.875297	0.242459	0.604466
O140	O	1.375297	0.742459	1.104466
H141	H	0.885648	0.234502	0.682790
H142	H	1.385648	0.734502	1.182790
O143	O	1.058942	-0.701129	-0.180928
O144	O	1.558942	-0.201129	0.319072
H145	H	1.057846	-0.757887	-0.166312
H146	H	1.557846	-0.257887	0.333688
O147	O	0.466840	0.095099	0.267950
O148	O	0.966840	0.595099	0.767950
H149	H	0.515324	0.095818	0.328470
H150	H	1.015324	0.595818	0.828470
O151	O	1.067373	-0.257132	0.180919
O152	O	1.567373	0.242868	0.680919
H153	H	1.005317	-0.284156	0.185079
H154	H	1.505317	0.215844	0.685079
O155	O	1.067416	-0.257099	-0.180892
O156	O	1.567416	0.242901	0.319108
H157	H	1.068149	-0.219540	-0.241413
H158	H	1.568149	0.280460	0.258587
O159	O	1.070239	-0.105756	0.180937
O160	O	1.570239	0.394244	0.680937
H161	H	1.009437	-0.066411	0.185108
H162	H	1.509437	0.433589	0.685108
O163	O	1.061830	-0.549752	-0.180915
O164	O	1.561830	-0.049752	0.319085
H165	H	1.061108	-0.587300	-0.241438
H166	H	1.561108	-0.087300	0.258562
H167	H	0.338270	0.093227	-0.157912
H168	H	0.838270	0.593227	0.342088
H169	H	1.059079	-0.691543	0.157888
H170	H	1.559079	-0.191543	0.657888
H171	H	0.953054	0.182532	0.741936
H172	H	1.453054	0.682532	1.241936
H173	H	1.061605	-0.559422	0.157899
H174	H	1.561605	-0.059422	0.657899
O175	O	0.936754	0.195065	0.244812
O176	O	1.436754	0.695065	0.744812
H177	H	0.894003	0.228020	0.296645
H178	H	1.394003	0.728020	0.796645
O179	O	1.192442	-0.001951	0.755180
O180	O	1.692442	0.498049	1.255180
H181	H	1.182117	0.006009	0.833506
H182	H	1.682117	0.506009	1.333506
H183	H	0.790955	0.099913	-0.157902
H184	H	1.290955	0.599913	0.342098
H185	H	1.237668	-0.036810	0.591152
H186	H	1.737668	0.463190	1.091152
O187	O	1.253899	-0.049352	0.395534
O188	O	1.753899	0.450648	0.895534
H189	H	1.296658	-0.082310	0.447357
H190	H	1.796658	0.417690	0.947357
O191	O	1.192372	-0.001954	0.244775
O192	O	1.692372	0.498046	0.744775
H193	H	1.262620	0.007031	0.264034
H194	H	1.762620	0.507031	0.764034
O195	O	0.466893	0.095135	-0.267951
O196	O	0.966893	0.595135	0.232049
H197	H	0.393610	0.094053	-0.253321
H198	H	0.893610	0.594053	0.246679
H199	H	0.649917	0.097836	-0.244937
H200	H	1.149917	0.597836	0.255063
H201	H	0.790921	0.099882	0.157895
H202	H	1.290921	0.599882	0.657895
