data_functionalizedCrystal
_audit_creation_method	'MofGen! by Chris Wilmer'
_symmetry_space_group_name_H-M	'P1'
_symmetry_Int_Tables_number	1
_symmetry_cell_setting	triclinic
loop_
_symmetry_equiv_pos_as_xyz
  x,y,z
_cell_length_a	17.038272
_cell_length_b	14.519709
_cell_length_c	13.596369
_cell_angle_alpha	89.999709
_cell_angle_beta	89.993837
_cell_angle_gamma	92.604149
loop_
_atom_site_label
_atom_site_type_symbol
_atom_site_fract_x
_atom_site_fract_y
_atom_site_fract_z
O1	O	0.102502	-1.231711	-0.081664
O2	O	0.114573	-0.964158	-0.081694
O3	O	-0.005280	-1.096344	-0.081671
O4	O	0.222356	-1.099525	-0.081686
O5	O	-0.005286	-1.096330	0.081912
O6	O	0.114567	-0.964143	0.081889
O7	O	0.102496	-1.231696	0.081919
Zn8	Zn	0.108530	-1.097918	0.107877
Zn9	Zn	0.108539	-1.097937	-0.107651
O10	O	0.222349	-1.099510	0.081897
C11	C	0.114008	-0.929748	0.000094
C12	C	0.112322	-0.827237	0.000083
C13	C	-0.034416	-1.093444	0.000120
C14	C	-0.121223	-1.084814	0.000119
N15	N	0.108524	-1.097911	0.254968
C16	C	-0.171209	-1.164047	0.000129
C17	C	-0.252773	-1.155933	0.000118
C18	C	-0.284349	-1.068585	0.000105
C19	C	-0.234357	-0.989347	0.000092
C20	C	-0.152795	-0.997462	0.000096
C21	C	-0.530153	-1.039916	0.000089
C22	C	-0.611722	-1.031807	0.000088
C23	C	-0.630132	-1.198394	0.000112
C24	C	-0.548568	-1.206502	0.000122
C25	C	-0.498583	-1.127263	0.000104
C26	C	-0.367720	-1.060289	0.000098
C27	C	-0.415213	-1.135560	0.000104
C28	C	0.251486	-1.102410	0.000103
C29	C	0.338292	-1.111040	0.000098
C30	C	0.103062	-1.266107	0.000129
C31	C	0.104748	-1.368617	0.000134
C32	C	0.106116	-0.451867	0.000128
C33	C	0.107839	-0.556307	0.000115
C34	C	0.109219	-0.639549	0.000104
C35	C	0.110942	-0.743995	0.000093
N36	N	0.108539	-1.097950	-0.254743
C37	C	0.108540	-1.097936	0.656259
C38	C	0.108538	-1.097926	0.544608
C39	C	0.108533	-1.097924	0.455617
C40	C	0.108530	-1.097913	0.343959
H41	H	-0.293468	-1.220453	0.000129
O42	O	-0.481717	-0.962852	0.000128
C43	C	-0.472071	-0.796765	0.000064
C44	C	-0.527020	-0.883967	0.000037
H45	H	-0.508676	-0.732965	-0.000030
H46	H	-0.433448	-0.796329	0.068541
H47	H	-0.433402	-0.796450	-0.068378
H48	H	-0.565738	-0.884340	0.068432
H49	H	-0.565590	-0.884369	-0.068485
H50	H	-0.393438	-0.989170	0.000089
O51	O	-0.140576	-1.248918	-0.000035
C52	C	-0.131392	-1.393806	-0.084743
C53	C	-0.166118	-1.297709	-0.084686
H54	H	-0.152042	-1.433288	-0.153165
H55	H	-0.064507	-1.386053	-0.084805
H56	H	-0.151962	-1.433243	-0.016250
H57	H	-0.145607	-1.258219	-0.153167
H58	H	-0.232998	-1.305528	-0.084573
H59	H	-0.260072	-0.918226	0.000075
O60	O	-0.518027	-1.291422	0.000094
C61	C	-0.544897	-1.455797	0.000193
C62	C	-0.579589	-1.359682	0.000191
H63	H	-0.594654	-1.511011	0.000292
H64	H	-0.507191	-1.463835	-0.068276
H65	H	-0.507155	-1.463696	0.068642
H66	H	-0.617367	-1.351716	-0.068212
H67	H	-0.617251	-1.351687	0.068705
O68	O	-0.678720	-1.275334	-0.000054
C69	C	-0.781514	-1.362832	-0.084770
C70	C	-0.726522	-1.275667	-0.084710
H71	H	-0.820188	-1.363120	-0.153196
H72	H	-0.744975	-1.426688	-0.084825
H73	H	-0.820132	-1.363186	-0.016281
H74	H	-0.687893	-1.275224	-0.153187
H75	H	-0.763108	-1.211851	-0.084603
H76	H	-0.637427	-0.960675	0.000093
H77	H	-0.112096	-0.932942	0.000087
O78	O	-0.384450	-1.220357	-0.000014
C79	C	-0.303071	-1.326219	-0.084770
C80	C	-0.337852	-1.230152	-0.084752
H81	H	-0.265403	-1.334178	-0.153284
H82	H	-0.265299	-1.334184	-0.016356
H83	H	-0.352817	-1.381447	-0.084712
H84	H	-0.288157	-1.174867	-0.084845
H85	H	-0.375645	-1.222267	-0.153161
