data_functionalizedCrystal
_audit_creation_method	'MofGen! by Chris Wilmer'
_symmetry_space_group_name_H-M	'P1'
_symmetry_Int_Tables_number	1
_symmetry_cell_setting	triclinic
loop_
_symmetry_equiv_pos_as_xyz
  x,y,z
_cell_length_a	14.971486
_cell_length_b	14.971486
_cell_length_c	7.540329
_cell_angle_alpha	89.996199
_cell_angle_beta	90.001997
_cell_angle_gamma	83.614129
loop_
_atom_site_label
_atom_site_type_symbol
_atom_site_fract_x
_atom_site_fract_y
_atom_site_fract_z
O1	O	-1.186943	-0.116561	0.147279
O2	O	-0.686943	0.383439	0.647279
O3	O	-0.926543	-0.130520	0.147328
O4	O	-0.426543	0.369480	0.647328
O5	O	-1.063722	0.006659	0.147290
O6	O	-0.563722	0.506659	0.647290
O7	O	-1.049763	-0.253741	0.147317
O8	O	-0.549763	0.246259	0.647317
O9	O	-1.063714	0.006661	-0.147675
O10	O	-0.563714	0.506661	0.352325
O11	O	-0.926535	-0.130519	-0.147637
O12	O	-0.426535	0.369481	0.352363
O13	O	-1.186935	-0.116560	-0.147686
O14	O	-0.686935	0.383440	0.352314
Cu15	Cu	-1.056734	-0.123539	-0.174594
Cu16	Cu	-0.556734	0.376461	0.325406
Cu17	Cu	-1.056744	-0.123541	0.174236
Cu18	Cu	-0.556744	0.376459	0.674236
O19	O	-1.049755	-0.253739	-0.147648
O20	O	-0.549755	0.246261	0.352352
C21	C	-0.893214	-0.129895	-0.000149
C22	C	-0.393214	0.370105	0.499851
C23	C	-0.793917	-0.128024	-0.000131
C24	C	-0.293917	0.371976	0.499869
C25	C	-1.063094	0.039985	-0.000192
C26	C	-0.563094	0.539985	0.499808
C27	C	-1.061223	0.139282	-0.000190
C28	C	-0.561223	0.639282	0.499810
C29	C	-1.220263	-0.117185	-0.000205
C30	C	-0.720263	0.382815	0.499795
C31	C	-1.319561	-0.119056	-0.000212
C32	C	-0.819561	0.380944	0.499788
N33	N	-1.056734	-0.123537	-0.419943
N34	N	-0.556734	0.376463	0.080057
C35	C	-0.736692	-0.208614	-0.000124
C36	C	-0.236692	0.291386	0.499876
C37	C	-0.643392	-0.206850	-0.000151
C38	C	-0.143392	0.293150	0.499849
C39	C	-0.607320	-0.124497	-0.000171
C40	C	-0.107320	0.375503	0.499829
C41	C	-0.664552	-0.043902	-0.000183
C42	C	-0.164552	0.456098	0.499817
C43	C	-0.757850	-0.045666	-0.000169
C44	C	-0.257850	0.454334	0.499831
C45	C	-0.470090	-0.040231	-0.000207
C46	C	0.029910	0.459769	0.499793
C47	C	-0.376786	-0.038466	-0.000218
C48	C	0.123214	0.461534	0.499782
C49	C	-0.355632	-0.201415	-0.000190
C50	C	0.144368	0.298585	0.499810
C51	C	-0.448930	-0.203179	-0.000176
C52	C	0.051070	0.296821	0.499824
C53	C	-0.506156	-0.122584	-0.000184
C54	C	-0.006156	0.377416	0.499816
C55	C	-1.050384	-0.287065	-0.000162
C56	C	-0.550384	0.212935	0.499838
C57	C	-1.052254	-0.386362	-0.000152
C58	C	-0.552254	0.113638	0.499848
C59	C	-1.141812	0.196507	-0.000207
C60	C	-0.641812	0.696507	0.499793
C61	C	-1.140049	0.289807	-0.000188
C62	C	-0.640049	0.789807	0.499812
C63	C	-1.057696	0.325879	-0.000167
C64	C	-0.557696	0.825879	0.499833
C65	C	-0.977101	0.268646	-0.000145
C66	C	-0.477101	0.768646	0.499855
C67	C	-0.978865	0.175349	-0.000151
C68	C	-0.478865	0.675349	0.499849
C69	C	-0.973430	0.463109	-0.000138
C70	C	-0.473430	0.963109	0.499862
C71	C	-0.971665	0.556413	-0.000136
C72	C	-0.471665	1.056413	0.499864
C73	C	-1.134614	0.577567	-0.000176
C74	C	-0.634614	1.077567	0.499824
C75	C	-1.136378	0.484269	-0.000181
C76	C	-0.636378	0.984269	0.499819
C77	C	-1.055782	0.427043	-0.000163
C78	C	-0.555782	0.927043	0.499837
N79	N	-1.056751	-0.123536	0.419585
N80	N	-0.556751	0.376464	0.919585
H81	H	-0.766054	-0.275675	-0.000107
H82	H	-0.266054	0.224325	0.499893
H83	H	-1.208874	0.167145	-0.000235
H84	H	-0.708874	0.667145	0.499765
H85	H	-0.596802	-0.272474	-0.000144
H86	H	-0.096802	0.227526	0.499856
H87	H	-1.205673	0.336396	-0.000206
H88	H	-0.705673	0.836396	0.499794
H89	H	-0.913240	0.128756	-0.000137
H90	H	-0.413240	0.628756	0.499863
H91	H	-0.904606	0.585780	-0.000147
H92	H	-0.404606	1.085780	0.499853
O93	O	-0.886504	0.401381	-0.000135
O94	O	-0.386504	0.901381	0.499865
H95	H	-0.828941	0.442136	-0.000144
H96	H	-0.328941	0.942136	0.499856
H97	H	-0.910047	0.298024	-0.000116
H98	H	-0.410047	0.798024	0.499884
O99	O	-0.293917	-0.288348	-0.000201
O100	O	0.206083	0.211652	0.499799
H101	H	-0.222981	-0.273290	-0.000240
H102	H	0.277019	0.226710	0.499760
H103	H	-0.804443	0.019958	-0.000173
H104	H	-0.304443	0.519958	0.499827
H105	H	-0.478296	-0.270239	-0.000143
H106	H	0.021704	0.229761	0.499857
O107	O	-0.337873	0.050354	-0.000273
O108	O	0.162127	0.550354	0.499727
H109	H	-0.360848	0.089101	0.119926
H110	H	0.139152	0.589101	0.619926
H111	H	-1.200238	0.624165	-0.000185
H112	H	-0.700238	1.124165	0.499815
H113	H	-1.203437	0.454903	-0.000212
H114	H	-0.703437	0.954903	0.499788
H115	H	-0.516682	0.025399	-0.000217
H116	H	-0.016682	0.525399	0.499783
H117	H	-0.635175	0.023152	-0.000224
H118	H	-0.135175	0.523152	0.499776
