data_functionalizedCrystal
_audit_creation_method	'MofGen! by Chris Wilmer'
_symmetry_space_group_name_H-M	'P1'
_symmetry_Int_Tables_number	1
_symmetry_cell_setting	triclinic
loop_
_symmetry_equiv_pos_as_xyz
  x,y,z
_cell_length_a	27.354012
_cell_length_b	27.353283
_cell_length_c	27.349551
_cell_angle_alpha	60.005606
_cell_angle_beta	60.011434
_cell_angle_gamma	59.993282
loop_
_atom_site_label
_atom_site_type_symbol
_atom_site_fract_x
_atom_site_fract_y
_atom_site_fract_z
O1	O	0.067635	-0.714267	0.597330
O2	O	0.025429	-0.556105	0.481282
O3	O	0.125575	-0.656186	0.481214
O4	O	-0.032512	-0.614186	0.597397
O5	O	0.158797	-0.622968	0.514367
O6	O	0.058650	-0.522887	0.514434
O7	O	0.100856	-0.681048	0.630482
Zn8	Zn	0.085028	-0.596693	0.577722
Zn9	Zn	0.041257	-0.640460	0.534042
O10	O	0.000709	-0.580967	0.630549
N11	N	0.114901	-0.566828	0.607534
N12	N	0.011389	-0.670331	0.504229
C13	C	0.179404	-0.338196	0.672015
C14	C	0.179501	-0.502386	0.836160
C15	C	0.179415	-0.502363	0.671996
C16	C	0.343611	-0.502373	0.671960
C17	C	0.197478	-0.392371	0.690061
C18	C	0.197534	-0.484321	0.781984
C19	C	0.289434	-0.484312	0.690032
C20	C	0.197486	-0.484308	0.690051
C21	C	0.156398	-0.269238	0.649045
C22	C	0.156418	-0.525342	0.649015
C23	C	0.220484	-0.461329	0.713032
C24	C	0.443889	-0.485097	0.619172
C25	C	0.506571	-0.505993	0.598266
C26	C	0.506589	-0.607412	0.636940
C27	C	0.443909	-0.586515	0.657848
C28	C	0.171510	-0.237888	0.587422
C29	C	0.150593	-0.175201	0.566543
C30	C	0.099458	-0.175218	0.668913
C31	C	0.120375	-0.237905	0.689792
C32	C	0.094789	-0.510201	0.664176
C33	C	0.073888	-0.531091	0.643278
C34	C	0.176239	-0.582263	0.592072
C35	C	0.197142	-0.561373	0.612963
C36	C	0.094933	-0.510244	0.936476
C37	C	0.074073	-0.531151	0.999161
C38	C	0.176453	-0.582335	0.999126
C39	C	0.197312	-0.561429	0.936439
C40	C	0.156551	-0.525382	0.905116
C41	C	0.412561	-0.525357	0.648961
C42	C	-0.098513	-0.688235	0.485867
C43	C	-0.006461	-0.688368	0.394066
C44	C	-0.006645	-0.780264	0.486040
C45	C	-0.006630	-0.688361	0.486097
C46	C	-0.029562	-0.711308	0.463018
N47	N	0.537030	-0.566846	0.607436
O48	O	0.741877	-0.576849	0.459995
O49	O	0.742050	-0.693241	0.618010
O50	O	0.741986	-0.692977	0.517791
O51	O	0.741941	-0.577114	0.560214
O52	O	0.642405	-0.659839	0.551046
O53	O	0.642469	-0.660104	0.651265
O54	O	0.642296	-0.543712	0.493251
Zn55	Zn	0.626572	-0.596646	0.577538
Zn56	Zn	0.757774	-0.640307	0.533723
O57	O	0.642360	-0.543976	0.593469
N58	N	0.847316	-0.670107	0.503818
N59	N	0.114877	-0.144758	0.607577
O60	O	-0.032498	0.060193	0.597441
O61	O	0.125523	0.060193	0.481067
O62	O	0.025289	0.060179	0.481345
O63	O	0.067736	0.060207	0.597163
O64	O	0.058511	-0.039410	0.514543
O65	O	0.158745	-0.039397	0.514265
O66	O	0.000724	-0.039396	0.630638
Zn67	Zn	0.085009	-0.055208	0.577722
Zn68	Zn	0.041238	0.076005	0.533983
O69	O	0.100958	-0.039382	0.630360
N70	N	0.011362	0.165555	0.504130
N71	N	0.115121	-0.566884	1.029592
O72	O	0.104990	-0.714248	1.234528
O73	O	-0.011371	-0.556177	1.234539
O74	O	-0.011103	-0.656395	1.234497
O75	O	0.104722	-0.614030	1.234569
O76	O	0.022090	-0.623190	1.134913
O77	O	0.021822	-0.522972	1.134954
O78	O	0.138182	-0.681044	1.134943
Zn79	Zn	0.085272	-0.596736	1.119137
Zn80	Zn	0.041539	-0.640484	1.250344
O81	O	0.137914	-0.580826	1.134984
N82	N	0.011689	-0.670343	1.339890
C83	C	0.038085	-0.519567	0.481870
C84	C	0.162104	-0.643505	0.481786
C85	C	0.088200	-0.717587	0.629893
C86	C	-0.035819	-0.593649	0.629977
C87	C	0.692280	-0.692701	0.654545
C88	C	0.692203	-0.692374	0.530435
C89	C	0.692063	-0.544251	0.456717
C90	C	0.692144	-0.544580	0.580825
C91	C	0.162000	0.010521	0.481600
C92	C	0.037914	0.010381	0.481984
C93	C	-0.035795	0.010399	0.630065
C94	C	0.088333	0.010415	0.629722
C95	C	-0.010799	-0.519660	1.184747
C96	C	-0.010461	-0.643761	1.184677
C97	C	0.137610	-0.717561	1.184734
C98	C	0.137280	-0.593452	1.184783
H99	H	0.023897	-0.518815	1.024687
H100	H	-0.081177	0.010398	0.666600
O101	O	0.180636	-0.582537	1.184773
C102	C	0.208009	-0.511420	1.184841
C103	C	0.158860	-0.523697	1.184838
H104	H	0.190417	-0.463854	1.184907
H105	H	0.248876	-0.516740	1.143157
H106	H	0.221109	-0.544601	1.226509
H107	H	0.145709	-0.490528	1.143198
H108	H	0.118025	-0.518399	1.226550
O109	O	0.216273	-0.654085	0.438236
C110	C	0.304235	-0.625081	0.372811
C111	C	0.242894	-0.613026	0.422119
H112	H	0.325782	-0.591901	0.359774
H113	H	0.297993	-0.619648	0.331945
H114	H	0.334360	-0.672656	0.390242
H115	H	0.212737	-0.565455	0.404744
H116	H	0.249181	-0.618500	0.462976
O117	O	0.105765	-0.268314	0.749662
C118	C	0.110555	-0.287426	0.843526
C119	C	0.127154	-0.252972	0.775724
H120	H	0.127829	-0.275026	0.864619
H121	H	0.131701	-0.337625	0.851513
H122	H	0.059801	-0.275105	0.864646
H123	H	0.177899	-0.265243	0.754559
H124	H	0.105965	-0.202782	0.767780
H125	H	0.097215	-0.763020	0.666340
O126	O	-0.090013	-0.583036	0.673488
C127	C	-0.177943	-0.612086	0.738962
C128	C	-0.116587	-0.624162	0.689678
H129	H	-0.199440	-0.645337	0.752075
H130	H	-0.208128	-0.564541	0.721550
H131	H	-0.171662	-0.617463	0.779779
H132	H	-0.122812	-0.618817	0.648844
H133	H	-0.086423	-0.671702	0.707138
O134	O	0.692362	-0.736238	0.708708
C135	C	0.692396	-0.764063	0.807352
C136	C	0.692317	-0.714710	0.746035
H137	H	0.692346	-0.746671	0.837552
H138	H	0.734100	-0.804891	0.801075
H139	H	0.650751	-0.777156	0.828838
H140	H	0.733933	-0.701567	0.724516
H141	H	0.650584	-0.673915	0.752352
O142	O	0.691892	-0.500599	0.402626
C143	C	0.640219	-0.400728	0.349214
C144	C	0.640332	-0.450119	0.410507
H145	H	0.598543	-0.359899	0.355566
H146	H	0.640171	-0.418036	0.319003
H147	H	0.681890	-0.387672	0.327698
H148	H	0.598667	-0.463196	0.432075
H149	H	0.640411	-0.432784	0.440676
O150	O	0.413343	-0.425703	0.610570
C151	C	0.316773	-0.348562	0.625666
C152	C	0.351288	-0.415838	0.635438
H153	H	0.266595	-0.340566	0.645777
H154	H	0.329033	-0.322307	0.575646
H155	H	0.329146	-0.333012	0.648378
H156	H	0.338933	-0.431443	0.612762
H157	H	0.339025	-0.442053	0.685467
O158	O	0.099280	0.010386	0.673077
C159	C	0.170430	0.010415	0.700446
C160	C	0.158115	0.010438	0.651297
H161	H	0.217993	0.010470	0.682851
H162	H	0.165132	-0.031275	0.741313
H163	H	0.137258	0.052081	0.713551
H164	H	0.191276	-0.031199	0.638142
H165	H	0.163393	0.052156	0.610462
O166	O	0.692101	-0.501213	0.591758
C167	C	0.692172	-0.473835	0.662883
C168	C	0.692207	-0.522995	0.650586
H169	H	0.692270	-0.491432	0.710440
H170	H	0.650459	-0.432978	0.657599
H171	H	0.733808	-0.460710	0.629692
H172	H	0.650599	-0.536170	0.683766
H173	H	0.733947	-0.563820	0.655850
O174	O	-0.054326	-0.465477	1.184776
C175	C	-0.082149	-0.366823	1.184766
C176	C	-0.032806	-0.428162	1.184748
H177	H	-0.064764	-0.336632	1.184730
H178	H	-0.122988	-0.373070	1.226443
H179	H	-0.095213	-0.345342	1.143091
H180	H	-0.019691	-0.449676	1.226395
H181	H	0.008001	-0.421876	1.143043
O182	O	0.181250	-0.771673	1.184625
C183	C	0.281125	-0.825155	1.133059
C184	C	0.231749	-0.763837	1.133102
H185	H	0.321970	-0.818840	1.091414
H186	H	0.263824	-0.855358	1.132999
H187	H	0.294149	-0.846662	1.174764
H188	H	0.218705	-0.742279	1.091404
H189	H	0.249078	-0.733677	1.133193
H190	H	0.692221	-0.728771	0.521355
H191	H	0.023705	-0.518748	0.655609
O192	O	0.027066	0.010474	0.438527
C193	C	0.021444	0.062025	0.338815
C194	C	0.033734	0.062005	0.387979
H195	H	0.026842	0.103677	0.297931
H196	H	-0.026143	0.062059	0.356340
H197	H	0.054579	0.020323	0.325765
H198	H	0.000636	0.103700	0.401051
H199	H	0.081337	0.061940	0.370427
H200	H	0.207290	0.010797	0.444973
O201	O	-0.053779	-0.654639	1.184574
C202	C	-0.081148	-0.725751	1.184493
C203	C	-0.032032	-0.713507	1.184595
H204	H	-0.063588	-0.773349	1.184523
H205	H	-0.094199	-0.692622	1.142787
H206	H	-0.122039	-0.720356	1.226140
H207	H	0.008891	-0.718911	1.142977
H208	H	-0.019032	-0.746634	1.226328
H209	H	0.061625	-0.480862	0.693528
H210	H	0.061737	-0.480889	0.910978
H211	H	0.029071	-0.474132	0.445424
H212	H	0.247489	-0.573760	0.910909
O213	O	0.216130	-0.617363	1.029460
C214	C	0.319879	-0.665901	1.022809
C215	C	0.275012	-0.626230	0.988381
H216	H	0.367495	-0.673072	0.989612
H217	H	0.312717	-0.711017	1.052130
H218	H	0.312636	-0.642944	1.052181
H219	H	0.282228	-0.649134	0.958977
H220	H	0.282185	-0.581116	0.959099
H221	H	0.247325	-0.573698	0.600612
O222	O	0.215884	-0.617241	0.557038
C223	C	0.319611	-0.665827	0.508486
C224	C	0.274783	-0.626202	0.548154
H225	H	0.367240	-0.673095	0.501302
H226	H	0.312410	-0.642860	0.463378
H227	H	0.312365	-0.710902	0.531449
H228	H	0.282002	-0.581121	0.525244
H229	H	0.281995	-0.649216	0.593260
H230	H	0.532110	-0.657210	0.644171
O231	O	0.413510	-0.625639	0.686686
C232	C	0.394375	-0.699356	0.681103
C233	C	0.428824	-0.655056	0.648372
H234	H	0.406753	-0.723161	0.650145
H235	H	0.344180	-0.673951	0.694506
H236	H	0.406719	-0.733784	0.722912
H237	H	0.416530	-0.620617	0.606542
H238	H	0.479010	-0.680501	0.635014
O239	O	0.536916	-0.466801	0.569314
C240	C	0.530290	-0.364007	0.533182
C241	C	0.495849	-0.408324	0.565971
H242	H	0.497102	-0.316721	0.530479
H243	H	0.559598	-0.365881	0.486033
H244	H	0.559672	-0.376625	0.558799
H245	H	0.466434	-0.395737	0.540404
H246	H	0.466578	-0.406443	0.613122
H247	H	0.200842	-0.263395	0.554238
H248	H	0.070133	-0.149706	0.702094
O249	O	0.165346	-0.144836	0.506660
C250	C	0.218235	-0.151433	0.407324
C251	C	0.201588	-0.185893	0.475124
H252	H	0.247529	-0.184613	0.381808
H253	H	0.243784	-0.122097	0.394945
H254	H	0.175675	-0.122071	0.395027
H255	H	0.244117	-0.215287	0.487470
H256	H	0.176016	-0.215191	0.487467
