data_functionalizedCrystal
_audit_creation_method	'MofGen! by Chris Wilmer'
_symmetry_space_group_name_H-M	'P1'
_symmetry_Int_Tables_number	1
_symmetry_cell_setting	triclinic
loop_
_symmetry_equiv_pos_as_xyz
  x,y,z
_cell_length_a	14.560438
_cell_length_b	20.875620
_cell_length_c	20.875641
_cell_angle_alpha	92.968954
_cell_angle_beta	62.440979
_cell_angle_gamma	61.740836
loop_
_atom_site_label
_atom_site_type_symbol
_atom_site_fract_x
_atom_site_fract_y
_atom_site_fract_z
Zr1	Zr	1.000080	0.619711	-0.050184
O2	O	1.180789	0.521083	-0.153920
O3	O	0.811811	0.649954	-0.018381
O4	O	0.989883	0.654668	-0.147230
O5	O	1.013397	0.512641	0.076565
O6	O	0.990440	0.760033	-0.141955
O7	O	1.002717	0.516369	-0.025071
O8	O	0.671901	0.751601	0.088532
O9	O	1.331937	0.521074	-0.153922
O10	O	0.892465	0.741475	-0.000883
O11	O	0.900020	0.660061	0.071030
O12	O	1.109677	0.665611	-0.080673
O13	O	1.117232	0.584196	-0.008760
Zr14	Zr	1.018003	0.781811	0.120327
Zr15	Zr	1.000969	0.787756	-0.041771
Zr16	Zr	1.017114	0.613766	0.111914
Zr17	Zr	1.241143	0.619696	-0.050187
Zr18	Zr	0.776941	0.781826	0.120331
O19	O	1.206273	0.751568	0.088525
O20	O	1.182053	0.760022	-0.141958
O21	O	1.205010	0.512630	0.076562
O22	O	0.837294	0.880439	0.224064
O23	O	0.813074	0.888893	-0.006419
O24	O	0.836031	0.641501	0.212101
O25	O	1.004686	0.888881	-0.006422
O26	O	1.028200	0.746854	0.217374
O27	O	1.027643	0.641489	0.212099
O28	O	1.015367	0.885153	0.095215
O29	O	1.332643	0.654647	-0.147235
O30	O	0.685441	0.746875	0.217379
O31	O	0.686147	0.880449	0.224066
O32	O	0.672607	0.885174	0.095219
O33	O	1.345476	0.516348	-0.025076
O34	O	1.346183	0.649922	-0.018389
O35	O	0.908406	0.735912	0.150817
O36	O	0.900851	0.817326	0.078903
O37	O	1.118064	0.741462	-0.000886
O38	O	1.125619	0.660047	0.071027
C39	C	0.707509	0.700780	0.035076
C40	C	0.605172	0.700786	0.035078
C41	C	0.480009	0.756774	0.093974
C42	C	0.383877	0.756748	0.093970
C43	C	0.538088	0.644742	-0.023834
C44	C	0.634217	0.644766	-0.023826
C45	C	0.162417	0.796682	0.188851
C46	C	0.037245	0.852682	0.247743
C47	C	-0.002177	0.929452	0.275618
C48	C	0.083566	0.950236	0.244592
C49	C	0.208734	0.894240	0.185695
C50	C	0.248156	0.817461	0.157833
C51	C	0.855673	0.604840	-0.118706
C52	C	0.980843	0.548846	-0.177607
C53	C	1.020274	0.472073	-0.205489
C54	C	0.934535	0.451290	-0.174476
C55	C	0.809365	0.507283	-0.115576
C56	C	0.769940	0.584055	-0.087692
C57	C	1.007930	0.490562	0.024548
C58	C	1.007553	0.419223	0.020977
C59	C	1.004825	0.017867	-0.005149
C60	C	1.005182	0.084897	-0.001792
C61	C	1.011235	0.116362	0.055883
C62	C	1.016944	0.080788	0.110201
C63	C	1.016597	0.013756	0.106841
C64	C	1.012914	0.316617	0.071935
C65	C	1.013258	0.383655	0.075292
C66	C	1.001498	0.387759	-0.036703
C67	C	1.001143	0.320728	-0.040055
C68	C	1.006859	0.285158	0.014260
N69	N	1.011596	0.184879	0.059317
N70	N	1.006507	0.216639	0.010823
C71	C	1.310574	0.700743	0.035068
C72	C	1.412911	0.700736	0.035066
C73	C	0.987735	0.708198	-0.167688
C74	C	0.980503	0.710722	-0.236503
C75	C	1.010153	0.910960	0.045595
C76	C	1.010530	0.982300	0.049167
C77	C	1.090486	0.672308	-0.310482
C78	C	1.083684	0.674690	-0.375137
C79	C	0.966898	0.715481	-0.365813
C80	C	0.856907	0.753899	-0.291826
C81	C	0.863711	0.751522	-0.227172
C82	C	0.934393	0.726842	-0.554713
C83	C	0.927598	0.729214	-0.619375
C84	C	1.154375	0.650006	-0.702681
C85	C	1.161168	0.647628	-0.638022
C86	C	1.051177	0.686050	-0.564041
N87	N	0.959942	0.717914	-0.431901
N88	N	1.058134	0.683621	-0.497955
C89	C	1.030349	0.693325	0.237832
C90	C	1.037580	0.690801	0.306647
C91	C	0.708621	0.910978	0.045599
C92	C	0.606661	0.982324	0.049172
C93	C	0.728816	0.693343	0.237836
C94	C	0.633711	0.690825	0.306652
C95	C	0.729928	0.903542	0.248359
C96	C	0.635199	0.972364	0.320747
C97	C	1.288156	0.497980	-0.178216
C98	C	1.382884	0.429159	-0.250604
C99	C	1.309463	0.490544	0.024544
C100	C	1.411423	0.419198	0.020971
C101	C	1.289267	0.708179	-0.167692
C102	C	1.384373	0.710697	-0.236509
C103	C	0.554401	0.976236	0.009196
C104	C	0.458610	1.043267	0.012538
C105	C	0.415075	1.116386	0.055861
C106	C	0.467345	1.122472	0.095839
C107	C	0.563140	1.055442	0.092492
C108	C	0.593426	0.729236	0.380624
C109	C	0.504078	0.726867	0.445290
C110	C	0.455010	0.686092	0.435983
C111	C	0.495303	0.647676	0.362004
C112	C	0.584656	0.650041	0.297339
C113	C	0.586770	1.047188	0.317204
C114	C	0.497775	1.111860	0.385214
C115	C	0.457204	1.101706	0.456767
C116	C	0.505643	1.026874	0.460308
C117	C	0.594643	0.962204	0.392299
C118	C	1.431325	0.354334	-0.247060
C119	C	1.520350	0.289662	-0.315070
C120	C	1.560926	0.299816	-0.386623
C121	C	1.512481	0.374648	-0.390165
C122	C	1.423464	0.439318	-0.322155
C123	C	1.463692	0.425287	0.060941
C124	C	1.559507	0.358256	0.057582
C125	C	1.603045	0.285138	0.014256
C126	C	1.550772	0.279051	-0.025719
C127	C	1.454964	0.346081	-0.022363
C128	C	1.433414	0.751480	-0.227177
C129	C	1.522764	0.753860	-0.291831
C130	C	1.563078	0.715453	-0.365815
C131	C	1.514028	0.674670	-0.375144
C132	C	1.424673	0.672294	-0.310492
H133	H	1.122198	0.426485	-0.253456
H134	H	1.681059	0.230564	0.011530
H135	H	0.455338	0.614478	0.354438
O136	O	0.977065	0.368483	-0.204552
H137	H	0.923557	0.366718	-0.228164
H138	H	-0.104094	0.975044	0.323582
H139	H	0.416064	1.038296	-0.020018
H140	H	1.412409	0.341112	-0.054910
H141	H	0.774151	0.782802	-0.166935
H142	H	0.456353	0.802388	0.141939
O143	O	0.801625	0.773215	-0.609313
H144	H	0.815379	0.768402	-0.666702
O145	O	1.371780	0.628305	-0.320559
H146	H	1.392889	0.581924	-0.295269
O147	O	1.597744	0.200183	-0.072447
H148	H	1.519404	0.192521	-0.049909
O149	O	0.204947	0.713873	0.158791
H150	H	0.242493	0.696897	0.096371
O151	O	1.273005	0.608571	-0.782472
H152	H	1.328909	0.632528	-0.787853
H153	H	0.337071	1.170960	0.058580
O154	O	-0.055239	0.830271	0.281210
H155	H	-0.023946	0.785274	0.306336
H156	H	0.384734	1.154372	0.512139
H157	H	1.559779	0.228737	-0.312171
H158	H	0.431884	1.182014	0.131111
O159	O	1.656951	0.230061	-0.459975
H160	H	1.683809	0.176328	-0.445482
H161	H	0.605678	1.060410	0.125051
H162	H	0.739554	0.490357	-0.090328
O163	O	0.301215	0.916649	0.152232
H164	H	0.340958	0.904342	0.089664
H165	H	0.051449	1.012753	0.267287
O166	O	0.445525	1.192567	0.381386
H167	H	0.488674	1.188755	0.320203
O168	O	1.389927	0.792917	-0.147383
H169	H	1.439036	0.821682	-0.151769
O170	O	0.627922	0.608736	0.217561
H171	H	0.578713	0.580038	0.221965
H172	H	1.050651	0.565775	-0.202860
H173	H	1.562692	0.787070	-0.284219
O174	O	1.659470	0.718007	-0.435546
H175	H	1.686805	0.752811	-0.416621
O176	O	1.557516	0.633268	-0.454952
H177	H	1.476240	0.657245	-0.460347
H178	H	1.185586	0.639087	-0.318083
H179	H	0.561722	0.599133	-0.071791
H180	H	0.633369	0.762440	0.388216
H181	H	0.471283	0.758153	0.505521
O182	O	1.556240	0.385596	-0.467342
H183	H	1.626263	0.328051	-0.514031
H184	H	0.382254	0.684172	0.488644
O185	O	0.630517	1.058156	0.240036
H186	H	0.700536	1.000622	0.193332
O187	O	1.371202	0.520022	-0.325981
H188	H	1.414367	0.516210	-0.387164
H189	H	0.472597	1.018618	0.518576
H190	H	0.634062	0.901281	0.395195
O191	O	0.601358	0.897377	-0.037542
H192	H	0.548926	0.904417	-0.064784
H193	H	1.398293	0.346052	-0.188805
O194	O	1.416768	0.504143	0.107662
H195	H	1.379414	0.508734	0.168857
O196	O	0.813135	0.687650	-0.088631
H197	H	0.893778	0.692698	-0.120102
O198	O	0.998304	-0.016072	-0.067359
H199	H	0.994412	0.019919	-0.104569
H200	H	1.000538	0.113856	-0.046020
O201	O	1.023460	0.114729	0.172414
H202	H	1.108669	0.115573	0.145489
O203	O	1.615863	0.364829	0.100710
H204	H	1.569467	0.426935	0.131412
H205	H	0.996214	0.295111	-0.087019
H206	H	0.996846	0.416725	-0.080925
H207	H	1.018187	0.409271	0.122262
O208	O	0.815762	0.768272	-0.474927
H209	H	0.759873	0.744304	-0.469545
H210	H	1.017565	0.287662	0.116162
H211	H	1.021245	-0.015203	0.151069
H212	H	1.173243	0.643411	-0.435372
H213	H	0.761818	0.787116	-0.284239
O214	O	1.287129	0.603627	-0.648079
H215	H	1.362467	0.577317	-0.710384
