data_functionalizedCrystal
_audit_creation_method	'MofGen! by Chris Wilmer'
_symmetry_space_group_name_H-M	'P1'
_symmetry_Int_Tables_number	1
_symmetry_cell_setting	triclinic
loop_
_symmetry_equiv_pos_as_xyz
  x,y,z
_cell_length_a	17.077404
_cell_length_b	17.638516
_cell_length_c	17.077396
_cell_angle_alpha	78.825117
_cell_angle_beta	90.021444
_cell_angle_gamma	101.242040
loop_
_atom_site_label
_atom_site_type_symbol
_atom_site_fract_x
_atom_site_fract_y
_atom_site_fract_z
Zn1	Zn	1.136821	-0.314722	0.507014
Zn2	Zn	1.110169	-0.446912	0.402264
Zn3	Zn	1.005548	-0.314746	0.375762
Zn4	Zn	0.978972	-0.446860	0.533473
O5	O	1.057878	-0.380810	0.454628
O6	O	1.243130	-0.332269	0.493136
O7	O	1.096259	-0.429411	0.288908
O8	O	1.045238	-0.204130	0.371009
O9	O	1.223549	-0.429389	0.416177
O10	O	1.141684	-0.204113	0.467439
O11	O	1.019395	-0.332309	0.269437
O12	O	0.892178	-0.332259	0.396665
O13	O	0.999943	-0.429301	0.639803
O14	O	0.872653	-0.429323	0.512534
O15	O	1.115914	-0.332220	0.620364
O16	O	1.070489	-0.557517	0.441833
O17	O	0.974099	-0.557480	0.538232
C18	C	0.853934	-0.380789	0.454595
C19	C	0.766682	-0.380799	0.454603
C20	C	0.401036	-0.330353	0.494832
C21	C	0.483018	-0.330347	0.494822
C22	C	0.513828	-0.380827	0.454651
C23	C	0.462650	-0.431321	0.414494
C24	C	0.380669	-0.431330	0.414509
C25	C	0.633525	-0.431297	0.414464
C26	C	0.715512	-0.431287	0.414447
C27	C	0.735873	-0.330314	0.494777
C28	C	0.653892	-0.330323	0.494792
C29	C	0.602721	-0.380817	0.454634
C30	C	1.016539	-0.586179	0.495796
C31	C	0.998927	-0.674037	0.513435
C32	C	1.192152	-0.962950	0.320691
C33	C	1.175588	-1.045506	0.337278
C34	C	1.075133	-1.045511	0.437578
C35	C	1.091686	-0.962954	0.420997
C36	C	1.150197	-0.921680	0.362554
C37	C	1.049730	-0.921683	0.462860
C38	C	1.066284	-0.839133	0.446283
C39	C	1.124794	-0.797854	0.387843
C40	C	1.166751	-0.839130	0.345977
C41	C	0.991224	-0.962959	0.521307
C42	C	0.949268	-0.921688	0.563169
C43	C	0.965818	-0.839137	0.546589
C44	C	1.024328	-0.797857	0.488149
C45	C	0.923862	-0.797861	0.588455
C46	C	0.940416	-0.715311	0.571878
C47	C	1.040882	-0.715307	0.471572
C48	C	1.262617	-0.380832	0.454662
C49	C	1.349865	-0.380842	0.454676
C50	C	1.057937	-0.380752	0.659361
C51	C	1.057962	-0.380727	0.746606
C52	C	1.099399	-0.174639	0.413316
C53	C	1.117092	-0.086782	0.395711
C54	C	1.057875	-0.380811	0.250680
C55	C	1.058047	-0.380613	0.163391
C56	C	1.118351	-0.330173	0.777474
C57	C	1.118366	-0.330146	0.859449
C58	C	1.057994	-0.380679	0.910555
C59	C	0.997599	-0.431236	0.879682
C60	C	0.997582	-0.431257	0.797707
C61	C	0.997640	-0.431188	1.050542
C62	C	0.997658	-0.431168	1.132523
C63	C	1.118424	-0.330077	1.112285
C64	C	1.118407	-0.330099	1.030310
C65	C	1.058012	-0.380657	0.999442
H66	H	0.777542	-0.289199	0.527475
F67	F	0.748297	-0.485031	0.371713
H68	H	0.948451	-0.472345	1.025411
F69	F	0.933399	-0.484943	1.186911
H70	H	1.209761	-1.079105	0.303187
F71	F	0.933344	-0.485013	0.934074
H72	H	0.375958	-0.289242	0.527539
F73	F	1.182701	-0.276270	1.145137
H74	H	1.214390	-0.805523	0.298380
F75	F	0.495442	-0.485049	0.371745
H76	H	0.591862	-0.472418	0.381766
F77	F	1.103144	-0.671376	0.409357
F78	F	0.933306	-0.485062	0.764855
F79	F	0.326209	-0.485072	0.371775
H80	H	0.524678	-0.289237	0.527525
H81	H	1.239792	-0.929343	0.273095
H82	H	1.138274	-0.730636	0.374350
F83	F	1.182611	-0.276392	0.723091
H84	H	1.027496	-1.079128	0.485165
F85	F	0.973350	-1.050816	0.538692
F86	F	0.887001	-0.965624	0.625370
F87	F	0.861600	-0.841798	0.650661
F88	F	0.621104	-0.276594	0.537543
F89	F	1.182665	-0.276321	0.975921
H90	H	0.906252	-0.681708	0.605968
H91	H	1.167542	-0.288982	0.884578
