data_functionalizedCrystal
_audit_creation_method	'MofGen! by Chris Wilmer'
_symmetry_space_group_name_H-M	'P1'
_symmetry_Int_Tables_number	1
_symmetry_cell_setting	triclinic
loop_
_symmetry_equiv_pos_as_xyz
  x,y,z
_cell_length_a	18.215407
_cell_length_b	18.101395
_cell_length_c	18.215399
_cell_angle_alpha	89.971163
_cell_angle_beta	89.983176
_cell_angle_gamma	90.031552
loop_
_atom_site_label
_atom_site_type_symbol
_atom_site_fract_x
_atom_site_fract_y
_atom_site_fract_z
Zn1	Zn	1.125018	-0.294811	-0.416124
Zn2	Zn	1.625018	0.205189	0.083876
Zn3	Zn	1.124920	-0.418662	-0.293061
Zn4	Zn	1.624920	0.081338	0.206939
Zn5	Zn	1.001957	-0.294840	-0.293071
Zn6	Zn	1.501957	0.205160	0.206929
Zn7	Zn	1.001903	-0.418616	-0.416086
Zn8	Zn	1.501903	0.081384	0.083914
O9	O	1.063450	-0.356732	-0.354585
O10	O	1.563450	0.143268	0.145415
O11	O	1.227989	-0.311247	-0.399811
O12	O	1.727989	0.188753	0.100189
O13	O	1.108590	-0.402269	-0.190078
O14	O	1.608590	0.097731	0.309922
O15	O	1.018345	-0.191203	-0.309415
O16	O	1.518345	0.308797	0.190585
O17	O	1.227917	-0.402240	-0.309397
O18	O	1.727917	0.097760	0.190603
O19	O	1.108758	-0.191182	-0.399821
O20	O	1.608758	0.308818	0.100179
O21	O	1.018250	-0.311297	-0.190085
O22	O	1.518250	0.188703	0.309915
O23	O	0.898966	-0.311252	-0.309378
O24	O	1.398966	0.188748	0.190622
O25	O	1.018254	-0.402161	-0.519075
O26	O	1.518254	0.097839	-0.019075
O27	O	0.898926	-0.402190	-0.399756
O28	O	1.398926	0.097810	0.100244
O29	O	1.108706	-0.311202	-0.519103
O30	O	1.608706	0.188798	-0.019103
O31	O	1.108538	-0.522289	-0.309360
O32	O	1.608538	-0.022289	0.190640
O33	O	1.018158	-0.522255	-0.399746
O34	O	1.518158	-0.022255	0.100254
C35	C	0.872243	-0.356720	-0.354564
C36	C	1.372243	0.143280	0.145436
C37	C	0.790445	-0.356732	-0.354573
C38	C	1.290445	0.143268	0.145427
C39	C	0.602249	-0.404158	-0.401573
C40	C	1.102249	0.095842	0.098427
C41	C	0.525391	-0.404160	-0.401583
C42	C	1.025391	0.095840	0.098417
C43	C	0.525402	-0.309320	-0.307613
C44	C	1.025402	0.190680	0.192387
C45	C	0.602260	-0.309315	-0.307608
C46	C	1.102260	0.190685	0.192392
C47	C	0.640681	-0.356738	-0.354587
C48	C	1.140681	0.143262	0.145413
C49	C	0.486965	-0.356746	-0.354601
C50	C	0.986965	0.143254	0.145399
C51	C	0.403631	-0.356748	-0.354611
C52	C	0.903631	0.143252	0.145389
C53	C	0.724020	-0.356735	-0.354579
C54	C	1.224020	0.143265	0.145421
C55	C	1.063351	-0.549143	-0.354564
C56	C	1.563351	-0.049143	0.145436
C57	C	1.063376	-0.631457	-0.354579
C58	C	1.563376	-0.131457	0.145421
C59	C	1.063538	-0.930548	-0.354619
C60	C	1.563538	-0.430548	0.145381
C61	C	1.006805	-0.899232	-0.411628
C62	C	1.506805	-0.399232	0.088372
C63	C	1.006536	-0.813614	-0.411450
C64	C	1.506536	-0.313614	0.088550
C65	C	1.063458	-0.782165	-0.354600
C66	C	1.563458	-0.282165	0.145400
C67	C	1.042464	-0.813319	-0.277038
C68	C	1.542464	-0.313319	0.222962
C69	C	1.042098	-0.898964	-0.277380
C70	C	1.542098	-0.398964	0.222620
C71	C	1.141388	-0.898890	-0.374487
C72	C	1.641388	-0.398890	0.125513
C73	C	1.140931	-0.813239	-0.376188
C74	C	1.640931	-0.313239	0.123812
C75	C	1.063414	-0.698306	-0.354584
C76	C	1.563414	-0.198306	0.145416
C77	C	1.063580	-1.014407	-0.354629
C78	C	1.563580	-0.514407	0.145371
C79	C	1.255403	-0.356746	-0.354607
C80	C	1.755403	0.143254	0.145393
C81	C	1.337201	-0.356751	-0.354616
C82	C	1.837201	0.143249	0.145384
C83	C	1.063484	-0.356673	-0.546538
C84	C	1.563484	0.143327	-0.046538
C85	C	1.063499	-0.356648	-0.628337
C86	C	1.563499	0.143352	-0.128337
C87	C	1.063569	-0.163570	-0.354623
C88	C	1.563569	0.336430	0.145377
C89	C	1.063619	-0.081256	-0.354639
C90	C	1.563619	0.418744	0.145361
C91	C	1.016499	-0.309247	-0.816536
C92	C	1.516499	0.190753	-0.316536
C93	C	1.016512	-0.309232	-0.893395
C94	C	1.516512	0.190768	-0.393395
C95	C	1.110588	-0.403961	-0.893376
C96	C	1.610588	0.096039	-0.393376
C97	C	1.110571	-0.403979	-0.816519
C98	C	1.610571	0.096021	-0.316519
C99	C	1.063527	-0.356618	-0.778101
C100	C	1.563527	0.143382	-0.278101
C101	C	1.063557	-0.356585	-0.931817
C102	C	1.563557	0.143415	-0.431817
C103	C	1.063571	-0.356569	-1.015151
C104	C	1.563571	0.143431	-0.515151
C105	C	1.063512	-0.356634	-0.694762
C106	C	1.563512	0.143366	-0.194762
C107	C	1.063457	-0.356738	-0.163379
C108	C	1.563457	0.143262	0.336621
C109	C	1.063585	-0.356554	-0.081580
C110	C	1.563585	0.143446	0.418420
H111	H	0.494110	-0.270712	-0.269363
H112	H	0.994110	0.229288	0.230637
H113	H	0.633530	-0.442771	-0.439829
H114	H	1.133530	0.057229	0.060171
H115	H	0.494103	-0.442773	-0.439845
H116	H	0.994103	0.057227	0.060155
H117	H	0.633552	-0.270695	-0.269346
H118	H	1.133552	0.229305	0.230654
H119	H	1.019670	-0.792548	-0.468960
H120	H	1.519670	-0.292548	0.031040
H121	H	0.948831	-0.793192	-0.398289
H122	H	1.448831	-0.293192	0.101711
H123	H	1.082486	-0.792950	-0.233404
H124	H	1.582486	-0.292950	0.266596
N125	N	1.158625	-0.452368	-0.777268
N126	N	1.658625	0.047632	-0.277268
N127	N	1.226537	-0.447455	-0.785860
N128	N	1.726537	0.052545	-0.285860
H129	H	1.260474	-0.481631	-0.758141
H130	H	1.760474	0.018369	-0.258141
N131	N	1.023161	-0.924958	-0.484016
N132	N	1.523161	-0.424958	0.015984
N133	N	1.076817	-0.966679	-0.494438
N134	N	1.576817	-0.466679	0.005562
H135	H	1.088384	-0.984834	-0.545567
H136	H	1.588384	-0.484834	-0.045567
N137	N	0.968441	-0.260887	-0.777281
N138	N	1.468441	0.239113	-0.277281
N139	N	0.968429	-0.260909	-0.708659
N140	N	1.468429	0.239091	-0.208659
H141	H	0.934485	-0.226756	-0.680935
H142	H	1.434485	0.273244	-0.180935
H143	H	0.978216	-0.270659	-0.924685
H144	H	1.478216	0.229341	-0.424685
H145	H	0.949451	-0.920819	-0.398633
H146	H	1.449451	-0.420819	0.101367
H147	H	0.985190	-0.919008	-0.260549
H148	H	1.485190	-0.419008	0.239451
N149	N	1.091671	-0.924949	-0.222260
N150	N	1.591671	-0.424949	0.277740
N151	N	1.126424	-0.879829	-0.183660
N152	N	1.626424	-0.379829	0.316340
H153	H	1.161426	-0.898177	-0.144725
H154	H	1.661426	-0.398177	0.355275
H155	H	1.148889	-0.442520	-0.924666
H156	H	1.648889	0.057480	-0.424666
H157	H	1.160529	-0.920437	-0.430081
H158	H	1.660529	-0.420437	0.069919
N159	N	0.971830	-0.786489	-0.255550
N160	N	1.471830	-0.286489	0.244450
N161	N	0.936831	-0.744433	-0.297224
N162	N	1.436831	-0.244433	0.202776
H163	H	0.886944	-0.725483	-0.282052
H164	H	1.386944	-0.225483	0.217948
H165	H	1.185435	-0.791828	-0.337692
H166	H	1.685435	-0.291828	0.162308
N167	N	1.160785	-0.787689	-0.447796
N168	N	1.660785	-0.287689	0.052204
N169	N	1.118078	-0.746745	-0.482840
N170	N	1.618078	-0.246745	0.017160
H171	H	1.132097	-0.728697	-0.533415
H172	H	1.632097	-0.228697	-0.033415
N173	N	1.194406	-0.924293	-0.322392
N174	N	1.694406	-0.424293	0.177608
N175	N	1.175040	-0.965532	-0.270835
N176	N	1.675040	-0.465532	0.229165
H177	H	1.212478	-0.983475	-0.234039
H178	H	1.712478	-0.483475	0.265961
