data_functionalizedCrystal
_audit_creation_method	'MofGen! by Chris Wilmer'
_symmetry_space_group_name_H-M	'P1'
_symmetry_Int_Tables_number	1
_symmetry_cell_setting	triclinic
loop_
_symmetry_equiv_pos_as_xyz
  x,y,z
_cell_length_a	10.654544
_cell_length_b	16.992695
_cell_length_c	16.053802
_cell_angle_alpha	87.258926
_cell_angle_beta	87.392810
_cell_angle_gamma	92.423463
loop_
_atom_site_label
_atom_site_type_symbol
_atom_site_fract_x
_atom_site_fract_y
_atom_site_fract_z
O1	O	1.682335	-0.106914	-0.069451
O2	O	2.182335	0.393086	0.430549
O3	O	1.317764	-0.117412	-0.069449
O4	O	1.817764	0.382588	0.430551
O5	O	1.498588	0.001987	-0.069443
O6	O	1.998588	0.501987	0.430557
O7	O	1.501512	-0.226314	-0.069457
O8	O	2.001512	0.273686	0.430543
O9	O	1.488632	-0.004558	0.069415
O10	O	1.988632	0.495442	0.569415
O11	O	1.307808	-0.123957	0.069410
O12	O	1.807808	0.376043	0.569410
O13	O	1.672380	-0.113459	0.069407
O14	O	2.172380	0.386541	0.569407
Zn15	Zn	1.488513	-0.119747	0.091455
Zn16	Zn	1.988513	0.380253	0.591455
Zn17	Zn	1.501630	-0.111124	-0.091497
Zn18	Zn	2.001630	0.388876	0.408503
O19	O	1.491556	-0.232858	0.069402
O20	O	1.991556	0.267142	0.569402
C21	C	1.265921	-0.119914	-0.000019
C22	C	1.765921	0.380086	0.499981
C23	C	1.126279	-0.117608	-0.000018
C24	C	1.626279	0.382392	0.499982
C25	C	1.115400	-0.124752	0.151370
C26	C	1.615400	0.375248	0.651370
C27	C	1.044358	-0.127243	0.227062
C28	C	1.544358	0.372757	0.727062
C29	C	0.913152	-0.125075	0.227058
C30	C	1.413152	0.374925	0.727058
C31	C	0.852987	-0.120413	0.151355
C32	C	1.352987	0.379587	0.651355
C33	C	0.924029	-0.117922	0.075664
C34	C	1.424029	0.382078	0.575664
C35	C	1.055237	-0.120093	0.075675
C36	C	1.555237	0.379907	0.575675
C37	C	0.934908	-0.110772	-0.075722
C38	C	1.434908	0.389228	0.424278
C39	C	1.066113	-0.112946	-0.075721
C40	C	1.566113	0.387054	0.424279
C41	C	0.874742	-0.106110	-0.151426
C42	C	1.374742	0.393890	0.348574
C43	C	0.945784	-0.103625	-0.227119
C44	C	1.445784	0.396375	0.272881
C45	C	1.076997	-0.105794	-0.227112
C46	C	1.576997	0.394206	0.272888
C47	C	1.137155	-0.110455	-0.151412
C48	C	1.637155	0.389545	0.348588
C49	C	1.489850	0.027948	-0.000014
C50	C	1.989850	0.527948	0.499986
C51	C	1.478630	0.115053	-0.000014
C52	C	1.978630	0.615053	0.499986
C53	C	1.724222	-0.110957	-0.000024
C54	C	2.224222	0.389043	0.499976
C55	C	1.863865	-0.113263	-0.000031
C56	C	2.363865	0.386737	0.499969
C57	C	1.500294	-0.258819	-0.000029
C58	C	2.000294	0.241181	0.499971
C59	C	1.511514	-0.345924	-0.000034
C60	C	2.011514	0.154076	0.499966
N61	N	1.479570	-0.125632	0.216315
N62	N	1.979570	0.374368	0.716315
C63	C	1.586881	0.164705	-0.000014
C64	C	2.086881	0.664705	0.499986
C65	C	1.576332	0.246549	-0.000022
C66	C	2.076332	0.746549	0.499978
C67	C	1.457531	0.278740	-0.000024
C68	C	1.957531	0.778740	0.499976
C69	C	1.349273	0.229081	-0.000027
C70	C	1.849273	0.729081	0.499973
C71	C	1.359823	0.147239	-0.000025
C72	C	1.859823	0.647239	0.499975
C73	C	1.413805	0.522576	-0.000035
C74	C	1.913805	1.022576	0.499965
C75	C	1.403263	0.604424	-0.000035
C76	C	1.903263	1.104424	0.499965
C77	C	1.630324	0.621886	-0.000032
C78	C	2.130324	1.121886	0.499968
C79	C	1.640863	0.540041	-0.000025
C80	C	2.140863	1.040041	0.499975
C81	C	1.532605	0.490391	-0.000032
C82	C	2.032605	0.990391	0.499968
N83	N	1.446746	0.362397	-0.000029
N84	N	1.946746	0.862397	0.499971
N85	N	1.543392	0.406735	-0.000032
N86	N	2.043392	0.906735	0.499968
N87	N	1.510583	-0.105233	-0.216357
N88	N	2.010583	0.394767	0.283643
C89	C	1.556543	-0.074845	0.260012
C90	C	2.056543	0.425155	0.760012
C91	C	1.550299	-0.078969	0.347418
C92	C	2.050299	0.421031	0.847418
C93	C	1.467089	-0.133884	0.391127
C94	C	1.967089	0.366116	0.891127
C95	C	1.390108	-0.184672	0.347425
C96	C	1.890108	0.315328	0.847425
C97	C	1.396346	-0.180544	0.260020
C98	C	1.896346	0.319456	0.760020
C99	C	1.439839	-0.151894	0.652536
C100	C	1.939839	0.348106	1.152536
C101	C	1.433610	-0.156020	0.739947
C102	C	1.933610	0.343980	1.239947
C103	C	1.593801	-0.050315	0.739934
C104	C	2.093801	0.449685	1.239934
C105	C	1.600036	-0.046195	0.652528
C106	C	2.100036	0.453805	1.152528
C107	C	1.523051	-0.096981	0.608833
C108	C	2.023051	0.403019	1.108833
N109	N	1.460708	-0.138102	0.480471
N110	N	1.960708	0.361898	0.980471
N111	N	1.529426	-0.092758	0.519491
N112	N	2.029426	0.407242	1.019491
H113	H	1.134833	-0.103764	-0.288749
H114	H	1.634833	0.396236	0.211251
O115	O	1.646286	-0.015613	0.212869
O116	O	2.146286	0.484387	0.712869
H117	H	1.698750	0.019015	0.257942
H118	H	2.198750	0.519015	0.757942
O119	O	0.711474	-0.118060	0.151336
O120	O	1.211474	0.381940	0.651336
H121	H	0.668674	-0.172406	0.183995
H122	H	1.168674	0.327594	0.683995
H123	H	1.322350	-0.229382	0.383018
H124	H	1.822350	0.270618	0.883018
H125	H	1.252542	0.255298	-0.000033
H126	H	1.752542	0.755298	0.499967
H127	H	1.377157	-0.193247	0.616967
H128	H	1.877157	0.306753	1.116967
O129	O	1.676828	0.004457	0.787067
O130	O	2.176828	0.504457	1.287067
H131	H	1.735744	0.043330	0.741988
H132	H	2.235744	0.543330	1.241988
O133	O	1.278670	-0.112798	-0.151412
O134	O	1.778670	0.387202	0.348588
H135	H	1.316757	-0.061534	-0.118730
H136	H	1.816757	0.438466	0.381270
O137	O	1.693087	0.300106	-0.000023
O138	O	2.193087	0.800106	0.499977
H139	H	1.689640	0.335155	0.056567
H140	H	2.189640	0.835155	0.556567
O141	O	1.715018	0.129986	-0.000020
O142	O	2.215018	0.629986	0.499980
H143	H	1.788518	0.178266	-0.000032
H144	H	2.288518	0.678266	0.499968
O145	O	1.769000	0.505321	-0.000043
O146	O	2.269000	1.005321	0.499957
H147	H	1.842505	0.553599	-0.000057
H148	H	2.342505	1.053599	0.499943
H149	H	1.718462	0.662320	-0.000028
H150	H	2.218462	1.162320	0.499972
H151	H	1.333665	-0.221899	0.224443
H152	H	1.833665	0.278101	0.724443
O153	O	1.633343	-0.024208	0.394551
O154	O	2.133343	0.475792	0.894551
H155	H	1.692271	0.014659	0.349473
H156	H	2.192271	0.514659	0.849473
H157	H	1.222233	-0.126529	0.151381
H158	H	1.722233	0.373471	0.651381
O159	O	1.275123	0.639150	-0.000046
O160	O	1.775123	1.139150	0.499954
H161	H	1.201616	0.590876	-0.000060
H162	H	1.701616	1.090876	0.499940
H163	H	0.767908	-0.104339	-0.151423
H164	H	1.267908	0.395661	0.348577
H165	H	1.325653	0.482159	-0.000041
H166	H	1.825653	0.982159	0.499959
O167	O	1.689773	0.013040	0.605384
O168	O	2.189773	0.513040	1.105384
H169	H	1.742240	0.047669	0.650454
H170	H	2.242240	0.547669	1.150454
O171	O	1.343853	-0.215245	0.787100
O172	O	1.843853	0.284755	1.287100
H173	H	1.246094	-0.203877	0.770355
H174	H	1.746094	0.296123	1.270355
O175	O	1.109245	-0.132279	0.308712
O176	O	1.609245	0.367721	0.808712
H177	H	1.212415	-0.133378	0.296003
H178	H	1.712415	0.366622	0.796003
O179	O	0.836271	-0.127862	0.308600
O180	O	1.336271	0.372138	0.808600
H181	H	0.864431	-0.076660	0.345048
H182	H	1.364431	0.423340	0.845048
O183	O	0.880897	-0.098599	-0.308764
O184	O	1.380897	0.401401	0.191236
H185	H	0.777727	-0.097510	-0.296049
H186	H	1.277727	0.402490	0.203951
H187	H	1.271673	0.106813	-0.000025
H188	H	1.771673	0.606813	0.499975
