data_functionalizedCrystal
_audit_creation_method	'MofGen! by Chris Wilmer'
_symmetry_space_group_name_H-M	'P1'
_symmetry_Int_Tables_number	1
_symmetry_cell_setting	triclinic
loop_
_symmetry_equiv_pos_as_xyz
  x,y,z
_cell_length_a	17.699077
_cell_length_b	12.503572
_cell_length_c	17.699083
_cell_angle_alpha	93.515225
_cell_angle_beta	96.718205
_cell_angle_gamma	93.510457
loop_
_atom_site_label
_atom_site_type_symbol
_atom_site_fract_x
_atom_site_fract_y
_atom_site_fract_z
O1	O	1.008451	0.089308	-0.091304
O2	O	1.508451	0.589308	0.408696
O3	O	0.788072	0.089314	-0.103761
O4	O	1.288072	0.589314	0.396239
O5	O	0.904487	0.089301	0.012657
O6	O	1.404487	0.589301	0.512657
O7	O	0.892035	0.089321	-0.207721
O8	O	1.392035	0.589321	0.292279
O9	O	0.895732	-0.089340	0.003887
O10	O	1.395732	0.410660	0.503887
O11	O	0.779317	-0.089327	-0.112530
O12	O	1.279317	0.410673	0.387470
O13	O	0.999695	-0.089333	-0.100073
O14	O	1.499695	0.410667	0.399927
Cu15	Cu	0.888707	-0.105641	-0.107103
Cu16	Cu	1.388707	0.394359	0.392897
Cu17	Cu	0.899061	0.105622	-0.096731
Cu18	Cu	1.399061	0.605622	0.403269
O19	O	0.883280	-0.089320	-0.216491
O20	O	1.383280	0.410680	0.283509
C21	C	0.755497	-0.000006	-0.107700
C22	C	1.255497	0.499994	0.392300
C23	C	0.671479	-0.000004	-0.106363
C24	C	1.171479	0.499996	0.393637
C25	C	0.627239	-0.097383	-0.110513
C26	C	1.127239	0.402617	0.389487
C27	C	0.548297	-0.097384	-0.109245
C28	C	1.048297	0.402616	0.390755
C29	C	0.513595	-0.000006	-0.103832
C30	C	1.013595	0.499994	0.396168
C31	C	0.557841	0.097380	-0.099679
C32	C	1.057841	0.597380	0.400321
C33	C	0.636783	0.097380	-0.100942
C34	C	1.136783	0.597380	0.399058
C35	C	0.239477	0.097382	-0.094586
C36	C	0.739477	0.597382	0.405414
C37	C	0.160529	0.097374	-0.093325
C38	C	0.660529	0.597374	0.406675
C39	C	0.150992	-0.097382	-0.102889
C40	C	0.650992	0.402618	0.397111
C41	C	0.229933	-0.097382	-0.104152
C42	C	0.729933	0.402618	0.395848
C43	C	0.274173	0.000003	-0.099995
C44	C	0.774173	0.500003	0.400005
C45	C	0.359772	0.000003	-0.101368
C46	C	0.859772	0.500003	0.398632
C47	C	0.427997	-0.000005	-0.102464
C48	C	0.927997	0.499995	0.397536
N49	N	0.881430	-0.254233	-0.114397
N50	N	1.381430	0.245767	0.385603
C51	C	0.870725	-0.473347	-0.125133
C52	C	1.370725	0.026653	0.374867
C53	C	0.917046	-0.526679	-0.078697
C54	C	1.417046	-0.026679	0.421303
C55	C	0.911090	-0.648601	-0.084671
C56	C	1.411090	-0.148601	0.415329
C57	C	0.876680	-0.351413	-0.119160
C58	C	1.376680	0.148587	0.380840
C59	C	1.032270	-0.000010	-0.096134
C60	C	1.532270	0.499990	0.403866
C61	C	1.116289	-0.000005	-0.097471
C62	C	1.616289	0.499995	0.402529
C63	C	0.899663	-0.000019	0.036469
C64	C	1.399663	0.499981	0.536469
C65	C	0.898325	-0.000020	0.120487
C66	C	1.398325	0.499980	0.620487
N67	N	0.906344	0.254214	-0.089431
N68	N	1.406344	0.754214	0.410569
C69	C	0.888104	0.000003	-0.240303
C70	C	1.388104	0.500003	0.259697
C71	C	0.889443	0.000010	-0.324320
C72	C	1.389443	0.500010	0.175680
C73	C	0.966658	-0.000023	0.169109
C74	C	1.466658	0.499977	0.669109
C75	C	0.965396	-0.000013	0.248053
C76	C	1.465396	0.499987	0.748053
C77	C	0.895800	-0.000008	0.278372
C78	C	1.395800	0.499992	0.778372
C79	C	0.827461	-0.000002	0.229744
C80	C	1.327461	0.499998	0.729744
C81	C	0.828724	-0.000004	0.150802
C82	C	1.328724	0.499996	0.650802
C83	C	0.822366	0.000007	0.548108
C84	C	1.322366	0.500007	1.048108
C85	C	0.821109	0.000006	0.627055
C86	C	1.321109	0.500006	1.127055
C87	C	0.959038	-0.000003	0.645358
C88	C	1.459038	0.499997	1.145358
C89	C	0.960301	-0.000004	0.566416
C90	C	1.460301	0.499996	1.066416
C91	C	0.891964	0.000008	0.517795
C92	C	1.391964	0.500008	1.017795
C93	C	0.893333	-0.000001	0.432196
C94	C	1.393333	0.499999	0.932196
C95	C	0.894430	-0.000008	0.363970
C96	C	1.394430	0.499992	0.863970
H97	H	0.655486	-0.176680	-0.114928
H98	H	1.155486	0.323320	0.385072
Cl99	Cl	0.802598	-0.544219	-0.193437
Cl100	Cl	1.302598	-0.044219	0.306563
H101	H	1.023331	-0.000034	0.144429
H102	H	1.523331	0.499966	0.644429
H103	H	0.132278	0.176676	-0.088916
H104	H	0.632278	0.676676	0.411084
Cl105	Cl	1.051305	-0.000021	0.309175
Cl106	Cl	1.551305	0.499979	0.809175
H107	H	0.512281	-0.176679	-0.112612
H108	H	1.012281	0.323321	0.387388
H109	H	0.770795	0.000009	0.254437
H110	H	1.270795	0.500009	0.754437
Cl111	Cl	0.273554	-0.219805	-0.110962
Cl112	Cl	0.773554	0.280195	0.389038
H113	H	0.114962	-0.176678	-0.106271
H114	H	0.614962	0.323322	0.393729
H115	H	0.275489	0.176679	-0.091198
H116	H	0.775489	0.676679	0.408802
Cl117	Cl	0.514219	0.219800	-0.092846
Cl118	Cl	1.014219	0.719800	0.407154
Cl119	Cl	0.692399	0.219804	-0.095720
Cl120	Cl	1.192399	0.719804	0.404280
H121	H	1.016974	-0.000014	0.541735
H122	H	1.516974	0.499986	1.041735
Cl123	Cl	1.044951	-0.000014	0.706487
Cl124	Cl	1.544951	0.499986	1.206487
H125	H	0.961176	-0.480771	-0.034457
H126	H	1.461176	0.019229	0.465543
H127	H	0.764431	0.000008	0.651738
H128	H	1.264431	0.500008	1.151738
H129	H	0.766721	0.000017	0.508529
H130	H	1.266721	0.500017	1.008529
H131	H	0.773080	-0.000001	0.111214
H132	H	1.273080	0.499999	0.611214
