data_functionalizedCrystal
_audit_creation_method	'MofGen! by Chris Wilmer'
_symmetry_space_group_name_H-M	'P1'
_symmetry_Int_Tables_number	1
_symmetry_cell_setting	triclinic
loop_
_symmetry_equiv_pos_as_xyz
  x,y,z
_cell_length_a	14.853566
_cell_length_b	13.930277
_cell_length_c	10.723023
_cell_angle_alpha	90.003517
_cell_angle_beta	84.050981
_cell_angle_gamma	90.004369
loop_
_atom_site_label
_atom_site_type_symbol
_atom_site_fract_x
_atom_site_fract_y
_atom_site_fract_z
O1	O	1.197229	0.079765	0.162908
O2	O	1.697229	0.579765	0.662908
O3	O	0.934872	0.079781	0.182317
O4	O	1.434872	0.579781	0.682317
O5	O	1.072102	0.079769	-0.009025
O6	O	1.572102	0.579769	0.490975
O7	O	1.059998	0.079777	0.354250
O8	O	1.559998	0.579777	0.854250
O9	O	1.072083	-0.079893	-0.009029
O10	O	1.572083	0.420107	0.490971
O11	O	0.934852	-0.079881	0.182313
O12	O	1.434852	0.420119	0.682313
O13	O	1.197210	-0.079897	0.162904
O14	O	1.697210	0.420103	0.662904
Zn15	Zn	1.066028	-0.105239	0.172608
Zn16	Zn	1.566028	0.394761	0.672608
Zn17	Zn	1.066053	0.105123	0.172613
Zn18	Zn	1.566053	0.605123	0.672613
O19	O	1.059979	-0.079885	0.354246
O20	O	1.559979	0.420115	0.854246
C21	C	0.901269	-0.000048	0.181436
C22	C	1.401269	0.499952	0.681436
C23	C	0.801171	-0.000042	0.178801
C24	C	1.301171	0.499958	0.678801
N25	N	1.066017	-0.248805	0.172603
N26	N	1.566017	0.251195	0.672603
C27	C	0.377938	0.086972	0.167660
C28	C	0.877938	0.586972	0.667660
C29	C	0.377938	-0.087097	0.167657
C30	C	0.877938	0.412903	0.667657
C31	C	0.471985	-0.087094	0.170131
C32	C	0.971985	0.412906	0.670131
C33	C	0.519013	-0.000057	0.171371
C34	C	1.019013	0.499943	0.671371
C35	C	0.471993	0.086978	0.170138
C36	C	0.971993	0.586978	0.670138
C37	C	0.519011	-0.174127	0.171377
C38	C	1.019011	0.325873	0.671377
C39	C	0.613064	-0.174128	0.173852
C40	C	1.113064	0.325872	0.673852
C41	C	0.660094	-0.087089	0.175084
C42	C	1.160094	0.412911	0.675084
C43	C	0.613068	-0.000051	0.173849
C44	C	1.113068	0.499949	0.673849
C45	C	0.660096	0.086987	0.175090
C46	C	1.160096	0.586987	0.675090
C47	C	0.613073	0.174026	0.173847
C48	C	1.113073	0.674026	0.673847
C49	C	0.519023	0.174017	0.171370
C50	C	1.019023	0.674017	0.671370
C51	C	0.754143	-0.087080	0.177560
C52	C	1.254143	0.412920	0.677560
C53	C	0.754151	0.086992	0.177568
C54	C	1.254151	0.586992	0.677568
C55	C	1.005285	-0.701069	0.257306
C56	C	1.505285	-0.201069	0.757306
C57	C	1.126846	-0.701049	0.087911
C58	C	1.626846	-0.201049	0.587911
C59	C	1.126836	-0.600553	0.087907
C60	C	1.626836	-0.100553	0.587907
C61	C	1.066050	-0.550310	0.172605
C62	C	1.566050	-0.050310	0.672605
C63	C	1.005274	-0.600564	0.257307
C64	C	1.505274	-0.100564	0.757307
C65	C	1.187616	-0.550292	0.003214
C66	C	1.687616	-0.050292	0.503214
C67	C	1.187608	-0.449790	0.003208
C68	C	1.687608	0.050210	0.503208
C69	C	1.126817	-0.399546	0.087901
C70	C	1.626817	0.100454	0.587901
C71	C	1.066039	-0.449805	0.172606
C72	C	1.566039	0.050195	0.672606
C73	C	1.005253	-0.399563	0.257304
C74	C	1.505253	0.100437	0.757304
C75	C	0.944469	-0.449820	0.342004
C76	C	1.444469	0.050180	0.842004
C77	C	0.944483	-0.550319	0.342001
C78	C	1.444483	-0.050319	0.842001
C79	C	1.126803	-0.299047	0.087905
C80	C	1.626803	0.200953	0.587905
C81	C	1.005242	-0.299058	0.257306
C82	C	1.505242	0.200942	0.757306
C83	C	1.230813	-0.000066	0.163785
C84	C	1.730813	0.499934	0.663785
C85	C	1.330910	-0.000065	0.166420
C86	C	1.830910	0.499935	0.666420
C87	C	1.071212	-0.000061	-0.055518
C88	C	1.571212	0.499939	0.444482
C89	C	1.068577	-0.000058	-0.194045
C90	C	1.568577	0.499942	0.305955
N91	N	1.066071	0.248689	0.172608
N92	N	1.566071	0.748689	0.672608
C93	C	1.067412	0.082653	-0.255797
C94	C	1.567412	0.582653	0.244203
C95	C	1.064689	0.082658	-0.398973
C96	C	1.564689	0.582658	0.101027
C97	C	1.060869	-0.000053	0.400739
C98	C	1.560869	0.499947	0.900739
C99	C	1.063504	-0.000049	0.539266
C100	C	1.563504	0.499951	1.039266
H101	H	0.651375	0.244892	0.174866
H102	H	1.151375	0.744892	0.674866
C103	C	0.805875	0.182743	0.178928
C104	C	1.305875	0.682743	0.678928
N105	N	0.844832	0.254863	0.179953
N106	N	1.344832	0.754863	0.679953
C107	C	0.467291	0.269751	0.170010
C108	C	0.967291	0.769751	0.670010
N109	N	0.428322	0.341857	0.168990
N110	N	0.928322	0.841857	0.668990
H111	H	0.955793	-0.741991	0.326264
H112	H	1.455793	-0.241991	0.826264
H113	H	1.068427	0.153461	-0.202667
H114	H	1.568427	0.653461	0.297333
C115	C	0.877623	-0.605610	0.435156
C116	C	1.377623	-0.105610	0.935156
N117	N	0.827263	-0.647259	0.505318
N118	N	1.327263	-0.147259	1.005318
H119	H	1.064510	-0.070865	-0.407638
H120	H	1.564510	0.429135	0.092362
C121	C	1.193708	-0.756319	-0.005252
C122	C	1.693708	-0.256319	0.494748
N123	N	1.244068	-0.797952	-0.075429
N124	N	1.744068	-0.297952	0.424571
H125	H	0.651342	-0.245000	0.174862
H126	H	1.151342	0.255000	0.674862
C127	C	0.326213	0.182711	0.166292
C128	C	0.826213	0.682711	0.666292
N129	N	0.287252	0.254822	0.165262
N130	N	0.787252	0.754822	0.665262
H131	H	1.237111	-0.591203	-0.065739
H132	H	1.737111	-0.091203	0.434261
H133	H	0.894980	-0.408901	0.410972
H134	H	1.394980	0.091099	0.910972
C135	C	1.254464	-0.394516	-0.089972
C136	C	1.754464	0.105484	0.410028
N137	N	1.304817	-0.352883	-0.160161
N138	N	1.804817	0.147117	0.339839
H139	H	0.480713	-0.244988	0.170375
H140	H	0.980713	0.255012	0.670375
H141	H	1.067552	-0.070866	-0.247173
H142	H	1.567552	0.429134	0.252827
H143	H	1.063692	0.153470	-0.452078
H144	H	1.563692	0.653470	0.047922
H145	H	0.339642	-0.157959	0.166655
H146	H	0.839642	0.342041	0.666655
C147	C	1.193662	-0.243769	-0.005258
C148	C	1.693662	0.256231	0.494742
N149	N	1.244021	-0.202134	-0.075436
N150	N	1.744021	0.297866	0.424564
H151	H	0.792424	-0.157946	0.178585
H152	H	1.292424	0.342054	0.678585
H153	H	0.955739	-0.258156	0.326273
H154	H	1.455739	0.241844	0.826273
