data_functionalizedCrystal
_audit_creation_method	'MofGen! by Chris Wilmer'
_symmetry_space_group_name_H-M	'P1'
_symmetry_Int_Tables_number	1
_symmetry_cell_setting	triclinic
loop_
_symmetry_equiv_pos_as_xyz
  x,y,z
_cell_length_a	11.026607
_cell_length_b	9.730223
_cell_length_c	11.026607
_cell_angle_alpha	90.000053
_cell_angle_beta	108.586017
_cell_angle_gamma	90.000202
loop_
_atom_site_label
_atom_site_type_symbol
_atom_site_fract_x
_atom_site_fract_y
_atom_site_fract_z
O1	O	1.726725	0.114287	0.533617
O2	O	2.226725	0.614287	1.033617
O3	O	1.360145	0.114289	0.472853
O4	O	1.860145	0.614289	0.972853
O5	O	1.513053	0.114283	0.319945
O6	O	2.013053	0.614283	0.819945
O7	O	1.573817	0.114292	0.686525
O8	O	2.073817	0.614292	1.186525
O9	O	1.513052	-0.114297	0.319949
O10	O	2.013052	0.385703	0.819949
O11	O	1.360144	-0.114291	0.472857
O12	O	1.860144	0.385709	0.972857
O13	O	1.726724	-0.114293	0.533621
O14	O	2.226724	0.385707	1.033621
Zn15	Zn	1.543433	-0.150584	0.503240
Zn16	Zn	2.043433	0.349416	1.003240
Zn17	Zn	1.543435	0.150580	0.503234
Zn18	Zn	2.043435	0.650580	1.003234
O19	O	1.573815	-0.114288	0.686529
O20	O	2.073815	0.385712	1.186529
C21	C	1.312485	-0.000001	0.461645
C22	C	1.812485	0.499999	0.961645
C23	C	1.170471	-0.000000	0.428228
C24	C	1.670471	0.500000	0.928228
N25	N	1.543442	-0.356121	0.503245
N26	N	2.043442	0.143879	1.003245
C27	C	1.116821	0.000003	0.520498
C28	C	1.616821	0.500003	1.020498
C29	C	0.970043	0.000004	0.485962
C30	C	1.470043	0.500004	0.985962
C31	C	1.611178	-0.428049	0.435571
C32	C	2.111178	0.071951	0.935571
C33	C	1.611171	-0.571932	0.435555
C34	C	2.111171	-0.071932	0.935555
C35	C	1.475690	-0.571945	0.570897
C36	C	1.975690	-0.071945	1.070897
C37	C	1.475690	-0.428065	0.570905
C38	C	1.975690	0.071935	1.070905
C39	C	1.678929	-0.356105	0.367912
C40	C	2.178929	0.143895	0.867912
C41	C	1.746672	-0.428034	0.300233
C42	C	2.246672	0.071966	0.800233
C43	C	1.746665	-0.571917	0.300217
C44	C	2.246665	-0.071917	0.800217
C45	C	1.678916	-0.643871	0.367879
C46	C	2.178916	-0.143871	0.867879
C47	C	1.774384	-0.000001	0.544828
C48	C	2.274384	0.499999	1.044828
C49	C	1.916398	0.000007	0.578245
C50	C	2.416398	0.500007	1.078245
C51	C	1.501843	-0.000005	0.272287
C52	C	2.001843	0.499995	0.772287
C53	C	1.468426	-0.000000	0.130273
C54	C	1.968426	0.500000	0.630273
N55	N	1.543435	0.356116	0.503221
N56	N	2.043435	0.856116	1.003221
C57	C	1.560695	0.000001	0.076624
C58	C	2.060695	0.500001	0.576624
C59	C	1.526160	0.000006	-0.070155
C60	C	2.026160	0.500006	0.429845
C61	C	1.585026	0.000004	0.734187
C62	C	2.085026	0.500004	1.234187
C63	C	1.618443	0.000008	0.876200
C64	C	2.118443	0.500008	1.376200
H65	H	1.179555	-0.000002	0.625061
H66	H	1.679555	0.499998	1.125061
H67	H	1.723013	0.000110	-0.061072
H68	H	2.223013	0.500110	0.438928
F69	F	1.697370	0.000008	0.158615
F70	F	2.197370	0.500008	0.658615
H71	H	1.801813	-0.630480	0.245101
H72	H	2.301813	-0.130480	0.745101
F73	F	1.403595	-0.648527	0.642905
F74	F	1.903595	-0.148527	1.142905
F75	F	1.403593	-0.351512	0.642928
F76	F	1.903593	0.148488	1.142928
H77	H	1.363863	0.000009	0.067540
H78	H	1.863863	0.500009	0.567540
F79	F	1.088480	-0.000013	0.291554
F80	F	1.588480	0.499987	0.791554
H81	H	0.907314	0.000037	0.381393
H82	H	1.407314	0.500037	0.881393
H83	H	1.678905	-0.761030	0.367850
H84	H	2.178905	-0.261030	0.867850
H85	H	0.979125	0.000001	0.682816
H86	H	1.479125	0.500001	1.182816
H87	H	1.421590	0.000016	-0.132884
H88	H	1.921590	0.500016	0.367116
F89	F	1.678945	-0.202973	0.367929
F90	F	2.178945	0.297027	0.867929
H91	H	1.801823	-0.369441	0.245137
H92	H	2.301823	0.130559	0.745137
