data_functionalizedCrystal
_audit_creation_method	'MofGen! by Chris Wilmer'
_symmetry_space_group_name_H-M	'P1'
_symmetry_Int_Tables_number	1
_symmetry_cell_setting	triclinic
loop_
_symmetry_equiv_pos_as_xyz
  x,y,z
_cell_length_a	16.959455
_cell_length_b	19.805406
_cell_length_c	16.959447
_cell_angle_alpha	89.981300
_cell_angle_beta	89.985678
_cell_angle_gamma	89.996914
loop_
_atom_site_label
_atom_site_type_symbol
_atom_site_fract_x
_atom_site_fract_y
_atom_site_fract_z
Zn1	Zn	1.208494	-0.269505	-0.446973
Zn2	Zn	1.208463	-0.382702	-0.314821
Zn3	Zn	1.076323	-0.269526	-0.314810
Zn4	Zn	1.076334	-0.382651	-0.446959
O5	O	1.142403	-0.326096	-0.380891
O6	O	1.319101	-0.284533	-0.429452
O7	O	1.190917	-0.367719	-0.204208
O8	O	1.093864	-0.174807	-0.332343
O9	O	1.319078	-0.367698	-0.332361
O10	O	1.190970	-0.174791	-0.429442
O11	O	1.093834	-0.284569	-0.204201
O12	O	0.965713	-0.284520	-0.332330
O13	O	1.093883	-0.367612	-0.557572
O14	O	0.965721	-0.367633	-0.429419
O15	O	1.190981	-0.284484	-0.557582
O16	O	1.190927	-0.477412	-0.332348
O17	O	1.093853	-0.477375	-0.429430
C18	C	0.937037	-0.326074	-0.380873
C19	C	0.849181	-0.326080	-0.380884
C20	C	1.142419	-0.149553	-0.380893
C21	C	1.142426	-0.074321	-0.380893
C22	C	1.142409	-0.501952	-0.380906
C23	C	1.142484	-0.577184	-0.380939
C24	C	0.477676	-0.282784	-0.330442
C25	C	0.477734	-0.369464	-0.431385
C26	C	0.560280	-0.369454	-0.431380
C27	C	0.601528	-0.326109	-0.380904
C28	C	0.560230	-0.282774	-0.330434
C29	C	0.601583	-0.412793	-0.481844
C30	C	0.684134	-0.412786	-0.481841
C31	C	0.725384	-0.369437	-0.431369
C32	C	0.684081	-0.326100	-0.380896
C33	C	0.725329	-0.282755	-0.330421
C34	C	0.684028	-0.239414	-0.279952
C35	C	0.601479	-0.239426	-0.279961
C36	C	0.807932	-0.369425	-0.431359
C37	C	0.807883	-0.282745	-0.330413
C38	C	1.348572	-0.326119	-0.380909
C39	C	1.436428	-0.326129	-0.380917
C40	C	1.142436	-0.326040	-0.587059
C41	C	1.142450	-0.326016	-0.674916
C42	C	1.091874	-0.038984	-0.330341
C43	C	1.091879	0.031704	-0.330350
C44	C	1.142440	0.067054	-0.380907
C45	C	1.192994	0.031712	-0.431465
C46	C	1.192985	-0.038975	-0.431460
C47	C	1.193033	0.316786	-0.431488
C48	C	1.193040	0.387478	-0.431488
C49	C	1.091928	0.387465	-0.330378
C50	C	1.091918	0.316778	-0.330373
C51	C	1.142469	0.281442	-0.380933
C52	C	1.142461	0.204793	-0.380924
C53	C	1.142452	0.143701	-0.380913
C54	C	1.091990	-0.369226	-1.046389
C55	C	1.193099	-0.282664	-1.046394
C56	C	1.193078	-0.282678	-0.963848
C57	C	1.142513	-0.325968	-0.922569
C58	C	1.091969	-0.369243	-0.963835
C59	C	1.243627	-0.239409	-0.922575
C60	C	1.243608	-0.239422	-0.840024
C61	C	1.193039	-0.282708	-0.798744
C62	C	1.142492	-0.325985	-0.840015
C63	C	1.091927	-0.369274	-0.798736
C64	C	1.041376	-0.412548	-0.840006
C65	C	1.041400	-0.412529	-0.922554
C66	C	1.193015	-0.282727	-0.716195
C67	C	1.091906	-0.369291	-0.716182
C68	C	1.142416	-0.326103	-0.175524
C69	C	1.142555	-0.325936	-0.087668
H70	H	0.841461	-0.247444	-0.289314
C71	C	0.556590	-0.192486	-0.225078
C72	C	0.509203	-0.230762	-0.174337
C73	C	0.467842	-0.187545	-0.123764
H74	H	0.524327	-0.163023	-0.255287
H75	H	0.592947	-0.166675	-0.194968
H76	H	0.472851	-0.256561	-0.204444
H77	H	0.541446	-0.260223	-0.144110
H78	H	0.504199	-0.161734	-0.093655
H79	H	0.435584	-0.158084	-0.153981
H80	H	0.435691	-0.213509	-0.089327
C81	C	1.036937	0.425868	-0.275621
C82	C	0.986269	0.466450	-0.320375
C83	C	0.935598	0.501828	-0.269961
H84	H	1.067079	0.453488	-0.241172
H85	H	1.006779	0.394712	-0.245523
H86	H	1.016423	0.497603	-0.350460
H87	H	0.956110	0.438847	-0.354822
H88	H	0.905440	0.470672	-0.239862
H89	H	0.965746	0.529444	-0.235514
H90	H	0.901209	0.529363	-0.300319
H91	H	1.234203	0.288024	-0.472649
H92	H	1.234175	-0.247496	-0.682597
C93	C	1.298566	-0.192542	-0.795170
C94	C	1.349228	-0.230867	-0.747774
C95	C	1.399862	-0.187700	-0.706447
H96	H	1.268397	-0.163046	-0.762916
H97	H	1.328730	-0.166763	-0.831547
H98	H	1.319067	-0.256634	-0.711402
H99	H	1.379413	-0.260360	-0.780009
H100	H	1.430026	-0.161921	-0.742823
H101	H	1.369687	-0.158206	-0.674197
H102	H	1.434247	-0.213697	-0.674290
H103	H	1.050723	-0.404537	-0.682578
H104	H	0.444045	-0.247495	-0.289353
C105	C	0.729115	-0.459807	-0.536556
C106	C	0.810236	-0.450531	-0.525739
C107	C	0.851697	-0.493838	-0.576124
H108	H	0.715692	-0.449998	-0.589713
H109	H	0.715642	-0.505290	-0.524902
H110	H	0.823703	-0.405058	-0.537398
H111	H	0.823682	-0.460344	-0.472591
H112	H	0.838225	-0.539321	-0.564470
H113	H	0.838268	-0.484026	-0.629278
H114	H	0.906742	-0.487555	-0.568786
H115	H	1.000210	-0.447797	-0.806386
H116	H	1.050831	-0.404456	-1.079995
H117	H	1.234159	0.060498	-0.472634
C118	C	0.728959	-0.192381	-0.225236
C119	C	0.810090	-0.201645	-0.236046
C120	C	0.851508	-0.158326	-0.185665
H121	H	0.715510	-0.202186	-0.172078
H122	H	0.715478	-0.146902	-0.236897
H123	H	0.823566	-0.247114	-0.224379
H124	H	0.823563	-0.191835	-0.289194
H125	H	0.838026	-0.112847	-0.197326
H126	H	0.838052	-0.168135	-0.132509
H127	H	0.906559	-0.164602	-0.192997
C128	C	1.247835	0.425824	-0.486520
C129	C	1.230610	0.408668	-0.564724
C130	C	1.281059	0.443987	-0.615438
H131	H	1.300971	0.414260	-0.475070
H132	H	1.240593	0.472990	-0.479331
H133	H	1.237858	0.361513	-0.571909
H134	H	1.177483	0.420234	-0.576199
H135	H	1.273817	0.491153	-0.608249
H136	H	1.334192	0.432420	-0.603981
H137	H	1.269374	0.432356	-0.668505
H138	H	0.444145	-0.404757	-0.472475
C139	C	1.247914	-0.235695	-1.091351
C140	C	1.237104	-0.244934	-1.172477
C141	C	1.287580	-0.201670	-1.213919
H142	H	1.301049	-0.245567	-1.077914
H143	H	1.236339	-0.190203	-1.077878
H144	H	1.248684	-0.290415	-1.185945
H145	H	1.183978	-0.235057	-1.185938
H146	H	1.276006	-0.156178	-1.200445
H147	H	1.340713	-0.211545	-1.200475
H148	H	1.280247	-0.207928	-1.268967
H149	H	0.841556	-0.404715	-0.472448
C150	C	1.036891	-0.077239	-0.275419
C151	C	0.992605	-0.031159	-0.231165
C152	C	0.941936	-0.066372	-0.180571
H153	H	1.067028	-0.104829	-0.240908
H154	H	1.002409	-0.104787	-0.305634
H155	H	1.027082	-0.003622	-0.200953
H156	H	0.962452	-0.003567	-0.265655
H157	H	0.907454	-0.093920	-0.210786
H158	H	0.972079	-0.093961	-0.146066
H159	H	0.911877	-0.035112	-0.150545
H160	H	1.234143	-0.067746	-0.472631
H161	H	0.567993	-0.448087	-0.522933
C162	C	0.986608	-0.459484	-0.967505
C163	C	0.997468	-0.450216	-1.048632
C164	C	0.947016	-0.493465	-1.090067
H165	H	0.933464	-0.449618	-0.954076
H166	H	0.998175	-0.504981	-0.954018
H167	H	0.985896	-0.404730	-1.062114
H168	H	1.050601	-0.460088	-1.062084
H169	H	0.958583	-0.538962	-1.076580
H170	H	0.893875	-0.483595	-1.076632
H171	H	0.954383	-0.487188	-1.145116
C172	C	1.037025	0.070192	-0.275549
C173	C	1.047834	0.139663	-0.286390
C174	C	0.997305	0.175139	-0.235927
H175	H	1.048535	0.058678	-0.222408
H176	H	0.983900	0.058654	-0.287117
H177	H	1.100947	0.151197	-0.274816
H178	H	1.036318	0.151198	-0.339520
H179	H	0.944180	0.163600	-0.247495
H180	H	1.008820	0.163618	-0.182790
H181	H	1.004627	0.222278	-0.243281
C182	C	1.036935	0.278520	-0.275452
C183	C	0.992648	0.324598	-0.231197
C184	C	0.941979	0.289381	-0.180605
H185	H	1.067073	0.250929	-0.240943
H186	H	1.002455	0.250972	-0.305669
H187	H	1.027124	0.352134	-0.200982
H188	H	0.962494	0.352190	-0.265685
H189	H	0.907499	0.261833	-0.210822
H190	H	0.972123	0.261791	-0.146101
H191	H	0.911919	0.320639	-0.150577
C192	C	1.298477	-0.192305	-0.967295
C193	C	1.281287	-0.125337	-0.947210
C194	C	1.331806	-0.081926	-0.988389
H195	H	1.291293	-0.198402	-1.022380
H196	H	1.351596	-0.202181	-0.953755
H197	H	1.228181	-0.115465	-0.960756
H198	H	1.288475	-0.119219	-0.892133
H199	H	1.384925	-0.091802	-0.974848
H200	H	1.324618	-0.088029	-1.043471
H201	H	1.320154	-0.036484	-0.974761
