data_functionalizedCrystal
_audit_creation_method	'MofGen! by Chris Wilmer'
_symmetry_space_group_name_H-M	'P1'
_symmetry_Int_Tables_number	1
_symmetry_cell_setting	triclinic
loop_
_symmetry_equiv_pos_as_xyz
  x,y,z
_cell_length_a	21.395362
_cell_length_b	12.759399
_cell_length_c	21.395355
_cell_angle_alpha	89.987509
_cell_angle_beta	89.956060
_cell_angle_gamma	90.031316
loop_
_atom_site_label
_atom_site_type_symbol
_atom_site_fract_x
_atom_site_fract_y
_atom_site_fract_z
Zn1	Zn	0.957926	-0.417943	-0.354612
Zn2	Zn	0.957856	-0.593607	-0.249845
Zn3	Zn	0.853141	-0.417992	-0.249813
Zn4	Zn	0.853138	-0.593629	-0.354550
O5	O	0.905515	-0.505793	-0.302205
O6	O	1.045595	-0.441215	-0.340754
O7	O	0.943938	-0.570323	-0.162163
O8	O	0.867071	-0.270964	-0.263727
O9	O	1.045543	-0.570275	-0.263782
O10	O	0.944056	-0.270928	-0.340722
O11	O	0.867004	-0.441299	-0.162139
O12	O	0.765463	-0.441320	-0.263667
O13	O	0.867066	-0.570312	-0.442236
O14	O	0.765460	-0.570360	-0.340617
O15	O	0.944053	-0.441236	-0.442282
O16	O	0.943935	-0.740631	-0.263722
O17	O	0.866999	-0.740647	-0.340648
C18	C	0.742728	-0.505848	-0.302132
C19	C	0.673086	-0.505897	-0.302116
C20	C	0.905476	-0.778760	-0.302196
C21	C	0.905516	-0.895537	-0.302213
C22	C	0.640389	-0.573177	-0.342124
C23	C	0.574953	-0.573152	-0.342152
C24	C	0.542218	-0.505857	-0.302161
C25	C	0.574924	-0.438564	-0.262150
C26	C	0.640358	-0.438584	-0.262128
C27	C	0.438492	-0.497393	-0.245755
C28	C	0.373059	-0.497380	-0.245776
C29	C	0.340397	-0.505788	-0.302230
C30	C	0.373177	-0.514231	-0.358664
C31	C	0.438611	-0.514251	-0.358642
C32	C	0.471266	-0.505827	-0.302181
C33	C	0.236747	-0.573044	-0.342271
C34	C	0.171310	-0.573011	-0.342300
C35	C	0.171282	-0.438428	-0.262293
C36	C	0.236718	-0.438456	-0.262270
C37	C	0.269446	-0.505769	-0.302258
C38	C	0.865529	-1.060230	-0.262111
C39	C	0.865487	-0.950506	-0.262100
C40	C	0.945586	-0.950297	-0.342344
C41	C	0.945624	-1.060019	-0.342358
C42	C	0.825501	-1.115193	-0.221991
C43	C	0.785431	-1.060441	-0.181860
C44	C	0.785389	-0.950717	-0.181849
C45	C	0.825418	-0.895745	-0.221968
C46	C	1.068939	-0.505738	-0.302278
C47	C	1.138580	-0.505714	-0.302310
C48	C	0.905567	-0.505771	-0.465628
C49	C	0.905589	-0.505762	-0.535270
C50	C	0.905572	-0.231759	-0.302228
C51	C	0.905596	-0.114983	-0.302238
C52	C	0.945675	-0.438550	-0.568008
C53	C	0.945674	-0.438504	-0.633443
C54	C	0.905594	-0.505691	-0.666138
C55	C	0.865501	-0.572908	-0.633393
C56	C	0.865499	-0.572944	-0.567958
C57	C	0.900633	-0.600292	-0.769808
C58	C	0.900640	-0.600258	-0.835241
C59	C	0.905598	-0.505580	-0.867959
C60	C	0.910562	-0.410932	-0.835236
C61	C	0.910560	-0.410968	-0.769802
C62	C	0.905592	-0.505659	-0.737091
C63	C	0.945685	-0.438312	-0.971649
C64	C	0.945680	-0.438265	-1.037086
C65	C	0.865510	-0.572678	-1.037034
C66	C	0.865512	-0.572716	-0.971599
C67	C	0.905603	-0.505534	-0.938910
C68	C	0.905500	-0.505738	-0.139418
C69	C	0.905599	-0.505451	-0.069777
H70	H	0.667032	-0.627988	-0.374686
H71	H	0.263396	-0.627849	-0.374835
H72	H	0.465080	-0.490542	-0.199781
C73	C	0.989620	-0.889831	-0.386468
C74	C	1.060855	-0.904788	-0.381445
C75	C	1.104892	-0.844323	-0.425567
C76	C	1.077694	-0.768901	-0.474712
C77	C	1.006456	-0.753940	-0.479736
C78	C	0.962418	-0.814405	-0.435614
H79	H	1.080991	-0.960623	-0.345064
H80	H	1.157627	-0.855398	-0.421848
H81	H	1.110293	-0.724141	-0.507373
H82	H	0.986319	-0.698105	-0.516118
H83	H	0.909683	-0.803330	-0.439334
C84	C	0.821417	-0.646822	-0.669354
C85	C	0.777324	-0.720763	-0.633340
C86	C	0.733238	-0.794679	-0.669300
C87	C	0.733244	-0.794652	-0.741275
C88	C	0.777338	-0.720708	-0.777294
C89	C	0.821425	-0.646793	-0.741333
H90	H	0.777318	-0.720785	-0.580056
H91	H	0.700596	-0.849417	-0.642637
H92	H	0.700608	-0.849369	-0.767896
H93	H	0.777344	-0.720686	-0.830578
H94	H	0.854066	-0.592054	-0.767997
H95	H	0.548267	-0.383770	-0.229590
H96	H	0.752837	-1.105205	-0.149200
H97	H	0.978321	-0.383527	-1.063740
H98	H	0.465297	-0.521123	-0.404592
H99	H	0.825379	-0.806401	-0.221957
C100	C	0.272690	-0.364465	-0.218248
C101	C	0.236687	-0.290446	-0.174254
C102	C	0.272659	-0.216453	-0.130229
C103	C	0.344633	-0.216478	-0.130199
C104	C	0.380641	-0.290500	-0.174195
C105	C	0.344669	-0.364493	-0.218220
H106	H	0.183403	-0.290425	-0.174275
H107	H	0.246003	-0.161657	-0.097661
H108	H	0.371262	-0.161704	-0.097609
H109	H	0.433924	-0.290521	-0.174174
H110	H	0.371324	-0.419289	-0.250789
C111	C	0.821404	-0.646888	-0.531945
C112	C	0.750178	-0.638332	-0.540888
C113	C	0.706084	-0.712279	-0.504873
C114	C	0.733214	-0.794782	-0.459916
C115	C	0.804443	-0.803342	-0.450971
C116	C	0.848538	-0.729395	-0.486985
H117	H	0.730092	-0.577255	-0.574170
H118	H	0.653355	-0.705942	-0.511495
H119	H	0.700572	-0.849522	-0.433256
H120	H	0.824530	-0.864418	-0.417689
H121	H	0.901266	-0.735732	-0.480363
H122	H	0.752758	-0.906138	-0.149177
H123	H	0.896602	-0.677325	-0.861879
C124	C	0.989697	-1.120252	-0.386499
C125	C	0.962544	-1.195694	-0.435665
C126	C	1.006616	-1.255926	-0.479811
C127	C	1.077841	-1.240716	-0.474791
C128	C	1.104998	-1.165271	-0.425623
C129	C	1.060927	-1.105039	-0.381477
H130	H	0.909815	-1.206955	-0.439383
H131	H	0.986511	-1.311775	-0.516208
H132	H	1.110466	-1.285303	-0.507470
H133	H	1.157727	-1.154009	-0.421905
H134	H	1.081031	-1.049190	-0.345080
C135	C	0.337258	-0.523485	-0.420769
C136	C	0.265283	-0.523458	-0.420799
C137	C	0.229362	-0.532719	-0.482901
C138	C	0.265416	-0.542008	-0.544973
C139	C	0.337395	-0.542036	-0.544945
C140	C	0.373316	-0.532775	-0.482843
H141	H	0.238591	-0.516582	-0.374848
H142	H	0.176078	-0.532699	-0.482922
H143	H	0.238825	-0.548864	-0.590945
H144	H	0.364087	-0.548913	-0.590897
H145	H	0.426600	-0.532795	-0.482823
C146	C	0.538975	-0.647171	-0.386159
C147	C	0.574975	-0.721213	-0.430142
C148	C	0.538999	-0.795234	-0.474147
C149	C	0.467024	-0.795214	-0.474168
C150	C	0.431021	-0.721169	-0.430183
C151	C	0.466996	-0.647148	-0.386178
H152	H	0.628258	-0.721230	-0.430128
H153	H	0.565651	-0.850047	-0.506708
H154	H	0.440393	-0.850009	-0.506743
H155	H	0.377737	-0.721152	-0.430197
H156	H	0.440344	-0.592335	-0.353617
H157	H	0.144689	-0.627796	-0.374883
H158	H	0.978319	-0.383844	-0.541397
C159	C	0.821420	-0.646584	-1.072991
C160	C	0.821419	-0.646548	-1.144966
C161	C	0.777325	-0.720452	-1.180926
C162	C	0.733233	-0.794393	-1.144910
C163	C	0.733232	-0.794432	-1.072931
C164	C	0.777325	-0.720527	-1.036972
H165	H	0.854060	-0.591810	-1.171630
H166	H	0.777326	-0.720423	-1.234209
H167	H	0.700592	-0.849101	-1.171530
H168	H	0.700590	-0.849169	-1.046267
H169	H	0.777325	-0.720556	-0.983688
H170	H	0.978315	-0.383766	-0.660103
H171	H	0.914600	-0.333903	-0.743161
H172	H	0.914601	-0.333836	-0.861874
H173	H	0.978326	-0.383603	-0.945033
H174	H	0.896428	-0.677371	-0.743174
H175	H	0.144630	-0.383631	-0.229735
C176	C	0.337005	-0.488103	-0.183701
C177	C	0.372928	-0.478839	-0.121604
C178	C	0.336876	-0.469566	-0.059526
C179	C	0.264901	-0.469557	-0.059547
C180	C	0.228974	-0.478821	-0.121646
C181	C	0.265026	-0.488094	-0.183723
H182	H	0.426212	-0.478846	-0.121587
H183	H	0.363471	-0.462708	-0.013556
H184	H	0.238212	-0.462692	-0.013593
H185	H	0.175690	-0.478814	-0.121663
H186	H	0.238430	-0.494952	-0.229694
C187	C	0.821413	-0.646654	-0.935588
C188	C	0.772227	-0.601158	-0.890573
C189	C	0.728120	-0.675093	-0.854565
C190	C	0.733198	-0.794523	-0.863573
C191	C	0.782386	-0.840025	-0.908590
C192	C	0.826494	-0.766091	-0.944598
H193	H	0.768466	-0.512743	-0.883903
H194	H	0.691707	-0.641408	-0.821240
H195	H	0.700548	-0.849254	-0.836917
H196	H	0.786148	-0.928441	-0.915260
H197	H	0.862906	-0.799775	-0.977923
H198	H	0.825531	-1.204536	-0.221994
C199	C	0.676329	-0.364579	-0.218111
C200	C	0.667394	-0.245151	-0.223345
C201	C	0.703365	-0.171148	-0.179326
C202	C	0.748272	-0.216573	-0.130073
C203	C	0.757209	-0.336006	-0.124838
C204	C	0.721237	-0.410009	-0.168857
H205	H	0.634149	-0.211520	-0.259807
H206	H	0.696749	-0.082736	-0.183202
H207	H	0.774900	-0.161791	-0.097488
H208	H	0.790453	-0.369638	-0.088376
H209	H	0.727853	-0.498422	-0.164981
