data_functionalizedCrystal
_audit_creation_method	'MofGen! by Chris Wilmer'
_symmetry_space_group_name_H-M	'P1'
_symmetry_Int_Tables_number	1
_symmetry_cell_setting	triclinic
loop_
_symmetry_equiv_pos_as_xyz
  x,y,z
_cell_length_a	16.992694
_cell_length_b	12.996460
_cell_length_c	16.992695
_cell_angle_alpha	90.006330
_cell_angle_beta	90.668223
_cell_angle_gamma	89.999814
loop_
_atom_site_label
_atom_site_type_symbol
_atom_site_fract_x
_atom_site_fract_y
_atom_site_fract_z
O1	O	1.050852	0.085439	0.166918
O2	O	1.550852	0.585439	0.666918
O3	O	0.822452	0.085469	0.165087
O4	O	1.322452	0.585469	0.665087
O5	O	0.935736	0.085446	0.051802
O6	O	1.435736	0.585446	0.551802
O7	O	0.937567	0.085462	0.280203
O8	O	1.437567	0.585462	0.780203
O9	O	0.935723	-0.085688	0.051795
O10	O	1.435723	0.414312	0.551795
O11	O	0.822439	-0.085665	0.165079
O12	O	1.322439	0.414335	0.665079
O13	O	1.050839	-0.085695	0.166911
O14	O	1.550839	0.414305	0.666911
Cu15	Cu	0.936638	-0.101306	0.165994
Cu16	Cu	1.436638	0.398694	0.665994
Cu17	Cu	0.936653	0.101080	0.166003
Cu18	Cu	1.436653	0.601080	0.666003
O19	O	0.937554	-0.085672	0.280195
O20	O	1.437554	0.414328	0.780195
C21	C	0.793085	-0.000094	0.162727
C22	C	1.293085	0.499906	0.662727
C23	C	0.705600	-0.000083	0.155699
C24	C	1.205600	0.499917	0.655699
N25	N	0.936632	-0.243653	0.165988
N26	N	1.436632	0.256347	0.665988
C27	C	0.659610	-0.000079	0.223517
C28	C	1.159610	0.499921	0.723517
C29	C	0.577409	-0.000093	0.216908
C30	C	1.077409	0.499907	0.716908
C31	C	0.541201	-0.000105	0.142480
C32	C	1.041201	0.499895	0.642480
C33	C	0.587198	-0.000112	0.074657
C34	C	1.087198	0.499888	0.574657
C35	C	0.669397	-0.000104	0.081267
C36	C	1.169397	0.499896	0.581267
C37	C	0.295886	-0.000134	0.115086
C38	C	0.795886	0.499866	0.615086
C39	C	0.213681	-0.000138	0.108481
C40	C	0.713681	0.499862	0.608481
C41	C	0.203898	-0.000122	0.250732
C42	C	0.703898	0.499878	0.750732
C43	C	0.286099	-0.000108	0.257335
C44	C	0.786099	0.499892	0.757335
C45	C	0.332089	-0.000121	0.189512
C46	C	0.832089	0.499879	0.689512
N47	N	0.457178	-0.000116	0.135723
N48	N	0.957178	0.499884	0.635723
N49	N	0.416110	-0.000116	0.196270
N50	N	0.916110	0.499884	0.696270
C51	C	0.936652	-0.663467	0.166004
C52	C	1.436652	-0.163467	0.666004
C53	C	0.936644	-0.546662	0.166002
C54	C	1.436644	-0.046662	0.666002
C55	C	0.936643	-0.453564	0.165997
C56	C	1.436643	0.046436	0.665997
C57	C	0.936634	-0.336751	0.165993
C58	C	1.436634	0.163249	0.665993
C59	C	1.080205	-0.000130	0.169270
C60	C	1.580205	0.499870	0.669270
C61	C	1.167690	-0.000134	0.176299
C62	C	1.667690	0.499866	0.676299
C63	C	0.933374	-0.000121	0.022439
C64	C	1.433374	0.499879	0.522439
C65	C	0.926345	-0.000119	-0.065046
C66	C	1.426345	0.499881	0.434954
N67	N	0.936664	0.243427	0.166004
N68	N	1.436664	0.743427	0.666004
C69	C	0.994163	-0.000129	-0.111037
C70	C	1.494163	0.499871	0.388963
C71	C	0.987554	-0.000119	-0.193238
C72	C	1.487554	0.499881	0.306762
C73	C	0.913127	-0.000105	-0.229446
C74	C	1.413127	0.499895	0.270554
C75	C	0.845303	-0.000092	-0.183449
C76	C	1.345303	0.499908	0.316551
C77	C	0.851913	-0.000096	-0.101250
C78	C	1.351913	0.499904	0.398750
C79	C	0.885732	-0.000088	-0.474760
C80	C	1.385732	0.499912	0.025240
C81	C	0.879127	-0.000087	-0.556966
C82	C	1.379127	0.499913	-0.056966
C83	C	1.021379	-0.000112	-0.566749
C84	C	1.521379	0.499888	-0.066749
C85	C	1.027982	-0.000121	-0.484547
C86	C	1.527982	0.499879	0.015453
C87	C	0.960159	-0.000103	-0.438558
C88	C	1.460159	0.499897	0.061442
N89	N	0.906369	-0.000098	-0.313468
N90	N	1.406369	0.499902	0.186532
N91	N	0.966917	-0.000103	-0.354537
N92	N	1.466917	0.499897	0.145463
C93	C	0.939917	-0.000103	0.309559
C94	C	1.439917	0.499897	0.809559
C95	C	0.946945	-0.000097	0.397044
C96	C	1.446945	0.499903	0.897044
H97	H	0.689084	-0.000069	0.284124
H98	H	1.189084	0.499931	0.784124
H99	H	0.315574	-0.000087	0.317942
H100	H	0.815574	0.499913	0.817942
C101	C	0.500437	0.087851	-0.015297
C102	C	1.000437	0.587851	0.484703
C103	C	0.547400	-0.000121	-0.007156
C104	C	1.047400	0.499879	0.492844
H105	H	0.475873	0.087849	-0.065809
H106	H	0.975873	0.587849	0.434191
H107	H	0.461284	0.087845	0.024141
H108	H	0.961284	0.587845	0.524141
H109	H	0.532307	0.147523	-0.009759
H110	H	1.032307	0.647523	0.490241
H111	H	0.515528	-0.059794	-0.012689
H112	H	1.015528	0.440206	0.487311
H113	H	0.586557	-0.000125	-0.046607
H114	H	1.086557	0.499875	0.453393
C115	C	0.073549	-0.000135	0.303766
C116	C	0.573549	0.499865	0.803766
C117	C	0.153344	-0.000122	0.325280
C118	C	0.653344	0.499878	0.825280
H119	H	0.042341	-0.000144	0.349792
H120	H	0.542341	0.499856	0.849792
H121	H	0.062087	0.059538	0.273470
H122	H	0.562087	0.559538	0.773470
H123	H	0.062100	-0.059819	0.273455
H124	H	0.562100	0.440181	0.773455
H125	H	0.164794	0.059567	0.355586
H126	H	0.664794	0.559567	0.855586
H127	H	0.164810	-0.059801	0.355589
H128	H	0.664810	0.440199	0.855589
H129	H	1.042779	-0.000129	-0.230680
H130	H	1.542779	0.499871	0.269320
H131	H	0.706842	-0.000107	0.026042
H132	H	1.206842	0.499893	0.526042
C133	C	0.231603	-0.000165	-0.031472
C134	C	0.731603	0.499835	0.468528
C135	C	0.173879	-0.000153	0.026664
C136	C	0.673879	0.499847	0.526664
H137	H	0.207029	-0.000177	-0.081978
H138	H	0.707029	0.499823	0.418022
H139	H	0.263460	0.059509	-0.025938
H140	H	0.763460	0.559509	0.474062
H141	H	0.263461	-0.059848	-0.025933
H142	H	0.763461	0.440152	0.474067
H143	H	0.142025	0.059534	0.021128
H144	H	0.642025	0.559534	0.521128
H145	H	0.142009	-0.059833	0.021127
H146	H	0.642009	0.440167	0.521127
C147	C	0.810634	0.087905	-0.376655
C148	C	1.310634	0.587905	0.123345
C149	C	0.811178	-0.000072	-0.424220
C150	C	1.311178	0.499928	0.075780
H151	H	0.764602	0.087915	-0.345456
H152	H	1.264602	0.587915	0.154544
H153	H	0.855895	0.087891	-0.343324
H154	H	1.355895	0.587891	0.156676
H155	H	0.811023	0.147574	-0.408930
H156	H	1.311023	0.647574	0.091070
H157	H	0.810795	-0.059742	-0.391944
H158	H	1.310795	0.440258	0.108056
H159	H	0.765905	-0.000068	-0.457554
H160	H	1.265905	0.499932	0.042446
H161	H	0.784703	-0.000075	-0.212936
H162	H	1.284703	0.499925	0.287064
C163	C	0.710641	-0.000079	-0.099831
C164	C	1.210641	0.499921	0.400169
C165	C	0.777366	-0.000087	-0.050693
C166	C	1.277366	0.499913	0.449307
H167	H	0.664619	-0.000076	-0.068618
H168	H	1.164619	0.499924	0.431382
H169	H	0.711028	0.059595	-0.132089
H170	H	1.211028	0.559595	0.367911
H171	H	0.711021	-0.059762	-0.132101
H172	H	1.211021	0.440238	0.367899
H173	H	0.776989	0.059600	-0.018426
H174	H	1.276989	0.559600	0.481574
H175	H	0.776978	-0.059767	-0.018422
H176	H	1.276978	0.440233	0.481578
C177	C	1.162649	-0.000134	-0.568161
C178	C	1.662649	0.499866	-0.068161
C179	C	1.095927	-0.000122	-0.617301
C180	C	1.595927	0.499878	-0.117301
H181	H	1.208673	-0.000142	-0.599371
H182	H	1.708673	0.499858	-0.099371
H183	H	1.162270	0.059539	-0.535892
H184	H	1.662270	0.559539	-0.035892
H185	H	1.162259	-0.059818	-0.535901
H186	H	1.662259	0.440182	-0.035901
H187	H	1.096315	0.059567	-0.649557
H188	H	1.596315	0.559567	-0.149557
H189	H	1.096306	-0.059801	-0.649584
H190	H	1.596306	0.440199	-0.149584
C191	C	1.117446	0.087834	-0.094059
C192	C	1.617446	0.587834	0.405941
C193	C	1.075976	-0.000138	-0.071238
C194	C	1.575976	0.499862	0.428762
H195	H	1.167953	0.087833	-0.069486
H196	H	1.667953	0.587833	0.430514
H197	H	1.123215	0.087826	-0.149589
H198	H	1.623215	0.587826	0.350411
H199	H	1.089299	0.147506	-0.078567
H200	H	1.589299	0.647506	0.421433
H201	H	1.104120	-0.059811	-0.086736
H202	H	1.604120	0.440189	0.413264
H203	H	1.070211	-0.000140	-0.015696
H204	H	1.570211	0.499860	0.484304
C205	C	0.575995	-0.000062	0.358178
C206	C	1.075995	0.499938	0.858178
C207	C	0.526856	-0.000084	0.291456
C208	C	1.026856	0.499916	0.791456
H209	H	0.544784	-0.000052	0.404202
H210	H	1.044784	0.499948	0.904202
H211	H	0.608262	-0.059732	0.357798
H212	H	1.108262	0.440268	0.857798
H213	H	0.608257	0.059624	0.357790
H214	H	1.108257	0.559624	0.857790
H215	H	0.494598	-0.059775	0.291841
H216	H	0.994598	0.440225	0.791841
H217	H	0.494575	0.059592	0.291836
H218	H	0.994575	0.559592	0.791836
H219	H	0.333322	-0.000145	0.059859
H220	H	0.833322	0.499855	0.559859
C221	C	1.117948	0.087839	-0.397777
C222	C	1.617948	0.587839	0.102223
C223	C	1.109796	-0.000129	-0.444752
C224	C	1.609796	0.499871	0.055248
H225	H	1.168456	0.087827	-0.373208
H226	H	1.668456	0.587827	0.126792
H227	H	1.112420	0.147508	-0.429635
H228	H	1.612420	0.647508	0.070365
H229	H	1.078501	0.087832	-0.358622
H230	H	1.578501	0.587832	0.141378
H231	H	1.149240	-0.000118	-0.483911
H232	H	1.649240	0.499882	0.016089
H233	H	1.115333	-0.059813	-0.412892
H234	H	1.615333	0.440187	0.087108
H235	H	0.818516	-0.000093	-0.586443
H236	H	1.318516	0.499907	-0.086443
