data_functionalizedCrystal
_audit_creation_method	'MofGen! by Chris Wilmer'
_symmetry_space_group_name_H-M	'P1'
_symmetry_Int_Tables_number	1
_symmetry_cell_setting	triclinic
loop_
_symmetry_equiv_pos_as_xyz
  x,y,z
_cell_length_a	19.188930
_cell_length_b	15.944551
_cell_length_c	14.421503
_cell_angle_alpha	90.010022
_cell_angle_beta	90.014354
_cell_angle_gamma	96.678240
loop_
_atom_site_label
_atom_site_type_symbol
_atom_site_fract_x
_atom_site_fract_y
_atom_site_fract_z
O1	O	0.090054	-1.114174	0.077026
O2	O	0.101156	-0.869583	0.077050
O3	O	-0.006033	-0.998937	0.077019
O4	O	0.197242	-0.984820	0.077057
O5	O	-0.006048	-0.998952	-0.077204
O6	O	0.101141	-0.869598	-0.077173
O7	O	0.090039	-1.114189	-0.077198
Cu8	Cu	0.095588	-0.991895	-0.091267
Cu9	Cu	0.095606	-0.991877	0.091120
O10	O	0.197227	-0.984835	-0.077167
C11	C	0.100687	-0.838298	-0.000059
C12	C	0.099306	-0.745057	-0.000050
C13	C	-0.032052	-0.998487	-0.000095
C14	C	-0.109560	-0.997115	-0.000103
N15	N	0.095613	-0.991865	0.219401
C16	C	-0.154288	-1.073016	-0.000115
C17	C	-0.227115	-1.071726	-0.000100
C18	C	-0.255211	-0.994532	-0.000092
C19	C	-0.210474	-0.918622	-0.000075
C20	C	-0.137648	-0.919913	-0.000080
N21	N	-0.363374	-0.935531	-0.052571
N22	N	-0.432556	-0.934310	-0.052568
C23	C	-0.474630	-0.990637	-0.000073
N24	N	-0.444911	-1.048244	0.052407
N25	N	-0.375723	-1.049468	0.052400
C26	C	-0.334178	-0.993123	-0.000085
C27	C	-0.598326	-1.065145	-0.000067
C28	C	-0.671154	-1.063852	-0.000046
C29	C	-0.654511	-0.910745	-0.000030
C30	C	-0.581685	-0.912040	-0.000041
C31	C	-0.553597	-0.989242	-0.000064
C32	C	0.223247	-0.985285	-0.000050
C33	C	0.300755	-0.986657	-0.000036
C34	C	0.090507	-1.145474	-0.000087
C35	C	0.091889	-1.238715	-0.000089
C36	C	0.029562	-0.530462	-0.000081
C37	C	0.061956	-0.469313	0.075965
C38	C	0.096806	-0.574341	-0.000062
C39	C	0.061957	-0.469350	-0.076087
C40	C	0.094386	-0.409437	-0.000077
C41	C	0.129218	-0.514420	0.076047
C42	C	0.129210	-0.514464	-0.076073
C43	C	0.161652	-0.453332	-0.000008
C44	C	0.098198	-0.669338	-0.000052
C45	C	0.093000	-0.314441	-0.000080
N46	N	0.095576	-0.991913	-0.219549
C47	C	0.145078	-0.931940	0.469063
C48	C	0.081937	-0.916065	0.530858
C49	C	0.095599	-0.991881	0.408562
C50	C	0.158727	-1.007733	0.530861
C51	C	0.095591	-0.991895	0.591284
C52	C	0.032426	-0.975969	0.468997
C53	C	0.109257	-1.067670	0.468994
C54	C	0.046071	-1.051827	0.530761
C55	C	0.095605	-0.991871	0.303301
C56	C	0.095578	-0.991905	0.696543
H57	H	-0.131424	-1.135880	-0.000131
H58	H	0.157644	-0.534295	0.140409
H59	H	0.157621	-0.534495	-0.140358
O60	O	0.235652	-0.409137	0.000043
H61	H	0.263396	-0.427185	0.063225
H62	H	0.212118	-1.021145	0.558018
H63	H	-0.233354	-0.855769	-0.000066
O64	O	-0.275372	-1.153593	-0.000126
H65	H	-0.243605	-1.207492	-0.000150
O66	O	-0.038317	-0.958118	0.433177
H67	H	-0.031860	-0.899888	0.390370
O68	O	-0.009413	-1.118986	0.566435
H69	H	-0.061734	-1.105629	0.541523
H70	H	0.033498	-0.449376	-0.140376
H71	H	-0.575456	-1.128007	-0.000081
H72	H	-0.101230	-0.858103	-0.000071
O73	O	0.124586	-1.152534	0.432961
H74	H	0.172645	-1.144190	0.389543
O75	O	-0.719402	-1.145720	-0.000067
H76	H	-0.687633	-1.199616	-0.000096
O77	O	0.024292	-0.442803	0.161111
H78	H	0.060689	-0.398651	0.202907
H79	H	-0.677386	-0.847892	-0.000019
H80	H	0.186876	-0.881210	0.441971
H81	H	0.070379	-0.851979	0.558038
H82	H	-0.026244	-0.564003	0.000003
O83	O	-0.533435	-0.830175	-0.000052
H84	H	-0.565204	-0.776279	-0.000054
