data_functionalizedCrystal
_audit_creation_method	'MofGen! by Chris Wilmer'
_symmetry_space_group_name_H-M	'P1'
_symmetry_Int_Tables_number	1
_symmetry_cell_setting	triclinic
loop_
_symmetry_equiv_pos_as_xyz
  x,y,z
_cell_length_a	16.120530
_cell_length_b	18.050590
_cell_length_c	18.050582
_cell_angle_alpha	89.975956
_cell_angle_beta	87.087467
_cell_angle_gamma	87.114013
loop_
_atom_site_label
_atom_site_type_symbol
_atom_site_fract_x
_atom_site_fract_y
_atom_site_fract_z
Zn1	Zn	1.274544	-0.353355	-0.477408
Zn2	Zn	1.774544	0.146645	0.022592
Zn3	Zn	1.274465	-0.477536	-0.353213
Zn4	Zn	1.774465	0.022464	0.146787
Zn5	Zn	1.135137	-0.347062	-0.346943
Zn6	Zn	1.635137	0.152938	0.153057
Zn7	Zn	1.135104	-0.471200	-0.471074
Zn8	Zn	1.635104	0.028800	0.028926
O9	O	1.204812	-0.412288	-0.412159
O10	O	1.704812	0.087712	0.087841
O11	O	1.391200	-0.375113	-0.466208
O12	O	1.891200	0.124887	0.033792
O13	O	1.255964	-0.460247	-0.248455
O14	O	1.755964	0.039753	0.251545
O15	O	1.153676	-0.243974	-0.364276
O16	O	1.653676	0.256026	0.135724
O17	O	1.391142	-0.466349	-0.374962
O18	O	1.891142	0.033651	0.125038
O19	O	1.256098	-0.248598	-0.460128
O20	O	1.756098	0.251402	0.039872
O21	O	1.153599	-0.364388	-0.243849
O22	O	1.653599	0.135612	0.256151
O23	O	1.018466	-0.358244	-0.358134
O24	O	1.518466	0.141756	0.141866
O25	O	1.153620	-0.455550	-0.575840
O26	O	1.653620	0.044450	-0.075840
O27	O	1.018442	-0.449448	-0.449333
O28	O	1.518442	0.050552	0.050667
O29	O	1.256066	-0.368969	-0.580493
O30	O	1.756066	0.131031	-0.080493
O31	O	1.255932	-0.580618	-0.368820
O32	O	1.755932	-0.080618	0.131180
O33	O	1.153544	-0.575963	-0.455413
O34	O	1.653544	-0.075963	0.044587
C35	C	0.988204	-0.402476	-0.402366
C36	C	1.488204	0.097524	0.097634
C37	C	0.895538	-0.398296	-0.398195
C38	C	1.395538	0.101704	0.101805
C39	C	1.204748	-0.605238	-0.412127
C40	C	1.704748	-0.105238	0.087873
C41	C	1.204797	-0.687786	-0.412141
C42	C	1.704797	-0.187786	0.087859
C43	C	0.725876	-0.390647	-0.390584
C44	C	1.225876	0.109353	0.109416
C45	C	0.684589	-0.433984	-0.433788
C46	C	1.184589	0.066016	0.066212
C47	C	0.590183	-0.429728	-0.429554
C48	C	1.090183	0.070272	0.070446
C49	C	0.820291	-0.394902	-0.394818
C50	C	1.320291	0.105098	0.105182
C51	C	1.260592	-0.889746	-0.365127
C52	C	1.760592	-0.389746	0.134873
C53	C	1.280952	-0.940005	-0.433825
C54	C	1.780952	-0.440005	0.066175
C55	C	1.204845	-0.838918	-0.412173
C56	C	1.704845	-0.338918	0.087827
C57	C	1.184569	-0.935745	-0.343509
C58	C	1.684569	-0.435745	0.156491
C59	C	1.204892	-0.984905	-0.412198
C60	C	1.704892	-0.484905	0.087802
C61	C	1.225244	-0.888091	-0.480909
C62	C	1.725244	-0.388091	0.019091
C63	C	1.128826	-0.883826	-0.390545
C64	C	1.628826	-0.383826	0.109455
C65	C	1.149157	-0.934061	-0.459289
C66	C	1.649157	-0.434061	0.040711
C67	C	1.204819	-0.754819	-0.412158
C68	C	1.704819	-0.254819	0.087842
C69	C	1.204917	-1.069003	-0.412220
C70	C	1.704917	-0.569003	0.087780
C71	C	1.422267	-0.422140	-0.421991
C72	C	1.922267	0.077860	0.078009
C73	C	1.514933	-0.426338	-0.426180
C74	C	2.014933	0.073662	0.073820
C75	C	1.204849	-0.412255	-0.605867
C76	C	1.704849	0.087745	-0.105867
C77	C	1.204864	-0.412240	-0.688413
C78	C	1.704864	0.087760	-0.188413
C79	C	1.204900	-0.218587	-0.412209
C80	C	1.704900	0.281413	0.087791
C81	C	1.204937	-0.136043	-0.412230
C82	C	1.704937	0.363957	0.087770
C83	C	1.149206	-0.459244	-0.934711
C84	C	1.649206	0.040756	-0.434711
C85	C	1.128829	-0.390585	-0.884404
C86	C	1.628829	0.109415	-0.384404
C87	C	1.204934	-0.412134	-0.985537
C88	C	1.704934	0.087866	-0.485537
C89	C	1.225237	-0.480840	-0.888758
C90	C	1.725237	0.019160	-0.388758
C91	C	1.204898	-0.412190	-0.839550
C92	C	1.704898	0.087810	-0.339550
C93	C	1.184518	-0.343437	-0.936316
C94	C	1.684518	0.156563	-0.436316
C95	C	1.280962	-0.433740	-0.940676
C96	C	1.780962	0.066260	-0.440676
C97	C	1.260614	-0.365035	-0.890393
C98	C	1.760614	0.134965	-0.390393
C99	C	1.204953	-0.412103	-1.069636
C100	C	1.704953	0.087897	-0.569636
C101	C	1.204879	-0.412213	-0.755453
C102	C	1.704879	0.087787	-0.255453
C103	C	1.204825	-0.412271	-0.219208
C104	C	1.704825	0.087729	0.280792
C105	C	1.204971	-0.412083	-0.136669
C106	C	1.704971	0.087917	0.363331
H107	H	0.720143	-0.474281	-0.473957
H108	H	1.220143	0.025719	0.026043
C109	C	1.367817	-0.458429	-0.973941
C110	C	1.867817	0.041571	-0.473941
N111	N	1.433236	-0.477033	-0.998998
N112	N	1.933236	0.022967	-0.498998
H113	H	0.690325	-0.350353	-0.350419
H114	H	1.190325	0.149647	0.149581
C115	C	1.324257	-0.311181	-0.864172
C116	C	1.824257	0.188819	-0.364172
N117	N	1.372189	-0.270616	-0.844419
N118	N	1.872189	0.229384	-0.344419
C119	C	1.041947	-0.365921	-0.851168
C120	C	1.541947	0.134079	-0.351168
N121	N	0.976506	-0.347348	-0.826138
N122	N	1.476506	0.152652	-0.326138
C123	C	1.324301	-0.863340	-0.311443
C124	C	1.824301	-0.363340	0.188557
N125	N	1.372289	-0.843448	-0.271013
N126	N	1.872289	-0.343448	0.228987
C127	C	1.161192	-0.264947	-0.964450
C128	C	1.661192	0.235053	-0.464450
N129	N	1.143618	-0.205830	-0.985643
N130	N	1.643618	0.294170	-0.485643
C131	C	1.085493	-0.960273	-0.513115
C132	C	1.585493	-0.460273	-0.013115
N133	N	1.037544	-0.980017	-0.553658
N134	N	1.537544	-0.480017	-0.053658
C135	C	1.248460	-0.559305	-0.860496
C136	C	1.748460	-0.059305	-0.360496
N137	N	1.265946	-0.618405	-0.839212
N138	N	1.765946	-0.118405	-0.339212
H139	H	1.242348	-0.867217	-0.539034
H140	H	1.742348	-0.367217	-0.039034
H141	H	1.345260	-0.964570	-0.452134
H142	H	1.845260	-0.464570	0.047866
C143	C	1.161371	-0.964060	-0.265046
C144	C	1.661371	-0.464060	0.234954
N145	N	1.143904	-0.985385	-0.205946
N146	N	1.643904	-0.485385	0.294054
C147	C	1.041978	-0.850608	-0.365781
C148	C	1.541978	-0.350608	0.134219
N149	N	0.976564	-0.825586	-0.347120
N150	N	1.476564	-0.325586	0.152880
C151	C	1.085512	-0.512957	-0.961114
C152	C	1.585512	-0.012957	-0.461114
N153	N	1.037536	-0.553410	-0.981003
N154	N	1.537536	-0.053410	-0.481003
