data_functionalizedCrystal
_audit_creation_method	'MofGen! by Chris Wilmer'
_symmetry_space_group_name_H-M	'P1'
_symmetry_Int_Tables_number	1
_symmetry_cell_setting	triclinic
loop_
_symmetry_equiv_pos_as_xyz
  x,y,z
_cell_length_a	27.732048
_cell_length_b	27.731996
_cell_length_c	26.210047
_cell_angle_alpha	89.998501
_cell_angle_beta	89.996535
_cell_angle_gamma	82.632022
loop_
_atom_site_label
_atom_site_type_symbol
_atom_site_fract_x
_atom_site_fract_y
_atom_site_fract_z
O1	O	0.640920	0.057512	-0.042370
O2	O	0.890920	0.307512	0.207630
O3	O	1.140920	0.557512	0.457630
O4	O	1.390920	0.807512	0.707630
O5	O	0.500125	0.066257	-0.042386
O6	O	0.750125	0.316257	0.207614
O7	O	1.000125	0.566257	0.457614
O8	O	1.250125	0.816257	0.707614
O9	O	0.574909	-0.008514	-0.042366
O10	O	0.824909	0.241486	0.207634
O11	O	1.074909	0.491486	0.457634
O12	O	1.324909	0.741486	0.707634
O13	O	0.566137	0.132283	-0.042389
O14	O	0.816137	0.382283	0.207611
O15	O	1.066137	0.632283	0.457611
O16	O	1.316137	0.882283	0.707611
O17	O	0.574894	-0.008503	0.042492
O18	O	0.824894	0.241497	0.292492
O19	O	1.074894	0.491497	0.542492
O20	O	1.324894	0.741497	0.792492
O21	O	0.500111	0.066269	0.042472
O22	O	0.750111	0.316269	0.292472
O23	O	1.000111	0.566269	0.542472
O24	O	1.250111	0.816269	0.792472
O25	O	0.640906	0.057523	0.042488
O26	O	0.890906	0.307523	0.292488
O27	O	1.140906	0.557523	0.542488
O28	O	1.390906	0.807523	0.792488
Cu29	Cu	0.570507	0.061897	0.050228
Cu30	Cu	0.820507	0.311897	0.300228
Cu31	Cu	1.070507	0.561897	0.550228
Cu32	Cu	1.320507	0.811897	0.800228
Cu33	Cu	0.570524	0.061883	-0.050126
Cu34	Cu	0.820524	0.311883	0.199874
Cu35	Cu	1.070524	0.561883	0.449874
Cu36	Cu	1.320524	0.811883	0.699874
O37	O	0.566122	0.132295	0.042469
O38	O	0.816122	0.382295	0.292469
O39	O	1.066122	0.632295	0.542469
O40	O	1.316122	0.882295	0.792469
C41	C	0.482111	0.066079	0.000041
C42	C	0.732111	0.316079	0.250041
C43	C	0.982111	0.566079	0.500041
C44	C	1.232111	0.816079	0.750041
C45	C	0.428456	0.065527	0.000035
C46	C	0.678456	0.315527	0.250035
C47	C	0.928456	0.565527	0.500035
C48	C	1.178456	0.815527	0.750035
C49	C	0.089634	0.106232	0.000051
C50	C	0.339634	0.356232	0.250051
C51	C	0.589634	0.606232	0.500051
C52	C	0.839634	0.856232	0.750051
C53	C	-0.112026	0.104180	0.000056
C54	C	0.137974	0.354180	0.250056
C55	C	0.387974	0.604180	0.500056
C56	C	0.637974	0.854180	0.750056
O57	O	-0.143288	0.141402	0.000072
O58	O	0.106712	0.391402	0.250072
O59	O	0.356712	0.641402	0.500072
O60	O	0.606712	0.891402	0.750072
N61	N	-0.131141	0.059844	0.000062
N62	N	0.118859	0.309844	0.250062
N63	N	0.368859	0.559844	0.500062
N64	N	0.618859	0.809844	0.750062
C65	C	-0.099838	0.016017	0.000070
C66	C	0.150162	0.266017	0.250070
C67	C	0.400162	0.516017	0.500070
C68	C	0.650162	0.766017	0.750070
O69	O	-0.120724	-0.021740	0.000081
O70	O	0.129276	0.228260	0.250081
O71	O	0.379276	0.478260	0.500081
O72	O	0.629276	0.728260	0.750081
C73	C	0.101820	0.018069	0.000069
C74	C	0.351820	0.268069	0.250069
C75	C	0.601820	0.518069	0.500069
C76	C	0.851820	0.768069	0.750069
C77	C	0.120933	0.062408	0.000058
C78	C	0.370933	0.312408	0.250058
C79	C	0.620933	0.562408	0.500058
C80	C	0.870933	0.812408	0.750058
C81	C	0.108747	0.150567	0.000040
C82	C	0.358747	0.400567	0.250040
C83	C	0.608747	0.650567	0.500040
C84	C	0.858747	0.900567	0.750040
C85	C	0.159159	0.151079	0.000036
C86	C	0.409159	0.401079	0.250036
C87	C	0.659159	0.651079	0.500036
C88	C	0.909159	0.901079	0.750036
C89	C	0.190457	0.107256	0.000043
C90	C	0.440457	0.357256	0.250043
C91	C	0.690457	0.607256	0.500043
C92	C	0.940457	0.857256	0.750043
C93	C	0.171344	0.062920	0.000054
C94	C	0.421344	0.312920	0.250054
C95	C	0.671344	0.562920	0.500054
C96	C	0.921344	0.812920	0.750054
C97	C	0.133122	-0.025757	0.000081
C98	C	0.383122	0.224243	0.250081
C99	C	0.633122	0.474243	0.500081
C100	C	0.883122	0.724243	0.750081
C101	C	0.183539	-0.025240	0.000082
C102	C	0.433539	0.224760	0.250082
C103	C	0.683539	0.474760	0.500082
C104	C	0.933539	0.724760	0.750082
C105	C	0.202652	0.019099	0.000071
C106	C	0.452652	0.269099	0.250071
C107	C	0.702652	0.519099	0.500071
C108	C	0.952652	0.769099	0.750071
C109	C	0.253055	0.019609	0.000057
C110	C	0.503055	0.269609	0.250057
C111	C	0.753055	0.519609	0.500057
C112	C	1.003055	0.769609	0.750057
N113	N	0.272171	0.063946	0.000050
N114	N	0.522171	0.313946	0.250050
N115	N	0.772171	0.563946	0.500050
N116	N	1.022171	0.813946	0.750050
C117	C	0.240872	0.107769	0.000043
C118	C	0.490872	0.357769	0.250043
C119	C	0.740872	0.607769	0.500043
C120	C	0.990872	0.857769	0.750043
C121	C	-0.205712	0.014943	0.000070
C122	C	0.044288	0.264943	0.250070
C123	C	0.294288	0.514943	0.500070
C124	C	0.544288	0.764943	0.750070
C125	C	-0.256126	0.014430	0.000069
C126	C	-0.006126	0.264430	0.250069
C127	C	0.243874	0.514430	0.500069
C128	C	0.493874	0.764430	0.750069
C129	C	-0.268310	0.102594	0.000056
C130	C	-0.018310	0.352594	0.250056
C131	C	0.231690	0.602594	0.500056
C132	C	0.481690	0.852594	0.750056
C133	C	-0.217895	0.103106	0.000052
C134	C	0.032105	0.353106	0.250052
C135	C	0.282105	0.603106	0.500052
C136	C	0.532105	0.853106	0.750052
C137	C	-0.186597	0.059280	0.000064
C138	C	0.063403	0.309280	0.250064
C139	C	0.313403	0.559280	0.500064
C140	C	0.563403	0.809280	0.750064
C141	C	0.346741	0.108842	0.000034
C142	C	0.596741	0.358842	0.250034
C143	C	0.846741	0.608842	0.500034
C144	C	1.096741	0.858842	0.750034
C145	C	0.397158	0.109350	0.000028
C146	C	0.647158	0.359350	0.250028
C147	C	0.897158	0.609350	0.500028
C148	C	1.147158	0.859350	0.750028
C149	C	0.409337	0.021187	0.000045
C150	C	0.659337	0.271187	0.250045
C151	C	0.909337	0.521187	0.500045
C152	C	1.159337	0.771187	0.750045
C153	C	0.358925	0.020678	0.000048
C154	C	0.608925	0.270678	0.250048
C155	C	0.858925	0.520678	0.500048
C156	C	1.108925	0.770678	0.750048
C157	C	0.327627	0.064510	0.000045
C158	C	0.577627	0.314510	0.250045
C159	C	0.827627	0.564510	0.500045
C160	C	1.077627	0.814510	0.750045
O161	O	0.284346	-0.017592	0.000046
O162	O	0.534346	0.232408	0.250046
O163	O	0.784346	0.482408	0.500046
O164	O	1.034346	0.732408	0.750046
O165	O	0.261767	0.145521	0.000044
O166	O	0.511767	0.395521	0.250044
O167	O	0.761767	0.645521	0.500044
O168	O	1.011767	0.895521	0.750044
C169	C	0.039222	0.105719	0.000055
C170	C	0.289222	0.355719	0.250055
C171	C	0.539222	0.605719	0.500055
C172	C	0.789222	0.855719	0.750055
C173	C	0.020109	0.061384	0.000066
C174	C	0.270109	0.311384	0.250066
C175	C	0.520109	0.561384	0.500066
C176	C	0.770109	0.811384	0.750066
C177	C	0.051408	0.017560	0.000073
C178	C	0.301408	0.267560	0.250073
C179	C	0.551408	0.517560	0.500073
C180	C	0.801408	0.767560	0.750073
C181	C	-0.030305	0.060871	0.000065
C182	C	0.219695	0.310871	0.250065
C183	C	0.469695	0.560871	0.500065
C184	C	0.719695	0.810871	0.750065
C185	C	-0.061604	0.104694	0.000058
C186	C	0.188396	0.354694	0.250058
C187	C	0.438396	0.604694	0.500058
C188	C	0.688396	0.854694	0.750058
C189	C	-0.042489	0.149030	0.000052
C190	C	0.207511	0.399030	0.250052
C191	C	0.457511	0.649030	0.500052
C192	C	0.707511	0.899030	0.750052
C193	C	0.007923	0.149543	0.000048
C194	C	0.257923	0.399543	0.250048
C195	C	0.507923	0.649543	0.500048
C196	C	0.757923	0.899543	0.750048
C197	C	0.032292	-0.026776	0.000079
C198	C	0.282292	0.223224	0.250079
C199	C	0.532292	0.473224	0.500079
C200	C	0.782292	0.723224	0.750079
C201	C	-0.018120	-0.027285	0.000082
C202	C	0.231880	0.222715	0.250082
C203	C	0.481880	0.472715	0.500082
C204	C	0.731880	0.722715	0.750082
C205	C	-0.049419	0.016539	0.000075
C206	C	0.200581	0.266539	0.250075
C207	C	0.450581	0.516539	0.500075
C208	C	0.700581	0.766539	0.750075
C209	C	0.574721	-0.026516	0.000064
C210	C	0.824721	0.223484	0.250064
C211	C	1.074721	0.473484	0.500064
C212	C	1.324721	0.723484	0.750064
C213	C	0.574179	-0.080172	0.000069
C214	C	0.824179	0.169828	0.250069
C215	C	1.074179	0.419828	0.500069
C216	C	1.324179	0.669828	0.750069
C217	C	0.570772	-0.412895	-0.046212
C218	C	0.820772	-0.162895	0.203788
C219	C	1.070772	0.087105	0.453788
C220	C	1.320772	0.337105	0.703788
C221	C	0.568711	-0.614553	-0.046221
C222	C	0.818711	-0.364553	0.203779
C223	C	1.068711	-0.114553	0.453779
C224	C	1.318711	0.135447	0.703779
O225	O	0.568430	-0.640629	-0.085561
O226	O	0.818430	-0.390629	0.164439
O227	O	1.068430	-0.140629	0.414439
O228	O	1.318430	0.109371	0.664439
N229	N	0.568447	-0.639764	0.000034
N230	N	0.818447	-0.389764	0.250034
N231	N	1.068447	-0.139764	0.500034
N232	N	1.318447	0.110236	0.750034
C233	C	0.568695	-0.614556	0.046296
C234	C	0.818695	-0.364556	0.296296
C235	C	1.068695	-0.114556	0.546296
C236	C	1.318695	0.135444	0.796296
O237	O	0.568418	-0.640626	0.085639
O238	O	0.818418	-0.390626	0.335639
O239	O	1.068418	-0.140626	0.585639
O240	O	1.318418	0.109374	0.835639
C241	C	0.570753	-0.412899	0.046304
C242	C	0.820753	-0.162899	0.296304
C243	C	1.070753	0.087101	0.546304
C244	C	1.320753	0.337101	0.796304
C245	C	0.571021	-0.387691	0.000046
C246	C	0.821021	-0.137691	0.250046
C247	C	1.071021	0.112309	0.500046
C248	C	1.321021	0.362309	0.750046
C249	C	0.571040	-0.387687	-0.092467
C250	C	0.821040	-0.137687	0.157533
C251	C	1.071040	0.112313	0.407533
C252	C	1.321040	0.362313	0.657533
C253	C	0.571558	-0.337276	-0.092464
C254	C	0.821558	-0.087276	0.157536
C255	C	1.071558	0.162724	0.407536
C256	C	1.321558	0.412724	0.657536
C257	C	0.571807	-0.312072	-0.046206
C258	C	0.821807	-0.062072	0.203794
C259	C	1.071807	0.187928	0.453794
C260	C	1.321807	0.437928	0.703794
C261	C	0.571539	-0.337280	0.000048
C262	C	0.821539	-0.087280	0.250048
C263	C	1.071539	0.162720	0.500048
C264	C	1.321539	0.412720	0.750048
C265	C	0.570997	-0.387692	0.092565
C266	C	0.820997	-0.137692	0.342565
C267	C	1.070997	0.112308	0.592565
C268	C	1.320997	0.362308	0.842565
C269	C	0.571511	-0.337274	0.092563
C270	C	0.821511	-0.087274	0.342563
C271	C	1.071511	0.162726	0.592563
C272	C	1.321511	0.412726	0.842563
C273	C	0.571779	-0.312066	0.046304
C274	C	0.821779	-0.062066	0.296304
C275	C	1.071779	0.187934	0.546304
C276	C	1.321779	0.437934	0.796304
C277	C	0.572307	-0.261665	0.046309
C278	C	0.822307	-0.011665	0.296309
C279	C	1.072307	0.238335	0.546309
C280	C	1.322307	0.488335	0.796309
N281	N	0.572571	-0.236454	0.000053
N282	N	0.822571	0.013546	0.250053
N283	N	1.072571	0.263546	0.500053
N284	N	1.322571	0.513546	0.750053
C285	C	0.572321	-0.261658	-0.046204
C286	C	0.822321	-0.011658	0.203796
C287	C	1.072321	0.238342	0.453796
C288	C	1.322321	0.488342	0.703796
C289	C	0.567616	-0.720430	0.046288
C290	C	0.817616	-0.470430	0.296288
C291	C	1.067616	-0.220430	0.546288
C292	C	1.317616	0.029570	0.796288
C293	C	0.567102	-0.770844	0.046286
C294	C	0.817102	-0.520844	0.296286
C295	C	1.067102	-0.270844	0.546286
C296	C	1.317102	-0.020844	0.796286
C297	C	0.567117	-0.770837	-0.046231
C298	C	0.817117	-0.520837	0.203769
C299	C	1.067117	-0.270837	0.453769
C300	C	1.317117	-0.020837	0.703769
C301	C	0.567634	-0.720422	-0.046229
C302	C	0.817634	-0.470422	0.203771
C303	C	1.067634	-0.220422	0.453771
C304	C	1.317634	0.029578	0.703771
C305	C	0.567880	-0.695219	0.000032
C306	C	0.817880	-0.445219	0.250032
C307	C	1.067880	-0.195219	0.500032
C308	C	1.317880	0.054781	0.750032
C309	C	0.573409	-0.155791	-0.046195
C310	C	0.823409	0.094209	0.203805
C311	C	1.073409	0.344209	0.453805
C312	C	1.323409	0.594209	0.703805
C313	C	0.573929	-0.105376	-0.046188
C314	C	0.823929	0.144624	0.203812
C315	C	1.073929	0.394624	0.453812
C316	C	1.323929	0.644624	0.703812
C317	C	0.573912	-0.105387	0.046329
C318	C	0.823912	0.144613	0.296329
C319	C	1.073912	0.394613	0.546329
C320	C	1.323912	0.644613	0.796329
C321	C	0.573394	-0.155798	0.046322
C322	C	0.823394	0.094202	0.296322
C323	C	1.073394	0.344202	0.546322
C324	C	1.323394	0.594202	0.796322
C325	C	0.573141	-0.180999	0.000056
C326	C	0.823141	0.069001	0.250056
C327	C	1.073141	0.319001	0.500056
C328	C	1.323141	0.569001	0.750056
O329	O	0.572582	-0.235557	0.085628
O330	O	0.822582	0.014443	0.335628
O331	O	1.072582	0.264443	0.585628
O332	O	1.322582	0.514443	0.835628
O333	O	0.572587	-0.235578	-0.085542
O334	O	0.822587	0.014422	0.164458
O335	O	1.072587	0.264422	0.414458
O336	O	1.322587	0.514422	0.664458
C337	C	0.570254	-0.463306	-0.046215
C338	C	0.820254	-0.213306	0.203785
C339	C	1.070254	0.036694	0.453785
C340	C	1.320254	0.286694	0.703785
C341	C	0.569986	-0.488513	0.000040
C342	C	0.819986	-0.238513	0.250040
C343	C	1.069986	0.011487	0.500040
C344	C	1.319986	0.261487	0.750040
C345	C	0.570235	-0.463310	0.046298
C346	C	0.820235	-0.213310	0.296298
C347	C	1.070235	0.036690	0.546298
C348	C	1.320235	0.286690	0.796298
C349	C	0.569472	-0.538928	0.000038
C350	C	0.819472	-0.288928	0.250038
C351	C	1.069472	-0.038928	0.500038
C352	C	1.319472	0.211072	0.750038
C353	C	0.569222	-0.564131	-0.046220
C354	C	0.819222	-0.314131	0.203780
C355	C	1.069222	-0.064131	0.453780
C356	C	1.319222	0.185869	0.703780
C357	C	0.569486	-0.538921	-0.092475
C358	C	0.819486	-0.288921	0.157525
C359	C	1.069486	-0.038921	0.407525
C360	C	1.319486	0.211079	0.657525
C361	C	0.570004	-0.488509	-0.092472
C362	C	0.820004	-0.238509	0.157528
C363	C	1.070004	0.011491	0.407528
C364	C	1.320004	0.261491	0.657528
C365	C	0.569971	-0.488521	0.092554
C366	C	0.819971	-0.238521	0.342554
C367	C	1.069971	0.011479	0.592554
C368	C	1.319971	0.261479	0.842554
C369	C	0.569454	-0.538932	0.092547
C370	C	0.819454	-0.288932	0.342547
C371	C	1.069454	-0.038932	0.592547
C372	C	1.319454	0.211068	0.842547
C373	C	0.569204	-0.564135	0.046289
C374	C	0.819204	-0.314135	0.296289
C375	C	1.069204	-0.064135	0.546289
C376	C	1.319204	0.185865	0.796289
C377	C	0.658920	0.057701	0.000060
C378	C	0.908920	0.307701	0.250060
C379	C	1.158920	0.557701	0.500060
C380	C	1.408920	0.807701	0.750060
C381	C	0.712575	0.058254	0.000062
C382	C	0.962575	0.308254	0.250062
C383	C	1.212575	0.558254	0.500062
C384	C	1.462575	0.808254	0.750062
C385	C	0.566310	0.150296	0.000037
C386	C	0.816310	0.400296	0.250037
C387	C	1.066310	0.650296	0.500037
C388	C	1.316310	0.900296	0.750037
C389	C	0.566853	0.203952	0.000028
C390	C	0.816853	0.453952	0.250028
C391	C	1.066853	0.703952	0.500028
C392	C	1.316853	0.953952	0.750028
N393	N	0.570499	0.061906	0.120812
N394	N	0.820499	0.311906	0.370812
N395	N	1.070499	0.561906	0.620812
N396	N	1.320499	0.811906	0.870812
N397	N	0.570536	0.061870	-0.120710
N398	N	0.820536	0.311870	0.129290
N399	N	1.070536	0.561870	0.379290
N400	N	1.320536	0.811870	0.629290
C401	C	0.603635	0.028782	0.473335
C402	C	0.853635	0.278782	0.723335
C403	C	1.103635	0.528782	0.973335
C404	C	1.353635	0.778782	1.223335
C405	C	0.603646	0.028775	0.686994
C406	C	0.853646	0.278775	0.936994
C407	C	1.103646	0.528775	1.186994
C408	C	1.353646	0.778775	1.436994
O409	O	0.631801	0.000614	0.714623
O410	O	0.881801	0.250614	0.964623
O411	O	1.131801	0.500614	1.214623
O412	O	1.381801	0.750614	1.464623
N413	N	0.570527	0.061873	0.713706
N414	N	0.820527	0.311873	0.963706
N415	N	1.070527	0.561873	1.213706
N416	N	1.320527	0.811873	1.463706
C417	C	0.537401	0.094972	0.687001
C418	C	0.787401	0.344972	0.937001
C419	C	1.037401	0.594972	1.187001
C420	C	1.287401	0.844972	1.437001
O421	O	0.509228	0.123120	0.714624
O422	O	0.759228	0.373120	0.964624
O423	O	1.009228	0.623120	1.214624
O424	O	1.259228	0.873120	1.464624
C425	C	0.537388	0.094976	0.473343
C426	C	0.787388	0.344976	0.723343
C427	C	1.037388	0.594976	0.973343
C428	C	1.287388	0.844976	1.223343
C429	C	0.570512	0.061880	0.446633
C430	C	0.820512	0.311880	0.696633
C431	C	1.070512	0.561880	0.946633
C432	C	1.320512	0.811880	1.196633
C433	C	0.636756	-0.004312	0.446625
C434	C	0.886756	0.245688	0.696625
C435	C	1.136756	0.495688	0.946625
C436	C	1.386756	0.745688	1.196625
C437	C	0.636755	-0.004308	0.393214
C438	C	0.886755	0.245692	0.643214
C439	C	1.136755	0.495692	0.893214
C440	C	1.386755	0.745692	1.143214
C441	C	0.603632	0.028790	0.366512
C442	C	0.853632	0.278790	0.616512
C443	C	1.103632	0.528790	0.866512
C444	C	1.353632	0.778790	1.116512
C445	C	0.570511	0.061884	0.393222
C446	C	0.820511	0.311884	0.643222
C447	C	1.070511	0.561884	0.893222
C448	C	1.320511	0.811884	1.143222
C449	C	0.504260	0.128073	0.446639
C450	C	0.754260	0.378073	0.696639
C451	C	1.004260	0.628073	0.946639
C452	C	1.254260	0.878073	1.196639
C453	C	0.504259	0.128070	0.393221
C454	C	0.754259	0.378070	0.643221
C455	C	1.004259	0.628070	0.893221
C456	C	1.254259	0.878070	1.143221
C457	C	0.537384	0.094974	0.366511
C458	C	0.787384	0.344974	0.616511
C459	C	1.037384	0.594974	0.866511
C460	C	1.287384	0.844974	1.116511
C461	C	0.537388	0.094985	0.313109
C462	C	0.787388	0.344985	0.563109
C463	C	1.037388	0.594985	0.813109
C464	C	1.287388	0.844985	1.063109
N465	N	0.570506	0.061888	0.286396
N466	N	0.820506	0.311888	0.536396
N467	N	1.070506	0.561888	0.786396
N468	N	1.320506	0.811888	1.036396
C469	C	0.603629	0.028790	0.313098
C470	C	0.853629	0.278790	0.563098
C471	C	1.103629	0.528790	0.813098
C472	C	1.353629	0.778790	1.063098
C473	C	0.537410	0.094968	0.799174
C474	C	0.787410	0.344968	1.049174
C475	C	1.037410	0.594968	1.299174
C476	C	1.287410	0.844968	1.549174
C477	C	0.537414	0.094968	0.852588
C478	C	0.787414	0.344968	1.102588
C479	C	1.037414	0.594968	1.352588
C480	C	1.287414	0.844968	1.602588
C481	C	0.603658	0.028770	0.852577
C482	C	0.853658	0.278770	1.102577
C483	C	1.103658	0.528770	1.352577
C484	C	1.353658	0.778770	1.602577
C485	C	0.603657	0.028773	0.799162
C486	C	0.853657	0.278773	1.049162
C487	C	1.103657	0.528773	1.299162
C488	C	1.353657	0.778773	1.549162
C489	C	0.570529	0.061871	0.772462
C490	C	0.820529	0.311871	1.022462
C491	C	1.070529	0.561871	1.272462
C492	C	1.320529	0.811871	1.522462
C493	C	0.603624	0.028801	0.200930
C494	C	0.853624	0.278801	0.450930
C495	C	1.103624	0.528801	0.700930
C496	C	1.353624	0.778801	0.950930
C497	C	0.603621	0.028809	0.147514
C498	C	0.853621	0.278809	0.397514
C499	C	1.103621	0.528809	0.647514
C500	C	1.353621	0.778809	0.897514
C501	C	0.537375	0.095004	0.147529
C502	C	0.787375	0.345004	0.397529
C503	C	1.037375	0.595004	0.647529
C504	C	1.287375	0.845004	0.897529
C505	C	0.537380	0.094998	0.200941
C506	C	0.787380	0.344998	0.450941
C507	C	1.037380	0.594998	0.700941
C508	C	1.287380	0.844998	0.950941
C509	C	0.570506	0.061892	0.227640
C510	C	0.820506	0.311892	0.477640
C511	C	1.070506	0.561892	0.727640
C512	C	1.320506	0.811892	0.977640
O513	O	0.509244	0.123128	0.285447
O514	O	0.759244	0.373128	0.535447
O515	O	1.009244	0.623128	0.785447
O516	O	1.259244	0.873128	1.035447
O517	O	0.631790	0.000639	0.285466
O518	O	0.881790	0.250639	0.535466
O519	O	1.131790	0.500639	0.785466
O520	O	1.381790	0.750639	1.035466
C521	C	0.603636	0.028778	0.526746
C522	C	0.853636	0.278778	0.776746
C523	C	1.103636	0.528778	1.026746
C524	C	1.353636	0.778778	1.276746
C525	C	0.570515	0.061872	0.553456
C526	C	0.820515	0.311872	0.803456
C527	C	1.070515	0.561872	1.053456
C528	C	1.320515	0.811872	1.303456
C529	C	0.537393	0.094970	0.526755
C530	C	0.787393	0.344970	0.776755
C531	C	1.037393	0.594970	1.026755
C532	C	1.287393	0.844970	1.276755
C533	C	0.570519	0.061872	0.606870
C534	C	0.820519	0.311872	0.856870
C535	C	1.070519	0.561872	1.106870
C536	C	1.320519	0.811872	1.356870
C537	C	0.603641	0.028774	0.633572
C538	C	0.853641	0.278774	0.883572
C539	C	1.103641	0.528774	1.133572
C540	C	1.353641	0.778774	1.383572
C541	C	0.636760	-0.004323	0.606860
C542	C	0.886760	0.245677	0.856860
C543	C	1.136760	0.495677	1.106860
C544	C	1.386760	0.745677	1.356860
C545	C	0.636758	-0.004320	0.553448
C546	C	0.886758	0.245680	0.803448
C547	C	1.136758	0.495680	1.053448
C548	C	1.386758	0.745680	1.303448
C549	C	0.504274	0.128068	0.553467
C550	C	0.754274	0.378068	0.803467
C551	C	1.004274	0.628068	1.053467
C552	C	1.254274	0.878068	1.303467
C553	C	0.504278	0.128061	0.606879
C554	C	0.754278	0.378061	0.856879
C555	C	1.004278	0.628061	1.106879
C556	C	1.254278	0.878061	1.356879
C557	C	0.537401	0.094964	0.633580
C558	C	0.787401	0.344964	0.883580
C559	C	1.037401	0.594964	1.133580
C560	C	1.287401	0.844964	1.383580
H561	H	-0.180232	-0.020747	0.000079
H562	H	0.069768	0.229253	0.250079
H563	H	0.319768	0.479253	0.500079
H564	H	0.569768	0.729253	0.750079
Br565	Br	0.304273	0.168327	0.000030
Br566	Br	0.554273	0.418327	0.250030
Br567	Br	0.804273	0.668327	0.500030
Br568	Br	1.054273	0.918327	0.750030
Br569	Br	0.681715	-0.049238	0.517207
Br570	Br	0.931715	0.200762	0.767207
Br571	Br	1.181715	0.450762	1.017207
Br572	Br	1.431715	0.700762	1.267207
H573	H	0.117570	-0.061863	0.000091
H574	H	0.367570	0.188137	0.250091
H575	H	0.617570	0.438137	0.500091
H576	H	0.867570	0.688137	0.750091
H577	H	0.567818	-0.699914	0.083961
H578	H	0.817818	-0.449914	0.333961
H579	H	1.067818	-0.199914	0.583961
H580	H	1.317818	0.050086	0.833961
H581	H	0.510412	0.121953	0.222688
H582	H	0.760412	0.371953	0.472688
H583	H	1.010412	0.621953	0.722688
H584	H	1.260412	0.871953	0.972688
Br585	Br	0.570631	-0.421889	0.155349
Br586	Br	0.820631	-0.171889	0.405349
Br587	Br	1.070631	0.078111	0.655349
Br588	Br	1.320631	0.328111	0.905349
H589	H	0.569239	-0.559452	0.130219
H590	H	0.819239	-0.309452	0.380219
H591	H	1.069239	-0.059452	0.630219
H592	H	1.319239	0.190548	0.880219
Br593	Br	0.648612	-0.016145	0.762919
Br594	Br	0.898612	0.233855	1.012919
Br595	Br	1.148612	0.483855	1.262919
Br596	Br	1.398612	0.733855	1.512919
H597	H	0.566891	-0.791365	0.083954
H598	H	0.816891	-0.541365	0.333954
H599	H	1.066891	-0.291365	0.583954
H600	H	1.316891	-0.041365	0.833954
Br601	Br	0.571843	-0.303072	0.155350
Br602	Br	0.821843	-0.053072	0.405350
Br603	Br	1.071843	0.196928	0.655350
Br604	Br	1.321843	0.446928	0.905350
H605	H	0.570176	-0.468005	0.130223
H606	H	0.820176	-0.218005	0.380223
H607	H	1.070176	0.031995	0.630223
H608	H	1.320176	0.281995	0.880223
H609	H	0.510446	0.121923	0.874332
H610	H	0.760446	0.371923	1.124332
H611	H	1.010446	0.621923	1.374332
H612	H	1.260446	0.871923	1.624332
Br613	Br	0.573041	-0.190011	0.109102
Br614	Br	0.823041	0.059989	0.359102
Br615	Br	1.073041	0.309989	0.609102
Br616	Br	1.323041	0.559989	0.859102
Br617	Br	0.648610	-0.016148	0.888826
Br618	Br	0.898610	0.233852	1.138826
Br619	Br	1.148610	0.483852	1.388826
Br620	Br	1.398610	0.733852	1.638826
Br621	Br	0.226013	-0.084723	0.000100
Br622	Br	0.476013	0.165277	0.250100
Br623	Br	0.726013	0.415277	0.500100
Br624	Br	0.976013	0.665277	0.750100
Br625	Br	0.492426	0.139923	0.111283
Br626	Br	0.742426	0.389923	0.361283
Br627	Br	0.992426	0.639923	0.611283
Br628	Br	1.242426	0.889923	0.861283
Br629	Br	0.681714	-0.049239	0.643108
Br630	Br	0.931714	0.200761	0.893108
Br631	Br	1.181714	0.450761	1.143108
Br632	Br	1.431714	0.700761	1.393108
H633	H	0.477305	0.155017	0.628622
H634	H	0.727305	0.405017	0.878622
H635	H	0.977305	0.655017	1.128622
H636	H	1.227305	0.905017	1.378622
H637	H	0.477301	0.155019	0.531731
H638	H	0.727301	0.405019	0.781731
H639	H	0.977301	0.655019	1.031731
H640	H	1.227301	0.905019	1.281731
Br641	Br	0.185089	0.211257	0.000022
Br642	Br	0.435089	0.461257	0.250022
Br643	Br	0.685089	0.711257	0.500022
Br644	Br	0.935089	0.961257	0.750022
H645	H	0.412716	0.145458	0.000019
H646	H	0.662716	0.395458	0.250019
H647	H	0.912716	0.645458	0.500019
H648	H	1.162716	0.895458	0.750019
Br649	Br	0.570701	-0.421882	-0.155254
Br650	Br	0.820701	-0.171882	0.094746
Br651	Br	1.070701	0.078118	0.344746
Br652	Br	1.320701	0.328118	0.594746
H653	H	0.663728	-0.031267	0.468361
H654	H	0.913728	0.218733	0.718361
H655	H	1.163728	0.468733	0.968361
H656	H	1.413728	0.718733	1.218361
Br657	Br	0.648581	-0.016130	0.237156
Br658	Br	0.898581	0.233870	0.487156
Br659	Br	1.148581	0.483870	0.737156
Br660	Br	1.398581	0.733870	0.987156
Br661	Br	0.459304	0.172991	0.482877
Br662	Br	0.709304	0.422991	0.732877
Br663	Br	0.959304	0.672991	0.982877
Br664	Br	1.209304	0.922991	1.232877
H665	H	0.510433	0.121921	0.777438
H666	H	0.760433	0.371921	1.027438
H667	H	1.010433	0.621921	1.277438
H668	H	1.260433	0.871921	1.527438
H669	H	0.343363	-0.015426	0.000050
H670	H	0.593363	0.234574	0.250050
H671	H	0.843363	0.484574	0.500050
H672	H	1.093363	0.734574	0.750050
H673	H	0.574117	-0.084857	0.083990
H674	H	0.824117	0.165143	0.333990
H675	H	1.074117	0.415143	0.583990
H676	H	1.324117	0.665143	0.833990
H677	H	0.570223	-0.467990	-0.130141
H678	H	0.820223	-0.217990	0.119859
H679	H	1.070223	0.032010	0.369859
H680	H	1.320223	0.282010	0.619859
H681	H	0.569285	-0.559450	-0.130140
H682	H	0.819285	-0.309450	0.119860
H683	H	1.069285	-0.059450	0.369860
H684	H	1.319285	0.190550	0.619860
Br685	Br	0.459296	0.172989	0.356988
Br686	Br	0.709296	0.422989	0.606988
Br687	Br	0.959296	0.672989	0.856988
Br688	Br	1.209296	0.922989	1.106988
Br689	Br	0.648580	-0.016109	0.111267
Br690	Br	0.898580	0.233891	0.361267
Br691	Br	1.148580	0.483891	0.611267
Br692	Br	1.398580	0.733891	0.861267
H693	H	0.083267	0.186255	0.000036
H694	H	0.333267	0.436255	0.250036
H695	H	0.583267	0.686255	0.500036
H696	H	0.833267	0.936255	0.750036
Br697	Br	0.451823	-0.038285	0.000055
Br698	Br	0.701823	0.211715	0.250055
Br699	Br	0.951823	0.461715	0.500055
Br700	Br	1.201823	0.711715	0.750055
H701	H	-0.202337	0.139211	0.000046
H702	H	0.047663	0.389211	0.250046
H703	H	0.297663	0.639211	0.500046
H704	H	0.547663	0.889211	0.750046
Br705	Br	0.574297	-0.071169	-0.108972
Br706	Br	0.824297	0.178831	0.141028
Br707	Br	1.074297	0.428831	0.391028
Br708	Br	1.324297	0.678831	0.641028
Br709	Br	0.681708	-0.049229	0.356971
Br710	Br	0.931708	0.200771	0.606971
Br711	Br	1.181708	0.450771	0.856971
Br712	Br	1.431708	0.700771	1.106971
Br713	Br	-0.282058	-0.045747	0.000070
Br714	Br	-0.032058	0.204253	0.250070
Br715	Br	0.217942	0.454253	0.500070
Br716	Br	0.467942	0.704253	0.750070
Br717	Br	-0.310797	0.162068	0.000047
Br718	Br	-0.060797	0.412068	0.250047
Br719	Br	0.189203	0.662068	0.500047
Br720	Br	0.439203	0.912068	0.750047
Br721	Br	0.033853	0.209720	0.000031
Br722	Br	0.283853	0.459720	0.250031
Br723	Br	0.533853	0.709720	0.500031
Br724	Br	0.783853	0.959720	0.750031
H725	H	-0.067981	0.184713	0.000044
H726	H	0.182019	0.434713	0.250044
H727	H	0.432019	0.684713	0.500044
H728	H	0.682019	0.934713	0.750044
H729	H	0.057772	-0.062463	0.000086
H730	H	0.307772	0.187537	0.250086
H731	H	0.557772	0.437537	0.500086
H732	H	0.807772	0.687537	0.750086
Br733	Br	-0.044051	-0.087465	0.000089
Br734	Br	0.205949	0.162535	0.250089
Br735	Br	0.455949	0.412535	0.500089
Br736	Br	0.705949	0.662535	0.750089
H737	H	0.573201	-0.176303	-0.083869
H738	H	0.823201	0.073697	0.166131
H739	H	1.073201	0.323697	0.416131
H740	H	1.323201	0.573697	0.666131
H741	H	0.571775	-0.316756	-0.130133
H742	H	0.821775	-0.066756	0.119867
H743	H	1.071775	0.183244	0.369867
H744	H	1.321775	0.433244	0.619867
H745	H	0.567852	-0.699901	-0.083897
H746	H	0.817852	-0.449901	0.166103
H747	H	1.067852	-0.199901	0.416103
H748	H	1.317852	0.050099	0.666103
H749	H	0.566914	-0.791366	-0.083896
H750	H	0.816914	-0.541366	0.166104
H751	H	1.066914	-0.291366	0.416104
H752	H	1.316914	-0.041366	0.666104
