data_functionalizedCrystal
_audit_creation_method	'MofGen! by Chris Wilmer'
_symmetry_space_group_name_H-M	'P1'
_symmetry_Int_Tables_number	1
_symmetry_cell_setting	triclinic
loop_
_symmetry_equiv_pos_as_xyz
  x,y,z
_cell_length_a	14.560438
_cell_length_b	14.809374
_cell_length_c	14.809374
_cell_angle_alpha	60.797835
_cell_angle_beta	90.001286
_cell_angle_gamma	67.427478
loop_
_atom_site_label
_atom_site_type_symbol
_atom_site_fract_x
_atom_site_fract_y
_atom_site_fract_z
Zr1	Zr	1.014447	0.955221	-0.203661
O2	O	0.901944	1.113140	-0.350821
O3	O	1.033008	0.777455	-0.145584
O4	O	1.070576	0.926603	-0.332123
O5	O	0.852859	0.993487	-0.031884
O6	O	1.221715	0.926606	-0.332121
O7	O	0.864376	0.963991	-0.164282
O8	O	1.154512	0.659807	0.001564
O9	O	0.920062	1.260286	-0.365569
O10	O	1.172960	0.857926	-0.136476
O11	O	1.051573	0.879936	-0.037671
O12	O	1.095804	1.055539	-0.257297
O13	O	0.974417	1.077549	-0.158491
Zr14	Zr	1.237129	1.002268	0.007502
Zr15	Zr	1.255496	0.955226	-0.203658
Zr16	Zr	0.996080	1.002263	0.007499
Zr17	Zr	1.043344	1.189903	-0.227182
Zr18	Zr	1.208232	0.767587	0.031022
O19	O	1.218568	1.180034	-0.050576
O20	O	1.244683	1.113147	-0.350817
O21	O	0.875828	1.180027	-0.050580
O22	O	1.349632	0.844349	0.154662
O23	O	1.375748	0.777462	-0.145579
O24	O	1.006893	0.844342	0.154658
O25	O	1.398716	0.964002	-0.164275
O26	O	1.181000	1.030886	0.135964
O27	O	1.029861	1.030883	0.135962
O28	O	1.387200	0.993498	-0.031877
O29	O	1.111663	1.260290	-0.365567
O30	O	1.139913	0.697199	0.169407
O31	O	1.331514	0.697203	0.169410
O32	O	1.346113	0.659811	0.001566
O33	O	0.905463	1.297678	-0.197725
O34	O	1.097064	1.297682	-0.197723
O35	O	1.155771	0.901950	0.061138
O36	O	1.277159	0.879940	-0.037668
O37	O	1.200003	1.077553	-0.158488
O38	O	1.078616	1.099563	-0.059683
C39	C	1.089643	0.685194	-0.068659
C40	C	1.077376	0.585566	-0.058673
C41	C	1.132123	0.530230	-0.103236
C42	C	1.119445	0.427258	-0.092917
C43	C	0.824273	0.978739	-0.098083
C44	C	0.721942	0.978737	-0.098085
C45	C	0.714138	0.875587	-0.035018
C46	C	0.617983	0.875595	-0.035010
C47	C	0.537441	1.081911	-0.161144
C48	C	0.633594	1.081903	-0.161145
C49	C	0.802486	0.772420	0.028043
C50	C	0.794686	0.669262	0.091114
C51	C	0.698531	0.669270	0.091122
C52	C	0.610176	0.772436	0.028059
C53	C	1.427303	0.978750	-0.098076
C54	C	1.529634	0.978753	-0.098075
C55	C	1.148762	0.919902	-0.362208
C56	C	1.156560	0.899932	-0.451850
C57	C	1.161933	1.272295	-0.127500
C58	C	1.174200	1.371923	-0.137486
C59	C	1.121761	0.989058	-0.551751
C60	C	1.129819	0.968419	-0.644403
C61	C	1.102814	1.037587	0.166049
C62	C	1.095016	1.057557	0.255691
C63	C	1.391158	0.685200	-0.068655
C64	C	1.481222	0.585574	-0.058668
C65	C	1.066669	0.744036	0.195470
C66	C	1.046604	0.664378	0.295097
C67	C	1.368183	0.744042	0.195473
C68	C	1.450450	0.664386	0.295103
C69	C	0.883393	1.213447	-0.391632
C70	C	0.801126	1.293103	-0.491262
C71	C	0.860418	1.272289	-0.127504
C72	C	0.770354	1.371915	-0.137491
C73	C	1.184907	1.213453	-0.391629
C74	C	1.204972	1.293111	-0.491257
C75	C	1.469127	0.527295	-0.105565
C76	C	1.553746	0.433694	-0.096202
C77	C	1.650457	0.398368	-0.039937
C78	C	1.662551	0.456657	0.006960
C79	C	1.577934	0.550261	-0.002409
C80	C	1.091571	0.638463	0.393470
C81	C	1.072715	0.563631	0.487087
C82	C	1.008897	0.514709	0.482331
C83	C	0.963925	0.540631	0.383948
C84	C	0.982776	0.615468	0.290332
C85	C	1.552456	0.615490	0.290314
C86	C	1.629766	0.540656	0.383917
C87	C	1.605067	0.514714	0.482308
C88	C	1.503051	0.563619	0.487093
C89	C	1.425744	0.638457	0.393491
C90	C	0.699121	1.342010	-0.486474
C91	C	0.621815	1.416873	-0.580080
C92	C	0.646515	1.442821	-0.678471
C93	C	0.748530	1.393910	-0.683256
C94	C	0.825835	1.319055	-0.589652
C95	C	0.782451	1.430202	-0.090604
C96	C	0.697837	1.523824	-0.099992
C97	C	0.601127	1.559152	-0.156261
C98	C	0.589032	1.500860	-0.203153
C99	C	0.673646	1.407245	-0.193771
C100	C	1.268795	1.342010	-0.486466
C101	C	1.287667	1.416847	-0.580068
C102	C	1.242710	1.442788	-0.678459
C103	C	1.178884	1.393880	-0.683247
C104	C	1.160018	1.319039	-0.589646
H105	H	1.021121	0.556706	-0.012880
C106	C	0.893733	0.486808	0.378725
H107	H	0.869641	0.512960	0.306731
H108	H	0.931009	0.405275	0.418309
H109	H	0.837234	0.509002	0.407901
C110	C	1.362754	0.566142	-0.167462
H111	H	1.314080	0.630232	-0.166326
H112	H	1.364721	0.587549	-0.238977
H113	H	1.343831	0.504608	-0.135255
H114	H	1.192320	0.808349	-0.434915
C115	C	1.043440	0.388289	-0.031054
H116	H	1.044885	0.324199	-0.032240
H117	H	1.062092	0.366849	0.040478
H118	H	0.976446	0.449781	-0.063255
C119	C	1.313539	0.692222	0.398773
H120	H	1.309909	0.666037	0.470780
H121	H	1.287114	0.773759	0.359207
H122	H	1.274371	0.670014	0.369611
H123	H	0.639944	1.165901	-0.212481
H124	H	1.543879	0.386245	-0.134393
C125	C	1.129366	1.422497	-0.791487
H126	H	1.088634	1.382676	-0.780947
H127	H	1.087595	1.503087	-0.835284
H128	H	1.181306	1.399387	-0.825002
C129	C	0.504405	0.772451	0.028071
H130	H	0.452906	0.848664	-0.018516
H131	H	0.501574	0.723959	0.004705
H132	H	0.493478	0.744754	0.098034
H133	H	0.678989	1.320888	-0.406367
C134	C	0.440261	1.195384	-0.230512
H135	H	0.458680	1.256819	-0.268066
H136	H	0.405129	1.189283	-0.279796
H137	H	0.397028	1.210067	-0.186460
C138	C	1.768933	0.417781	0.068858
H139	H	1.817585	0.353678	0.067726
H140	H	1.787878	0.479294	0.036670
H141	H	1.766970	0.396359	0.140382
C142	C	1.161767	0.692273	0.398716
H143	H	1.166568	0.740552	0.328879
H144	H	1.134137	0.736592	0.430047
H145	H	1.227912	0.632864	0.440455
H146	H	1.108044	1.279232	-0.593562
C147	C	1.250205	0.410891	-0.199350
H148	H	1.248753	0.474991	-0.198177
H149	H	1.317195	0.349404	-0.167162
H150	H	1.231541	0.432341	-0.270888
H151	H	1.109345	0.542536	0.567185
C152	C	1.475889	0.535077	0.595324
H153	H	1.404066	0.574920	0.584781
H154	H	1.497037	0.454495	0.639180
H155	H	1.509800	0.558229	0.628778
H156	H	0.993556	0.453774	0.558568
C157	C	1.263464	1.525115	-0.781415
H158	H	1.227557	1.533561	-0.840705
H159	H	1.240942	1.598145	-0.788730
H160	H	1.334707	1.494414	-0.778329
C161	C	0.938035	1.265248	-0.594930
H162	H	0.941663	1.291418	-0.666936
H163	H	0.977230	1.287416	-0.565756
H164	H	0.964426	1.183709	-0.555371
H165	H	0.663782	1.359790	-0.231950
C166	C	1.318257	1.313481	-0.378245
H167	H	1.297882	1.261912	-0.323176
H168	H	1.390577	1.278605	-0.367197
H169	H	1.296813	1.382335	-0.377594
H170	H	0.532237	1.635381	-0.163892
H171	H	1.188384	0.559081	-0.149023
H172	H	0.880785	0.772402	0.028041
H173	H	1.668025	0.453773	0.558517
C174	C	0.933314	0.643958	0.182130
H175	H	0.892616	0.604091	0.192716
H176	H	0.891521	0.724534	0.138256
H177	H	0.985294	0.620798	0.148673
H178	H	1.587795	0.597702	0.035787
C179	C	1.046707	1.181288	-0.767208
H180	H	1.047622	1.178931	-0.701934
H181	H	1.084612	1.220634	-0.806905
H182	H	0.978072	1.220627	-0.806901
H183	H	1.719349	0.322147	-0.032315
C184	C	0.891867	0.555790	0.160478
H185	H	0.950252	0.570554	0.151436
H186	H	0.888607	0.523797	0.233057
H187	H	0.896703	0.503015	0.139720
C188	C	1.073452	1.112781	-0.574641
H189	H	1.074367	1.110421	-0.509365
H190	H	1.111355	1.152130	-0.614337
H191	H	1.004817	1.152118	-0.614332
H192	H	0.692183	0.585276	0.142485
H193	H	1.572586	0.636600	0.210208
C194	C	1.741970	0.486834	0.378643
H195	H	1.784482	0.438547	0.448475
H196	H	1.748917	0.442520	0.347312
H197	H	1.761735	0.546232	0.336897
C198	C	0.509607	1.470651	-0.574796
H199	H	0.505975	1.444456	-0.502788
H200	H	0.483196	1.552187	-0.614350
H201	H	0.470431	1.448464	-0.603974
C202	C	0.561470	1.525144	-0.781425
H203	H	0.497182	1.550538	-0.764471
H204	H	0.573753	1.589702	-0.826862
H205	H	0.560993	1.485960	-0.816445
H206	H	1.339636	1.456663	-0.576149
C207	C	0.888821	1.391358	-0.028705
H208	H	0.883895	1.439496	-0.002139
H209	H	0.913649	1.313857	0.028965
H210	H	0.934541	1.396785	-0.074766
H211	H	1.165583	0.876830	-0.627460
H212	H	0.768630	1.415046	-0.763378
H213	H	0.707704	1.571272	-0.061801
H214	H	0.510279	1.529639	-0.248967
