data_functionalizedCrystal
_audit_creation_method	'MofGen! by Chris Wilmer'
_symmetry_space_group_name_H-M	'P1'
_symmetry_Int_Tables_number	1
_symmetry_cell_setting	triclinic
loop_
_symmetry_equiv_pos_as_xyz
  x,y,z
_cell_length_a	19.077105
_cell_length_b	16.625546
_cell_length_c	19.076919
_cell_angle_alpha	87.730083
_cell_angle_beta	89.923776
_cell_angle_gamma	87.718759
loop_
_atom_site_label
_atom_site_type_symbol
_atom_site_fract_x
_atom_site_fract_y
_atom_site_fract_z
Zn1	Zn	1.058283	-0.390077	0.440407
Zn2	Zn	1.062927	-0.519720	0.322896
Zn3	Zn	0.945500	-0.379275	0.318200
Zn4	Zn	0.940748	-0.519234	0.435649
O5	O	1.001864	-0.452076	0.379288
O6	O	1.157231	-0.411998	0.428775
O7	O	1.051282	-0.496773	0.223942
O8	O	0.960506	-0.267879	0.334437
O9	O	1.160642	-0.507246	0.342441
O10	O	1.043367	-0.275815	0.424222
O11	O	0.965009	-0.393589	0.220492
O12	O	0.846538	-0.393117	0.329824
O13	O	0.952407	-0.506418	0.534611
O14	O	0.843047	-0.495944	0.416113
O15	O	1.038759	-0.411527	0.538107
O16	O	1.046674	-0.632485	0.337827
O17	O	0.956910	-0.632127	0.420666
C18	C	0.819296	-0.443306	0.371943
C19	C	0.741192	-0.439575	0.368817
C20	C	0.702702	-0.491432	0.412204
C21	C	0.629314	-0.487916	0.409270
C22	C	0.594418	-0.432544	0.362946
C23	C	0.632913	-0.380681	0.319557
C24	C	0.706299	-0.384194	0.322495
C25	C	0.375130	-0.416284	0.349354
C26	C	0.301739	-0.412776	0.346418
C27	C	0.298145	-0.520010	0.436133
C28	C	0.371533	-0.523522	0.439063
C29	C	0.410021	-0.471655	0.395677
N30	N	0.519405	-0.428950	0.359945
N31	N	0.485034	-0.475247	0.398682
C32	C	1.001799	-0.661563	0.379256
C33	C	1.001834	-0.751186	0.379268
C34	C	1.001954	-1.079371	0.379346
C35	C	1.001918	-0.988060	0.379327
C36	C	1.001894	-0.915281	0.379307
C37	C	1.001859	-0.823965	0.379288
C38	C	1.185146	-0.460881	0.386662
C39	C	1.263249	-0.464634	0.389805
C40	C	0.994535	-0.460123	0.562568
C41	C	0.991412	-0.463552	0.640671
C42	C	1.001948	-0.241774	0.379336
C43	C	1.001984	-0.152155	0.379357
C44	C	1.009205	-0.444005	0.196723
C45	C	1.012465	-0.440356	0.118626
C46	C	1.034901	-0.415760	0.679185
C47	C	1.031958	-0.418978	0.752571
C48	C	0.985529	-0.469993	0.787441
C49	C	0.942035	-0.517786	0.748922
C50	C	0.944975	-0.514563	0.675537
C51	C	0.971911	-0.484926	1.006722
C52	C	0.968976	-0.488147	1.080112
C53	C	1.058898	-0.389338	1.083755
C54	C	1.061837	-0.386123	1.010369
C55	C	1.018341	-0.433913	0.971856
N56	N	0.982521	-0.473286	0.862453
N57	N	1.021346	-0.430616	0.896846
H58	H	0.406459	-0.374056	0.314021
C59	C	0.256482	-0.576403	0.483277
C60	C	0.302750	-0.625655	0.524465
C61	C	0.264397	-0.677619	0.567902
H62	H	0.226641	-0.545676	0.512857
H63	H	0.228927	-0.608982	0.455218
H64	H	0.330294	-0.593080	0.552521
H65	H	0.332592	-0.656399	0.494904
H66	H	0.236841	-0.710198	0.539844
H67	H	0.234557	-0.646886	0.597478
H68	H	0.295784	-0.711048	0.595849
C69	C	0.594901	-0.320641	0.269287
C70	C	0.522394	-0.328676	0.275986
C71	C	0.487357	-0.273387	0.229681
H72	H	0.606448	-0.267478	0.280093
H73	H	0.608763	-0.330860	0.222518
H74	H	0.508538	-0.318451	0.322744
H75	H	0.510826	-0.381826	0.265174
H76	H	0.501219	-0.283606	0.182913
H77	H	0.498910	-0.220228	0.240491
H78	H	0.438158	-0.278836	0.234216
H79	H	0.597979	-0.530145	0.444600
H80	H	0.273329	-0.367677	0.308699
H81	H	0.737637	-0.341962	0.287168
C82	C	1.079205	-0.367223	0.794483
C83	C	1.122521	-0.416883	0.838439
C84	C	1.166043	-0.369228	0.877068
H85	H	1.107344	-0.336365	0.763294
H86	H	1.051201	-0.332075	0.822071
H87	H	1.150521	-0.452017	0.810854
H88	H	1.094400	-0.447741	0.869642
H89	H	1.138040	-0.334080	0.904656
H90	H	1.194178	-0.338372	0.845873
H91	H	1.195434	-0.402915	0.906901
C92	C	0.891740	-0.573280	0.786822
C93	C	0.929819	-0.628736	0.830528
C94	C	0.883513	-0.679878	0.865443
H95	H	0.859973	-0.542319	0.814280
H96	H	0.866270	-0.601330	0.753395
H97	H	0.955277	-0.600689	0.863950
H98	H	0.961583	-0.659715	0.803086
H99	H	0.858043	-0.707928	0.832017
H100	H	0.851749	-0.648910	0.892898
H101	H	0.909343	-0.717515	0.895097
C102	C	1.085200	-0.360312	0.641236
C103	C	1.047120	-0.304885	0.597503
C104	C	1.093431	-0.253795	0.562530
H105	H	1.110695	-0.332229	0.674608
H106	H	1.116944	-0.391340	0.613794
H107	H	1.015388	-0.273860	0.624944
H108	H	1.021627	-0.332944	0.564118
H109	H	1.125175	-0.284824	0.535087
H110	H	1.118924	-0.225719	0.595906
H111	H	1.067601	-0.216187	0.532848
C112	C	1.105996	-0.337343	1.125602
C113	C	1.064541	-0.285589	1.166126
C114	C	1.107902	-0.237667	1.204676
H115	H	1.135467	-0.370820	1.155515
H116	H	1.134054	-0.306452	1.094345
H117	H	1.036495	-0.316477	1.197379
H118	H	1.035071	-0.252095	1.136231
H119	H	1.135960	-0.206776	1.173419
H120	H	1.137371	-0.271151	1.234585
H121	H	1.079781	-0.202541	1.232171
C122	C	0.740455	-0.551579	0.462573
C123	C	0.691036	-0.596224	0.499955
C124	C	0.725786	-0.651630	0.546371
H125	H	0.770145	-0.586927	0.436864
H126	H	0.767855	-0.523524	0.494421
H127	H	0.663648	-0.624277	0.468111
H128	H	0.661344	-0.560898	0.525678
H129	H	0.753185	-0.623575	0.578220
H130	H	0.755474	-0.686972	0.520657
H131	H	0.692260	-0.681923	0.571745
C132	C	0.409501	-0.583511	0.489411
C133	C	0.449862	-0.541933	0.536197
C134	C	0.484854	-0.597169	0.582582
H135	H	0.376142	-0.613914	0.514902
H136	H	0.439232	-0.618775	0.463647
H137	H	0.420135	-0.506682	0.561958
H138	H	0.483234	-0.511533	0.510726
H139	H	0.514584	-0.632434	0.556817
H140	H	0.451489	-0.627570	0.608067
H141	H	0.512248	-0.568967	0.614327
H142	H	1.099647	-0.344584	0.981983
H143	H	0.909554	-0.553472	0.644180
C144	C	0.918490	-0.543558	1.117843
C145	C	0.881013	-0.584705	1.068409
C146	C	0.834498	-0.635747	1.103141
H147	H	0.944132	-0.581306	1.147542
H148	H	0.886706	-0.512514	1.145230
H149	H	0.912793	-0.615747	1.041033
H150	H	0.855357	-0.546978	1.038707
H151	H	0.802714	-0.604703	1.130528
H152	H	0.860146	-0.673490	1.132839
H153	H	0.809060	-0.663666	1.069605
H154	H	0.936503	-0.523853	0.975374
