data_functionalizedCrystal
_audit_creation_method	'MofGen! by Chris Wilmer'
_symmetry_space_group_name_H-M	'P1'
_symmetry_Int_Tables_number	1
_symmetry_cell_setting	triclinic
loop_
_symmetry_equiv_pos_as_xyz
  x,y,z
_cell_length_a	16.625546
_cell_length_b	16.625547
_cell_length_c	10.686551
_cell_angle_alpha	85.596409
_cell_angle_beta	94.409858
_cell_angle_gamma	89.978346
loop_
_atom_site_label
_atom_site_type_symbol
_atom_site_fract_x
_atom_site_fract_y
_atom_site_fract_z
Zn1	Zn	-0.285972	-1.267702	0.713705
Zn2	Zn	0.214028	-0.767702	1.213705
Zn3	Zn	-0.431177	-1.257250	0.502682
Zn4	Zn	0.068823	-0.757250	1.002682
Zn5	Zn	-0.296360	-1.122509	0.502686
Zn6	Zn	0.203640	-0.622509	1.002686
Zn7	Zn	-0.420770	-1.132830	0.713606
Zn8	Zn	0.079230	-0.632830	1.213606
O9	O	-0.358570	-1.195073	0.608170
O10	O	0.141430	-0.695073	1.108170
O11	O	-0.305242	-1.379150	0.685752
O12	O	0.194758	-0.879150	1.185752
O13	O	-0.421997	-1.230684	0.326098
O14	O	0.078003	-0.730684	0.826098
O15	O	-0.182148	-1.141824	0.530722
O16	O	0.317852	-0.641824	1.030722
O17	O	-0.411924	-1.371471	0.530714
O18	O	0.088076	-0.871471	1.030714
O19	O	-0.174516	-1.248497	0.685756
O20	O	0.325484	-0.748497	1.185756
O21	O	-0.322947	-1.131690	0.326101
O22	O	0.177053	-0.631690	0.826101
O23	O	-0.312855	-1.011044	0.530626
O24	O	0.187145	-0.511044	1.030626
O25	O	-0.394185	-1.159414	0.890203
O26	O	0.105815	-0.659414	1.390203
O27	O	-0.404258	-1.018626	0.685588
O28	O	0.095742	-0.518626	1.185588
O29	O	-0.295150	-1.258504	0.890276
O30	O	0.204850	-0.758504	1.390276
O31	O	-0.542631	-1.240691	0.530618
O32	O	-0.042631	-0.740691	1.030618
O33	O	-0.534985	-1.149279	0.685583
O34	O	-0.034985	-0.649279	1.185583
C35	C	-0.358555	-0.985579	0.608097
C36	C	0.141445	-0.485579	1.108097
C37	C	-0.358567	-0.895957	0.608096
C38	C	0.141433	-0.395957	1.108096
C39	C	-0.358567	-0.823175	0.608107
C40	C	0.141433	-0.323175	1.108107
C41	C	-0.358569	-0.731868	0.608133
C42	C	0.141431	-0.231868	1.108133
C43	C	-0.358574	-0.659093	0.608161
C44	C	0.141426	-0.159093	1.108161
C45	C	-0.358577	-0.567780	0.608186
C46	C	0.141423	-0.067780	1.108186
C47	C	-0.568063	-1.194994	0.608117
C48	C	-0.068063	-0.694994	1.108117
C49	C	-0.657684	-1.195036	0.608137
C50	C	-0.157684	-0.695036	1.108137
C51	C	-0.985853	-1.195183	0.608268
C52	C	-0.485853	-0.695183	1.108268
C53	C	-0.894546	-1.195140	0.608235
C54	C	-0.394546	-0.695140	1.108235
C55	C	-0.821771	-1.195109	0.608202
C56	C	-0.321771	-0.695109	1.108202
C57	C	-0.730458	-1.195067	0.608170
C58	C	-0.230458	-0.695067	1.108170
C59	C	-0.148257	-1.195175	0.608250
C60	C	0.351743	-0.695175	1.108250
C61	C	-0.058634	-1.195219	0.608285
C62	C	0.441366	-0.695219	1.108285
C63	C	-0.342348	-1.211276	0.937306
C64	C	0.157652	-0.711276	1.437306
C65	C	-0.335436	-1.218181	1.077565
C66	C	0.164564	-0.718181	1.577565
C67	C	-0.358583	-0.405385	0.608228
C68	C	0.141417	0.094615	1.108228
C69	C	-0.358582	-0.495005	0.608213
C70	C	0.141418	0.004995	1.108213
C71	C	-0.374670	-1.178979	0.280314
C72	C	0.125330	-0.678979	0.780314
C73	C	-0.381356	-1.172230	0.140056
C74	C	0.118644	-0.672230	0.640056
H75	H	-0.425961	-1.127610	1.086256
H76	H	0.074039	-0.627610	1.586256
H77	H	-0.290833	-1.262810	1.131372
H78	H	0.209167	-0.762810	1.631372
