data_functionalizedCrystal
_audit_creation_method	'MofGen! by Chris Wilmer'
_symmetry_space_group_name_H-M	'P1'
_symmetry_Int_Tables_number	1
_symmetry_cell_setting	triclinic
loop_
_symmetry_equiv_pos_as_xyz
  x,y,z
_cell_length_a	8.497374
_cell_length_b	12.759401
_cell_length_c	12.759400
_cell_angle_alpha	89.985155
_cell_angle_beta	89.991978
_cell_angle_gamma	90.000368
loop_
_atom_site_label
_atom_site_type_symbol
_atom_site_fract_x
_atom_site_fract_y
_atom_site_fract_z
Zn1	Zn	0.891904	1.606068	0.418444
Zn2	Zn	0.628108	1.606017	0.594091
Zn3	Zn	0.628137	1.430425	0.418427
Zn4	Zn	0.891846	1.430358	0.594082
O5	O	0.759999	1.518217	0.506261
O6	O	0.856923	1.753082	0.441755
O7	O	0.407350	1.582732	0.570785
O8	O	0.663163	1.453773	0.271408
O9	O	0.663113	1.753045	0.570802
O10	O	0.856951	1.582817	0.271421
O11	O	0.407371	1.453725	0.441725
O12	O	0.663107	1.283395	0.441717
O13	O	1.112616	1.453659	0.570787
O14	O	0.856853	1.283346	0.570770
O15	O	1.112658	1.582752	0.441746
O16	O	0.663058	1.582667	0.741110
O17	O	0.856824	1.453611	0.741104
C18	C	0.759978	1.245250	0.506241
C19	C	0.760006	1.128473	0.506258
C20	C	0.860722	1.073613	0.573564
C21	C	0.860739	0.963889	0.573577
C22	C	0.659310	0.963895	0.438977
C23	C	0.659302	1.073617	0.438959
C24	C	0.977011	1.073609	0.651278
C25	C	0.977028	0.963885	0.651291
C26	C	0.759966	1.518155	0.779228
C27	C	0.760005	1.518224	0.896005
C28	C	1.171479	1.518209	0.506262
C29	C	1.350123	1.518212	0.506274
C30	C	0.760021	1.792250	0.506281
C31	C	0.760031	1.909027	0.506290
C32	C	0.760066	1.518308	0.232228
C33	C	0.760095	1.518347	0.115451
C34	C	0.659222	1.585498	0.950835
C35	C	0.659270	1.585563	1.060559
C36	C	0.860889	1.451070	1.060613
C37	C	0.860847	1.451012	0.950891
C38	C	0.542814	1.663143	0.950805
C39	C	0.542862	1.663208	1.060529
H40	H	1.093178	0.929862	0.622279
C41	C	0.917623	1.119580	0.755620
H42	H	0.891189	1.064125	0.802101
H43	H	0.827174	1.161484	0.743033
H44	H	0.997886	1.161481	0.786109
C45	C	0.548534	1.133965	0.364914
H46	H	0.562961	1.207168	0.374532
H47	H	0.442495	1.115980	0.380167
H48	H	0.571837	1.115987	0.294351
H49	H	0.944096	0.934096	0.732632
C50	C	1.142132	1.113851	0.622003
H51	H	1.210043	1.055943	0.609964
H52	H	1.182579	1.155207	0.677727
H53	H	1.135637	1.155217	0.560238
C54	C	0.971712	1.377013	0.890580
H55	H	1.031760	1.336987	0.938985
H56	H	1.040479	1.417141	0.847725
H57	H	0.911281	1.331240	0.847834
C58	C	0.971799	1.377137	1.120990
H59	H	0.957386	1.386803	1.194190
H60	H	1.077807	1.392442	1.102966
H61	H	0.948602	1.306546	1.103073
C62	C	0.377798	1.633867	1.100834
H63	H	0.309884	1.621746	1.042952
H64	H	0.337280	1.689597	1.142160
H65	H	0.384401	1.572136	1.142243
H66	H	0.575625	1.744480	0.920956
H67	H	0.577322	0.919217	0.384183
C68	C	0.385961	1.623842	0.904894
H69	H	0.316137	1.606386	0.960375
H70	H	0.404610	1.563554	0.863030
H71	H	0.340352	1.677355	0.862964
H72	H	0.586726	1.740503	1.094486
