data_functionalizedCrystal
_audit_creation_method	'MofGen! by Chris Wilmer'
_symmetry_space_group_name_H-M	'P1'
_symmetry_Int_Tables_number	1
_symmetry_cell_setting	triclinic
loop_
_symmetry_equiv_pos_as_xyz
  x,y,z
_cell_length_a	16.974800
_cell_length_b	16.992695
_cell_length_c	15.500215
_cell_angle_alpha	87.000809
_cell_angle_beta	89.533919
_cell_angle_gamma	92.978326
loop_
_atom_site_label
_atom_site_type_symbol
_atom_site_fract_x
_atom_site_fract_y
_atom_site_fract_z
O1	O	1.055364	-0.099784	-0.001974
O2	O	1.555364	0.400216	0.498026
O3	O	0.826738	-0.113247	0.014041
O4	O	1.326738	0.386753	0.514041
O5	O	0.940134	0.007623	0.006091
O6	O	1.440134	0.507623	0.506091
O7	O	0.941968	-0.220655	0.005976
O8	O	1.441968	0.279345	0.505976
O9	O	0.933178	0.014099	-0.137312
O10	O	1.433178	0.514099	0.362688
O11	O	0.819782	-0.106772	-0.129361
O12	O	1.319782	0.393228	0.370639
O13	O	1.048408	-0.093308	-0.145377
O14	O	1.548408	0.406692	0.354623
Cu15	Cu	0.933460	-0.099449	-0.150463
Cu16	Cu	1.433460	0.400551	0.349537
Cu17	Cu	0.941686	-0.107107	0.019127
Cu18	Cu	1.441686	0.392893	0.519127
O19	O	0.935012	-0.214179	-0.137426
O20	O	1.435012	0.285821	0.362574
C21	C	0.793871	-0.109620	-0.055601
C22	C	1.293871	0.390380	0.444399
C23	C	0.706299	-0.108449	-0.049467
C24	C	1.206299	0.391551	0.450533
C25	C	0.661371	-0.104367	-0.124756
C26	C	1.161371	0.395633	0.375244
C27	C	0.579090	-0.103255	-0.118995
C28	C	1.079090	0.396745	0.381005
C29	C	0.541737	-0.106230	-0.037944
C30	C	1.041737	0.393770	0.462056
C31	C	0.586671	-0.110310	0.037351
C32	C	1.086671	0.389690	0.537351
C33	C	0.668952	-0.111417	0.031588
C34	C	1.168952	0.388583	0.531588
C35	C	0.296062	-0.103293	-0.012329
C36	C	0.796062	0.396707	0.487671
C37	C	0.213775	-0.102189	-0.006572
C38	C	0.713775	0.397811	0.493428
C39	C	0.206199	-0.095132	-0.162918
C40	C	0.706199	0.404868	0.337082
C41	C	0.288481	-0.096244	-0.168673
C42	C	0.788481	0.403756	0.331327
C43	C	0.333408	-0.100320	-0.093379
C44	C	0.833408	0.399680	0.406621
N45	N	0.457632	-0.105096	-0.032053
N46	N	0.957632	0.394904	0.467947
N47	N	0.417512	-0.101448	-0.099270
N48	N	0.917512	0.398552	0.400730
C49	C	1.081275	-0.096936	-0.075732
C50	C	1.581275	0.403064	0.424268
C51	C	1.168847	-0.098107	-0.081861
C52	C	1.668847	0.401893	0.418139
C53	C	0.934298	0.040064	-0.065445
C54	C	1.434298	0.540064	0.434555
C55	C	0.927262	0.127077	-0.064952
C56	C	1.427262	0.627077	0.435048
C57	C	0.940848	-0.246619	-0.065889
C58	C	1.440848	0.253381	0.434111
C59	C	0.947884	-0.333634	-0.066376
C60	C	1.447884	0.166366	0.433624
N61	N	0.927680	-0.094061	-0.269744
N62	N	1.427680	0.405939	0.230256
C63	C	0.995147	0.177610	-0.069708
C64	C	1.495147	0.677610	0.430292
C65	C	0.988532	0.259368	-0.069237
C66	C	1.488532	0.759368	0.430763
C67	C	0.914031	0.290592	-0.064015
C68	C	1.414031	0.790592	0.435985
C69	C	0.846141	0.240053	-0.059256
C70	C	1.346141	0.740053	0.440744
C71	C	0.852757	0.158296	-0.059721
C72	C	1.352757	0.658296	0.440279
C73	C	0.886610	0.534071	-0.062082
C74	C	1.386610	1.034071	0.437918
C75	C	0.879999	0.615834	-0.061620
C76	C	1.379999	1.115834	0.438380
C77	C	1.022391	0.635143	-0.071599
C78	C	1.522391	1.135143	0.428401
C79	C	1.029000	0.553384	-0.072069
C80	C	1.529000	1.053384	0.427931
C81	C	0.961110	0.502853	-0.067306
C82	C	1.461110	1.002853	0.432694
N83	N	0.907268	0.374161	-0.063536
N84	N	1.407268	0.874161	0.436464
N85	N	0.967875	0.419284	-0.067779
N86	N	1.467875	0.919284	0.432221
C87	C	0.976279	-0.139392	-0.318418
C88	C	1.476279	0.360608	0.181582
C89	C	0.971918	-0.135313	-0.408686
C90	C	1.471918	0.364687	0.091314
C91	C	0.918954	-0.085907	-0.450278
C92	C	1.418954	0.414093	0.049722
C93	C	0.870354	-0.040571	-0.401597
C94	C	1.370354	0.459429	0.098403
C95	C	0.874719	-0.044647	-0.311331
C96	C	1.374719	0.455353	0.188669
C97	C	0.903236	-0.071228	-0.722646
C98	C	1.403236	0.428772	-0.222646
C99	C	0.898873	-0.067158	-0.812918
C100	C	1.398873	0.432842	-0.312918
C101	C	1.000439	-0.161898	-0.820001
C102	C	1.500439	0.338102	-0.320001
C103	C	1.004796	-0.165973	-0.729733
C104	C	1.504796	0.334027	-0.229733
C105	C	0.956199	-0.120634	-0.681060
C106	C	1.456199	0.379366	-0.181060
C107	C	0.914493	-0.081738	-0.542546
C108	C	1.414493	0.418262	-0.042546
C109	C	0.960664	-0.124800	-0.588794
C110	C	1.460664	0.375200	-0.088794
N111	N	0.947471	-0.112488	0.138408
N112	N	1.447471	0.387512	0.638408
H113	H	0.705531	-0.114742	0.092897
H114	H	1.205531	0.385258	0.592897
H115	H	0.785481	0.265482	-0.054999
H116	H	1.285481	0.765482	0.445001
O117	O	1.075503	0.143932	-0.075332
O118	O	1.575503	0.643932	0.424668
H119	H	1.121596	0.192809	-0.078549
H120	H	1.621596	0.692809	0.421451
O121	O	1.052864	-0.210780	-0.872504
O122	O	1.552864	0.289220	-0.372504
H123	H	1.015758	-0.251191	-0.911182
H124	H	1.515758	0.248809	-0.411182
H125	H	1.043812	0.300508	-0.073112
H126	H	1.543812	0.800508	0.426888
H127	H	1.089667	0.527968	-0.076322
H128	H	1.589667	1.027968	0.423678
H129	H	1.077663	0.676294	-0.075476
H130	H	1.577663	1.176294	0.424524
O131	O	0.157718	-0.091134	-0.244123
O132	O	0.657718	0.408866	0.255877
H133	H	0.094218	-0.091006	-0.226503
H134	H	0.594218	0.408994	0.273497
H135	H	0.819327	0.641254	-0.057381
H136	H	1.319327	1.141254	0.442619
O137	O	0.779539	0.103788	-0.054601
O138	O	1.279539	0.603788	0.445399
H139	H	0.726621	0.139234	-0.050902
H140	H	1.226621	0.639234	0.449098
H141	H	0.318888	-0.093817	-0.234673
H142	H	0.818888	0.406183	0.265327
H143	H	1.047927	-0.206202	-0.695876
H144	H	1.547927	0.293798	-0.195876
O145	O	0.822336	0.004285	-0.258834
O146	O	1.322336	0.504285	0.241166
H147	H	0.834288	-0.006828	-0.189081
H148	H	1.334288	0.493172	0.310919
H149	H	0.542514	-0.099918	-0.180303
H150	H	1.042514	0.400082	0.319697
H151	H	0.831329	0.492937	-0.058203
H152	H	1.331329	0.992937	0.441797
H153	H	1.019403	-0.179628	-0.284561
H154	H	1.519403	0.320372	0.215439
O155	O	1.024331	-0.184207	-0.461188
O156	O	1.524331	0.315793	0.038812
H157	H	1.061886	-0.219254	-0.417102
H158	H	1.561886	0.280746	0.082898
O159	O	0.841748	-0.013865	-0.857783
O160	O	1.341748	0.486135	-0.357783
H161	H	0.808693	0.016983	-0.808774
H162	H	1.308693	0.516983	-0.308774
H163	H	0.863665	-0.034310	-0.683027
H164	H	1.363665	0.465690	-0.183027
H165	H	1.003789	-0.165023	-0.554927
H166	H	1.503789	0.334977	-0.054927
H167	H	0.827233	-0.000340	-0.435468
H168	H	1.327233	0.499660	0.064532
O169	O	0.857364	-0.028453	-0.587402
O170	O	1.357364	0.471547	-0.087402
H171	H	0.815391	-0.064338	-0.625726
H172	H	1.315391	0.435662	-0.125726
H173	H	0.183365	-0.104614	0.059433
H174	H	0.683365	0.395386	0.559433
O175	O	0.701654	-0.101170	-0.212178
O176	O	1.201654	0.398830	0.287822
H177	H	0.687715	-0.045840	-0.248819
H178	H	1.187715	0.454160	0.251181
O179	O	0.344514	-0.107697	0.068877
O180	O	0.844514	0.392303	0.568877
H181	H	0.304714	-0.109590	0.126202
H182	H	0.804714	0.390410	0.626202
O183	O	0.546390	-0.113522	0.124773
O184	O	1.046390	0.386478	0.624773
H185	H	0.481626	-0.112076	0.116133
H186	H	0.981626	0.387924	0.616133
