data_functionalizedCrystal
_audit_creation_method	'MofGen! by Chris Wilmer'
_symmetry_space_group_name_H-M	'P1'
_symmetry_Int_Tables_number	1
_symmetry_cell_setting	triclinic
loop_
_symmetry_equiv_pos_as_xyz
  x,y,z
_cell_length_a	12.837943
_cell_length_b	10.654550
_cell_length_c	11.892095
_cell_angle_alpha	93.928097
_cell_angle_beta	85.689438
_cell_angle_gamma	89.656922
loop_
_atom_site_label
_atom_site_type_symbol
_atom_site_fract_x
_atom_site_fract_y
_atom_site_fract_z
O1	O	1.384377	0.319511	-0.093978
O2	O	1.082456	0.303370	-0.093985
O3	O	1.240358	0.129459	-0.093977
O4	O	1.226475	0.493422	-0.093986
O5	O	1.227192	0.143935	0.094030
O6	O	1.069290	0.317845	0.094022
O7	O	1.371211	0.333987	0.094029
Zn8	Zn	1.218160	0.328214	0.123876
Zn9	Zn	1.235507	0.309142	-0.123831
O10	O	1.213309	0.507898	0.094021
C11	C	1.037213	0.305155	0.000018
C12	C	0.922020	0.288892	0.000015
C13	C	1.232756	0.089788	0.000025
C14	C	1.229706	-0.049989	0.000021
C15	C	0.682466	0.484397	0.000027
C16	C	0.574230	0.469123	0.000025
C17	C	0.597310	0.243071	0.000018
C18	C	0.705546	0.258345	0.000020
C19	C	0.748119	0.379012	0.000023
C20	C	0.856358	0.394285	0.000016
C21	C	0.879435	0.168234	0.000017
C22	C	0.771199	0.152960	0.000016
C23	C	1.322676	-0.119329	0.000027
C24	C	1.319805	-0.250664	0.000019
C25	C	1.130985	-0.243306	0.000004
C26	C	1.133858	-0.111974	0.000004
C27	C	1.418525	-0.057343	0.000044
C28	C	1.511502	-0.126683	0.000050
C29	C	1.508631	-0.258018	0.000042
C30	C	1.412782	-0.320013	0.000028
C31	C	1.416454	0.332202	0.000024
C32	C	1.531648	0.348464	0.000019
C33	C	1.220912	0.547569	0.000017
C34	C	1.223962	0.687345	0.000013
N35	N	1.206330	0.341231	0.292929
N36	N	1.247346	0.296117	-0.292885
C37	C	1.329670	0.205471	0.529583
C38	C	1.321408	0.214579	0.647925
C39	C	1.181539	0.368549	0.647956
C40	C	1.189801	0.359440	0.529614
C41	C	1.263870	0.277900	0.470432
C42	C	1.272137	0.268799	0.352089
C43	C	1.132263	0.422761	0.352122
C44	C	1.124001	0.431870	0.470463
H45	H	0.717130	0.582649	0.000027
O46	O	1.392382	0.136458	0.711720
H47	H	1.374191	0.156480	0.803954
H48	H	0.562621	0.144837	0.000110
O49	O	0.725270	0.022821	0.000017
H50	H	0.789111	-0.047893	0.000021
O51	O	1.101649	0.456469	0.711814
H52	H	1.022244	0.428959	0.689124
H53	H	0.520778	0.554939	0.000032
O54	O	0.950245	0.054556	0.000019
H55	H	1.032661	0.085445	0.000027
H56	H	1.420873	0.049596	0.000054
O57	O	1.033583	-0.037178	0.000002
H58	H	1.025017	0.028738	0.076627
H59	H	1.389987	0.139087	0.481396
O60	O	1.352015	0.180849	0.288248
H61	H	1.396372	0.132004	0.349267
O62	O	1.614880	-0.059830	0.000062
H63	H	1.601260	0.043145	0.000077
O64	O	1.044121	0.519823	0.534296
H65	H	1.049434	0.513997	0.626524
O66	O	1.608905	-0.332813	0.000055
H67	H	1.676032	-0.267641	0.000077
O68	O	1.409681	-0.461667	0.000025
H69	H	1.455052	-0.503784	-0.076598
O70	O	1.027607	-0.310161	0.000011
H71	H	1.041228	-0.413133	0.000027
H72	H	1.078687	0.481742	0.303948
H73	H	0.891019	0.492538	0.000020
