data_functionalizedCrystal
_audit_creation_method	'MofGen! by Chris Wilmer'
_symmetry_space_group_name_H-M	'P1'
_symmetry_Int_Tables_number	1
_symmetry_cell_setting	triclinic
loop_
_symmetry_equiv_pos_as_xyz
  x,y,z
_cell_length_a	15.995343
_cell_length_b	15.995292
_cell_length_c	9.730223
_cell_angle_alpha	89.999079
_cell_angle_beta	89.997499
_cell_angle_gamma	96.521100
loop_
_atom_site_label
_atom_site_type_symbol
_atom_site_fract_x
_atom_site_fract_y
_atom_site_fract_z
O1	O	1.110964	-0.107898	0.114142
O2	O	0.867185	-0.121233	0.114174
O3	O	0.995764	0.007326	0.114159
O4	O	0.982385	-0.236456	0.114157
O5	O	0.995759	0.007329	-0.114421
O6	O	0.867180	-0.121230	-0.114406
O7	O	1.110959	-0.107895	-0.114438
Zn8	Zn	0.989069	-0.114562	-0.150714
Zn9	Zn	0.989075	-0.114566	0.150450
O10	O	0.982381	-0.236453	-0.114423
C11	C	0.835988	-0.120681	-0.000112
C12	C	0.743037	-0.119032	-0.000099
C13	C	0.572852	-0.116038	-0.000118
C14	C	0.549525	-0.023238	-0.000116
C15	C	0.452848	-0.021493	-0.000643
C16	C	0.405292	-0.113089	-0.000134
C17	C	0.434372	-0.159749	-0.130405
C18	C	0.531164	-0.160849	-0.130507
C19	C	0.531079	-0.162212	0.129440
C20	C	0.434585	-0.158786	0.131145
C21	C	0.310595	-0.111428	-0.000148
C22	C	0.667549	-0.117702	-0.000113
C23	C	0.995217	0.038523	-0.000127
C24	C	0.993584	0.131476	-0.000117
C25	C	1.142156	-0.108447	-0.000149
C26	C	1.235107	-0.110096	-0.000153
C27	C	0.982927	-0.267650	-0.000134
C28	C	0.984560	-0.360603	-0.000135
C29	C	0.987583	0.469214	-0.000128
C30	C	1.080388	0.445904	-0.000651
C31	C	1.082152	0.349229	-0.000131
C32	C	0.990561	0.301658	-0.000123
C33	C	0.944166	0.330756	0.130409
C34	C	0.943049	0.427547	0.130513
C35	C	0.941148	0.427407	-0.129425
C36	C	0.944587	0.330915	-0.131145
C37	C	0.992239	0.206962	-0.000116
C38	C	0.985902	0.563910	-0.000127
N39	N	0.989071	-0.114558	-0.356250
C40	C	0.938310	-0.063743	-0.428191
C41	C	0.938312	-0.063748	-0.572074
C42	C	1.039843	-0.165383	-0.572063
C43	C	1.039836	-0.165383	-0.428183
C44	C	0.887545	-0.012919	-0.356259
C45	C	0.836781	0.037901	-0.428199
C46	C	0.836783	0.037897	-0.572082
C47	C	0.887549	-0.012927	-0.644025
N48	N	0.989080	-0.114563	0.355986
H49	H	0.433838	0.015032	0.092722
H50	H	0.887539	-0.012908	-0.239102
C51	C	0.781008	0.093871	-0.349060
N52	N	0.739025	0.136055	-0.289454
C53	C	0.780936	0.093793	-0.651213
N54	N	0.738873	0.135899	-0.710811
H55	H	0.559358	-0.132935	0.228213
C56	C	1.095689	-0.221279	-0.651205
N57	N	1.137756	-0.263377	-0.710815
H58	H	0.577542	0.012730	0.093288
C59	C	0.980425	0.465580	-0.263086
N60	N	1.010018	0.494332	-0.363753
H61	H	0.402511	-0.227161	-0.134885
C62	C	0.550835	-0.252784	-0.138019
N63	N	0.565648	-0.322027	-0.143687
C64	C	0.407242	-0.116493	-0.261877
N65	N	0.386810	-0.083908	-0.360898
C66	C	0.409520	-0.112888	0.261349
N67	N	0.390634	-0.078316	0.359416
C68	C	0.588680	0.024565	-0.126141
N69	N	0.618168	0.060567	-0.221068
C70	C	0.390067	-0.249089	0.142292
N71	N	0.356537	-0.317109	0.150675
H72	H	0.872837	0.441396	-0.130298
H73	H	0.887542	-0.012931	-0.761184
H74	H	1.081167	-0.206764	-0.369607
H75	H	0.434417	0.014864	-0.094573
H76	H	1.115962	0.474922	0.092425
C77	C	0.567359	-0.117697	-0.262557
N78	N	0.594618	-0.085190	-0.362018
H79	H	0.978370	0.312352	-0.227712
C80	C	0.550000	-0.254487	0.131146
N81	N	0.564257	-0.323986	0.132422
H82	H	1.118487	0.330206	-0.093700
C83	C	0.853115	0.287696	0.136985
N84	N	0.784536	0.255260	0.141937
H85	H	1.116157	0.473904	-0.094262
H86	H	0.877735	0.297944	-0.139022
H87	H	0.875004	0.442095	0.136433
H88	H	1.118706	0.330824	0.093594
C89	C	0.986474	0.463777	0.262314
N90	N	1.019189	0.491063	0.361585
H91	H	0.976388	0.310695	0.227544
