data_functionalizedCrystal
_audit_creation_method	'MofGen! by Chris Wilmer'
_symmetry_space_group_name_H-M	'P1'
_symmetry_Int_Tables_number	1
_symmetry_cell_setting	triclinic
loop_
_symmetry_equiv_pos_as_xyz
  x,y,z
_cell_length_a	18.101398
_cell_length_b	25.639239
_cell_length_c	18.101389
_cell_angle_alpha	89.979551
_cell_angle_beta	89.975673
_cell_angle_gamma	90.033952
loop_
_atom_site_label
_atom_site_type_symbol
_atom_site_fract_x
_atom_site_fract_y
_atom_site_fract_z
Zn1	Zn	1.132082	-0.208272	-0.418828
Zn2	Zn	1.131961	-0.295693	-0.294982
Zn3	Zn	1.008241	-0.208266	-0.294989
Zn4	Zn	1.008175	-0.295671	-0.418771
O5	O	1.070115	-0.251975	-0.356893
O6	O	1.235699	-0.219880	-0.402421
O7	O	1.115527	-0.284103	-0.191350
O8	O	1.024747	-0.135102	-0.311444
O9	O	1.235610	-0.284108	-0.311432
O10	O	1.115732	-0.135106	-0.402428
O11	O	1.024630	-0.219871	-0.191356
O12	O	0.904599	-0.219849	-0.311388
O13	O	1.024635	-0.284070	-0.522411
O14	O	0.904551	-0.284065	-0.402330
O15	O	1.115668	-0.219858	-0.522454
O16	O	1.115463	-0.368855	-0.311376
O17	O	1.024518	-0.368839	-0.402323
C18	C	0.877704	-0.251954	-0.356854
C19	C	0.795390	-0.251958	-0.356855
C20	C	1.069990	-0.387818	-0.356859
C21	C	1.070005	-0.445932	-0.356869
C22	C	0.496299	-0.251990	-0.356917
C23	C	0.527630	-0.211386	-0.299978
C24	C	0.613248	-0.211495	-0.299735
C25	C	0.644682	-0.251974	-0.356886
C26	C	0.613553	-0.307048	-0.335559
C27	C	0.527908	-0.306822	-0.335163
C28	C	0.527917	-0.238000	-0.435317
C29	C	0.613568	-0.236773	-0.434890
C30	C	0.728541	-0.251968	-0.356870
C31	C	0.412440	-0.252000	-0.356932
C32	C	1.117594	-0.806291	-0.309617
C33	C	1.117622	-0.860895	-0.309627
O34	O	1.157955	-0.889129	-0.269415
N35	N	1.070245	-0.888214	-0.356942
C36	C	1.022841	-0.860926	-0.404255
O37	O	0.982546	-0.889177	-0.444501
C38	C	1.022817	-0.806323	-0.404248
C39	C	1.070192	-0.779007	-0.356925
C40	C	1.164965	-0.778975	-0.262299
C41	C	1.164936	-0.724374	-0.262288
C42	C	1.117534	-0.697090	-0.309596
C43	C	1.070162	-0.724406	-0.356914
C44	C	0.975417	-0.779036	-0.451564
C45	C	0.975397	-0.724429	-0.451554
C46	C	1.022773	-0.697113	-0.404231
C47	C	1.022731	-0.642522	-0.404212
N48	N	1.070108	-0.615202	-0.356897
C49	C	1.117509	-0.642487	-0.309589
C50	C	1.022897	-0.975597	-0.404266
C51	C	1.022917	-1.030199	-0.404270
C52	C	1.117699	-1.030164	-0.309643
C53	C	1.117675	-0.975561	-0.309636
C54	C	1.070274	-0.948278	-0.356952
C55	C	1.117443	-0.527822	-0.309570
C56	C	1.117406	-0.473216	-0.309561
C57	C	1.022627	-0.473256	-0.404190
C58	C	1.022661	-0.527856	-0.404197
C59	C	1.070074	-0.555138	-0.356884
O60	O	0.982421	-0.614254	-0.444405
O61	O	1.157804	-0.614229	-0.269357
C62	C	1.263277	-0.251997	-0.356932
C63	C	1.345591	-0.252006	-0.356949
C64	C	1.070158	-0.251962	-0.550055
C65	C	1.070176	-0.251957	-0.632369
C66	C	1.070260	-0.115602	-0.356943
C67	C	1.070322	-0.057488	-0.356964
C68	C	1.070219	-0.251859	-0.931460
C69	C	1.012746	-0.292130	-0.900108
C70	C	1.012901	-0.292317	-0.814490
C71	C	1.070197	-0.251907	-0.783077
C72	C	1.148220	-0.266868	-0.814182
C73	C	1.147899	-0.267132	-0.899827
C74	C	1.050348	-0.196537	-0.899887
C75	C	1.048612	-0.196856	-0.814236
C76	C	1.070189	-0.251934	-0.699218
C77	C	1.070232	-0.251833	-1.015320
C78	C	1.070115	-0.251951	-0.164482
C79	C	1.070240	-0.251809	-0.082169
H80	H	0.507068	-0.170421	-0.313200
N81	N	0.640418	-0.322188	-0.264435
N82	N	0.682480	-0.292512	-0.229331
H83	H	0.701452	-0.303202	-0.179098
H84	H	0.955044	-0.282955	-0.793458
H85	H	1.156252	-0.953323	-0.271102
H86	H	0.936799	-0.702218	-0.490086
N87	N	1.213315	-0.696474	-0.213936
N88	N	1.187267	-0.666047	-0.166705
H89	H	1.221435	-0.646348	-0.132549
H90	H	1.192191	-0.238457	-0.793838
N91	N	0.980211	-0.179433	-0.926944
N92	N	0.955111	-0.136109	-0.907692
H93	H	0.905573	-0.124034	-0.926799
N94	N	1.169716	-0.317060	-0.787275
N95	N	1.127709	-0.341900	-0.745199
H96	H	1.142887	-0.377349	-0.726195
H97	H	0.506079	-0.220529	-0.242223
H98	H	0.634297	-0.170655	-0.313104
H99	H	1.155985	-0.450977	-0.271023
H100	H	0.954715	-0.282864	-0.920695
N101	N	1.029039	-0.343255	-0.927118
N102	N	1.082795	-0.350161	-0.969357
H103	H	1.094304	-0.386268	-0.988436
N104	N	1.097275	-0.157205	-0.787409
N105	N	1.088181	-0.110830	-0.806670
H106	H	1.122548	-0.082825	-0.787716
N107	N	0.500884	-0.188495	-0.459653
N108	N	0.520171	-0.170804	-0.521063
H109	H	0.501081	-0.135839	-0.538244
H110	H	1.026019	-0.333323	-0.794005
H111	H	0.991194	-0.185574	-0.793905
N112	N	0.639094	-0.346013	-0.385961
N113	N	0.680623	-0.333598	-0.438286
H114	H	0.698662	-0.361117	-0.473884
H115	H	0.633700	-0.220743	-0.241642
N116	N	1.169040	-0.317865	-0.924887
N117	N	1.183926	-0.352830	-0.879125
H118	H	1.198858	-0.388662	-0.896819
N119	N	0.974507	-1.058099	-0.452592
N120	N	0.906173	-1.052045	-0.447604
H121	H	0.871982	-1.071747	-0.481734
H122	H	0.633919	-0.196245	-0.450971
H123	H	0.634968	-0.264193	-0.479587
H124	H	1.092209	-0.166532	-0.920164
H125	H	1.156299	-1.052389	-0.271125
H126	H	1.192172	-0.239073	-0.920569
H127	H	0.507894	-0.318688	-0.277849
H128	H	0.507654	-0.267575	-0.477742
H129	H	0.507180	-0.338099	-0.374826
H130	H	1.156053	-0.550028	-0.271045
H131	H	0.984292	-0.953386	-0.442794
N132	N	1.213398	-0.806831	-0.213970
N133	N	1.255688	-0.782425	-0.171731
H134	H	1.289894	-0.802094	-0.137592
H135	H	0.984086	-0.550098	-0.442733
N136	N	0.927019	-0.806922	-0.499909
N137	N	0.884709	-0.782544	-0.542144
H138	H	0.850525	-0.802237	-0.576292
H139	H	0.984031	-0.451032	-0.442706
