data_functionalizedCrystal
_audit_creation_method	'MofGen! by Chris Wilmer'
_symmetry_space_group_name_H-M	'P1'
_symmetry_Int_Tables_number	1
_symmetry_cell_setting	triclinic
loop_
_symmetry_equiv_pos_as_xyz
  x,y,z
_cell_length_a	12.784905
_cell_length_b	16.992694
_cell_length_c	16.053789
_cell_angle_alpha	92.715794
_cell_angle_beta	93.108307
_cell_angle_gamma	81.887771
loop_
_atom_site_label
_atom_site_type_symbol
_atom_site_fract_x
_atom_site_fract_y
_atom_site_fract_z
O1	O	0.228296	1.027770	0.069322
O2	O	0.225839	0.799654	0.069347
O3	O	0.073758	0.930405	0.069330
O4	O	0.380377	0.897019	0.069339
O5	O	0.065306	0.925073	-0.069529
O6	O	0.217388	0.794322	-0.069512
O7	O	0.219845	1.022438	-0.069537
Zn8	Zn	0.217274	0.907533	-0.091571
Zn9	Zn	0.228409	0.914558	0.091381
O10	O	0.371926	0.891687	-0.069520
C11	C	0.218451	0.767991	-0.000080
C12	C	0.209016	0.681590	-0.000070
C13	C	0.300059	0.625143	-0.000068
C14	C	0.291186	0.543960	-0.000080
C15	C	0.191269	0.519228	-0.000088
C16	C	0.100219	0.575683	-0.000092
C17	C	0.109092	0.656863	-0.000086
C18	C	0.154492	0.278137	-0.000111
C19	C	0.145625	0.196950	-0.000114
C20	C	0.336593	0.165233	-0.000104
C21	C	0.345458	0.246417	-0.000093
C22	C	0.254408	0.302864	-0.000102
N23	N	0.182197	0.436247	-0.000097
N24	N	0.263480	0.385843	-0.000099
C25	C	0.030117	0.929910	-0.000098
C26	C	-0.087328	0.936371	-0.000095
C27	C	-0.294892	0.804744	-0.000089
C28	C	-0.405242	0.810811	-0.000087
C29	C	-0.418379	0.954570	-0.000093
C30	C	-0.308029	0.948503	-0.000096
C31	C	-0.246289	0.873588	-0.000093
C32	C	-0.135938	0.867522	-0.000090
C33	C	-0.149077	1.011281	-0.000102
C34	C	-0.259426	1.017347	-0.000099
C35	C	0.415567	0.892182	-0.000090
C36	C	0.533012	0.885721	-0.000087
C37	C	0.227233	1.054101	-0.000109
C38	C	0.236668	1.140502	-0.000113
N39	N	0.209675	0.902745	-0.216432
C40	C	0.275166	0.943976	-0.260126
C41	C	0.269844	0.940637	-0.347532
C42	C	0.199035	0.896062	-0.391244
C43	C	0.133537	0.854830	-0.347544
C44	C	0.138855	0.858174	-0.260138
C45	C	0.175820	0.881465	-0.652653
C46	C	0.170510	0.878123	-0.740065
C47	C	0.306816	0.963932	-0.740047
C48	C	0.312131	0.967268	-0.652640
C49	C	0.246629	0.926039	-0.608948
N50	N	0.193596	0.892646	-0.480587
N51	N	0.252064	0.929460	-0.519606
N52	N	0.236001	0.919354	0.216242
H53	H	0.426821	0.266547	-0.000077
N54	N	0.094145	0.830041	-0.787223
H55	H	0.111052	0.772487	-0.772014
H56	H	0.019522	0.851306	-0.772011
N57	N	0.037844	0.170284	-0.000136
H58	H	0.026785	0.135338	-0.051614
H59	H	0.033093	0.139317	0.051371
N60	N	-0.069358	0.786719	-0.000100
H61	H	-0.026423	0.779029	-0.051578
H62	H	-0.020203	0.783007	0.051406
H63	H	0.018863	0.555539	-0.000110
H64	H	-0.109489	1.067341	-0.000031
N65	N	0.351543	0.992050	-0.212983
H66	H	0.392221	1.017664	-0.253929
H67	H	0.310939	1.034687	-0.176718
N68	N	0.340432	0.985149	-0.394660
H69	H	0.386084	1.013904	-0.353707
H70	H	0.386986	0.946283	-0.430949
N71	N	0.434793	0.104353	-0.000096
H72	H	0.414015	0.049171	-0.000102
H73	H	0.474906	0.109649	-0.051571
N74	N	0.056291	0.339012	-0.000126
H75	H	-0.008349	0.311023	-0.000130
H76	H	0.058936	0.375360	0.051349
H77	H	0.034955	0.702823	-0.000087
N78	N	-0.228280	0.723954	-0.000083
H79	H	-0.241468	0.695558	0.051396
H80	H	-0.247773	0.691670	-0.051588
N81	N	-0.457666	0.736558	-0.000091
H82	H	-0.401807	0.688182	-0.000092
H83	H	-0.500030	0.737913	0.051385
N84	N	-0.484990	1.035360	-0.000111
H85	H	-0.527939	1.043055	0.051360
H86	H	-0.437398	1.078011	-0.000147
N87	N	-0.326028	1.098141	-0.000108
H88	H	-0.368971	1.105834	0.051367
H89	H	-0.278427	1.140786	-0.000142
H90	H	0.369788	1.003568	-0.617057
H91	H	0.360143	0.997498	-0.775631
H92	H	0.075878	0.818540	-0.383140
H93	H	0.085525	0.824599	-0.224564
N94	N	0.407828	0.651816	-0.000050
H95	H	0.464156	0.603735	-0.000052
H96	H	0.412541	0.682840	-0.051523
N97	N	0.389412	0.483107	-0.000147
H98	H	0.435872	0.492254	0.051311
H99	H	0.368595	0.427937	-0.000211
N100	N	0.105174	0.837000	-0.605534
H101	H	0.059515	0.808253	-0.646491
H102	H	0.150185	0.797136	-0.569267
