data_functionalizedCrystal
_audit_creation_method	'MofGen! by Chris Wilmer'
_symmetry_space_group_name_H-M	'P1'
_symmetry_Int_Tables_number	1
_symmetry_cell_setting	triclinic
loop_
_symmetry_equiv_pos_as_xyz
  x,y,z
_cell_length_a	8.559649
_cell_length_b	10.723024
_cell_length_c	7.681481
_cell_angle_alpha	84.204337
_cell_angle_beta	94.913240
_cell_angle_gamma	77.123267
loop_
_atom_site_label
_atom_site_type_symbol
_atom_site_fract_x
_atom_site_fract_y
_atom_site_fract_z
O1	O	2.104705	-0.029042	-0.146401
O2	O	1.640206	0.035334	-0.146409
O3	O	1.883170	-0.179530	-0.146398
O4	O	1.861740	0.185821	-0.146412
O5	O	1.913074	-0.206029	0.146461
O6	O	1.670110	0.008834	0.146450
O7	O	2.134609	-0.055542	0.146458
Zn8	Zn	1.907107	-0.027561	0.192952
Zn9	Zn	1.867707	0.007353	-0.192903
O10	O	1.891644	0.159322	0.146447
C11	C	1.595681	0.026963	0.000019
C12	C	1.418460	0.041484	0.000016
C13	C	1.896563	-0.239119	0.000029
C14	C	1.891896	-0.377194	0.000023
C15	C	2.027846	-0.466115	0.000023
C16	C	2.023026	-0.608823	0.000016
C17	C	2.179133	-0.047170	0.000026
C18	C	2.356353	-0.061691	0.000018
C19	C	1.878251	0.218911	0.000016
C20	C	1.882917	0.356988	0.000011
N21	N	1.934009	-0.051391	0.456287
N22	N	1.840818	0.031172	-0.456238
H23	H	2.139410	-0.685189	0.000024
O24	O	1.727123	0.131659	0.454252
C25	C	1.573395	0.122596	0.499163
H26	H	1.586558	0.062527	0.633067
H27	H	1.512728	0.074638	0.395452
C28	C	1.453474	0.332404	0.342975
C29	C	1.469640	0.258634	0.507445
H30	H	1.389470	0.416318	0.348077
H31	H	1.557042	0.338509	0.312711
H32	H	1.402924	0.292424	0.256566
H33	H	1.520208	0.298606	0.593846
H34	H	1.366078	0.252539	0.537724
H35	H	1.766528	-0.566656	0.000023
O36	O	1.748851	-0.412537	-0.000219
C37	C	1.722242	-0.472128	-0.151922
H38	H	1.842568	-0.511864	-0.202488
H39	H	1.641323	-0.398360	-0.258128
C40	C	1.492158	-0.534393	-0.043755
C41	C	1.639946	-0.583207	-0.105852
H42	H	1.441388	-0.602908	-0.015341
H43	H	1.510080	-0.494241	0.058448
H44	H	1.424745	-0.472920	-0.132270
H45	H	1.707364	-0.644667	-0.017330
H46	H	1.622033	-0.623372	-0.208039
H47	H	2.029155	-0.135661	0.531497
H48	H	1.438759	-0.161133	0.000012
O49	O	2.170835	-0.430694	0.000106
C50	C	2.143812	-0.296089	0.000063
H51	H	2.025209	-0.258762	0.055504
H52	H	2.137534	-0.247902	-0.140436
C53	C	2.428655	-0.310413	0.046824
C54	C	2.282992	-0.264570	0.114931
H55	H	2.514510	-0.290968	0.117672
H56	H	2.446863	-0.401099	0.046846
H57	H	2.423401	-0.270253	-0.070257
H58	H	2.288241	-0.304742	0.232001
H59	H	2.264788	-0.173889	0.114931
H60	H	1.336043	0.140934	0.000003
