data_functionalizedCrystal
_audit_creation_method	'MofGen! by Chris Wilmer'
_symmetry_space_group_name_H-M	'P1'
_symmetry_Int_Tables_number	1
_symmetry_cell_setting	triclinic
loop_
_symmetry_equiv_pos_as_xyz
  x,y,z
_cell_length_a	16.625548
_cell_length_b	10.686285
_cell_length_c	10.686551
_cell_angle_alpha	80.915481
_cell_angle_beta	85.603024
_cell_angle_gamma	85.632645
loop_
_atom_site_label
_atom_site_type_symbol
_atom_site_fract_x
_atom_site_fract_y
_atom_site_fract_z
Zn1	Zn	1.288144	-0.450125	-0.679055
Zn2	Zn	1.288079	-0.678705	-0.450553
Zn3	Zn	1.143696	-0.466483	-0.466812
Zn4	Zn	1.162915	-0.662326	-0.662752
O5	O	1.220709	-0.564410	-0.564793
O6	O	1.400970	-0.480456	-0.648763
O7	O	1.260856	-0.664254	-0.275079
O8	O	1.154841	-0.286691	-0.508594
O9	O	1.400922	-0.648392	-0.480883
O10	O	1.260967	-0.274673	-0.664528
O11	O	1.154778	-0.508336	-0.287024
O12	O	1.033412	-0.492454	-0.492785
O13	O	1.187598	-0.620477	-0.842545
O14	O	1.047532	-0.636338	-0.636741
O15	O	1.279603	-0.464574	-0.854523
O16	O	1.279492	-0.854155	-0.465074
O17	O	1.187535	-0.842121	-0.620976
C18	C	1.235615	-0.894191	-0.539519
C19	C	1.242067	-1.035270	-0.528750
C20	C	1.011216	-0.564395	-0.564759
C21	C	0.921596	-0.564416	-0.564772
C22	C	0.593423	-0.564420	-0.564826
C23	C	0.684731	-0.564416	-0.564807
C24	C	0.757507	-0.564419	-0.564798
C25	C	0.848820	-0.564413	-0.564781
C26	C	1.431020	-0.564426	-0.564828
C27	C	1.520642	-0.564433	-0.564843
C28	C	1.235752	-0.538873	-0.895880
C29	C	1.242162	-0.527991	-1.036969
C30	C	1.205768	-0.233339	-0.590193
C31	C	1.199401	-0.092256	-0.601017
C32	C	1.205767	-0.589756	-0.235001
C33	C	1.199496	-0.600280	-0.093940
H34	H	1.157936	-1.033116	-0.671130
H35	H	1.283529	-1.094419	-0.458624
N36	N	1.297042	-0.434973	-1.115345
H37	H	1.279389	-0.346036	-1.099296
H38	H	1.354492	-0.456547	-1.090805
N39	N	1.144617	-0.693299	-1.015585
H40	H	1.147663	-0.688151	-0.922521
H41	H	1.087176	-0.671778	-1.040196
