data_functionalizedCrystal
_audit_creation_method	'MofGen! by Chris Wilmer'
_symmetry_space_group_name_H-M	'P1'
_symmetry_Int_Tables_number	1
_symmetry_cell_setting	triclinic
loop_
_symmetry_equiv_pos_as_xyz
  x,y,z
_cell_length_a	13.339070
_cell_length_b	10.654550
_cell_length_c	9.130313
_cell_angle_alpha	90.004369
_cell_angle_beta	90.003801
_cell_angle_gamma	100.057112
loop_
_atom_site_label
_atom_site_type_symbol
_atom_site_fract_x
_atom_site_fract_y
_atom_site_fract_z
O1	O	-1.346709	-0.631121	-0.121851
O2	O	-0.846709	-0.131121	0.378149
O3	O	-1.051601	-0.548283	-0.121843
O4	O	-0.551601	-0.048283	0.378157
O5	O	-1.205940	-0.409254	-0.121838
O6	O	-0.705940	0.090746	0.378162
O7	O	-1.192370	-0.770150	-0.121856
O8	O	-0.692370	-0.270150	0.378144
O9	O	-1.205930	-0.409244	0.121761
O10	O	-0.705930	0.090756	0.621761
O11	O	-1.051590	-0.548273	0.121756
O12	O	-0.551590	-0.048273	0.621756
O13	O	-1.346699	-0.631112	0.121748
O14	O	-0.846699	-0.131112	0.621748
Cu15	Cu	-1.199143	-0.589692	0.143994
Cu16	Cu	-0.699143	-0.089692	0.643994
Cu17	Cu	-1.199156	-0.589703	-0.144089
Cu18	Cu	-0.699156	-0.089703	0.355911
O19	O	-1.192359	-0.770141	0.121743
O20	O	-0.692359	-0.270141	0.621743
C21	C	-1.013808	-0.534285	-0.000042
C22	C	-0.513808	-0.034285	0.499958
C23	C	-0.901214	-0.492575	-0.000039
C24	C	-0.401214	0.007425	0.499961
C25	C	-1.204938	-0.362115	-0.000039
C26	C	-0.704938	0.137885	0.499961
C27	C	-1.201957	-0.221665	-0.000041
C28	C	-0.701957	0.278335	0.499959
C29	C	-1.384491	-0.645110	-0.000056
C30	C	-0.884491	-0.145110	0.499944
C31	C	-1.497086	-0.686819	-0.000069
C32	C	-0.997086	-0.186819	0.499931
C33	C	-0.538696	-0.816889	-0.000078
C34	C	-0.038696	-0.316889	0.499922
C35	C	-0.644484	-0.856082	-0.000086
C36	C	-0.144484	-0.356082	0.499914
C37	C	-0.708672	-0.765208	-0.000074
C38	C	-0.208672	-0.265208	0.499926
C39	C	-0.667061	-0.635136	-0.000054
C40	C	-0.167061	-0.135136	0.499946
C41	C	-0.561263	-0.595939	-0.000058
C42	C	-0.061263	-0.095939	0.499942
C43	C	-0.731238	-0.544259	-0.000054
C44	C	-0.231238	-0.044259	0.499946
C45	C	-0.689628	-0.414186	-0.000034
C46	C	-0.189628	0.085814	0.499966
C47	C	-0.583840	-0.374996	-0.000037
C48	C	-0.083840	0.125004	0.499963
C49	C	-0.519653	-0.465870	-0.000049
C50	C	-0.019653	0.034130	0.499951
C51	C	-0.837036	-0.583455	-0.000050
C52	C	-0.337036	-0.083455	0.499950
C53	C	-0.859603	-0.362505	-0.000030
C54	C	-0.359603	0.137495	0.499970
C55	C	-0.753816	-0.323313	-0.000022
C56	C	-0.253816	0.176687	0.499978
C57	C	-1.193361	-0.817280	-0.000059
C58	C	-0.693361	-0.317280	0.499941
C59	C	-1.196342	-0.957730	-0.000066
C60	C	-0.696342	-0.457730	0.499934
N61	N	-1.199142	-0.589686	0.346617
N62	N	-0.699142	-0.089686	0.846617
C63	C	-1.292830	-0.172863	-0.000045
C64	C	-0.792830	0.327137	0.499955
C65	C	-1.290023	-0.040894	-0.000062
C66	C	-0.790023	0.459106	0.499938
C67	C	-1.105463	-0.006540	-0.000068
C68	C	-0.605463	0.493460	0.499932
C69	C	-1.108271	-0.138506	-0.000060
C70	C	-0.608271	0.361494	0.499940
N71	N	-1.199166	-0.589701	-0.346712
N72	N	-0.699166	-0.089701	0.153288
C73	C	-1.267507	-0.528168	0.423271
C74	C	-0.767507	-0.028168	0.923271
C75	C	-1.267516	-0.528171	0.576608
C76	C	-0.767516	-0.028171	1.076608
C77	C	-1.130793	-0.651221	0.576623
C78	C	-0.630793	-0.151221	1.076623
C79	C	-1.130780	-0.651209	0.423289
C80	C	-0.630780	-0.151209	0.923289
H81	H	-0.870905	-0.689361	-0.000060
H82	H	-0.370905	-0.189361	0.499940
H83	H	-0.719921	-0.217405	-0.000019
H84	H	-0.219921	0.282595	0.499981
Br85	Br	-0.946706	-0.239168	-0.000032
Br86	Br	-0.446706	0.260832	0.499968
Br87	Br	-1.037985	-0.734691	0.319247
Br88	Br	-0.537985	-0.234691	0.819247
Br89	Br	-1.360296	-0.444671	0.680636
Br90	Br	-0.860296	0.055329	1.180636
Br91	Br	-1.360282	-0.444669	0.319221
Br92	Br	-0.860282	0.055331	0.819221
H93	H	-1.034267	-0.178239	-0.000062
H94	H	-0.534267	0.321761	0.499938
H95	H	-0.486426	-0.890864	-0.000101
H96	H	0.013574	-0.390864	0.499899
Br97	Br	-1.038021	-0.734717	0.680683
Br98	Br	-0.538021	-0.234717	1.180683
H99	H	-0.549965	-0.269083	-0.000038
H100	H	-0.049965	0.230917	0.499962
Br101	Br	-0.852243	-0.818400	-0.000082
Br102	Br	-0.352243	-0.318400	0.499918
H103	H	-0.678355	-0.961987	-0.000113
H104	H	-0.178355	-0.461987	0.499887
H105	H	-1.369115	-0.240568	-0.000032
H106	H	-0.869115	0.259432	0.499968
Br107	Br	-0.376077	-0.412683	-0.000030
Br108	Br	0.123923	0.087317	0.499970
Br109	Br	-1.413355	0.025332	-0.000075
Br110	Br	-0.913355	0.525332	0.499925
H111	H	-1.029186	0.061184	-0.000080
H112	H	-0.529186	0.561184	0.499920
