data_functionalizedCrystal
_audit_creation_method	'MofGen! by Chris Wilmer'
_symmetry_space_group_name_H-M	'P1'
_symmetry_Int_Tables_number	1
_symmetry_cell_setting	triclinic
loop_
_symmetry_equiv_pos_as_xyz
  x,y,z
_cell_length_a	14.446369
_cell_length_b	20.919309
_cell_length_c	14.446369
_cell_angle_alpha	90.000599
_cell_angle_beta	60.003968
_cell_angle_gamma	57.438858
loop_
_atom_site_label
_atom_site_type_symbol
_atom_site_fract_x
_atom_site_fract_y
_atom_site_fract_z
Zr1	Zr	0.940910	0.641735	-0.085318
O2	O	1.146009	0.535358	-0.239109
O3	O	0.744119	0.674350	-0.038175
O4	O	0.937227	0.674344	-0.231283
O5	O	0.952909	0.535363	0.106328
O6	O	0.924872	0.783974	-0.225109
O7	O	0.952901	0.535363	-0.046000
O8	O	0.579436	0.783984	0.120327
O9	O	1.298345	0.535353	-0.239107
O10	O	0.812765	0.770070	-0.013459
O11	O	0.821991	0.688254	0.095614
O12	O	1.049352	0.688247	-0.131746
O13	O	1.058579	0.606432	-0.022673
Zr14	Zr	0.921219	0.816582	0.167476
Zr15	Zr	0.921206	0.816582	-0.075471
Zr16	Zr	0.940924	0.641735	0.157628
Zr17	Zr	1.183869	0.641728	-0.085316
Zr18	Zr	0.678261	0.816590	0.167473
O19	O	1.118011	0.783967	0.120332
O20	O	1.117992	0.783968	-0.225107
O21	O	1.146028	0.535357	0.106330
O22	O	0.716120	0.922960	0.321266
O23	O	0.716101	0.922960	-0.024173
O24	O	0.744138	0.674349	0.307264
O25	O	0.909220	0.922954	-0.024171
O26	O	0.924902	0.783973	0.313441
O27	O	0.937257	0.674343	0.307266
O28	O	0.909229	0.922954	0.128158
O29	O	1.282683	0.674333	-0.231280
O30	O	0.579447	0.783984	0.313437
O31	O	0.563784	0.922964	0.321265
O32	O	0.563773	0.922964	0.128154
O33	O	1.298356	0.535353	-0.045997
O34	O	1.282693	0.674333	-0.038169
O35	O	0.812777	0.770070	0.213903
O36	O	0.803551	0.851886	0.104830
O37	O	1.040138	0.770063	-0.013457
O38	O	1.049365	0.688247	0.095616
C39	C	0.627161	0.729168	0.041076
C40	C	0.524019	0.729171	0.041075
C41	C	0.371914	0.780509	-0.028083
C42	C	0.478805	0.780800	-0.027759
C43	C	0.392926	0.766813	0.166719
C44	C	0.285505	0.767187	0.166350
C45	C	0.474791	0.640119	-0.014403
C46	C	0.583248	0.640262	-0.016899
C47	C	0.955712	0.510451	0.028761
C48	C	0.964078	0.436224	0.024580
C49	C	0.844515	0.444060	0.084355
C50	C	0.852383	0.374313	0.080424
C51	C	0.979815	0.296731	0.016712
C52	C	1.099387	0.288896	-0.043065
C53	C	1.091518	0.358642	-0.039127
C54	C	1.009754	0.084005	0.001739
C55	C	1.017615	0.014257	-0.002198
C56	C	0.770609	0.099679	0.121294
C57	C	0.762751	0.169423	0.125220
C58	C	0.882323	0.161582	0.065449
C59	C	0.987861	0.225437	0.012689
C60	C	0.874276	0.232876	0.069479
C61	C	1.234968	0.729149	0.041082
C62	C	1.338110	0.729146	0.041083
C63	C	0.931048	0.729159	-0.262811
C64	C	0.931042	0.729159	-0.365948
C65	C	0.906417	0.947866	0.053397
C66	C	0.898052	1.022093	0.057577
C67	C	0.781813	0.781021	-0.438011
C68	C	0.781741	0.780797	-0.330695
C69	C	1.012289	0.640258	-0.445514
C70	C	1.011347	0.640542	-0.552357
C71	C	1.000220	0.765479	-0.546894
C72	C	0.997314	0.767278	-0.438121
C73	C	0.931081	0.729158	0.344968
C74	C	0.931087	0.729158	0.448105
C75	C	0.602513	0.947875	0.053394
C76	C	0.491006	1.022106	0.057573
C77	C	0.627178	0.729168	0.344965
C78	C	0.524041	0.729171	0.448101
C79	C	0.602530	0.947875	0.357283
C80	C	0.491028	1.022105	0.464600
C81	C	1.259599	0.510442	-0.275125
C82	C	1.371101	0.436212	-0.382442
C83	C	1.259616	0.510442	0.028764
C84	C	1.371123	0.436211	0.024584
C85	C	1.234952	0.729149	-0.262808
C86	C	1.338088	0.729146	-0.365944
C87	C	0.443451	1.014258	-0.002220
C88	C	0.338692	1.083999	0.001684
C89	C	0.281484	1.161586	0.065388
C90	C	0.329049	1.169432	0.125183
C91	C	0.433812	1.099692	0.121272
C92	C	0.433849	1.099679	0.458062
C93	C	0.329094	1.169433	0.558889
C94	C	0.281514	1.161611	0.666252
C95	C	0.338704	1.084030	0.672787
C96	C	0.443463	1.014277	0.571961
C97	C	1.428292	0.358638	-0.375905
C98	C	1.533077	0.288884	-0.476731
C99	C	1.580662	0.296706	-0.584094
C100	C	1.523466	0.374288	-0.590629
C101	C	1.418690	0.444040	-0.489804
C102	C	1.418689	0.444059	0.084367
C103	C	1.523474	0.374318	0.080437
C104	C	1.580686	0.296731	0.016729
C105	C	1.533116	0.288885	-0.043062
C106	C	1.428339	0.358625	-0.039137
C107	C	0.383570	0.677325	0.520162
C108	C	0.490466	0.677541	0.412847
C109	C	0.387169	0.818076	0.527661
C110	C	0.279826	0.817800	0.634503
C111	C	0.468879	0.692858	0.629054
C112	C	0.577552	0.691050	0.520282
H113	H	0.274898	0.845792	0.010294
Br114	Br	1.610772	0.183581	-0.129514
H115	H	0.937988	0.832777	-0.383015
H116	H	0.282540	1.232597	0.553547
Br117	Br	1.160800	0.120142	-0.073772
H118	H	0.472573	1.106063	0.370651
Br119	Br	0.274159	1.073332	-0.079470
H120	H	0.755022	0.380701	0.129101
H121	H	0.740745	0.507228	0.136242
H122	H	0.299948	1.077673	0.760215
H123	H	1.579629	0.225721	-0.471388
H124	H	0.428206	0.611693	0.514131
Br125	Br	0.139303	1.256226	0.070684
Br126	Br	0.740648	0.581870	0.428453
H127	H	0.196211	1.218415	0.748341
H128	H	1.665978	0.239902	-0.666184
Br129	Br	1.341071	0.549347	0.170834
H130	H	0.673261	0.106053	0.169957
Br131	Br	0.521046	0.909001	0.580855
Br132	Br	1.178150	0.710858	-0.483840
Br133	Br	0.521071	0.908970	-0.088689
H134	H	0.676903	0.612142	-0.109486
Br135	Br	0.701338	0.338165	0.155957
H136	H	0.964005	0.611464	-0.553726
Br137	Br	1.190570	-0.091038	-0.088687
Br138	Br	1.341079	0.549316	-0.498697
H139	H	1.389555	0.352254	-0.288494
Br140	Br	1.195701	0.573049	-0.494689
Br141	Br	0.316467	0.874969	0.240635
Br142	Br	0.251390	1.274736	0.211638
Br143	Br	0.676287	0.889909	-0.234079
Br144	Br	1.183389	0.702818	-0.680779
Br145	Br	0.675643	0.890418	-0.427952
H146	H	1.562224	0.380646	-0.678056
Br147	Br	0.498332	1.110357	0.202436
H148	H	0.658982	0.232591	0.177080
H149	H	1.107118	0.077610	-0.046952
H150	H	1.562187	0.380722	0.129130
H151	H	1.389615	0.352224	-0.087817
H152	H	1.666001	0.239951	0.013543
Br153	Br	1.253788	0.348006	-0.120244
Br154	Br	0.651685	0.568425	0.316245
H155	H	0.291091	0.702290	0.520532
H156	H	0.450158	0.702739	0.360480
H157	H	1.121170	0.599797	-0.633230
Br158	Br	0.123098	0.866271	0.636778
Br159	Br	0.222234	0.885709	0.769301
H160	H	0.187370	0.832699	0.210445
H161	H	0.259496	0.732193	0.220985
Br162	Br	0.416667	0.885275	0.576839
H163	H	0.345309	0.847360	0.477703
H164	H	0.515717	0.628382	0.629540
H165	H	0.728612	0.756060	-0.438384
Br166	Br	0.624761	0.747453	0.565990
Br167	Br	0.404035	0.890261	0.036755
H168	H	0.570991	0.755559	-0.120141
Br169	Br	0.438697	0.738643	-0.182442
Br170	Br	0.436688	0.707468	0.256752
Br171	Br	0.546647	0.587711	-0.166670
H172	H	0.620052	0.598773	0.027795
H173	H	0.454337	0.601671	0.035667
H174	H	1.203145	0.225722	-0.094934
Br175	Br	0.692830	0.738743	-0.243459
H176	H	0.966117	0.610974	-0.395561
Br177	Br	0.911612	0.872943	-0.547705
H178	H	0.439856	0.730452	0.709385
