data_functionalizedCrystal
_audit_creation_method	'MofGen! by Chris Wilmer'
_symmetry_space_group_name_H-M	'P1'
_symmetry_Int_Tables_number	1
_symmetry_cell_setting	triclinic
loop_
_symmetry_equiv_pos_as_xyz
  x,y,z
_cell_length_a	12.645330
_cell_length_b	12.645331
_cell_length_c	18.050582
_cell_angle_alpha	90.011369
_cell_angle_beta	89.981661
_cell_angle_gamma	89.981279
loop_
_atom_site_label
_atom_site_type_symbol
_atom_site_fract_x
_atom_site_fract_y
_atom_site_fract_z
Zn1	Zn	-0.422070	-1.620661	-0.419850
Zn2	Zn	0.077930	-1.120661	0.080150
Zn3	Zn	-0.599338	-1.620564	-0.295671
Zn4	Zn	-0.099338	-1.120564	0.204329
Zn5	Zn	-0.422092	-1.443397	-0.295684
Zn6	Zn	0.077908	-0.943397	0.204316
Zn7	Zn	-0.599295	-1.443358	-0.419829
Zn8	Zn	-0.099295	-0.943358	0.080171
O9	O	-0.510699	-1.531995	-0.357758
O10	O	-0.010699	-1.031995	0.142242
O11	O	-0.445594	-1.768996	-0.403381
O12	O	0.054406	-1.268996	0.096619
O13	O	-0.575853	-1.597037	-0.191748
O14	O	-0.075853	-1.097037	0.308252
O15	O	-0.273742	-1.466968	-0.312169
O16	O	0.226258	-0.966968	0.187831
O17	O	-0.575832	-1.768924	-0.312147
O18	O	-0.075832	-1.268924	0.187853
O19	O	-0.273726	-1.597204	-0.403393
O20	O	0.226274	-1.097204	0.096607
O21	O	-0.445631	-1.466874	-0.191757
O22	O	0.054369	-0.966874	0.308243
O23	O	-0.445590	-1.295044	-0.312148
O24	O	0.054410	-0.795044	0.187852
O25	O	-0.575759	-1.466902	-0.523756
O26	O	-0.075759	-0.966902	-0.023756
O27	O	-0.575780	-1.295016	-0.403357
O28	O	-0.075780	-0.795016	0.096643
O29	O	-0.445552	-1.597166	-0.523772
O30	O	0.054448	-1.097166	-0.023772
O31	O	-0.747680	-1.597000	-0.312126
O32	O	-0.247680	-1.097000	0.187874
O33	O	-0.747648	-1.466807	-0.403345
O34	O	-0.247648	-0.966807	0.096655
C35	C	-0.510684	-1.256565	-0.357752
C36	C	-0.010684	-0.756565	0.142248
C37	C	-0.510703	-1.138735	-0.357767
C38	C	-0.010703	-0.638735	0.142233
C39	C	-0.592746	-1.093871	-0.415063
C40	C	-0.092746	-0.593871	0.084937
C41	C	-0.593084	-0.971311	-0.414893
C42	C	-0.093084	-0.471311	0.085107
C43	C	-0.540530	-0.970795	-0.279406
C44	C	-0.040530	-0.470795	0.220594
C45	C	-0.541108	-1.093393	-0.279738
C46	C	-0.041108	-0.593393	0.220262
C47	C	-0.398661	-1.093586	-0.378148
C48	C	0.101339	-0.593586	0.121852
C49	C	-0.399281	-0.970980	-0.379874
C50	C	0.100719	-0.470980	0.120126
C51	C	-0.786129	-1.531917	-0.357748
C52	C	-0.286129	-1.031917	0.142252
C53	C	-0.903959	-1.531981	-0.357768
C54	C	-0.403959	-1.031981	0.142232
C55	C	-1.071547	-1.450415	-0.415331
C56	C	-0.571547	-0.950415	0.084669
C57	C	-0.948988	-1.449998	-0.415146
C58	C	-0.448988	-0.949998	0.084854
C59	C	-0.948541	-1.501749	-0.279503
C60	C	-0.448541	-1.001749	0.220497
C61	C	-1.071139	-1.501251	-0.279853
C62	C	-0.571139	-1.001251	0.220147
C63	C	-1.071049	-1.644279	-0.377836
C64	C	-0.571049	-1.144279	0.122164
C65	C	-0.948443	-1.643591	-0.379548
C66	C	-0.448443	-1.143591	0.120452
C67	C	-0.234194	-1.532101	-0.357785
C68	C	0.265806	-1.032101	0.142215
C69	C	-0.116364	-1.532147	-0.357796
C70	C	0.383636	-1.032147	0.142204
C71	C	-0.510649	-1.532041	-0.551464
C72	C	-0.010649	-1.032041	-0.051464
C73	C	-0.510627	-1.532060	-0.634010
C74	C	-0.010627	-1.032060	-0.134010
C75	C	-0.510718	-0.808500	-0.357764
C76	C	-0.010718	-0.308500	0.142236
C77	C	-0.510733	-0.926330	-0.357767
C78	C	-0.010733	-0.426330	0.142233
C79	C	-0.581318	-1.461289	-0.882827
C80	C	-0.081318	-0.961289	-0.382827
C81	C	-0.484627	-1.435377	-0.833435
C82	C	0.015373	-0.935377	-0.333435
C83	C	-0.510471	-1.532150	-0.931130
C84	C	-0.010471	-1.032150	-0.431130
C85	C	-0.607234	-1.557967	-0.833441
C86	C	-0.107234	-1.057967	-0.333441
C87	C	-0.510553	-1.532103	-0.785145
C88	C	-0.010553	-1.032103	-0.285145
C89	C	-0.413728	-1.506188	-0.882825
C90	C	0.086272	-1.006188	-0.382825
C91	C	-0.536401	-1.628824	-0.882836
C92	C	-0.036401	-1.128824	-0.382836
C93	C	-0.439643	-1.602949	-0.833466
C94	C	0.060357	-1.102949	-0.333466
C95	C	-0.510426	-1.532174	-1.015229
C96	C	-0.010426	-1.032174	-0.515229
C97	C	-0.510588	-1.532079	-0.701049
C98	C	-0.010588	-1.032079	-0.201049
C99	C	-0.510673	-1.532010	-0.164806
C100	C	-0.010673	-1.032010	0.335194
C101	C	-0.510396	-1.532196	-0.082261
C102	C	-0.010396	-1.032196	0.417739
H103	H	-0.676116	-0.941955	-0.401371
H104	H	-0.176116	-0.441955	0.098629
H105	H	-1.100029	-1.705171	-0.335931
H106	H	-0.600029	-1.205171	0.164069
F107	F	-1.108642	-1.394112	-0.257663
F108	F	-0.608642	-0.894112	0.242337
H109	H	-0.379696	-1.662854	-0.811930
H110	H	0.120304	-1.162854	-0.311930
H111	H	-0.621527	-0.940068	-0.261887
H112	H	-0.121527	-0.440068	0.238113
H113	H	-0.689031	-1.579825	-0.811749
H114	H	-0.189031	-1.079825	-0.311749
H115	H	-0.675298	-1.124650	-0.401705
H116	H	-0.175298	-0.624650	0.098295
H117	H	-0.918843	-1.468912	-0.473179
H118	H	-0.418843	-0.968912	0.026821
F119	F	-0.369897	-0.933001	-0.455252
F120	F	0.130103	-0.433001	0.044748
F121	F	-0.659484	-1.382932	-0.911159
F122	F	-0.159484	-0.882932	-0.411159
F123	F	-0.565068	-1.735679	-0.911223
F124	F	-0.065068	-1.235679	-0.411223
F125	F	-1.110004	-1.474904	-0.491435
F126	F	-0.610004	-0.974904	0.008565
F127	F	-1.111954	-1.342440	-0.398213
F128	F	-0.611954	-0.842440	0.101787
F129	F	-0.568753	-1.132465	-0.491231
F130	F	-0.068753	-0.632465	0.008769
H131	H	-0.917928	-1.420634	-0.262219
H132	H	-0.417928	-0.920634	0.237781
H133	H	-0.622994	-1.121960	-0.262512
H134	H	-0.122994	-0.621960	0.237488
H135	H	-0.482608	-0.941659	-0.235544
H136	H	0.017392	-0.441659	0.264456
H137	H	-0.334932	-0.940362	-0.341218
H138	H	0.165068	-0.440362	0.158782
F139	F	-0.466369	-1.132187	-0.222009
F140	F	0.033631	-0.632187	0.277991
H141	H	-0.331908	-1.484239	-0.904427
H142	H	0.168092	-0.984239	-0.404427
H143	H	-0.574497	-0.941248	-0.472986
H144	H	-0.074497	-0.441248	0.027014
F145	F	-0.363069	-1.134032	-0.451577
F146	F	0.136931	-0.634032	0.048423
F147	F	-0.455994	-1.328491	-0.805072
F148	F	0.044006	-0.828491	-0.305072
F149	F	-0.318772	-1.131506	-0.323607
F150	F	0.181228	-0.631506	0.176393
H151	H	-0.919752	-1.366868	-0.401870
H152	H	-0.419752	-0.866868	0.098130
H153	H	-1.100788	-1.558198	-0.235523
H154	H	-0.600788	-1.058198	0.264477
H155	H	-0.919374	-1.559392	-0.235464
H156	H	-0.419374	-1.059392	0.264536
F157	F	-1.111374	-1.680330	-0.451164
F158	F	-0.611374	-1.180330	0.048836
F159	F	-0.910354	-1.673394	-0.454834
F160	F	-0.410354	-1.173394	0.045166
H161	H	-0.917785	-1.707691	-0.340694
H162	H	-0.417785	-1.207691	0.159306
