data_functionalizedCrystal
_audit_creation_method	'MofGen! by Chris Wilmer'
_symmetry_space_group_name_H-M	'P1'
_symmetry_Int_Tables_number	1
_symmetry_cell_setting	triclinic
loop_
_symmetry_equiv_pos_as_xyz
  x,y,z
_cell_length_a	35.288093
_cell_length_b	35.277630
_cell_length_c	35.288034
_cell_angle_alpha	90.000183
_cell_angle_beta	60.000231
_cell_angle_gamma	119.999834
loop_
_atom_site_label
_atom_site_type_symbol
_atom_site_fract_x
_atom_site_fract_y
_atom_site_fract_z
O1	O	0.334269	-0.260037	-0.011282
O2	O	0.256669	-0.204915	0.011213
O3	O	0.334263	-0.204913	-0.066386
O4	O	0.256675	-0.260039	0.066317
O5	O	0.271235	-0.267959	-0.066386
O6	O	0.193641	-0.267962	0.011213
O7	O	0.271241	-0.323084	-0.011282
Zn8	Zn	0.222434	-0.305533	-0.000034
Zn9	Zn	0.305476	-0.222466	-0.000035
O10	O	0.193646	-0.323086	0.066317
C11	C	0.061862	-0.027626	0.034083
C12	C	0.015935	-0.050648	0.034402
C13	C	0.061860	-0.096270	0.034086
C14	C	0.015933	-0.119188	0.034406
C15	C	-0.006760	-0.096269	0.034083
C16	C	0.084451	-0.050650	0.034406
C17	C	0.185442	0.137905	0.021657
C18	C	0.210707	0.184783	0.018144
C19	C	0.189023	0.208299	0.016378
C20	C	0.216420	0.259129	0.012560
C21	C	0.142071	0.184934	0.018130
C22	C	0.116806	0.138059	0.021650
C23	C	0.138494	0.114545	0.023413
C24	C	-0.159815	-0.138183	0.021653
C25	C	-0.203165	-0.159788	0.018139
C26	C	-0.224911	-0.204994	0.016375
C27	C	-0.271907	-0.228421	0.012559
C28	C	-0.203307	-0.228596	0.018131
C29	C	-0.159966	-0.206995	0.021653
C30	C	-0.138220	-0.161783	0.023411
C31	C	0.185433	-0.138190	0.021670
C32	C	0.210700	-0.159794	0.018154
C33	C	0.189014	-0.205002	0.016392
C34	C	0.216409	-0.228428	0.012577
C35	C	0.142066	-0.228601	0.018142
C36	C	0.116803	-0.206995	0.021656
C37	C	0.138489	-0.161789	0.023425
C38	C	0.111097	0.063717	0.027226
C39	C	0.089259	0.023202	0.030266
C40	C	0.089254	-0.119695	0.030273
C41	C	0.111091	-0.138367	0.027235
C42	C	-0.053757	-0.119692	0.030266
C43	C	-0.091219	-0.138362	0.027225
O44	O	-0.397508	-0.323077	-0.011301
O45	O	-0.287293	-0.267952	0.011189
O46	O	-0.287291	-0.267954	-0.066407
O47	O	-0.397510	-0.323075	0.066296
O48	O	-0.287290	-0.204906	-0.066411
O49	O	-0.287291	-0.204904	0.011186
O50	O	-0.397506	-0.260029	-0.011304
Zn51	Zn	-0.342399	-0.222457	-0.000059
Zn52	Zn	-0.342401	-0.305524	-0.000055
O53	O	-0.397508	-0.260027	0.066293
C54	C	0.061872	-0.027633	-0.438454
C55	C	0.084463	-0.050657	-0.461364
C56	C	-0.006751	-0.096275	-0.369831
C57	C	0.015944	-0.119194	-0.392845
C58	C	0.061871	-0.096277	-0.438451
C59	C	0.015944	-0.050655	-0.392847
C60	C	0.116201	0.137898	-0.480361
C61	C	0.141313	0.184775	-0.501961
C62	C	0.188270	0.208290	-0.547154
C63	C	0.215507	0.259119	-0.570573
C64	C	0.210112	0.184924	-0.570747
C65	C	0.184996	0.138049	-0.549150
C66	C	0.138038	0.114536	-0.503954
C67	C	0.185449	-0.138196	-0.549602
C68	C	0.210713	-0.159802	-0.571352
C69	C	0.189031	-0.205007	-0.547904
C70	C	0.216423	-0.228435	-0.571480
C71	C	0.142078	-0.228608	-0.502705
C72	C	0.116810	-0.207006	-0.480959
C73	C	0.138504	-0.161795	-0.504412
C74	C	-0.159811	-0.138187	-0.204351
C75	C	-0.203157	-0.159789	-0.157486
C76	C	-0.224903	-0.204997	-0.133977
C77	C	-0.271901	-0.228421	-0.083163
C78	C	-0.203299	-0.228597	-0.157332
C79	C	-0.159952	-0.206993	-0.204194
C80	C	-0.138214	-0.161788	-0.227702
C81	C	0.110810	0.063709	-0.480537
C82	C	0.089104	0.023194	-0.461871
C83	C	-0.053749	-0.119697	-0.319019
C84	C	-0.091212	-0.138367	-0.278516
C85	C	0.089267	-0.119701	-0.462031
C86	C	0.111104	-0.138372	-0.480827
C87	C	0.456623	-0.364509	-0.023600
C88	C	0.503394	-0.341117	-0.020384
C89	C	0.433929	-0.410129	-0.023922
C90	C	0.387998	-0.364511	-0.023595
C91	C	0.361393	-0.341121	-0.020374
C92	C	0.365408	-0.410131	-0.023917
C93	C	0.388001	-0.433152	-0.023600
C94	C	0.361400	-0.483154	-0.020383
C95	C	0.433926	-0.341592	-0.023918
C96	C	0.339908	-0.523550	-0.017783
C97	C	0.541178	-0.322219	-0.017784
C98	C	0.339898	-0.322224	-0.017771
C99	C	0.312946	-0.574229	-0.014522
C100	C	0.588582	-0.298510	-0.014524
C101	C	0.312933	-0.298517	-0.014505
O102	O	0.271256	0.408634	-0.011302
O103	O	0.193658	0.275891	0.011187
O104	O	0.271256	0.353507	-0.066409
O105	O	0.193659	0.331018	0.066294
O106	O	0.334281	0.353506	-0.066406
O107	O	0.256684	0.275889	0.011190
O108	O	0.334282	0.408633	-0.011299
Zn109	Zn	0.305489	0.342261	-0.000054
Zn110	Zn	0.222451	0.342263	-0.000058
O111	O	0.256685	0.331016	0.066297
O112	O	0.271247	-0.323098	-0.602443
O113	O	0.193658	-0.267965	-0.547344
O114	O	0.271249	-0.267968	-0.547338
O115	O	0.193656	-0.323094	-0.602449
O116	O	0.334280	-0.204924	-0.610368
O117	O	0.256688	-0.204921	-0.610374
O118	O	0.334277	-0.260054	-0.665473
Zn119	Zn	0.305490	-0.222478	-0.647931
Zn120	Zn	0.222445	-0.305541	-0.564886
O121	O	0.256686	-0.260051	-0.665479
O122	O	0.334002	0.408625	-0.665195
O123	O	0.256398	0.275880	-0.610091
O124	O	0.333989	0.353492	-0.610081
O125	O	0.256411	0.331012	-0.665205
O126	O	0.270959	0.353493	-0.547057
O127	O	0.193368	0.275880	-0.547066
O128	O	0.270972	0.408626	-0.602171
Zn129	Zn	0.222162	0.342253	-0.564612
Zn130	Zn	0.305207	0.342252	-0.647649
O131	O	0.193381	0.331013	-0.602180
C132	C	0.071311	-0.433166	0.293102
C133	C	0.024544	-0.483168	0.316485
C134	C	0.094007	-0.410144	0.316014
C135	C	0.139930	-0.364521	0.224482
C136	C	0.166531	-0.341129	0.174496
C137	C	0.162522	-0.341604	0.247498
C138	C	0.139933	-0.364524	0.293104
C139	C	0.166536	-0.341133	0.316488
C140	C	0.094004	-0.410142	0.247497
C141	C	0.188029	-0.322237	0.335380
C142	C	-0.013239	-0.523564	0.335376
C143	C	0.188022	-0.322230	0.134112
C144	C	0.214993	-0.298530	0.359081
C145	C	-0.060639	-0.574244	0.359075
C146	C	0.214984	-0.298521	0.083449
C147	C	-0.611998	-0.364502	0.293082
C148	C	-0.638600	-0.341110	0.316466
C149	C	-0.634589	-0.410122	0.315994
C150	C	-0.543375	-0.364503	0.224461
C151	C	-0.496606	-0.341112	0.174475
C152	C	-0.566071	-0.410123	0.247478
C153	C	-0.611998	-0.433145	0.293084
C154	C	-0.638601	-0.483146	0.316469
C155	C	-0.566070	-0.341584	0.247476
C156	C	-0.660094	-0.523543	0.335361
C157	C	-0.660093	-0.322212	0.335357
C158	C	-0.458822	-0.322215	0.134091
C159	C	-0.687057	-0.574222	0.359062
C160	C	-0.687056	-0.298504	0.359057
C161	C	-0.411419	-0.298508	0.083427
C162	C	0.139949	0.318742	0.293079
C163	C	0.166552	0.321963	0.316464
C164	C	0.094025	0.318426	0.315988
C165	C	0.139946	0.318733	0.224458
C166	C	0.166545	0.321945	0.174473
C167	C	0.094022	0.318417	0.247471
C168	C	0.071330	0.318744	0.293076
C169	C	0.024564	0.321968	0.316457
C170	C	0.162537	0.318414	0.247475
C171	C	-0.013217	0.324573	0.335346
C172	C	0.188046	0.324567	0.335356
C173	C	0.188035	0.324541	0.134090
C174	C	-0.060615	0.327841	0.359043
C175	C	0.215010	0.327833	0.359058
C176	C	0.214995	0.327796	0.083428
C177	C	0.466037	-0.095970	-0.438426
C178	C	0.511963	-0.050349	-0.461336
C179	C	0.466040	-0.095971	-0.369804
C180	C	0.511966	-0.050351	-0.392819
C181	C	0.534659	-0.027328	-0.438425
C182	C	0.443448	-0.118889	-0.392820
C183	C	0.342456	-0.207156	-0.480329
C184	C	0.317191	-0.228914	-0.501927
C185	C	0.338874	-0.205457	-0.547120
C186	C	0.311477	-0.229042	-0.570538
C187	C	0.385826	-0.160244	-0.570714
C188	C	0.411091	-0.138493	-0.549117
C189	C	0.389404	-0.161951	-0.503923
C190	C	0.687711	0.138205	-0.549575
C191	C	0.731060	0.185082	-0.571326
C192	C	0.752807	0.208599	-0.547879
C193	C	0.799802	0.259427	-0.571455
C194	C	0.731204	0.185233	-0.502681
C195	C	0.687863	0.138356	-0.480934
C196	C	0.666116	0.114845	-0.504387
C197	C	0.342469	-0.207163	-0.204326
C198	C	0.317203	-0.228920	-0.157461
C199	C	0.338889	-0.205465	-0.133953
C200	C	0.311495	-0.229052	-0.083139
C201	C	0.385837	-0.160253	-0.157308
C202	C	0.411099	-0.138498	-0.204171
C203	C	0.389413	-0.161959	-0.227677
C204	C	0.416801	-0.138360	-0.480507
C205	C	0.438640	-0.119557	-0.461842
C206	C	0.438646	-0.119560	-0.318993
C207	C	0.416810	-0.138364	-0.278491
C208	C	0.581655	0.023500	-0.462004
C209	C	0.619117	0.064015	-0.480801
O210	O	-0.184761	-0.724126	0.452649
O211	O	-0.074548	-0.591382	0.397543
O212	O	-0.074544	-0.668999	0.397538
O213	O	-0.184765	-0.646509	0.452654
O214	O	-0.074547	-0.668998	0.334511
O215	O	-0.074551	-0.591381	0.334517
O216	O	-0.184764	-0.724125	0.389622
Zn217	Zn	-0.129658	-0.657753	0.352063
Zn218	Zn	-0.129654	-0.657754	0.435103
O219	O	-0.184768	-0.646508	0.389627
C220	C	0.534373	0.376346	-0.438438
C221	C	0.511678	0.376664	-0.461350
C222	C	0.465757	0.376357	-0.369821
C223	C	0.443165	0.376675	-0.392837
C224	C	0.465753	0.376348	-0.438442
C225	C	0.511681	0.376674	-0.392834
C226	C	0.687424	0.363910	-0.480332
C227	C	0.730771	0.360392	-0.501927
C228	C	0.752513	0.358621	-0.547119
C229	C	0.799507	0.354799	-0.570534
C230	C	0.730908	0.360372	-0.570714
C231	C	0.687568	0.363896	-0.549121
C232	C	0.665826	0.365665	-0.503927
C233	C	0.411420	0.363905	-0.549595
C234	C	0.386308	0.360389	-0.571346
C235	C	0.339353	0.358627	-0.547902
C236	C	0.312117	0.354808	-0.571479
C237	C	0.317515	0.360388	-0.502705
C238	C	0.342632	0.363912	-0.480957
C239	C	0.389586	0.365668	-0.504407
C240	C	0.411439	0.363953	-0.204343
C241	C	0.386326	0.360440	-0.157480
C242	C	0.339372	0.358680	-0.133974
C243	C	0.312139	0.354869	-0.083161
C244	C	0.317530	0.360429	-0.157331
C245	C	0.342642	0.363940	-0.204192
C246	C	0.389601	0.365706	-0.227696
C247	C	0.618828	0.369481	-0.480514
C248	C	0.581367	0.372526	-0.461851
C249	C	0.438528	0.372548	-0.319010
C250	C	0.416826	0.369513	-0.278509
C251	C	0.438521	0.372528	-0.462023
C252	C	0.416815	0.369485	-0.480820
H253	H	-0.142381	-0.226216	0.023084
H254	H	0.075033	0.317911	0.353460
O255	O	-0.226435	-0.134314	0.016220
H256	H	-0.241141	-0.125188	0.048266
O257	O	0.319078	0.365805	-0.432211
H258	H	0.317607	0.396515	-0.431458
O259	O	0.068868	-0.434703	0.365618
H260	H	0.098369	-0.436529	0.367585
O261	O	-0.540913	-0.434608	0.223000
H262	H	-0.528813	-0.444746	0.242526
O263	O	0.211451	-0.291943	0.223035
H264	H	0.223407	-0.279805	0.246721
O265	O	0.409858	0.358485	-0.620088
H266	H	0.384507	0.355744	-0.631273
O267	O	0.537142	-0.025876	-0.510981
H268	H	0.572968	0.009775	-0.523118
H269	H	0.075007	-0.428626	0.229021
O270	O	-0.683542	-0.434609	0.365630
H271	H	-0.695516	-0.410926	0.377764
O272	O	0.066163	-0.232451	0.023551
H273	H	0.055166	-0.267609	0.021993
O274	O	0.211485	0.317725	0.222998
H275	H	0.223456	0.317561	0.246675
O276	O	0.319071	-0.232465	-0.431590
H277	H	0.344525	-0.209743	-0.420533
O278	O	-0.540904	-0.291933	0.222997
H279	H	-0.564414	-0.279792	0.246673
H280	H	0.075030	0.317900	0.228990
O281	O	0.459080	-0.291942	-0.024599
H282	H	0.494894	-0.279802	-0.024766
O283	O	0.117756	0.209973	-0.476513
H284	H	0.143106	0.246517	-0.499126
O285	O	0.260755	0.210285	-0.619489
H286	H	0.252578	0.193010	-0.643368
H287	H	0.452927	-0.428610	-0.024440
O288	O	0.537133	-0.025865	-0.368349
H289	H	0.513625	-0.049550	-0.332702
O290	O	0.208552	0.112851	-0.574597
H291	H	0.183196	0.076304	-0.551985
O292	O	0.316453	-0.434616	-0.024597
H293	H	0.304490	-0.470272	-0.024766
H294	H	0.406483	-0.156368	-0.374339
O295	O	0.266570	-0.277683	-0.132271
H296	H	0.255739	-0.290341	-0.156492
H297	H	0.248927	-0.140575	0.016728
O298	O	0.319077	-0.232461	-0.229679
H299	H	0.282182	-0.267550	-0.205565
H300	H	0.203114	-0.101386	-0.568702
H301	H	0.670011	0.119065	-0.568675
O302	O	0.266550	-0.277673	-0.476481
H303	H	0.255713	-0.290327	-0.441426
H304	H	0.403478	-0.141150	-0.607510
H305	H	0.248944	-0.140582	-0.608151
H306	H	0.449319	-0.101681	-0.568331
O307	O	0.754354	0.210286	-0.620068
H308	H	0.731947	0.186062	-0.632718
O309	O	0.754653	0.210591	-0.477386
H310	H	0.788417	0.247114	-0.500098
O311	O	-0.009253	-0.168851	0.035129
H312	H	-0.045076	-0.180991	0.035310
H313	H	0.121424	-0.032170	-0.498834
O314	O	0.664684	0.113111	-0.432250
H315	H	0.687127	0.137320	-0.419617
H316	H	0.124419	-0.265418	-0.483615
O317	O	0.754354	0.358458	-0.619452
H318	H	0.797175	0.388238	-0.642474
O319	O	0.461732	-0.089735	-0.229361
H320	H	0.472570	-0.077081	-0.205143
O321	O	-0.009220	-0.026175	-0.368369
H322	H	0.014291	0.009482	-0.392047
H323	H	0.324853	0.365362	-0.223206
H324	H	0.403492	-0.141154	-0.138164
H325	H	0.124418	0.204084	0.016695
H326	H	0.406208	0.377190	-0.374358
O327	O	0.266872	0.358489	-0.477413
H328	H	0.253072	0.355739	-0.500125
O329	O	0.536829	0.377339	-0.510984
H330	H	0.572637	0.377497	-0.523116
H331	H	0.530676	0.377190	-0.374356
H332	H	0.077966	0.118758	-0.443562
O333	O	0.409886	0.358560	-0.132288
H334	H	0.446760	0.360383	-0.156507
O335	O	0.462081	0.365848	-0.229694
H336	H	0.473045	0.364033	-0.205579
O337	O	0.663972	0.365815	-0.431588
H338	H	0.686278	0.364010	-0.418811
O339	O	0.754068	0.358495	-0.476479
H340	H	0.731664	0.360312	-0.441425
O341	O	0.664262	0.365780	-0.574564
H342	H	0.686656	0.363953	-0.609614
O343	O	0.462066	0.365808	-0.574886
H344	H	0.473036	0.363998	-0.609968
H345	H	0.279294	0.358994	-0.138189
H346	H	-0.221019	-0.265407	0.016701
H347	H	-0.003058	-0.032163	0.034920
O348	O	0.208827	-0.089431	0.023573
H349	H	0.183369	-0.078374	0.026317
O350	O	0.133401	-0.026172	0.035093
H351	H	0.145372	0.009486	0.035259
H352	H	0.248935	0.203802	0.016716
O353	O	0.208829	0.112545	0.023571
H354	H	0.249984	0.129821	-0.008476
O355	O	0.066193	0.112869	0.023501
H356	H	0.055370	0.137099	0.021665
H357	H	-0.142114	-0.101372	0.023088
H358	H	-0.003057	-0.156679	-0.374367
O359	O	0.118660	-0.277365	0.016251
H360	H	0.148368	-0.277331	-0.016726
O361	O	-0.226462	-0.134336	-0.132299
H362	H	-0.195044	-0.102151	-0.133020
O363	O	-0.136358	-0.089429	-0.229708
H364	H	-0.121569	-0.065540	-0.212443
O365	O	0.066173	-0.232456	-0.432212
H366	H	0.055339	-0.267518	-0.419557
H367	H	-0.221009	-0.265410	-0.138189
O368	O	-0.136654	-0.232448	-0.229387
H369	H	-0.159061	-0.267514	-0.205170
