data_functionalizedCrystal
_audit_creation_method	'MofGen! by Chris Wilmer'
_symmetry_space_group_name_H-M	'P1'
_symmetry_Int_Tables_number	1
_symmetry_cell_setting	triclinic
loop_
_symmetry_equiv_pos_as_xyz
  x,y,z
_cell_length_a	10.967819
_cell_length_b	10.967829
_cell_length_c	10.065875
_cell_angle_alpha	86.921207
_cell_angle_beta	69.228723
_cell_angle_gamma	82.166777
loop_
_atom_site_label
_atom_site_type_symbol
_atom_site_fract_x
_atom_site_fract_y
_atom_site_fract_z
O1	O	1.744043	0.087836	-0.544337
O2	O	1.367892	0.117635	-0.462879
O3	O	1.557845	-0.072316	-0.462875
O4	O	1.554090	0.277787	-0.544342
O5	O	1.521630	-0.035954	-0.235922
O6	O	1.331677	0.153997	-0.235926
O7	O	1.707829	0.124198	-0.317384
Zn8	Zn	1.514003	0.144871	-0.240622
Zn9	Zn	1.561718	0.096962	-0.539642
O10	O	1.517876	0.314149	-0.317389
C11	C	1.301494	0.136394	-0.338182
C12	C	1.157604	0.138102	-0.304742
C13	C	0.963505	0.121801	-0.372869
C14	C	1.112223	0.120028	-0.407421
C15	C	1.536728	-0.098837	-0.338178
C16	C	1.527746	-0.232036	-0.304744
C17	C	1.542502	-0.310251	-0.407407
C18	C	1.533218	-0.447919	-0.372854
C19	C	1.774227	0.105438	-0.442085
C20	C	1.918119	0.103729	-0.475534
C21	C	1.538993	0.340670	-0.442088
C22	C	1.547977	0.473867	-0.475532
N23	N	1.481449	0.177566	-0.036550
N24	N	1.594282	0.064257	-0.743714
C25	C	1.550382	0.108330	0.031302
C26	C	1.525338	0.133503	0.188438
H27	H	1.086365	0.154895	-0.191261
O28	O	1.003285	0.083669	-0.610824
C29	C	1.229149	0.063740	-0.768642
C30	C	1.132851	0.086442	-0.615356
H31	H	1.333921	0.066000	-0.772362
H32	H	1.220285	-0.030047	-0.805572
H33	H	1.204510	0.138554	-0.841500
H34	H	1.157427	0.011703	-0.542392
H35	H	1.141732	0.180268	-0.578543
H36	H	1.671840	-0.013664	0.198053
H37	H	1.567469	-0.491182	-0.589012
O38	O	1.510110	-0.489488	-0.237448
C39	C	1.585284	-0.511020	-0.038644
C40	C	1.611597	-0.463855	-0.191973
H41	H	1.667333	-0.490337	-0.001840
H42	H	1.487194	-0.463122	0.034310
H43	H	1.581884	-0.614611	-0.034926
H44	H	1.615063	-0.360276	-0.195827
H45	H	1.709666	-0.511845	-0.264858
H46	H	1.627936	0.030415	-0.026935
O47	O	1.504241	-0.273628	-0.169294
C48	C	1.356461	-0.261447	0.074090
C49	C	1.382905	-0.214268	-0.079253
H50	H	1.258376	-0.213457	0.146937
H51	H	1.353019	-0.365037	0.077947
H52	H	1.438475	-0.240715	0.110923
H53	H	1.300924	-0.234914	-0.116182
H54	H	1.386397	-0.110690	-0.083023
H55	H	1.447770	0.211415	0.246676
H56	H	1.562002	-0.275293	-0.520881
O57	O	1.388829	0.270530	0.032726
C58	C	1.224770	0.435420	0.017799
C59	C	1.329603	0.330161	-0.060812
H60	H	1.176875	0.483678	-0.057800
H61	H	1.146720	0.396292	0.112232
H62	H	1.273179	0.504274	0.057147
H63	H	1.281311	0.261269	-0.100253
H64	H	1.407642	0.369378	-0.155177
O65	O	0.878666	0.141675	-0.237404
C66	C	0.812889	0.071647	0.005956
C67	C	0.909071	0.049011	-0.147392
H68	H	0.837419	-0.003270	0.078768
H69	H	0.821872	0.165366	0.042951
H70	H	0.708096	0.069563	0.009651
H71	H	1.013904	0.051033	-0.151206
H72	H	0.899973	-0.044692	-0.184322
H73	H	1.183462	0.103250	-0.520904
