data_functionalizedCrystal
_audit_creation_method	'MofGen! by Chris Wilmer'
_symmetry_space_group_name_H-M	'P1'
_symmetry_Int_Tables_number	1
_symmetry_cell_setting	triclinic
loop_
_symmetry_equiv_pos_as_xyz
  x,y,z
_cell_length_a	9.730223
_cell_length_b	10.654550
_cell_length_c	10.654550
_cell_angle_alpha	84.484903
_cell_angle_beta	90.004131
_cell_angle_gamma	90.004202
loop_
_atom_site_label
_atom_site_type_symbol
_atom_site_fract_x
_atom_site_fract_y
_atom_site_fract_z
O1	O	0.114399	1.667834	0.176400
O2	O	0.114377	1.302356	0.193206
O3	O	0.114383	1.493498	0.002064
O4	O	0.114393	1.476692	0.367543
O5	O	-0.114197	1.493495	0.002055
O6	O	-0.114203	1.302353	0.193197
O7	O	-0.114181	1.667832	0.176391
Zn8	Zn	-0.150484	1.485092	0.184792
Zn9	Zn	0.150680	1.485095	0.184805
O10	O	-0.114187	1.476689	0.367533
C11	C	0.000084	1.255556	0.191968
C12	C	0.000075	1.116113	0.188276
N13	N	-0.356020	1.485099	0.184783
N14	N	0.356216	1.485098	0.184804
C15	C	0.000098	1.036627	0.300817
C16	C	0.000122	0.905607	0.297341
C17	C	0.000106	0.933570	0.068771
C18	C	0.000072	1.064588	0.072249
C19	C	0.000114	1.020482	0.432780
C20	C	0.000137	0.889461	0.429304
C21	C	0.428145	1.569895	0.100333
C22	C	0.572028	1.569899	0.100325
C23	C	0.572041	1.400298	0.269264
C24	C	0.428160	1.400301	0.269277
C25	C	0.428140	1.667809	0.002794
C26	C	0.572023	1.667813	0.002786
C27	C	0.000095	1.492263	-0.044739
C28	C	0.000100	1.488571	-0.184182
C29	C	0.000115	1.714631	0.177630
C30	C	0.000133	1.854074	0.181321
C31	C	0.000102	1.601112	-0.263668
C32	C	0.000112	1.597636	-0.394688
C33	C	0.000110	1.369066	-0.366725
C34	C	0.000110	1.372544	-0.235707
C35	C	0.000097	1.733075	-0.279813
C36	C	0.000107	1.729599	-0.410834
C37	C	0.000104	1.477925	0.414336
C38	C	0.000109	1.481616	0.553779
H39	H	0.000034	1.129302	-0.019393
Cl40	Cl	0.000102	0.868786	-0.077083
H41	H	-0.095548	1.779319	-0.452598
H42	H	-0.095551	1.049812	0.484387
H43	H	0.098802	1.056138	0.474803
H44	H	0.000127	1.280902	-0.170993
Cl45	Cl	0.640955	1.808478	0.050281
Cl46	Cl	0.632292	1.634989	-0.146344
Cl47	Cl	0.000126	1.223212	-0.431509
H48	H	0.095806	0.847729	0.479029
Cl49	Cl	0.337734	1.293714	0.375489
H50	H	-0.098596	1.775096	-0.244190
H51	H	0.095754	1.784692	-0.250451
Cl52	Cl	0.662493	1.293702	0.375452
H53	H	0.098804	1.769481	-0.456473
H54	H	-0.098546	0.843789	0.469180
H55	H	0.383491	1.637463	-0.088486
Cl56	Cl	0.367869	1.816727	0.036290
