data_functionalizedCrystal
_audit_creation_method	'MofGen! by Chris Wilmer'
_symmetry_space_group_name_H-M	'P1'
_symmetry_Int_Tables_number	1
_symmetry_cell_setting	triclinic
loop_
_symmetry_equiv_pos_as_xyz
  x,y,z
_cell_length_a	16.109318
_cell_length_b	16.974813
_cell_length_c	14.586319
_cell_angle_alpha	86.341649
_cell_angle_beta	90.000075
_cell_angle_gamma	83.432062
loop_
_atom_site_label
_atom_site_type_symbol
_atom_site_fract_x
_atom_site_fract_y
_atom_site_fract_z
O1	O	1.103035	0.101699	-0.083708
O2	O	1.603035	0.601699	0.416292
O3	O	0.860964	0.114333	-0.084664
O4	O	1.360964	0.614333	0.415336
O5	O	0.988747	-0.007089	-0.075641
O6	O	1.488747	0.492911	0.424359
O7	O	0.975251	0.223121	-0.092731
O8	O	1.475251	0.723121	0.407269
O9	O	0.988739	-0.007091	0.076840
O10	O	1.488739	0.492909	0.576840
O11	O	0.860955	0.114331	0.067817
O12	O	1.360955	0.614331	0.567817
O13	O	1.103026	0.101697	0.068773
O14	O	1.603026	0.601697	0.568773
Cu15	Cu	0.981989	0.108014	0.082218
Cu16	Cu	1.481989	0.608014	0.582218
Cu17	Cu	0.982000	0.108016	-0.098109
Cu18	Cu	1.482000	0.608016	0.401891
O19	O	0.975242	0.223119	0.059750
O20	O	1.475242	0.723119	0.559750
C21	C	0.829985	0.113818	-0.008387
C22	C	1.329985	0.613818	0.491613
C23	C	0.737692	0.112276	-0.008280
C24	C	1.237692	0.612276	0.491720
C25	C	0.438627	0.107299	-0.091012
C26	C	0.938627	0.607299	0.408988
C27	C	0.525347	0.108742	-0.091124
C28	C	1.025347	0.608742	0.408876
C29	C	0.525356	0.108729	0.075120
C30	C	1.025356	0.608729	0.575120
C31	C	0.438639	0.107280	0.075232
C32	C	0.938639	0.607280	0.575232
C33	C	0.395276	0.106569	-0.007837
C34	C	0.895276	0.606569	0.492163
C35	C	0.568714	0.109461	-0.008062
C36	C	1.068714	0.609461	0.491938
C37	C	0.662739	0.111026	-0.008183
C38	C	1.162739	0.611026	0.491817
C39	C	0.301244	0.105003	-0.007715
C40	C	0.801244	0.605003	0.492285
C41	C	0.988230	-0.036548	0.002784
C42	C	1.488230	0.463452	0.502784
C43	C	0.986690	-0.124324	0.009294
C44	C	1.486690	0.375676	0.509294
C45	C	0.985973	-0.165557	-0.070764
C46	C	1.485973	0.334443	0.429236
C47	C	0.984521	-0.248031	-0.064645
C48	C	1.484521	0.251969	0.435355
C49	C	0.983791	-0.289273	0.021534
C50	C	1.483791	0.210727	0.521534
C51	C	0.984506	-0.248035	0.101598
C52	C	1.484506	0.251965	0.601598
C53	C	0.985952	-0.165561	0.095478
C54	C	1.485952	0.334439	0.595478
C55	C	0.979460	-0.535933	0.048751
C56	C	1.479460	-0.035933	0.548751
C57	C	0.978016	-0.618413	0.054866
C58	C	1.478016	-0.118413	0.554866
C59	C	0.978030	-0.618404	-0.111378
C60	C	1.478030	-0.118404	0.388622
C61	C	0.979481	-0.535929	-0.117491
C62	C	1.479481	-0.035929	0.382509
C63	C	0.980191	-0.494697	-0.037427
C64	C	1.480191	0.005303	0.462573
N65	N	0.982310	-0.373576	0.027791
N66	N	1.482310	0.126424	0.527791
N67	N	0.981667	-0.410395	-0.043685
N68	N	1.481667	0.089605	0.456315
C69	C	1.134004	0.102212	-0.007505
C70	C	1.634004	0.602212	0.492495
C71	C	1.226298	0.103754	-0.007619
C72	C	1.726298	0.603754	0.492381
C73	C	0.975760	0.252578	-0.018677
C74	C	1.475760	0.752578	0.481323
C75	C	0.977300	0.340355	-0.025193
C76	C	1.477300	0.840355	0.474807
N77	N	0.981988	0.108012	0.209050
N78	N	1.481988	0.608012	0.709050
N79	N	0.982008	0.108012	-0.224940
N80	N	1.482008	0.608012	0.275060
C81	C	1.038589	0.054265	0.448050
C82	C	1.538589	0.554265	0.948050
C83	C	1.038592	0.054263	0.544032
C84	C	1.538592	0.554263	1.044032
C85	C	0.925400	0.161762	0.536053
C86	C	1.425400	0.661762	1.036053
C87	C	0.925395	0.161759	0.440073
C88	C	1.425395	0.661759	0.940073
C89	C	0.981994	0.108012	0.396075
C90	C	1.481994	0.608012	0.896075
C91	C	0.982002	0.108012	0.588035
C92	C	1.482002	0.608012	1.088035
C93	C	0.982004	0.108011	0.692103
C94	C	1.482004	0.608011	1.192103
C95	C	0.981991	0.108012	0.292001
C96	C	1.481991	0.608012	0.792001
H97	H	0.560673	0.109310	0.142751
H98	H	1.060673	0.609310	0.642751
H99	H	0.403341	0.106685	0.142967
H100	H	0.903341	0.606685	0.642967
H101	H	0.980076	-0.502356	-0.187667
H102	H	1.480076	-0.002356	0.312333
H103	H	0.980055	-0.502375	0.113946
H104	H	1.480055	-0.002375	0.613946
H105	H	0.977451	-0.651983	-0.176562
H106	H	1.477451	-0.151983	0.323438
H107	H	0.983907	-0.281620	0.171767
H108	H	1.483907	0.218380	0.671767
H109	H	0.977418	-0.651990	0.125046
H110	H	1.477418	-0.151990	0.625046
H111	H	0.560640	0.109335	-0.158854
H112	H	1.060640	0.609335	0.341146
H113	H	0.986524	-0.131989	0.160670
H114	H	1.486524	0.368011	0.660670
H115	H	1.084675	0.010499	0.412229
H116	H	1.584675	0.510499	0.912229
H117	H	1.084676	0.010496	0.586348
H118	H	1.584676	0.510496	1.086348
H119	H	0.986572	-0.131984	-0.140941
H120	H	1.486572	0.368016	0.359059
H121	H	0.879320	0.205523	0.571886
H122	H	1.379320	0.705523	1.071886
H123	H	0.403324	0.106719	-0.158651
H124	H	0.903324	0.606719	0.341349
H125	H	0.879304	0.205527	0.397752
H126	H	1.379304	0.705527	0.897752
H127	H	0.983941	-0.281599	-0.129837
H128	H	1.483941	0.218401	0.370163
