data_functionalizedCrystal
_audit_creation_method	'MofGen! by Chris Wilmer'
_symmetry_space_group_name_H-M	'P1'
_symmetry_Int_Tables_number	1
_symmetry_cell_setting	triclinic
loop_
_symmetry_equiv_pos_as_xyz
  x,y,z
_cell_length_a	16.625548
_cell_length_b	18.101395
_cell_length_c	16.625539
_cell_angle_alpha	89.972352
_cell_angle_beta	89.979432
_cell_angle_gamma	90.032172
loop_
_atom_site_label
_atom_site_type_symbol
_atom_site_fract_x
_atom_site_fract_y
_atom_site_fract_z
Zn1	Zn	1.232632	-0.294807	-0.455913
Zn2	Zn	1.565965	0.038526	-0.122580
Zn3	Zn	1.899299	0.371859	0.210754
Zn4	Zn	1.232515	-0.418656	-0.321082
Zn5	Zn	1.565848	-0.085323	0.012252
Zn6	Zn	1.899182	0.248010	0.345585
Zn7	Zn	1.097794	-0.294835	-0.321094
Zn8	Zn	1.431127	0.038498	0.012240
Zn9	Zn	1.764461	0.371831	0.345573
Zn10	Zn	1.097744	-0.418614	-0.455872
Zn11	Zn	1.431077	-0.085280	-0.122538
Zn12	Zn	1.764411	0.248053	0.210795
O13	O	1.165171	-0.356728	-0.388490
O14	O	1.498505	-0.023395	-0.055157
O15	O	1.831838	0.309939	0.278177
O16	O	1.345449	-0.311242	-0.438040
O17	O	1.678782	0.022091	-0.104706
O18	O	2.012116	0.355425	0.228627
O19	O	1.214616	-0.402261	-0.208251
O20	O	1.547949	-0.068927	0.125082
O21	O	1.881282	0.264406	0.458416
O22	O	1.115750	-0.191199	-0.339000
O23	O	1.449084	0.142135	-0.005667
O24	O	1.782417	0.475468	0.327667
O25	O	1.345363	-0.402233	-0.338980
O26	O	1.678696	-0.068900	-0.005646
O27	O	2.012030	0.264433	0.327687
O28	O	1.214815	-0.191178	-0.438051
O29	O	1.548149	0.142155	-0.104718
O30	O	1.881482	0.475489	0.228616
O31	O	1.115637	-0.311290	-0.208260
O32	O	1.448970	0.022043	0.125074
O33	O	1.782303	0.355377	0.458407
O34	O	0.984955	-0.311249	-0.338960
O35	O	1.318288	0.022084	-0.005626
O36	O	1.651622	0.355418	0.327707
O37	O	1.115665	-0.402161	-0.568710
O38	O	1.448999	-0.068828	-0.235376
O39	O	1.782332	0.264506	0.097957
O40	O	0.984918	-0.402188	-0.437981
O41	O	1.318252	-0.068855	-0.104647
O42	O	1.651585	0.264478	0.228686
O43	O	1.214767	-0.311201	-0.568740
O44	O	1.548100	0.022133	-0.235407
O45	O	1.881434	0.355466	0.097927
O46	O	1.214567	-0.522284	-0.338940
O47	O	1.547901	-0.188950	-0.005606
O48	O	1.881234	0.144383	0.327727
O49	O	1.115552	-0.522252	-0.437969
O50	O	1.448885	-0.188919	-0.104636
O51	O	1.782218	0.144414	0.228697
C52	C	0.955680	-0.356718	-0.388467
C53	C	1.289014	-0.023384	-0.055134
C54	C	1.622347	0.309949	0.278199
C55	C	0.866059	-0.356731	-0.388477
C56	C	1.199393	-0.023398	-0.055144
C57	C	1.532726	0.309936	0.278190
C58	C	0.537884	-0.356736	-0.388511
C59	C	0.871217	-0.023402	-0.055178
C60	C	1.204550	0.309931	0.278155
C61	C	0.629192	-0.356732	-0.388499
C62	C	0.962525	-0.023399	-0.055166
C63	C	1.295859	0.309934	0.278167
C64	C	0.701969	-0.356734	-0.388494
C65	C	1.035302	-0.023400	-0.055160
C66	C	1.368635	0.309933	0.278173
C67	C	0.793283	-0.356729	-0.388483
C68	C	1.126616	-0.023396	-0.055149
C69	C	1.459949	0.309937	0.278184
C70	C	1.165063	-0.549139	-0.388466
C71	C	1.498397	-0.215805	-0.055133
C72	C	1.831730	0.117528	0.278200
C73	C	1.165091	-0.631453	-0.388483
C74	C	1.498424	-0.298119	-0.055150
C75	C	1.831758	0.035214	0.278184
C76	C	1.165268	-0.930544	-0.388527
C77	C	1.498601	-0.597210	-0.055193
C78	C	1.831935	-0.263877	0.278140
C79	C	1.103114	-0.899230	-0.450988
C80	C	1.436448	-0.565896	-0.117655
C81	C	1.769781	-0.232563	0.215679
C82	C	1.102819	-0.813612	-0.450793
C83	C	1.436152	-0.480278	-0.117459
C84	C	1.769486	-0.146945	0.215874
C85	C	1.165180	-0.782161	-0.388506
C86	C	1.498513	-0.448828	-0.055172
C87	C	1.831847	-0.115495	0.278161
C88	C	1.142173	-0.813313	-0.303528
C89	C	1.475506	-0.479980	0.029806
C90	C	1.808840	-0.146647	0.363139
C91	C	1.141772	-0.898959	-0.303901
C92	C	1.475106	-0.565625	0.029432
C93	C	1.808439	-0.232292	0.362765
C94	C	1.250565	-0.898886	-0.410295
C95	C	1.583898	-0.565552	-0.076962
C96	C	1.917231	-0.232219	0.256372
C97	C	1.250063	-0.813235	-0.412159
C98	C	1.583396	-0.479901	-0.078825
C99	C	1.916730	-0.146568	0.254508
C100	C	1.165132	-0.698302	-0.388489
C101	C	1.498465	-0.364968	-0.055155
C102	C	1.831799	-0.031635	0.278178
C103	C	1.165314	-1.014403	-0.388538
C104	C	1.498647	-0.681070	-0.055205
C105	C	1.831981	-0.347736	0.278129
C106	C	1.375480	-0.356739	-0.388513
C107	C	1.708813	-0.023406	-0.055180
C108	C	2.042147	0.309927	0.278154
C109	C	1.465101	-0.356744	-0.388523
C110	C	1.798435	-0.023411	-0.055190
C111	C	2.131768	0.309923	0.278144
C112	C	1.165224	-0.356673	-0.598799
C113	C	1.498557	-0.023340	-0.265466
C114	C	1.831890	0.309994	0.067868
C115	C	1.165246	-0.356649	-0.688420
C116	C	1.498579	-0.023316	-0.355087
C117	C	1.831913	0.310017	-0.021753
C118	C	1.165302	-0.163566	-0.388531
C119	C	1.498635	0.169767	-0.055198
C120	C	1.831968	0.503100	0.278135
C121	C	1.165357	-0.081252	-0.388549
C122	C	1.498690	0.252081	-0.055216
C123	C	1.832024	0.585415	0.278118
C124	C	1.165283	-0.356567	-1.016596
C125	C	1.498617	-0.023233	-0.683263
C126	C	1.831950	0.310100	-0.349929
C127	C	1.165271	-0.356592	-0.925287
C128	C	1.498604	-0.023259	-0.591954
C129	C	1.831937	0.310075	-0.258621
C130	C	1.165265	-0.356609	-0.852511
C131	C	1.498598	-0.023275	-0.519178
C132	C	1.831932	0.310058	-0.185844
C133	C	1.165252	-0.356633	-0.761197
C134	C	1.498585	-0.023300	-0.427863
C135	C	1.831918	0.310034	-0.094530
C136	C	1.165165	-0.356730	-0.178999
C137	C	1.498499	-0.023396	0.154334
C138	C	1.831832	0.309937	0.487667
C139	C	1.165299	-0.356545	-0.089378
C140	C	1.498633	-0.023211	0.243955
C141	C	1.831966	0.310122	0.577288
H142	H	1.117214	-0.792547	-0.513803
H143	H	1.450547	-0.459214	-0.180469
H144	H	1.783880	-0.125880	0.152864
H145	H	1.080482	-0.791930	-0.284757
H146	H	1.413815	-0.458596	0.048576
H147	H	1.747148	-0.125263	0.381910
H148	H	1.271540	-0.920433	-0.471205
H149	H	1.604873	-0.587100	-0.137872
H150	H	1.938207	-0.253766	0.195462
H151	H	1.117366	-0.919777	-0.514202
H152	H	1.450700	-0.586443	-0.180869
H153	H	1.784033	-0.253110	0.152464
H154	H	1.267413	-0.792871	-0.474698
H155	H	1.600746	-0.459538	-0.141365
H156	H	1.934079	-0.126204	0.191969
O157	O	1.067335	-0.922839	-0.282041
O158	O	1.400668	-0.589506	0.051292
O159	O	1.734001	-0.256172	0.384626
C160	C	1.009889	-0.895874	-0.337063
C161	C	1.343223	-0.562540	-0.003730
C162	C	1.676556	-0.229207	0.329604
H163	H	1.040616	-0.882566	-0.396647
H164	H	1.373949	-0.549233	-0.063313
H165	H	1.707283	-0.215900	0.270020
H166	H	0.981042	-0.843668	-0.311835
H167	H	1.314376	-0.510335	0.021498
H168	H	1.647709	-0.177001	0.354831
C169	C	0.906861	-0.971260	-0.277576
C170	C	1.240194	-0.637927	0.055758
C171	C	1.573528	-0.304594	0.389091
C172	C	0.944599	-0.954922	-0.350760
C173	C	1.277932	-0.621588	-0.017426
C174	C	1.611266	-0.288255	0.315907
H175	H	0.866585	-1.007682	-0.286022
H176	H	1.199918	-0.674348	0.047311
H177	H	1.533251	-0.341015	0.380644
H178	H	0.945562	-0.989426	-0.240504
H179	H	1.278895	-0.656092	0.092829
H180	H	1.612229	-0.322759	0.426163
H181	H	0.882829	-0.927750	-0.256560
H182	H	1.216162	-0.594417	0.076773
H183	H	1.549495	-0.261084	0.410106
H184	H	0.968639	-0.998429	-0.371769
H185	H	1.301973	-0.665096	-0.038435
H186	H	1.635306	-0.331762	0.294898
H187	H	0.905901	-0.936765	-0.387835
H188	H	1.239234	-0.603432	-0.054502
H189	H	1.572567	-0.270098	0.278831
O190	O	1.308184	-0.787775	-0.361735
O191	O	1.641517	-0.454441	-0.028402
O192	O	1.974850	-0.121108	0.304931
C193	C	1.290556	-0.809945	-0.282351
C194	C	1.623889	-0.476612	0.050982
C195	C	1.957223	-0.143279	0.384316
H196	H	1.249868	-0.860642	-0.283702
H197	H	1.583201	-0.527308	0.049632
H198	H	1.916535	-0.193975	0.382965
H199	H	1.258715	-0.763066	-0.249482
H200	H	1.592048	-0.429733	0.083851
H201	H	1.925381	-0.096400	0.417185
C202	C	1.419250	-0.766741	-0.236553
C203	C	1.752584	-0.433408	0.096781
C204	C	2.085917	-0.100075	0.430114
C205	C	1.369282	-0.829012	-0.238212
C206	C	1.702615	-0.495678	0.095121
C207	C	2.035949	-0.162345	0.428455
H208	H	1.467811	-0.778499	-0.209324
H209	H	1.801145	-0.445166	0.124010
H210	H	2.134478	-0.111833	0.457343
H211	H	1.431126	-0.751802	-0.290035
H212	H	1.764459	-0.418468	0.043299
H213	H	2.097792	-0.085135	0.376632
H214	H	1.392706	-0.727681	-0.209164
H215	H	1.726040	-0.394348	0.124170
H216	H	2.059373	-0.061015	0.457503
H217	H	1.395822	-0.868067	-0.265609
H218	H	1.729155	-0.534734	0.067724
H219	H	2.062489	-0.201400	0.401057
H220	H	1.357413	-0.843958	-0.184733
H221	H	1.690746	-0.510625	0.148600
H222	H	2.024079	-0.177292	0.481934
O223	O	1.028098	-0.924939	-0.434142
O224	O	1.361431	-0.591605	-0.100808
O225	O	1.694765	-0.258272	0.232525
C226	C	0.973019	-0.896389	-0.490618
C227	C	1.306352	-0.563056	-0.157284
C228	C	1.639685	-0.229723	0.176049
H229	H	1.006455	-0.880179	-0.547846
H230	H	1.339789	-0.546845	-0.214513
H231	H	1.673122	-0.213512	0.118820
H232	H	0.942035	-0.845681	-0.464326
H233	H	1.275369	-0.512348	-0.130992
H234	H	1.608702	-0.179014	0.202341
C235	C	0.868471	-0.975510	-0.440231
C236	C	1.201804	-0.642177	-0.106897
C237	C	1.535137	-0.308843	0.226436
C238	C	0.909537	-0.955606	-0.510522
C239	C	1.242871	-0.622272	-0.177189
C240	C	1.576204	-0.288939	0.156144
H241	H	0.829310	-1.012035	-0.452507
H242	H	1.162643	-0.678702	-0.119173
H243	H	1.495976	-0.345369	0.214160
H244	H	0.905577	-0.994742	-0.402179
H245	H	1.238911	-0.661409	-0.068846
H246	H	1.572244	-0.328076	0.264487
H247	H	0.842658	-0.933248	-0.418327
H248	H	1.175991	-0.599914	-0.084994
H249	H	1.509325	-0.266581	0.248339
H250	H	0.935357	-0.997866	-0.532419
H251	H	1.268690	-0.664532	-0.199085
H252	H	1.602024	-0.331199	0.134248
H253	H	0.872433	-0.936381	-0.548578
H254	H	1.205767	-0.603048	-0.215245
H255	H	1.539100	-0.269715	0.118089
H256	H	1.185078	-0.919675	-0.255776
H257	H	1.518412	-0.586342	0.077557
H258	H	1.851745	-0.253009	0.410891
O259	O	1.194443	-0.789132	-0.246399
O260	O	1.527776	-0.455799	0.086934
O261	O	1.861110	-0.122466	0.420267
C262	C	1.172038	-0.818115	-0.170911
C263	C	1.505371	-0.484782	0.162423
C264	C	1.838704	-0.151448	0.495756
H265	H	1.134814	-0.870355	-0.180004
H266	H	1.468148	-0.537021	0.153329
H267	H	1.801481	-0.203688	0.486662
H268	H	1.134834	-0.775471	-0.136856
H269	H	1.468167	-0.442138	0.196478
H270	H	1.801501	-0.108804	0.529811
C271	C	1.293820	-0.772651	-0.111000
C272	C	1.627154	-0.439317	0.222333
C273	C	1.960487	-0.105984	0.555667
C274	C	1.248108	-0.836816	-0.122169
C275	C	1.581441	-0.503482	0.211164
C276	C	1.914774	-0.170149	0.544498
H277	H	1.340743	-0.784183	-0.080932
H278	H	1.674076	-0.450850	0.252402
H279	H	2.007409	-0.117517	0.585735
H280	H	1.308914	-0.753122	-0.161857
H281	H	1.642248	-0.419788	0.171476
H282	H	1.975581	-0.086455	0.504810
H283	H	1.262808	-0.737120	-0.082624
H284	H	1.596142	-0.403787	0.250710
H285	H	1.929475	-0.070453	0.584043
H286	H	1.279116	-0.872341	-0.150553
H287	H	1.612449	-0.539008	0.182780
H288	H	1.945783	-0.205674	0.516113
H289	H	1.233021	-0.856351	-0.071315
H290	H	1.566354	-0.523018	0.262018
H291	H	1.899687	-0.189684	0.595351
H292	H	1.296871	-0.919135	-0.364802
H293	H	1.630205	-0.585802	-0.031469
H294	H	1.963538	-0.252468	0.301865
H295	H	1.039595	-0.793190	-0.436373
H296	H	1.372928	-0.459856	-0.103040
H297	H	1.706262	-0.126523	0.230294
