data_functionalizedCrystal
_audit_creation_method	'MofGen! by Chris Wilmer'
_symmetry_space_group_name_H-M	'P1'
_symmetry_Int_Tables_number	1
_symmetry_cell_setting	triclinic
loop_
_symmetry_equiv_pos_as_xyz
  x,y,z
_cell_length_a	19.188930
_cell_length_b	17.038272
_cell_length_c	17.666332
_cell_angle_alpha	89.991265
_cell_angle_beta	90.015196
_cell_angle_gamma	92.871832
loop_
_atom_site_label
_atom_site_type_symbol
_atom_site_fract_x
_atom_site_fract_y
_atom_site_fract_z
O1	O	0.932204	-0.097596	0.063194
O2	O	1.265538	0.235738	0.396527
O3	O	1.598871	0.569071	0.729861
O4	O	0.729709	-0.110733	0.063143
O5	O	1.063043	0.222600	0.396476
O6	O	1.396376	0.555934	0.729809
O7	O	0.829753	0.009647	0.063162
O8	O	1.163087	0.342981	0.396495
O9	O	1.496420	0.676314	0.729829
O10	O	0.832160	-0.217976	0.063175
O11	O	1.165494	0.115357	0.396508
O12	O	1.498827	0.448691	0.729841
O13	O	0.829751	0.009660	-0.062735
O14	O	1.163084	0.342993	0.270599
O15	O	1.496417	0.676327	0.603932
O16	O	0.729707	-0.110720	-0.062754
O17	O	1.063040	0.222613	0.270579
O18	O	1.396373	0.555946	0.603912
O19	O	0.932202	-0.097583	-0.062703
O20	O	1.265535	0.235750	0.270631
O21	O	1.598868	0.569084	0.603964
Cu22	Cu	0.830954	-0.104151	-0.074224
Cu23	Cu	1.164287	0.229183	0.259110
Cu24	Cu	1.497621	0.562516	0.592443
Cu25	Cu	0.830957	-0.104165	0.074664
Cu26	Cu	1.164290	0.229168	0.407997
Cu27	Cu	1.497624	0.562501	0.741330
O28	O	0.832158	-0.217963	-0.062722
O29	O	1.165491	0.115370	0.270611
O30	O	1.498824	0.448703	0.603945
C31	C	0.703670	-0.110301	0.000187
C32	C	1.037004	0.223032	0.333521
C33	C	1.370337	0.556365	0.666854
C34	C	0.626087	-0.109024	0.000168
C35	C	0.959420	0.224309	0.333501
C36	C	1.292753	0.557643	0.666834
C37	C	0.827563	0.038775	0.000213
C38	C	1.160896	0.372108	0.333546
C39	C	1.494229	0.705442	0.666880
C40	C	0.821031	0.125548	0.000212
C41	C	1.154365	0.458881	0.333545
C42	C	1.487698	0.792214	0.666878
N43	N	0.830957	-0.104139	-0.178943
N44	N	1.164290	0.229194	0.154390
N45	N	1.497623	0.562527	0.487723
C46	C	0.585551	-0.179659	0.000183
C47	C	0.918884	0.153674	0.333517
C48	C	1.252218	0.487007	0.666850
C49	C	0.512653	-0.178460	0.000192
C50	C	0.845986	0.154874	0.333525
C51	C	1.179319	0.488207	0.666858
C52	C	0.480293	-0.106621	0.000199
C53	C	0.813626	0.226713	0.333533
C54	C	1.146960	0.560046	0.666866
C55	C	0.520838	-0.035976	0.000179
C56	C	0.854171	0.297357	0.333513
C57	C	1.187505	0.630691	0.666846
C58	C	0.593735	-0.037178	0.000163
C59	C	0.927068	0.296156	0.333497
C60	C	1.260401	0.629489	0.666830
N61	N	0.368902	-0.051713	0.043075
N62	N	0.702236	0.281621	0.376408
N63	N	1.035569	0.614954	0.709741
N64	N	0.299653	-0.050576	0.043091
N65	N	0.632986	0.282757	0.376425
N66	N	0.966320	0.616091	0.709758
C67	C	0.260659	-0.102995	0.000245
C68	C	0.593992	0.230338	0.333579
C69	C	0.927326	0.563672	0.666912
N70	N	0.293530	-0.156606	-0.042609
N71	N	0.626863	0.176727	0.290725
N72	N	0.960196	0.510061	0.624058
N73	N	0.362785	-0.157745	-0.042622
N74	N	0.696119	0.175588	0.290711
N75	N	1.029452	0.508921	0.624045
C76	C	0.401249	-0.105309	0.000216
C77	C	0.734582	0.228024	0.333549
C78	C	1.067916	0.561357	0.666883
C79	C	0.141078	-0.172334	0.000269
C80	C	0.474412	0.160999	0.333602
C81	C	0.807745	0.494332	0.666936
C82	C	0.068179	-0.171132	0.000273
C83	C	0.401512	0.162202	0.333606
C84	C	0.734846	0.495535	0.666939
C85	C	0.076366	-0.028646	0.000268
C86	C	0.409699	0.304687	0.333601
C87	C	0.743032	0.638021	0.666934
C88	C	0.149264	-0.029851	0.000257
C89	C	0.482597	0.303483	0.333590
C90	C	0.815930	0.636816	0.666923
C91	C	0.181616	-0.101697	0.000261
C92	C	0.514949	0.231636	0.333594
C93	C	0.848282	0.564970	0.666927
C94	C	0.958240	-0.098015	0.000254
C95	C	1.291574	0.235319	0.333587
C96	C	1.624907	0.568652	0.666921
C97	C	1.035824	-0.099292	0.000279
C98	C	1.369158	0.234042	0.333612
C99	C	1.702491	0.567375	0.666946
C100	C	0.834348	-0.247091	0.000228
C101	C	1.167681	0.086242	0.333562
C102	C	1.501015	0.419576	0.666895
C103	C	0.840880	-0.333863	0.000235
C104	C	1.174213	-0.000530	0.333568
C105	C	1.507546	0.332803	0.666901
C106	C	0.880998	0.175849	0.000226
C107	C	1.214331	0.509182	0.333560
C108	C	1.547664	0.842516	0.666893
C109	C	0.874857	0.257380	0.000232
C110	C	1.208190	0.590714	0.333565
C111	C	1.541523	0.924047	0.666898
C112	C	0.808748	0.288609	0.000218
C113	C	1.142082	0.621942	0.333551
C114	C	1.475415	0.955275	0.666884
C115	C	0.748777	0.238301	0.000205
C116	C	1.082111	0.571634	0.333539
C117	C	1.415444	0.904967	0.666872
C118	C	0.754919	0.156771	0.000205
C119	C	1.088252	0.490104	0.333538
C120	C	1.421586	0.823437	0.666872
C121	C	0.787050	0.534299	0.000222
C122	C	1.120384	0.867632	0.333556
C123	C	1.453717	1.200965	0.666889
C124	C	0.780913	0.615835	0.000220
C125	C	1.114246	0.949168	0.333554
C126	C	1.447580	1.282502	0.666887
C127	C	0.906993	0.634909	0.000248
C128	C	1.240326	0.968243	0.333582
C129	C	1.573660	1.301576	0.666915
C130	C	0.913129	0.553377	0.000243
C131	C	1.246462	0.886710	0.333577
C132	C	1.579796	1.220044	0.666910
C133	C	0.853158	0.503076	0.000235
C134	C	1.186491	0.836409	0.333569
C135	C	1.519825	1.169743	0.666902
C136	C	0.802470	0.371947	0.000221
C137	C	1.135803	0.705280	0.333554
C138	C	1.469136	1.038613	0.666888
C139	C	0.859437	0.419740	0.000237
C140	C	1.192771	0.753073	0.333571
C141	C	1.526104	1.086407	0.666904
N142	N	0.830959	-0.104170	0.179383
N143	N	1.164293	0.229163	0.512716
N144	N	1.497626	0.562496	0.846050
C145	C	0.875357	-0.050953	0.781442
C146	C	1.208690	0.282380	1.114775
C147	C	1.542023	0.615714	1.448109
C148	C	0.875355	-0.050951	0.702194
C149	C	1.208688	0.282382	1.035528
C150	C	1.542022	0.615715	1.368861
C151	C	0.830960	-0.104150	0.662565
C152	C	1.164294	0.229184	0.995898
C153	C	1.497627	0.562517	1.329231
C154	C	0.786551	-0.157340	0.702189
C155	C	1.119885	0.175993	1.035522
C156	C	1.453218	0.509326	1.368856
C157	C	0.786550	-0.157335	0.781435
C158	C	1.119883	0.175998	1.114768
C159	C	1.453216	0.509331	1.448102
N160	N	0.826056	-0.173348	0.538154
N161	N	1.159390	0.159986	0.871487
N162	N	1.492723	0.493319	1.204820
N163	N	0.826062	-0.173350	0.462873
N164	N	1.159395	0.159983	0.796207
N165	N	1.492729	0.493317	1.129540
C166	C	0.830962	-0.104167	0.423801
C167	C	1.164295	0.229166	0.757134
C168	C	1.497628	0.562499	1.090467
N169	N	0.835869	-0.034980	0.462852
N170	N	1.169203	0.298353	0.796186
N171	N	1.502536	0.631687	1.129519
N172	N	0.835867	-0.034978	0.538140
N173	N	1.169200	0.298355	0.871473
N174	N	1.502534	0.631689	1.204806
C175	C	0.830957	-0.104161	0.576635
C176	C	1.164290	0.229172	0.909969
C177	C	1.497624	0.562506	1.243302
C178	C	0.875362	-0.050975	0.298256
C179	C	1.208695	0.282359	0.631590
C180	C	1.542029	0.615692	0.964923
C181	C	0.875355	-0.050972	0.219007
C182	C	1.208689	0.282361	0.552341
C183	C	1.542022	0.615694	0.885674
C184	C	0.786556	-0.157368	0.219004
C185	C	1.119889	0.175965	0.552337
C186	C	1.453222	0.509299	0.885670
C187	C	0.786559	-0.157364	0.298251
C188	C	1.119892	0.175970	0.631584
C189	C	1.453225	0.509303	0.964918
C190	C	0.830966	-0.104168	0.337873
C191	C	1.164299	0.229165	0.671206
C192	C	1.497632	0.562499	1.004539
H193	H	0.611887	-0.238162	0.000188
H194	H	0.945220	0.095171	0.333522
H195	H	1.278554	0.428504	0.666855
H196	H	0.050019	0.029847	0.000321
H197	H	0.383353	0.363180	0.333654
H198	H	0.716686	0.696514	0.666988
H199	H	0.911519	-0.007657	0.330518
H200	H	1.244852	0.325676	0.663851
H201	H	1.578186	0.659009	0.997184
H202	H	0.911509	-0.007657	0.186752
H203	H	1.244842	0.325676	0.520086
H204	H	1.578175	0.659009	0.853419
H205	H	0.694950	0.263733	0.000198
H206	H	1.028284	0.597066	0.333532
H207	H	1.361617	0.930399	0.666865
H208	H	0.966961	0.527958	0.000255
H209	H	1.300295	0.861291	0.333588
H210	H	1.633628	1.194624	0.666922
H211	H	0.035175	-0.228654	0.000281
H212	H	0.368509	0.104680	0.333614
H213	H	0.701842	0.438013	0.666948
H214	H	0.748644	0.397382	0.000208
H215	H	1.081977	0.730715	0.333541
H216	H	1.415310	1.064048	0.666874
H217	H	0.911512	-0.007639	0.669934
H218	H	1.244845	0.325694	1.003267
H219	H	1.578179	0.659028	1.336601
H220	H	0.750407	-0.200676	0.330508
H221	H	1.083740	0.132657	0.663841
H222	H	1.417074	0.465990	0.997174
H223	H	0.750403	-0.200654	0.669919
H224	H	1.083737	0.132679	1.003252
H225	H	1.417070	0.466013	1.336585
H226	H	0.750393	-0.200647	0.813690
H227	H	1.083726	0.132687	1.147024
H228	H	1.417060	0.466020	1.480357
H229	H	0.706088	0.115815	0.000193
H230	H	1.039421	0.449149	0.333527
H231	H	1.372755	0.782482	0.666860
H232	H	0.167421	-0.230836	0.000261
H233	H	0.500754	0.102497	0.333595
H234	H	0.834087	0.435831	0.666928
H235	H	0.494486	0.022516	0.000196
H236	H	0.827819	0.355849	0.333529
H237	H	1.161153	0.689183	0.666862
H238	H	0.913263	0.394310	0.000266
H239	H	1.246596	0.727644	0.333599
H240	H	1.579929	1.060977	0.666932
H241	H	0.911514	-0.007636	0.813700
H242	H	1.244847	0.325697	1.147033
H243	H	1.578180	0.659030	1.480366
H244	H	0.182269	0.027668	0.000248
H245	H	0.515602	0.361002	0.333581
H246	H	0.848935	0.694335	0.666915
H247	H	0.750406	-0.200680	0.186738
H248	H	1.083739	0.132653	0.520071
H249	H	1.417072	0.465987	0.853404
H250	H	0.955818	0.675873	0.000256
H251	H	1.289151	1.009206	0.333590
H252	H	1.622484	1.342539	0.666923
H253	H	0.934830	0.150430	0.000233
H254	H	1.268163	0.483763	0.333566
H255	H	1.601497	0.817097	0.666900
H256	H	0.479642	-0.235981	0.000202
H257	H	0.812975	0.097352	0.333536
H258	H	1.146309	0.430686	0.666869
H259	H	0.923688	0.298333	0.000242
H260	H	1.257021	0.631667	0.333575
H261	H	1.590355	0.965000	0.666909
H262	H	0.626739	0.020344	0.000151
H263	H	0.960072	0.353677	0.333484
H264	H	1.293406	0.687010	0.666818
H265	H	0.727077	0.641257	0.000196
H266	H	1.060411	0.974590	0.333530
H267	H	1.393744	1.307924	0.666863
H268	H	0.738217	0.493353	0.000215
H269	H	1.071551	0.826686	0.333549
H270	H	1.404884	1.160020	0.666882
