data_functionalizedCrystal
_audit_creation_method	'MofGen! by Chris Wilmer'
_symmetry_space_group_name_H-M	'P1'
_symmetry_Int_Tables_number	1
_symmetry_cell_setting	triclinic
loop_
_symmetry_equiv_pos_as_xyz
  x,y,z
_cell_length_a	12.759399
_cell_length_b	18.101398
_cell_length_c	12.759393
_cell_angle_alpha	90.030653
_cell_angle_beta	89.970091
_cell_angle_gamma	89.992265
loop_
_atom_site_label
_atom_site_type_symbol
_atom_site_fract_x
_atom_site_fract_y
_atom_site_fract_z
Zn1	Zn	-0.418440	-1.132227	-0.594297
Zn2	Zn	-0.594156	-1.132148	-0.418619
Zn3	Zn	-0.418467	-1.008378	-0.418602
Zn4	Zn	-0.594053	-1.008370	-0.594226
O5	O	-0.506279	-1.070281	-0.506436
O6	O	-0.441781	-1.235850	-0.571029
O7	O	-0.570905	-1.115700	-0.271595
O8	O	-0.271442	-1.024844	-0.441931
O9	O	-0.570879	-1.235792	-0.441959
O10	O	-0.271423	-1.115835	-0.571013
O11	O	-0.441827	-1.024767	-0.271583
O12	O	-0.441727	-0.904744	-0.441862
O13	O	-0.570704	-1.024830	-0.741256
O14	O	-0.570730	-0.904738	-0.570893
O15	O	-0.441682	-1.115827	-0.741308
O16	O	-0.741163	-1.115692	-0.441891
O17	O	-0.741088	-1.024753	-0.570909
C18	C	-0.779247	-1.070233	-0.506417
C19	C	-0.896023	-1.070281	-0.506444
C20	C	-0.506221	-0.877870	-0.506369
C21	C	-0.506221	-0.795556	-0.506365
C22	C	-1.060714	-1.023019	-0.439222
C23	C	-0.950990	-1.022968	-0.439198
C24	C	-0.950786	-1.117642	-0.573725
C25	C	-1.060508	-1.117688	-0.573753
C26	C	-0.801160	-0.935579	-0.401491
C27	C	-0.746401	-0.888227	-0.334201
C28	C	-0.782104	-0.876909	-0.231679
C29	C	-0.872564	-0.912954	-0.196426
C30	C	-0.927317	-0.960313	-0.263711
C31	C	-0.891616	-0.971616	-0.366248
C32	C	-1.210340	-1.205078	-0.611449
C33	C	-1.265095	-1.252441	-0.678729
C34	C	-1.229395	-1.263766	-0.781253
C35	C	-1.138931	-1.227733	-0.816502
C36	C	-1.084176	-1.180371	-0.749222
C37	C	-1.119884	-1.169045	-0.646699
C38	C	-0.506262	-0.496465	-0.506434
C39	C	-0.424694	-0.527770	-0.425650
C40	C	-0.424920	-0.613388	-0.425311
C41	C	-0.506241	-0.644848	-0.506400
C42	C	-0.616914	-0.613749	-0.476153
C43	C	-0.616454	-0.528104	-0.475586
C44	C	-0.478122	-0.528080	-0.617657
C45	C	-0.475664	-0.613730	-0.617055
C46	C	-0.506236	-0.728707	-0.506382
C47	C	-0.506275	-0.412606	-0.506449
C48	C	-0.232246	-1.070349	-0.506478
C49	C	-0.115469	-1.070378	-0.506496
C50	C	-0.506178	-1.070336	-0.780469
C51	C	-0.506135	-1.070360	-0.897246
C52	C	-0.506318	-0.263443	-0.506488
C53	C	-0.506282	-0.345757	-0.506469
C54	C	-0.438943	-1.117746	-0.952137
C55	C	-0.438898	-1.117758	-1.061861
C56	C	-0.573246	-1.022997	-1.061794
C57	C	-0.573286	-1.022982	-0.952072
C58	C	-0.314947	-1.144272	-1.211844
C59	C	-0.247764	-1.191670	-1.266738
C60	C	-0.231671	-1.263930	-1.231164
C61	C	-0.282776	-1.288807	-1.140697
C62	C	-0.349967	-1.241413	-1.085809
C63	C	-0.366040	-1.169143	-1.121381
C64	C	-0.697237	-0.996475	-0.802087
C65	C	-0.764434	-0.949085	-0.747196
C66	C	-0.780539	-0.876824	-0.782768
C67	C	-0.729452	-0.851949	-0.873238
C68	C	-0.662255	-0.899340	-0.928129
C69	C	-0.646149	-0.971600	-0.892549
C70	C	-0.506304	-1.070268	-0.233468
C71	C	-0.506051	-1.070388	-0.116692
H72	H	-1.105460	-0.984494	-0.384460
F73	F	-0.680074	-1.073378	-0.764201
H74	H	-1.273982	-1.302339	-0.836028
H75	H	-0.737510	-0.838354	-0.176891
H76	H	-0.640318	-0.508093	-0.394277
F77	F	-1.100928	-1.239790	-0.925618
H78	H	-0.772091	-0.944781	-0.484977
H79	H	-0.906026	-1.156162	-0.628482
F80	F	-0.852076	-0.826393	-0.724356
F81	F	-0.650130	-0.849865	-0.371723
H82	H	-0.901619	-0.903742	-0.112938
F83	F	-1.361379	-1.290787	-0.641212
F84	F	-1.023586	-0.998673	-0.226199
H85	H	-0.384262	-1.156323	-0.907501
H86	H	-0.679321	-0.634128	-0.533154
F87	F	-0.547665	-0.641721	-0.699950
H88	H	-0.206154	-1.171408	-1.340397
F89	F	-0.369219	-0.640312	-0.646877
F90	F	-0.607882	-0.872863	-1.024416
H91	H	-0.537533	-0.507837	-0.677849
H92	H	-1.239426	-1.195852	-0.527970
F93	F	-0.317650	-0.640872	-0.450089
F94	F	-0.648653	-0.641738	-0.371026
H95	H	-1.010513	-1.151033	-0.777930
F96	F	-0.404356	-1.267885	-0.989534
F97	F	-0.818815	-0.975564	-0.650914
F98	F	-0.746593	-0.775041	-0.911102
H99	H	-0.342371	-0.507185	-0.444397
H100	H	-0.443088	-0.506220	-0.343714
H101	H	-0.269674	-1.347651	-1.111746
H102	H	-0.443527	-0.633841	-0.342898
F103	F	-0.644712	-0.972579	-1.120153
H104	H	-0.679287	-0.507397	-0.531860
F105	F	-0.374466	-0.499868	-0.653599
F106	F	-0.160170	-1.314373	-1.289592
H107	H	-0.328036	-1.085431	-1.240812
