data_functionalizedCrystal
_audit_creation_method	'MofGen! by Chris Wilmer'
_symmetry_space_group_name_H-M	'P1'
_symmetry_Int_Tables_number	1
_symmetry_cell_setting	triclinic
loop_
_symmetry_equiv_pos_as_xyz
  x,y,z
_cell_length_a	18.215407
_cell_length_b	18.101397
_cell_length_c	18.215398
_cell_angle_alpha	90.028108
_cell_angle_beta	90.019464
_cell_angle_gamma	90.020914
loop_
_atom_site_label
_atom_site_type_symbol
_atom_site_fract_x
_atom_site_fract_y
_atom_site_fract_z
Zn1	Zn	1.125092	-0.294847	0.416102
Zn2	Zn	1.625092	0.205153	0.916102
Zn3	Zn	1.125011	-0.418688	0.293030
Zn4	Zn	1.625011	0.081312	0.793030
Zn5	Zn	1.002025	-0.294866	0.293050
Zn6	Zn	1.502025	0.205134	0.793050
Zn7	Zn	1.002000	-0.418652	0.416055
Zn8	Zn	1.502000	0.081348	0.916055
O9	O	1.063532	-0.356763	0.354559
O10	O	1.563532	0.143237	0.854559
O11	O	1.228065	-0.311282	0.399788
O12	O	1.728065	0.188718	0.899788
O13	O	1.108673	-0.402285	0.190048
O14	O	1.608673	0.097715	0.690048
O15	O	1.018395	-0.191230	0.309401
O16	O	1.518395	0.308770	0.809401
O17	O	1.228006	-0.402267	0.309367
O18	O	1.728006	0.097733	0.809367
O19	O	1.108811	-0.191216	0.399807
O20	O	1.608811	0.308784	0.899807
O21	O	1.018316	-0.311314	0.190063
O22	O	1.518316	0.188686	0.690063
O23	O	0.899038	-0.311279	0.309355
O24	O	1.399038	0.188721	0.809355
O25	O	1.018352	-0.402206	0.519046
O26	O	1.518352	0.097794	1.019046
O27	O	0.899019	-0.402224	0.399726
O28	O	1.399019	0.097776	0.899726
O29	O	1.108787	-0.311247	0.519080
O30	O	1.608787	0.188753	1.019080
O31	O	1.108648	-0.522316	0.309322
O32	O	1.608648	-0.022316	0.809322
O33	O	1.018273	-0.522290	0.399708
O34	O	1.518273	-0.022290	0.899708
C35	C	0.872326	-0.356750	0.354538
C36	C	1.372326	0.143250	0.854538
C37	C	0.790527	-0.356763	0.354546
C38	C	1.290527	0.143237	0.854546
C39	C	0.602342	-0.404192	0.401544
C40	C	1.102342	0.095808	0.901544
C41	C	0.525484	-0.404195	0.401553
C42	C	1.025484	0.095805	0.901553
C43	C	0.525473	-0.309347	0.307591
C44	C	1.025473	0.190653	0.807591
C45	C	0.602331	-0.309341	0.307586
C46	C	1.102331	0.190659	0.807586
C47	C	0.640763	-0.356768	0.354561
C48	C	1.140763	0.143232	0.854561
C49	C	0.487047	-0.356776	0.354575
C50	C	0.987047	0.143224	0.854575
C51	C	0.403713	-0.356778	0.354585
C52	C	0.903713	0.143222	0.854585
C53	C	0.724102	-0.356765	0.354553
C54	C	1.224102	0.143235	0.854553
C55	C	1.063469	-0.549174	0.354524
C56	C	1.563469	-0.049174	0.854524
C57	C	1.063509	-0.631488	0.354533
C58	C	1.563509	-0.131488	0.854533
C59	C	1.063603	-0.930579	0.354600
C60	C	1.563603	-0.430579	0.854600
C61	C	1.120306	-0.899239	0.297579
C62	C	1.620306	-0.399239	0.797579
C63	C	1.120503	-0.813621	0.297727
C64	C	1.620503	-0.313621	0.797727
C65	C	1.063557	-0.782196	0.354566
C66	C	1.563557	-0.282196	0.854566
C67	C	1.084581	-0.813207	0.432138
C68	C	1.584581	-0.313207	0.932138
C69	C	1.085019	-0.898851	0.431828
C70	C	1.585019	-0.398851	0.931828
C71	C	0.985725	-0.899087	0.334720
C72	C	1.485725	-0.399087	0.834720
C73	C	0.986109	-0.813438	0.332988
C74	C	1.486109	-0.313438	0.832988
C75	C	1.063529	-0.698337	0.354552
C76	C	1.563529	-0.198337	0.854552
C77	C	1.063633	-1.014438	0.354620
C78	C	1.563633	-0.514438	0.854620
C79	C	1.255485	-0.356776	0.354581
C80	C	1.755485	0.143224	0.854581
C81	C	1.337284	-0.356782	0.354590
C82	C	1.837284	0.143218	0.854590
C83	C	1.063575	-0.356720	0.546512
C84	C	1.563575	0.143280	1.046512
C85	C	1.063594	-0.356702	0.628311
C86	C	1.563594	0.143298	1.128311
C87	C	1.063615	-0.163601	0.354611
C88	C	1.563615	0.336399	0.854611
C89	C	1.063651	-0.081287	0.354633
C90	C	1.563651	0.418713	0.854633
C91	C	1.063531	-0.356752	0.163353
C92	C	1.563531	0.143248	0.663353
C93	C	1.063655	-0.356561	0.081554
C94	C	1.563655	0.143439	0.581554
C95	C	1.110676	-0.403980	0.893366
C96	C	1.610676	0.096020	1.393366
C97	C	1.110665	-0.404006	0.816507
C98	C	1.610665	0.095994	1.316507
C99	C	1.016567	-0.309282	0.816505
C100	C	1.516567	0.190718	1.316505
C101	C	1.016575	-0.309260	0.893363
C102	C	1.516575	0.190740	1.393363
C103	C	1.063634	-0.356608	0.931791
C104	C	1.563634	0.143392	1.431791
C105	C	1.063615	-0.356655	0.778075
C106	C	1.563615	0.143345	1.278075
C107	C	1.063602	-0.356683	0.694741
C108	C	1.563602	0.143317	1.194741
C109	C	1.063646	-0.356582	1.015130
C110	C	1.563646	0.143418	1.515130
H111	H	0.633614	-0.270719	0.269327
H112	H	1.133614	0.229281	0.769327
H113	H	0.943477	-0.919355	0.376251
H114	H	1.443477	-0.419355	0.876251
H115	H	0.494205	-0.442811	0.439812
H116	H	0.994205	0.057189	0.939812
C117	C	1.160624	-0.784163	0.455272
C118	C	1.660624	-0.284163	0.955272
H119	H	1.179661	-0.753148	0.417766
H120	H	1.679661	-0.253148	0.917766
H121	H	1.156196	-0.756779	0.499548
H122	H	1.656196	-0.256779	0.999548
H123	H	1.192935	-0.824653	0.462757
H124	H	1.692935	-0.324653	0.962757
C125	C	1.102732	-0.785292	0.220029
C126	C	1.602732	-0.285292	0.720029
H127	H	1.102825	-0.732808	0.220016
H128	H	1.602825	-0.232808	0.720016
H129	H	1.138701	-0.802864	0.186560
H130	H	1.638701	-0.302864	0.686560
H131	H	1.055694	-0.802722	0.205579
H132	H	1.555694	-0.302722	0.705579
C133	C	1.102831	-0.927222	0.219661
C134	C	1.602831	-0.427222	0.719661
H135	H	1.060793	-0.958262	0.221202
H136	H	1.560793	-0.458262	0.721202
H137	H	1.093427	-0.886327	0.188382
H138	H	1.593427	-0.386327	0.688382
H139	H	1.143512	-0.954383	0.201338
H140	H	1.643512	-0.454383	0.701338
H141	H	0.494172	-0.270735	0.269344
H142	H	0.994172	0.229265	0.769344
H143	H	1.177679	-0.920707	0.310582
H144	H	1.677679	-0.420707	0.810582
H145	H	1.148994	-0.442534	0.924652
H146	H	1.648994	0.057466	1.424652
H147	H	0.966599	-0.920746	0.279135
H148	H	1.466599	-0.420746	0.779135
C149	C	1.030486	-0.785731	0.491077
C150	C	1.530486	-0.285731	0.991077
H151	H	1.044206	-0.805144	0.537544
H152	H	1.544206	-0.305144	1.037544
H153	H	1.031582	-0.733295	0.492903
H154	H	1.531582	-0.233295	0.992903
H155	H	0.982287	-0.801824	0.479148
H156	H	1.482287	-0.301824	0.979148
C157	C	1.198431	-0.785863	0.315501
C158	C	1.698431	-0.285863	0.815501
H159	H	1.230090	-0.826930	0.322666
H160	H	1.730090	-0.326930	0.822666
H161	H	1.216082	-0.756737	0.275889
H162	H	1.716082	-0.256737	0.775889
H163	H	1.197200	-0.756805	0.358927
H164	H	1.697200	-0.256805	0.858927
H165	H	0.970257	-0.793177	0.275902
H166	H	1.470257	-0.293177	0.775902
C167	C	1.162410	-0.456113	0.774239
C168	C	1.662410	0.043887	1.274239
H169	H	1.155662	-0.449352	0.722961
H170	H	1.655662	0.050648	1.222961
H171	H	1.211863	-0.445272	0.786846
H172	H	1.711863	0.054728	1.286846
H173	H	1.151618	-0.505869	0.786826
H174	H	1.651618	-0.005869	1.286826
H175	H	0.941589	-0.792054	0.371478
H176	H	1.441589	-0.292054	0.871478
H177	H	0.978264	-0.270684	0.924649
H178	H	1.478264	0.229316	1.424649
C179	C	0.644616	-0.456353	0.453221
C180	C	1.144616	0.043647	0.953221
H181	H	0.610723	-0.484591	0.481209
H182	H	1.110723	0.015409	0.981209
H183	H	0.674578	-0.488583	0.425015
H184	H	1.174578	0.011417	0.925015
H185	H	0.674617	-0.428056	0.485337
H186	H	1.174617	0.071944	0.985337
C187	C	1.161921	-0.925765	0.454567
C188	C	1.661921	-0.425765	0.954567
H189	H	1.192601	-0.884356	0.463903
H190	H	1.692601	-0.384356	0.963903
H191	H	1.158179	-0.954967	0.497720
H192	H	1.658179	-0.454967	0.997720
H193	H	1.182434	-0.954564	0.416092
H194	H	1.682434	-0.454564	0.916092
H195	H	0.978255	-0.270732	0.785207
H196	H	1.478255	0.229268	1.285207
C197	C	1.031661	-0.926859	0.491185
C198	C	1.531661	-0.426859	0.991185
H199	H	1.009816	-0.885892	0.515385
H200	H	1.509816	-0.385892	1.015385
H201	H	0.994469	-0.956066	0.468916
H202	H	1.494469	-0.456066	0.968916
H203	H	1.057791	-0.955887	0.525886
H204	H	1.557791	-0.455887	1.025886
