data_functionalizedCrystal
_audit_creation_method	'MofGen! by Chris Wilmer'
_symmetry_space_group_name_H-M	'P1'
_symmetry_Int_Tables_number	1
_symmetry_cell_setting	triclinic
loop_
_symmetry_equiv_pos_as_xyz
  x,y,z
_cell_length_a	14.853569
_cell_length_b	10.489716
_cell_length_c	13.330367
_cell_angle_alpha	89.999430
_cell_angle_beta	89.994419
_cell_angle_gamma	84.082350
loop_
_atom_site_label
_atom_site_type_symbol
_atom_site_fract_x
_atom_site_fract_y
_atom_site_fract_z
O1	O	1.197291	0.166539	-0.083368
O2	O	0.934942	0.186375	-0.083379
O3	O	1.072098	-0.009210	-0.083377
O4	O	1.060136	0.362124	-0.083371
O5	O	1.072078	-0.009214	0.083470
O6	O	0.934922	0.186371	0.083468
O7	O	1.197271	0.166535	0.083479
Cu8	Cu	1.066095	0.176452	0.098708
Cu9	Cu	1.066119	0.176458	-0.098608
O10	O	1.060115	0.362120	0.083477
C11	C	0.901338	0.185474	0.000043
C12	C	0.801240	0.182779	0.000038
C13	C	0.764212	0.065334	0.000032
C14	C	0.744211	0.297694	0.000048
C15	C	0.650163	0.295166	0.000049
C16	C	0.613135	0.177721	0.000043
C17	C	0.670155	0.062802	0.000036
C18	C	0.593136	0.410082	0.000066
C19	C	0.499081	0.407559	0.000068
C20	C	0.462052	0.290112	0.000055
C21	C	0.519078	0.175189	0.000047
C22	C	0.482051	0.057744	0.000042
C23	C	0.539076	-0.057181	0.000027
C24	C	0.633126	-0.054645	0.000024
C25	C	0.368001	0.287576	0.000058
C26	C	0.387994	0.055212	0.000046
C27	C	1.071189	-0.056734	0.000043
C28	C	1.068500	-0.198335	0.000034
C29	C	1.152608	-0.296952	0.000047
C30	C	1.108173	-0.373812	-0.082217
C31	C	1.108134	-0.373780	0.082281
C32	C	1.024100	-0.273330	-0.082298
C33	C	1.024073	-0.273293	0.082275
C34	C	0.979577	-0.350103	-0.000009
C35	C	1.230875	0.167436	0.000055
C36	C	1.330974	0.170131	0.000053
C37	C	1.061024	0.409644	0.000054
C38	C	1.063713	0.551245	0.000057
N39	N	1.066085	0.176448	0.237489
N40	N	1.066136	0.176452	-0.237390
C41	C	1.005383	0.263028	0.710111
C42	C	1.126878	0.089877	0.710081
C43	C	1.126868	0.089873	0.605063
C44	C	1.066115	0.176449	0.552564
C45	C	1.005373	0.263030	0.605083
C46	C	1.187616	0.003303	0.552536
C47	C	1.187609	0.003296	0.447511
C48	C	1.126851	0.089868	0.395010
C49	C	1.066105	0.176451	0.447536
C50	C	1.005352	0.263027	0.395037
C51	C	0.944602	0.349605	0.447561
C52	C	0.944615	0.349601	0.552582
C53	C	1.126837	0.089871	0.289988
C54	C	1.005342	0.263028	0.290009
H55	H	0.357854	-0.040427	0.000036
C56	C	0.880668	-0.382005	-0.000072
N57	N	0.806171	-0.406035	-0.000124
C58	C	1.193703	-0.005352	0.767833
N59	N	1.244035	-0.077084	0.811337
H60	H	0.452659	0.501138	0.000079
C61	C	1.156152	-0.433120	-0.176166
N62	N	1.192296	-0.477791	-0.246924
H63	H	0.508915	-0.152805	0.000016
C64	C	0.633872	0.539264	0.000081
N65	N	0.664559	0.636568	0.000091
C66	C	0.305279	0.413985	0.000074
N67	N	0.258037	0.509203	0.000082
C68	C	1.156109	-0.433036	0.176241
N69	N	1.192250	-0.477663	0.247009
H70	H	0.988591	-0.229379	0.151823
C71	C	1.251442	-0.264718	-0.000061
N72	N	1.325882	-0.240437	-0.000146
C73	C	0.976182	-0.214294	-0.176366
N74	N	0.940095	-0.169827	-0.247219
H75	H	0.895155	0.420091	0.595354
C76	C	1.193659	-0.005357	0.232217
N77	N	1.243992	-0.077092	0.188705
H78	H	0.955866	0.333525	0.247270
H79	H	0.955918	0.333516	0.752879
C80	C	0.877777	0.444837	0.389798
N81	N	0.827445	0.516563	0.346287
C82	C	1.254439	-0.091925	0.610290
N83	N	1.304770	-0.163657	0.653796
C84	C	1.254428	-0.091950	0.389744
N85	N	1.304753	-0.163696	0.346233
H86	H	0.774365	0.393313	0.000059
C87	C	0.826939	-0.061077	0.000023
N88	N	0.874186	-0.156291	0.000020
C89	C	0.695859	-0.181050	0.000025
N90	N	0.743114	-0.276257	0.000034
