data_functionalizedCrystal
_audit_creation_method	'MofGen! by Chris Wilmer'
_symmetry_space_group_name_H-M	'P1'
_symmetry_Int_Tables_number	1
_symmetry_cell_setting	triclinic
loop_
_symmetry_equiv_pos_as_xyz
  x,y,z
_cell_length_a	16.992694
_cell_length_b	23.532357
_cell_length_c	15.455313
_cell_angle_alpha	92.642146
_cell_angle_beta	87.142206
_cell_angle_gamma	86.748258
loop_
_atom_site_label
_atom_site_type_symbol
_atom_site_fract_x
_atom_site_fract_y
_atom_site_fract_z
O1	O	1.042872	0.118386	-0.072039
O2	O	0.814599	0.117060	-0.072065
O3	O	0.935639	0.035133	-0.072034
O4	O	0.921833	0.200314	-0.072071
O5	O	0.928717	0.039797	0.072227
O6	O	0.807678	0.121725	0.072196
O7	O	1.035951	0.123050	0.072221
Cu8	Cu	0.921182	0.122813	0.085380
Cu9	Cu	0.929368	0.117297	-0.085224
O10	O	0.914911	0.204978	0.072190
C11	C	0.781940	0.117689	0.000062
C12	C	0.694937	0.112605	0.000053
C13	C	0.644303	0.161652	0.000043
C14	C	0.562554	0.156873	0.000056
C15	C	0.531441	0.103046	0.000073
C16	C	0.582081	0.053996	0.000086
C17	C	0.663828	0.058776	0.000080
C18	C	0.288001	0.083235	0.000101
C19	C	0.206248	0.078458	0.000105
C20	C	0.186726	0.181336	0.000077
C21	C	0.268475	0.186111	0.000065
C22	C	0.319108	0.137061	0.000082
N23	N	0.447881	0.098159	0.000084
N24	N	0.402667	0.141948	0.000078
C25	C	0.931833	0.016231	0.000099
C26	C	0.930794	-0.047039	0.000107
C27	C	0.928050	-0.441918	-0.078577
C28	C	0.927063	-0.501366	-0.078582
O29	O	0.929735	-0.534272	-0.145459
N30	N	0.922801	-0.528559	0.000054
C31	C	0.919517	-0.496300	0.078699
O32	O	0.915800	-0.524888	0.145584
C33	C	0.920498	-0.436852	0.078703
C34	C	0.924769	-0.409663	0.000063
C35	C	0.932319	-0.414728	-0.157210
C36	C	0.933308	-0.355284	-0.157205
C37	C	0.930027	-0.323029	-0.078566
C38	C	0.925757	-0.350218	0.000068
C39	C	0.917209	-0.404594	0.157348
C40	C	0.918190	-0.345142	0.157345
C41	C	0.922461	-0.317953	0.078705
C42	C	0.923464	-0.258519	0.078713
N43	N	0.927727	-0.231326	0.000078
C44	C	0.931008	-0.263581	-0.078562
C45	C	0.917455	-0.621144	0.078684
C46	C	0.916480	-0.680591	0.078681
C47	C	0.924024	-0.685653	-0.078600
C48	C	0.925006	-0.626206	-0.078596
C49	C	0.921718	-0.593951	0.000049
C50	C	0.933084	-0.138743	-0.078544
C51	C	0.934075	-0.079294	-0.078532
C52	C	0.926526	-0.074236	0.078748
C53	C	0.925539	-0.133681	0.078737
C54	C	0.928816	-0.165933	0.000083
O55	O	0.920792	-0.225577	0.145556
O56	O	0.934714	-0.234984	-0.145435
C57	C	1.068611	0.122422	0.000092
C58	C	1.155614	0.127505	0.000095
C59	C	0.918717	0.223879	0.000055
C60	C	0.919757	0.287149	0.000041
N61	N	0.915431	0.126693	0.205374
N62	N	0.935125	0.113413	-0.205218
C63	C	0.966871	0.091902	0.250782
C64	C	0.962528	0.094841	0.341589
C65	C	0.906749	0.132576	0.386986
C66	C	0.855304	0.167368	0.341572
C67	C	0.859643	0.164425	0.250767
C68	C	0.888020	0.145263	0.658563
C69	C	0.883686	0.148205	0.749374
C70	C	0.990909	0.075676	0.749384
C71	C	0.995247	0.072739	0.658577
C72	C	0.943799	0.107530	0.613171
N73	N	0.902311	0.135583	0.479805
N74	N	0.948234	0.104520	0.520354
H75	H	0.145492	0.221269	0.000064
Br76	Br	0.779597	0.218576	0.403180
H77	H	0.923858	-0.047964	0.142774
Br78	Br	0.913726	-0.301372	0.264084
Br79	Br	0.539858	-0.019055	0.000118
Br80	Br	0.789824	0.211641	0.189143
Br81	Br	1.070950	0.021531	0.596965
H82	H	0.838262	0.178935	0.786333
Br83	Br	0.164023	0.005404	0.000147
H84	H	0.329217	0.043295	0.000116
H85	H	0.705055	0.018837	0.000087
Br86	Br	1.060726	0.028462	0.811009
H87	H	0.937554	-0.057159	-0.142573
Br88	Br	0.818201	0.192479	0.596945
Br89	Br	0.937530	-0.182505	-0.185289
H90	H	0.936782	-0.333151	-0.221242
Br91	Br	0.936772	-0.458492	-0.263950
Br92	Br	0.910703	-0.717484	0.185411
H93	H	0.669628	0.205483	0.000029
H94	H	1.004414	0.066511	0.378559
H95	H	0.521330	0.196812	0.000047
H96	H	0.928482	-0.604072	-0.142632
H97	H	0.914780	-0.594886	0.142730
Br98	Br	0.310694	0.259164	0.000032
H99	H	0.926693	-0.711926	-0.142632
Br100	Br	0.911410	-0.441478	0.264081
H101	H	0.922069	-0.155820	0.142772
H102	H	1.012295	0.061177	0.213825
