data_functionalizedCrystal
_audit_creation_method	'MofGen! by Chris Wilmer'
_symmetry_space_group_name_H-M	'P1'
_symmetry_Int_Tables_number	1
_symmetry_cell_setting	triclinic
loop_
_symmetry_equiv_pos_as_xyz
  x,y,z
_cell_length_a	19.805407
_cell_length_b	19.805406
_cell_length_c	19.805399
_cell_angle_alpha	89.984242
_cell_angle_beta	90.016510
_cell_angle_gamma	90.003883
loop_
_atom_site_label
_atom_site_type_symbol
_atom_site_fract_x
_atom_site_fract_y
_atom_site_fract_z
Zn1	Zn	-1.034842	-0.269539	-0.382775
Zn2	Zn	-1.034815	-0.382730	-0.269613
Zn3	Zn	-0.921662	-0.269553	-0.269600
Zn4	Zn	-0.921673	-0.382684	-0.382760
O5	O	-0.978248	-0.326126	-0.326187
O6	O	-1.129555	-0.284568	-0.367775
O7	O	-1.019789	-0.367742	-0.174895
O8	O	-0.936683	-0.174834	-0.284614
O9	O	-1.129535	-0.367729	-0.284636
O10	O	-1.019836	-0.174824	-0.367763
O11	O	-0.936656	-0.284591	-0.174885
O12	O	-0.826947	-0.284546	-0.284600
O13	O	-0.936701	-0.367650	-0.477479
O14	O	-0.826955	-0.367663	-0.367738
O15	O	-1.019846	-0.284523	-0.477490
O16	O	-1.019799	-0.477440	-0.284621
O17	O	-0.936674	-0.477406	-0.367750
C18	C	-0.802392	-0.326102	-0.326167
C19	C	-0.727160	-0.326107	-0.326174
C20	C	-0.691827	-0.282881	-0.369530
C21	C	-0.621138	-0.282883	-0.369530
C22	C	-0.585784	-0.326115	-0.326178
C23	C	-0.621122	-0.369343	-0.282818
C24	C	-0.691809	-0.369337	-0.282814
C25	C	-0.336049	-0.369368	-0.282832
C26	C	-0.265357	-0.369372	-0.282840
C27	C	-0.265378	-0.282914	-0.369548
C28	C	-0.336065	-0.282908	-0.369544
C29	C	-0.371397	-0.326133	-0.326181
C30	C	-0.448045	-0.326129	-0.326180
C31	C	-0.509137	-0.326123	-0.326183
C32	C	-0.978253	-0.501982	-0.326200
C33	C	-0.978317	-0.577214	-0.326229
C34	C	-0.978277	-0.326079	-0.502730
C35	C	-0.978290	-0.326059	-0.577962
C36	C	-0.154791	-0.326147	-0.326202
C37	C	-0.230022	-0.326142	-0.326193
C38	C	-0.978261	-0.149584	-0.326189
C39	C	-0.978267	-0.074352	-0.326190
C40	C	-0.934979	-0.039012	-0.282900
C41	C	-0.934983	0.031677	-0.282908
C42	C	-0.978279	0.067024	-0.326201
C43	C	-1.021569	0.031679	-0.369496
C44	C	-1.021561	-0.039008	-0.369491
C45	C	-1.021602	0.316752	-0.369515
C46	C	-1.021609	0.387444	-0.369515
C47	C	-0.935025	0.387437	-0.282932
C48	C	-0.935017	0.316750	-0.282927
C49	C	-0.978304	0.281411	-0.326224
C50	C	-0.978297	0.204763	-0.326216
C51	C	-0.978289	0.143671	-0.326206
C52	C	-0.935015	-0.282759	-0.613301
C53	C	-0.935025	-0.282745	-0.683989
C54	C	-0.978313	-0.326030	-0.719338
C55	C	-1.021589	-0.369336	-0.683994
C56	C	-1.021576	-0.369352	-0.613307
C57	C	-1.021643	-0.369272	-0.969067
C58	C	-1.021654	-0.369251	-1.039759
C59	C	-0.935091	-0.282666	-1.039750
C60	C	-0.935078	-0.282682	-0.969063
C61	C	-0.978352	-0.325990	-0.933725
C62	C	-0.978341	-0.326005	-0.857077
C63	C	-0.978328	-0.326013	-0.795985
C64	C	-0.978257	-0.326124	-0.150331
C65	C	-0.978376	-0.325954	-0.075100
H66	H	-0.899725	-0.067786	-0.247643
H67	H	-0.899735	0.060450	-0.247659
H68	H	-1.056819	0.060463	-0.404750
O69	O	-0.370303	-0.240848	-0.411678
C70	C	-0.323958	-0.202706	-0.449957
H71	H	-0.273559	-0.200331	-0.422242
H72	H	-0.344377	-0.149385	-0.457257
H73	H	-0.316463	-0.227557	-0.501326
O74	O	-0.230981	-0.241013	-0.411700
C75	C	-0.190125	-0.279609	-0.455368
H76	H	-0.179531	-0.330871	-0.431414
H77	H	-0.140418	-0.252053	-0.464487
H78	H	-0.217385	-0.287112	-0.505514
H79	H	-0.236573	-0.404579	-0.247535
O80	O	-0.892895	0.282519	-0.240850
C81	C	-0.854698	0.328870	-0.202631
H82	H	-0.852366	0.379266	-0.230356
H83	H	-0.801366	0.308454	-0.195406
H84	H	-0.879475	0.336371	-0.151228
H85	H	-1.056872	-0.404544	-0.940304
O86	O	-1.063579	-0.411508	-0.579049
C87	C	-1.048770	-0.478961	-0.596307
H88	H	-1.022763	-0.480346	-0.647629
H89	H	-1.097614	-0.509321	-0.598726
H90	H	-1.013957	-0.501760	-0.556521
O91	O	-1.063687	0.282350	-0.411469
C92	C	-1.107399	0.241459	-0.372929
H93	H	-1.083512	0.230867	-0.321633
H94	H	-1.116469	0.191754	-0.400493
H95	H	-1.157560	0.268689	-0.365497
H96	H	-0.720607	-0.247678	-0.404834
O97	O	-0.370259	-0.411421	-0.240691
C98	C	-0.323894	-0.449567	-0.202420
H99	H	-0.273519	-0.451951	-0.230147
H100	H	-0.344322	-0.502884	-0.195111
H101	H	-0.316350	-0.424713	-0.151055
H102	H	-0.899776	0.416217	-0.247680
H103	H	-0.592331	-0.404540	-0.247517
H104	H	-1.056867	0.416223	-0.404773
O105	O	-1.063670	-0.073235	-0.411569
C106	C	-1.101872	-0.026881	-0.449798
H107	H	-1.104227	0.023499	-0.422074
H108	H	-1.155196	-0.047317	-0.457036
H109	H	-1.077085	-0.019341	-0.501195
H110	H	-0.899854	-0.247405	-1.068530
O111	O	-1.063725	-0.411368	-1.073993
C112	C	-1.101928	-0.449586	-1.027647
H113	H	-1.074197	-0.451939	-0.977255
H114	H	-1.109142	-0.502910	-1.048074
H115	H	-1.153337	-0.424815	-1.020135
H116	H	-0.899783	-0.247488	-0.712759
H117	H	-0.720576	-0.404536	-0.247509
H118	H	-0.899831	-0.247433	-0.940286
H119	H	-0.899769	-0.247507	-0.584525
O120	O	-1.063711	-0.411287	-0.718360
C121	C	-1.107427	-0.372749	-0.759267
H122	H	-1.111610	-0.319447	-0.737966
H123	H	-1.159514	-0.397239	-0.760073
H124	H	-1.086510	-0.370401	-0.812837
O125	O	-0.586921	-0.240872	-0.411711
C126	C	-0.633283	-0.202704	-0.449964
H127	H	-0.683675	-0.230430	-0.452262
H128	H	-0.612876	-0.195554	-0.503304
H129	H	-0.640789	-0.151266	-0.425259
