data_functionalizedCrystal
_audit_creation_method	'MofGen! by Chris Wilmer'
_symmetry_space_group_name_H-M	'P1'
_symmetry_Int_Tables_number	1
_symmetry_cell_setting	triclinic
loop_
_symmetry_equiv_pos_as_xyz
  x,y,z
_cell_length_a	10.489716
_cell_length_b	15.625950
_cell_length_c	14.185569
_cell_angle_alpha	120.545593
_cell_angle_beta	103.292256
_cell_angle_gamma	95.619649
loop_
_atom_site_label
_atom_site_type_symbol
_atom_site_fract_x
_atom_site_fract_y
_atom_site_fract_z
O1	O	-0.032996	1.290896	0.385999
O2	O	-0.089037	1.003164	0.281365
O3	O	0.125480	1.153593	0.336080
O4	O	-0.247513	1.140467	0.331284
O5	O	0.188844	1.198031	0.519078
O6	O	-0.025673	1.047602	0.464363
O7	O	0.030368	1.335334	0.568997
Cu8	Cu	0.008133	1.195526	0.533389
Cu9	Cu	-0.066802	1.142972	0.316973
O10	O	-0.184149	1.184905	0.514282
C11	C	-0.061092	0.988539	0.359466
C12	C	-0.072211	0.878756	0.319544
C13	C	0.063800	0.638684	0.686871
C14	C	0.053309	0.535511	0.649306
C15	C	-0.015763	0.487118	0.449828
C16	C	-0.005284	0.590287	0.487376
C17	C	0.034500	0.666064	0.605898
C18	C	-0.034584	0.617667	0.406403
C19	C	-0.024098	0.720829	0.443948
C20	C	0.015687	0.796611	0.562466
C21	C	0.044986	0.769225	0.643444
C22	C	-0.074358	0.541891	0.287881
C23	C	-0.103658	0.569271	0.206909
C24	C	-0.093182	0.672433	0.244453
C25	C	-0.053397	0.748215	0.362971
C26	C	-0.122480	0.699819	0.163476
C27	C	-0.111995	0.802980	0.201021
C28	C	-0.042911	0.851376	0.400516
C29	C	-0.263231	1.163671	0.423138
C30	C	-0.404464	1.166618	0.424200
C31	C	-0.514683	1.074376	0.390671
C32	C	-0.616665	1.101213	0.318178
C33	C	-0.554125	1.145046	0.498607
C34	C	-0.504611	1.193398	0.351619
C35	C	-0.442040	1.237237	0.532125
C36	C	-0.543971	1.264137	0.459635
C37	C	0.204561	1.174826	0.427222
C38	C	0.345791	1.171878	0.426152
C39	C	0.002422	1.349958	0.490893
C40	C	0.013539	1.459739	0.530808
N41	N	0.060840	1.232496	0.685607
N42	N	-0.119498	1.106010	0.164758
C43	C	-0.274296	0.997391	0.967743
C44	C	-0.234379	1.025402	1.082953
C45	C	-0.044485	1.158635	1.131374
C46	C	-0.084383	1.130631	1.016165
C47	C	-0.199290	1.050009	0.934358
C48	C	-0.009377	1.183250	0.982780
C49	C	-0.049276	1.155252	0.867582
C50	C	-0.164181	1.074635	0.785769
C51	C	-0.239189	1.022011	0.819160
C52	C	0.105525	1.263876	1.064591
C53	C	0.180531	1.316494	1.031205
C54	C	0.140638	1.288492	0.916004
C55	C	0.025733	1.207875	0.834191
C56	C	0.215646	1.341116	0.882613
C57	C	0.175748	1.313118	0.767415
C58	C	-0.014166	1.179877	0.718993
H59	H	-0.136044	0.507561	0.110407
H60	H	0.024225	0.880611	0.593034
C61	C	-0.165926	0.617472	0.034805
C62	C	-0.284928	0.546506	0.003653
C63	C	-0.325000	0.470643	-0.114872
H64	H	-0.096374	0.583119	0.018429
H65	H	-0.181962	0.648506	-0.008092
H66	H	-0.268886	0.515475	0.046536
H67	H	-0.354507	0.580828	0.020000
H68	H	-0.341036	0.501677	-0.157769
H69	H	-0.255440	0.436298	-0.131237
H70	H	-0.405753	0.422489	-0.136026
H71	H	0.049071	1.224281	1.197995
C72	C	0.088265	0.851362	0.772180
C73	C	0.111709	0.805311	0.835066
C74	C	0.151599	0.880943	0.953654
H75	H	0.018662	0.885652	0.788577
H76	H	0.169047	0.899610	0.793573
H77	H	0.030937	0.757081	0.813681
H78	H	0.181319	0.771027	0.818704
H79	H	0.232380	0.929191	0.975047
H80	H	0.081990	0.915228	0.970039
H81	H	0.167522	0.849710	0.996337
C82	C	-0.717030	1.024762	0.197575
C83	C	-0.792196	1.077220	0.159760
C84	C	-0.884655	1.006824	0.048666
H85	H	-0.776524	0.976267	0.199600
H86	H	-0.669257	0.989931	0.145832
H87	H	-0.839966	1.112034	0.211490
H88	H	-0.732739	1.125710	0.157708
H89	H	-0.836882	0.971993	-0.003077
H90	H	-0.944139	0.958332	0.050703
H91	H	-0.935657	1.042407	0.022991
H92	H	0.309198	1.406765	0.949237
H93	H	-0.135861	0.825271	0.135085
C94	C	-0.496511	0.967290	0.351409
C95	C	-0.586435	0.896439	0.239313
C96	C	-0.569717	0.797787	0.203096
H97	H	-0.514618	0.949472	0.402708
H98	H	-0.406061	0.966247	0.351562
H99	H	-0.676865	0.897479	0.239168
H100	H	-0.568346	0.914223	0.187988
H101	H	-0.479266	0.796743	0.203249
H102	H	-0.587822	0.779979	0.254402
H103	H	-0.630718	0.749704	0.127032
H104	H	0.138002	1.286672	1.158392
H105	H	-0.482468	1.213769	0.289403
H106	H	-0.107727	1.114220	0.652377
H107	H	0.077142	0.513224	0.715252
H108	H	-0.332750	0.956354	0.752544
H109	H	-0.367857	0.931734	0.901128
H110	H	-0.295470	0.982547	1.110126
H111	H	-0.048149	0.425408	0.353326
H112	H	-0.557492	1.344424	0.488790
H113	H	0.274087	1.382140	1.097826
H114	H	0.236825	1.355967	0.740234
H115	H	-0.082900	0.457891	0.257315
C116	C	-0.341564	1.313656	0.652676
C117	C	-0.264700	1.261375	0.689541
C118	C	-0.172113	1.331732	0.800587
H119	H	-0.389275	1.347621	0.704807
H120	H	-0.283167	1.362876	0.650857
H121	H	-0.323089	1.212173	0.691368
H122	H	-0.216961	1.227415	0.637441
H123	H	-0.113716	1.380952	0.798768
H124	H	-0.219835	1.365693	0.852708
H125	H	-0.119941	1.296271	0.825610
C126	C	-0.583775	1.117641	0.581350
C127	C	-0.569960	1.018296	0.544833
C128	C	-0.597235	0.993016	0.621032
H129	H	-0.673657	1.120263	0.582069
H130	H	-0.521741	1.165255	0.657096
H131	H	-0.631992	0.970695	0.469107
H132	H	-0.480087	1.015649	0.544120
H133	H	-0.535201	1.040629	0.696777
H134	H	-0.687117	0.995644	0.621745
H135	H	-0.587854	0.925613	0.596271
C136	C	-0.207763	1.044111	0.660649
C137	C	-0.324464	0.962263	0.596161
C138	C	-0.364661	0.934126	0.480902
H139	H	-0.137138	1.023601	0.629312
H140	H	-0.226518	1.101059	0.657545
H141	H	-0.305703	0.905327	0.599259
H142	H	-0.395115	0.982749	0.627462
H143	H	-0.383416	0.991073	0.477798
H144	H	-0.294027	0.913620	0.449576
H145	H	-0.443852	0.878595	0.437135
C146	C	0.000552	0.933641	0.529223
C147	C	0.129806	0.933504	0.584036
C148	C	0.169895	1.009281	0.702590
H149	H	-0.062044	0.919760	0.561655
H150	H	0.002687	0.999025	0.540030
H151	H	0.127661	0.868134	0.573237
H152	H	0.192431	0.947397	0.551638
H153	H	0.172030	1.074665	0.713397
H154	H	0.107291	0.995393	0.735011
H155	H	0.257602	1.009205	0.739793
H156	H	0.096176	0.700384	0.783383
