data_functionalizedCrystal
_audit_creation_method	'MofGen! by Chris Wilmer'
_symmetry_space_group_name_H-M	'P1'
_symmetry_Int_Tables_number	1
_symmetry_cell_setting	triclinic
loop_
_symmetry_equiv_pos_as_xyz
  x,y,z
_cell_length_a	12.827892
_cell_length_b	29.839134
_cell_length_c	12.827885
_cell_angle_alpha	89.969016
_cell_angle_beta	89.970024
_cell_angle_gamma	90.010254
loop_
_atom_site_label
_atom_site_type_symbol
_atom_site_fract_x
_atom_site_fract_y
_atom_site_fract_z
Zn1	Zn	-0.416126	0.686841	-0.591174
Zn2	Zn	-0.590903	0.686795	-0.416434
Zn3	Zn	-0.416161	0.611712	-0.416412
Zn4	Zn	-0.590810	0.611706	-0.591098
O5	O	-0.503500	0.649263	-0.503779
O6	O	-0.439334	0.749702	-0.568035
O7	O	-0.567777	0.676819	-0.270194
O8	O	-0.269920	0.621700	-0.439617
O9	O	-0.567743	0.749668	-0.439654
O10	O	-0.269894	0.676897	-0.568014
O11	O	-0.439395	0.621655	-0.270178
O12	O	-0.439304	0.548844	-0.439543
O13	O	-0.567584	0.621689	-0.737344
O14	O	-0.567618	0.548839	-0.567884
O15	O	-0.439244	0.676890	-0.737400
O16	O	-0.737127	0.676813	-0.439580
O17	O	-0.737058	0.621645	-0.567905
C18	C	-0.775010	0.649235	-0.503760
C19	C	-0.891163	0.649264	-0.503787
C20	C	-0.503455	0.532541	-0.503704
C21	C	-0.503462	0.482606	-0.503696
C22	C	-0.942851	0.676565	-0.567378
C23	C	-1.062902	0.676596	-0.567408
C24	C	-0.570412	0.172970	-0.570525
C25	C	-0.570441	-0.014703	-0.570571
O26	O	-0.627315	-0.038962	-0.627346
N27	N	-0.503538	-0.038179	-0.503858
C28	C	-0.436618	-0.014733	-0.437133
O29	O	-0.379706	-0.039007	-0.380398
C30	C	-0.436584	0.172939	-0.437093
C31	C	-0.503499	0.196412	-0.503803
C32	C	-0.637320	0.196443	-0.637230
C33	C	-0.637316	0.243359	-0.637214
C34	C	-0.570403	0.266801	-0.570492
C35	C	-0.503495	0.243328	-0.503787
C36	C	-0.369660	0.196384	-0.370374
C37	C	-0.369655	0.243305	-0.370372
C38	C	-0.436570	0.266778	-0.437082
C39	C	-0.436578	0.313685	-0.437049
N40	N	-0.503481	0.337161	-0.503762
C41	C	-0.570394	0.313719	-0.570483
C42	C	-0.436642	-0.113264	-0.437158
C43	C	-0.436652	-0.160182	-0.437166
C44	C	-0.570473	-0.160148	-0.570606
C45	C	-0.570468	-0.113230	-0.570591
C46	C	-0.503545	-0.089788	-0.503871
C47	C	-0.570381	0.412245	-0.570443
C48	C	-0.570374	0.459164	-0.570418
C49	C	-0.436549	0.459127	-0.436983
C50	C	-0.436559	0.412211	-0.437004
C51	C	-0.503479	0.388771	-0.503743
O52	O	-0.379726	0.337973	-0.380311
O53	O	-0.627281	0.338001	-0.627226
C54	C	-0.570416	0.126055	-0.570541
C55	C	-0.503507	0.102581	-0.503835
C56	C	-0.436595	0.126023	-0.437114
C57	C	-0.503517	0.055663	-0.503844
C58	C	-0.570429	0.032221	-0.570566
C59	C	-0.637332	0.055697	-0.637279
C60	C	-0.637328	0.102612	-0.637263
C61	C	-0.369692	0.102548	-0.370401
C62	C	-0.369702	0.055632	-0.370422
C63	C	-0.436614	0.032190	-0.437143
C64	C	-0.230930	0.649304	-0.503822
C65	C	-0.114776	0.649321	-0.503840
C66	C	-0.503399	0.649294	-0.776350
C67	C	-0.503357	0.649307	-0.892503
C68	C	-0.503545	0.766442	-0.503855
C69	C	-0.503564	0.816376	-0.503888
C70	C	-0.439838	0.676625	-0.944315
C71	C	-0.439792	0.676640	-1.064366
C72	C	-0.503524	0.649259	-0.232269
C73	C	-0.503273	0.649333	-0.116117
H74	H	-0.898229	0.699915	-0.621805
C75	C	-0.366320	0.708236	-1.124557
N76	N	-0.310977	0.732035	-1.169897
C77	C	-0.366411	0.708208	-0.884178
N78	N	-0.311104	0.731997	-0.838884
H79	H	-1.107353	0.699971	-0.621847
C80	C	-1.054735	0.617742	-0.430284
N81	N	-1.009503	0.593956	-0.374883
H82	H	-0.935787	0.625912	-0.449370
C83	C	-0.296082	0.029817	-0.297033
N84	N	-0.240625	0.010375	-0.241766
H85	H	-0.557660	0.625945	-1.071566
C86	C	-0.576776	0.617722	-0.952640
N87	N	-0.632078	0.593930	-0.997934
H88	H	-0.315151	0.262388	-0.316045
H89	H	-0.624868	0.478274	-0.624742
H90	H	-0.624871	0.393165	-0.624791
C91	C	-0.710923	0.269173	-0.710606
N92	N	-0.766366	0.288614	-0.765891
H93	H	-0.691809	0.177362	-0.691568
C94	C	-0.644073	-0.087413	-0.643982
N95	N	-0.699513	-0.067971	-0.699267
C96	C	-0.362937	0.484922	-0.363605
N97	N	-0.307482	0.504352	-0.308346
C98	C	-0.296083	0.128328	-0.296993
N99	N	-0.240641	0.147743	-0.241692
H100	H	-0.624956	-0.179243	-0.624933
H101	H	-0.382173	-0.179290	-0.382834
H102	H	-0.382144	-0.094182	-0.382821
C103	C	-0.362958	0.386390	-0.363612
N104	N	-0.307514	0.366944	-0.308339
C105	C	-0.710937	0.128427	-0.710653
N106	N	-0.766381	0.147867	-0.765936
C107	C	-0.710934	0.029902	-0.710675
N108	N	-0.766363	0.010470	-0.765958
H109	H	-0.315173	0.177280	-0.316049
