data_functionalizedCrystal
_audit_creation_method	'MofGen! by Chris Wilmer'
_symmetry_space_group_name_H-M	'P1'
_symmetry_Int_Tables_number	1
_symmetry_cell_setting	triclinic
loop_
_symmetry_equiv_pos_as_xyz
  x,y,z
_cell_length_a	12.837943
_cell_length_b	23.532407
_cell_length_c	11.892095
_cell_angle_alpha	93.859970
_cell_angle_beta	85.689438
_cell_angle_gamma	88.838809
loop_
_atom_site_label
_atom_site_type_symbol
_atom_site_fract_x
_atom_site_fract_y
_atom_site_fract_z
O1	O	1.380592	0.144688	-0.094007
O2	O	1.078862	0.137379	-0.094012
O3	O	1.238824	0.058625	-0.093989
O4	O	1.220630	0.223442	-0.094030
O5	O	1.225487	0.065180	0.094017
O6	O	1.065525	0.143934	0.093993
O7	O	1.367255	0.151243	0.093999
Zn8	Zn	1.214272	0.148629	0.123846
Zn9	Zn	1.231845	0.139993	-0.123859
O10	O	1.207293	0.229998	0.093975
C11	C	1.033599	0.138187	-0.000010
C12	C	0.918597	0.130823	-0.000011
C13	C	0.676728	0.219356	-0.000017
C14	C	0.568673	0.212439	-0.000017
C15	C	0.594431	0.110073	-0.000004
C16	C	0.702485	0.116990	-0.000003
C17	C	0.743630	0.171633	-0.000012
C18	C	0.851687	0.178549	-0.000020
C19	C	0.877442	0.076184	0.000002
C20	C	0.769387	0.069267	0.000002
C21	C	1.231692	0.040660	0.000017
C22	C	1.230298	-0.022637	0.000026
C23	C	1.316227	-0.416812	-0.000035
C24	C	1.314934	-0.476287	-0.000043
O25	O	1.394590	-0.508463	-0.000084
N26	N	1.219835	-0.504370	-0.000044
C27	C	1.126025	-0.472975	-0.000048
O28	O	1.045018	-0.502322	-0.000051
C29	C	1.127321	-0.413501	-0.000047
C30	C	1.222424	-0.385421	-0.000035
C31	C	1.411324	-0.388732	-0.000024
C32	C	1.412617	-0.329261	-0.000013
C33	C	1.318813	-0.297871	-0.000013
C34	C	1.223717	-0.325951	-0.000024
C35	C	1.033512	-0.382108	-0.000059
C36	C	1.034816	-0.322631	-0.000060
C37	C	1.129920	-0.294551	-0.000047
C38	C	1.131207	-0.235089	-0.000014
N39	N	1.226306	-0.207006	-0.000013
C40	C	1.320109	-0.238397	-0.000013
C41	C	1.123312	-0.597873	-0.000051
C42	C	1.122015	-0.657345	-0.000043
C43	C	1.310925	-0.660653	-0.000041
C44	C	1.312220	-0.601180	-0.000040
C45	C	1.218411	-0.569790	-0.000050
C46	C	1.322817	-0.113504	0.000011
C47	C	1.324101	-0.054028	0.000026
C48	C	1.135193	-0.050725	0.000018
C49	C	1.133908	-0.110196	0.000008
C50	C	1.227729	-0.141584	0.000001
O51	O	1.051594	-0.202877	0.000022
O52	O	1.401104	-0.209042	-0.000025
C53	C	1.412519	0.150435	-0.000006
C54	C	1.527521	0.157799	-0.000012
C55	C	1.214425	0.247962	-0.000033
C56	C	1.215820	0.311259	-0.000049
N57	N	1.202287	0.154524	0.292898
N58	N	1.243838	0.134094	-0.292912
C59	C	1.327236	0.093046	0.529565
C60	C	1.318866	0.097171	0.647905
C61	C	1.177173	0.166894	0.647922
C62	C	1.185543	0.162770	0.529582
C63	C	1.260578	0.125845	0.470407
C64	C	1.268952	0.121724	0.352064
C65	C	1.127255	0.191444	0.352084
C66	C	1.118885	0.195569	0.470424
H67	H	0.885184	0.223042	-0.000025
H68	H	1.072980	0.218153	0.303904
C69	C	1.017401	-0.688226	-0.000048
H70	H	0.961727	-0.661008	-0.000055
H71	H	1.008310	-0.709080	0.065508
H72	H	1.017620	-0.713635	-0.065624
C73	C	0.495085	0.264934	-0.000033
H74	H	0.535070	0.298465	-0.000047
H75	H	0.447743	0.266649	0.065525
H76	H	0.457054	0.262077	-0.065607
H77	H	1.388340	0.062984	0.481384
C78	C	0.721991	0.279458	-0.000037
H79	H	0.666670	0.306891	-0.000038
H80	H	0.768260	0.281996	-0.065599
H81	H	0.758956	0.286571	0.065533
C82	C	0.549158	0.049973	0.000018
H83	H	0.475223	0.052691	0.000015
H84	H	0.567511	0.032362	0.065582
H85	H	0.576799	0.027789	-0.065549
C86	C	1.517229	-0.298378	-0.000006
H87	H	1.504579	-0.258461	0.000006
H88	H	1.560475	-0.311089	-0.065566
H89	H	1.551168	-0.306529	0.065565
H90	H	1.387304	-0.686223	-0.000045
H91	H	1.057790	0.225631	0.518618
C92	C	1.416833	-0.570297	-0.000037
H93	H	1.472508	-0.597516	-0.000043
H94	H	1.416621	-0.544882	0.065521
H95	H	1.425920	-0.549451	-0.065610
H96	H	0.735872	0.024778	0.000022
C97	C	1.351483	0.081106	0.286973
H98	H	1.389974	0.062159	0.339159
H99	H	1.397667	0.102322	0.240792
H100	H	1.317713	0.053769	0.240825
C101	C	0.931626	-0.288103	-0.000069
H102	H	0.946010	-0.248660	-0.000072
H103	H	0.887949	-0.294891	0.065486
H104	H	0.897266	-0.299451	-0.065646
H105	H	1.046916	-0.572319	-0.000049
H106	H	1.401549	-0.031168	0.000039
C107	C	1.392193	0.061093	0.712975
H108	H	1.438081	0.038516	0.660780
H109	H	1.351905	0.036976	0.759156
H110	H	1.431848	0.085534	0.759122
H111	H	0.931927	0.037324	-0.000001
C112	C	1.094641	0.207506	0.713027
H113	H	1.099209	0.205264	0.791979
H114	H	1.026933	0.196878	0.693650
H115	H	1.106880	0.245434	0.693631
H116	H	1.487714	-0.414284	-0.000027
C117	C	1.426016	-0.148023	0.000012
H118	H	1.482829	-0.122774	0.000031
H119	H	1.434104	-0.173573	-0.065550
H120	H	1.424787	-0.169010	0.065582
H121	H	0.956069	-0.404960	-0.000076
H122	H	1.056465	-0.133059	0.000030
C123	C	1.032019	-0.016188	0.000011
H124	H	1.046419	0.023253	0.000005
H125	H	0.988335	-0.022970	0.065564
H126	H	0.997659	-0.027534	-0.065567
