data_functionalizedCrystal
_audit_creation_method	'MofGen! by Chris Wilmer'
_symmetry_space_group_name_H-M	'P1'
_symmetry_Int_Tables_number	1
_symmetry_cell_setting	triclinic
loop_
_symmetry_equiv_pos_as_xyz
  x,y,z
_cell_length_a	10.723024
_cell_length_b	14.421503
_cell_length_c	10.723024
_cell_angle_alpha	89.994498
_cell_angle_beta	95.532131
_cell_angle_gamma	89.991970
loop_
_atom_site_label
_atom_site_type_symbol
_atom_site_fract_x
_atom_site_fract_y
_atom_site_fract_z
O1	O	-1.657196	0.077117	0.175010
O2	O	-1.294044	0.077117	0.191763
O3	O	-1.483996	0.077113	0.001811
O4	O	-1.467243	0.077120	0.364963
O5	O	-1.483965	-0.077110	0.001839
O6	O	-1.294012	-0.077107	0.191792
O7	O	-1.657164	-0.077107	0.175038
Cu8	Cu	-1.475585	-0.091189	0.183418
Cu9	Cu	-1.475623	0.091198	0.183384
O10	O	-1.467212	-0.077103	0.364991
C11	C	-1.247528	0.000005	0.190558
C12	C	-1.108974	0.000005	0.186911
C13	C	-0.917217	0.000003	0.073603
C14	C	-1.060420	0.000003	0.077371
N15	N	-1.475568	-0.219470	0.183440
C16	C	-1.387718	-0.469122	0.271235
C17	C	-1.500687	-0.530924	0.296421
C18	C	-1.475598	-0.408631	0.183411
C19	C	-1.362659	-0.530923	0.158254
C20	C	-1.475617	-0.591353	0.183385
C21	C	-1.588625	-0.469073	0.208654
C22	C	-1.450522	-0.469066	0.070437
C23	C	-1.563572	-0.530840	0.095576
C24	C	-1.475586	-0.303370	0.183429
C25	C	-1.475643	-0.696612	0.183366
C26	C	-0.703680	0.000005	0.176243
C27	C	-0.842234	0.000005	0.179891
C28	C	-1.482762	0.000003	-0.044675
C29	C	-1.479114	0.000006	-0.183229
N30	N	-1.475650	0.219480	0.183352
C31	C	-1.585401	0.000007	-0.258212
C32	C	-1.581634	0.000010	-0.401415
C33	C	-1.468447	0.000009	0.411477
C34	C	-1.472094	0.000012	0.550031
H35	H	-1.521915	-0.558095	0.391949
N36	N	-0.894664	-0.000003	0.297563
N37	N	-0.870892	-0.065012	0.373246
H38	H	-0.907916	-0.065019	0.456357
N39	N	-1.141241	-0.000020	-0.036782
N40	N	-1.136095	-0.065036	-0.113197
H41	H	-1.193178	-0.065055	-0.193822
H42	H	-1.381099	0.000005	-0.385544
N43	N	-1.028180	-0.000004	0.301082
N44	N	-1.073766	-0.000007	0.404063
H45	H	-1.016698	-0.000014	0.484698
N46	N	-1.656921	-0.564616	0.002390
N47	N	-1.769597	-0.544592	0.008443
H48	H	-1.835528	-0.568446	-0.057366
H49	H	-1.313477	-0.442023	0.345565
H50	H	-1.684165	-0.442019	0.230034
H51	H	-1.429259	-0.441874	-0.025061
N52	N	-1.695787	0.000030	-0.482236
N53	N	-1.772230	0.065043	-0.477112
H54	H	-1.852855	0.065058	-0.534195
H55	H	-1.385328	0.000012	-0.225051
H56	H	-1.267140	-0.558094	0.136988
H57	H	-1.679187	0.000001	-0.216390
H58	H	-0.875395	-0.000013	-0.020182
