data_functionalizedCrystal
_audit_creation_method	'MofGen! by Chris Wilmer'
_symmetry_space_group_name_H-M	'P1'
_symmetry_Int_Tables_number	1
_symmetry_cell_setting	triclinic
loop_
_symmetry_equiv_pos_as_xyz
  x,y,z
_cell_length_a	19.121063
_cell_length_b	19.121102
_cell_length_c	19.120904
_cell_angle_alpha	90.088173
_cell_angle_beta	85.258387
_cell_angle_gamma	89.873098
loop_
_atom_site_label
_atom_site_type_symbol
_atom_site_fract_x
_atom_site_fract_y
_atom_site_fract_z
Zn1	Zn	-0.343506	-1.039579	0.456040
Zn2	Zn	0.156494	-0.539579	0.956040
Zn3	Zn	-0.456149	-1.039493	0.343386
Zn4	Zn	0.043851	-0.539493	0.843386
Zn5	Zn	-0.333518	-0.927792	0.333417
Zn6	Zn	0.166482	-0.427792	0.833417
Zn7	Zn	-0.455677	-0.917325	0.455570
Zn8	Zn	0.044323	-0.417325	0.955570
O9	O	-0.397212	-0.981047	0.397103
O10	O	0.102788	-0.481047	0.897103
O11	O	-0.362826	-1.137479	0.445465
O12	O	0.137174	-0.637479	0.945465
O13	O	-0.435899	-1.029020	0.243797
O14	O	0.064101	-0.529020	0.743797
O15	O	-0.236577	-0.947038	0.345708
O16	O	0.263423	-0.447038	0.845708
O17	O	-0.445584	-1.137415	0.362699
O18	O	0.054416	-0.637415	0.862699
O19	O	-0.243915	-1.029167	0.435798
O20	O	0.256085	-0.529167	0.935798
O21	O	-0.345802	-0.946954	0.236473
O22	O	0.154198	-0.446954	0.736473
O23	O	-0.345345	-0.828493	0.345252
O24	O	0.154655	-0.328493	0.845252
O25	O	-0.444780	-0.929198	0.553899
O26	O	0.055220	-0.429198	1.053899
O27	O	-0.435094	-0.820803	0.434997
O28	O	0.064906	-0.320803	0.934997
O29	O	-0.362368	-1.019018	0.554244
O30	O	0.137632	-0.519018	1.054244
O31	O	-0.554352	-1.018870	0.362243
O32	O	-0.054352	-0.518870	0.862243
O33	O	-0.554005	-0.929114	0.444664
O34	O	-0.054005	-0.429114	0.944664
C35	C	-0.389085	-0.799261	0.388992
C36	C	0.110915	-0.299261	0.888992
C37	C	-0.385626	-0.721490	0.385539
C38	C	0.114374	-0.221490	0.885539
C39	C	-0.579659	-0.972865	0.404501
C40	C	-0.079659	-0.472865	0.904501
C41	C	-0.657714	-0.969428	0.407691
C42	C	-0.157714	-0.469428	0.907691
C43	C	-0.404635	-0.972950	0.580263
C44	C	0.095365	-0.472950	1.080263
C45	C	-0.407799	-0.969500	0.658315
C46	C	0.092201	-0.469500	1.158315
C47	C	-0.694545	-1.014577	0.366317
C48	C	-0.194545	-0.514577	0.866317
C49	C	-0.767887	-1.011348	0.369323
C50	C	-0.267887	-0.511348	0.869323
C51	C	-0.804396	-0.962966	0.413699
C52	C	-0.304396	-0.462966	0.913699
C53	C	-0.767560	-0.917815	0.455078
C54	C	-0.267560	-0.417815	0.955078
C55	C	-0.694220	-0.921048	0.452076
C56	C	-0.194220	-0.421048	0.952076
C57	C	-1.025828	-0.950869	0.424912
C58	C	-0.525828	-0.450869	0.924912
C59	C	-1.099173	-0.947638	0.427909
C60	C	-0.599173	-0.447638	0.927909
C61	C	-1.099494	-1.041173	0.342155
C62	C	-0.599494	-0.541173	0.842155
C63	C	-1.026153	-1.044399	0.339154
C64	C	-0.526153	-0.544399	0.839154
C65	C	-0.989323	-0.999250	0.380535
C66	C	-0.489323	-0.499250	0.880535
C67	C	-0.879363	-0.959663	0.416770
C68	C	-0.379363	-0.459663	0.916770
C69	C	-0.914358	-1.002557	0.377467
C70	C	-0.414358	-0.502557	0.877467
C71	C	-0.214054	-0.989280	0.389693
C72	C	0.285946	-0.489280	0.889693
C73	C	-0.136003	-0.992788	0.386535
C74	C	0.363997	-0.492788	0.886535
C75	C	-0.405372	-1.163544	0.405246
C76	C	0.094628	-0.663544	0.905246
C77	C	-0.408849	-1.241313	0.408717
C78	C	0.091151	-0.741313	0.908717
C79	C	-0.430793	-0.680968	0.430575
C80	C	0.069207	-0.180968	0.930575
C81	C	-0.427534	-0.607894	0.427334
C82	C	0.072466	-0.107894	0.927334
C83	C	-0.379110	-0.575344	0.379053
C84	C	0.120890	-0.075344	0.879053
C85	C	-0.333937	-0.615872	0.334016
C86	C	0.166063	-0.115872	0.834016
C87	C	-0.337194	-0.688944	0.337261
C88	C	0.162806	-0.188944	0.837261
C89	C	-0.366933	-0.354913	0.366924
C90	C	0.133067	0.145087	0.866924
C91	C	-0.363681	-0.281835	0.363681
C92	C	0.136319	0.218165	0.863681
C93	C	-0.457277	-0.273863	0.457000
C94	C	0.042723	0.226137	0.957000
C95	C	-0.460532	-0.346937	0.460238
C96	C	0.039468	0.153063	0.960238
C97	C	-0.415357	-0.387458	0.415203
C98	C	0.084643	0.112542	0.915203
C99	C	-0.375778	-0.500651	0.375738
C100	C	0.124222	-0.000651	0.875738
C101	C	-0.418686	-0.462149	0.418523
C102	C	0.081314	0.037851	0.918523
C103	C	-0.389769	-0.989156	0.214655
C104	C	0.110231	-0.489156	0.714655
C105	C	-0.386414	-0.992751	0.136602
C106	C	0.113586	-0.492751	0.636602
C107	C	-0.366379	-1.014640	0.695165
C108	C	0.133621	-0.514640	1.195165
C109	C	-0.369348	-1.011390	0.768503
C110	C	0.130652	-0.511390	1.268503
C111	C	-0.413741	-0.963001	0.804990
C112	C	0.086259	-0.463001	1.304990
C113	C	-0.455162	-0.917856	0.768135
C114	C	0.044838	-0.417856	1.268135
C115	C	-0.452188	-0.921103	0.694798
C116	C	0.047812	-0.421103	1.194798
C117	C	-0.424862	-0.950853	1.026410
C118	C	0.075138	-0.450853	1.526410
C119	C	-0.427833	-0.947610	1.099752
C120	C	0.072167	-0.447610	1.599752
C121	C	-0.342019	-1.041143	1.100115
C122	C	0.157981	-0.541143	1.600115
C123	C	-0.339052	-1.044390	1.026777
C124	C	0.160948	-0.544390	1.526777
C125	C	-0.380470	-0.999242	0.989928
C126	C	0.119530	-0.499242	1.489928
C127	C	-0.416779	-0.959679	0.879953
C128	C	0.083221	-0.459679	1.379953
C129	C	-0.377429	-1.002561	0.914966
C130	C	0.122571	-0.502561	1.414966
H131	H	-0.664824	-1.053972	0.330178
H132	H	-0.164824	-0.553972	0.830178
H133	H	-0.464315	-0.574904	0.464006
H134	H	0.035685	-0.074904	0.964006
H135	H	-1.128897	-0.908248	0.464059
H136	H	-0.628897	-0.408248	0.964059
H137	H	-0.341281	-1.041956	0.885255
H138	H	0.158719	-0.541956	1.385255
Cl139	Cl	-0.491676	-0.721880	0.491270
Cl140	Cl	0.008324	-0.221880	0.991270
H141	H	-0.300410	-0.721937	0.300591
H142	H	0.199590	-0.221937	0.800591
Cl143	Cl	-0.317308	-1.068171	0.814828
Cl144	Cl	0.182692	-0.568171	1.314828
Cl145	Cl	-0.273056	-0.574952	0.273324
Cl146	Cl	0.226944	-0.074952	0.773324
Cl147	Cl	-0.283243	-1.105224	0.980913
Cl148	Cl	0.216757	-0.605224	1.480913
H149	H	-0.336353	-0.474141	0.336426
H150	H	0.163647	0.025859	0.836426
Cl151	Cl	-0.476931	-0.894095	0.980095
Cl152	Cl	0.023069	-0.394095	1.480095
H153	H	-0.491305	-0.878454	0.797848
H154	H	0.008695	-0.378454	1.297848
H155	H	-0.324240	-0.255336	0.324369
H156	H	0.175760	0.244664	0.824369
H157	H	-0.308298	-1.077899	1.130125
H158	H	0.191702	-0.577899	1.630125
Cl159	Cl	-0.310139	-0.405844	0.310310
Cl160	Cl	0.189861	0.094156	0.810310
H161	H	-0.330232	-1.054046	0.665463
H162	H	0.169768	-0.554046	1.165463
H163	H	-0.463985	-0.908204	1.129457
H164	H	0.036015	-0.408204	1.629457
H165	H	-0.494055	-0.240863	0.493666
H166	H	0.005945	0.259137	0.993666
Cl167	Cl	-0.479560	-0.503070	0.479216
Cl168	Cl	0.020440	-0.003070	0.979216
H169	H	-0.499966	-0.373433	0.499552
H170	H	0.000034	0.126567	0.999552
Cl171	Cl	-0.814186	-1.068113	0.317309
Cl172	Cl	-0.314186	-0.568113	0.817309
Cl173	Cl	-0.813458	-0.856995	0.510870
Cl174	Cl	-0.313458	-0.356995	1.010870
Cl175	Cl	-0.504258	-0.864350	0.648472
Cl176	Cl	-0.004258	-0.364350	1.148472
Cl177	Cl	-0.980262	-1.105234	0.283375
Cl178	Cl	-0.480262	-0.605234	0.783375
Cl179	Cl	-0.472588	-0.898852	0.925828
Cl180	Cl	0.027412	-0.398852	1.425828
Cl181	Cl	-1.145798	-1.097932	0.290141
Cl182	Cl	-0.645798	-0.597932	0.790141
H183	H	-0.995847	-0.914106	0.458605
H184	H	-0.495847	-0.414106	0.958605
Cl185	Cl	-0.647918	-0.864288	0.504093
Cl186	Cl	-0.147918	-0.364288	1.004093
H187	H	-0.884631	-1.041952	0.341339
H188	H	-0.384631	-0.541952	0.841339
H189	H	-0.909097	-0.920269	0.452900
H190	H	-0.409097	-0.420269	0.952900
