data_functionalizedCrystal
_audit_creation_method	'MofGen! by Chris Wilmer'
_symmetry_space_group_name_H-M	'P1'
_symmetry_Int_Tables_number	1
_symmetry_cell_setting	triclinic
loop_
_symmetry_equiv_pos_as_xyz
  x,y,z
_cell_length_a	14.446369
_cell_length_b	14.446369
_cell_length_c	14.446369
_cell_angle_alpha	60.003968
_cell_angle_beta	90.002026
_cell_angle_gamma	59.996157
loop_
_atom_site_label
_atom_site_type_symbol
_atom_site_fract_x
_atom_site_fract_y
_atom_site_fract_z
Zr1	Zr	0.891727	1.013183	-0.121429
O2	O	0.743910	1.206302	-0.269233
O3	O	0.937047	0.820065	-0.076120
O4	O	0.937039	1.013173	-0.269228
O5	O	0.743917	1.013202	0.076204
O6	O	1.089376	1.013164	-0.269223
O7	O	0.743918	1.013194	-0.076125
O8	O	1.089390	0.667729	0.076212
O9	O	0.743903	1.358637	-0.269232
O10	O	1.070056	0.899491	-0.056791
O11	O	0.956368	0.899504	0.056886
O12	O	0.956359	1.126863	-0.170474
O13	O	0.842671	1.126876	-0.056797
Zr14	Zr	1.134687	1.013183	0.121527
Zr15	Zr	1.134687	1.013170	-0.121420
Zr16	Zr	0.891727	1.013197	0.121518
Zr17	Zr	0.891717	1.256141	-0.121426
Zr18	Zr	1.134697	0.770226	0.121524
O19	O	1.089367	1.206302	0.076218
O20	O	1.089368	1.206283	-0.269221
O21	O	0.743909	1.206321	0.076206
O22	O	1.282504	0.820065	0.269331
O23	O	1.282505	0.820046	-0.076108
O24	O	0.937046	0.820084	0.269319
O25	O	1.282497	1.013164	-0.076105
O26	O	1.089375	1.013194	0.269327
O27	O	0.937038	1.013202	0.269321
O28	O	1.282496	1.013173	0.076223
O29	O	0.937024	1.358627	-0.269224
O30	O	1.089390	0.667740	0.269323
O31	O	1.282511	0.667729	0.269330
O32	O	1.282511	0.667719	0.076219
O33	O	0.743903	1.358648	-0.076121
O34	O	0.937024	1.358637	-0.076114
O35	O	1.070055	0.899504	0.170572
O36	O	1.183743	0.899491	0.056895
O37	O	1.070046	1.126863	-0.056788
O38	O	0.956358	1.126876	0.056889
C39	C	1.013220	0.709281	0.000046
C40	C	1.013225	0.606139	0.000044
C41	C	1.084562	0.459815	-0.072002
C42	C	1.084966	0.566740	-0.071695
C43	C	1.065530	0.479286	0.123570
C44	C	1.066050	0.371907	0.123180
C45	C	0.889482	0.546882	-0.050422
C46	C	0.889680	0.655355	-0.052926
C47	C	0.709301	1.013200	0.000038
C48	C	0.606158	1.013206	0.000034
C49	C	0.387783	1.156594	-0.071304
C50	C	0.495015	1.156691	-0.071705
C51	C	0.602838	0.941971	-0.052265
C52	C	0.495069	0.942882	-0.052788
C53	C	0.496432	0.939938	0.123762
C54	C	0.602401	0.942641	0.123568
C55	C	1.317113	1.013167	0.000060
C56	C	1.420256	1.013161	0.000064
C57	C	1.013207	1.013167	-0.303840
C58	C	1.013208	1.013161	-0.406978
C59	C	1.013194	1.317086	0.000053
C60	C	1.013189	1.420228	0.000054
C61	C	1.085273	0.869772	-0.481959
C62	C	1.084961	0.869676	-0.374630
C63	C	0.889674	1.084395	-0.481541
C64	C	0.890069	1.083485	-0.588400
C65	C	1.063677	1.086429	-0.589967
C66	C	1.066176	1.083726	-0.481296
C67	C	1.013207	1.013200	0.303938
C68	C	1.013206	1.013206	0.407076
C69	C	1.317126	0.709264	0.000057
C70	C	1.420274	0.606117	0.000059
C71	C	1.013220	0.709298	0.303935
C72	C	1.013224	0.606161	0.407071
C73	C	1.317126	0.709281	0.303946
C74	C	1.420273	0.606139	0.407086
C75	C	0.709288	1.317086	-0.303848
C76	C	0.606141	1.420228	-0.406988
C77	C	0.709288	1.317103	0.000041
C78	C	0.606140	1.420250	0.000039
C79	C	1.013194	1.317069	-0.303837
C80	C	1.013190	1.420205	-0.406973
C81	C	1.638649	0.459796	0.071390
C82	C	1.531412	0.566724	0.071798
C83	C	1.423607	0.479261	0.052354
C84	C	1.531381	0.371878	0.052870
C85	C	1.530000	0.546847	-0.123679
C86	C	1.424027	0.655325	-0.123477
C87	C	0.941181	0.459851	0.482049
C88	C	0.941481	0.566772	0.374722
C89	C	1.136762	0.479302	0.481628
C90	C	1.136380	0.371927	0.588485
C91	C	0.962765	0.546909	0.590067
C92	C	0.960253	0.655379	0.481397
C93	C	1.495266	0.459805	0.625444
C94	C	1.387927	0.566749	0.518215
C95	C	1.494822	0.479286	0.410398
C96	C	1.601691	0.371889	0.518164
C97	C	1.603298	0.546833	0.516827
C98	C	1.494616	0.655325	0.410861
H99	H	0.493253	1.212865	-0.036897
C100	C	0.811790	0.698761	0.010598
H101	H	0.737763	0.727995	-0.023207
H102	H	0.840965	0.626982	0.087747
H103	H	0.808576	0.768105	0.006431
C104	C	1.711557	0.510077	0.024266
H105	H	1.730243	0.533460	0.068510
H106	H	1.779157	0.443213	0.027342
H107	H	1.670245	0.584594	-0.052127
C108	C	0.835495	1.015103	-0.588047
H109	H	0.835249	1.013950	-0.653224
H110	H	0.877754	0.927852	-0.521717
H111	H	0.759796	1.061339	-0.589000
C112	C	0.836890	0.777583	-0.175872
H113	H	0.762166	0.806878	-0.207455
H114	H	0.834336	0.844937	-0.176581
H115	H	0.881600	0.756325	-0.219437
C116	C	1.317491	0.697792	-0.201143
H117	H	1.269066	0.686123	-0.159082
H118	H	1.278464	0.787349	-0.262666
H119	H	1.339338	0.645797	-0.229513
H120	H	0.681110	0.836471	-0.002786
C121	C	1.207098	0.338688	-0.025150
H122	H	1.214952	0.264096	0.038136
H123	H	1.223948	0.324754	-0.082441
H124	H	1.257992	0.352480	-0.002218
C125	C	0.313524	1.232264	-0.193836
H126	H	0.302227	1.176823	-0.201690
H127	H	0.242292	1.306416	-0.210701
H128	H	0.350261	1.260213	-0.244714
H129	H	1.601413	0.281143	0.568493
C130	C	1.533584	0.687424	0.024436
H131	H	1.467899	0.753085	0.024623
H132	H	1.599403	0.663205	0.070399
H133	H	1.534777	0.720457	-0.050944
H134	H	1.345339	0.501509	0.002876
H135	H	1.504729	0.341923	0.004242
C136	C	1.707853	0.331387	0.482171
H137	H	1.685536	0.380575	0.401813
H138	H	1.753845	0.347847	0.509273
H139	H	1.749661	0.240742	0.513208
C140	C	0.491709	1.232655	-0.194971
H141	H	0.424755	1.263564	-0.244997
H142	H	0.492109	1.304862	-0.211472
H143	H	0.556223	1.176387	-0.204499
C144	C	0.427045	1.011270	-0.175753
H145	H	0.465401	1.038242	-0.224918
H146	H	0.419986	0.952153	-0.181345
H147	H	0.353781	1.085633	-0.196865
C148	C	1.420733	0.427168	0.174156
H149	H	1.417508	0.482527	0.193323
H150	H	1.355762	0.425885	0.179036
H151	H	1.487176	0.340956	0.225259
H152	H	1.050588	0.813761	-0.480927
H153	H	0.446406	0.985835	0.167452
C154	C	1.037656	0.793715	-0.301978
H155	H	1.018544	0.762807	-0.338025
H156	H	1.093360	0.721508	-0.229366
H157	H	0.971855	0.849986	-0.293739
H158	H	0.601881	0.994580	0.162638
H159	H	1.520141	0.687446	0.331711
C160	C	1.425104	0.427206	0.407507
H161	H	1.470957	0.350426	0.409540
H162	H	1.400028	0.407064	0.471293
H163	H	1.361321	0.492000	0.339889
H164	H	1.049892	0.656083	-0.162656
C165	C	1.023701	0.698914	0.515780
H166	H	0.989870	0.728191	0.560539
H167	H	1.100880	0.627206	0.558382
H168	H	1.019457	0.768266	0.449593
H169	H	0.521727	0.837647	-0.004168
H170	H	1.607426	0.586390	0.566855
C171	C	1.212449	0.509346	0.518412
H172	H	1.169276	0.599741	0.488550
H173	H	1.240521	0.458648	0.598816
H174	H	1.274236	0.488204	0.490538
C175	C	0.605707	1.008803	-0.174068
H176	H	0.608923	1.080106	-0.193233
H177	H	0.670680	0.947429	-0.178954
H178	H	0.539265	1.040133	-0.225169
C179	C	0.834702	1.017566	-0.411844
H180	H	0.886840	0.946263	-0.337321
H181	H	0.768438	1.078940	-0.408250
H182	H	0.814935	0.986235	-0.446956
H183	H	1.580016	0.586414	-0.167366
H184	H	1.522059	0.501530	0.332139
C185	C	0.993100	1.229173	-0.695618
H186	H	0.933177	1.244126	-0.741336
H187	H	0.962379	1.286733	-0.672786
H188	H	1.040201	1.244712	-0.737922
H189	H	0.681564	0.837959	0.181216
H190	H	1.333661	0.656096	0.519839
H191	H	0.523876	0.834278	0.177189
C192	C	1.208478	0.793706	-0.478795
H193	H	1.217073	0.848734	-0.545120
H194	H	1.258414	0.766231	-0.413713
H195	H	1.225950	0.719230	-0.475624
H196	H	1.443215	0.745785	0.411428
H197	H	0.333824	1.212890	-0.036401
C198	C	0.841735	0.600383	0.595624
H199	H	0.812840	0.676793	0.593738
H200	H	0.794431	0.621460	0.532644
H201	H	0.843272	0.535879	0.663935
C202	C	1.424694	0.777583	-0.176267
H203	H	1.422689	0.798565	-0.123254
H204	H	1.491625	0.760543	-0.195440
H205	H	1.360153	0.849085	-0.242671
C206	C	1.208240	0.516130	-0.024383
H207	H	1.208910	0.581385	-0.024040
H208	H	1.242445	0.439207	0.050779
H209	H	1.249419	0.496592	-0.070713
C210	C	0.813573	1.225640	-0.694557
H211	H	0.782387	1.283689	-0.672244
H212	H	0.857139	1.244532	-0.740537
H213	H	0.753975	1.236400	-0.736368
H214	H	1.176792	0.281172	0.588211
C215	C	1.534719	0.516118	0.195066
H216	H	1.601677	0.430048	0.245087
H217	H	1.534312	0.572224	0.211573
H218	H	1.470209	0.514835	0.204591
C219	C	0.988785	0.516165	0.302055
H220	H	0.989120	0.581419	0.236131
H221	H	1.063954	0.439238	0.344774
H222	H	0.942447	0.496637	0.280412
H223	H	0.836055	0.522097	0.001811
H224	H	1.049654	0.497055	-0.163197
H225	H	1.502553	0.522056	-0.177105
C226	C	1.184713	1.024412	-0.595509
H227	H	1.205600	0.953274	-0.599678
H228	H	1.187202	1.088099	-0.660767
H229	H	1.236017	0.993567	-0.529476
H230	H	0.833647	1.189896	-0.508773
H231	H	1.177455	0.440740	0.430022
H232	H	1.175928	0.813787	-0.320354
H233	H	1.157191	1.031776	-0.429875
C234	C	1.189023	0.249304	0.177757
H235	H	1.238193	0.265464	0.199953
H236	H	1.194616	0.177538	0.242461
H237	H	1.210135	0.229290	0.124511
H238	H	1.155699	0.440725	0.164263
H239	H	1.019143	1.188405	-0.506811
H240	H	1.693639	0.370130	0.162086
H241	H	1.581732	0.281125	0.143894
H242	H	0.850512	0.656124	0.320452
C243	C	0.817986	0.510127	0.478901
H244	H	0.809393	0.507418	0.545233
H245	H	0.768029	0.597668	0.413825
H246	H	0.800539	0.456278	0.475731
C247	C	0.837307	0.777634	0.411936
H248	H	0.818329	0.798609	0.337945
H249	H	0.787422	0.760590	0.448150
H250	H	0.830329	0.849141	0.406837
C251	C	0.988048	0.338729	0.480635
H252	H	1.051345	0.264136	0.547375
H253	H	0.930761	0.324792	0.477712
H254	H	1.010977	0.352530	0.415949
H255	H	1.192992	0.341972	0.667066
C256	C	0.830456	0.600342	-0.171445
H257	H	0.880713	0.545912	-0.192323
H258	H	0.764276	0.601258	-0.173930
H259	H	0.809989	0.686833	-0.222753
C260	C	1.033325	0.513426	0.695730
H261	H	1.093251	0.422736	0.741448
H262	H	1.064043	0.563093	0.672917
H263	H	0.986212	0.533764	0.738028
H264	H	1.492939	0.497033	0.679410
H265	H	1.494225	0.370148	0.680412
H266	H	1.017423	0.341957	0.179785
H267	H	1.016050	0.501538	0.179587
H268	H	1.334128	0.529302	0.520658
H269	H	1.681519	0.522031	0.489385
