data_functionalizedCrystal
_audit_creation_method	'MofGen! by Chris Wilmer'
_symmetry_space_group_name_H-M	'P1'
_symmetry_Int_Tables_number	1
_symmetry_cell_setting	triclinic
loop_
_symmetry_equiv_pos_as_xyz
  x,y,z
_cell_length_a	14.044220
_cell_length_b	14.044220
_cell_length_c	13.101039
_cell_angle_alpha	93.667477
_cell_angle_beta	86.340132
_cell_angle_gamma	93.188878
loop_
_atom_site_label
_atom_site_type_symbol
_atom_site_fract_x
_atom_site_fract_y
_atom_site_fract_z
O1	O	1.281968	0.225348	-0.085109
O2	O	1.615302	0.558682	0.248224
O3	O	1.948635	0.892015	0.581558
O4	O	1.005298	0.217041	-0.085135
O5	O	1.338632	0.550374	0.248198
O6	O	1.671965	0.883708	0.581532
O7	O	1.139480	0.082860	-0.085112
O8	O	1.472813	0.416193	0.248221
O9	O	1.806147	0.749526	0.581554
O10	O	1.147787	0.359530	-0.085132
O11	O	1.481120	0.692863	0.248202
O12	O	1.814454	1.026197	0.581535
O13	O	1.129854	0.092504	0.085316
O14	O	1.463188	0.425838	0.418649
O15	O	1.796521	0.759171	0.751983
O16	O	0.995673	0.226686	0.085293
O17	O	1.329006	0.560019	0.418627
O18	O	1.662339	0.893353	0.751960
O19	O	1.272343	0.234993	0.085319
O20	O	1.605676	0.568326	0.418652
O21	O	1.939009	0.901660	0.751986
Zn22	Zn	1.132479	0.232371	0.112365
Zn23	Zn	1.465813	0.565704	0.445699
Zn24	Zn	1.799146	0.899037	0.779032
Zn25	Zn	1.145162	0.219663	-0.112181
Zn26	Zn	1.478495	0.552997	0.221152
Zn27	Zn	1.811828	0.886330	0.554485
O28	O	1.138161	0.369175	0.085296
O29	O	1.471494	0.702508	0.418630
O30	O	1.804828	1.035841	0.751963
C31	C	0.964864	0.218228	0.000076
C32	C	1.298197	0.551561	0.333409
C33	C	1.631531	0.884894	0.666743
C34	C	0.858722	0.207383	0.000066
C35	C	1.192055	0.540716	0.333400
C36	C	1.525388	0.874049	0.666733
C37	C	0.664383	0.187558	0.000088
C38	C	0.997716	0.520891	0.333421
C39	C	1.331049	0.854224	0.666755
C40	C	0.613253	0.264472	0.000087
C41	C	0.946586	0.597805	0.333420
C42	C	1.279920	0.931139	0.666754
C43	C	0.505116	0.253441	0.000099
C44	C	0.838449	0.586774	0.333432
C45	C	1.171783	0.920108	0.666766
C46	C	0.772529	0.198587	0.000076
C47	C	1.105863	0.531920	0.333409
C48	C	1.439196	0.865254	0.666743
C49	C	1.131031	0.052060	0.000102
C50	C	1.464365	0.385393	0.333435
C51	C	1.797698	0.718727	0.666769
C52	C	1.120187	-0.054083	0.000102
C53	C	1.453520	0.279251	0.333435
C54	C	1.786854	0.612584	0.666769
C55	C	1.100362	-0.248421	0.000086
C56	C	1.433695	0.084912	0.333419
C57	C	1.767028	0.418245	0.666752
C58	C	1.177276	-0.299551	0.000090
C59	C	1.510609	0.033782	0.333423
C60	C	1.843942	0.367116	0.666756
C61	C	1.166245	-0.407688	0.000080
C62	C	1.499578	-0.074354	0.333414
C63	C	1.832911	0.258979	0.666747
C64	C	1.111391	-0.140275	0.000095
C65	C	1.444725	0.193059	0.333428
C66	C	1.778058	0.526392	0.666761
C67	C	1.312777	0.233806	0.000106
C68	C	1.646111	0.567140	0.333439
C69	C	1.979444	0.900473	0.666773
C70	C	1.418920	0.244651	0.000109
C71	C	1.752253	0.577984	0.333442
C72	C	2.085587	0.911318	0.666775
C73	C	1.146610	0.399974	0.000080
C74	C	1.479943	0.733307	0.333413
C75	C	1.813276	1.066641	0.666747
C76	C	1.157455	0.506116	0.000073
C77	C	1.490788	0.839450	0.333406
C78	C	1.824121	1.172783	0.666740
N79	N	1.123831	0.241043	0.265612
N80	N	1.457164	0.574377	0.598946
N81	N	1.790497	0.907710	0.932279
N82	N	1.153817	0.210984	-0.265428
N83	N	1.487151	0.544317	0.067905
N84	N	1.820484	0.877651	0.401238
C85	C	1.112065	0.252851	0.474653
C86	C	1.445398	0.586185	0.807986
C87	C	1.778731	0.919518	1.141320
C88	C	1.165580	0.199179	0.525538
C89	C	1.498914	0.532512	0.858871
C90	C	1.832247	0.865846	1.192204
C91	C	1.159034	0.205749	0.641855
C92	C	1.492367	0.539082	0.975188
C93	C	1.825700	0.872416	1.308522
C94	C	1.118610	0.246282	0.358325
C95	C	1.451944	0.579616	0.691658
C96	C	1.785277	0.912949	1.024992
H97	H	0.650693	0.338605	0.000077
H98	H	0.984026	0.671938	0.333410
H99	H	1.317359	1.005271	0.666744
O100	O	1.265759	-0.254992	0.000248
O101	O	1.599093	0.078341	0.333581
O102	O	1.932426	0.411675	0.666914
C103	C	1.310635	-0.276729	0.088536
C104	C	1.643968	0.056604	0.421869
C105	C	1.977301	0.389937	0.755202
H106	H	1.277225	-0.346380	0.117948
H107	H	1.610559	-0.013047	0.451281
H108	H	1.943892	0.320286	0.784614
H109	H	1.390112	-0.284818	0.068702
H110	H	1.723445	0.048515	0.402036
H111	H	2.056778	0.381848	0.735369
H112	H	1.300856	-0.216569	0.150348
H113	H	1.634189	0.116765	0.483681
H114	H	1.967522	0.450098	0.817015
O115	O	0.619578	0.099188	0.000047
O116	O	0.952911	0.432522	0.333380
O117	O	1.286245	0.765855	0.666714
C118	C	0.520019	0.107712	0.000080
C119	C	0.853352	0.441045	0.333413
C120	C	1.186685	0.774378	0.666747
H121	H	0.504877	0.178451	-0.032181
H122	H	0.838210	0.511784	0.301152
H123	H	1.171544	0.845118	0.634486
H124	H	0.487380	0.046166	-0.049400
H125	H	0.820714	0.379499	0.283934
H126	H	1.154047	0.712833	0.617267
H127	H	0.487292	0.105409	0.081845
H128	H	0.820626	0.438742	0.415178
H129	H	1.153959	0.772075	0.748512
H130	H	1.061336	0.303733	0.518442
H131	H	1.394669	0.637066	0.851775
H132	H	1.728002	0.970400	1.185108
H133	H	1.026235	-0.285859	0.000076
H134	H	1.359568	0.047475	0.333410
H135	H	1.692901	0.380808	0.666743
O136	O	1.225901	0.138367	0.473143
O137	O	1.559235	0.471701	0.806476
O138	O	1.892568	0.805034	1.139809
C139	C	1.218941	0.145105	0.366987
C140	C	1.552274	0.478438	0.700320
C141	C	1.885607	0.811772	1.033653
H142	H	1.190856	0.217315	0.352388
H143	H	1.524190	0.550649	0.685721
H144	H	1.857523	0.883982	1.019055
H145	H	1.292507	0.137923	0.326018
H146	H	1.625841	0.471256	0.659351
H147	H	1.959174	0.804589	0.992685
H148	H	1.167832	0.085527	0.336714
H149	H	1.501165	0.418860	0.670047
H150	H	1.834498	0.752194	1.003381
