data_functionalizedCrystal
_audit_creation_method	'MofGen! by Chris Wilmer'
_symmetry_space_group_name_H-M	'P1'
_symmetry_Int_Tables_number	1
_symmetry_cell_setting	triclinic
loop_
_symmetry_equiv_pos_as_xyz
  x,y,z
_cell_length_a	16.120530
_cell_length_b	29.839131
_cell_length_c	16.120297
_cell_angle_alpha	92.867727
_cell_angle_beta	90.128140
_cell_angle_gamma	87.136742
loop_
_atom_site_label
_atom_site_type_symbol
_atom_site_fract_x
_atom_site_fract_y
_atom_site_fract_z
Zn1	Zn	1.247310	-0.227600	-0.534529
Zn2	Zn	1.254220	-0.299116	-0.395460
Zn3	Zn	1.115305	-0.220008	-0.388448
Zn4	Zn	1.108176	-0.298702	-0.527429
O5	O	1.181253	-0.261356	-0.461466
O6	O	1.364591	-0.240437	-0.521987
O7	O	1.241667	-0.285618	-0.278165
O8	O	1.132907	-0.158152	-0.407863
O9	O	1.369668	-0.292979	-0.419813
O10	O	1.229891	-0.163729	-0.515187
O11	O	1.139607	-0.227498	-0.273013
O12	O	0.997995	-0.227097	-0.400978
O13	O	1.120758	-0.292274	-0.644736
O14	O	0.992758	-0.284913	-0.503087
O15	O	1.222979	-0.240035	-0.649952
O16	O	1.234755	-0.361925	-0.412929
O17	O	1.127458	-0.361621	-0.509886
C18	C	0.965204	-0.255137	-0.450502
C19	C	0.872777	-0.252487	-0.445831
C20	C	0.703550	-0.247640	-0.437311
C21	C	0.659793	-0.275108	-0.485683
C22	C	0.565629	-0.272411	-0.480942
C23	C	0.797722	-0.250336	-0.442050
C24	C	1.181105	-0.378074	-0.461418
C25	C	1.181116	-0.428009	-0.461428
C26	C	1.237215	-0.737807	-0.411063
C27	C	1.237316	-0.925484	-0.411101
O28	O	1.284896	-0.949877	-0.368241
N29	N	1.181422	-0.948805	-0.461538
C30	C	1.125502	-0.925204	-0.511973
O31	O	1.077969	-0.949347	-0.554880
C32	C	1.125406	-0.737528	-0.511940
C33	C	1.181298	-0.714210	-0.461493
C34	C	1.293104	-0.714488	-0.360622
C35	C	1.293075	-0.667572	-0.360609
C36	C	1.237158	-0.643974	-0.411039
C37	C	1.181269	-0.667293	-0.461481
C38	C	1.069491	-0.713929	-0.562379
C39	C	1.069473	-0.667007	-0.562367
C40	C	1.125365	-0.643688	-0.511921
C41	C	1.125323	-0.596779	-0.511898
N42	N	1.181217	-0.573458	-0.461461
C43	C	1.237135	-0.597055	-0.411031
C44	C	1.125556	-1.023737	-0.511986
C45	C	1.125579	-1.070655	-0.511994
C46	C	1.237394	-1.070932	-0.411122
C47	C	1.237366	-1.024012	-0.411111
C48	C	1.181450	-1.000416	-0.461549
C49	C	1.237069	-0.498527	-0.411009
C50	C	1.237033	-0.451606	-0.410999
C51	C	1.125221	-0.451334	-0.511873
C52	C	1.125254	-0.498251	-0.511880
C53	C	1.181185	-0.521846	-0.461446
O54	O	1.077774	-0.572358	-0.554742
O55	O	1.284673	-0.572905	-0.368145
C56	C	1.237244	-0.784724	-0.411076
C57	C	1.181356	-0.808043	-0.461517
C58	C	1.125439	-0.784445	-0.511947
C59	C	1.181379	-0.854961	-0.461525
C60	C	1.237296	-0.878559	-0.411095
C61	C	1.293190	-0.855238	-0.360658
C62	C	1.293161	-0.808322	-0.360646
C63	C	1.069544	-0.807766	-0.562384
C64	C	1.069577	-0.854683	-0.562391
C65	C	1.125494	-0.878280	-0.511962
C66	C	1.398145	-0.267601	-0.472474
C67	C	1.490571	-0.270262	-0.477165
C68	C	1.170302	-0.266955	-0.678360
C69	C	1.165636	-0.269341	-0.770787
C70	C	1.181423	-0.144185	-0.461535
C71	C	1.181496	-0.094253	-0.461564
C72	C	1.157086	-0.273687	-0.940011
C73	C	1.205584	-0.248896	-0.983782
C74	C	1.200826	-0.251314	-1.077944
C75	C	1.161842	-0.271269	-0.845840
C76	C	1.192208	-0.255748	-0.245419
C77	C	1.197036	-0.253240	-0.153001
H78	H	0.670294	-0.222100	-0.392340
O79	O	1.070796	-0.428423	-0.560772
C80	C	0.988853	-0.437088	-0.538361
H81	H	0.988051	-0.448166	-0.471718
H82	H	0.964850	-0.464850	-0.581831
C83	C	0.933835	-0.380482	-0.627034
C84	C	0.932849	-0.394085	-0.545180
H85	H	0.899287	-0.353956	-0.631243
H86	H	0.989041	-0.374645	-0.642135
H87	H	0.913834	-0.403620	-0.663249
H88	H	0.952859	-0.370949	-0.508967
H89	H	0.877644	-0.399917	-0.530072
H90	H	1.282547	-0.432622	-0.369916
O91	O	1.259491	-0.221440	-0.944219
C92	C	1.341310	-0.234183	-0.969561
H93	H	1.339890	-0.253086	-1.032738
H94	H	1.371696	-0.256860	-0.922118
C95	C	1.393301	-0.168720	-0.898396
C96	C	1.391557	-0.191934	-0.975994
H97	H	1.424298	-0.142660	-0.902361
H98	H	1.338179	-0.160135	-0.881320
H99	H	1.418621	-0.187622	-0.858868
H100	H	1.366229	-0.173034	-1.015518
H101	H	1.446677	-0.200515	-0.993077
O102	O	0.699595	-0.305569	-0.539264
C103	C	0.786114	-0.301511	-0.532138
H104	H	0.801111	-0.285417	-0.468597
H105	H	0.808315	-0.279599	-0.582764
C106	C	0.811955	-0.368187	-0.619845
C107	C	0.830375	-0.348423	-0.541799
H108	H	0.839259	-0.397123	-0.625808
H109	H	0.753666	-0.370920	-0.624648
H110	H	0.830457	-0.349922	-0.662025
H111	H	0.811864	-0.366684	-0.499621
H112	H	0.888663	-0.345694	-0.536989
O113	O	1.291427	-0.521373	-0.361938
C114	C	1.340756	-0.490723	-0.317434
H115	H	1.306818	-0.456245	-0.312802
H116	H	1.402345	-0.488292	-0.351136
C117	C	1.398972	-0.549447	-0.235242
C118	C	1.357286	-0.507101	-0.229546
H119	H	1.409172	-0.559550	-0.181030
H120	H	1.365741	-0.570097	-0.265227
H121	H	1.450291	-0.547415	-0.263330
H122	H	1.305964	-0.509134	-0.201468
H123	H	1.390509	-0.486452	-0.199555
H124	H	1.338674	-0.789339	-0.319568
H125	H	1.111997	-0.296725	-0.973252
H126	H	1.338589	-0.648588	-0.319534
O127	O	1.347455	-0.737336	-0.311551
C128	C	1.396785	-0.706685	-0.267052
H129	H	1.362849	-0.672206	-0.262426
H130	H	1.458374	-0.704257	-0.300754
C131	C	1.454995	-0.765405	-0.184848
C132	C	1.413312	-0.723059	-0.179161
H133	H	1.465194	-0.775505	-0.130633
H134	H	1.421764	-0.786056	-0.214829
H135	H	1.506315	-0.763376	-0.212936
H136	H	1.361989	-0.725089	-0.151082
H137	H	1.446536	-0.702408	-0.149172
H138	H	1.282924	-1.090153	-0.370061
O139	O	1.291742	-1.001433	-0.362088
C140	C	1.341079	-1.032327	-0.317564
H141	H	1.342222	-1.066725	-0.351780
H142	H	1.313868	-1.034841	-0.252844
C143	C	1.428782	-0.973965	-0.268110
C144	C	1.430192	-1.016212	-0.310138
H145	H	1.483750	-0.964024	-0.263525
H146	H	1.395541	-0.953151	-0.298103
H147	H	1.406102	-0.976066	-0.214181
H148	H	1.452861	-1.014110	-0.364069
H149	H	1.463438	-1.037026	-0.280153
H150	H	1.080058	-1.089637	-0.553064
O151	O	1.071148	-1.000886	-0.561001
C152	C	1.021838	-1.031537	-0.605526
H153	H	1.020737	-1.064027	-0.571318
H154	H	1.049045	-1.039004	-0.670251
C155	C	0.934063	-0.971136	-0.654951
C156	C	0.932704	-1.011040	-0.612933
H157	H	0.879081	-0.958492	-0.659524
H158	H	0.967285	-0.950485	-0.624956
H159	H	0.956739	-0.977364	-0.708884
H160	H	0.910039	-1.004811	-0.558997
H161	H	0.899476	-1.031689	-0.642918
H162	H	1.338718	-0.874459	-0.319594
H163	H	1.023973	-0.732907	-0.603454
H164	H	1.079744	-0.517238	-0.552961
O165	O	1.015076	-0.644154	-0.611390
C166	C	0.965772	-0.674802	-0.655930
H167	H	0.964657	-0.707293	-0.621726
H168	H	0.992994	-0.682269	-0.720649
C169	C	0.878018	-0.614397	-0.705371
C170	C	0.876643	-0.654302	-0.663357
H171	H	0.823040	-0.601751	-0.709957
H172	H	0.911237	-0.593748	-0.675366
H173	H	0.900707	-0.620625	-0.759299
H174	H	0.853964	-0.648072	-0.609427
H175	H	0.843418	-0.674949	-0.693353
O176	O	1.015247	-0.877264	-0.611475
C177	C	0.965879	-0.846368	-0.655965
H178	H	0.999773	-0.813957	-0.660580
H179	H	0.904283	-0.838819	-0.622262
C180	C	0.907744	-0.906406	-0.738188
C181	C	0.949376	-0.866600	-0.743862
H182	H	0.897560	-0.918886	-0.792406
H183	H	0.941001	-0.927222	-0.708213
H184	H	0.856419	-0.900110	-0.710099
H185	H	1.000705	-0.872897	-0.771941
H186	H	0.916127	-0.845786	-0.773845
H187	H	1.024011	-0.788557	-0.603451
