data_functionalizedCrystal
_audit_creation_method	'MofGen! by Chris Wilmer'
_symmetry_space_group_name_H-M	'P1'
_symmetry_Int_Tables_number	1
_symmetry_cell_setting	triclinic
loop_
_symmetry_equiv_pos_as_xyz
  x,y,z
_cell_length_a	6.817900
_cell_length_b	10.992421
_cell_length_c	17.110486
_cell_angle_alpha	95.147452
_cell_angle_beta	99.060439
_cell_angle_gamma	108.764763
loop_
_atom_site_label
_atom_site_type_symbol
_atom_site_fract_x
_atom_site_fract_y
_atom_site_fract_z
V1	V	-4.003796	-0.177378	-0.246709
O2	O	-3.964021	0.008917	-0.242024
O3	O	-3.982135	-0.352090	-0.245011
O4	O	-3.933214	-0.174477	-0.354313
O5	O	-4.013281	-0.169925	-0.131966
V6	V	-4.486833	-0.155115	-0.232986
O7	O	-4.266119	-0.226213	-0.276811
O8	O	-4.674707	-0.106280	-0.202884
O9	O	-4.285288	0.019596	-0.234684
O10	O	-4.644005	-0.341411	-0.237671
O11	O	-4.594745	-0.162569	-0.347729
O12	O	-4.334209	-0.158017	-0.125383
C13	C	-3.834358	-0.394686	-0.241116
C14	C	-3.897787	-0.537514	-0.240445
C15	C	-3.771953	-0.168122	-0.380540
C16	C	-3.795705	-0.166906	-0.468506
C17	C	-3.767873	-0.732809	-0.235034
C18	C	-3.701620	-0.584164	-0.235418
C19	C	-4.001433	-0.576264	-0.166652
C20	C	-4.066019	-0.724808	-0.165870
C21	C	-4.129800	-0.763155	-0.317142
C22	C	-4.060029	-0.614639	-0.318743
C23	C	-3.989132	-0.172747	-0.513864
C24	C	-4.011437	-0.171603	-0.596517
C25	C	-3.840317	-0.164628	-0.633812
C26	C	-3.646873	-0.158783	-0.588448
C27	C	-3.624566	-0.159917	-0.505796
C28	C	-3.898547	-0.160874	-0.883168
C29	C	-3.920872	-0.159745	-0.965827
C30	C	-4.285434	-0.172563	-0.973889
C31	C	-4.263113	-0.173704	-0.891236
C32	C	-4.069669	-0.167852	-0.845878
C33	C	-3.863114	-0.163463	-0.718298
C34	C	-4.046870	-0.169008	-0.761394
C35	C	-4.096408	0.062186	-0.238577
C36	C	-4.012217	0.205012	-0.239253
C37	C	-4.158813	-0.164376	-0.099151
C38	C	-4.114299	-0.165586	-0.011184
H39	H	-3.620890	-0.558318	-0.288146
O40	O	-3.953993	-0.748140	-0.088265
H41	H	-3.852884	-0.805827	-0.101368
O42	O	-3.702559	-0.794189	-0.304438
H43	H	-3.843542	-0.869676	-0.342681
H44	H	-3.507542	-0.153096	-0.618820
H45	H	-3.986586	-0.590658	-0.373339
H46	H	-4.168939	-0.176352	-0.633443
O47	O	-4.494053	-0.178848	-1.022811
H48	H	-4.618869	-0.270101	-1.017330
H49	H	-3.467044	-0.155129	-0.468863
H50	H	-3.781513	-0.154060	-0.996189
O51	O	-3.689924	-0.154581	-0.834252
H52	H	-3.574698	-0.149558	-0.874076
H53	H	-4.186192	-0.174683	-0.731024
O54	O	-3.678544	-0.155981	-0.758512
H55	H	-3.638262	-0.067206	-0.787544
O56	O	-3.849653	-0.504524	-0.089857
H57	H	-3.816023	-0.575709	-0.052521
H58	H	-4.098463	-0.812585	-0.372979
O59	O	-4.299490	-0.778977	-0.165706
H60	H	-4.365804	-0.699055	-0.166178
O61	O	-4.193822	-0.536202	-0.167762
H62	H	-4.217658	-0.488128	-0.221048
H63	H	-3.677228	-0.753456	-0.178863
O64	O	-3.537994	-0.514803	-0.160957
H65	H	-3.606010	-0.539589	-0.107240
H66	H	-4.206121	-0.584419	-0.326984
H67	H	-4.307917	-0.804266	-0.321010
H68	H	-4.402461	-0.179383	-0.860876
O69	O	-4.173692	-0.180257	-0.473638
H70	H	-4.311933	-0.184110	-0.519065
