data_functionalizedCrystal
_audit_creation_method	'MofGen! by Chris Wilmer'
_symmetry_space_group_name_H-M	'P1'
_symmetry_Int_Tables_number	1
_symmetry_cell_setting	triclinic
loop_
_symmetry_equiv_pos_as_xyz
  x,y,z
_cell_length_a	10.723024
_cell_length_b	9.016244
_cell_length_c	10.723024
_cell_angle_alpha	90.005613
_cell_angle_beta	84.467869
_cell_angle_gamma	90.002057
loop_
_atom_site_label
_atom_site_type_symbol
_atom_site_fract_x
_atom_site_fract_y
_atom_site_fract_z
O1	O	1.657184	0.123327	0.175031
O2	O	1.294032	0.123331	0.191785
O3	O	1.483985	0.123323	0.001832
O4	O	1.467231	0.123335	0.364984
O5	O	1.483977	-0.123357	0.001818
O6	O	1.294024	-0.123349	0.191770
O7	O	1.657176	-0.123354	0.175017
Cu8	Cu	1.475599	-0.145876	0.183392
Cu9	Cu	1.475609	0.145853	0.183409
O10	O	1.467223	-0.123346	0.364970
C11	C	1.247528	-0.000008	0.190558
C12	C	1.108974	-0.000007	0.186911
N13	N	1.475602	-0.351062	0.183380
C14	C	1.033991	-0.000002	0.293198
C15	C	0.890788	-0.000001	0.289431
C16	C	1.577593	-0.586053	0.082118
C17	C	1.577318	-0.414162	0.081732
C18	C	1.345164	-0.413486	0.153826
C19	C	1.345770	-0.585431	0.153116
C20	C	1.502905	-0.585562	0.314549
C21	C	1.505850	-0.413606	0.313691
C22	C	1.703680	-0.000011	0.176243
C23	C	1.842234	-0.000003	0.179891
C24	C	1.482762	-0.000015	-0.044675
C25	C	1.479114	-0.000010	-0.183229
N26	N	1.475616	0.351039	0.183412
C27	C	1.585401	-0.000009	-0.258212
C28	C	1.581634	-0.000004	-0.401415
C29	C	1.468447	-0.000004	0.411477
C30	C	1.472094	0.000000	0.550031
H31	H	1.075814	-0.000008	0.386984
H32	H	1.381099	-0.000011	-0.385544
C33	C	1.352407	-0.000005	-0.239713
C34	C	1.318930	-0.128096	-0.325457
C35	C	1.192219	-0.128091	-0.381936
C36	C	1.098984	0.000004	-0.352673
C37	C	1.132458	0.128104	-0.266926
C38	C	1.259170	0.128100	-0.210446
H39	H	1.387950	-0.222928	-0.347123
H40	H	1.167439	-0.222920	-0.445412
H41	H	1.005185	0.000007	-0.394483
H42	H	1.063438	0.222937	-0.245259
H43	H	1.283949	0.222928	-0.146970
H44	H	0.826355	0.000009	0.380421
H45	H	1.674841	-0.627393	0.099613
C46	C	1.052490	-0.000010	0.060204
C47	C	1.081735	-0.128107	-0.033043
C48	C	1.025255	-0.128110	-0.159754
C49	C	0.939530	-0.000016	-0.193219
C50	C	0.910280	0.128092	-0.099970
C51	C	0.966760	0.128095	0.026741
H52	H	1.145198	-0.222939	-0.008272
H53	H	1.046908	-0.222945	-0.228783
H54	H	0.897720	-0.000018	-0.287019
H55	H	0.846818	0.222924	-0.124741
H56	H	0.945107	0.222929	0.095770
C57	C	1.708255	-0.357143	0.105739
C58	C	1.823119	-0.398654	0.015073
C59	C	1.954063	-0.341651	0.039082
C60	C	1.970144	-0.243136	0.153756
C61	C	1.855277	-0.201620	0.244429
C62	C	1.724333	-0.258624	0.220421
H63	H	1.811218	-0.471585	-0.069822
H64	H	2.039095	-0.372384	-0.028041
H65	H	2.067077	-0.200939	0.171529
H66	H	1.867178	-0.128690	0.329325
H67	H	1.639301	-0.227890	0.287543
C68	C	1.554217	-0.644434	-0.048580
C69	C	1.655338	-0.737213	-0.124721
C70	C	1.631956	-0.795598	-0.255416
C71	C	1.507451	-0.761203	-0.309968
C72	C	1.406321	-0.668420	-0.233826
C73	C	1.429704	-0.610035	-0.103131
H74	H	1.747511	-0.762678	-0.084339
H75	H	1.706819	-0.864283	-0.311781
H76	H	1.490142	-0.804423	-0.406716
H77	H	1.314148	-0.642954	-0.274208
H78	H	1.354840	-0.541350	-0.046766
C79	C	1.240076	-0.641631	0.248898
C80	C	1.271433	-0.739669	0.359244
C81	C	1.165725	-0.795844	0.455013
C82	C	1.028661	-0.753982	0.440437
C83	C	0.997297	-0.655938	0.330087
C84	C	1.103005	-0.599763	0.234317
H85	H	1.372902	-0.770663	0.370038
H86	H	1.188943	-0.868423	0.536702
H87	H	0.950409	-0.795566	0.511332
H88	H	0.895828	-0.624944	0.319293
H89	H	1.079787	-0.527184	0.152629
C90	C	1.635479	-0.358475	0.343965
C91	C	1.753032	-0.397065	0.255945
C92	C	1.882660	-0.341918	0.286214
C93	C	1.894735	-0.248180	0.404503
C94	C	1.777179	-0.209585	0.492531
C95	C	1.647550	-0.264732	0.462262
H96	H	1.744097	-0.466460	0.168373
H97	H	1.969683	-0.370489	0.221050
H98	H	1.990694	-0.207357	0.426910
H99	H	1.786114	-0.140191	0.580102
H100	H	1.560527	-0.236161	0.527426
H101	H	0.906659	0.000003	0.088896
H102	H	1.596049	-0.628916	0.342681
H103	H	1.559766	-0.373046	-0.015567
H104	H	1.321888	-0.625554	0.057444
H105	H	1.320723	-0.370440	0.059233
H106	H	1.267402	-0.372616	0.225589
H107	H	1.436472	-0.370650	0.392683
H108	H	1.428555	-0.626252	0.389943
H109	H	1.679187	-0.000020	-0.216390
H110	H	1.672624	-0.000010	-0.465848
