data_functionalizedCrystal
_audit_creation_method	'MofGen! by Chris Wilmer'
_symmetry_space_group_name_H-M	'P1'
_symmetry_Int_Tables_number	1
_symmetry_cell_setting	triclinic
loop_
_symmetry_equiv_pos_as_xyz
  x,y,z
_cell_length_a	16.625546
_cell_length_b	15.298708
_cell_length_c	15.298259
_cell_angle_alpha	110.755097
_cell_angle_beta	80.285010
_cell_angle_gamma	99.716994
loop_
_atom_site_label
_atom_site_type_symbol
_atom_site_fract_x
_atom_site_fract_y
_atom_site_fract_z
Zn1	Zn	-0.071552	1.330662	-0.280182
Zn2	Zn	-0.226307	1.357458	-0.124684
Zn3	Zn	-0.111403	1.202059	-0.151555
Zn4	Zn	-0.226285	1.175130	-0.307002
O5	O	-0.158887	1.266327	-0.215856
O6	O	-0.075413	1.464343	-0.237086
O7	O	-0.227752	1.359328	0.001883
O8	O	0.006728	1.219174	-0.168639
O9	O	-0.189111	1.484030	-0.122842
O10	O	0.036006	1.313658	-0.263141
O11	O	-0.143332	1.245157	-0.017859
O12	O	-0.143310	1.068361	-0.194645
O13	O	-0.189073	1.173278	-0.433576
O14	O	-0.227714	1.048576	-0.308852
O15	O	-0.075392	1.287547	-0.413872
O16	O	-0.339149	1.333217	-0.148848
O17	O	-0.339133	1.199261	-0.282796
C18	C	-0.189835	1.024728	-0.257575
C19	C	-0.203091	0.921367	-0.275445
C20	C	-0.064316	0.671043	-0.088367
C21	C	-0.051857	0.768156	-0.071579
C22	C	-0.089664	0.806463	-0.122544
C23	C	-0.139933	0.747648	-0.190300
C24	C	-0.152389	0.650525	-0.207095
C25	C	-0.177737	0.785946	-0.241272
C26	C	-0.228006	0.727131	-0.309028
C27	C	-0.240460	0.630018	-0.325820
C28	C	-0.202652	0.591710	-0.274855
C29	C	-0.165281	0.883069	-0.224476
C30	C	-0.253354	0.862552	-0.343205
C31	C	-0.265814	0.765439	-0.359993
C32	C	-0.368394	1.266246	-0.215832
C33	C	-0.458007	1.266291	-0.215839
C34	C	-0.786150	1.266437	-0.215907
C35	C	-0.694850	1.266393	-0.215891
C36	C	-0.622082	1.266363	-0.215873
C37	C	-0.530776	1.266321	-0.215857
C38	C	0.051444	1.266431	-0.215896
C39	C	0.141075	1.266475	-0.215913
C40	C	-0.127785	1.224420	-0.458409
C41	C	-0.114531	1.206561	-0.561771
C42	C	-0.127819	1.508870	-0.173975
C43	C	-0.114580	1.612227	-0.156127
C44	C	-0.252990	1.393996	-0.812008
C45	C	-0.265448	1.410771	-0.714895
C46	C	-0.227720	1.359720	-0.676609
C47	C	-0.177531	1.291891	-0.735446
C48	C	-0.165077	1.275110	-0.832569
C49	C	-0.139807	1.240834	-0.697170
C50	C	-0.089618	1.173005	-0.756007
C51	C	-0.077165	1.156228	-0.853120
C52	C	-0.114894	1.207279	-0.891406
C53	C	-0.152261	1.257615	-0.600047
C54	C	-0.064348	1.138729	-0.620608
C55	C	-0.051890	1.121955	-0.717721
C56	C	-0.189803	1.308126	0.025763
C57	C	-0.202807	1.326165	0.129155
H58	H	-0.010931	0.816036	-0.016409
C59	C	-0.295098	0.566322	-0.399390
C60	C	-0.325563	0.620654	-0.440410
C61	C	-0.375909	0.562014	-0.508175
H62	H	-0.264046	0.521423	-0.446606
H63	H	-0.339650	0.534596	-0.370309
H64	H	-0.281018	0.652365	-0.469491
H65	H	-0.356628	0.665551	-0.393219
H66	H	-0.420461	0.530288	-0.479094
H67	H	-0.344851	0.517118	-0.555385
H68	H	-0.396591	0.598871	-0.536010
H69	H	-0.212798	0.512634	-0.288517
C70	C	-0.319922	1.484489	-0.651168
C71	C	-0.350277	1.525627	-0.705476
C72	C	-0.400452	1.593556	-0.646799
H73	H	-0.364532	1.455554	-0.619395
H74	H	-0.288749	1.531611	-0.606305
H75	H	-0.381449	1.478512	-0.750322
H76	H	-0.305686	1.554580	-0.737248
H77	H	-0.369279	1.640678	-0.601937
H78	H	-0.445057	1.564613	-0.615029
H79	H	-0.421048	1.621482	-0.683638
C80	C	-0.241345	1.377760	-0.571202
C81	C	-0.277388	1.294777	-0.554348
C82	C	-0.289961	1.311369	-0.457252
H83	H	-0.190113	1.397629	-0.546359
H84	H	-0.276671	1.425431	-0.541614
H85	H	-0.242063	1.247122	-0.583923
H86	H	-0.328626	1.274895	-0.579168
H87	H	-0.325287	1.359040	-0.427665
H88	H	-0.238727	1.331240	-0.432418
H89	H	-0.314425	1.255071	-0.445804
C90	C	-0.023365	0.629275	-0.033118
C91	C	-0.045042	0.531637	-0.062322
C92	C	-0.007332	0.493130	-0.011441
H93	H	0.034605	0.642741	-0.044057
H94	H	-0.041064	0.655911	0.032152
H95	H	-0.027338	0.505010	-0.127577
H96	H	-0.103005	0.518145	-0.051382
H97	H	-0.025032	0.519767	0.053829
H98	H	0.050636	0.506602	-0.022383
H99	H	-0.022041	0.426881	-0.031242
H100	H	-0.306743	0.717538	-0.415162
H101	H	-0.283709	1.435548	-0.843191
C102	C	-0.294560	0.904023	-0.398509
C103	C	-0.379960	0.883879	-0.382205
C104	C	-0.417938	0.922063	-0.433142
H105	H	-0.280044	0.970290	-0.378857
H106	H	-0.276915	0.877306	-0.463783
H107	H	-0.397597	0.910600	-0.316945
H108	H	-0.394499	0.817620	-0.401861
H109	H	-0.400294	0.895346	-0.498416
H110	H	-0.403417	0.988329	-0.413486
H111	H	-0.475886	0.908394	-0.422094
H112	H	-0.193120	1.312847	-0.552151
C113	C	-0.101232	1.188962	-0.996865
C114	C	-0.049194	1.118647	-1.040198
C115	C	-0.036583	1.101761	-1.137344
H116	H	-0.152453	1.169009	-1.021728
H117	H	-0.076741	1.245162	-1.008505
H118	H	-0.073688	1.062459	-1.028565
H119	H	0.002035	1.138581	-1.015363
H120	H	-0.012091	1.157961	-1.148985
H121	H	-0.087807	1.081811	-1.162197
H122	H	-0.001269	1.054058	-1.166757
C123	C	-0.022618	1.082575	-0.916840
C124	C	0.007776	1.041475	-0.862527
C125	C	0.058035	0.973632	-0.921190
H126	H	-0.053716	1.035414	-0.961735
H127	H	0.021969	1.111604	-0.948573
H128	H	-0.036805	1.012446	-0.830810
H129	H	0.038886	1.088612	-0.817635
H130	H	0.102622	1.002661	-0.952923
H131	H	0.026932	0.926477	-0.966082
H132	H	0.078670	0.945743	-0.884346
H133	H	-0.124349	0.930947	-0.169311
H134	H	-0.011026	1.066728	-0.765639
C135	C	-0.023420	1.083427	-0.578866
C136	C	-0.045050	1.112659	-0.481219
C137	C	-0.007360	1.061747	-0.442728
H138	H	-0.041152	1.018174	-0.605462
H139	H	0.034557	1.094332	-0.592387
H140	H	-0.103015	1.101747	-0.467707
H141	H	-0.027318	1.177905	-0.454599
H142	H	0.050617	1.072651	-0.456248
H143	H	-0.025095	0.996496	-0.469330
H144	H	-0.022024	1.081580	-0.376470
H145	H	-0.079516	0.885537	-0.108871
