data_functionalizedCrystal
_audit_creation_method	'MofGen! by Chris Wilmer'
_symmetry_space_group_name_H-M	'P1'
_symmetry_Int_Tables_number	1
_symmetry_cell_setting	triclinic
loop_
_symmetry_equiv_pos_as_xyz
  x,y,z
_cell_length_a	8.497374
_cell_length_b	10.686203
_cell_length_c	10.685661
_cell_angle_alpha	99.053948
_cell_angle_beta	94.365569
_cell_angle_gamma	85.629853
loop_
_atom_site_label
_atom_site_type_symbol
_atom_site_fract_x
_atom_site_fract_y
_atom_site_fract_z
Zn1	Zn	1.018713	0.654515	1.979237
Zn2	Zn	1.352047	0.987848	2.312571
Zn3	Zn	1.685380	1.321182	2.645904
Zn4	Zn	0.736175	0.866712	1.995479
Zn5	Zn	1.069509	1.200046	2.328812
Zn6	Zn	1.402842	1.533379	2.662145
Zn7	Zn	0.736199	0.638201	1.767030
Zn8	Zn	1.069532	0.971534	2.100363
Zn9	Zn	1.402866	1.304868	2.433697
Zn10	Zn	0.981162	0.850407	1.783252
Zn11	Zn	1.314496	1.183740	2.116585
Zn12	Zn	1.647829	1.517074	2.449918
O13	O	0.868062	0.752459	1.881249
O14	O	1.201396	1.085792	2.214583
O15	O	1.534729	1.419125	2.547916
O16	O	0.996939	0.696315	2.159019
O17	O	1.330273	1.029648	2.492353
O18	O	1.663606	1.362981	2.825686
O19	O	0.515417	0.836396	1.965183
O20	O	0.848751	1.169729	2.298516
O21	O	1.182084	1.503063	2.631849
O22	O	0.789400	0.462751	1.781594
O23	O	1.122734	0.796084	2.114927
O24	O	1.456067	1.129417	2.448261
O25	O	0.789360	0.852215	2.170952
O26	O	1.122693	1.185549	2.504285
O27	O	1.456027	1.518882	2.837618
O28	O	0.996962	0.474737	1.937502
O29	O	1.330296	0.808070	2.270835
O30	O	1.663629	1.141403	2.604168
O31	O	0.515435	0.668510	1.797342
O32	O	0.848768	1.001843	2.130676
O33	O	1.182101	1.335176	2.464009
O34	O	0.752988	0.652699	1.591555
O35	O	1.086322	0.986033	1.924888
O36	O	1.419655	1.319366	2.258221
O37	O	1.206905	0.824425	1.809241
O38	O	1.540238	1.157758	2.142575
O39	O	1.873571	1.491092	2.475908
O40	O	0.932962	0.808606	1.603473
O41	O	1.266295	1.141939	1.936806
O42	O	1.599629	1.475273	2.270139
O43	O	1.234493	0.680504	1.953231
O44	O	1.567827	1.013837	2.286565
O45	O	1.901160	1.347171	2.619898
O46	O	0.752948	1.042164	1.980912
O47	O	1.086281	1.375497	2.314246
O48	O	1.419615	1.708830	2.647579
O49	O	0.932939	1.030184	1.824990
O50	O	1.266272	1.363518	2.158323
O51	O	1.599606	1.696851	2.491657
C52	C	0.838904	0.727114	1.551457
C53	C	1.172237	1.060447	1.884790
C54	C	1.505570	1.393781	2.218123
C55	C	0.826464	0.716302	1.410372
C56	C	1.159798	1.049635	1.743706
C57	C	1.493131	1.382969	2.077039
C58	C	0.838904	1.082230	1.906508
C59	C	1.172237	1.415563	2.239841
C60	C	1.505570	1.748897	2.573175
C61	C	0.826492	1.223316	1.917430
C62	C	1.159826	1.556650	2.250763
C63	C	1.493159	1.889983	2.584097
C64	C	1.279542	0.752460	1.881240
C65	C	1.612875	1.085793	2.214574
C66	C	1.946208	1.419127	2.547907
C67	C	1.458185	0.752474	1.881244
C68	C	1.791518	1.085807	2.214577
C69	C	2.124852	1.419140	2.547911
C70	C	0.897336	0.777904	2.212330
C71	C	1.230669	1.111237	2.545663
C72	C	1.564002	1.444570	2.878997
C73	C	0.909810	0.788747	2.353417
C74	C	1.243144	1.122080	2.686750
C75	C	1.576477	1.455413	3.020083
C76	C	0.897388	1.421402	1.855914
C77	C	1.230722	1.754735	2.189248
C78	C	1.564055	2.088068	2.522581
C79	C	0.909925	1.280322	1.845086
C80	C	1.243258	1.613656	2.178420
C81	C	1.576592	1.946989	2.511753
H82	H	0.990694	0.859033	1.412588
H83	H	1.324027	1.192367	1.745921
H84	H	1.657360	1.525700	2.079254
F85	F	1.015706	1.203037	1.753209
F86	F	1.349039	1.536371	2.086542
F87	F	1.682372	1.869704	2.419876
F88	F	0.720754	0.624410	1.333027
F89	F	1.054088	0.957744	1.666361
F90	F	1.387421	1.291077	1.999694
F91	F	0.720689	1.300606	2.009300
F92	F	1.054022	1.633940	2.342633
F93	F	1.387355	1.967273	2.675966
