data_functionalizedCrystal
_audit_creation_method	'MofGen! by Chris Wilmer'
_symmetry_space_group_name_H-M	'P1'
_symmetry_Int_Tables_number	1
_symmetry_cell_setting	triclinic
loop_
_symmetry_equiv_pos_as_xyz
  x,y,z
_cell_length_a	6.817900
_cell_length_b	17.982959
_cell_length_c	17.078481
_cell_angle_alpha	96.484289
_cell_angle_beta	99.306161
_cell_angle_gamma	102.451857
loop_
_atom_site_label
_atom_site_type_symbol
_atom_site_fract_x
_atom_site_fract_y
_atom_site_fract_z
V1	V	-3.974480	-0.105234	-0.247692
O2	O	-3.968302	0.005240	-0.242636
O3	O	-3.921245	-0.208838	-0.246326
O4	O	-3.905609	-0.103535	-0.355570
O5	O	-3.984046	-0.100792	-0.132636
V6	V	-4.461387	-0.092030	-0.233891
O7	O	-4.228316	-0.134200	-0.277967
O8	O	-4.657750	-0.063065	-0.203616
O9	O	-4.291416	0.011574	-0.235257
O10	O	-4.584963	-0.202504	-0.238947
O11	O	-4.569219	-0.096473	-0.348947
O12	O	-4.307052	-0.093729	-0.126013
C13	C	-3.765732	-0.234097	-0.242503
C14	C	-3.803356	-0.318794	-0.242105
C15	C	-4.002196	-0.362462	-0.245888
C16	C	-4.037538	-0.442045	-0.245519
C17	C	-3.874035	-0.477956	-0.241361
C18	C	-3.675180	-0.434282	-0.237581
C19	C	-3.639843	-0.354702	-0.237956
C20	C	-3.817687	-0.755219	-0.236070
C21	C	-3.853040	-0.834804	-0.235693
C22	C	-4.215382	-0.842561	-0.243633
C23	C	-4.180045	-0.762981	-0.244007
C24	C	-3.981196	-0.719315	-0.240231
C25	C	-3.942877	-0.633023	-0.240633
C26	C	-3.912350	-0.564246	-0.240954
C27	C	-3.745786	-0.099772	-0.381854
C28	C	-3.770728	-0.099068	-0.470046
C29	C	-3.963600	-0.102541	-0.515533
C30	C	-3.987024	-0.101879	-0.598399
C31	C	-3.817575	-0.097751	-0.635778
C32	C	-3.624686	-0.094275	-0.590285
C33	C	-3.601263	-0.094931	-0.507419
C34	C	-3.868202	-0.095376	-0.883173
C35	C	-3.891643	-0.094722	-0.966045
C36	C	-4.253979	-0.102325	-0.974154
C37	C	-4.230540	-0.102985	-0.891287
C38	C	-4.037652	-0.099506	-0.845801
N39	N	-3.841515	-0.097077	-0.720480
N40	N	-4.013713	-0.100174	-0.761099
C41	C	-4.110271	0.036829	-0.239078
C42	C	-4.051884	0.121525	-0.239481
C43	C	-4.130218	-0.097495	-0.099725
C44	C	-4.084515	-0.098195	-0.011532
H45	H	-4.313188	-0.733746	-0.247389
O46	O	-3.446775	-0.312268	-0.234421
C47	C	-3.440091	-0.276278	-0.303453
H48	H	-3.570736	-0.309654	-0.353864
H49	H	-3.287702	-0.275395	-0.323127
H50	H	-3.456426	-0.214682	-0.289192
O51	O	-4.408427	-0.885046	-0.247198
C52	C	-4.415135	-0.921008	-0.178148
H53	H	-4.254931	-0.926135	-0.151624
H54	H	-4.522205	-0.980923	-0.195097
H55	H	-4.473693	-0.885047	-0.131889
O56	O	-4.128005	-0.106449	-0.479120
C57	C	-4.092425	-0.040764	-0.420473
H58	H	-3.920655	-0.015465	-0.400878
H59	H	-4.160032	-0.057742	-0.366388
H60	H	-4.167816	0.004028	-0.446730
O61	O	-4.174536	-0.105281	-0.642470
C62	C	-4.319060	-0.109045	-0.591706
H63	H	-4.261293	-0.132642	-0.535464
H64	H	-4.470988	-0.148657	-0.624639
H65	H	-4.341767	-0.048881	-0.573965
H66	H	-4.368527	-0.106346	-0.860859
O67	O	-4.230689	-0.484523	-0.249313
C68	C	-4.286581	-0.541096	-0.318378
H69	H	-4.190362	-0.522106	-0.364527
H70	H	-4.455492	-0.548895	-0.345045
H71	H	-4.259087	-0.598034	-0.301411
O72	O	-4.441280	-0.105799	-1.018444
C73	C	-4.498586	-0.171940	-1.077576
H74	H	-4.355768	-0.190641	-1.090122
H75	H	-4.584328	-0.158180	-1.135098
H76	H	-4.602001	-0.220482	-1.055325
H77	H	-3.753645	-0.091357	-0.996476
O78	O	-3.624395	-0.712916	-0.232356
C79	C	-3.487678	-0.761683	-0.228623
H80	H	-3.557005	-0.815785	-0.204272
H81	H	-3.336969	-0.730210	-0.187240
H82	H	-3.458504	-0.778487	-0.291335
H83	H	-3.711158	-0.092570	-0.846153
H84	H	-3.542058	-0.463528	-0.234201
H85	H	-4.135341	-0.333228	-0.249266
O86	O	-3.460311	-0.090301	-0.626724
C87	C	-3.522331	-0.090450	-0.709615
H88	H	-3.693251	-0.117856	-0.728428
H89	H	-3.433974	-0.124931	-0.744665
H90	H	-3.489918	-0.028685	-0.722778
H91	H	-3.719887	-0.864041	-0.232312
O92	O	-3.414060	-0.091671	-0.463167
C93	C	-3.422556	-0.158116	-0.425979
H94	H	-3.587307	-0.183609	-0.420741
H95	H	-3.322004	-0.142064	-0.363525
H96	H	-3.365228	-0.202403	-0.463597
