data_functionalizedCrystal
_audit_creation_method	'MofGen! by Chris Wilmer'
_symmetry_space_group_name_H-M	'P1'
_symmetry_Int_Tables_number	1
_symmetry_cell_setting	triclinic
loop_
_symmetry_equiv_pos_as_xyz
  x,y,z
_cell_length_a	16.109301
_cell_length_b	15.944493
_cell_length_c	15.186229
_cell_angle_alpha	90.002130
_cell_angle_beta	89.999362
_cell_angle_gamma	83.468262
loop_
_atom_site_label
_atom_site_type_symbol
_atom_site_fract_x
_atom_site_fract_y
_atom_site_fract_z
O1	O	1.103143	0.107969	-0.073161
O2	O	0.861083	0.121406	-0.073174
O3	O	0.988748	-0.007593	-0.073175
O4	O	0.975478	0.236968	-0.073161
O5	O	0.988740	-0.007595	0.073283
O6	O	0.861074	0.121404	0.073283
O7	O	1.103135	0.107967	0.073296
Zn8	Zn	0.982103	0.114685	0.096543
Zn9	Zn	0.982115	0.114688	-0.096421
O10	O	0.975469	0.236966	0.073297
C11	C	0.830104	0.120861	0.000053
C12	C	0.737808	0.119229	0.000048
C13	C	0.988202	-0.038888	0.000050
C14	C	0.986576	-0.132136	0.000039
C15	C	0.515544	0.191980	0.000062
C16	C	0.428824	0.190440	0.000068
C17	C	0.448680	0.037388	0.000055
C18	C	0.535399	0.038928	0.000056
C19	C	0.568829	0.116227	0.000055
C20	C	0.395389	0.113146	0.000060
C21	C	0.301363	0.111476	0.000066
C22	C	0.662861	0.117897	0.000050
C23	C	1.061722	-0.367921	0.000060
C24	C	1.021203	-0.418475	-0.072153
C25	C	0.983563	-0.302856	0.000050
C26	C	1.021176	-0.418453	0.072242
C27	C	0.980658	-0.467765	0.000064
C28	C	0.943064	-0.352182	-0.072223
C29	C	0.943049	-0.352156	0.072238
C30	C	0.902472	-0.402677	0.000007
C31	C	0.985238	-0.207857	0.000041
C32	C	0.978976	-0.562762	0.000066
C33	C	1.134114	0.108513	0.000067
C34	C	1.226410	0.110144	0.000067
C35	C	0.976016	0.268262	0.000070
C36	C	0.977642	0.361510	0.000075
N37	N	0.982102	0.114683	0.228236
N38	N	0.982123	0.114683	-0.228113
C39	C	1.038651	0.057582	0.453958
C40	C	1.038654	0.057580	0.546148
C41	C	0.925567	0.171787	0.546158
C42	C	0.925561	0.171785	0.453970
C43	C	0.982108	0.114683	0.407872
C44	C	0.982116	0.114684	0.592250
C45	C	0.982119	0.114682	0.692206
C46	C	0.982105	0.114683	0.307910
H47	H	0.542760	0.254921	0.000068
C48	C	0.863360	0.234600	0.403267
C49	C	0.801192	0.297442	0.453966
C50	C	0.738992	0.360252	0.403263
C51	C	0.738961	0.360219	0.301859
C52	C	0.801132	0.297375	0.251154
C53	C	0.863332	0.234566	0.301858
H54	H	0.801212	0.297468	0.529036
H55	H	0.692969	0.406773	0.440798
H56	H	0.692917	0.406715	0.264326
H57	H	0.801112	0.297349	0.176084
H58	H	0.909355	0.188044	0.264322
C59	C	1.100855	-0.005230	0.596844
C60	C	1.163058	-0.068030	0.546136
C61	C	1.225261	-0.130843	0.596832
C62	C	1.225260	-0.130856	0.698235
C63	C	1.163053	-0.068053	0.748948
C64	C	1.100851	-0.005240	0.698252
H65	H	1.163061	-0.068022	0.471066
H66	H	1.271310	-0.177333	0.559290
H67	H	1.271306	-0.177354	0.735763
H68	H	1.163050	-0.068061	0.824018
H69	H	1.054802	0.041250	0.735794
C70	C	0.370211	0.273770	0.000074
C71	C	0.406986	0.358791	0.000075
C72	C	0.348373	0.442125	0.000084
C73	C	0.252985	0.440438	0.000091
C74	C	0.216205	0.355413	0.000089
C75	C	0.274818	0.272079	0.000081
H76	H	0.477603	0.360043	0.000070
H77	H	0.375601	0.505066	0.000085
H78	H	0.209596	0.502126	0.000097
H79	H	0.145588	0.354161	0.000094
H80	H	0.247590	0.209138	0.000080
H81	H	0.910078	-0.323351	-0.133338
H82	H	0.835095	-0.418121	-0.000036
H83	H	0.421451	-0.025546	0.000061
H84	H	1.084694	0.011085	0.416428
H85	H	0.578786	-0.022763	0.000053
H86	H	1.129047	-0.352315	-0.000010
H87	H	1.054214	-0.447431	-0.133201
H88	H	0.910066	-0.323186	0.133288
C89	C	1.065776	-0.457545	0.154719
C90	C	1.158608	-0.447795	0.170565
C91	C	1.203215	-0.486885	0.253037
C92	C	1.154990	-0.535726	0.319662
C93	C	1.062152	-0.545479	0.303818
C94	C	1.017545	-0.506389	0.221346
H95	H	1.194313	-0.411637	0.121243
H96	H	1.271940	-0.479664	0.264765
H97	H	1.188010	-0.564663	0.380713
H98	H	1.026448	-0.581636	0.353140
H99	H	0.948821	-0.513609	0.209618
H100	H	0.879529	0.218280	0.583699
