data_functionalizedCrystal
_audit_creation_method	'MofGen! by Chris Wilmer'
_symmetry_space_group_name_H-M	'P1'
_symmetry_Int_Tables_number	1
_symmetry_cell_setting	triclinic
loop_
_symmetry_equiv_pos_as_xyz
  x,y,z
_cell_length_a	17.077402
_cell_length_b	13.897449
_cell_length_c	17.077395
_cell_angle_alpha	90.019917
_cell_angle_beta	89.971476
_cell_angle_gamma	89.977189
loop_
_atom_site_label
_atom_site_type_symbol
_atom_site_fract_x
_atom_site_fract_y
_atom_site_fract_z
Zn1	Zn	-0.312519	-1.474609	-0.443925
Zn2	Zn	0.187481	-0.974609	0.056075
Zn3	Zn	-0.443791	-1.474506	-0.312656
Zn4	Zn	0.056209	-0.974506	0.187344
Zn5	Zn	-0.312543	-1.313316	-0.312663
Zn6	Zn	0.187457	-0.813316	0.187337
Zn7	Zn	-0.443747	-1.313266	-0.443870
Zn8	Zn	0.056253	-0.813266	0.056130
O9	O	-0.378150	-1.393924	-0.378279
O10	O	0.121850	-0.893924	0.121721
O11	O	-0.329941	-1.609577	-0.426532
O12	O	0.170059	-1.109577	0.073468
O13	O	-0.426410	-1.453102	-0.202810
O14	O	0.073590	-0.953102	0.297190
O15	O	-0.202693	-1.334776	-0.330102
O16	O	0.297307	-0.834776	0.169898
O17	O	-0.426386	-1.609501	-0.330089
O18	O	0.073614	-1.109501	0.169911
O19	O	-0.202676	-1.453278	-0.426539
O20	O	0.297324	-0.953278	0.073461
O21	O	-0.329982	-1.334676	-0.202815
O22	O	0.170018	-0.834676	0.297185
O23	O	-0.329939	-1.178327	-0.330048
O24	O	0.170061	-0.678327	0.169952
O25	O	-0.426311	-1.334690	-0.553724
O26	O	0.073689	-0.834690	-0.053724
O27	O	-0.426334	-1.178291	-0.426445
O28	O	0.073666	-0.678291	0.073555
O29	O	-0.329898	-1.453229	-0.553765
O30	O	0.170102	-0.953229	-0.053765
O31	O	-0.553632	-1.453053	-0.330036
O32	O	-0.053632	-0.953053	0.169964
O33	O	-0.553600	-1.334590	-0.426438
O34	O	-0.053600	-0.834590	0.073562
C35	C	-0.378135	-1.143310	-0.378242
C36	C	0.121865	-0.643310	0.121758
C37	C	-0.378147	-1.036096	-0.378245
C38	C	0.121853	-0.536096	0.121755
C39	C	-0.378149	-0.949026	-0.378254
C40	C	0.121851	-0.449026	0.121746
C41	C	-0.378153	-0.839794	-0.378274
C42	C	0.121847	-0.339794	0.121726
C43	C	-0.582098	-1.393831	-0.378247
C44	C	-0.082098	-0.893831	0.121753
C45	C	-0.669348	-1.393879	-0.378260
C46	C	-0.169348	-0.893879	0.121740
C47	C	-0.710329	-1.455626	-0.328117
C48	C	-0.210329	-0.955626	0.171883
C49	C	-0.792309	-1.455673	-0.328137
C50	C	-0.292309	-0.955673	0.171863
C51	C	-0.833307	-1.393968	-0.378297
C52	C	-0.333307	-0.893968	0.121703
C53	C	-0.792321	-1.332219	-0.428445
C54	C	-0.292321	-0.832219	0.071555
C55	C	-0.710342	-1.332177	-0.428428
C56	C	-0.210342	-0.832177	0.071572
C57	C	-0.963191	-1.332308	-0.428475
C58	C	-0.463191	-0.832308	0.071525
C59	C	-1.045175	-1.332348	-0.428491
C60	C	-0.545175	-0.832348	0.071509
C61	C	-1.045158	-1.455804	-0.328184
C62	C	-0.545158	-0.955804	0.171816
C63	C	-0.963179	-1.455763	-0.328167
C64	C	-0.463179	-0.955763	0.171833
C65	C	-0.922198	-1.394012	-0.378315
C66	C	-0.422198	-0.894012	0.121685
C67	C	-0.173406	-1.394044	-0.378327
C68	C	0.326594	-0.894044	0.121673
C69	C	-0.086156	-1.394095	-0.378348
C70	C	0.413844	-0.894095	0.121652
C71	C	-0.378097	-1.393966	-0.583023
C72	C	0.121903	-0.893966	-0.083023
C73	C	-0.378074	-1.393983	-0.670273
C74	C	0.121926	-0.893983	-0.170273
C75	C	-0.378163	-0.645517	-0.378307
C76	C	0.121837	-0.145517	0.121693
C77	C	-0.378160	-0.752731	-0.378294
C78	C	0.121840	-0.252731	0.121706
C79	C	-0.327766	-1.455813	-1.046110
C80	C	0.172234	-0.955813	-0.546110
C81	C	-0.327793	-1.455794	-0.964129
C82	C	0.172207	-0.955794	-0.464129
C83	C	-0.378000	-1.394063	-0.923122
C84	C	0.122000	-0.894063	-0.423122
C85	C	-0.428188	-1.332354	-0.964099
C86	C	0.071812	-0.832354	-0.464099
C87	C	-0.428164	-1.332380	-1.046078
C88	C	0.071836	-0.832380	-0.546078
C89	C	-0.428233	-1.332304	-0.793229
C90	C	0.071767	-0.832304	-0.293229
C91	C	-0.428257	-1.332278	-0.711244
C92	C	0.071743	-0.832278	-0.211244
C93	C	-0.327863	-1.455718	-0.711280
C94	C	0.172137	-0.955718	-0.211280
C95	C	-0.327839	-1.455744	-0.793259
C96	C	0.172161	-0.955744	-0.293259
C97	C	-0.378026	-1.394034	-0.834231
C98	C	0.121974	-0.894034	-0.334231
C99	C	-0.378147	-1.393938	-0.174331
C100	C	0.121853	-0.893938	0.325669
C101	C	-0.377948	-1.394108	-0.087081
C102	C	0.122052	-0.894108	0.412919
H103	H	-0.825673	-1.505953	-0.287306
H104	H	-0.325673	-1.005953	0.212694
O105	O	-0.836544	-1.265664	-0.482541
O106	O	-0.336544	-0.765664	0.017459
H107	H	-0.820767	-1.282154	-0.544161
H108	H	-0.320767	-0.782154	-0.044161
O109	O	-0.918955	-1.522317	-0.274072
O110	O	-0.418955	-1.022317	0.225928
H111	H	-0.961223	-1.565271	-0.239210
H112	H	-0.461223	-1.065271	0.260790
H113	H	-0.469028	-1.282133	-1.079436
H114	H	0.030972	-0.782133	-0.579436
H115	H	-1.078529	-1.506087	-0.287355
H116	H	-0.578529	-1.006087	0.212645
O117	O	-0.273671	-1.522353	-0.919939
O118	O	0.226329	-1.022353	-0.419939
H119	H	-0.212056	-1.505848	-0.935676
H120	H	0.287944	-1.005848	-0.435676
O121	O	-0.273602	-1.522376	-1.090343
O122	O	0.226398	-1.022376	-0.590343
H123	H	-0.308722	-1.571435	-1.127702
H124	H	0.191278	-1.071435	-0.627702
H125	H	-1.078553	-1.282121	-0.469350
H126	H	-0.578553	-0.782121	0.030650
H127	H	-0.929826	-1.282027	-0.469313
H128	H	-0.429826	-0.782027	0.030687
H129	H	-0.286953	-1.506006	-0.826645
H130	H	0.213047	-1.006006	-0.326645
H131	H	-0.676954	-1.505869	-0.287269
H132	H	-0.176954	-1.005869	0.212731
H133	H	-0.676976	-1.281898	-0.469261
H134	H	-0.176976	-0.781898	0.030739
O135	O	-0.273736	-1.522287	-0.667097
O136	O	0.226264	-1.022287	-0.167097
H137	H	-0.282193	-1.511912	-0.603203
H138	H	0.217807	-1.011912	-0.103203
H139	H	-0.469121	-1.281989	-0.677858
H140	H	0.030879	-0.781989	-0.177858
H141	H	-0.469071	-1.282096	-0.930705
H142	H	0.030929	-0.782096	-0.430705
H143	H	-0.469104	-1.282056	-0.826586
H144	H	0.030896	-0.782056	-0.326586
