data_functionalizedCrystal
_audit_creation_method	'MofGen! by Chris Wilmer'
_symmetry_space_group_name_H-M	'P1'
_symmetry_Int_Tables_number	1
_symmetry_cell_setting	triclinic
loop_
_symmetry_equiv_pos_as_xyz
  x,y,z
_cell_length_a	10.686220
_cell_length_b	12.827892
_cell_length_c	10.685880
_cell_angle_alpha	94.339956
_cell_angle_beta	89.641569
_cell_angle_gamma	94.396976
loop_
_atom_site_label
_atom_site_type_symbol
_atom_site_fract_x
_atom_site_fract_y
_atom_site_fract_z
Zn1	Zn	1.972253	-0.326209	-0.562376
Zn2	Zn	2.305586	0.007125	-0.229042
Zn3	Zn	2.638920	0.340458	0.104291
Zn4	Zn	1.956034	-0.488709	-0.352625
Zn5	Zn	2.289368	-0.155375	-0.019291
Zn6	Zn	2.622701	0.177958	0.314042
Zn7	Zn	1.746382	-0.328338	-0.368698
Zn8	Zn	2.079716	0.004995	-0.035365
Zn9	Zn	2.413049	0.338328	0.297968
Zn10	Zn	1.762451	-0.515271	-0.578397
Zn11	Zn	2.095785	-0.181937	-0.245063
Zn12	Zn	2.429118	0.151396	0.088270
O13	O	1.859280	-0.414632	-0.465524
O14	O	2.192614	-0.081298	-0.132190
O15	O	2.525947	0.252035	0.201143
O16	O	2.145644	-0.335757	-0.521120
O17	O	2.478978	-0.002424	-0.187787
O18	O	2.812311	0.330910	0.145547
O19	O	1.914711	-0.457210	-0.179216
O20	O	2.248044	-0.123877	0.154118
O21	O	2.581378	0.209456	0.487451
O22	O	1.776407	-0.181817	-0.394412
O23	O	2.109741	0.151516	-0.061079
O24	O	2.443074	0.484849	0.272255
O25	O	2.133729	-0.455145	-0.367017
O26	O	2.467062	-0.121812	-0.033683
O27	O	2.800395	0.211521	0.299650
O28	O	1.942353	-0.180253	-0.536706
O29	O	2.275687	0.153081	-0.203373
O30	O	2.609020	0.486414	0.129961
O31	O	1.760681	-0.339387	-0.191025
O32	O	2.094014	-0.006054	0.142308
O33	O	2.427347	0.327280	0.475642
O34	O	1.572971	-0.365143	-0.409947
O35	O	1.906305	-0.031810	-0.076614
O36	O	2.239638	0.301524	0.256720
O37	O	1.803795	-0.500416	-0.751813
O38	O	2.137128	-0.167083	-0.418479
O39	O	2.470461	0.166251	-0.085146
O40	O	1.584777	-0.502481	-0.564012
O41	O	1.918110	-0.169148	-0.230678
O42	O	2.251444	0.164185	0.102655
O43	O	1.957935	-0.361513	-0.740042
O44	O	2.291268	-0.028180	-0.406709
O45	O	2.624602	0.305154	-0.073375
O46	O	1.930293	-0.638471	-0.382552
O47	O	2.263626	-0.305138	-0.049218
O48	O	2.596959	0.028196	0.284115
O49	O	1.788068	-0.657986	-0.548426
O50	O	2.121401	-0.324652	-0.215092
O51	O	2.454735	0.008681	0.118241
C52	C	1.533358	-0.436926	-0.490463
C53	C	1.866691	-0.103593	-0.157129
C54	C	2.200025	0.229740	0.176204
C55	C	1.393929	-0.446491	-0.501161
C56	C	1.727263	-0.113158	-0.167828
C57	C	2.060596	0.220176	0.165505
C58	C	1.859200	-0.686146	-0.465508
C59	C	2.192533	-0.352812	-0.132174
C60	C	2.525867	-0.019479	0.201159
C61	C	1.859284	-0.802295	-0.465534
C62	C	2.192617	-0.468962	-0.132201
C63	C	2.525951	-0.135628	0.201133
C64	C	1.929758	-0.844387	-0.383532
C65	C	2.263091	-0.511054	-0.050199
C66	C	2.596425	-0.177721	0.283135
C67	C	1.929846	-0.964434	-0.383557
C68	C	2.263179	-0.631100	-0.050224
C69	C	2.596513	-0.297767	0.283109
C70	C	2.186475	-0.392251	-0.440488
C71	C	2.519809	-0.058917	-0.107155
C72	C	2.853142	0.274416	0.226178
C73	C	2.325906	-0.382713	-0.429820
C74	C	2.659240	-0.049380	-0.096486
C75	C	2.992573	0.283953	0.236847
C76	C	1.884466	-0.433690	-0.792716
C77	C	2.217800	-0.100357	-0.459383
C78	C	2.551133	0.232977	-0.126049
C79	C	1.895199	-0.441812	-0.932146
C80	C	2.228532	-0.108478	-0.598812
C81	C	2.561866	0.224855	-0.265479
C82	C	1.859397	-0.142057	-0.465565
C83	C	2.192730	0.191277	-0.132232
C84	C	2.526064	0.524610	0.201102
C85	C	1.859447	-0.025901	-0.465582
C86	C	2.192780	0.307432	-0.132249
C87	C	2.526113	0.640765	0.201084
C88	C	1.834264	-0.395567	-0.139599
C89	C	2.167598	-0.062234	0.193734
C90	C	2.500931	0.271100	0.527068
C91	C	1.823775	-0.387135	-0.000151
C92	C	2.157108	-0.053801	0.333182
C93	C	2.490441	0.279532	0.666515
H94	H	1.374336	-0.320794	-0.360555
H95	H	1.707669	0.012539	-0.027222
H96	H	2.041003	0.345873	0.306112
Br97	Br	1.708143	-0.298761	-0.919413
Br98	Br	2.041477	0.034572	-0.586080
Br99	Br	2.374810	0.367905	-0.252746
Br100	Br	2.010815	-0.530208	-1.012890
Br101	Br	2.344148	-0.196874	-0.679556
Br102	Br	2.677481	0.136459	-0.346223
H103	H	1.799102	-0.989674	-0.535787
H104	H	2.132436	-0.656341	-0.202454
H105	H	2.465769	-0.323007	0.130880
H106	H	1.799019	-0.855132	-0.535762
H107	H	2.132352	-0.521799	-0.202429
H108	H	2.465686	-0.188465	0.130905
Br109	Br	1.313210	-0.549717	-0.616599
Br110	Br	1.646543	-0.216384	-0.283266
Br111	Br	1.979877	0.116949	0.050067
Br112	Br	2.030232	-0.756332	-0.266492
Br113	Br	2.363565	-0.422999	0.066842
Br114	Br	2.696898	-0.089666	0.400175
H115	H	1.990178	-1.000669	-0.313349
H116	H	2.323511	-0.667336	0.019984
H117	H	2.656845	-0.334003	0.353317
