data_functionalizedCrystal
_audit_creation_method	'MofGen! by Chris Wilmer'
_symmetry_space_group_name_H-M	'P1'
_symmetry_Int_Tables_number	1
_symmetry_cell_setting	triclinic
loop_
_symmetry_equiv_pos_as_xyz
  x,y,z
_cell_length_a	16.109302
_cell_length_b	16.109304
_cell_length_c	15.186229
_cell_angle_alpha	89.999066
_cell_angle_beta	90.005299
_cell_angle_gamma	96.537791
loop_
_atom_site_label
_atom_site_type_symbol
_atom_site_fract_x
_atom_site_fract_y
_atom_site_fract_z
O1	O	-1.103131	0.106869	-0.073263
O2	O	-0.603131	0.606869	0.426737
O3	O	-0.861070	0.120167	-0.073255
O4	O	-0.361070	0.620167	0.426745
O5	O	-0.988749	-0.007513	-0.073259
O6	O	-0.488749	0.492487	0.426741
O7	O	-0.975452	0.234549	-0.073258
O8	O	-0.475452	0.734549	0.426742
O9	O	-0.988740	-0.007514	0.073198
O10	O	-0.488740	0.492486	0.573198
O11	O	-0.861061	0.120166	0.073202
O12	O	-0.361061	0.620166	0.573202
O13	O	-1.103123	0.106867	0.073195
O14	O	-0.603123	0.606867	0.573195
Zn15	Zn	-0.982091	0.113516	0.096452
Zn16	Zn	-0.482091	0.613516	0.596452
Zn17	Zn	-0.982102	0.113518	-0.096512
Zn18	Zn	-0.482102	0.613518	0.403488
O19	O	-0.975444	0.234547	0.073199
O20	O	-0.475444	0.734547	0.573199
C21	C	-0.830090	0.119628	-0.000025
C22	C	-0.330090	0.619628	0.499975
C23	C	-0.737795	0.118012	-0.000023
C24	C	-0.237795	0.618012	0.499977
C25	C	-0.988206	-0.038488	-0.000033
C26	C	-0.488206	0.461512	0.499967
C27	C	-0.986590	-0.130784	-0.000039
C28	C	-0.486590	0.369216	0.499961
C29	C	-1.134102	0.107407	-0.000037
C30	C	-0.634102	0.607407	0.499963
C31	C	-1.226397	0.109022	-0.000045
C32	C	-0.726397	0.609022	0.499955
C33	C	-0.525450	0.114276	0.079802
C34	C	-0.025450	0.614276	0.579802
C35	C	-0.438729	0.112750	0.079799
C36	C	0.061271	0.612750	0.579799
C37	C	-0.438749	0.112756	-0.079876
C38	C	0.061251	0.612756	0.420124
C39	C	-0.525468	0.114277	-0.079872
C40	C	-0.025468	0.614277	0.420128
C41	C	-0.568816	0.115041	-0.000030
C42	C	-0.068816	0.615041	0.499970
C43	C	-0.395377	0.111994	-0.000038
C44	C	0.104623	0.611994	0.499962
C45	C	-0.301351	0.110338	-0.000041
C46	C	0.198649	0.610338	0.499959
C47	C	-0.662848	0.116695	-0.000026
C48	C	-0.162848	0.616695	0.499974
C49	C	-0.982861	-0.343120	-0.079869
C50	C	-0.482861	0.156880	0.420131
C51	C	-0.981334	-0.429840	-0.079868
C52	C	-0.481334	0.070160	0.420132
C53	C	-0.981329	-0.429839	0.079807
C54	C	-0.481329	0.070161	0.579807
C55	C	-0.982849	-0.343120	0.079806
C56	C	-0.482849	0.156880	0.579806
C57	C	-0.983619	-0.299763	-0.000035
C58	C	-0.483619	0.200237	0.499965
C59	C	-0.980573	-0.473202	-0.000033
C60	C	-0.480573	0.026798	0.499967
C61	C	-0.978918	-0.567228	-0.000031
C62	C	-0.478918	-0.067228	0.499969
C63	C	-0.985272	-0.205731	-0.000037
C64	C	-0.485272	0.294269	0.499963
N65	N	-0.982089	0.113514	0.228144
N66	N	-0.482089	0.613514	0.728144
C67	C	-0.975987	0.265523	-0.000029
C68	C	-0.475987	0.765523	0.499971
C69	C	-0.977603	0.357818	-0.000029
C70	C	-0.477603	0.857818	0.499971
N71	N	-0.982110	0.113514	-0.228205
N72	N	-0.482110	0.613514	0.271795
C73	C	-1.038645	0.056996	0.453865
C74	C	-0.538645	0.556996	0.953865
C75	C	-1.038647	0.056994	0.546055
C76	C	-0.538647	0.556994	1.046055
C77	C	-0.925548	0.170034	0.546068
C78	C	-0.425548	0.670034	1.046068
C79	C	-0.925542	0.170032	0.453880
C80	C	-0.425542	0.670032	0.953880
C81	C	-0.982095	0.113514	0.407781
C82	C	-0.482095	0.613514	0.907781
C83	C	-0.982104	0.113514	0.592159
C84	C	-0.482104	0.613514	1.092159
C85	C	-0.982106	0.113513	0.692115
C86	C	-0.482106	0.613513	1.192115
C87	C	-0.982092	0.113514	0.307819
C88	C	-0.482092	0.613514	0.807819
H89	H	-0.560740	0.114899	0.144815
H90	H	-0.060740	0.614899	0.644815
C91	C	-1.055982	-0.254952	0.172432
C92	C	-0.555982	0.245048	0.672432
C93	C	-0.983683	-0.295453	0.167565
C94	C	-0.483683	0.204547	0.667565
H95	H	-1.056489	-0.225520	0.226606
H96	H	-0.556489	0.274480	0.726606
H97	H	-1.103835	-0.295134	0.169119
H98	H	-0.603835	0.204866	0.669119
H99	H	-1.056644	-0.216723	0.124877
H100	H	-0.556644	0.283277	0.624877
H101	H	-0.983024	-0.333687	0.215116
H102	H	-0.483024	0.166313	0.715116
H103	H	-0.935818	-0.255266	0.170887
H104	H	-0.435818	0.244734	0.670887
C105	C	-1.087474	-0.086929	0.425531
C106	C	-0.587474	0.413071	0.925531
C107	C	-1.100798	-0.005154	0.403214
C108	C	-0.600798	0.494846	0.903214
H109	H	-1.125842	-0.125305	0.394264
H110	H	-0.625842	0.374695	0.894264
H111	H	-1.095558	-0.094989	0.487027
H112	H	-0.595558	0.405011	0.987027
H113	H	-1.031988	-0.095955	0.410420
H114	H	-0.531988	0.404045	0.910420
H115	H	-1.156283	0.003874	0.418331
H116	H	-0.656283	0.503874	0.918331
H117	H	-1.092720	0.002910	0.341704
H118	H	-0.592720	0.502910	0.841704
H119	H	-0.560779	0.114897	-0.144886
H120	H	-0.060779	0.614897	0.355114
H121	H	-0.980704	-0.465151	0.144811
H122	H	-0.480704	0.034849	0.644811
H123	H	-1.084694	0.010972	0.583574
H124	H	-0.584694	0.510972	1.083574
C125	C	-0.875345	0.220238	0.687392
C126	C	-0.375345	0.720238	1.187392
C127	C	-0.863396	0.232165	0.596743
C128	C	-0.363396	0.732165	1.096743
H129	H	-0.836978	0.258602	0.718674
H130	H	-0.336978	0.758602	1.218674
H131	H	-0.866328	0.164756	0.702503
H132	H	-0.366328	0.664756	1.202503
H133	H	-0.930833	0.229283	0.702479
H134	H	-0.430833	0.729283	1.202479
H135	H	-0.807910	0.223114	0.581656
H136	H	-0.307910	0.723114	1.081656
H137	H	-0.872406	0.287661	0.581627
H138	H	-0.372406	0.787661	1.081627
C139	C	-0.813751	0.281779	0.463145
C140	C	-0.313751	0.781779	0.963145
C141	C	-0.863380	0.232163	0.403217
C142	C	-0.363380	0.732163	0.903217
H143	H	-0.775380	0.320135	0.431866
H144	H	-0.275380	0.820135	0.931866
H145	H	-0.783858	0.247165	0.499108
H146	H	-0.283858	0.747165	0.999108
H147	H	-0.848359	0.311696	0.499096
H148	H	-0.348359	0.811696	0.999096
H149	H	-0.828773	0.202241	0.367271
H150	H	-0.328773	0.702241	0.867271
H151	H	-0.893276	0.266781	0.367240
H152	H	-0.393276	0.766781	0.867240
H153	H	-0.403424	0.112127	0.144807
H154	H	0.096576	0.612127	0.644807
H155	H	-0.983485	-0.307821	-0.144881
H156	H	-0.483485	0.192179	0.355119
H157	H	-0.403445	0.112134	-0.144881
H158	H	0.096555	0.612134	0.355119
H159	H	-0.980715	-0.465137	-0.144877
H160	H	-0.480715	0.034863	0.355123
