data_functionalizedCrystal
_audit_creation_method	'MofGen! by Chris Wilmer'
_symmetry_space_group_name_H-M	'P1'
_symmetry_Int_Tables_number	1
_symmetry_cell_setting	triclinic
loop_
_symmetry_equiv_pos_as_xyz
  x,y,z
_cell_length_a	6.817900
_cell_length_b	11.102244
_cell_length_c	11.102291
_cell_angle_alpha	91.948581
_cell_angle_beta	108.605752
_cell_angle_gamma	108.604870
loop_
_atom_site_label
_atom_site_type_symbol
_atom_site_fract_x
_atom_site_fract_y
_atom_site_fract_z
V1	V	-4.111532	-0.175854	-0.396256
O2	O	-4.070571	0.008434	-0.388716
O3	O	-4.088303	-0.348674	-0.393542
O4	O	-4.088317	-0.173157	-0.569078
O5	O	-4.070557	-0.168298	-0.211965
V6	V	-4.588635	-0.153810	-0.374213
O7	O	-4.386874	-0.224209	-0.444607
O8	O	-4.763492	-0.105455	-0.325862
O9	O	-4.388658	0.019009	-0.376927
O10	O	-4.746993	-0.338099	-0.381753
O11	O	-4.747007	-0.161367	-0.558504
O12	O	-4.388644	-0.156508	-0.201391
C13	C	-3.938612	-0.390803	-0.387290
C14	C	-4.001075	-0.532086	-0.386224
C15	C	-3.970245	-0.580316	-0.269343
C16	C	-4.028950	-0.713068	-0.268355
C17	C	-4.149305	-0.749350	-0.501140
C18	C	-4.090615	-0.616600	-0.502127
C19	C	-3.900751	-0.559369	-0.134946
C20	C	-3.959456	-0.692122	-0.133958
C21	C	-3.938629	-0.166912	-0.611202
C22	C	-4.001098	-0.165850	-0.752485
C23	C	-4.214452	-0.171689	-0.825333
C24	C	-4.273124	-0.170666	-0.958079
C25	C	-3.905068	-0.157969	-0.945118
C26	C	-3.846395	-0.158983	-0.812373
C27	C	-4.426950	-0.179025	-0.832818
C28	C	-4.485622	-0.178002	-0.965564
C29	C	-4.201691	0.061132	-0.383175
C30	C	-4.118469	0.202413	-0.384250
C31	C	-4.201674	-0.162757	-0.159261
C32	C	-4.118442	-0.163813	-0.017976
H33	H	-3.807434	-0.715138	-0.077230
H34	H	-3.999409	-0.520272	-0.088474
F35	F	-4.673446	-0.298108	-1.034642
H36	H	-4.115740	-0.577338	-0.597303
F37	F	-3.619314	-0.152759	-0.734845
H38	H	-4.222213	-0.818177	-0.595504
H39	H	-4.446427	-0.092764	-0.785723
H40	H	-4.522343	-0.273803	-0.808352
H41	H	-3.779121	-0.152376	-0.993895
F42	F	-4.533296	-0.060062	-1.003612
H43	H	-3.715232	-0.506566	-0.088529
H44	H	-4.101857	-0.731921	-0.096966
