data_functionalizedCrystal
_audit_creation_method	'MofGen! by Chris Wilmer'
_symmetry_space_group_name_H-M	'P1'
_symmetry_Int_Tables_number	1
_symmetry_cell_setting	triclinic
loop_
_symmetry_equiv_pos_as_xyz
  x,y,z
_cell_length_a	6.817900
_cell_length_b	11.102244
_cell_length_c	12.908943
_cell_angle_alpha	94.411609
_cell_angle_beta	100.860631
_cell_angle_gamma	108.604870
loop_
_atom_site_label
_atom_site_type_symbol
_atom_site_fract_x
_atom_site_fract_y
_atom_site_fract_z
V1	V	-4.022083	-0.174252	-0.328679
O2	O	-3.982824	0.010006	-0.322425
O3	O	-3.999467	-0.347083	-0.326429
O4	O	-3.959856	-0.170855	-0.472029
O5	O	-4.022709	-0.167441	-0.175817
V6	V	-4.504162	-0.152297	-0.310396
O7	O	-4.286510	-0.222412	-0.368785
O8	O	-4.689933	-0.104138	-0.270290
O9	O	-4.303572	0.020533	-0.312647
O10	O	-4.660818	-0.336555	-0.316650
O11	O	-4.620933	-0.159108	-0.463258
O12	O	-4.343183	-0.155694	-0.167046
C13	C	-3.851187	-0.389237	-0.321243
C14	C	-3.913890	-0.530524	-0.320358
C15	C	-3.909445	-0.579227	-0.223410
C16	C	-3.968373	-0.711983	-0.222591
C17	C	-4.036179	-0.747323	-0.415677
C18	C	-3.977267	-0.614570	-0.416495
C19	C	-3.870289	-0.558824	-0.111932
C20	C	-3.929217	-0.691580	-0.111113
C21	C	-3.800659	-0.164440	-0.506969
C22	C	-3.831235	-0.162807	-0.624158
C23	C	-4.253824	-0.172349	-0.855104
C24	C	-4.282562	-0.170815	-0.965214
C25	C	-3.917450	-0.158195	-0.954488
C26	C	-3.888711	-0.159729	-0.844379
C27	C	-4.056907	-0.166809	-0.794691
C28	C	-4.028170	-0.168352	-0.684580
C29	C	-3.663055	-0.155723	-0.673855
C30	C	-3.691794	-0.154189	-0.783965
C31	C	-4.115195	0.062681	-0.317830
C32	C	-4.031730	0.203966	-0.318721
C33	C	-4.165723	-0.162113	-0.132101
C34	C	-4.114385	-0.163740	-0.014911
H35	H	-3.980907	-0.574923	-0.495441
C36	C	-4.105870	-0.839775	-0.521418
H37	H	-4.140308	-0.925814	-0.507048
H38	H	-4.226943	-0.829404	-0.564588
H39	H	-3.993316	-0.821152	-0.557850
C40	C	-4.018035	-0.506299	-0.060084
H41	H	-4.118761	-0.574781	-0.038192
H42	H	-3.936331	-0.443942	0.000169
H43	H	-4.090285	-0.467799	-0.110321
C44	C	-3.741170	-0.723001	-0.047553
H45	H	-3.781175	-0.813088	-0.046992
H46	H	-3.623553	-0.695388	-0.080029
H47	H	-3.702799	-0.679926	0.023584
C48	C	-3.633831	-0.487734	-0.059920
H49	H	-3.569301	-0.547940	-0.036186
H50	H	-3.564772	-0.444304	-0.110621
H51	H	-3.621546	-0.427112	-0.000848
C52	C	-4.132851	-0.745557	-0.069655
H53	H	-4.182753	-0.677729	-0.051753
H54	H	-4.238621	-0.808115	-0.123466
H55	H	-4.102788	-0.784111	-0.008152
H56	H	-3.502710	-0.151216	-0.624655
C57	C	-4.213166	-0.176138	-0.629919
H58	H	-4.167860	-0.176271	-0.555690
H59	H	-4.257006	-0.104069	-0.640536
H60	H	-4.328763	-0.252898	-0.659803
C61	C	-4.499176	-0.176926	-1.031668
H62	H	-4.595228	-0.181373	-0.986303
H63	H	-4.482117	-0.102185	-1.065220
H64	H	-4.553847	-0.251014	-1.084471
H65	H	-4.390782	-0.178127	-0.814650
H66	H	-3.780518	-0.152423	-0.994962
H67	H	-3.554859	-0.148420	-0.824435
