data_functionalizedCrystal
_audit_creation_method	'MofGen! by Chris Wilmer'
_symmetry_space_group_name_H-M	'P1'
_symmetry_Int_Tables_number	1
_symmetry_cell_setting	triclinic
loop_
_symmetry_equiv_pos_as_xyz
  x,y,z
_cell_length_a	19.851628
_cell_length_b	18.426585
_cell_length_c	19.851628
_cell_angle_alpha	60.006760
_cell_angle_beta	90.005228
_cell_angle_gamma	59.997326
loop_
_atom_site_label
_atom_site_type_symbol
_atom_site_fract_x
_atom_site_fract_y
_atom_site_fract_z
Zr1	Zr	0.648976	0.794257	-0.088289
O2	O	0.541412	0.945656	-0.195851
O3	O	0.681951	0.642857	-0.055319
O4	O	0.681954	0.794239	-0.195839
O5	O	0.541405	0.794288	0.055518
O6	O	0.792816	0.794225	-0.195826
O7	O	0.541408	0.794274	-0.055331
O8	O	0.792810	0.523431	0.055539
O9	O	0.541411	1.065083	-0.195847
O10	O	0.778748	0.705120	-0.041244
O11	O	0.696011	0.705140	0.041472
O12	O	0.696015	0.883373	-0.123973
O13	O	0.613278	0.883394	-0.041257
Zr14	Zr	0.825782	0.794257	0.088523
Zr15	Zr	0.825788	0.794234	-0.088268
Zr16	Zr	0.648971	0.794279	0.088502
Zr17	Zr	0.648975	0.984728	-0.088283
Zr18	Zr	0.825783	0.603785	0.088517
O19	O	0.792808	0.945656	0.055553
O20	O	0.792815	0.945624	-0.195821
O21	O	0.541404	0.945688	0.055523
O22	O	0.933347	0.642857	0.196085
O23	O	0.933354	0.642825	-0.055289
O24	O	0.681943	0.642889	0.196055
O25	O	0.933354	0.794225	-0.055283
O26	O	0.792804	0.794274	0.196074
O27	O	0.681942	0.794288	0.196060
O28	O	0.933350	0.794239	0.055565
O29	O	0.681953	1.065065	-0.195830
O30	O	0.792805	0.523449	0.196064
O31	O	0.933347	0.523431	0.196081
O32	O	0.933352	0.523413	0.055556
O33	O	0.541407	1.065100	-0.055322
O34	O	0.681949	1.065083	-0.055305
O35	O	0.778743	0.705140	0.124207
O36	O	0.861481	0.705120	0.041492
O37	O	0.778748	0.883373	-0.041237
O38	O	0.696010	0.883394	0.041478
C39	C	0.737380	0.556006	0.000109
C40	C	0.737381	0.475146	0.000106
C41	C	0.737376	0.179036	0.000130
C42	C	0.737375	0.261423	0.000125
C43	C	0.737378	0.327089	0.000118
C44	C	0.737378	0.409480	0.000114
C45	C	0.516215	0.794285	0.000090
C46	C	0.441153	0.794294	0.000081
C47	C	0.214699	0.891463	-0.044999
C48	C	0.192339	0.842873	-0.077687
C49	C	0.303747	0.794268	0.000105
C50	C	0.192366	0.842864	0.032778
C51	C	0.171015	0.794249	0.000127
C52	C	0.282375	0.745677	-0.032629
C53	C	0.282400	0.745682	0.077879
C54	C	0.260093	0.697021	0.045210
C55	C	0.380209	0.794281	0.000090
C56	C	0.094558	0.794228	0.000141
C57	C	0.958544	0.794229	0.000144
C58	C	1.033605	0.794219	0.000153
C59	C	0.737386	0.794229	-0.221021
C60	C	0.737388	0.794219	-0.296074
C61	C	0.737378	1.032507	0.000125
C62	C	0.737378	1.113368	0.000128
C63	C	0.782495	0.697051	-0.432333
C64	C	0.704702	0.745641	-0.499793
C65	C	0.737380	0.794246	-0.433505
C66	C	0.815158	0.745650	-0.499779
C67	C	0.737379	0.794264	-0.566254
C68	C	0.659541	0.842836	-0.499978
C69	C	0.770053	0.842831	-0.499953
C70	C	0.692213	0.891492	-0.567427
C71	C	0.737382	0.794232	-0.357031
C72	C	0.737369	0.794285	-0.642731
C73	C	0.737373	0.794285	0.221256
C74	C	0.737370	0.794294	0.296308
C75	C	0.958545	0.555978	0.000136
C76	C	1.033607	0.475108	0.000142
C77	C	0.737374	0.556034	0.221247
C78	C	0.737372	0.475183	0.296297
C79	C	0.958538	0.556006	0.221274
C80	C	1.033598	0.475146	0.296333
C81	C	0.516220	1.032507	-0.221040
C82	C	0.441161	1.113368	-0.296099
C83	C	0.516214	1.032535	0.000098
C84	C	0.441152	1.113405	0.000092
C85	C	0.737385	1.032479	-0.221013
C86	C	0.737387	1.113330	-0.296063
C87	C	1.025671	0.437131	-0.043049
C88	C	1.096192	0.361156	-0.043060
C89	C	1.174649	0.323154	0.000126
C90	C	1.182583	0.361139	0.043319
C91	C	1.112062	0.437118	0.043324
C92	C	0.780556	0.437215	0.374736
C93	C	0.780551	0.361258	0.445259
C94	C	0.737366	0.323265	0.437343
C95	C	0.694176	0.361241	0.358896
C96	C	0.694177	0.437202	0.288374
C97	C	1.112042	0.437162	0.288405
C98	C	1.182575	0.361196	0.358924
C99	C	1.174662	0.323210	0.437370
C100	C	1.096209	0.361201	0.445297
C101	C	1.025678	0.437171	0.374778
C102	C	0.362717	1.151360	-0.288171
C103	C	0.292184	1.227350	-0.358690
C104	C	0.300097	1.265340	-0.437136
C105	C	0.378549	1.227344	-0.445062
C106	C	0.449080	1.151361	-0.374544
C107	C	0.449088	1.151390	0.043276
C108	C	0.378566	1.227386	0.043267
C109	C	0.300110	1.265391	0.000079
C110	C	0.292175	1.227402	-0.043111
C111	C	0.362696	1.151413	-0.043106
C112	C	0.780580	1.151299	-0.288120
C113	C	0.780598	1.227256	-0.358630
C114	C	0.737417	1.265249	-0.437083
C115	C	0.694222	1.227273	-0.445024
C116	C	0.694210	1.151312	-0.374514
H117	H	0.196248	0.973645	-0.083195
H118	H	0.385042	1.258304	0.078440
Br119	Br	0.635615	1.278855	-0.551502
Br120	Br	0.127655	0.911326	-0.187296
H121	H	0.815723	0.468140	0.381197
Br122	Br	0.351911	1.099866	-0.101715
H123	H	0.659016	0.330296	0.352463
Br124	Br	0.185692	1.278988	-0.101718
Br125	Br	1.289067	0.309551	0.101928
Br126	Br	0.549856	0.911265	-0.499002
Br127	Br	1.289035	0.309650	0.348147
Br128	Br	0.816150	0.911235	-0.498771
H129	H	0.356258	1.120433	-0.224302
Br130	Br	0.839172	0.309734	0.551712
Br131	Br	0.839190	1.099754	-0.181658
H132	H	0.228312	1.258274	-0.352220
Br133	Br	0.635567	0.488717	0.181924
H134	H	1.118500	0.468079	0.224536
Br135	Br	1.270392	0.220106	0.533066
Br136	Br	1.085484	0.309638	0.551766
H137	H	0.242659	1.327210	-0.494549
Br138	Br	0.839220	1.278783	-0.347833
H139	H	0.961808	0.468087	0.381245
H140	H	0.384982	1.258286	-0.508942
Br141	Br	0.635576	1.099800	-0.385309
Br142	Br	0.555538	1.099803	-0.385319
Br143	Br	0.127691	0.911370	0.078818
H144	H	0.321071	0.704622	-0.060328
Br145	Br	0.555556	1.099833	0.101894
Br146	Br	0.845983	0.560078	-0.335934
Br147	Br	1.122847	0.488644	0.101952
H148	H	1.089716	0.330238	-0.078232
Br149	Br	0.291017	0.559971	0.108731
H150	H	0.242694	1.327266	0.000082
H151	H	0.321206	0.704645	0.143629
H152	H	0.654007	0.973742	-0.625169
Br153	Br	0.658629	0.677190	-0.500928
Br154	Br	0.924788	0.677144	-0.500867
H155	H	0.961794	0.468071	-0.078227
H156	H	1.232065	0.261287	0.000116
H157	H	0.737372	0.261413	0.494773
H158	H	0.737434	1.327102	-0.494489
