data_functionalizedCrystal
_audit_creation_method	'MofGen! by Chris Wilmer'
_symmetry_space_group_name_H-M	'P1'
_symmetry_Int_Tables_number	1
_symmetry_cell_setting	triclinic
loop_
_symmetry_equiv_pos_as_xyz
  x,y,z
_cell_length_a	13.032721
_cell_length_b	18.215407
_cell_length_c	18.215399
_cell_angle_alpha	89.980167
_cell_angle_beta	97.154738
_cell_angle_gamma	97.205008
loop_
_atom_site_label
_atom_site_type_symbol
_atom_site_fract_x
_atom_site_fract_y
_atom_site_fract_z
Zn1	Zn	-0.416041	1.087881	-0.453320
Zn2	Zn	-0.590804	1.072167	-0.345882
Zn3	Zn	-0.416075	0.964810	-0.330271
Zn4	Zn	-0.590746	0.949162	-0.468902
O5	O	-0.503417	1.018505	-0.399594
O6	O	-0.439234	1.188780	-0.439081
O7	O	-0.567665	1.057898	-0.240831
O8	O	-0.269831	0.994261	-0.333539
O9	O	-0.567632	1.177235	-0.360147
O10	O	-0.269806	1.084681	-0.423943
O11	O	-0.439292	0.979024	-0.229361
O12	O	-0.439236	0.859751	-0.348648
O13	O	-0.567533	0.967591	-0.569816
O14	O	-0.567566	0.848254	-0.450500
O15	O	-0.439177	1.069507	-0.558368
O16	O	-0.737036	1.042724	-0.375256
O17	O	-0.736993	0.952353	-0.465638
C18	C	-0.503399	0.827300	-0.399571
C19	C	-0.503416	0.745500	-0.399581
C20	C	-0.570343	0.551329	-0.452566
C21	C	-0.570346	0.474470	-0.452575
C22	C	-0.436510	0.486431	-0.346640
C23	C	-0.436502	0.563289	-0.346634
C24	C	-0.503424	0.595736	-0.399597
C25	C	-0.503435	0.442019	-0.399612
C26	C	-0.503438	0.358685	-0.399621
C27	C	-0.503420	0.679075	-0.399588
C28	C	-0.774933	0.994156	-0.423847
C29	C	-0.891089	0.983806	-0.434248
C30	C	-0.942861	1.023945	-0.394199
C31	C	-1.062914	1.013250	-0.404947
C32	C	-0.230840	1.042969	-0.375262
C33	C	-0.114684	1.053395	-0.364893
C34	C	-0.503345	1.018556	-0.591540
C35	C	-0.503314	1.018578	-0.673337
C36	C	-0.503435	1.210456	-0.399617
C37	C	-0.503443	1.292254	-0.399627
C38	C	-0.436417	1.071668	-0.855565
C39	C	-0.436386	1.071680	-0.932421
C40	C	-0.570049	0.965554	-0.944331
C41	C	-0.570074	0.965540	-0.867476
C42	C	-0.503259	1.018601	-0.823095
C43	C	-0.503204	1.018627	-0.976807
C44	C	-0.503172	1.018639	-1.060137
C45	C	-0.503290	1.018589	-0.739759
C46	C	-0.503413	1.018503	-0.208387
C47	C	-0.503149	1.018650	-0.126565
H48	H	-0.624836	0.438318	-0.495709
H49	H	-0.624504	0.922321	-0.841039
O50	O	-0.371563	0.454984	-0.295094
C51	C	-0.394285	0.471683	-0.223748
H52	H	-0.434446	0.523887	-0.225761
H53	H	-0.447977	0.423604	-0.203700
C54	C	-0.243001	0.420235	-0.167705
C55	C	-0.292320	0.484356	-0.170176
H56	H	-0.180106	0.428050	-0.134658
H57	H	-0.227694	0.408982	-0.215772
H58	H	-0.287755	0.380176	-0.151001
H59	H	-0.247572	0.524412	-0.186889
H60	H	-0.307617	0.495617	-0.122110
O61	O	-0.889670	1.074289	-0.343717
C62	C	-0.826606	1.037994	-0.290555
H63	H	-0.859641	0.977113	-0.288892
H64	H	-0.743908	1.042761	-0.305958
C65	C	-0.784229	1.148926	-0.215965
C66	C	-0.824809	1.074152	-0.213918
H67	H	-0.783115	1.171231	-0.168692
H68	H	-0.826713	1.173379	-0.251782
H69	H	-0.715318	1.152888	-0.228804
H70	H	-0.893723	1.070192	-0.201088
H71	H	-0.782336	1.049699	-0.178096
O72	O	-0.634991	0.913946	-0.987334
C73	C	-0.694012	0.867116	-0.942193
H74	H	-0.651222	0.868395	-0.883589
H75	H	-0.773382	0.886945	-0.941105
C76	C	-0.761622	0.785874	-1.045498
C77	C	-0.709063	0.787441	-0.973521
H78	H	-0.770912	0.736727	-1.064824
H79	H	-0.721862	0.817426	-1.075912
H80	H	-0.827758	0.802402	-1.044582
H81	H	-0.642924	0.770922	-0.974440
H82	H	-0.748812	0.755884	-0.943108
O83	O	-0.635374	0.582733	-0.504088
C84	C	-0.694455	0.527052	-0.550831
H85	H	-0.651659	0.476103	-0.549605
H86	H	-0.773778	0.511755	-0.530881
C87	C	-0.762209	0.618292	-0.632002
C88	C	-0.709642	0.555718	-0.630501
H89	H	-0.771582	0.635974	-0.681145
H90	H	-0.722408	0.655805	-0.600509
H91	H	-0.828306	0.605536	-0.615373
H92	H	-0.643541	0.568477	-0.647120
H93	H	-0.749432	0.518207	-0.661998
O94	O	-0.371640	0.606498	-0.295152
C95	C	-0.431051	0.645597	-0.252847
H96	H	-0.510293	0.650014	-0.285791
H97	H	-0.442437	0.614936	-0.199314
C98	C	-0.276198	0.718333	-0.193985
C99	C	-0.373521	0.723763	-0.234450
H100	H	-0.240711	0.766548	-0.182634
H101	H	-0.236171	0.691989	-0.222484
H102	H	-0.285701	0.692779	-0.149379
H103	H	-0.364017	0.749308	-0.279060
H104	H	-0.413546	0.750113	-0.205958
H105	H	-0.935643	0.941526	-0.476495
O106	O	-1.061502	1.103742	-0.314406
C107	C	-0.998439	1.067450	-0.261241
H108	H	-1.031470	1.006568	-0.259580
H109	H	-0.915739	1.072220	-0.276640
C110	C	-0.956079	1.178382	-0.186650
C111	C	-0.996653	1.103606	-0.184605
H112	H	-0.954972	1.200686	-0.139378
H113	H	-0.998562	1.202833	-0.222469
H114	H	-0.887166	1.182347	-0.199486
H115	H	-1.065569	1.099643	-0.171779
H116	H	-0.954181	1.079155	-0.148782
H117	H	-1.107465	0.970967	-0.447198
O118	O	-0.371656	1.123268	-0.812432
C119	C	-0.431160	1.165445	-0.773277
H120	H	-0.513460	1.162617	-0.803783
H121	H	-0.434779	1.142356	-0.715348
C122	C	-0.279015	1.250001	-0.730085
C123	C	-0.380095	1.246533	-0.767556
H124	H	-0.247515	1.300019	-0.726553
H125	H	-0.238925	1.221584	-0.756462
H126	H	-0.282045	1.230756	-0.681815
H127	H	-0.377063	1.265769	-0.815829
H128	H	-0.420184	1.274955	-0.741188
H129	H	-0.381955	1.114891	-0.958854
