data_functionalizedCrystal
_audit_creation_method	'MofGen! by Chris Wilmer'
_symmetry_space_group_name_H-M	'P1'
_symmetry_Int_Tables_number	1
_symmetry_cell_setting	triclinic
loop_
_symmetry_equiv_pos_as_xyz
  x,y,z
_cell_length_a	17.640112
_cell_length_b	17.637651
_cell_length_c	12.759393
_cell_angle_alpha	78.749835
_cell_angle_beta	101.175334
_cell_angle_gamma	114.329102
loop_
_atom_site_label
_atom_site_type_symbol
_atom_site_fract_x
_atom_site_fract_y
_atom_site_fract_z
Zn1	Zn	1.193568	-0.073124	-0.254158
Zn2	Zn	1.165614	-0.211021	-0.048876
Zn3	Zn	1.055747	-0.101062	-0.107948
Zn4	Zn	1.027889	-0.238838	-0.253976
O5	O	1.110705	-0.156011	-0.166240
O6	O	1.305177	-0.068083	-0.202281
O7	O	1.151000	-0.196485	0.090312
O8	O	1.097386	0.018013	-0.152141
O9	O	1.284640	-0.169395	-0.051462
O10	O	1.198643	0.038540	-0.259560
O11	O	1.070281	-0.115699	0.046912
O12	O	0.936734	-0.142672	-0.151965
O13	O	1.049907	-0.216804	-0.401024
O14	O	0.916267	-0.243895	-0.259251
O15	O	1.171630	-0.095055	-0.401158
O16	O	1.123988	-0.330081	-0.051286
O17	O	1.022801	-0.350517	-0.201972
C18	C	0.896600	-0.199334	-0.211999
C19	C	0.805001	-0.217888	-0.231596
C20	C	0.556988	-0.015046	-0.017377
C21	C	0.470913	-0.032497	-0.035802
C22	C	0.449626	-0.138045	-0.147256
C23	C	0.535701	-0.120601	-0.128845
C24	C	0.589375	-0.059101	-0.063904
C25	C	0.568088	-0.164655	-0.175371
C26	C	0.654155	-0.147215	-0.156957
C27	C	0.707834	-0.085720	-0.092016
C28	C	0.675442	-0.041660	-0.045489
C29	C	0.514412	-0.226159	-0.240306
C30	C	0.546799	-0.270214	-0.286833
C31	C	0.632868	-0.252769	-0.268425
C32	C	0.686547	-0.191274	-0.203484
C33	C	0.665260	-0.296829	-0.314951
C34	C	0.751327	-0.279388	-0.296537
C35	C	0.772614	-0.173834	-0.185069
C36	C	1.067360	-0.370208	-0.120217
C37	C	1.048893	-0.461828	-0.100547
C38	C	1.251535	-0.709467	-0.315885
C39	C	1.234156	-0.795562	-0.297390
C40	C	1.128787	-0.817029	-0.185389
C41	C	1.146161	-0.730933	-0.203871
C42	C	1.207534	-0.677158	-0.269120
C43	C	1.102160	-0.698625	-0.157106
C44	C	1.119529	-0.612537	-0.175591
C45	C	1.180899	-0.558757	-0.240841
C46	C	1.224903	-0.591070	-0.287606
C47	C	1.040783	-0.752402	-0.091863
C48	C	0.996782	-0.720094	-0.045098
C49	C	1.014155	-0.634004	-0.063577
C50	C	1.075524	-0.580224	-0.128826
C51	C	0.970150	-0.601691	-0.016812
C52	C	0.987519	-0.515603	-0.035297
C53	C	1.092893	-0.494136	-0.147312
C54	C	1.325645	-0.112519	-0.120302
C55	C	1.417239	-0.093986	-0.100726
C56	C	1.110779	-0.155916	-0.440279
C57	C	1.110811	-0.155876	-0.557058
C58	C	1.154240	0.059027	-0.212460
C59	C	1.172793	0.150664	-0.232157
C60	C	1.174201	-0.092475	-0.611990
C61	C	1.174226	-0.092441	-0.721717
C62	C	1.047469	-0.219217	-0.721567
C63	C	1.047440	-0.219247	-0.611844
C64	C	1.247385	-0.019283	-0.612077
C65	C	1.247411	-0.019250	-0.721803
C66	C	1.110690	-0.156037	0.106731
C67	C	1.110865	-0.155812	0.223493
H68	H	0.719150	0.008431	0.007374
H69	H	0.951689	-0.489298	0.002782
H70	H	1.243216	0.041104	-0.599686
H71	H	0.503085	-0.320289	-0.339704
N72	N	1.321484	-0.033513	-0.543393
H73	H	1.375231	0.012525	-0.565795
H74	H	1.318732	-0.033112	-0.465184
H75	H	1.195040	-0.488659	-0.255889
N76	N	0.979054	-0.287631	-0.552621
H77	H	1.004778	-0.319087	-0.491720
H78	H	0.947660	-0.261802	-0.522542
H79	H	0.946810	-0.763889	0.008025
H80	H	1.026635	-0.822501	-0.076826
H81	H	1.142876	-0.450348	-0.200436
H82	H	1.301518	-0.665679	-0.369009
N83	N	0.903955	-0.659694	0.053558
H84	H	0.899627	-0.719133	0.058169
H85	H	0.919848	-0.642078	0.128104
H86	H	0.995873	-0.270810	-0.766189
H87	H	0.621545	-0.346907	-0.367818
H88	H	1.236837	0.036790	-0.773764
H89	H	1.307779	-0.023430	-0.734264
N90	N	1.062598	-0.875030	-0.115010
H91	H	1.058271	-0.934469	-0.110392
H92	H	1.078498	-0.857407	-0.040467
H93	H	0.777915	-0.071522	-0.077022
N94	N	0.830512	-0.107494	-0.115034
H95	H	0.812933	-0.123267	-0.040413
H96	H	0.889928	-0.103163	-0.110517
H97	H	1.274886	-0.547283	-0.340730
N98	N	0.786266	-0.326904	-0.346711
H99	H	0.739205	-0.368508	-0.390647
H100	H	0.828773	-0.286149	-0.394956
H101	H	0.444550	0.003388	0.002082
N102	N	0.614890	0.051293	0.052656
H103	H	0.581316	0.076561	0.079335
H104	H	0.643804	0.025011	0.116184
H105	H	0.405913	-0.188121	-0.200128
H106	H	1.269979	-0.821865	-0.335493
N107	N	0.421580	-0.244981	-0.260162
H108	H	0.412276	-0.192652	-0.296183
H109	H	0.392555	-0.290654	-0.308322
