data_functionalizedCrystal
_audit_creation_method	'MofGen! by Chris Wilmer'
_symmetry_space_group_name_H-M	'P1'
_symmetry_Int_Tables_number	1
_symmetry_cell_setting	triclinic
loop_
_symmetry_equiv_pos_as_xyz
  x,y,z
_cell_length_a	17.638686
_cell_length_b	12.759399
_cell_length_c	12.759393
_cell_angle_alpha	90.032031
_cell_angle_beta	78.784020
_cell_angle_gamma	101.217379
loop_
_atom_site_label
_atom_site_type_symbol
_atom_site_fract_x
_atom_site_fract_y
_atom_site_fract_z
Zn1	Zn	1.208525	0.743446	-0.918239
Zn2	Zn	1.208445	0.919143	-0.742536
Zn3	Zn	1.076332	0.707924	-0.707109
Zn4	Zn	1.076322	0.883504	-0.882728
O5	O	1.142406	0.813504	-0.812653
O6	O	1.319131	0.796533	-0.924619
O7	O	1.190890	0.891173	-0.590807
O8	O	1.093905	0.565625	-0.735151
O9	O	1.319072	0.925617	-0.795531
O10	O	1.191027	0.591723	-0.890267
O11	O	1.093827	0.735992	-0.564780
O12	O	0.965714	0.701434	-0.700718
O13	O	1.093889	0.864876	-1.034467
O14	O	0.965707	0.830432	-0.829744
O15	O	1.191018	0.761976	-1.060557
O16	O	1.190881	1.061426	-0.761097
O17	O	1.093811	1.035243	-0.864095
C18	C	0.937029	0.758212	-0.757534
C19	C	0.849167	0.734584	-0.733978
C20	C	0.560294	0.993239	-0.991864
C21	C	0.477735	0.971027	-0.969704
C22	C	0.477708	0.836492	-0.835558
C23	C	0.560269	0.858697	-0.857703
C24	C	0.601555	0.937070	-0.935858
C25	C	0.601531	0.802528	-0.801697
C26	C	0.684084	0.824727	-0.823844
C27	C	0.725376	0.903095	-0.901998
C28	C	0.684109	0.959269	-0.958006
C29	C	0.560243	0.724150	-0.723547
C30	C	0.601505	0.667981	-0.667541
C31	C	0.684060	0.690185	-0.689683
C32	C	0.725352	0.768553	-0.767837
C33	C	0.725327	0.634011	-0.633675
C34	C	0.807881	0.656210	-0.655823
C35	C	0.807905	0.790752	-0.789984
C36	C	1.142357	1.086459	-0.812616
C37	C	1.142409	1.203249	-0.812655
C38	C	1.142461	0.813413	-1.086701
C39	C	1.142485	0.813374	-1.203484
C40	C	1.348585	0.869013	-0.867988
C41	C	1.436447	0.892667	-0.891568
C42	C	1.142476	0.539490	-0.812719
C43	C	1.142506	0.422721	-0.812747
C44	C	1.193011	1.271725	-0.759115
C45	C	1.193062	1.381463	-0.759164
C46	C	1.091902	1.354237	-0.866293
C47	C	1.091856	1.244502	-0.866250
C48	C	1.286365	1.556453	-0.746808
C49	C	1.336960	1.624931	-0.693250
C50	C	1.349122	1.592666	-0.594003
C51	C	1.310677	1.491921	-0.548289
C52	C	1.260077	1.423447	-0.601840
C53	C	1.247930	1.455715	-0.701106
C54	C	0.998552	1.069510	-0.878595
C55	C	0.947946	1.001033	-0.932140
C56	C	0.935776	1.033294	-1.031386
C57	C	0.974206	1.134038	-1.077093
C58	C	1.024812	1.202515	-1.023548
C59	C	1.036983	1.170247	-0.924302
C60	C	1.091962	0.732563	-1.244798
C61	C	1.091981	0.732536	-1.354527
C62	C	1.193051	0.894134	-1.381621
C63	C	1.193028	0.894165	-1.271892
C64	C	0.998797	0.669858	-1.479478
C65	C	0.948282	0.589033	-1.520797
C66	C	0.936166	0.483268	-1.481958
C67	C	0.974577	0.458311	-1.401804
C68	C	1.025098	0.539132	-1.360492
C69	C	1.037199	0.644907	-1.399326
C70	C	1.286212	0.956833	-1.146940
C71	C	1.336738	1.037650	-1.105627
C72	C	1.348862	1.143419	-1.144466
C73	C	1.310465	1.168376	-1.224628
C74	C	1.259939	1.087558	-1.265940
C75	C	1.247814	0.981791	-1.227093
C76	C	1.142396	0.813532	-0.539683
C77	C	1.142526	0.813316	-0.422942
H78	H	0.444142	1.016768	-1.015321
C79	C	1.272756	0.840516	-1.104071
H80	H	1.237123	0.795971	-1.140103
H81	H	1.321560	0.817113	-1.116042
H82	H	1.251233	0.836714	-1.029574
H83	H	1.234201	0.959911	-1.437332
H84	H	0.493023	0.706073	-0.705523
H85	H	1.008648	0.755980	-1.511098
H86	H	0.917008	0.609363	-1.586059
H87	H	1.050807	0.666778	-1.189102
H88	H	1.276475	1.582728	-0.827630
H89	H	0.567878	0.604167	-0.603909
H90	H	0.444082	0.772678	-0.771926
C91	C	0.880109	0.957969	-1.090283
H92	H	0.858962	0.893348	-1.048852
H93	H	0.838369	0.991478	-1.100596
H94	H	0.908664	0.942600	-1.157737
C95	C	0.816184	0.927519	-0.926368
H96	H	0.834861	0.982232	-0.980941
H97	H	0.834844	0.950626	-0.863548
H98	H	0.834868	0.864762	-0.949674
C99	C	0.679910	0.547799	-0.547717
H100	H	0.716309	0.517520	-0.517538
H101	H	0.647685	0.579263	-0.493229
H102	H	0.647727	0.493409	-0.579365
C103	C	1.248624	1.226351	-0.700176
H104	H	1.278773	1.282856	-0.668306
H105	H	1.218390	1.175482	-0.646238
H106	H	1.283034	1.192741	-0.749634
H107	H	1.320578	1.465664	-0.467467
H108	H	0.841523	0.854577	-0.853621
H109	H	0.841477	0.610464	-0.610225
C110	C	1.036290	1.399617	-0.925229
H111	H	1.043558	1.474777	-0.917578
H112	H	1.047819	1.384670	-0.998923
H113	H	0.983175	1.367409	-0.895526
C114	C	1.067337	0.511693	-1.272318
H115	H	1.052883	0.437126	-1.255097
H116	H	1.122773	0.530863	-1.296997
H117	H	1.052393	0.550152	-1.210444
H118	H	0.964715	0.372183	-1.370196
H119	H	0.895035	0.417460	-1.515608
H120	H	1.228778	1.341422	-0.564622
H121	H	1.228676	1.107887	-1.331214
C122	C	1.011925	1.034029	-0.769410
H123	H	0.981775	0.964232	-0.749848
H124	H	1.066262	1.033537	-0.774062
H125	H	0.995965	1.082427	-0.716950
C126	C	1.323799	1.284720	-1.267356
H127	H	1.359384	1.329278	-1.231265
H128	H	1.345302	1.288679	-1.341857
H129	H	1.274937	1.307986	-1.255286
H130	H	0.717726	1.023094	-1.021642
H131	H	1.390012	1.209219	-1.110828
C132	C	1.067090	1.313333	-1.073821
H133	H	1.098966	1.349495	-1.027713
H134	H	1.099338	1.305005	-1.140951
H135	H	1.029042	1.353872	-1.083794
H136	H	0.593911	1.057064	-1.055501
C137	C	1.404778	1.667987	-0.535095
H138	H	1.425933	1.732602	-0.576535
H139	H	1.376228	1.683354	-0.467643
H140	H	1.446523	1.634477	-0.524787
H141	H	1.368261	1.706957	-0.730481
H142	H	0.964297	1.160306	-1.157908
H143	H	0.916659	0.918998	-0.894920
H144	H	1.368011	1.017319	-1.040365
