data_functionalizedCrystal
_audit_creation_method	'MofGen! by Chris Wilmer'
_symmetry_space_group_name_H-M	'P1'
_symmetry_Int_Tables_number	1
_symmetry_cell_setting	triclinic
loop_
_symmetry_equiv_pos_as_xyz
  x,y,z
_cell_length_a	10.654562
_cell_length_b	14.853559
_cell_length_c	9.130313
_cell_angle_alpha	90.000938
_cell_angle_beta	89.996930
_cell_angle_gamma	84.060779
loop_
_atom_site_label
_atom_site_type_symbol
_atom_site_fract_x
_atom_site_fract_y
_atom_site_fract_z
O1	O	1.666503	0.126677	-0.121888
O2	O	1.300901	0.138729	-0.121869
O3	O	1.493474	0.001525	-0.121877
O4	O	1.473931	0.263881	-0.121879
O5	O	1.493471	0.001529	0.121721
O6	O	1.300899	0.138733	0.121730
O7	O	1.666501	0.126681	0.121711
Cu8	Cu	1.483700	0.132707	0.143963
Cu9	Cu	1.483702	0.132703	-0.144121
O10	O	1.473929	0.263884	0.121719
C11	C	1.254112	0.137844	-0.000067
C12	C	1.114697	0.135189	-0.000060
C13	C	1.049178	0.133953	0.132714
C14	C	0.918181	0.131465	0.132690
C15	C	0.918234	0.131455	-0.132895
C16	C	1.049229	0.133935	-0.132869
C17	C	1.049145	0.133963	0.286048
C18	C	0.918149	0.131475	0.286023
C19	C	1.492589	-0.032066	-0.000081
C20	C	1.489941	-0.132165	-0.000089
C21	C	1.478710	-0.555402	-0.132874
C22	C	1.478707	-0.555393	0.132707
C23	C	1.481205	-0.461346	0.132708
C24	C	1.482454	-0.414323	-0.000084
C25	C	1.481204	-0.461347	-0.132877
C26	C	1.482442	-0.414315	0.265499
C27	C	1.484939	-0.320262	0.265505
C28	C	1.486197	-0.273238	0.132711
C29	C	1.484948	-0.320267	-0.000087
C30	C	1.486197	-0.273244	-0.132879
C31	C	1.484958	-0.320273	-0.265679
C32	C	1.482462	-0.414322	-0.265671
C33	C	1.488692	-0.179188	0.132703
C34	C	1.488692	-0.179188	-0.132882
C35	C	1.713291	0.127566	-0.000094
C36	C	1.852705	0.130221	-0.000111
C37	C	1.474813	0.297476	-0.000081
C38	C	1.477461	0.397574	-0.000082
N39	N	1.483707	0.132710	0.346586
N40	N	1.483705	0.132693	-0.346744
C41	C	1.569000	0.071977	0.423234
C42	C	1.568996	0.071966	0.576571
C43	C	1.398403	0.193429	0.576598
C44	C	1.398402	0.193435	0.423263
C45	C	1.667494	0.001853	0.423220
C46	C	1.667491	0.001843	0.576556
H47	H	1.096055	0.071659	0.344931
H48	H	1.637661	-0.063642	0.624106
H49	H	1.646774	-0.067442	0.381601
O50	O	0.854750	0.130367	-0.261991
C51	C	0.800565	0.207598	-0.488953
C52	C	0.872540	0.208930	-0.342818
H53	H	0.814901	0.271118	-0.554329
H54	H	0.837724	0.145147	-0.554533
H55	H	0.695699	0.205567	-0.466128
H56	H	0.977416	0.210993	-0.365509
H57	H	0.835278	0.271373	-0.277283
H58	H	1.489714	-0.140909	-0.241019
O59	O	1.489707	-0.133582	0.261775
C60	C	1.381668	-0.095204	0.488696
C61	C	1.380383	-0.146916	0.342586
H62	H	1.293276	-0.105951	0.554060
H63	H	1.468921	-0.121399	0.554307
H64	H	1.383724	-0.019918	0.465836
H65	H	1.378282	-0.222210	0.365313
H66	H	1.293139	-0.120648	0.277020
H67	H	1.481452	-0.452621	-0.373789
H68	H	1.102572	0.134928	-0.240987
H69	H	1.758448	0.023814	0.375656
H70	H	1.328949	0.242869	0.639045
O71	O	1.315493	0.252511	0.349034
C72	C	1.146220	0.372935	0.365248
C73	C	1.240072	0.306093	0.449495
H74	H	1.085200	0.416262	0.446434
H75	H	1.200431	0.418410	0.293501
H76	H	1.083489	0.333567	0.293423
H77	H	1.302827	0.345388	0.521399
H78	H	1.185783	0.260619	0.521149
O79	O	1.477440	-0.600923	0.261824
C80	C	1.477784	-0.591003	0.525248
C81	C	1.479190	-0.539321	0.379122
H82	H	1.479225	-0.541223	0.620121
H83	H	1.388776	-0.627304	0.531995
H84	H	1.564409	-0.642762	0.531798
H85	H	1.392626	-0.487519	0.372473
H86	H	1.568254	-0.503082	0.372437
H87	H	1.078034	0.199715	0.333624
O88	O	1.782476	0.020114	0.626289
C89	C	1.966312	-0.032042	0.768402
C90	C	1.836135	-0.052858	0.712149
H91	H	2.009722	-0.091018	0.837857
H92	H	2.030639	-0.021775	0.671354
H93	H	1.954906	0.032119	0.837727
H94	H	1.847422	-0.117027	0.642848
H95	H	1.771855	-0.063068	0.809262
O96	O	0.883869	0.053008	0.342892
C97	C	0.953651	-0.091950	0.449581
C98	C	0.992649	-0.003122	0.385249
H99	H	1.041579	-0.137364	0.483815
H100	H	0.890592	-0.076218	0.549137
H101	H	0.899901	-0.128055	0.363308
H102	H	1.046449	0.033027	0.471414
H103	H	1.055648	-0.018914	0.285661
O104	O	0.862341	0.205879	0.356219
C105	C	0.892278	0.343880	0.484313
C106	C	0.955640	0.259675	0.404829
H107	H	0.967683	0.387387	0.523663
H108	H	0.825482	0.384808	0.405859
H109	H	0.836752	0.321743	0.582357
H110	H	1.011232	0.281731	0.306790
H111	H	1.022364	0.218766	0.483380
H112	H	1.485965	-0.281973	-0.373798
H113	H	1.477706	-0.593698	-0.240996
H114	H	1.485953	-0.281980	0.373639
H115	H	1.481419	-0.452607	0.373610
