data_functionalizedCrystal
_audit_creation_method	'MofGen! by Chris Wilmer'
_symmetry_space_group_name_H-M	'P1'
_symmetry_Int_Tables_number	1
_symmetry_cell_setting	triclinic
loop_
_symmetry_equiv_pos_as_xyz
  x,y,z
_cell_length_a	17.699083
_cell_length_b	17.699083
_cell_length_c	16.776229
_cell_angle_alpha	89.992455
_cell_angle_beta	89.998886
_cell_angle_gamma	83.283015
loop_
_atom_site_label
_atom_site_type_symbol
_atom_site_fract_x
_atom_site_fract_y
_atom_site_fract_z
O1	O	1.004078	0.095713	-0.066178
O2	O	1.504078	0.595713	0.433822
O3	O	0.783700	0.108165	-0.066204
O4	O	1.283700	0.608165	0.433796
O5	O	0.900116	-0.008250	-0.066183
O6	O	1.400116	0.491750	0.433817
O7	O	0.887663	0.212128	-0.066199
O8	O	1.387663	0.712128	0.433801
O9	O	0.900100	-0.008257	0.066393
O10	O	1.400100	0.491743	0.566393
O11	O	0.783685	0.108158	0.066372
O12	O	1.283685	0.608158	0.566372
O13	O	1.004063	0.095706	0.066398
O14	O	1.504063	0.595706	0.566398
Zn15	Zn	0.893871	0.101931	0.087435
Zn16	Zn	1.393871	0.601931	0.587435
Zn17	Zn	0.893892	0.101940	-0.087241
Zn18	Zn	1.393892	0.601940	0.412759
O19	O	0.887648	0.212121	0.066378
O20	O	1.387648	0.712121	0.566378
C21	C	0.755495	0.107716	0.000081
C22	C	1.255495	0.607716	0.500081
C23	C	0.671477	0.106377	0.000071
C24	C	1.171477	0.606377	0.500071
C25	C	0.622856	0.174710	0.000066
C26	C	1.122856	0.674710	0.500066
C27	C	0.543913	0.173448	0.000077
C28	C	1.043913	0.673448	0.500077
C29	C	0.513592	0.103852	0.000086
C30	C	1.013592	0.603852	0.500086
C31	C	0.562219	0.035513	0.000093
C32	C	1.062219	0.535513	0.500093
C33	C	0.641161	0.036776	0.000088
C34	C	1.141161	0.536776	0.500088
C35	C	0.243856	0.030418	0.000113
C36	C	0.743856	0.530418	0.500113
C37	C	0.164908	0.029160	0.000115
C38	C	0.664908	0.529160	0.500115
C39	C	0.146608	0.167090	0.000101
C40	C	0.646608	0.667090	0.500101
C41	C	0.225550	0.168353	0.000097
C42	C	0.725550	0.668353	0.500097
C43	C	0.274170	0.100015	0.000108
C44	C	0.774170	0.600015	0.500108
C45	C	0.359769	0.101384	0.000098
C46	C	0.859769	0.601384	0.500098
C47	C	0.427995	0.102481	0.000090
C48	C	0.927995	0.602481	0.500090
C49	C	0.899662	-0.036451	0.000105
C50	C	1.399662	0.463549	0.500105
C51	C	0.898323	-0.120469	0.000105
C52	C	1.398323	0.379531	0.500105
C53	C	0.966656	-0.169090	0.000114
C54	C	1.466656	0.330910	0.500114
C55	C	0.965394	-0.248033	0.000107
C56	C	1.465394	0.251967	0.500107
C57	C	0.895798	-0.278354	0.000096
C58	C	1.395798	0.221646	0.500096
C59	C	0.827459	-0.229727	0.000085
C60	C	1.327459	0.270273	0.500085
C61	C	0.828722	-0.150785	0.000086
C62	C	1.328722	0.349215	0.500086
C63	C	0.822364	-0.548090	0.000078
C64	C	1.322364	-0.048090	0.500078
C65	C	0.821106	-0.627038	0.000078
C66	C	1.321106	-0.127038	0.500078
C67	C	0.959036	-0.645338	0.000099
C68	C	1.459036	-0.145338	0.500099
C69	C	0.960299	-0.566396	0.000100
C70	C	1.460299	-0.066396	0.500100
C71	C	0.891961	-0.517776	0.000084
C72	C	1.391961	-0.017776	0.500084
C73	C	0.893330	-0.432177	0.000090
C74	C	1.393330	0.067823	0.500090
C75	C	0.894427	-0.363951	0.000096
C76	C	1.394427	0.136049	0.500096
C77	C	1.032268	0.096156	0.000112
C78	C	1.532268	0.596156	0.500112
C79	C	1.116286	0.097494	0.000116
C80	C	1.616286	0.597494	0.500116
C81	C	0.888102	0.240322	0.000087
C82	C	1.388102	0.740322	0.500087
C83	C	0.889440	0.324340	0.000082
C84	C	1.389440	0.824340	0.500082
N85	N	0.893863	0.101924	0.206646
N86	N	1.393863	0.601924	0.706646
N87	N	0.893906	0.101941	-0.206452
N88	N	1.393906	0.601941	0.293548
C89	C	0.945428	0.050396	0.248372
C90	C	1.445428	0.550396	0.748372
C91	C	0.945432	0.050396	0.331824
C92	C	1.445432	0.550396	0.831824
C93	C	0.893875	0.101927	0.373549
C94	C	1.393875	0.601927	0.873549
C95	C	0.842305	0.153457	0.331817
C96	C	1.342305	0.653457	0.831817
C97	C	0.842297	0.153454	0.248366
C98	C	1.342297	0.653454	0.748366
C99	C	0.842332	0.153472	0.668364
C100	C	1.342332	0.653472	1.168364
C101	C	0.842345	0.153473	0.751820
C102	C	1.342345	0.653473	1.251820
C103	C	0.945466	0.050414	0.751822
C104	C	1.445466	0.550414	1.251822
C105	C	0.945459	0.050411	0.668372
C106	C	1.445459	0.550411	1.168372
C107	C	0.893887	0.101938	0.626647
C108	C	1.393887	0.601938	1.126647
C109	C	0.893882	0.101937	0.536158
C110	C	1.393882	0.601937	1.036158
C111	C	0.893882	0.101932	0.464036
C112	C	1.393882	0.601932	0.964036
H113	H	1.023330	-0.144409	0.000128
H114	H	1.523330	0.355591	0.500128
C115	C	0.490433	0.248615	0.000069
C116	C	0.990433	0.748615	0.500069
H117	H	0.519797	0.290244	0.000053
H118	H	1.019797	0.790244	0.500053
H119	H	0.459260	0.250991	0.046304
H120	H	0.959260	0.750991	0.546304
H121	H	0.459255	0.250989	-0.046167
H122	H	0.959255	0.750989	0.453833
H123	H	0.770792	-0.254420	0.000071
H124	H	1.270792	0.245580	0.500071
H125	H	0.987419	0.008438	0.365798
H126	H	1.487419	0.508438	0.865798
H127	H	0.800308	0.195412	0.214393
H128	H	1.300308	0.695412	0.714393
C129	C	0.747197	-0.494614	0.000060
C130	C	1.247197	0.005386	0.500060
H131	H	0.757912	-0.443256	0.000051
H132	H	1.257912	0.056744	0.500051
H133	H	0.718643	-0.503794	0.046286
H134	H	1.218643	-0.003794	0.546286
H135	H	0.718666	-0.503793	-0.046185
H136	H	1.218666	-0.003793	0.453815
H137	H	0.140225	-0.027517	0.000124
H138	H	0.640225	0.472483	0.500124
H139	H	0.283434	-0.025228	0.000123
H140	H	0.783434	0.474772	0.500123
H141	H	0.987457	0.008456	0.785804
H142	H	1.487457	0.508456	1.285804
H143	H	0.647537	0.231384	0.000058
H144	H	1.147537	0.731384	0.500058
H145	H	0.250232	0.225025	0.000085
H146	H	0.750232	0.725025	0.500085
H147	H	0.107012	0.222734	0.000097
H148	H	0.607012	0.722734	0.500097
C149	C	0.528869	-0.041041	0.000102
C150	C	1.028869	0.458959	0.500102
H151	H	0.474890	-0.032008	0.000095
H152	H	0.974890	0.467992	0.500095
H153	H	0.545567	-0.069176	0.046335
H154	H	1.045567	0.430824	0.546335
H155	H	0.545567	-0.069166	-0.046136
H156	H	1.045567	0.430834	0.453864
C157	C	0.694644	-0.038390	0.000085
C158	C	1.194644	0.461610	0.500085
H159	H	0.665282	-0.080021	0.000083
H160	H	1.165282	0.419979	0.500083
H161	H	0.725824	-0.040770	0.046314
H162	H	1.225824	0.459230	0.546314
H163	H	0.725815	-0.040759	-0.046156
H164	H	1.225815	0.459241	0.453844
H165	H	1.021038	-0.287618	0.000116
H166	H	1.521038	0.212382	0.500116
C167	C	1.036854	-0.533047	0.000108
C168	C	1.536854	-0.033047	0.500108
H169	H	1.077372	-0.573311	0.000105
H170	H	1.577372	-0.073311	0.500105
H171	H	1.040211	-0.502636	0.046340
H172	H	1.540211	-0.002636	0.546340
H173	H	1.040215	-0.502629	-0.046131
H174	H	1.540215	-0.002629	0.453869
C175	C	0.753558	-0.097298	0.000076
C176	C	1.253558	0.402702	0.500076
H177	H	0.764277	-0.045941	0.000070
H178	H	1.264277	0.454059	0.500070
H179	H	0.725004	-0.106478	0.046302
H180	H	1.225004	0.393522	0.546302
H181	H	0.725024	-0.106472	-0.046168
H182	H	1.225024	0.393528	0.453832
C183	C	1.034208	-0.698822	0.000103
C184	C	1.534208	-0.198822	0.500103
H185	H	1.023492	-0.750180	0.000091
H186	H	1.523492	-0.250180	0.500091
H187	H	1.062747	-0.689653	0.046339
H188	H	1.562747	-0.189653	0.546339
H189	H	1.062755	-0.689635	-0.046131
H190	H	1.562755	-0.189635	0.453869
C191	C	1.002184	-0.006258	0.622475
C192	C	1.502184	0.493742	1.122475
H193	H	0.994802	0.001128	0.566799
H194	H	1.494802	0.501128	1.066799
H195	H	0.994077	-0.056767	0.636154
H196	H	1.494077	0.443233	1.136154
H197	H	1.052677	0.001918	0.636151
H198	H	1.552677	0.501918	1.136151
H199	H	0.800358	0.195437	0.785791
H200	H	1.300358	0.695437	1.285791
C201	C	0.744546	-0.660389	0.000056
C202	C	1.244546	-0.160389	0.500056
H203	H	0.704027	-0.620127	0.000038
H204	H	1.204027	-0.120127	0.500038
H205	H	0.741176	-0.690810	0.046287
H206	H	1.241176	-0.190810	0.546287
H207	H	0.741203	-0.690798	-0.046184
H208	H	1.241203	-0.190798	0.453816
H209	H	0.987414	0.008437	0.214406
H210	H	1.487414	0.508437	0.714406
H211	H	0.800342	0.195428	0.634398
H212	H	1.300342	0.695428	1.134398
C213	C	0.785594	0.210142	0.377711
C214	C	1.285594	0.710142	0.877711
H215	H	0.792988	0.202770	0.433388
H216	H	1.292988	0.702770	0.933388
H217	H	0.735098	0.201987	0.364045
H218	H	1.235098	0.701987	0.864045
H219	H	0.793723	0.260646	0.364021
H220	H	1.293723	0.760646	0.864021
