data_functionalizedCrystal
_audit_creation_method	'MofGen! by Chris Wilmer'
_symmetry_space_group_name_H-M	'P1'
_symmetry_Int_Tables_number	1
_symmetry_cell_setting	triclinic
loop_
_symmetry_equiv_pos_as_xyz
  x,y,z
_cell_length_a	13.032831
_cell_length_b	19.077114
_cell_length_c	19.076919
_cell_angle_alpha	94.472739
_cell_angle_beta	94.613813
_cell_angle_gamma	94.592022
loop_
_atom_site_label
_atom_site_type_symbol
_atom_site_fract_x
_atom_site_fract_y
_atom_site_fract_z
Zn1	Zn	1.539020	0.434026	0.546773
Zn2	Zn	1.538888	0.547168	0.433610
Zn3	Zn	1.373349	0.414526	0.414164
Zn4	Zn	1.358811	0.535795	0.535434
O5	O	1.452517	0.482879	0.482495
O6	O	1.683699	0.461956	0.544645
O7	O	1.522958	0.526172	0.332920
O8	O	1.401465	0.319011	0.428363
O9	O	1.683602	0.545081	0.461505
O10	O	1.523183	0.333338	0.525790
O11	O	1.401336	0.428720	0.318633
O12	O	1.226723	0.417692	0.417368
O13	O	1.376687	0.525696	0.635049
O14	O	1.216042	0.506787	0.506464
O15	O	1.509086	0.450927	0.643380
O16	O	1.508861	0.643761	0.450510
O17	O	1.376559	0.635405	0.525319
C18	C	1.183865	0.458890	0.458576
C19	C	1.068932	0.448645	0.448360
C20	C	1.441145	0.665023	0.488812
C21	C	1.436374	0.742954	0.491546
C22	C	1.441280	0.489218	0.665365
C23	C	1.436491	0.491920	0.743293
C24	C	1.012434	0.488226	0.487827
C25	C	0.893645	0.477638	0.477269
C26	C	1.722218	0.506962	0.506509
C27	C	1.837149	0.517225	0.516742
C28	C	1.503064	0.783899	0.453923
C29	C	1.498581	0.857124	0.456499
C30	C	1.427404	0.889402	0.496695
C31	C	1.360711	0.848451	0.534322
C32	C	1.365199	0.775228	0.531750
C33	C	1.406595	1.107931	0.508565
C34	C	1.402110	1.181159	0.511133
C35	C	1.539982	1.189827	0.433310
C36	C	1.544459	1.116602	0.430738
C37	C	1.477770	1.075658	0.468369
N38	N	1.422819	0.964249	0.499327
N39	N	1.482361	1.000813	0.465740
C40	C	1.463951	1.300026	0.476180
C41	C	1.468800	1.222104	0.473510
C42	C	1.463773	0.476519	0.300341
C43	C	1.468774	0.473638	0.222424
C44	C	1.503171	0.454263	0.784242
C45	C	1.498659	0.456797	0.857462
C46	C	1.427472	0.496993	0.889733
C47	C	1.360785	0.534652	0.848778
C48	C	1.365293	0.532113	0.775558
C49	C	1.406595	0.508757	1.108250
C50	C	1.402094	0.511295	1.181475
C51	C	1.539968	0.433439	1.190154
C52	C	1.544473	0.430907	1.116933
C53	C	1.477783	0.468562	1.075985
N54	N	1.422861	0.499587	0.964576
N55	N	1.482390	0.465965	1.001142
H56	H	0.854076	0.435907	0.435664
H57	H	1.561143	0.421533	0.757973
H58	H	1.310895	0.741891	0.562388
H59	H	1.344160	1.207439	0.543879
H60	H	1.029359	0.406917	0.406757
C61	C	1.293076	0.573053	0.731019
C62	C	1.351405	0.621740	0.695738
C63	C	1.284912	0.659458	0.654694
H64	H	1.250008	0.597422	0.760639
H65	H	1.251479	0.541239	0.697477
H66	H	1.392983	0.653549	0.729276
H67	H	1.394470	0.597390	0.666106
H68	H	1.243316	0.627645	0.621152
H69	H	1.241848	0.683823	0.684319
H70	H	1.324479	0.692492	0.630746
H71	H	0.876716	0.558950	0.558354
H72	H	1.052007	0.529949	0.529435
H73	H	1.561020	0.757623	0.421188
H74	H	1.552887	0.890459	0.425862
H75	H	1.602444	0.398177	1.090664
C76	C	1.283467	0.883620	0.577895
C77	C	1.293787	0.956508	0.572080
C78	C	1.222634	0.988925	0.612201
H79	H	1.296312	0.874651	0.625957
H80	H	1.215346	0.865143	0.560983
H81	H	1.361892	0.974979	0.588996
H82	H	1.280933	0.965497	0.524029
H83	H	1.154513	0.970448	0.595289
H84	H	1.235485	0.979951	0.660260
H85	H	1.229620	1.038381	0.608256
C86	C	1.571091	0.416030	0.902025
C87	C	1.632270	0.463092	0.951357
C88	C	1.698992	0.425557	0.992428
H89	H	1.614233	0.391721	0.872413
H90	H	1.531703	0.382959	0.926045
H91	H	1.671655	0.496151	0.927338
H92	H	1.589157	0.487403	0.980984
H93	H	1.659605	0.392486	1.016448
H94	H	1.742127	0.401249	0.962811
H95	H	1.740504	0.457482	1.025908
C96	C	1.621856	1.081696	0.387092
C97	C	1.679324	1.133230	0.354710
C98	C	1.750641	1.101103	0.314506
H99	H	1.586090	1.048584	0.351949
H100	H	1.667033	1.058065	0.416935
H101	H	1.634154	1.156850	0.324870
H102	H	1.715112	1.166345	0.389837
H103	H	1.795818	1.077472	0.344349
H104	H	1.714867	1.067991	0.279367
H105	H	1.789648	1.136064	0.292536
H106	H	1.594278	1.223171	0.402675
C107	C	1.612240	0.392573	1.234730
C108	C	1.593042	0.403382	1.305758
C109	C	1.659590	0.365735	1.346839
H110	H	1.681852	0.408580	1.229361
H111	H	1.600778	0.343689	1.219791
H112	H	1.604513	0.452256	1.320692
H113	H	1.523444	0.387371	1.311148
H114	H	1.648128	0.316851	1.331900
H115	H	1.729198	0.381746	1.341464
H116	H	1.646567	0.373059	1.395035
H117	H	1.302819	0.567377	0.875058
H118	H	1.344122	0.544029	1.207747
C119	C	1.334124	0.549705	1.063921
C120	C	1.270832	0.585459	1.107859
C121	C	1.204057	0.623190	1.067045
H122	H	1.292415	0.517933	1.030419
H123	H	1.373476	0.582832	1.039942
H124	H	1.231483	0.552336	1.131827
H125	H	1.312513	0.617243	1.141361
H126	H	1.243409	0.656316	1.043066
H127	H	1.162355	0.591412	1.033544
H128	H	1.161112	0.647458	1.096851
H129	H	1.352292	1.074600	0.539204
