data_functionalizedCrystal
_audit_creation_method	'MofGen! by Chris Wilmer'
_symmetry_space_group_name_H-M	'P1'
_symmetry_Int_Tables_number	1
_symmetry_cell_setting	triclinic
loop_
_symmetry_equiv_pos_as_xyz
  x,y,z
_cell_length_a	9.730223
_cell_length_b	9.065218
_cell_length_c	9.065218
_cell_angle_alpha	85.015885
_cell_angle_beta	90.000469
_cell_angle_gamma	89.999690
loop_
_atom_site_label
_atom_site_type_symbol
_atom_site_fract_x
_atom_site_fract_y
_atom_site_fract_z
O1	O	0.114287	-1.960393	-0.216350
O2	O	0.114289	-1.531108	-0.234097
O3	O	0.114285	-1.754624	-0.010581
O4	O	0.114291	-1.736877	-0.439866
O5	O	-0.114295	-1.754621	-0.010587
O6	O	-0.114291	-1.531106	-0.234103
O7	O	-0.114293	-1.960390	-0.216356
Zn8	Zn	-0.150584	-1.745748	-0.225230
Zn9	Zn	0.150580	-1.745751	-0.225223
O10	O	-0.114289	-1.736875	-0.439872
C11	C	-0.000001	-1.476120	-0.232394
C12	C	-0.000000	-1.312277	-0.227294
N13	N	-0.356120	-1.745756	-0.225234
C14	C	-0.000003	-1.752917	0.044403
C15	C	0.000004	-1.747817	0.208245
C16	C	-0.428048	-1.844755	-0.126296
C17	C	-0.571931	-1.844751	-0.126278
C18	C	-0.571946	-1.646745	-0.324150
C19	C	-0.428066	-1.646743	-0.324160
C20	C	-0.356103	-1.943768	-0.027371
C21	C	-0.428030	-2.042776	0.071575
C22	C	-0.571913	-2.042772	0.071593
C23	C	-0.643869	-1.943760	-0.027335
N24	N	0.356116	-1.745754	-0.225207
C25	C	0.000000	-2.015378	-0.218059
C26	C	0.000008	-2.179221	-0.223158
C27	C	0.000002	-1.738582	-0.494855
C28	C	0.000004	-1.743681	-0.658698
H29	H	-0.369437	-2.123380	0.152127
O30	O	-0.641626	-1.550435	-0.420300
C31	C	-0.547286	-1.463077	-0.507656
H32	H	-0.444718	-1.460603	-0.447144
H33	H	-0.588863	-1.345544	-0.528515
H34	H	-0.531992	-1.512440	-0.617944
O35	O	-0.783637	-1.943749	-0.027041
C36	C	-0.831686	-1.911856	0.113440
H37	H	-0.748763	-1.940946	0.199944
H38	H	-0.927946	-1.979890	0.142701
H39	H	-0.857203	-1.788945	0.111270
H40	H	-0.238946	-1.943783	-0.027379
O41	O	-0.357973	-1.550633	-0.420127
C42	C	-0.215554	-1.571887	-0.398940
H43	H	-0.195903	-1.625480	-0.282397
H44	H	-0.160871	-1.460367	-0.413790
H45	H	-0.174725	-1.646996	-0.483498
H46	H	-0.630476	-2.123378	0.152168
