data_functionalizedCrystal
_audit_creation_method	'MofGen! by Chris Wilmer'
_symmetry_space_group_name_H-M	'P1'
_symmetry_Int_Tables_number	1
_symmetry_cell_setting	triclinic
loop_
_symmetry_equiv_pos_as_xyz
  x,y,z
_cell_length_a	17.699083
_cell_length_b	13.596369
_cell_length_c	17.699083
_cell_angle_alpha	90.006879
_cell_angle_beta	83.283015
_cell_angle_gamma	89.999299
loop_
_atom_site_label
_atom_site_type_symbol
_atom_site_fract_x
_atom_site_fract_y
_atom_site_fract_z
O1	O	1.004077	0.081655	0.095712
O2	O	1.254077	0.331655	0.345712
O3	O	1.504077	0.581655	0.595712
O4	O	1.754077	0.831655	0.845712
O5	O	0.783698	0.081688	0.108165
O6	O	1.033698	0.331688	0.358165
O7	O	1.283698	0.581688	0.608165
O8	O	1.533698	0.831688	0.858165
O9	O	0.900114	0.081662	-0.008250
O10	O	1.150114	0.331662	0.241750
O11	O	1.400114	0.581662	0.491750
O12	O	1.650114	0.831662	0.741750
O13	O	0.887661	0.081681	0.212128
O14	O	1.137661	0.331681	0.462128
O15	O	1.387661	0.581681	0.712128
O16	O	1.637661	0.831681	0.962128
O17	O	0.900102	-0.081921	-0.008257
O18	O	1.150102	0.168079	0.241743
O19	O	1.400102	0.418079	0.491743
O20	O	1.650102	0.668079	0.741743
O21	O	0.783687	-0.081895	0.108159
O22	O	1.033687	0.168105	0.358159
O23	O	1.283687	0.418105	0.608159
O24	O	1.533687	0.668105	0.858159
O25	O	1.004065	-0.081927	0.095706
O26	O	1.254065	0.168073	0.345706
O27	O	1.504065	0.418073	0.595706
O28	O	1.754065	0.668073	0.845706
Zn29	Zn	0.893874	-0.107884	0.101932
Zn30	Zn	1.143874	0.142116	0.351932
Zn31	Zn	1.393874	0.392116	0.601932
Zn32	Zn	1.643874	0.642116	0.851932
Zn33	Zn	0.893889	0.107644	0.101940
Zn34	Zn	1.143889	0.357644	0.351940
Zn35	Zn	1.393889	0.607644	0.601940
Zn36	Zn	1.643889	0.857644	0.851940
O37	O	0.887650	-0.081902	0.212122
O38	O	1.137650	0.168098	0.462122
O39	O	1.387650	0.418098	0.712122
O40	O	1.637650	0.668098	0.962122
C41	C	0.755495	-0.000099	0.107716
C42	C	1.005495	0.249901	0.357716
C43	C	1.255495	0.499901	0.607716
C44	C	1.505495	0.749901	0.857716
C45	C	0.671477	-0.000087	0.106377
C46	C	0.921477	0.249913	0.356377
C47	C	1.171477	0.499913	0.606377
C48	C	1.421477	0.749913	0.856377
N49	N	0.893869	-0.254975	0.101926
N50	N	1.143869	-0.004975	0.351926
N51	N	1.393869	0.245025	0.601926
N52	N	1.643869	0.495025	0.851926
C53	C	0.622856	-0.000082	0.174710
C54	C	0.872856	0.249918	0.424710
C55	C	1.122856	0.499918	0.674710
C56	C	1.372856	0.749918	0.924710
C57	C	0.543913	-0.000095	0.173448
C58	C	0.793913	0.249905	0.423448
C59	C	1.043913	0.499905	0.673448
C60	C	1.293913	0.749905	0.923448
C61	C	0.513592	-0.000106	0.103852
C62	C	0.763592	0.249894	0.353852
C63	C	1.013592	0.499894	0.603852
C64	C	1.263592	0.749894	0.853852
C65	C	0.562219	-0.000115	0.035513
C66	C	0.812219	0.249885	0.285513
C67	C	1.062219	0.499885	0.535513
C68	C	1.312219	0.749885	0.785513
C69	C	0.641161	-0.000109	0.036776
C70	C	0.891161	0.249891	0.286776
C71	C	1.141161	0.499891	0.536776
C72	C	1.391161	0.749891	0.786776
C73	C	0.243856	-0.000139	0.030418
C74	C	0.493856	0.249861	0.280418
C75	C	0.743856	0.499861	0.530418
C76	C	0.993856	0.749861	0.780418
C77	C	0.164908	-0.000142	0.029160
C78	C	0.414908	0.249858	0.279160
C79	C	0.664908	0.499858	0.529160
C80	C	0.914908	0.749858	0.779160
C81	C	0.146608	-0.000125	0.167090
C82	C	0.396608	0.249875	0.417090
C83	C	0.646608	0.499875	0.667090
C84	C	0.896608	0.749875	0.917090
C85	C	0.225550	-0.000119	0.168353
C86	C	0.475550	0.249881	0.418353
C87	C	0.725550	0.499881	0.668353
C88	C	0.975550	0.749881	0.918353
C89	C	0.274170	-0.000133	0.100015
C90	C	0.524170	0.249867	0.350015
C91	C	0.774170	0.499867	0.600015
C92	C	1.024170	0.749867	0.850015
C93	C	0.359769	-0.000121	0.101384
C94	C	0.609769	0.249879	0.351384
C95	C	0.859769	0.499879	0.601384
C96	C	1.109769	0.749879	0.851384
C97	C	0.427995	-0.000111	0.102481
C98	C	0.677995	0.249889	0.352481
C99	C	0.927995	0.499889	0.602481
C100	C	1.177995	0.749889	0.852481
C101	C	0.893888	-0.656266	0.101940
C102	C	1.143888	-0.406266	0.351940
C103	C	1.393888	-0.156266	0.601940
C104	C	1.643888	0.093734	0.851940
C105	C	0.893881	-0.544615	0.101939
C106	C	1.143881	-0.294615	0.351939
C107	C	1.393881	-0.044615	0.601939
C108	C	1.643881	0.205385	0.851939
C109	C	0.893879	-0.455624	0.101934
C110	C	1.143879	-0.205624	0.351934
C111	C	1.393879	0.044376	0.601934
C112	C	1.643879	0.294376	0.851934
C113	C	0.893871	-0.343966	0.101931
C114	C	1.143871	-0.093966	0.351931
C115	C	1.393871	0.156034	0.601931
C116	C	1.643871	0.406034	0.851931
C117	C	1.032268	-0.000138	0.096156
C118	C	1.282268	0.249862	0.346156
C119	C	1.532268	0.499862	0.596156
C120	C	1.782268	0.749862	0.846156
C121	C	1.116286	-0.000144	0.097494
C122	C	1.366286	0.249856	0.347494
C123	C	1.616286	0.499856	0.597494
C124	C	1.866286	0.749856	0.847494
C125	C	0.899662	-0.000129	-0.036451
C126	C	1.149662	0.249871	0.213549
C127	C	1.399662	0.499871	0.463549
C128	C	1.649662	0.749871	0.713549
C129	C	0.898323	-0.000130	-0.120469
C130	C	1.148323	0.249870	0.129531
C131	C	1.398323	0.499870	0.379531
C132	C	1.648323	0.749870	0.629531
N133	N	0.893900	0.254736	0.101940
N134	N	1.143900	0.504736	0.351940
N135	N	1.393900	0.754736	0.601940
N136	N	1.643900	1.004736	0.851940
C137	C	0.966656	-0.000141	-0.169090
C138	C	1.216656	0.249859	0.080910
C139	C	1.466656	0.499859	0.330910
C140	C	1.716656	0.749859	0.580910
C141	C	0.965394	-0.000132	-0.248033
C142	C	1.215394	0.249868	0.001967
C143	C	1.465394	0.499868	0.251967
C144	C	1.715394	0.749868	0.501967
C145	C	0.895798	-0.000119	-0.278354
C146	C	1.145798	0.249881	-0.028354
C147	C	1.395798	0.499881	0.221646
C148	C	1.645798	0.749881	0.471646
C149	C	0.827459	-0.000104	-0.229727
C150	C	1.077459	0.249896	0.020273
C151	C	1.327459	0.499896	0.270273
C152	C	1.577459	0.749896	0.520273
C153	C	0.828722	-0.000106	-0.150785
C154	C	1.078722	0.249894	0.099215
C155	C	1.328722	0.499894	0.349215
C156	C	1.578722	0.749894	0.599215
C157	C	0.822364	-0.000096	-0.548090
C158	C	1.072364	0.249904	-0.298090
C159	C	1.322364	0.499904	-0.048090
C160	C	1.572364	0.749904	0.201910
C161	C	0.821106	-0.000097	-0.627038
C162	C	1.071106	0.249903	-0.377038
C163	C	1.321106	0.499903	-0.127038
C164	C	1.571106	0.749903	0.122962
C165	C	0.959036	-0.000122	-0.645338
C166	C	1.209036	0.249878	-0.395338
C167	C	1.459036	0.499878	-0.145338
C168	C	1.709036	0.749878	0.104662
C169	C	0.960299	-0.000123	-0.566396
C170	C	1.210299	0.249877	-0.316396
C171	C	1.460299	0.499877	-0.066396
C172	C	1.710299	0.749877	0.183604
C173	C	0.891961	-0.000104	-0.517776
C174	C	1.141961	0.249896	-0.267776
C175	C	1.391961	0.499896	-0.017776
C176	C	1.641961	0.749896	0.232224
C177	C	0.893330	-0.000112	-0.432177
C178	C	1.143330	0.249888	-0.182177
C179	C	1.393330	0.499888	0.067823
C180	C	1.643330	0.749888	0.317823
C181	C	0.894427	-0.000118	-0.363951
C182	C	1.144427	0.249882	-0.113951
C183	C	1.394427	0.499882	0.136049
C184	C	1.644427	0.749882	0.386049
C185	C	0.888102	-0.000108	0.240322
C186	C	1.138102	0.249892	0.490322
C187	C	1.388102	0.499892	0.740322
C188	C	1.638102	0.749892	0.990322
C189	C	0.889440	-0.000101	0.324340
C190	C	1.139440	0.249899	0.574340
C191	C	1.389440	0.499899	0.824340
C192	C	1.639440	0.749899	1.074340
H193	H	0.647537	-0.000072	0.231384
H194	H	0.897537	0.249928	0.481384
H195	H	1.147537	0.499928	0.731384
H196	H	1.397537	0.749928	0.981384
H197	H	0.107012	-0.000119	0.222734
H198	H	0.357012	0.249881	0.472734
H199	H	0.607012	0.499881	0.722734
H200	H	0.857012	0.749881	0.972734
Cl201	Cl	1.054154	-0.000168	-0.130980
Cl202	Cl	1.304154	0.249832	0.119020
Cl203	Cl	1.554154	0.499832	0.369020
Cl204	Cl	1.804154	0.749832	0.619020
Cl205	Cl	1.044948	-0.000142	-0.706465
Cl206	Cl	1.294948	0.249858	-0.456465
Cl207	Cl	1.544948	0.499858	-0.206465
Cl208	Cl	1.794948	0.749858	0.043535
H209	H	0.537526	-0.000138	-0.021154
H210	H	0.787526	0.249862	0.228846
H211	H	1.037526	0.499862	0.478846
H212	H	1.287526	0.749862	0.728846
Cl213	Cl	0.733606	-0.000078	-0.665153
Cl214	Cl	0.983606	0.249922	-0.415153
Cl215	Cl	1.233606	0.499922	-0.165153
Cl216	Cl	1.483606	0.749922	0.084847
Cl217	Cl	0.702285	-0.000120	-0.049132
Cl218	Cl	0.952285	0.249880	0.200868
Cl219	Cl	1.202285	0.499880	0.450868
Cl220	Cl	1.452285	0.749880	0.700868
Cl221	Cl	0.304969	-0.000156	-0.055494
Cl222	Cl	0.554969	0.249844	0.194506
Cl223	Cl	0.804969	0.499844	0.444506
Cl224	Cl	1.054969	0.749844	0.694506
Cl225	Cl	1.051303	-0.000150	-0.309154
Cl226	Cl	1.301303	0.249850	-0.059154
Cl227	Cl	1.551303	0.499850	0.190846
Cl228	Cl	1.801303	0.749850	0.440846
H229	H	0.766718	-0.000080	-0.508512
H230	H	1.016718	0.249920	-0.258512
H231	H	1.266718	0.499920	-0.008512
H232	H	1.516718	0.749920	0.241488
H233	H	1.016971	-0.000139	-0.541714
H234	H	1.266971	0.249861	-0.291714
H235	H	1.516971	0.499861	-0.041714
H236	H	1.766971	0.749861	0.208286
H237	H	0.504328	-0.000089	0.229092
H238	H	0.754328	0.249911	0.479092
H239	H	1.004328	0.499911	0.729092
H240	H	1.254328	0.749911	0.979092
H241	H	0.770792	-0.000087	-0.254420
H242	H	1.020792	0.249913	-0.004420
H243	H	1.270792	0.499913	0.245580
H244	H	1.520792	0.749913	0.495580
H245	H	0.250232	-0.000105	0.225025
H246	H	0.500232	0.249895	0.475025
H247	H	0.750232	0.499895	0.725025
H248	H	1.000232	0.749895	0.975025
H249	H	0.140225	-0.000153	-0.027517
H250	H	0.390225	0.249847	0.222483
H251	H	0.640225	0.499847	0.472483
H252	H	0.890225	0.749847	0.722483
H253	H	0.773078	-0.000097	-0.111198
H254	H	1.023078	0.249903	0.138802
H255	H	1.273078	0.499903	0.388802
H256	H	1.523078	0.749903	0.638802
