data_functionalizedCrystal
_audit_creation_method	'MofGen! by Chris Wilmer'
_symmetry_space_group_name_H-M	'P1'
_symmetry_Int_Tables_number	1
_symmetry_cell_setting	triclinic
loop_
_symmetry_equiv_pos_as_xyz
  x,y,z
_cell_length_a	12.645323
_cell_length_b	10.686220
_cell_length_c	10.686285
_cell_angle_alpha	90.345431
_cell_angle_beta	94.392902
_cell_angle_gamma	85.651535
loop_
_atom_site_label
_atom_site_type_symbol
_atom_site_fract_x
_atom_site_fract_y
_atom_site_fract_z
Zn1	Zn	-0.450856	-1.956182	0.352075
Zn2	Zn	0.049144	-1.456182	0.852075
Zn3	Zn	-0.259068	-1.972173	0.561870
Zn4	Zn	0.240932	-1.472173	1.061870
Zn5	Zn	-0.286066	-1.746407	0.368235
Zn6	Zn	0.213934	-1.246407	0.868235
Zn7	Zn	-0.448751	-1.762507	0.577897
Zn8	Zn	0.051249	-1.262507	1.077897
O9	O	-0.361185	-1.859317	0.465019
O10	O	0.138815	-1.359317	0.965019
O11	O	-0.414997	-2.133841	0.366435
O12	O	0.085003	-1.633841	0.866435
O13	O	-0.114301	-1.942179	0.536240
O14	O	0.385699	-1.442179	1.036240
O15	O	-0.320105	-1.760804	0.190548
O16	O	0.179895	-1.260804	0.690548
O17	O	-0.274092	-2.145590	0.520570
O18	O	0.225908	-1.645590	1.020570
O19	O	-0.441175	-1.914924	0.178675
O20	O	0.058825	-1.414924	0.678675
O21	O	-0.134136	-1.776310	0.393977
O22	O	0.365864	-1.276310	0.893977
O23	O	-0.318064	-1.573005	0.409517
O24	O	0.181936	-1.073005	0.909517
O25	O	-0.597378	-1.788244	0.547885
O26	O	-0.097378	-1.288244	1.047885
O27	O	-0.437588	-1.584834	0.563555
O28	O	0.062412	-1.084834	1.063555
O29	O	-0.598924	-1.930536	0.381975
O30	O	-0.098924	-1.430536	0.881975
O31	O	-0.272051	-1.957791	0.739540
O32	O	0.227949	-1.457791	1.239540
O33	O	-0.411409	-1.803750	0.751314
O34	O	0.088591	-1.303750	1.251314
C35	C	-0.380527	-1.533405	0.490030
C36	C	0.119473	-1.033405	0.990030
C37	C	-0.388825	-1.393980	0.500759
C38	C	0.111175	-0.893980	1.000759
C39	C	-0.637692	-1.859402	0.464915
C40	C	-0.137692	-1.359402	0.964915
C41	C	-0.755522	-1.859438	0.464871
C42	C	-0.255522	-1.359438	0.964871
C43	C	-0.338593	-1.884287	0.790941
C44	C	0.161407	-1.384287	1.290941
C45	C	-0.328957	-1.895084	0.930363
C46	C	0.171043	-1.395084	1.430363
C47	C	-0.922163	-1.769588	0.568811
C48	C	-0.422163	-1.269588	1.068811
C49	C	-0.799555	-1.769880	0.569269
C50	C	-0.299555	-1.269880	1.069269
C51	C	-0.789700	-1.994369	0.490594
C52	C	-0.289700	-1.494369	0.990594
C53	C	-0.912288	-1.993882	0.491240
C54	C	-0.412288	-1.493882	0.991240
C55	C	-0.933928	-1.815566	0.334572
C56	C	-0.433928	-1.315566	0.834572
C57	C	-0.811442	-1.812678	0.335595
C58	C	-0.311442	-1.312678	0.835595
C59	C	-0.085756	-1.859298	0.465027
C60	C	0.414244	-1.359298	0.965027
C61	C	0.032064	-1.859478	0.464699
C62	C	0.532064	-1.359478	0.964699
C63	C	-0.341768	-2.186503	0.439912
C64	C	0.158232	-1.686503	0.939912
C65	C	-0.333493	-2.325930	0.429213
C66	C	0.166507	-1.825930	0.929213
C67	C	-0.383886	-1.834284	0.137822
C68	C	0.116114	-1.334284	0.637822
C69	C	-0.393560	-1.823617	-0.001610
C70	C	0.106440	-1.323617	0.498390
H71	H	-0.776834	-1.670143	0.554348
H72	H	-0.276834	-1.170143	1.054348
Cl73	Cl	-0.471761	-1.319250	0.608026
Cl74	Cl	0.028239	-0.819250	1.108026
Cl75	Cl	-0.979057	-1.615171	0.546139
Cl76	Cl	-0.479057	-1.115171	1.046139
Cl77	Cl	-0.490342	-1.716395	0.923635
Cl78	Cl	0.009658	-1.216395	1.423635
Cl79	Cl	-0.232160	-2.002297	1.005123
Cl80	Cl	0.267840	-1.502297	1.505123
H81	H	-0.762101	-1.799696	0.665948
H82	H	-0.262101	-1.299696	1.165948
Cl83	Cl	-0.957345	-1.815138	0.717142
Cl84	Cl	-0.457345	-1.315138	1.217142
H85	H	-0.932479	-2.029913	0.586063
H86	H	-0.432479	-1.529913	1.086063
Cl87	Cl	-0.958447	-2.101563	0.378334
Cl88	Cl	-0.458447	-1.601563	0.878334
H89	H	-0.279772	-1.374333	0.359751
H90	H	0.220228	-0.874333	0.859751
H91	H	-0.750632	-2.030811	0.584363
H92	H	-0.250632	-1.530811	1.084363
Cl93	Cl	-0.745181	-2.101236	0.376534
Cl94	Cl	-0.245181	-1.601236	0.876534
Cl95	Cl	-0.993824	-1.665468	0.295316
Cl96	Cl	-0.493824	-1.165468	0.795316
H97	H	-0.782167	-1.872554	0.254742
H98	H	-0.282167	-1.372554	0.754742
Cl99	Cl	-0.778350	-1.659286	0.305361
Cl100	Cl	-0.278350	-1.159286	0.805361
H101	H	-0.963717	-1.880913	0.257129
H102	H	-0.463717	-1.380913	0.757129
