data_functionalizedCrystal
_audit_creation_method	'MofGen! by Chris Wilmer'
_symmetry_space_group_name_H-M	'P1'
_symmetry_Int_Tables_number	1
_symmetry_cell_setting	triclinic
loop_
_symmetry_equiv_pos_as_xyz
  x,y,z
_cell_length_a	14.044220
_cell_length_b	11.026607
_cell_length_c	9.482900
_cell_angle_alpha	78.599815
_cell_angle_beta	79.851548
_cell_angle_gamma	79.112553
loop_
_atom_site_label
_atom_site_type_symbol
_atom_site_fract_x
_atom_site_fract_y
_atom_site_fract_z
O1	O	1.320314	-0.280341	-0.120884
O2	O	1.042510	-0.269584	-0.120888
O3	O	1.158387	-0.095818	-0.120881
O4	O	1.204437	-0.454107	-0.120891
O5	O	1.134877	-0.131268	0.120910
O6	O	1.018999	-0.305035	0.120903
O7	O	1.296803	-0.315791	0.120907
Cu8	Cu	1.155754	-0.313650	0.142982
Cu9	Cu	1.183559	-0.271725	-0.142964
O10	O	1.180926	-0.489558	0.120900
C11	C	0.994637	-0.282601	0.000007
C12	C	0.887015	-0.268557	0.000005
C13	C	1.344677	-0.302774	0.000009
C14	C	1.452300	-0.316816	0.000001
C15	C	1.138137	-0.067412	0.000012
C16	C	1.112813	0.070044	0.000007
C17	C	1.649342	-0.342492	0.000001
C18	C	1.689979	-0.242888	0.000004
C19	C	1.799620	-0.257174	0.000005
C20	C	1.539691	-0.328207	0.000001
C21	C	1.201177	-0.517963	0.000003
C22	C	1.226501	-0.655417	-0.000001
N23	N	1.136205	-0.343137	0.344101
C24	C	1.182738	0.136280	0.000006
C25	C	1.156566	0.278349	-0.000000
N26	N	1.203114	-0.242229	-0.344083
C27	C	1.177785	-0.280416	0.416303
C28	C	1.161528	-0.304960	0.583719
H29	H	1.642437	-0.146869	-0.000098
H30	H	1.696892	-0.438486	-0.000003
F31	F	1.099258	-0.398898	0.664913
H32	H	1.261978	0.087810	0.000016
H33	H	1.077322	0.326814	-0.000011
H34	H	1.250746	-0.170350	0.593796
F35	F	1.330083	0.281245	-0.000006
F36	F	1.009239	0.133392	-0.000008
H37	H	1.088568	-0.415002	0.406228
F38	F	1.239837	-0.186239	0.335104
