data_functionalizedCrystal
_audit_creation_method	'MofGen! by Chris Wilmer'
_symmetry_space_group_name_H-M	'P1'
_symmetry_Int_Tables_number	1
_symmetry_cell_setting	triclinic
loop_
_symmetry_equiv_pos_as_xyz
  x,y,z
_cell_length_a	18.366186
_cell_length_b	19.288856
_cell_length_c	19.288865
_cell_angle_alpha	96.865496
_cell_angle_beta	90.013443
_cell_angle_gamma	90.006398
loop_
_atom_site_label
_atom_site_type_symbol
_atom_site_fract_x
_atom_site_fract_y
_atom_site_fract_z
O1	O	0.060591	-0.921338	0.086625
O2	O	0.560591	-0.421338	0.586625
O3	O	0.060586	-0.719077	0.098319
O4	O	0.560586	-0.219077	0.598319
O5	O	0.060575	-0.826052	-0.008658
O6	O	0.560575	-0.326052	0.491342
O7	O	0.060603	-0.814363	0.193603
O8	O	0.560603	-0.314363	0.693603
O9	O	-0.060525	-0.826070	-0.008672
O10	O	0.439475	-0.326070	0.491328
O11	O	-0.060513	-0.719095	0.098306
O12	O	0.439487	-0.219095	0.598306
O13	O	-0.060508	-0.921356	0.086611
O14	O	0.439492	-0.421356	0.586611
Zn15	Zn	-0.079738	-0.820229	0.092456
Zn16	Zn	0.420262	-0.320229	0.592456
Zn17	Zn	0.079816	-0.820205	0.092474
Zn18	Zn	0.579816	-0.320205	0.592474
O19	O	-0.060496	-0.814381	0.193589
O20	O	0.439504	-0.314381	0.693589
C21	C	0.000036	-0.693209	0.097937
C22	C	0.500036	-0.193209	0.597937
C23	C	0.000034	-0.616105	0.096811
C24	C	0.500034	-0.116105	0.596811
C25	C	0.000031	-0.052064	0.151959
C26	C	0.500031	0.447936	0.651959
C27	C	0.000036	-0.124511	0.153024
C28	C	0.500036	0.375489	0.653024
C29	C	0.000027	-0.169218	0.090254
C30	C	0.500027	0.330782	0.590254
C31	C	0.000031	-0.141472	0.026415
C32	C	0.500031	0.358528	0.526415
C33	C	0.000033	-0.069027	0.025352
C34	C	0.500033	0.430973	0.525352
C35	C	-0.042406	-0.290494	0.043435
C36	C	0.457594	0.209506	0.543435
C37	C	-0.042413	-0.362938	0.044501
C38	C	0.457587	0.137062	0.544501
C39	C	0.000025	-0.392664	0.093530
C40	C	0.500025	0.107336	0.593530
C41	C	0.042459	-0.349935	0.141505
C42	C	0.542459	0.150065	0.641505
C43	C	0.042461	-0.277490	0.140442
C44	C	0.542461	0.222510	0.640442
C45	C	0.000025	-0.247773	0.091399
C46	C	0.500025	0.252227	0.591399
C47	C	0.000032	-0.498955	0.158519
C48	C	0.500032	0.001045	0.658519
C49	C	0.000042	-0.571404	0.159581
C50	C	0.500042	-0.071404	0.659581
C51	C	0.000029	-0.588364	0.032971
C52	C	0.500029	-0.088364	0.532971
C53	C	0.000026	-0.515917	0.031910
C54	C	0.500026	-0.015917	0.531910
C55	C	0.000024	-0.471217	0.094687
C56	C	0.500024	0.028783	0.594687
N57	N	-0.188629	-0.820250	0.092444
N58	N	0.311371	-0.320250	0.592444
N59	N	0.188707	-0.820189	0.092481
N60	N	0.688707	-0.320189	0.592481
C61	C	0.226819	-0.862097	0.134581
C62	C	0.726819	-0.362097	0.634581
C63	C	0.303047	-0.862102	0.134582
C64	C	0.803047	-0.362102	0.634582
C65	C	0.341160	-0.820207	0.092469
C66	C	0.841160	-0.320207	0.592469
C67	C	0.303039	-0.778291	0.050366
C68	C	0.803039	-0.278291	0.550366
C69	C	0.226812	-0.778282	0.050372
C70	C	0.726812	-0.278282	0.550372
C71	C	0.461905	-0.818621	0.029816
C72	C	0.961905	-0.318621	0.529816
C73	C	0.538130	-0.818635	0.029809
C74	C	1.038130	-0.318635	0.529809
C75	C	0.576267	-0.820231	0.092450
C76	C	1.076267	-0.320231	0.592450
C77	C	0.538170	-0.821827	0.155101
C78	C	1.038170	-0.321827	0.655101
C79	C	0.461944	-0.821818	0.155107
C80	C	0.961944	-0.321818	0.655107
C81	C	0.423815	-0.820212	0.092458
C82	C	0.923815	-0.320212	0.592458
C83	C	0.697034	-0.862146	0.134554
C84	C	1.197034	-0.362146	0.634554
C85	C	0.773263	-0.862146	0.134556
C86	C	1.273263	-0.362146	0.634556
C87	C	0.773254	-0.778339	0.050334
C88	C	1.273254	-0.278339	0.550334
C89	C	0.697026	-0.778335	0.050339
C90	C	1.197026	-0.278335	0.550339
C91	C	0.658921	-0.820242	0.092448
C92	C	1.158921	-0.320242	0.592448
C93	C	0.000023	-0.825685	-0.034542
C94	C	0.500023	-0.325685	0.465458
C95	C	0.000016	-0.824556	-0.111645
C96	C	0.500016	-0.324556	0.388355
C97	C	0.000039	0.052776	0.086995
C98	C	0.500039	0.552776	0.586995
C99	C	0.000031	-0.024327	0.088128
C100	C	0.500031	0.475673	0.588128
C101	C	0.000014	-0.887324	-0.156343
C102	C	0.500014	-0.387324	0.343657
C103	C	0.000026	-0.886263	-0.228790
C104	C	0.500026	-0.386263	0.271210
C105	C	0.000025	-0.822431	-0.256536
C106	C	0.500025	-0.322431	0.243464
C107	C	0.000031	-0.759655	-0.211828
C108	C	0.500031	-0.259655	0.288172
C109	C	0.000027	-0.760717	-0.139383
C110	C	0.500027	-0.260717	0.360617
C111	C	-0.042395	-0.772258	-0.364827
C112	C	0.457605	-0.272258	0.135173
C113	C	-0.042395	-0.771198	-0.437271
C114	C	0.457605	-0.271198	0.062729
C115	C	0.000041	-0.819151	-0.479982
C116	C	0.500041	-0.319151	0.020018
C117	C	0.042468	-0.868177	-0.450240
C118	C	0.542468	-0.368177	0.049760
C119	C	0.042464	-0.869239	-0.377795
C120	C	0.542464	-0.369239	0.122205
C121	C	0.000030	-0.821272	-0.335090
C122	C	0.500030	-0.321272	0.164910
C123	C	0.000052	-0.880774	-0.603236
C124	C	0.500052	-0.380774	-0.103236
C125	C	0.000068	-0.879710	-0.675684
C126	C	0.500068	-0.379710	-0.175684
C127	C	0.000066	-0.753100	-0.658720
C128	C	0.500066	-0.253100	-0.158720
C129	C	0.000057	-0.754165	-0.586273
C130	C	0.500057	-0.254165	-0.086273
C131	C	0.000047	-0.818004	-0.558536
C132	C	0.500047	-0.318004	-0.058536
C133	C	0.000057	-0.814748	0.219472
C134	C	0.500057	-0.314748	0.719472
C135	C	0.000068	-0.815877	0.296576
C136	C	0.500068	-0.315877	0.796576
H137	H	-0.076965	-0.266299	0.003506
H138	H	0.423035	0.233701	0.503506
H139	H	-0.076938	-0.731275	-0.461480
H140	H	0.423062	-0.231275	0.038520
H141	H	0.195798	-0.896220	0.168871
H142	H	0.695798	-0.396220	0.668871
H143	H	0.000033	-0.015673	0.203076
H144	H	0.500033	0.484327	0.703076
H145	H	0.430928	-0.823116	0.206119
H146	H	0.930928	-0.323116	0.706119
H147	H	0.000025	-0.177877	-0.024693
H148	H	0.500025	0.322123	0.475307
H149	H	0.000027	-0.937378	-0.265191
H150	H	0.500027	-0.437378	0.234809
H151	H	0.569144	-0.817340	-0.021205
H152	H	1.069144	-0.317340	0.478795
H153	H	0.000008	-0.939307	-0.133765
H154	H	0.500008	-0.439307	0.366235
H155	H	0.000030	-0.147099	0.205004
H156	H	0.500030	0.352901	0.705004
H157	H	0.000047	-0.932755	-0.580651
H158	H	0.500047	-0.432755	-0.080651
H159	H	0.000071	-0.930826	-0.712077
H160	H	0.500071	-0.430826	-0.212077
H161	H	0.000033	-0.046445	-0.026628
H162	H	0.500033	0.453555	0.473372
H163	H	0.000032	-0.707682	-0.234423
H164	H	0.500032	-0.207682	0.265577
H165	H	0.077013	-0.242703	0.179504
H166	H	0.577013	0.257297	0.679504
H167	H	0.569219	-0.823127	0.206110
H168	H	1.069219	-0.323127	0.706110
H169	H	0.334083	-0.896228	0.168868
H170	H	0.834083	-0.396228	0.668868
H171	H	0.000028	-0.709602	-0.102988
H172	H	0.500028	-0.209602	0.397012
H173	H	0.666007	-0.896266	0.168845
H174	H	1.166007	-0.396266	0.668845
H175	H	0.077011	-0.909156	-0.353582
H176	H	0.577011	-0.409156	0.146418
H177	H	0.077013	-0.374135	0.181430
H178	H	0.577013	0.125865	0.681430
H179	H	0.000031	-0.462558	0.209635
H180	H	0.500031	0.037442	0.709635
H181	H	-0.076956	-0.733206	-0.330057
H182	H	0.423044	-0.233206	0.169943
H183	H	0.804293	-0.896271	0.168844
H184	H	1.304293	-0.396271	0.668844
H185	H	0.804285	-0.744223	0.016049
H186	H	1.304285	-0.244223	0.516049
H187	H	0.077024	-0.907225	-0.485014
H188	H	0.577024	-0.407225	0.014986
H189	H	0.665995	-0.744212	0.016053
H190	H	1.165995	-0.244212	0.516053
H191	H	0.000069	-0.701126	-0.681309
H192	H	0.500069	-0.201126	-0.181309
H193	H	0.000048	-0.593985	0.211562
H194	H	0.500048	-0.093985	0.711562
H195	H	0.430861	-0.817315	-0.021197
H196	H	0.930861	-0.317315	0.478803
H197	H	0.334075	-0.744178	0.016079
H198	H	0.834075	-0.244178	0.516079
H199	H	0.000027	-0.624764	-0.018138
H200	H	0.500027	-0.124764	0.481862
H201	H	0.195782	-0.744154	0.016088
H202	H	0.695782	-0.244154	0.516088
H203	H	0.000022	-0.493334	-0.020068
H204	H	0.500022	0.006666	0.479932
H205	H	-0.076969	-0.397722	0.005440
H206	H	0.423031	0.102278	0.505440
H207	H	0.000055	-0.703052	-0.549879
H208	H	0.500055	-0.203052	-0.049879
