data_functionalizedCrystal
_audit_creation_method	'MofGen! by Chris Wilmer'
_symmetry_space_group_name_H-M	'P1'
_symmetry_Int_Tables_number	1
_symmetry_cell_setting	triclinic
loop_
_symmetry_equiv_pos_as_xyz
  x,y,z
_cell_length_a	18.050589
_cell_length_b	12.827893
_cell_length_c	12.827885
_cell_angle_alpha	89.980728
_cell_angle_beta	90.029551
_cell_angle_gamma	89.971809
loop_
_atom_site_label
_atom_site_type_symbol
_atom_site_fract_x
_atom_site_fract_y
_atom_site_fract_z
Zn1	Zn	-0.295624	-1.597576	0.590850
Zn2	Zn	0.204376	-1.097576	1.090850
Zn3	Zn	-0.419832	-1.597431	0.416111
Zn4	Zn	0.080168	-1.097431	0.916111
Zn5	Zn	-0.295660	-1.422818	0.416124
Zn6	Zn	0.204340	-0.922818	0.916124
Zn7	Zn	-0.419777	-1.422764	0.590811
Zn8	Zn	0.080223	-0.922764	1.090811
O9	O	-0.357723	-1.510147	0.503474
O10	O	0.142277	-1.010147	1.003474
O11	O	-0.312109	-1.743793	0.567682
O12	O	0.187891	-1.243793	1.067682
O13	O	-0.403399	-1.574230	0.269877
O14	O	0.096601	-1.074230	0.769877
O15	O	-0.191731	-1.446083	0.439323
O16	O	0.308269	-0.946083	0.939323
O17	O	-0.403364	-1.743687	0.439302
O18	O	0.096636	-1.243687	0.939302
O19	O	-0.191704	-1.574478	0.567694
O20	O	0.308296	-1.074478	1.067694
O21	O	-0.312170	-1.445943	0.269886
O22	O	0.187830	-0.945943	0.769886
O23	O	-0.312117	-1.276575	0.439286
O24	O	0.187883	-0.776575	0.939286
O25	O	-0.403269	-1.445991	0.737053
O26	O	0.096731	-0.945991	1.237053
O27	O	-0.403304	-1.276535	0.567628
O28	O	0.096696	-0.776535	1.067628
O29	O	-0.312055	-1.574425	0.737081
O30	O	0.187945	-1.074425	1.237081
O31	O	-0.523749	-1.574178	0.439264
O32	O	-0.023749	-1.074178	0.939264
O33	O	-0.523709	-1.445851	0.567615
O34	O	-0.023709	-0.945851	1.067615
C35	C	-0.357709	-1.238638	0.503454
C36	C	0.142291	-0.738638	1.003454
C37	C	-0.357721	-1.122484	0.503471
C38	C	0.142279	-0.622484	1.003471
C39	C	-0.550675	-1.510021	0.503457
C40	C	-0.050675	-1.010021	1.003457
C41	C	-0.633221	-1.510063	0.503484
C42	C	-0.133221	-1.010063	1.003484
C43	C	-0.357652	-1.510219	0.776045
C44	C	0.142348	-1.010219	1.276045
C45	C	-0.357622	-1.510249	0.892198
C46	C	0.142378	-1.010249	1.392198
C47	C	-0.832677	-1.440347	0.573257
C48	C	-0.332677	-0.940347	1.073257
C49	C	-0.882124	-1.414870	0.477900
C50	C	-0.382124	-0.914870	0.977900
C51	C	-0.784351	-1.510166	0.503498
C52	C	-0.284351	-1.010166	1.003498
C53	C	-0.881986	-1.535694	0.598866
C54	C	-0.381986	-1.035694	1.098866
C55	C	-0.930337	-1.510263	0.503520
C56	C	-0.430337	-1.010263	1.003520
C57	C	-0.832712	-1.484639	0.408091
C58	C	-0.332712	-0.984639	0.908091
C59	C	-0.832569	-1.605506	0.529120
C60	C	-0.332569	-1.105506	1.029120
C61	C	-0.881994	-1.580066	0.433698
C62	C	-0.381994	-1.080066	0.933698
C63	C	-0.700253	-1.510107	0.503487
C64	C	-0.200253	-1.010107	1.003487
C65	C	-1.014433	-1.510322	0.503520
C66	C	-0.514433	-1.010322	1.003520
C67	C	-0.164018	-1.510303	0.503515
C68	C	0.335982	-1.010303	1.003515
C69	C	-0.081472	-1.510369	0.503532
C70	C	0.418528	-1.010369	1.003532
C71	C	-0.357738	-1.782718	0.503495
C72	C	0.142262	-1.282718	1.003495
C73	C	-0.357745	-1.898871	0.503504
C74	C	0.142255	-1.398871	1.003504
C75	C	-0.402914	-1.070708	0.566880
C76	C	0.097086	-0.570708	1.066880
C77	C	-0.402927	-0.950657	0.566899
C78	C	0.097073	-0.450657	1.066899
C79	C	-0.357741	-1.510137	0.231964
C80	C	0.142259	-1.010137	0.731964
C81	C	-0.357562	-1.510309	0.115812
C82	C	0.142438	-1.010309	0.615812
C83	C	-0.312477	-1.573809	0.943997
C84	C	0.187523	-1.073809	1.443997
C85	C	-0.312444	-1.573842	1.064047
C86	C	0.187556	-1.073842	1.564047
H87	H	-0.811021	-1.381217	0.632167
H88	H	-0.311021	-0.881217	1.132167
F89	F	-0.804097	-1.710808	0.557480
F90	F	-0.304097	-1.210808	1.057480
F91	F	-0.261928	-1.644976	1.122268
F92	F	0.238072	-1.144976	1.622268
H93	H	-0.319036	-1.077936	0.449201
H94	H	0.180964	-0.577936	0.949201
H95	H	-0.396217	-1.455894	1.071273
H96	H	0.103783	-0.955894	1.571273
H97	H	-0.319054	-0.943391	0.449210
H98	H	0.180946	-0.443391	0.949210
H99	H	-0.441621	-0.906131	0.621183
H100	H	0.058379	-0.406131	1.121183
H101	H	-0.273848	-1.628197	0.899467
H102	H	0.226152	-1.128197	1.399467
H103	H	-0.396243	-1.455850	0.936728
H104	H	0.103757	-0.955850	1.436728
H105	H	-0.811157	-1.462993	0.327426
H106	H	-0.311157	-0.962993	0.827426
F107	F	-0.910120	-1.657297	0.356516
F108	F	-0.410120	-1.157297	0.856516
F109	F	-0.910573	-1.309540	0.449575
F110	F	-0.410573	-0.809540	0.949575
H111	H	-0.903630	-1.557247	0.679509
H112	H	-0.403630	-1.057247	1.179509
F113	F	-0.453478	-1.128931	0.637820
F114	F	0.046522	-0.628931	1.137820
