data_functionalizedCrystal
_audit_creation_method	'MofGen! by Chris Wilmer'
_symmetry_space_group_name_H-M	'P1'
_symmetry_Int_Tables_number	1
_symmetry_cell_setting	triclinic
loop_
_symmetry_equiv_pos_as_xyz
  x,y,z
_cell_length_a	16.959455
_cell_length_b	16.959454
_cell_length_c	16.959447
_cell_angle_alpha	90.025781
_cell_angle_beta	90.015228
_cell_angle_gamma	90.017705
loop_
_atom_site_label
_atom_site_type_symbol
_atom_site_fract_x
_atom_site_fract_y
_atom_site_fract_z
Zn1	Zn	-1.208368	0.314776	-0.446953
Zn2	Zn	-0.875035	0.648110	-0.113619
Zn3	Zn	-0.541701	0.981443	0.219714
Zn4	Zn	-1.208284	0.446969	-0.314785
Zn5	Zn	-0.874951	0.780302	0.018549
Zn6	Zn	-0.541617	1.113635	0.351882
Zn7	Zn	-1.076196	0.314796	-0.314788
Zn8	Zn	-0.742863	0.648129	0.018545
Zn9	Zn	-0.409530	0.981463	0.351879
Zn10	Zn	-1.076155	0.446905	-0.446921
Zn11	Zn	-0.742821	0.780238	-0.113588
Zn12	Zn	-0.409488	1.113571	0.219746
O13	O	-1.142251	0.380861	-0.380862
O14	O	-0.808917	0.714195	-0.047528
O15	O	-0.475584	1.047528	0.285805
O16	O	-1.318968	0.332330	-0.429432
O17	O	-0.985634	0.665664	-0.096099
O18	O	-0.652301	0.998997	0.237235
O19	O	-1.190745	0.429471	-0.204174
O20	O	-0.857411	0.762804	0.129159
O21	O	-0.524078	1.096137	0.462493
O22	O	-1.093782	0.204183	-0.332335
O23	O	-0.760449	0.537516	0.000999
O24	O	-0.427115	0.870849	0.334332
O25	O	-1.318906	0.429452	-0.332329
O26	O	-0.985573	0.762785	0.001005
O27	O	-0.652239	1.096118	0.334338
O28	O	-1.190888	0.204168	-0.429435
O29	O	-0.857555	0.537501	-0.096102
O30	O	-0.524221	0.870835	0.237231
O31	O	-1.093701	0.332364	-0.204177
O32	O	-0.760367	0.665697	0.129157
O33	O	-0.427034	0.999031	0.462490
O34	O	-0.965580	0.332302	-0.332304
O35	O	-0.632247	0.665635	0.001029
O36	O	-0.298913	0.998969	0.334363
O37	O	-1.093711	0.429342	-0.557536
O38	O	-0.760377	0.762676	-0.224203
O39	O	-0.427044	1.096009	0.109130
O40	O	-0.965549	0.429362	-0.429382
O41	O	-0.632216	0.762695	-0.096048
O42	O	-0.298883	1.096028	0.237285
O43	O	-1.190847	0.332268	-0.557559
O44	O	-0.857514	0.665602	-0.224226
O45	O	-0.524181	0.998935	0.109107
O46	O	-1.190704	0.557571	-0.332298
O47	O	-0.857371	0.890904	0.001035
O48	O	-0.524037	1.224238	0.334369
O49	O	-1.093629	0.557524	-0.429378
O50	O	-0.760296	0.890857	-0.096045
O51	O	-0.426962	1.224191	0.237288
C52	C	-0.936885	0.380828	-0.380840
C53	C	-0.603551	0.714161	-0.047507
C54	C	-0.270218	1.047494	0.285826
C55	C	-0.849028	0.380832	-0.380850
C56	C	-0.515695	0.714165	-0.047517
C57	C	-0.182361	1.047499	0.285817
C58	C	-1.142174	0.586228	-0.380852
C59	C	-0.808841	0.919561	-0.047518
C60	C	-0.475508	1.252894	0.285815
C61	C	-1.142214	0.674084	-0.380874
C62	C	-0.808881	1.007418	-0.047540
C63	C	-0.475547	1.340751	0.285793
C64	C	-0.477544	0.330256	-0.330408
C65	C	-0.144211	0.663589	0.002925
C66	C	0.189123	0.996922	0.336258
C67	C	-0.477561	0.431482	-0.431339
C68	C	-0.144227	0.764815	-0.098006
C69	C	0.189106	1.098148	0.235328
C70	C	-0.560107	0.431473	-0.431336
C71	C	-0.226773	0.764807	-0.098002
C72	C	0.106560	1.098140	0.235331
C73	C	-0.601375	0.380856	-0.380867
C74	C	-0.268042	0.714190	-0.047534
C75	C	0.065292	1.047523	0.285800
C76	C	-0.560097	0.330248	-0.330402
C77	C	-0.226764	0.663581	0.002932
C78	C	0.106569	0.996914	0.336265
C79	C	-0.601390	0.482087	-0.481794
C80	C	-0.268057	0.815420	-0.148461
C81	C	0.065276	1.148753	0.184873
C82	C	-0.683941	0.482081	-0.481792
C83	C	-0.350608	0.815415	-0.148459
C84	C	-0.017275	1.148748	0.184875
C85	C	-0.725211	0.431460	-0.431327
C86	C	-0.391878	0.764793	-0.097993
C87	C	-0.058544	1.098126	0.235340
C88	C	-0.683929	0.380848	-0.380860
C89	C	-0.350595	0.714182	-0.047527
C90	C	-0.017262	1.047515	0.285807
C91	C	-0.725197	0.330231	-0.330391
C92	C	-0.391864	0.663565	0.002942
C93	C	-0.058530	0.996898	0.336275
C94	C	-0.683916	0.279615	-0.279928
C95	C	-0.350582	0.612949	0.053405
C96	C	-0.017249	0.946282	0.386738
C97	C	-0.601367	0.279626	-0.279936
C98	C	-0.268034	0.612960	0.053397
C99	C	0.065299	0.946293	0.386730
C100	C	-0.807760	0.431449	-0.431319
C101	C	-0.474426	0.764782	-0.097985
C102	C	-0.141093	1.098116	0.235348
C103	C	-0.807750	0.330223	-0.330385
C104	C	-0.474417	0.663557	0.002949
C105	C	-0.141084	0.996890	0.336282
C106	C	-0.348419	0.380886	-0.380880
C107	C	-0.015086	0.714220	-0.047546
C108	C	0.318248	1.047553	0.285787
C109	C	-0.436276	0.380873	-0.380877
C110	C	-0.102942	0.714206	-0.047544
C111	C	0.230391	1.047539	0.285790
C112	C	-1.091744	1.045565	-0.431417
C113	C	-0.758411	1.378899	-0.098084
C114	C	-0.425077	1.712232	0.235250
C115	C	-1.192911	1.045554	-0.330409
C116	C	-0.859578	1.378888	0.002924
C117	C	-0.526245	1.712221	0.336258
C118	C	-1.192888	0.963008	-0.330400
C119	C	-0.859554	1.296342	0.002933
C120	C	-0.526221	1.629675	0.336266
C121	C	-1.142291	0.921737	-0.380900
C122	C	-0.808958	1.255070	-0.047567
C123	C	-0.475624	1.588404	0.285767
C124	C	-1.091717	0.963012	-0.431408
C125	C	-0.758384	1.296345	-0.098075
C126	C	-0.425051	1.629678	0.235259
C127	C	-1.243455	0.921728	-0.279887
C128	C	-0.910121	1.255061	0.053446
C129	C	-0.576788	1.588394	0.386779
C130	C	-1.243433	0.839177	-0.279876
C131	C	-0.910099	1.172510	0.053457
C132	C	-0.576766	1.505843	0.386791
C133	C	-1.192839	0.797904	-0.330380
C134	C	-0.859506	1.131237	0.002953
C135	C	-0.526172	1.464571	0.336286
C136	C	-1.142264	0.839184	-0.380891
C137	C	-0.808931	1.172517	-0.047558
C138	C	-0.475597	1.505850	0.285776
C139	C	-1.091667	0.797912	-0.431391
C140	C	-0.758334	1.131246	-0.098057
C141	C	-0.425000	1.464579	0.235276
C142	C	-1.041096	0.839190	-0.481906
C143	C	-0.707762	1.172524	-0.148573
C144	C	-0.374429	1.505857	0.184760
C145	C	-1.041124	0.921739	-0.481912
C146	C	-0.707790	1.255072	-0.148579
C147	C	-0.374457	1.588406	0.184754
C148	C	-1.192811	0.715356	-0.330374
C149	C	-0.859478	1.048689	0.002959
C150	C	-0.526144	1.382022	0.336292
C151	C	-1.091640	0.715359	-0.431382
C152	C	-0.758307	1.048692	-0.098049
C153	C	-0.424974	1.382025	0.235285
C154	C	-1.142284	0.380796	-0.587030
C155	C	-0.808950	0.714129	-0.253697
C156	C	-0.475617	1.047463	0.079637
C157	C	-1.142298	0.380768	-0.674887
C158	C	-0.808964	0.714101	-0.341553
C159	C	-0.475631	1.047435	-0.008220
C160	C	-1.142337	1.174693	-0.380893
C161	C	-0.809003	1.508027	-0.047560
C162	C	-0.475670	1.841360	0.285773
C163	C	-1.142341	1.086837	-0.380917
C164	C	-0.809008	1.420170	-0.047584
C165	C	-0.475674	1.753503	0.285749
C166	C	-1.091817	0.431227	-1.046353
C167	C	-0.758484	0.764560	-0.713019
C168	C	-0.425151	1.097893	-0.379686
C169	C	-1.192967	0.330143	-1.046372
C170	C	-0.859633	0.663476	-0.713039
C171	C	-0.526300	0.996809	-0.379705
C172	C	-1.192946	0.330159	-0.963826
C173	C	-0.859612	0.663493	-0.630493
C174	C	-0.526279	0.996826	-0.297159
C175	C	-1.142361	0.380711	-0.922540
C176	C	-0.809027	0.714045	-0.589206
C177	C	-0.475694	1.047378	-0.255873
C178	C	-1.091797	0.431247	-0.963799
C179	C	-0.758463	0.764580	-0.630466
C180	C	-0.425130	1.097913	-0.297133
C181	C	-1.243515	0.279631	-0.922560
C182	C	-0.910181	0.612964	-0.589227
C183	C	-0.576848	0.946298	-0.255894
C184	C	-1.243496	0.279646	-0.840009
C185	C	-0.910163	0.612979	-0.506676
C186	C	-0.576829	0.946313	-0.173343
C187	C	-1.192906	0.330195	-0.798722
C188	C	-0.859573	0.663528	-0.465388
C189	C	-0.526240	0.996861	-0.132055
C190	C	-1.142340	0.380731	-0.839986
C191	C	-0.809006	0.714065	-0.506653
C192	C	-0.475673	1.047398	-0.173319
C193	C	-1.091755	0.431283	-0.798700
C194	C	-0.758421	0.764617	-0.465366
C195	C	-0.425088	1.097950	-0.132033
C196	C	-1.041183	0.481817	-0.839963
C197	C	-0.707850	0.815150	-0.506629
C198	C	-0.374517	1.148483	-0.173296
C199	C	-1.041207	0.481795	-0.922511
C200	C	-0.707873	0.815129	-0.589178
C201	C	-0.374540	1.148462	-0.255845
C202	C	-1.192883	0.330216	-0.716173
C203	C	-0.859549	0.663549	-0.382840
C204	C	-0.526216	0.996883	-0.049506
C205	C	-1.091734	0.431303	-0.716146
C206	C	-0.758400	0.764637	-0.382813
C207	C	-0.425067	1.097970	-0.049479
C208	C	-1.142263	0.380870	-0.175495
C209	C	-0.808930	0.714203	0.157838
C210	C	-0.475597	1.047536	0.491171
C211	C	-1.142403	0.380675	-0.087639
C212	C	-0.809069	0.714008	0.245694
C213	C	-0.475736	1.047341	0.579027
H214	H	-0.841345	0.289000	-0.289291
H215	H	-0.508012	0.622333	0.044042
H216	H	-0.174679	0.955666	0.377376
H217	H	-0.999895	0.805578	-0.523020
H218	H	-0.666562	1.138911	-0.189687
H219	H	-0.333229	1.472245	0.143647
H220	H	-1.050572	1.079178	-0.472548
H221	H	-0.717239	1.412511	-0.139214
H222	H	-0.383906	1.745844	0.194119
H223	H	-1.234155	0.288990	-1.079992
H224	H	-0.900822	0.622323	-0.746659
H225	H	-0.567489	0.955657	-0.413326
H226	H	-1.050533	0.472462	-0.682537
H227	H	-0.717200	0.805796	-0.349203
H228	H	-0.383867	1.139129	-0.015870
H229	H	-1.234100	1.079162	-0.289290
H230	H	-0.900767	1.412496	0.044043
H231	H	-0.567434	1.745829	0.377377
H232	H	-0.841367	0.472662	-0.472403
H233	H	-0.508034	0.805995	-0.139069
H234	H	-0.174700	1.139329	0.194264
H235	H	-1.284642	0.955337	-0.238768
H236	H	-0.951309	1.288670	0.094566
H237	H	-0.617976	1.622004	0.427899
H238	H	-1.284611	0.805573	-0.238745
H239	H	-0.951278	1.138907	0.094588
H240	H	-0.617944	1.472240	0.427922
H241	H	-0.717545	0.523295	-0.522883
H242	H	-0.384212	0.856629	-0.189549
H243	H	-0.050879	1.189962	0.143784
H244	H	-1.050441	0.681761	-0.472508
H245	H	-0.717108	1.015094	-0.139175
H246	H	-0.383774	1.348427	0.194159
H247	H	-0.567783	0.523302	-0.522877
H248	H	-0.234450	0.856635	-0.189544
H249	H	0.098883	1.189969	0.143789
H250	H	-0.717527	0.238407	-0.238833
H251	H	-0.384194	0.571740	0.094500
H252	H	-0.050861	0.905073	0.427834
H253	H	-0.999950	0.955355	-0.523038
H254	H	-0.666617	1.288688	-0.189705
H255	H	-0.333284	1.622022	0.143628
H256	H	-1.050641	0.472367	-1.079953
H257	H	-0.717308	0.805701	-0.746620
H258	H	-0.383975	1.139034	-0.413286
H259	H	-1.000000	0.522980	-0.806337
H260	H	-0.666667	0.856313	-0.473003
H261	H	-0.333334	1.189646	-0.139670
H262	H	-1.233982	0.681751	-0.289242
H263	H	-0.900648	1.015084	0.044092
H264	H	-0.567315	1.348417	0.377425
H265	H	-1.284703	0.238479	-0.956182
H266	H	-0.951370	0.571812	-0.622849
H267	H	-0.618036	0.905146	-0.289515
H268	H	-1.000037	0.522939	-0.956115
H269	H	-0.666704	0.856273	-0.622782
H270	H	-0.333370	1.189606	-0.289448
H271	H	-0.567749	0.238418	-0.238851
H272	H	-0.234416	0.571752	0.094482
H273	H	0.098918	0.905085	0.427816
H274	H	-1.284674	0.238498	-0.806420
H275	H	-0.951341	0.571832	-0.473087
H276	H	-0.618007	0.905165	-0.139753
H277	H	-1.234059	0.289075	-0.682580
H278	H	-0.900726	0.622408	-0.349247
H279	H	-0.567393	0.955742	-0.015914
H280	H	-0.443929	0.289043	-0.289325
H281	H	-0.110596	0.622377	0.044009
H282	H	0.222737	0.955710	0.377342
H283	H	-0.443955	0.472696	-0.472424
H284	H	-0.110622	0.806029	-0.139090
H285	H	0.222712	1.139363	0.194243
