data_functionalizedCrystal
_audit_creation_method	'MofGen! by Chris Wilmer'
_symmetry_space_group_name_H-M	'P1'
_symmetry_Int_Tables_number	1
_symmetry_cell_setting	triclinic
loop_
_symmetry_equiv_pos_as_xyz
  x,y,z
_cell_length_a	18.101395
_cell_length_b	18.101398
_cell_length_c	14.908308
_cell_angle_alpha	93.282763
_cell_angle_beta	93.266316
_cell_angle_gamma	90.029256
loop_
_atom_site_label
_atom_site_type_symbol
_atom_site_fract_x
_atom_site_fract_y
_atom_site_fract_z
Zn1	Zn	-0.319011	1.107952	-0.509984
Zn2	Zn	-0.435717	1.114997	-0.359129
Zn3	Zn	-0.311892	0.991259	-0.359154
Zn4	Zn	-0.442810	0.984063	-0.509950
O5	O	-0.377357	1.049568	-0.434554
O6	O	-0.334504	1.212519	-0.489976
O7	O	-0.413344	1.104543	-0.232890
O8	O	-0.209204	1.006801	-0.379187
O9	O	-0.420248	1.217695	-0.379144
O10	O	-0.214435	1.092535	-0.490001
O11	O	-0.322370	1.013633	-0.232909
O12	O	-0.329247	0.886672	-0.379154
O13	O	-0.432335	0.994537	-0.636196
O14	O	-0.425432	0.881385	-0.489943
O15	O	-0.341381	1.085558	-0.636222
O16	O	-0.540290	1.097565	-0.379111
O17	O	-0.545500	1.001369	-0.489918
C18	C	-0.377337	0.857157	-0.434548
C19	C	-0.377347	0.774842	-0.434567
C20	C	-0.569767	1.049470	-0.434528
C21	C	-0.652082	1.049494	-0.434547
C22	C	-0.377360	0.624134	-0.434565
C23	C	-0.437960	0.589484	-0.504163
C24	C	-0.438183	0.503875	-0.503957
C25	C	-0.377374	0.475752	-0.434565
C26	C	-0.393695	0.511315	-0.339376
C27	C	-0.394122	0.596941	-0.339779
C28	C	-0.300258	0.591439	-0.459326
C29	C	-0.300786	0.505690	-0.461422
C30	C	-0.377380	0.391892	-0.434560
C31	C	-0.377356	0.707994	-0.434565
C32	C	-0.951175	1.049655	-0.434595
C33	C	-0.923167	0.989255	-0.504485
C34	C	-0.837539	0.988994	-0.504267
C35	C	-0.802791	1.049575	-0.434572
C36	C	-0.829441	1.032952	-0.339497
C37	C	-0.915106	1.032564	-0.339915
C38	C	-0.920674	1.126842	-0.458943
C39	C	-0.835121	1.126283	-0.461028
C40	C	-0.718931	1.049532	-0.434553
C41	C	-1.035035	1.049696	-0.434608
C42	C	-0.184198	1.049685	-0.434601
C43	C	-0.101884	1.049735	-0.434620
C44	C	-0.388443	1.038459	-0.669857
C45	C	-0.393167	1.033725	-0.770129
C46	C	-0.377379	1.242729	-0.434561
C47	C	-0.377388	1.325043	-0.434564
C48	C	-0.307316	1.119607	-0.958579
C49	C	-0.311752	1.115162	-1.052794
C50	C	-0.406471	1.020385	-1.052775
C51	C	-0.402035	1.024831	-0.958560
C52	C	-0.352457	1.074444	-0.911466
C53	C	-0.348025	1.078893	-0.817250
C54	C	-0.442739	0.984113	-0.817232
C55	C	-0.447176	0.979668	-0.911447
C56	C	-0.366261	1.060676	-0.200167
C57	C	-0.361329	1.065553	-0.099895
H58	H	-0.428531	0.479536	-0.574526
H59	H	-0.266951	1.160008	-0.920234
C60	C	-0.460984	0.965796	-1.104595
N61	N	-0.502039	0.924675	-1.143627
C62	C	-0.278920	0.616279	-0.551522
N63	N	-0.262856	0.634988	-0.620969
H64	H	-0.274992	1.151936	-1.091150
H65	H	-0.428470	0.606750	-0.574952
C66	C	-0.501703	0.925090	-0.963262
N67	N	-0.542775	0.883981	-1.002288
C68	C	-0.335634	0.487236	-0.267394
N69	N	-0.291901	0.469097	-0.213178
C70	C	-0.237055	0.479807	-0.397993
N71	N	-0.189054	0.460309	-0.350213
H72	H	-0.479498	0.947340	-0.778863
H73	H	-0.494864	0.611741	-0.487935
H74	H	-0.288391	0.482077	-0.531476
H75	H	-0.934170	0.976274	-0.319289
H76	H	-0.495410	0.484132	-0.487530
H77	H	-0.351628	0.620223	-0.286144
C78	C	-0.470070	0.625224	-0.311512
N79	N	-0.527276	0.646522	-0.290224
C80	C	-0.468775	0.483660	-0.310620
N81	N	-0.525328	0.462831	-0.288966
C82	C	-0.939653	1.089739	-0.267160
N83	N	-0.958139	1.132798	-0.212356
H84	H	-0.806539	1.075759	-0.286004
C85	C	-0.944781	1.187561	-0.390179
N86	N	-0.962944	1.233290	-0.338384
C87	C	-0.239339	0.622092	-0.390864
N88	N	-0.193460	0.645187	-0.339300
H89	H	-0.807060	0.977286	-0.318501
C90	C	-0.813590	1.002336	-0.599507
N91	N	-0.795555	1.012382	-0.671247
C92	C	-0.293485	1.133466	-0.765447
N93	N	-0.252402	1.174569	-0.726432
H94	H	-0.947063	0.998991	-0.575211
H95	H	-0.816350	0.931689	-0.488139
C96	C	-0.951298	0.912300	-0.482966
N97	N	-0.972484	0.854338	-0.466752
H98	H	-0.945449	1.142876	-0.527090
H99	H	-0.811476	1.173303	-0.413834
C100	C	-0.812055	1.143349	-0.555536
N101	N	-0.794668	1.156206	-0.626713
