data_functionalizedCrystal
_audit_creation_method	'MofGen! by Chris Wilmer'
_symmetry_space_group_name_H-M	'P1'
_symmetry_Int_Tables_number	1
_symmetry_cell_setting	triclinic
loop_
_symmetry_equiv_pos_as_xyz
  x,y,z
_cell_length_a	19.121102
_cell_length_b	29.839131
_cell_length_c	19.120904
_cell_angle_alpha	92.409150
_cell_angle_beta	90.088173
_cell_angle_gamma	87.595578
loop_
_atom_site_label
_atom_site_type_symbol
_atom_site_fract_x
_atom_site_fract_y
_atom_site_fract_z
Zn1	Zn	1.054749	-0.219753	-0.442036
Zn2	Zn	1.554749	0.280247	0.057964
Zn3	Zn	1.059636	-0.291816	-0.324791
Zn4	Zn	1.559636	0.208184	0.175209
Zn5	Zn	0.942520	-0.213364	-0.319821
Zn6	Zn	1.442520	0.286636	0.180179
Zn7	Zn	0.937448	-0.291514	-0.436994
Zn8	Zn	1.437448	0.208486	0.063006
O9	O	0.998588	-0.254112	-0.380911
O10	O	1.498588	0.245888	0.119089
O11	O	1.153501	-0.232113	-0.430674
O12	O	1.653501	0.267887	0.069326
O13	O	1.048269	-0.278861	-0.226027
O14	O	1.548269	0.221139	0.273973
O15	O	0.957485	-0.151347	-0.336063
O16	O	1.457485	0.348653	0.163937
O17	O	1.157092	-0.285057	-0.344535
O18	O	1.657092	0.214943	0.155465
O19	O	1.039939	-0.156042	-0.425855
O20	O	1.539939	0.343958	0.074145
O21	O	0.962224	-0.221223	-0.222376
O22	O	1.462224	0.278777	0.277624
O23	O	0.843743	-0.220930	-0.331174
O24	O	1.343743	0.279070	0.168826
O25	O	0.948840	-0.284542	-0.535767
O26	O	1.448840	0.215458	-0.035767
O27	O	0.840017	-0.278346	-0.417260
O28	O	1.340017	0.221654	0.082740
O29	O	1.035020	-0.231820	-0.539472
O30	O	1.535020	0.268180	-0.039472
O31	O	1.043351	-0.354640	-0.339645
O32	O	1.543351	0.145360	0.160355
O33	O	0.953579	-0.354418	-0.422080
O34	O	1.453579	0.145582	0.077920
C35	C	0.816443	-0.248912	-0.373131
C36	C	1.316443	0.251088	0.126869
C37	C	0.738519	-0.246699	-0.369819
C38	C	1.238519	0.253301	0.130181
C39	C	0.699992	-0.275595	-0.413013
C40	C	1.199992	0.224405	0.086987
C41	C	0.626774	-0.273510	-0.409905
C42	C	1.126774	0.226490	0.090095
C43	C	0.592086	-0.242531	-0.363599
C44	C	1.092086	0.257469	0.136401
C45	C	0.630619	-0.213632	-0.320403
C46	C	1.130619	0.286368	0.179597
C47	C	0.703835	-0.215716	-0.323515
C48	C	1.203835	0.284284	0.176485
C49	C	0.371117	-0.234741	-0.351966
C50	C	0.871117	0.265259	0.148034
C51	C	0.297896	-0.232660	-0.348855
C52	C	0.797896	0.267340	0.151145
C53	C	0.294056	-0.292537	-0.438359
C54	C	0.794056	0.207463	0.061641
C55	C	0.367274	-0.294620	-0.441464
C56	C	0.867274	0.205380	0.058536
C57	C	0.405800	-0.265720	-0.398271
C58	C	0.905800	0.234280	0.101729
C59	C	0.517246	-0.240400	-0.360419
C60	C	1.017246	0.259600	0.139581
C61	C	0.480639	-0.267849	-0.401455
C62	C	0.980639	0.232151	0.098545
C63	C	0.998463	-0.370830	-0.380870
C64	C	1.498463	0.129170	0.119130
C65	C	0.998473	-0.420765	-0.380879
C66	C	1.498473	0.079235	0.119121
C67	C	1.045411	-0.730519	-0.338056
C68	C	1.545411	-0.230519	0.161944
C69	C	1.045496	-0.918195	-0.338087
C70	C	1.545496	-0.418195	0.161913
O71	O	1.085306	-0.942551	-0.301646
O72	O	1.585306	-0.442551	0.198354
N73	N	0.998731	-0.941559	-0.380970
N74	N	1.498731	-0.441559	0.119030
C75	C	0.951945	-0.918001	-0.423851
C76	C	1.451945	-0.418001	0.076149
O77	O	0.912175	-0.942181	-0.460332
O78	O	1.412175	-0.442181	0.039668
C79	C	0.951864	-0.730326	-0.423824
C80	C	1.451864	-0.230326	0.076176
C81	C	0.998627	-0.706964	-0.380933
C82	C	1.498627	-0.206964	0.119067
C83	C	1.092171	-0.707157	-0.295169
C84	C	1.592171	-0.207157	0.204831
C85	C	1.092146	-0.660241	-0.295159
C86	C	1.592146	-0.160241	0.204841
C87	C	1.045362	-0.636686	-0.338036
C88	C	1.545362	-0.136686	0.161964
C89	C	0.998602	-0.660048	-0.380923
C90	C	1.498602	-0.160048	0.119077
C91	C	0.905081	-0.706770	-0.466708
C92	C	1.405081	-0.206770	0.033292
C93	C	0.905066	-0.659848	-0.466699
C94	C	1.405066	-0.159848	0.033301
C95	C	0.951829	-0.636486	-0.423808
C96	C	1.451829	-0.136486	0.076192
C97	C	0.951794	-0.589577	-0.423789
C98	C	1.451794	-0.089577	0.076211
N99	N	0.998559	-0.566213	-0.380906
N100	N	1.498559	-0.066213	0.119094
C101	C	1.045343	-0.589768	-0.338030
C102	C	1.545343	-0.089768	0.161970
C103	C	0.951990	-1.016534	-0.423862
C104	C	1.451990	-0.516534	0.076138
C105	C	0.952010	-1.063452	-0.423868
C106	C	1.452010	-0.563452	0.076132
C107	C	1.045562	-1.063642	-0.338104
C108	C	1.545562	-0.563642	0.161896
C109	C	1.045539	-1.016723	-0.338095
C110	C	1.545539	-0.516723	0.161905
C111	C	0.998755	-0.993169	-0.380979
C112	C	1.498755	-0.493169	0.119021
C113	C	1.045288	-0.491240	-0.338011
C114	C	1.545288	0.008760	0.161989
C115	C	1.045257	-0.444319	-0.338003
C116	C	1.545257	0.055681	0.161997
C117	C	0.951708	-0.444133	-0.423769
C118	C	1.451708	0.055867	0.076231
C119	C	0.951735	-0.491049	-0.423775
C120	C	1.451735	0.008951	0.076225
C121	C	0.998531	-0.514602	-0.380894
C122	C	1.498531	-0.014602	0.119106
O123	O	0.912011	-0.565193	-0.460217
O124	O	1.412011	-0.065193	0.039783
O125	O	1.085117	-0.565581	-0.301566
O126	O	1.585117	-0.065581	0.198434
C127	C	1.045435	-0.777435	-0.338066
C128	C	1.545435	-0.277435	0.161934
C129	C	0.998676	-0.800797	-0.380953
C130	C	1.498676	-0.300797	0.119047
C131	C	0.951891	-0.777243	-0.423830
C132	C	1.451891	-0.277243	0.076170
C133	C	0.998695	-0.847716	-0.380959
C134	C	1.498695	-0.347716	0.119041
C135	C	1.045479	-0.871270	-0.338082
C136	C	1.545479	-0.371270	0.161918
C137	C	1.092244	-0.847906	-0.295199
C138	C	1.592244	-0.347906	0.204801
C139	C	1.092220	-0.800990	-0.295189
C140	C	1.592220	-0.300990	0.204811
C141	C	0.905126	-0.800607	-0.466712
C142	C	1.405126	-0.300607	0.033288
C143	C	0.905154	-0.847523	-0.466718
C144	C	1.405154	-0.347523	0.033282
C145	C	0.951938	-0.871078	-0.423842
C146	C	1.451938	-0.371078	0.076158
C147	C	1.181445	-0.259331	-0.388721
C148	C	1.681445	0.240669	0.111279
C149	C	1.259368	-0.261556	-0.392050
C150	C	1.759368	0.238444	0.107950
C151	C	0.990819	-0.258860	-0.563768
C152	C	1.490819	0.241140	-0.063768
C153	C	0.987508	-0.260884	-0.641691
C154	C	1.487508	0.239116	-0.141691
C155	C	0.998732	-0.136939	-0.380967
C156	C	1.498732	0.363061	0.119033
C157	C	0.998794	-0.087007	-0.380991
C158	C	1.498794	0.412993	0.119009
C159	C	1.030820	-0.234387	-0.680230
C160	C	1.530820	0.265613	-0.180230
C161	C	1.027700	-0.236286	-0.753446
C162	C	1.527700	0.263714	-0.253446
C163	C	0.981272	-0.264686	-0.788123
C164	C	1.481272	0.235314	-0.288123
C165	C	0.937956	-0.291184	-0.749580
C166	C	1.437956	0.208816	-0.249580
C167	C	0.941072	-0.289282	-0.676364
C168	C	1.441072	0.210718	-0.176364
C169	C	0.969615	-0.271800	-1.009090
C170	C	1.469615	0.228200	-0.509090
C171	C	0.966503	-0.273701	-1.082311
C172	C	1.466503	0.226299	-0.582311
C173	C	1.056247	-0.218802	-1.086172
C174	C	1.556247	0.281198	-0.586172
C175	C	1.059362	-0.216905	-1.012955
C176	C	1.559362	0.283095	-0.512955
C177	C	1.016043	-0.243401	-0.974418
C178	C	1.516043	0.256599	-0.474418
C179	C	0.978084	-0.266629	-0.862963
C180	C	1.478084	0.233371	-0.362963
C181	C	1.019228	-0.241455	-0.899580
C182	C	1.519228	0.258545	-0.399580
C183	C	1.006368	-0.249350	-0.198766
C184	C	1.506368	0.250650	0.301234
C185	C	1.009815	-0.247204	-0.120849
C186	C	1.509815	0.252796	0.379151
H187	H	0.595408	-0.297040	-0.445078
H188	H	1.095408	0.202960	0.054922
Cl189	Cl	0.908128	-0.309404	-1.125904
Cl190	Cl	1.408128	0.190596	-0.625904
H191	H	0.867068	-0.866540	-0.501645
H192	H	1.367068	-0.366540	-0.001645
Cl193	Cl	0.473631	-0.201456	-0.302207
Cl194	Cl	0.973631	0.298544	0.197793
Cl195	Cl	0.915156	-0.305111	-0.960653
Cl196	Cl	1.415156	0.194889	-0.460653
Cl197	Cl	0.752269	-0.179387	-0.269213
Cl198	Cl	1.252269	0.320613	0.230787
H199	H	1.130227	-0.641222	-0.260236
H200	H	1.630227	-0.141222	0.239764
H201	H	0.728230	-0.300822	-0.450719
H202	H	1.228230	0.199178	0.049281
Cl203	Cl	1.077586	-0.205749	-0.855985
Cl204	Cl	1.577586	0.294251	-0.355985
H205	H	0.395512	-0.319847	-0.479171
H206	H	0.895512	0.180153	0.020829
H207	H	0.269654	-0.207429	-0.311151
H208	H	0.769654	0.292571	0.188849
Cl209	Cl	0.846249	-0.630241	-0.520615
Cl210	Cl	1.346249	-0.130241	-0.020615
H211	H	0.867030	-0.781432	-0.501629
H212	H	1.367030	-0.281432	-0.001629
Cl213	Cl	0.919722	-0.302332	-0.906563
Cl214	Cl	1.419722	0.197668	-0.406563
Cl215	Cl	0.524248	-0.306792	-0.459667
Cl216	Cl	1.024248	0.193208	0.040333
H217	H	1.068629	-0.211262	-0.652001
H218	H	1.568629	0.288738	-0.152001
H219	H	0.602369	-0.188407	-0.282702
H220	H	1.102369	0.311593	0.217298
H221	H	1.083337	-0.425299	-0.303073
H222	H	1.583337	0.074701	0.196927
H223	H	0.262680	-0.316066	-0.473526
H224	H	0.762680	0.183934	0.026474
H225	H	1.130336	-0.867092	-0.260286
H226	H	1.630336	-0.367092	0.239714
H227	H	0.913659	-0.510072	-0.458702
H228	H	1.413659	-0.010072	0.041298
H229	H	0.913614	-0.424947	-0.458676
H230	H	1.413614	0.075053	0.041324
H231	H	0.402476	-0.211211	-0.316789
H232	H	0.902476	0.288789	0.183211
Cl233	Cl	1.151014	-0.771628	-0.241269
Cl234	Cl	1.651014	-0.271628	0.258731
Cl235	Cl	1.104116	-0.520841	-0.284102
Cl236	Cl	1.604116	-0.020841	0.215898
H237	H	1.083656	-1.082829	-0.303192
H238	H	1.583656	-0.582829	0.196808
H239	H	1.130272	-0.726330	-0.260254
H240	H	1.630272	-0.226330	0.239746
Cl241	Cl	1.082183	-0.202994	-0.801893
Cl242	Cl	1.582183	0.297006	-0.301893
Cl243	Cl	1.104330	-0.987359	-0.284174
Cl244	Cl	1.604330	-0.487359	0.215826
H245	H	1.091514	-0.197230	-1.117557
H246	H	1.591514	0.302770	-0.617557
H247	H	0.913924	-1.082469	-0.458787
H248	H	1.413924	-0.582469	0.041213
H249	H	0.913892	-0.997359	-0.458784
H250	H	1.413892	-0.497359	0.041216
Cl251	Cl	0.846297	-0.736128	-0.520641
Cl252	Cl	1.346297	-0.236128	-0.020641
H253	H	1.097171	-0.193780	-0.984727
H254	H	1.597171	0.306220	-0.484727
Cl255	Cl	0.879586	-0.326885	-0.793174
Cl256	Cl	1.379586	0.173115	-0.293174
Cl257	Cl	0.886619	-0.322593	-0.627916
Cl258	Cl	1.386619	0.177407	-0.127916
