data_functionalizedCrystal
_audit_creation_method	'MofGen! by Chris Wilmer'
_symmetry_space_group_name_H-M	'P1'
_symmetry_Int_Tables_number	1
_symmetry_cell_setting	triclinic
loop_
_symmetry_equiv_pos_as_xyz
  x,y,z
_cell_length_a	19.805407
_cell_length_b	19.805405
_cell_length_c	21.395356
_cell_angle_alpha	89.973607
_cell_angle_beta	89.975469
_cell_angle_gamma	90.026726
loop_
_atom_site_label
_atom_site_type_symbol
_atom_site_fract_x
_atom_site_fract_y
_atom_site_fract_z
Zn1	Zn	1.034767	-0.269480	-0.354283
Zn2	Zn	1.284767	-0.019480	-0.104283
Zn3	Zn	1.534767	0.230520	0.145717
Zn4	Zn	1.784767	0.480520	0.395717
Zn5	Zn	1.034672	-0.382668	-0.249508
Zn6	Zn	1.284672	-0.132668	0.000492
Zn7	Zn	1.534672	0.117332	0.250492
Zn8	Zn	1.784672	0.367332	0.500492
Zn9	Zn	0.921572	-0.269499	-0.249518
Zn10	Zn	1.171572	-0.019499	0.000482
Zn11	Zn	1.421572	0.230501	0.250482
Zn12	Zn	1.671572	0.480501	0.500482
Zn13	Zn	0.921545	-0.382633	-0.354246
Zn14	Zn	1.171545	-0.132633	-0.104246
Zn15	Zn	1.421545	0.117367	0.145754
Zn16	Zn	1.671545	0.367367	0.395754
O17	O	0.978139	-0.326070	-0.301889
O18	O	1.228139	-0.076070	-0.051889
O19	O	1.478139	0.173930	0.198111
O20	O	1.728139	0.423930	0.448111
O21	O	1.129471	-0.284502	-0.340395
O22	O	1.379471	-0.034502	-0.090395
O23	O	1.629471	0.215498	0.159605
O24	O	1.879471	0.465498	0.409605
O25	O	1.019640	-0.367679	-0.161831
O26	O	1.269640	-0.117679	0.088169
O27	O	1.519640	0.132321	0.338169
O28	O	1.769640	0.382321	0.588169
O29	O	0.936639	-0.174780	-0.263435
O30	O	1.186639	0.075220	-0.013435
O31	O	1.436639	0.325220	0.236565
O32	O	1.686639	0.575220	0.486565
O33	O	1.129401	-0.367661	-0.263417
O34	O	1.379401	-0.117661	-0.013417
O35	O	1.629401	0.132339	0.236583
O36	O	1.879401	0.382339	0.486583
O37	O	1.019803	-0.174766	-0.340405
O38	O	1.269803	0.075234	-0.090405
O39	O	1.519803	0.325234	0.159595
O40	O	1.769803	0.575234	0.409595
O41	O	0.936546	-0.284533	-0.161838
O42	O	1.186546	-0.034533	0.088162
O43	O	1.436546	0.215467	0.338162
O44	O	1.686546	0.465467	0.588162
O45	O	0.826852	-0.284499	-0.263399
O46	O	1.076852	-0.034499	-0.013399
O47	O	1.326852	0.215501	0.236601
O48	O	1.576852	0.465501	0.486601
O49	O	0.936593	-0.367600	-0.441929
O50	O	1.186593	-0.117600	-0.191929
O51	O	1.436593	0.132400	0.058071
O52	O	1.686593	0.382400	0.308071
O53	O	0.826832	-0.367618	-0.340343
O54	O	1.076832	-0.117618	-0.090343
O55	O	1.326832	0.132382	0.159657
O56	O	1.576832	0.382382	0.409657
O57	O	1.019777	-0.284468	-0.441956
O58	O	1.269777	-0.034468	-0.191956
O59	O	1.519777	0.215532	0.058044
O60	O	1.769777	0.465532	0.308044
O61	O	1.019614	-0.477380	-0.263382
O62	O	1.269614	-0.227380	-0.013382
O63	O	1.519614	0.022620	0.236618
O64	O	1.769614	0.272620	0.486618
O65	O	0.936500	-0.477354	-0.340333
O66	O	1.186500	-0.227354	-0.090333
O67	O	1.436500	0.022646	0.159667
O68	O	1.686500	0.272646	0.409667
C69	C	0.802283	-0.326057	-0.301868
C70	C	1.052283	-0.076057	-0.051868
C71	C	1.302283	0.173943	0.198132
C72	C	1.552283	0.423943	0.448132
C73	C	0.727051	-0.326068	-0.301874
C74	C	0.977051	-0.076068	-0.051874
C75	C	1.227051	0.173932	0.198126
C76	C	1.477051	0.423932	0.448126
C77	C	0.691714	-0.369413	-0.341874
C78	C	0.941714	-0.119413	-0.091874
C79	C	1.191714	0.130587	0.158126
C80	C	1.441714	0.380587	0.408126
C81	C	0.621026	-0.369414	-0.341883
C82	C	0.871026	-0.119414	-0.091883
C83	C	1.121026	0.130586	0.158117
C84	C	1.371026	0.380586	0.408117
C85	C	0.585675	-0.326073	-0.301889
C86	C	0.835675	-0.076073	-0.051889
C87	C	1.085675	0.173927	0.198111
C88	C	1.335675	0.423927	0.448111
C89	C	0.621017	-0.282723	-0.261887
C90	C	0.871017	-0.032723	-0.011887
C91	C	1.121017	0.217277	0.238113
C92	C	1.371017	0.467277	0.488113
C93	C	0.691704	-0.282719	-0.261882
C94	C	0.941704	-0.032719	-0.011882
C95	C	1.191704	0.217281	0.238118
C96	C	1.441704	0.467281	0.488118
C97	C	0.335944	-0.282738	-0.261908
C98	C	0.585944	-0.032738	-0.011908
C99	C	0.835944	0.217262	0.238092
C100	C	1.085944	0.467262	0.488092
C101	C	0.265252	-0.282747	-0.261915
C102	C	0.515252	-0.032747	-0.011915
C103	C	0.765252	0.217253	0.238085
C104	C	1.015252	0.467253	0.488085
C105	C	0.265265	-0.369433	-0.341909
C106	C	0.515265	-0.119433	-0.091909
C107	C	0.765265	0.130567	0.158091
C108	C	1.015265	0.380567	0.408091
C109	C	0.335952	-0.369429	-0.341904
C110	C	0.585952	-0.119429	-0.091904
C111	C	0.835952	0.130571	0.158096
C112	C	1.085952	0.380571	0.408096
C113	C	0.371288	-0.326077	-0.301905
C114	C	0.621288	-0.076077	-0.051905
C115	C	0.871288	0.173923	0.198095
C116	C	1.121288	0.423923	0.448095
C117	C	0.447936	-0.326075	-0.301897
C118	C	0.697936	-0.076075	-0.051897
C119	C	0.947936	0.173925	0.198103
C120	C	1.197936	0.423925	0.448103
C121	C	0.509028	-0.326078	-0.301893
C122	C	0.759028	-0.076078	-0.051893
C123	C	1.009028	0.173922	0.198107
C124	C	1.259028	0.423922	0.448107
C125	C	0.978062	-0.501926	-0.301866
C126	C	1.228062	-0.251926	-0.051866
C127	C	1.478062	-0.001926	0.198134
C128	C	1.728062	0.248074	0.448134
C129	C	0.978091	-0.577158	-0.301877
C130	C	1.228091	-0.327158	-0.051877
C131	C	1.478091	-0.077158	0.198123
C132	C	1.728091	0.172842	0.448123
C133	C	1.021369	-0.612437	-0.341987
C134	C	1.271369	-0.362437	-0.091987
C135	C	1.521369	-0.112437	0.158013
C136	C	1.771369	0.137563	0.408013
C137	C	1.021393	-0.683125	-0.341999
C138	C	1.271393	-0.433125	-0.091999
C139	C	1.521393	-0.183125	0.158001
C140	C	1.771393	0.066875	0.408001
C141	C	0.978143	-0.718534	-0.301897
C142	C	1.228143	-0.468534	-0.051897
C143	C	1.478143	-0.218534	0.198103
C144	C	1.728143	0.031466	0.448103
C145	C	0.934860	-0.683250	-0.261785
C146	C	1.184860	-0.433250	-0.011785
C147	C	1.434860	-0.183250	0.238215
C148	C	1.684860	0.066750	0.488215
C149	C	0.934833	-0.612563	-0.261777
C150	C	1.184833	-0.362563	-0.011777
C151	C	1.434833	-0.112563	0.238223
C152	C	1.684833	0.137437	0.488223
C153	C	0.934969	-0.968323	-0.261817
C154	C	1.184969	-0.718323	-0.011817
C155	C	1.434969	-0.468323	0.238183
C156	C	1.684969	-0.218323	0.488183
C157	C	0.935001	-1.039015	-0.261827
C158	C	1.185001	-0.789015	-0.011827
C159	C	1.435001	-0.539015	0.238173
C160	C	1.685001	-0.289015	0.488173
C161	C	1.021529	-1.038886	-0.342039
C162	C	1.271529	-0.788886	-0.092039
C163	C	1.521529	-0.538886	0.157961
C164	C	1.771529	-0.288886	0.407961
C165	C	1.021502	-0.968199	-0.342031
C166	C	1.271502	-0.718199	-0.092031
C167	C	1.521502	-0.468199	0.157969
C168	C	1.771502	-0.218199	0.407969
C169	C	0.978217	-0.932921	-0.301922
C170	C	1.228217	-0.682921	-0.051922
C171	C	1.478217	-0.432921	0.198078
C172	C	1.728217	-0.182921	0.448078
C173	C	0.978190	-0.856272	-0.301910
C174	C	1.228190	-0.606272	-0.051910
C175	C	1.478190	-0.356272	0.198090
C176	C	1.728190	-0.106272	0.448090
C177	C	0.978172	-0.795181	-0.301905
C178	C	1.228172	-0.545181	-0.051905
C179	C	1.478172	-0.295181	0.198095
C180	C	1.728172	-0.045181	0.448095
C181	C	1.154682	-0.326083	-0.301909
C182	C	1.404682	-0.076083	-0.051909
C183	C	1.654682	0.173917	0.198091
C184	C	1.904682	0.423917	0.448091
C185	C	1.229914	-0.326089	-0.301918
C186	C	1.479914	-0.076089	-0.051918
C187	C	1.729914	0.173911	0.198082
C188	C	1.979914	0.423911	0.448082
C189	C	0.978192	-0.326028	-0.465312
C190	C	1.228192	-0.076028	-0.215312
C191	C	1.478192	0.173972	0.034688
C192	C	1.728192	0.423972	0.284688
C193	C	0.978215	-0.326010	-0.534953
C194	C	1.228215	-0.076010	-0.284953
C195	C	1.478215	0.173990	-0.034953
C196	C	1.728215	0.423990	0.215047
C197	C	0.978235	-0.149527	-0.301925
C198	C	1.228235	0.100473	-0.051925
C199	C	1.478235	0.350473	0.198075
C200	C	1.728235	0.600473	0.448075
C201	C	0.978276	-0.074295	-0.301941
C202	C	1.228276	0.175705	-0.051941
C203	C	1.478276	0.425705	0.198059
C204	C	1.728276	0.675705	0.448059
C205	C	0.934960	-0.282712	-0.567660
C206	C	1.184960	-0.032712	-0.317660
C207	C	1.434960	0.217288	-0.067660
C208	C	1.684960	0.467288	0.182340
C209	C	0.934957	-0.282699	-0.633096
C210	C	1.184957	-0.032699	-0.383096
C211	C	1.434957	0.217301	-0.133096
C212	C	1.684957	0.467301	0.116904
C213	C	0.978222	-0.325978	-0.665822
C214	C	1.228222	-0.075978	-0.415822
C215	C	1.478222	0.174022	-0.165822
C216	C	1.728222	0.424022	0.084178
C217	C	1.021481	-0.369285	-0.633107
C218	C	1.271481	-0.119285	-0.383107
C219	C	1.521481	0.130715	-0.133107
C220	C	1.771481	0.380715	0.116893
C221	C	1.021477	-0.369301	-0.567672
C222	C	1.271477	-0.119301	-0.317672
C223	C	1.521477	0.130699	-0.067672
C224	C	1.771477	0.380699	0.182328
C225	C	1.039207	-0.331299	-0.769509
C226	C	1.289207	-0.081299	-0.519509
C227	C	1.539207	0.168701	-0.269509
C228	C	1.789207	0.418701	-0.019509
C229	C	1.039212	-0.331278	-0.834942
C230	C	1.289212	-0.081278	-0.584942
C231	C	1.539212	0.168722	-0.334942
C232	C	1.789212	0.418722	-0.084942
C233	C	0.978234	-0.325932	-0.867642
C234	C	1.228234	-0.075932	-0.617642
C235	C	1.478234	0.174068	-0.367642
C236	C	1.728234	0.424068	-0.117642
C237	C	0.917249	-0.320593	-0.834902
C238	C	1.167249	-0.070593	-0.584902
C239	C	1.417249	0.179407	-0.334902
C240	C	1.667249	0.429407	-0.084902
C241	C	0.917245	-0.320609	-0.769468
C242	C	1.167245	-0.070609	-0.519468
C243	C	1.417245	0.179391	-0.269468
C244	C	1.667245	0.429391	-0.019468
C245	C	0.978231	-0.325966	-0.736774
C246	C	1.228231	-0.075966	-0.486774
C247	C	1.478231	0.174034	-0.236774
C248	C	1.728231	0.424034	0.013226
C249	C	0.934972	-0.282618	-0.971302
C250	C	1.184972	-0.032618	-0.721302
C251	C	1.434972	0.217382	-0.471302
C252	C	1.684972	0.467382	-0.221302
C253	C	0.934969	-0.282610	-1.036739
C254	C	1.184969	-0.032610	-0.786739
C255	C	1.434969	0.217390	-0.536739
C256	C	1.684969	0.467390	-0.286739
C257	C	1.021498	-0.369192	-1.036748
C258	C	1.271498	-0.119192	-0.786748
C259	C	1.521498	0.130808	-0.536748
C260	C	1.771498	0.380808	-0.286748
C261	C	1.021496	-0.369204	-0.971313
C262	C	1.271496	-0.119204	-0.721313
C263	C	1.521496	0.130796	-0.471313
C264	C	1.771496	0.380796	-0.221313
C265	C	0.978233	-0.325913	-0.938594
C266	C	1.228233	-0.075913	-0.688594
C267	C	1.478233	0.174087	-0.438594
C268	C	1.728233	0.424087	-0.188594
C269	C	0.978125	-0.326063	-0.139101
C270	C	1.228125	-0.076063	0.110899
C271	C	1.478125	0.173937	0.360899
C272	C	1.728125	0.423937	0.610899
C273	C	0.978233	-0.325890	-0.069460
C274	C	1.228233	-0.075890	0.180540
C275	C	1.478233	0.174110	0.430540
C276	C	1.728233	0.424110	0.680540
H277	H	0.592257	-0.404711	-0.374454
H278	H	0.842257	-0.154711	-0.124454
H279	H	1.092257	0.095289	0.125546
H280	H	1.342257	0.345289	0.375546
H281	H	0.899591	-0.583839	-0.229116
H282	H	1.149591	-0.333839	0.020884
H283	H	1.399591	-0.083839	0.270884
H284	H	1.649591	0.166161	0.520884
H285	H	0.899740	-0.247353	-1.063368
H286	H	1.149740	0.002647	-0.813368
H287	H	1.399740	0.252647	-0.563368
H288	H	1.649740	0.502647	-0.313368
H289	H	1.056591	-0.583612	-0.374640
H290	H	1.306591	-0.333612	-0.124640
H291	H	1.556591	-0.083612	0.125360
H292	H	1.806591	0.166388	0.375360
H293	H	1.056772	-1.067617	-0.374700
H294	H	1.306772	-0.817617	-0.124700
H295	H	1.556772	-0.567617	0.125300
H296	H	1.806772	-0.317617	0.375300
H297	H	1.056640	-0.711846	-0.374655
H298	H	1.306640	-0.461846	-0.124655
H299	H	1.556640	-0.211846	0.125345
H300	H	1.806640	0.038154	0.375345
H301	H	1.056727	-0.404430	-1.063393
H302	H	1.306727	-0.154430	-0.813393
H303	H	1.556727	0.095570	-0.563393
H304	H	1.806727	0.345570	-0.313393
H305	H	1.056720	-0.404461	-0.944682
H306	H	1.306720	-0.154461	-0.694682
H307	H	1.556720	0.095539	-0.444682
H308	H	1.806720	0.345539	-0.194682
H309	H	0.236472	-0.247449	-0.229347
H310	H	0.486472	0.002551	0.020653
H311	H	0.736472	0.252551	0.270653
H312	H	0.986472	0.502551	0.520653
H313	H	1.056723	-0.939371	-0.374683
H314	H	1.306723	-0.689371	-0.124683
H315	H	1.556723	-0.439371	0.125317
H316	H	1.806723	-0.189371	0.375317
H317	H	0.899726	-0.939605	-0.229158
H318	H	1.149726	-0.689605	0.020842
H319	H	1.399726	-0.439605	0.270842
H320	H	1.649726	-0.189605	0.520842
H321	H	0.236486	-0.404730	-0.374480
H322	H	0.486486	-0.154730	-0.124480
H323	H	0.736486	0.095270	0.125520
H324	H	0.986486	0.345270	0.375520
H325	H	0.899730	-0.247463	-0.541024
H326	H	1.149730	0.002537	-0.291024
H327	H	1.399730	0.252537	-0.041024
H328	H	1.649730	0.502537	0.208976
H329	H	0.364731	-0.404724	-0.374469
H330	H	0.614731	-0.154724	-0.124469
H331	H	0.864731	0.095276	0.125531
H332	H	1.114731	0.345276	0.375531
H333	H	1.088866	-0.335647	-0.742890
H334	H	1.338866	-0.085647	-0.492890
H335	H	1.588866	0.164353	-0.242890
H336	H	1.838866	0.414353	0.007110
H337	H	1.088869	-0.335623	-0.861594
H338	H	1.338869	-0.085623	-0.611594
H339	H	1.588869	0.164377	-0.361594
H340	H	1.838869	0.414377	-0.111594
H341	H	1.056707	-0.404523	-0.659756
H342	H	1.306707	-0.154523	-0.409756
H343	H	1.556707	0.095477	-0.159756
H344	H	1.806707	0.345477	0.090244
H345	H	0.899642	-0.712085	-0.229136
H346	H	1.149642	-0.462085	0.020864
H347	H	1.399642	-0.212085	0.270864
H348	H	1.649642	0.037915	0.520864
H349	H	1.056704	-0.404559	-0.541043
H350	H	1.306704	-0.154559	-0.291043
H351	H	1.556704	0.095441	-0.041043
H352	H	1.806704	0.345441	0.208957
H353	H	0.899778	-1.067842	-0.229170
H354	H	1.149778	-0.817842	0.020830
H355	H	1.399778	-0.567842	0.270830
H356	H	1.649778	-0.317842	0.520830
H357	H	0.899735	-0.247437	-0.659731
H358	H	1.149735	0.002563	-0.409731
H359	H	1.399735	0.252563	-0.159731
H360	H	1.649735	0.502563	0.090269
H361	H	0.867595	-0.316235	-0.861525
H362	H	1.117595	-0.066235	-0.611525
H363	H	1.367595	0.183765	-0.361525
H364	H	1.617595	0.433765	-0.111525
H365	H	0.720475	-0.247419	-0.229313
H366	H	0.970475	0.002581	0.020687
H367	H	1.220475	0.252581	0.270687
H368	H	1.470475	0.502581	0.520687
H369	H	0.867589	-0.316262	-0.742813
H370	H	1.117589	-0.066262	-0.492813
H371	H	1.367589	0.183738	-0.242813
H372	H	1.617589	0.433738	0.007187
H373	H	0.899745	-0.247368	-0.944661
H374	H	1.149745	0.002632	-0.694661
H375	H	1.399745	0.252632	-0.444661
H376	H	1.649745	0.502632	-0.194661
H377	H	0.364706	-0.247443	-0.229334
H378	H	0.614706	0.002557	0.020666
H379	H	0.864706	0.252557	0.270666
H380	H	1.114706	0.502557	0.520666
H381	H	0.720491	-0.404709	-0.374440
H382	H	0.970491	-0.154709	-0.124440
H383	H	1.220491	0.095291	0.125560
H384	H	1.470491	0.345291	0.375560
H385	H	0.592229	-0.247431	-0.229326
H386	H	0.842229	0.002569	0.020674
H387	H	1.092229	0.252569	0.270674
H388	H	1.342229	0.502569	0.520674
