data_functionalizedCrystal
_audit_creation_method	'MofGen! by Chris Wilmer'
_symmetry_space_group_name_H-M	'P1'
_symmetry_Int_Tables_number	1
_symmetry_cell_setting	triclinic
loop_
_symmetry_equiv_pos_as_xyz
  x,y,z
_cell_length_a	19.077236
_cell_length_b	12.645330
_cell_length_c	19.076919
_cell_angle_alpha	87.729818
_cell_angle_beta	89.887323
_cell_angle_gamma	87.689229
loop_
_atom_site_label
_atom_site_type_symbol
_atom_site_fract_x
_atom_site_fract_y
_atom_site_fract_z
Zn1	Zn	1.058320	0.384816	-0.440536
Zn2	Zn	1.558320	0.884816	0.059464
Zn3	Zn	1.062973	0.554703	-0.323026
Zn4	Zn	1.562973	1.054703	0.176974
Zn5	Zn	0.945536	0.384260	-0.318316
Zn6	Zn	1.445536	0.884260	0.181684
Zn7	Zn	0.940793	0.568845	-0.435764
Zn8	Zn	1.440793	1.068845	0.064236
O9	O	1.001906	0.473156	-0.379410
O10	O	1.501906	0.973156	0.120590
O11	O	1.157271	0.401665	-0.428916
O12	O	1.657271	0.901665	0.071084
O13	O	1.051327	0.525942	-0.224071
O14	O	1.551327	1.025942	0.275929
O15	O	0.960534	0.235986	-0.334554
O16	O	1.460534	0.735986	0.165446
O17	O	1.160689	0.526481	-0.342582
O18	O	1.660689	1.026481	0.157418
O19	O	1.043397	0.236394	-0.424348
O20	O	1.543397	0.736394	0.075652
O21	O	0.965046	0.400718	-0.220610
O22	O	1.465046	0.900718	0.279390
O23	O	0.846573	0.414432	-0.329927
O24	O	1.346573	0.914432	0.170073
O25	O	0.952452	0.550585	-0.534728
O26	O	1.452452	1.050585	-0.034728
O27	O	0.843089	0.550046	-0.416216
O28	O	1.343089	1.050046	0.083784
O29	O	1.038798	0.415379	-0.538233
O30	O	1.538798	0.915379	-0.038233
O31	O	1.046728	0.704927	-0.337956
O32	O	1.546728	1.204927	0.162044
O33	O	0.956963	0.715317	-0.420784
O34	O	1.456963	1.215317	0.079216
C35	C	0.819334	0.483714	-0.372043
C36	C	1.319334	0.983714	0.127957
C37	C	0.741229	0.488257	-0.368908
C38	C	1.241229	0.988257	0.131092
C39	C	1.001854	0.748587	-0.379379
C40	C	1.501854	1.248587	0.120621
C41	C	1.001896	0.866415	-0.379392
C42	C	1.501896	1.366415	0.120608
C43	C	1.058424	0.904715	-0.327331
C44	C	1.558424	1.404715	0.172669
C45	C	1.058299	1.027270	-0.327125
C46	C	1.558299	1.527270	0.172875
C47	C	0.928634	1.037459	-0.356503
C48	C	1.428634	1.537459	0.143497
C49	C	0.928937	0.914819	-0.356108
C50	C	1.428937	1.414819	0.143892
C51	C	1.018032	0.915070	-0.454479
C52	C	1.518032	1.415070	0.045521
C53	C	1.019709	1.037555	-0.454162
C54	C	1.519709	1.537555	0.045838
C55	C	0.702753	0.425519	-0.412453
C56	C	1.202753	0.925519	0.087547
C57	C	0.629365	0.429783	-0.409501
C58	C	1.129365	0.929783	0.090499
C59	C	0.594454	0.496791	-0.363007
C60	C	1.094454	0.996791	0.136993
C61	C	0.632935	0.559531	-0.319458
C62	C	1.132935	1.059531	0.180542
C63	C	0.706322	0.555261	-0.322406
C64	C	1.206322	1.055261	0.177594
C65	C	0.375162	0.516512	-0.349358
C66	C	0.875162	1.016512	0.150642
C67	C	0.301770	0.520779	-0.346414
C68	C	0.801770	1.020779	0.153586
C69	C	0.298205	0.391029	-0.436457
C70	C	0.798205	0.891029	0.063543
C71	C	0.371593	0.386770	-0.439404
C72	C	0.871593	0.886770	0.060596
C73	C	0.410068	0.449506	-0.395852
C74	C	0.910068	0.949506	0.104148
N75	N	0.519440	0.501153	-0.359991
N76	N	1.019440	1.001153	0.140009
N77	N	0.485081	0.445138	-0.398866
N78	N	0.985081	0.945138	0.101134
C79	C	1.185189	0.462557	-0.386807
C80	C	1.685189	0.962557	0.113193
C81	C	1.263294	0.458041	-0.389959
C82	C	1.763294	0.958041	0.110041
C83	C	0.994577	0.484622	-0.562689
C84	C	1.494577	0.984622	-0.062689
C85	C	0.991454	0.489508	-0.640792
C86	C	1.491454	0.989508	-0.140792
C87	C	1.001960	1.196649	-0.379442
C88	C	1.501960	1.696649	0.120558
C89	C	1.001942	1.078819	-0.379414
C90	C	1.501942	1.578819	0.120586
C91	C	1.034940	0.421412	-0.679311
C92	C	1.534940	0.921412	-0.179311
C93	C	1.031997	0.425999	-0.752696
C94	C	1.531997	0.925999	-0.252696
C95	C	0.985571	0.498688	-0.787562
C96	C	1.485571	0.998688	-0.287562
C97	C	0.942080	0.566787	-0.749037
C98	C	1.442080	1.066787	-0.249037
C99	C	0.945019	0.562194	-0.675653
C100	C	1.445019	1.062194	-0.175653
C101	C	0.971954	0.519969	-1.006841
C102	C	1.471954	1.019969	-0.506841
C103	C	0.969019	0.524559	-1.080230
C104	C	1.469019	1.024559	-0.580230
C105	C	1.058936	0.383770	-1.083884
C106	C	1.558936	0.883770	-0.583884
C107	C	1.061875	0.379187	-1.010499
C108	C	1.561875	0.879187	-0.510499
C109	C	1.018381	0.447282	-0.971981
C110	C	1.518381	0.947282	-0.471981
N111	N	0.982563	0.503381	-0.862573
N112	N	1.482563	1.003381	-0.362573
N113	N	1.021386	0.442583	-0.896970
N114	N	1.521386	0.942583	-0.396970
C115	C	1.009246	0.461656	-0.196846
C116	C	1.509246	0.961656	0.303154
C117	C	1.012505	0.456464	-0.118749
C118	C	1.512505	0.956464	0.381251
H119	H	1.112747	1.054886	-0.341784
H120	H	1.612747	1.554886	0.158216
H121	H	1.094345	0.328329	-1.115253
H122	H	1.594345	0.828329	-0.615253
H123	H	0.909601	0.617634	-0.644291
H124	H	1.409601	1.117634	-0.144291
H125	H	0.981330	1.072973	-0.495261
H126	H	1.481330	1.572973	0.004739
H127	H	1.067410	0.370551	-0.784056
H128	H	1.567410	0.870551	-0.284056
H129	H	0.266871	0.339951	-0.471914
H130	H	0.766871	0.839951	0.028086
H131	H	0.598041	0.378697	-0.444962
H132	H	1.098041	0.878697	0.055038
H133	H	1.113036	0.872752	-0.341853
H134	H	1.613036	1.372752	0.158147
H135	H	1.048108	0.871253	-0.272075
H136	H	1.548108	1.371253	0.227925
H137	H	0.273348	0.575350	-0.308552
H138	H	0.773348	1.075350	0.191448
H139	H	0.914939	0.883818	-0.301138
H140	H	1.414939	1.383818	0.198862
H141	H	0.406480	0.567597	-0.313895
H142	H	0.906480	1.067597	0.186105
H143	H	0.604505	0.614085	-0.281598
H144	H	1.104505	1.114085	0.218402
H145	H	0.737649	0.606349	-0.286947
H146	H	1.237649	1.106349	0.213053
H147	H	1.072748	0.362224	-0.650929
H148	H	1.572748	0.862224	-0.150929
H149	H	1.070408	0.882139	-0.474782
H150	H	1.570408	1.382139	0.025218
H151	H	0.904276	0.625968	-0.777430
H152	H	1.404276	1.125968	-0.277430
H153	H	0.400012	0.332208	-0.477267
H154	H	0.900012	0.832208	0.022733
H155	H	0.914344	1.065812	-0.302124
H156	H	1.414344	1.565812	0.197876
H157	H	1.099682	0.319999	-0.982117
H158	H	1.599682	0.819999	-0.482117
H159	H	0.931211	0.583754	-1.108615
H160	H	1.431211	1.083754	-0.608615
H161	H	0.976828	0.890888	-0.493304
H162	H	1.476828	1.390888	0.006696
H163	H	1.047853	1.053941	-0.271555
H164	H	1.547853	1.553941	0.228445
H165	H	0.885536	0.889950	-0.392227
H166	H	1.385536	1.389950	0.107773
H167	H	0.885510	1.071418	-0.393132
H168	H	1.385510	1.571418	0.106868
H169	H	1.073643	1.064351	-0.471388
H170	H	1.573643	1.564351	0.028612
H171	H	0.936549	0.575432	-0.975488
H172	H	1.436549	1.075432	-0.475488
H173	H	0.731172	0.370957	-0.450315
H174	H	1.231172	0.870957	0.049685
