data_functionalizedCrystal
_audit_creation_method	'MofGen! by Chris Wilmer'
_symmetry_space_group_name_H-M	'P1'
_symmetry_Int_Tables_number	1
_symmetry_cell_setting	triclinic
loop_
_symmetry_equiv_pos_as_xyz
  x,y,z
_cell_length_a	11.026607
_cell_length_b	11.026607
_cell_length_c	10.065875
_cell_angle_alpha	100.731764
_cell_angle_beta	79.302338
_cell_angle_gamma	108.586017
loop_
_atom_site_label
_atom_site_type_symbol
_atom_site_fract_x
_atom_site_fract_y
_atom_site_fract_z
O1	O	1.741286	0.518966	-0.113490
O2	O	1.374706	0.458202	-0.113493
O3	O	1.527614	0.305294	-0.113487
O4	O	1.588379	0.671873	-0.113496
O5	O	1.498489	0.334601	0.113501
O6	O	1.345582	0.487509	0.113495
O7	O	1.712161	0.548273	0.113497
Zn8	Zn	1.524247	0.522544	0.149535
Zn9	Zn	1.562620	0.483931	-0.149531
O10	O	1.559254	0.701180	0.113491
C11	C	1.312485	0.461645	0.000001
C12	C	1.170471	0.428228	0.000000
C13	C	1.501842	0.272288	0.000005
C14	C	1.468426	0.130273	0.000000
C15	C	1.116822	0.520498	-0.000003
C16	C	0.970043	0.485962	-0.000004
C17	C	1.560695	0.076624	-0.000001
C18	C	1.526160	-0.070155	-0.000006
C19	C	1.774384	0.544829	0.000001
C20	C	1.916399	0.578244	-0.000007
C21	C	1.585026	0.734186	-0.000004
C22	C	1.618444	0.876199	-0.000008
N23	N	1.498068	0.548898	0.353640
N24	N	1.588808	0.457569	-0.353635
C25	C	1.553502	0.493090	0.421421
C26	C	1.533366	0.513385	0.578587
H27	H	0.907318	0.381388	-0.000036
H28	H	1.615864	0.430280	0.363099
O29	O	1.401338	-0.144823	0.000170
C30	C	1.325260	-0.103352	0.117747
H31	H	1.374979	0.001512	0.156948
H32	H	1.226524	-0.111641	0.091305
H33	H	1.312758	-0.166391	0.200061
O34	O	1.423771	0.623989	0.423057
C35	C	1.476830	0.750191	0.388263
H36	H	1.539134	0.747332	0.284470
H37	H	1.395543	0.791640	0.383537
H38	H	1.538717	0.813652	0.468643
O39	O	1.343623	0.055624	-0.000065
C40	C	1.264531	0.134010	-0.000026
H41	H	1.325376	0.226598	-0.042993
H42	H	1.185068	0.079739	-0.065930
H43	H	1.219191	0.159078	0.108872
H44	H	1.470989	0.576187	0.636906
H45	H	1.723027	-0.061086	-0.000110
O46	O	1.662863	0.382290	0.576794
C47	C	1.587536	0.278260	0.494384
H48	H	1.501951	0.304949	0.473000
H49	H	1.648969	0.256318	0.393889
H50	H	1.550777	0.189393	0.549620
H51	H	1.665257	0.139358	0.000008
O52	O	1.191737	0.645194	-0.000243
C53	C	1.284639	0.654827	-0.117781
H54	H	1.249121	0.570796	-0.199951
H55	H	1.300349	0.749861	-0.157240
H56	H	1.379569	0.651616	-0.091197
O57	O	0.991300	0.702949	-0.000269
C58	C	1.084188	0.712568	-0.117818
H59	H	1.048668	0.628517	-0.199968
H60	H	1.099877	0.807586	-0.157301
H61	H	1.179130	0.709381	-0.091241
H62	H	1.107742	0.323661	-0.000032
