data_functionalizedCrystal
_audit_creation_method	'MofGen! by Chris Wilmer'
_symmetry_space_group_name_H-M	'P1'
_symmetry_Int_Tables_number	1
_symmetry_cell_setting	triclinic
loop_
_symmetry_equiv_pos_as_xyz
  x,y,z
_cell_length_a	6.817900
_cell_length_b	14.125369
_cell_length_c	17.110486
_cell_angle_alpha	96.591968
_cell_angle_beta	99.060439
_cell_angle_gamma	100.397648
loop_
_atom_site_label
_atom_site_type_symbol
_atom_site_fract_x
_atom_site_fract_y
_atom_site_fract_z
V1	V	-3.961347	-0.132827	-0.246410
O2	O	-3.966155	0.006678	-0.242039
O3	O	-3.897876	-0.263658	-0.244417
O4	O	-3.891460	-0.130655	-0.354018
O5	O	-3.972616	-0.127246	-0.131679
V6	V	-4.449713	-0.116156	-0.232724
O7	O	-4.211984	-0.169397	-0.276430
O8	O	-4.649273	-0.079587	-0.202705
O9	O	-4.289977	0.014674	-0.234718
O10	O	-4.562302	-0.255661	-0.237095
O11	O	-4.555840	-0.121737	-0.347455
O12	O	-4.296394	-0.118329	-0.125116
C13	C	-3.739906	-0.295555	-0.240450
C14	C	-3.769154	-0.402510	-0.239538
C15	C	-4.007634	-0.650649	-0.241240
C16	C	-3.822804	-0.598335	-0.237897
C17	C	-3.792954	-0.489368	-0.238810
C18	C	-4.037492	-0.759626	-0.240327
C19	C	-3.731720	-0.125896	-0.380256
C20	C	-3.755763	-0.124985	-0.468225
C21	C	-3.947792	-0.129359	-0.513572
C22	C	-3.970371	-0.128503	-0.596228
C23	C	-3.800920	-0.123280	-0.633534
C24	C	-3.608875	-0.118902	-0.588180
C25	C	-3.586296	-0.119752	-0.505526
C26	C	-3.860048	-0.120469	-0.882896
C27	C	-3.882643	-0.119623	-0.965557
C28	C	-4.244138	-0.129221	-0.973598
C29	C	-4.221544	-0.130076	-0.890942
C30	C	-4.029500	-0.125694	-0.845595
C31	C	-3.823996	-0.122407	-0.718022
C32	C	-4.006425	-0.126559	-0.761108
C33	C	-4.111289	0.046567	-0.238682
C34	C	-4.061278	0.153521	-0.239599
C35	C	-4.119476	-0.123091	-0.098874
C36	C	-4.074672	-0.123997	-0.010905
H37	H	-4.085784	-0.133619	-0.483204
O38	O	-3.652924	-0.115752	-0.833995
H39	H	-3.654627	-0.181775	-0.804434
O40	O	-4.187544	-0.601586	-0.245942
H41	H	-4.261598	-0.612961	-0.193512
H42	H	-4.359533	-0.134328	-0.860573
O43	O	-4.177480	-0.133200	-0.645139
H44	H	-4.291516	-0.136979	-0.605311
O45	O	-3.379182	-0.115041	-0.456610
H46	H	-3.265146	-0.111277	-0.496437
H47	H	-4.400493	-0.132788	-1.010529
H48	H	-4.144388	-0.130809	-0.730729
O49	O	-3.699839	-0.113882	-1.005787
H50	H	-3.562490	-0.110931	-0.960363
O51	O	-3.426101	-0.113274	-0.628413
H52	H	-3.474062	-0.113430	-0.693508
H53	H	-3.686034	-0.118158	-0.748407
H54	H	-3.686985	-0.635384	-0.234349
