data_functionalizedCrystal
_audit_creation_method	'MofGen! by Chris Wilmer'
_symmetry_space_group_name_H-M	'P1'
_symmetry_Int_Tables_number	1
_symmetry_cell_setting	triclinic
loop_
_symmetry_equiv_pos_as_xyz
  x,y,z
_cell_length_a	14.044191
_cell_length_b	19.188930
_cell_length_c	12.503572
_cell_angle_alpha	93.506241
_cell_angle_beta	86.162165
_cell_angle_gamma	88.168279
loop_
_atom_site_label
_atom_site_type_symbol
_atom_site_fract_x
_atom_site_fract_y
_atom_site_fract_z
O1	O	1.262490	0.164610	-0.089291
O2	O	0.986547	0.158532	-0.089304
O3	O	1.132480	0.060430	-0.089276
O4	O	1.116557	0.262712	-0.089319
O5	O	1.121505	0.067821	0.089364
O6	O	0.975571	0.165923	0.089336
O7	O	1.251515	0.172001	0.089349
Cu8	Cu	1.112541	0.169637	0.105654
Cu9	Cu	1.125520	0.160896	-0.105609
O10	O	1.105581	0.270103	0.089321
C11	C	0.945756	0.159568	0.000015
C12	C	0.840563	0.151637	0.000011
C13	C	0.590103	0.193385	0.000013
C14	C	0.647965	0.137150	0.000023
C15	C	0.755136	0.145213	0.000016
C16	C	0.482922	0.185324	0.000020
C17	C	1.126477	0.038081	0.000047
C18	C	1.124928	-0.039523	0.000056
C19	C	1.210557	-0.078919	0.000065
C20	C	1.209104	-0.151837	0.000048
C21	C	1.122015	-0.185356	0.000043
C22	C	1.036374	-0.145950	0.000028
C23	C	1.037831	-0.073034	0.000035
N24	N	1.051710	-0.295142	0.060835
N25	N	1.050332	-0.364410	0.060831
C26	C	1.117621	-0.405049	0.000021
N27	N	1.186354	-0.373803	-0.060771
N28	N	1.187734	-0.304529	-0.060762
C29	C	1.120426	-0.264421	0.000036
C30	C	1.201681	-0.523512	0.000010
C31	C	1.200224	-0.596432	-0.000014
C32	C	1.027491	-0.590543	-0.000023
C33	C	1.028951	-0.517625	-0.000010
C34	C	1.116048	-0.484114	0.000012
C35	C	1.292306	0.170964	0.000028
C36	C	1.397499	0.178895	0.000025
C37	C	1.111585	0.292451	-0.000004
C38	C	1.113134	0.370055	-0.000020
N39	N	1.103419	0.175785	0.254244
N40	N	1.134650	0.154743	-0.254199
C41	C	1.090000	0.184834	0.473357
C42	C	1.148066	0.145695	0.526695
C43	C	1.140599	0.150731	0.648617
C44	C	1.097465	0.179800	0.351424
H45	H	0.621053	0.247581	-0.000002
C46	C	1.297489	-0.486648	0.000018
N47	N	1.369653	-0.458884	0.000020
H48	H	0.617018	0.082947	-0.000041
H49	H	1.269957	-0.628508	-0.000012
H50	H	1.281479	-0.051639	0.000079
H51	H	1.278836	-0.183920	0.000051
H52	H	0.965466	-0.173246	0.000022
H53	H	1.203386	0.108406	0.480793
H54	H	0.956582	-0.617833	-0.000032
H55	H	1.034685	0.222122	0.519254
H56	H	0.968099	-0.040958	0.000028
H57	H	0.959222	-0.485548	-0.000011
