data_functionalizedCrystal
_audit_creation_method	'MofGen! by Chris Wilmer'
_symmetry_space_group_name_H-M	'P1'
_symmetry_Int_Tables_number	1
_symmetry_cell_setting	triclinic
loop_
_symmetry_equiv_pos_as_xyz
  x,y,z
_cell_length_a	9.065215
_cell_length_b	10.723024
_cell_length_c	7.540329
_cell_angle_alpha	89.997572
_cell_angle_beta	89.997574
_cell_angle_gamma	84.741283
loop_
_atom_site_label
_atom_site_type_symbol
_atom_site_fract_x
_atom_site_fract_y
_atom_site_fract_z
O1	O	1.959362	0.182967	-0.147457
O2	O	2.459362	0.682967	0.352543
O3	O	1.529991	0.197980	-0.147465
O4	O	2.029991	0.697980	0.352535
O5	O	1.754581	0.008937	-0.147454
O6	O	2.254581	0.508937	0.352546
O7	O	1.734773	0.372009	-0.147467
O8	O	2.234773	0.872009	0.352533
O9	O	1.754567	0.008935	0.147511
O10	O	2.254567	0.508935	0.647511
O11	O	1.529978	0.197977	0.147501
O12	O	2.029978	0.697977	0.647501
O13	O	1.959348	0.182964	0.147508
O14	O	2.459348	0.682964	0.647508
Cu15	Cu	1.744662	0.190471	0.174437
Cu16	Cu	2.244662	0.690471	0.674437
Cu17	Cu	1.744678	0.190474	-0.174393
Cu18	Cu	2.244678	0.690474	0.325607
O19	O	1.734759	0.372007	0.147498
O20	O	2.234759	0.872007	0.647498
C21	C	1.475006	0.196537	0.000017
C22	C	1.975006	0.696537	0.500017
C23	C	1.311187	0.192225	0.000014
C24	C	1.811187	0.692225	0.500014
C25	C	1.753132	-0.037569	0.000026
C26	C	2.253132	0.462431	0.500026
C27	C	1.748820	-0.176141	0.000020
C28	C	2.248820	0.323859	0.500020
C29	C	1.614852	-0.368441	0.000008
C30	C	2.114852	0.131559	0.500008
C31	C	1.619306	-0.225220	0.000015
C32	C	2.119306	0.274780	0.500015
C33	C	2.014334	0.184408	0.000023
C34	C	2.514334	0.684408	0.500023
C35	C	2.178152	0.188719	0.000014
C36	C	2.678152	0.688719	0.500014
C37	C	1.736207	0.418514	0.000013
C38	C	2.236207	0.918514	0.500013
C39	C	1.740520	0.557085	0.000008
C40	C	2.240520	1.057085	0.500008
N41	N	1.744661	0.190468	0.419785
N42	N	2.244661	0.690468	0.919785
N43	N	1.744690	0.190467	-0.419742
N44	N	2.244690	0.690467	0.080258
H45	H	1.503965	-0.410713	-0.000006
H46	H	2.003965	0.089287	0.499994
H47	H	1.511724	-0.161223	0.000027
H48	H	2.011724	0.338777	0.500027
N49	N	1.891334	-0.260900	0.000035
N50	N	2.391334	0.239100	0.500035
H51	H	1.895564	-0.315511	-0.109308
H52	H	2.395564	0.184489	0.390692
H53	H	1.978297	-0.208379	0.000109
H54	H	2.478297	0.291621	0.500109
N55	N	1.887407	-0.386930	0.000024
N56	N	2.387407	0.113070	0.500024
H57	H	1.945427	-0.415375	0.109370
H58	H	2.445427	0.084625	0.609370
H59	H	1.945328	-0.415378	-0.109389
H60	H	2.445328	0.084622	0.390611
