data_functionalizedCrystal
_audit_creation_method	'MofGen! by Chris Wilmer'
_symmetry_space_group_name_H-M	'P1'
_symmetry_Int_Tables_number	1
_symmetry_cell_setting	triclinic
loop_
_symmetry_equiv_pos_as_xyz
  x,y,z
_cell_length_a	12.594516
_cell_length_b	11.169417
_cell_length_c	11.169409
_cell_angle_alpha	90.020564
_cell_angle_beta	89.964064
_cell_angle_gamma	89.985598
loop_
_atom_site_label
_atom_site_type_symbol
_atom_site_fract_x
_atom_site_fract_y
_atom_site_fract_z
Zn1	Zn	-0.423632	-1.834945	-0.678512
Zn2	Zn	-0.601658	-1.834820	-0.477816
Zn3	Zn	-0.423696	-1.634228	-0.477847
Zn4	Zn	-0.601571	-1.634227	-0.678461
O5	O	-0.512639	-1.734555	-0.578159
O6	O	-0.447256	-2.002878	-0.651898
O7	O	-0.578114	-1.808160	-0.309871
O8	O	-0.274742	-1.660906	-0.504499
O9	O	-0.578051	-2.002786	-0.504448
O10	O	-0.274694	-1.808372	-0.651928
O11	O	-0.447367	-1.660785	-0.309893
O12	O	-0.447283	-1.466278	-0.504450
O13	O	-0.577904	-1.660904	-0.846418
O14	O	-0.577967	-1.466277	-0.651841
O15	O	-0.447172	-1.808370	-0.846455
O16	O	-0.750592	-1.808158	-0.504398
O17	O	-0.750528	-1.660783	-0.651811
C18	C	-0.512623	-1.422730	-0.578144
C19	C	-0.512642	-1.289330	-0.578166
C20	C	-0.789180	-1.734490	-0.578122
C21	C	-0.907486	-1.734572	-0.578146
C22	C	-0.512521	-1.734651	-0.891202
C23	C	-0.512471	-1.734692	-1.024602
C24	C	-1.047498	-1.814876	-0.498108
C25	C	-0.976818	-1.705352	-0.468619
C26	C	-0.976595	-1.844083	-0.607581
C27	C	-1.047591	-1.625113	-0.548704
C28	C	-1.047374	-1.763918	-0.687718
C29	C	-0.976725	-1.654318	-0.658270
C30	C	-0.235018	-1.734653	-0.578223
C31	C	-0.116713	-1.734694	-0.578250
C32	C	-0.512656	-2.047597	-0.578175
C33	C	-0.512663	-2.180997	-0.578182
C34	C	-0.512680	-1.734528	-0.266334
C35	C	-0.512430	-1.734720	-0.132935
H36	H	-1.078573	-1.882651	-0.430327
N37	N	-1.086318	-1.795050	-0.803860
N38	N	-1.184072	-1.799206	-0.822675
H39	H	-1.211581	-1.821207	-0.904700
N40	N	-1.086553	-1.508975	-0.517376
N41	N	-1.143976	-1.496089	-0.426966
H42	H	-1.171497	-1.414069	-0.404835
N43	N	-0.937979	-1.569079	-0.743216
N44	N	-0.880179	-1.484677	-0.709318
H45	H	-0.852812	-1.424471	-0.769304
N46	N	-0.937943	-1.674274	-0.352424
N47	N	-0.960650	-1.738003	-0.264079
H48	H	-0.933199	-1.716061	-0.182013
N49	N	-0.937474	-1.960200	-0.638743
N50	N	-0.960145	-2.048640	-0.575137
H51	H	-0.932518	-2.130651	-0.597134
