data_functionalizedCrystal
_audit_creation_method	'MofGen! by Chris Wilmer'
_symmetry_space_group_name_H-M	'P1'
_symmetry_Int_Tables_number	1
_symmetry_cell_setting	triclinic
loop_
_symmetry_equiv_pos_as_xyz
  x,y,z
_cell_length_a	27.354012
_cell_length_b	27.353283
_cell_length_c	27.349551
_cell_angle_alpha	60.005606
_cell_angle_beta	60.011434
_cell_angle_gamma	59.993282
loop_
_atom_site_label
_atom_site_type_symbol
_atom_site_fract_x
_atom_site_fract_y
_atom_site_fract_z
O1	O	0.067635	-0.714267	0.597330
O2	O	0.025429	-0.556105	0.481282
O3	O	0.125575	-0.656186	0.481214
O4	O	-0.032512	-0.614186	0.597397
O5	O	0.158797	-0.622968	0.514367
O6	O	0.058650	-0.522887	0.514434
O7	O	0.100856	-0.681048	0.630482
Zn8	Zn	0.085028	-0.596693	0.577722
Zn9	Zn	0.041257	-0.640460	0.534042
O10	O	0.000709	-0.580967	0.630549
N11	N	0.114901	-0.566828	0.607534
N12	N	0.011389	-0.670331	0.504229
C13	C	0.179404	-0.338196	0.672015
C14	C	0.179501	-0.502386	0.836160
C15	C	0.179415	-0.502363	0.671996
C16	C	0.343611	-0.502373	0.671960
C17	C	0.197478	-0.392371	0.690061
C18	C	0.197534	-0.484321	0.781984
C19	C	0.289434	-0.484312	0.690032
C20	C	0.197486	-0.484308	0.690051
C21	C	0.156398	-0.269238	0.649045
C22	C	0.156418	-0.525342	0.649015
C23	C	0.220484	-0.461329	0.713032
C24	C	0.443889	-0.485097	0.619172
C25	C	0.506571	-0.505993	0.598266
C26	C	0.506589	-0.607412	0.636940
C27	C	0.443909	-0.586515	0.657848
C28	C	0.171510	-0.237888	0.587422
C29	C	0.150593	-0.175201	0.566543
C30	C	0.099458	-0.175218	0.668913
C31	C	0.120375	-0.237905	0.689792
C32	C	0.094789	-0.510201	0.664176
C33	C	0.073888	-0.531091	0.643278
C34	C	0.176239	-0.582263	0.592072
C35	C	0.197142	-0.561373	0.612963
C36	C	0.094933	-0.510244	0.936476
C37	C	0.074073	-0.531151	0.999161
C38	C	0.176453	-0.582335	0.999126
C39	C	0.197312	-0.561429	0.936439
C40	C	0.156551	-0.525382	0.905116
C41	C	0.412561	-0.525357	0.648961
C42	C	-0.098513	-0.688235	0.485867
C43	C	-0.006461	-0.688368	0.394066
C44	C	-0.006645	-0.780264	0.486040
C45	C	-0.006630	-0.688361	0.486097
C46	C	-0.029562	-0.711308	0.463018
N47	N	0.537030	-0.566846	0.607436
O48	O	0.741877	-0.576849	0.459995
O49	O	0.742050	-0.693241	0.618010
O50	O	0.741986	-0.692977	0.517791
O51	O	0.741941	-0.577114	0.560214
O52	O	0.642405	-0.659839	0.551046
O53	O	0.642469	-0.660104	0.651265
O54	O	0.642296	-0.543712	0.493251
Zn55	Zn	0.626572	-0.596646	0.577538
Zn56	Zn	0.757774	-0.640307	0.533723
O57	O	0.642360	-0.543976	0.593469
N58	N	0.847316	-0.670107	0.503818
N59	N	0.114877	-0.144758	0.607577
O60	O	-0.032498	0.060193	0.597441
O61	O	0.125523	0.060193	0.481067
O62	O	0.025289	0.060179	0.481345
O63	O	0.067736	0.060207	0.597163
O64	O	0.058511	-0.039410	0.514543
O65	O	0.158745	-0.039397	0.514265
O66	O	0.000724	-0.039396	0.630638
Zn67	Zn	0.085009	-0.055208	0.577722
Zn68	Zn	0.041238	0.076005	0.533983
O69	O	0.100958	-0.039382	0.630360
N70	N	0.011362	0.165555	0.504130
N71	N	0.115121	-0.566884	1.029592
O72	O	0.104990	-0.714248	1.234528
O73	O	-0.011371	-0.556177	1.234539
O74	O	-0.011103	-0.656395	1.234497
O75	O	0.104722	-0.614030	1.234569
O76	O	0.022090	-0.623190	1.134913
O77	O	0.021822	-0.522972	1.134954
O78	O	0.138182	-0.681044	1.134943
Zn79	Zn	0.085272	-0.596736	1.119137
Zn80	Zn	0.041539	-0.640484	1.250344
O81	O	0.137914	-0.580826	1.134984
N82	N	0.011689	-0.670343	1.339890
C83	C	0.038085	-0.519567	0.481870
C84	C	0.162104	-0.643505	0.481786
C85	C	0.088200	-0.717587	0.629893
C86	C	-0.035819	-0.593649	0.629977
C87	C	0.692280	-0.692701	0.654545
C88	C	0.692203	-0.692374	0.530435
C89	C	0.692063	-0.544251	0.456717
C90	C	0.692144	-0.544580	0.580825
C91	C	0.162000	0.010521	0.481600
C92	C	0.037914	0.010381	0.481984
C93	C	-0.035795	0.010399	0.630065
C94	C	0.088333	0.010415	0.629722
C95	C	-0.010799	-0.519660	1.184747
C96	C	-0.010461	-0.643761	1.184677
C97	C	0.137610	-0.717561	1.184734
C98	C	0.137280	-0.593452	1.184783
H99	H	0.061737	-0.480889	0.910978
H100	H	0.209407	-0.611608	0.562721
C101	C	0.186347	-0.778096	1.184824
C102	C	0.202277	-0.804370	1.236061
C103	C	0.247177	-0.860131	1.236159
H104	H	0.171954	-0.803318	1.184836
H105	H	0.220401	-0.772875	1.150122
H106	H	0.168231	-0.809594	1.270754
H107	H	0.216681	-0.779165	1.236059
H108	H	0.281230	-0.854910	1.201458
H109	H	0.232778	-0.885348	1.236171
H110	H	0.257995	-0.877963	1.270921
C111	C	-0.059049	-0.655713	1.184622
C112	C	-0.110329	-0.604612	1.184617
C113	C	-0.155103	-0.615603	1.184576
H114	H	-0.045272	-0.665186	1.149886
H115	H	-0.068420	-0.688357	1.219345
H116	H	-0.100959	-0.571978	1.149898
H117	H	-0.124123	-0.595131	1.219351
H118	H	-0.164474	-0.648246	1.219298
H119	H	-0.141321	-0.625076	1.149838
H120	H	-0.189904	-0.580935	1.184578
H121	H	0.097215	-0.763020	0.666340
H122	H	0.692221	-0.728771	0.521355
C123	C	0.025995	-0.459019	0.433249
C124	C	-0.022139	-0.448465	0.419587
C125	C	-0.033288	-0.392699	0.374794
H126	H	0.016473	-0.428525	0.446968
H127	H	0.060607	-0.458849	0.398404
H128	H	-0.056744	-0.448630	0.454424
H129	H	-0.012630	-0.478944	0.405857
H130	H	0.001324	-0.392528	0.339950
H131	H	-0.042808	-0.362210	0.388518
H132	H	-0.065945	-0.385533	0.365515
C133	C	0.222361	0.010848	0.432695
C134	C	0.222240	0.010931	0.381521
C135	C	0.277839	0.011219	0.336463
H136	H	0.229537	0.045644	0.423297
H137	H	0.252984	-0.023818	0.446240
H138	H	0.191626	0.045595	0.367977
H139	H	0.215074	-0.023861	0.390899
H140	H	0.308462	-0.023448	0.350008
H141	H	0.285010	0.046014	0.327070
H142	H	0.277765	0.011269	0.301738
C143	C	0.025927	0.010273	0.433439
C144	C	0.066727	-0.040962	0.417479
C145	C	0.055713	-0.041080	0.372754
H146	H	-0.013692	0.010238	0.448001
H147	H	0.030410	0.044980	0.399356
H148	H	0.062239	-0.075660	0.451555
H149	H	0.106350	-0.040938	0.402906
H150	H	0.060196	-0.006373	0.338670
H151	H	0.016093	-0.041113	0.387321
H152	H	0.083397	-0.075839	0.361915
C153	C	0.185736	-0.581247	1.184771
C154	C	0.164032	-0.522780	1.184768
C155	C	0.208655	-0.511513	1.184749
H156	H	0.196675	-0.608819	1.219490
H157	H	0.219788	-0.585681	1.150031
H158	H	0.129990	-0.518351	1.219505
H159	H	0.153097	-0.495195	1.150051
H160	H	0.242708	-0.515947	1.150009
H161	H	0.219591	-0.539089	1.219469
H162	H	0.193938	-0.471841	1.184742
H163	H	0.692323	-0.729239	0.699929
H164	H	0.692005	-0.507708	0.411338
C165	C	0.692095	-0.496112	0.593050
C166	C	0.692132	-0.517822	0.651505
C167	C	0.692079	-0.473188	0.662791
H168	H	0.726787	-0.485153	0.565469
H169	H	0.657331	-0.462068	0.588645
H170	H	0.726893	-0.551855	0.655905
H171	H	0.657442	-0.528777	0.679099
H172	H	0.657315	-0.439144	0.658386
H173	H	0.726772	-0.462232	0.635207
H174	H	0.692099	-0.487910	0.702455
H175	H	-0.047330	-0.474261	1.184750
H176	H	0.097420	0.010424	0.666105
C177	C	0.007148	-0.514614	1.033095
C178	C	-0.024079	-0.478556	0.992242
C179	C	-0.085731	-0.463305	1.023481
H180	H	-0.003203	-0.550009	1.057547
H181	H	-0.003143	-0.493321	1.057540
H182	H	-0.013792	-0.499848	0.967808
H183	H	-0.013746	-0.443153	0.967789
H184	H	-0.096022	-0.442013	1.047925
H185	H	-0.096075	-0.498704	1.047931
H186	H	-0.106926	-0.438834	0.995767
C187	C	0.220804	-0.621487	1.033026
C188	C	0.279232	-0.630282	0.992146
C189	C	0.320102	-0.666359	1.023352
H190	H	0.214874	-0.602406	1.057488
H191	H	0.214829	-0.659082	1.057457
H192	H	0.285204	-0.592694	0.967725
H193	H	0.285181	-0.649370	0.967682
H194	H	0.314127	-0.703954	1.047784
H195	H	0.314166	-0.647275	1.047814
H196	H	0.359749	-0.672336	0.995620
H197	H	0.207509	-0.652460	0.445301
H198	H	0.247489	-0.573760	0.910909
H199	H	-0.081177	0.010398	0.666600
C200	C	-0.096334	-0.581843	0.678695
C201	C	-0.096338	-0.633013	0.729896
C202	C	-0.152075	-0.622162	0.774784
H203	H	-0.103674	-0.549228	0.688138
H204	H	-0.126801	-0.572396	0.664970
H205	H	-0.065879	-0.642452	0.743619
H206	H	-0.089008	-0.665635	0.720472
H207	H	-0.182543	-0.612716	0.761059
H208	H	-0.159411	-0.589546	0.784223
H209	H	-0.152087	-0.656881	0.809528
H210	H	0.061625	-0.480862	0.693528
H211	H	0.023705	-0.518748	0.655609
H212	H	0.247325	-0.573698	0.600612
H213	H	0.418403	-0.619300	0.682106
H214	H	0.532110	-0.657210	0.644171
H215	H	0.532080	-0.473208	0.574011
H216	H	0.200842	-0.263395	0.554238
C217	C	0.409961	-0.418677	0.609494
C218	C	0.450818	-0.387897	0.578946
C219	C	0.419588	-0.326711	0.570024
H220	H	0.385493	-0.403892	0.586511
H221	H	0.385534	-0.412836	0.647154
H222	H	0.475234	-0.393734	0.541292
H223	H	0.475287	-0.402663	0.601919
H224	H	0.395161	-0.320870	0.607684
H225	H	0.395121	-0.311932	0.547042
H226	H	0.447304	-0.305820	0.549301
H227	H	0.162897	-0.149674	0.516363
C228	C	0.060334	-0.141304	0.713246
C229	C	0.051573	-0.182179	0.771684
C230	C	0.015528	-0.150961	0.812540
H231	H	0.079422	-0.116846	0.707297
H232	H	0.022730	-0.116866	0.707275
H233	H	0.089170	-0.206607	0.777653
H234	H	0.032478	-0.206638	0.777652
H235	H	-0.022076	-0.126523	0.806569
H236	H	0.034620	-0.126504	0.806585
H237	H	0.009574	-0.178690	0.852194
H238	H	0.108067	-0.263426	0.739970
