data_functionalizedCrystal
_audit_creation_method	'MofGen! by Chris Wilmer'
_symmetry_space_group_name_H-M	'P1'
_symmetry_Int_Tables_number	1
_symmetry_cell_setting	triclinic
loop_
_symmetry_equiv_pos_as_xyz
  x,y,z
_cell_length_a	10.540510
_cell_length_b	10.654550
_cell_length_c	9.730223
_cell_angle_alpha	89.998521
_cell_angle_beta	89.996468
_cell_angle_gamma	84.499120
loop_
_atom_site_label
_atom_site_type_symbol
_atom_site_fract_x
_atom_site_fract_y
_atom_site_fract_z
O1	O	1.685843	0.176814	-0.114289
O2	O	1.316420	0.193529	-0.114289
O3	O	1.509625	0.002434	-0.114290
O4	O	1.492638	0.367908	-0.114288
O5	O	1.509613	0.002429	0.114290
O6	O	1.316407	0.193523	0.114291
O7	O	1.685831	0.176808	0.114291
Zn8	Zn	1.501117	0.185165	0.150583
Zn9	Zn	1.501134	0.185172	-0.150581
O10	O	1.492625	0.367903	0.114292
C11	C	1.269110	0.192280	0.000001
C12	C	1.128162	0.188554	0.000001
C13	C	1.508372	-0.044367	-0.000003
C14	C	1.504640	-0.183811	-0.000013
C15	C	1.499374	-0.380350	-0.124601
C16	C	1.502893	-0.249329	-0.124609
C17	C	1.502880	-0.249323	0.124601
C18	C	1.499370	-0.380342	0.124608
C19	C	0.910658	0.321307	-0.000524
C20	C	1.057253	0.325282	-0.000000
C21	C	1.083420	0.118559	0.130527
C22	C	0.936660	0.115553	0.130629
C23	C	0.936869	0.112711	-0.129310
C24	C	1.083208	0.119196	-0.131026
C25	C	1.733140	0.178057	-0.000002
C26	C	1.874089	0.181783	-0.000010
C27	C	1.493879	0.414704	0.000002
C28	C	1.497611	0.554148	0.000003
N29	N	1.501115	0.185160	0.356120
N30	N	1.501146	0.185168	-0.356117
C31	C	1.586696	0.100579	0.428045
C32	C	1.586709	0.100579	0.571928
C33	C	1.415555	0.269752	0.571947
C34	C	1.415538	0.269745	0.428067
H35	H	1.504330	-0.196003	-0.226074
H36	H	1.504311	-0.195969	0.226050
N37	N	1.323216	0.360973	0.350490
H38	H	1.338611	0.450254	0.375510
H39	H	1.336228	0.348021	0.248450
H40	H	0.914752	0.010056	-0.130193
N41	N	1.679033	0.009369	0.649502
H42	H	1.663654	-0.079914	0.624472
H43	H	1.769201	0.024819	0.624398
N44	N	1.497516	-0.451008	-0.258993
H45	H	1.419587	-0.418725	-0.313491
H46	H	1.576751	-0.437655	-0.313330
N47	N	1.148242	-0.013032	-0.141480
H48	H	1.208031	-0.029927	-0.061065
H49	H	1.081936	-0.075453	-0.140366
H50	H	0.867127	0.374265	0.092555
N51	N	1.497461	-0.450997	0.259011
H52	H	1.494976	-0.543938	0.240105
H53	H	1.576630	-0.437580	0.313421
H54	H	1.345882	0.338621	0.630541
N55	N	1.146249	-0.014766	0.136975
H56	H	1.197647	-0.026578	0.224408
H57	H	1.078668	-0.075848	0.135630
H58	H	0.913701	0.013289	0.136557
N59	N	1.678978	0.009321	0.350464
H60	H	1.629967	-0.046748	0.290792
H61	H	1.735589	0.057911	0.290824
N62	N	1.096101	0.397821	-0.123941
H63	H	1.053026	0.486625	-0.120550
H64	H	1.191625	0.400459	-0.123774
N65	N	0.855072	0.391882	-0.124513
H66	H	0.805639	0.334103	-0.181557
H67	H	0.796214	0.466829	-0.093259
N68	N	0.880641	0.169945	-0.260367
H69	H	0.813892	0.241235	-0.237246
H70	H	0.950302	0.203398	-0.317005
H71	H	0.896421	0.163383	0.228200
N72	N	1.094859	0.398251	0.124142
H73	H	1.016163	0.427949	0.178744
H74	H	1.154871	0.342046	0.183526
N75	N	1.124253	0.182932	0.259207
H76	H	1.171722	0.257419	0.233250
H77	H	1.046498	0.212980	0.315137
N78	N	1.121119	0.186628	-0.258944
H79	H	1.167220	0.261792	-0.232147
H80	H	1.179172	0.127060	-0.316831
