data_functionalizedCrystal
_audit_creation_method	'MofGen! by Chris Wilmer'
_symmetry_space_group_name_H-M	'P1'
_symmetry_Int_Tables_number	1
_symmetry_cell_setting	triclinic
loop_
_symmetry_equiv_pos_as_xyz
  x,y,z
_cell_length_a	14.560438
_cell_length_b	14.560438
_cell_length_c	14.560438
_cell_angle_alpha	60.004133
_cell_angle_beta	90.001571
_cell_angle_gamma	60.003822
loop_
_atom_site_label
_atom_site_type_symbol
_atom_site_fract_x
_atom_site_fract_y
_atom_site_fract_z
Zr1	Zr	0.884880	1.005156	-0.120385
O2	O	0.738253	1.196739	-0.267015
O3	O	0.929814	0.813574	-0.075449
O4	O	0.929836	1.005154	-0.267030
O5	O	0.738231	1.005161	0.075704
O6	O	1.080977	1.005151	-0.267025
O7	O	0.738231	1.005159	-0.075434
O8	O	1.080938	0.662450	0.075678
O9	O	0.738269	1.347862	-0.266998
O10	O	1.061791	0.892372	-0.056263
O11	O	0.948996	0.892376	0.056526
O12	O	0.949021	1.117936	-0.169035
O13	O	0.836226	1.117939	-0.056246
Zr14	Zr	1.125932	1.005154	0.120672
Zr15	Zr	1.125932	1.005152	-0.120377
Zr16	Zr	0.884880	1.005159	0.120664
Zr17	Zr	0.884907	1.246180	-0.120358
Zr18	Zr	1.125905	0.764131	0.120646
O19	O	1.080998	1.196736	0.075737
O20	O	1.080998	1.196732	-0.267004
O21	O	0.738252	1.196743	0.075726
O22	O	1.272559	0.813572	0.267302
O23	O	1.272560	0.813568	-0.075438
O24	O	0.929814	0.813578	0.267291
O25	O	1.272581	1.005149	-0.075417
O26	O	1.080976	1.005157	0.267317
O27	O	0.929835	1.005160	0.267312
O28	O	1.272581	1.005151	0.075722
O29	O	0.929874	1.347858	-0.266992
O30	O	1.080938	0.662452	0.267280
O31	O	1.272543	0.662449	0.267286
O32	O	1.272543	0.662447	0.075684
O33	O	0.738269	1.347864	-0.075397
O34	O	0.929874	1.347860	-0.075390
O35	O	1.061791	0.892375	0.169323
O36	O	1.174586	0.892371	0.056533
O37	O	1.061816	1.117935	-0.056238
O38	O	0.949021	1.117938	0.056551
C39	C	1.005373	0.703672	0.000111
C40	C	1.005361	0.601351	0.000099
C41	C	0.946547	0.457059	0.059039
C42	C	0.946505	0.553252	0.058998
C43	C	1.064272	0.553243	-0.058753
C44	C	1.064320	0.457045	-0.058705
C45	C	0.878551	0.457069	0.127018
C46	C	0.878510	0.553262	0.126977
C47	C	0.703886	1.005161	0.000134
C48	C	0.601553	1.005163	0.000131
C49	C	0.553470	1.005164	-0.083131
C50	C	0.457324	1.005152	-0.083116
C51	C	0.457351	1.005143	0.083427
C52	C	0.553499	1.005146	0.083416
C53	C	0.601524	1.005181	-0.166416
C54	C	0.553440	1.005184	-0.249685
C55	C	0.457294	1.005172	-0.249670
C56	C	0.409232	1.005157	-0.166386
C57	C	1.306926	1.005150	0.000154
C58	C	1.409259	1.005148	0.000157
C59	C	1.005406	1.005152	-0.301371
C60	C	1.005407	1.005151	-0.403703
C61	C	1.005439	1.306639	0.000177
C62	C	1.005451	1.408960	0.000188
C63	C	0.922137	1.005163	-0.547943
C64	C	0.922140	1.005154	-0.451786
C65	C	1.088683	1.005144	-0.451775
C66	C	1.088684	1.005143	-0.547925
C67	C	0.838858	1.005179	-0.596027
C68	C	0.755582	1.005184	-0.547961
C69	C	0.755585	1.005175	-0.451805
C70	C	0.838863	1.005161	-0.403715
C71	C	1.005406	1.005159	0.301659
C72	C	1.005405	1.005160	0.403991
C73	C	1.306892	0.703666	0.000120
C74	C	1.409214	0.601343	0.000113
C75	C	1.005372	0.703675	0.301626
C76	C	1.005361	0.601355	0.403946
C77	C	1.306892	0.703669	0.301636
C78	C	1.409213	0.601348	0.403959
C79	C	0.703920	1.306641	-0.301348
C80	C	0.601598	1.408963	-0.403672
C81	C	0.703920	1.306645	0.000167
C82	C	0.601598	1.408967	0.000175
C83	C	1.005440	1.306636	-0.301338
C84	C	1.005451	1.408955	-0.403658
C85	C	1.398410	0.553269	-0.058766
C86	C	1.494556	0.457133	-0.058777
C87	C	1.612306	0.457151	0.058978
C88	C	1.516162	0.553292	0.058982
C89	C	1.330429	0.553253	-0.126748
C90	C	1.426575	0.457118	-0.126759
C91	C	1.064235	0.553280	0.510895
C92	C	1.064215	0.457145	0.607032
C93	C	0.946446	0.457165	0.489257
C94	C	0.946460	0.553305	0.393123
C95	C	1.132232	0.553264	0.578893
C96	C	1.132212	0.457128	0.675029
C97	C	1.516162	0.553271	0.393159
C98	C	1.612300	0.457135	0.489307
C99	C	1.494527	0.457158	0.607052
C100	C	1.398392	0.553298	0.510905
C101	C	1.584158	0.553253	0.325181
C102	C	1.680297	0.457117	0.421329
H103	H	0.788477	0.643262	0.089121
H104	H	1.731223	0.493245	0.430057
H105	H	1.094426	0.643267	0.578919
H106	H	1.112203	0.592403	-0.106701
H107	H	0.679809	1.005195	-0.166438
Cl108	Cl	1.760880	0.318138	0.421321
Cl109	Cl	0.288370	1.005125	-0.166365
H110	H	1.311312	0.592451	0.519708
Cl111	Cl	1.249847	0.692214	-0.265728
H112	H	0.592582	1.005185	-0.317487
H113	H	0.418151	1.005161	-0.317464
H114	H	0.916374	0.367087	0.217053
H115	H	0.791523	0.493140	0.082177
Cl116	Cl	0.838868	1.005134	-0.282823
Cl117	Cl	0.838847	1.005197	-0.716913
H118	H	1.426561	0.367105	-0.088948
Cl119	Cl	0.396927	1.005130	0.188117
H120	H	1.112295	0.417871	-0.106614
H121	H	1.524967	0.592443	0.106915
H122	H	1.575428	0.517122	0.274261
H123	H	1.087361	0.493257	0.725955
H124	H	0.923347	0.517187	0.214011
Cl125	Cl	1.584191	0.692214	0.244603
H126	H	1.222230	0.367113	0.727220
Cl127	Cl	1.480933	0.396747	0.741500
H128	H	0.592650	1.005143	0.151216
H129	H	1.279510	0.517123	-0.081892
H130	H	0.898506	0.592457	0.306043
Cl131	Cl	1.266622	0.497489	0.565406
Cl132	Cl	0.872402	0.396753	0.475661
Cl133	Cl	0.650904	1.005184	-0.608406
H134	H	1.435305	0.493249	-0.213808
Cl135	Cl	0.650906	1.005166	-0.391372
H136	H	1.156484	1.005134	-0.412614
H137	H	1.156490	1.005139	-0.587060
H138	H	1.699393	0.418017	0.106907
