data_functionalizedCrystal
_audit_creation_method	'MofGen! by Chris Wilmer'
_symmetry_space_group_name_H-M	'P1'
_symmetry_Int_Tables_number	1
_symmetry_cell_setting	triclinic
loop_
_symmetry_equiv_pos_as_xyz
  x,y,z
_cell_length_a	19.188930
_cell_length_b	27.732048
_cell_length_c	17.666332
_cell_angle_alpha	89.988553
_cell_angle_beta	89.976766
_cell_angle_gamma	82.893716
loop_
_atom_site_label
_atom_site_type_symbol
_atom_site_fract_x
_atom_site_fract_y
_atom_site_fract_z
O1	O	0.925765	0.060348	-0.063200
O2	O	1.175765	0.310348	0.186800
O3	O	1.425765	0.560348	0.436800
O4	O	1.675765	0.810348	0.686800
O5	O	0.722402	0.068472	-0.063149
O6	O	0.972402	0.318472	0.186851
O7	O	1.222402	0.568472	0.436851
O8	O	1.472402	0.818472	0.686851
O9	O	0.830399	-0.005968	-0.063161
O10	O	1.080399	0.244032	0.186839
O11	O	1.330399	0.494032	0.436839
O12	O	1.580399	0.744032	0.686839
O13	O	0.817767	0.134787	-0.063187
O14	O	1.067767	0.384787	0.186813
O15	O	1.317767	0.634787	0.436813
O16	O	1.567767	0.884787	0.686813
O17	O	0.830380	-0.005971	0.062735
O18	O	1.080380	0.244029	0.312735
O19	O	1.330380	0.494029	0.562735
O20	O	1.580380	0.744029	0.812735
O21	O	0.722383	0.068468	0.062748
O22	O	0.972383	0.318468	0.312748
O23	O	1.222383	0.568468	0.562748
O24	O	1.472383	0.818468	0.812748
O25	O	0.925746	0.060344	0.062697
O26	O	1.175746	0.310344	0.312697
O27	O	1.425746	0.560344	0.562697
O28	O	1.675746	0.810344	0.812697
Cu29	Cu	0.824063	0.064406	0.074218
Cu30	Cu	1.074063	0.314406	0.324218
Cu31	Cu	1.324063	0.564406	0.574218
Cu32	Cu	1.574063	0.814406	0.824218
Cu33	Cu	0.824085	0.064410	-0.074670
Cu34	Cu	1.074085	0.314410	0.175330
Cu35	Cu	1.324085	0.564410	0.425330
Cu36	Cu	1.574085	0.814410	0.675330
O37	O	0.817748	0.134783	0.062710
O38	O	1.067748	0.384783	0.312710
O39	O	1.317748	0.634783	0.562710
O40	O	1.567748	0.884783	0.812710
C41	C	0.696383	0.068207	-0.000194
C42	C	0.946383	0.318207	0.249806
C43	C	1.196383	0.568207	0.499806
C44	C	1.446383	0.818207	0.749806
C45	C	0.618883	0.067417	-0.000174
C46	C	0.868883	0.317417	0.249826
C47	C	1.118883	0.567417	0.499826
C48	C	1.368883	0.817417	0.749826
C49	C	0.573681	0.111096	-0.000194
C50	C	0.823681	0.361096	0.249806
C51	C	1.073681	0.611096	0.499806
C52	C	1.323681	0.861096	0.749806
C53	C	0.500862	0.110354	-0.000202
C54	C	0.750862	0.360354	0.249798
C55	C	1.000862	0.610354	0.499798
C56	C	1.250862	0.860354	0.749798
C57	C	0.473249	0.065931	-0.000205
C58	C	0.723249	0.315931	0.249795
C59	C	0.973249	0.565931	0.499795
C60	C	1.223249	0.815931	0.749795
C61	C	0.518461	0.022246	-0.000181
C62	C	0.768461	0.272246	0.249819
C63	C	1.018461	0.522246	0.499819
C64	C	1.268461	0.772246	0.749819
C65	C	0.591278	0.022990	-0.000165
C66	C	0.841278	0.272990	0.249835
C67	C	1.091278	0.522990	0.499835
C68	C	1.341278	0.772990	0.749835
N69	N	0.365491	0.031976	-0.043078
N70	N	0.615491	0.281976	0.206922
N71	N	0.865491	0.531976	0.456922
N72	N	1.115491	0.781976	0.706922
N73	N	0.296317	0.031273	-0.043094
N74	N	0.546317	0.281273	0.206906
N75	N	0.796317	0.531273	0.456906
N76	N	1.046317	0.781273	0.706906
C77	C	0.253854	0.063689	-0.000251
C78	C	0.503854	0.313689	0.249749
C79	C	0.753854	0.563689	0.499749
C80	C	1.003854	0.813689	0.749749
N81	N	0.283177	0.096841	0.042600
N82	N	0.533177	0.346841	0.292600
N83	N	0.783177	0.596841	0.542600
N84	N	1.033177	0.846841	0.792600
N85	N	0.352357	0.097546	0.042613
N86	N	0.602357	0.347546	0.292613
N87	N	0.852357	0.597546	0.542613
N88	N	1.102357	0.847546	0.792613
C89	C	0.394291	0.065120	-0.000222
C90	C	0.644291	0.315120	0.249778
C91	C	0.894291	0.565120	0.499778
C92	C	1.144291	0.815120	0.749778
C93	C	0.129692	0.106566	-0.000279
C94	C	0.379692	0.356566	0.249721
C95	C	0.629692	0.606566	0.499721
C96	C	0.879692	0.856566	0.749721
C97	C	0.056872	0.105822	-0.000282
C98	C	0.306872	0.355822	0.249718
C99	C	0.556872	0.605822	0.499718
C100	C	0.806872	0.855822	0.749718
C101	C	0.074473	0.017714	-0.000269
C102	C	0.324473	0.267714	0.249731
C103	C	0.574473	0.517714	0.499731
C104	C	0.824473	0.767714	0.749731
C105	C	0.147292	0.018459	-0.000258
C106	C	0.397292	0.268459	0.249742
C107	C	0.647292	0.518459	0.499742
C108	C	0.897292	0.768459	0.749742
C109	C	0.174897	0.062886	-0.000267
C110	C	0.424897	0.312886	0.249733
C111	C	0.674897	0.562886	0.499733
C112	C	0.924897	0.812886	0.749733
C113	C	0.830125	-0.023977	-0.000211
C114	C	1.080125	0.226023	0.249789
C115	C	1.330125	0.476023	0.499789
C116	C	1.580125	0.726023	0.749789
C117	C	0.829326	-0.077635	-0.000204
C118	C	1.079326	0.172365	0.249796
C119	C	1.329326	0.422365	0.499796
C120	C	1.579326	0.672365	0.749796
C121	C	0.888119	-0.416270	-0.000258
C122	C	1.138119	-0.166270	0.249742
C123	C	1.388119	0.083730	0.499742
C124	C	1.638119	0.333730	0.749742
C125	C	0.885157	-0.617939	-0.000268
C126	C	1.135157	-0.367939	0.249732
C127	C	1.385157	-0.117939	0.499732
C128	C	1.635157	0.132061	0.749732
O129	O	0.938918	-0.649030	-0.000314
O130	O	1.188918	-0.399030	0.249686
O131	O	1.438918	-0.149030	0.499686
O132	O	1.688918	0.100970	0.749686
N133	N	0.821118	-0.637258	-0.000251
N134	N	1.071118	-0.387258	0.249749
N135	N	1.321118	-0.137258	0.499749
N136	N	1.571118	0.112742	0.749749
C137	C	0.757816	-0.606157	-0.000237
C138	C	1.007816	-0.356157	0.249763
C139	C	1.257816	-0.106157	0.499763
C140	C	1.507816	0.143843	0.749763
O141	O	0.703280	-0.627217	-0.000231
O142	O	0.953280	-0.377217	0.249769
O143	O	1.203280	-0.127217	0.499769
O144	O	1.453280	0.122783	0.749769
C145	C	0.760780	-0.404489	-0.000233
C146	C	1.010780	-0.154489	0.249767
C147	C	1.260780	0.095511	0.499767
C148	C	1.510780	0.345511	0.749767
C149	C	0.824822	-0.385173	-0.000242
C150	C	1.074822	-0.135173	0.249758
C151	C	1.324822	0.114827	0.499758
C152	C	1.574822	0.364827	0.749758
C153	C	0.952156	-0.396953	-0.000268
C154	C	1.202156	-0.146953	0.249732
C155	C	1.452156	0.103047	0.499732
C156	C	1.702156	0.353047	0.749732
C157	C	0.952896	-0.346539	-0.000261
C158	C	1.202896	-0.096539	0.249739
C159	C	1.452896	0.153461	0.499739
C160	C	1.702896	0.403461	0.749739
C161	C	0.889599	-0.315441	-0.000245
C162	C	1.139599	-0.065441	0.249755
C163	C	1.389599	0.184559	0.499755
C164	C	1.639599	0.434559	0.749755
C165	C	0.825562	-0.334759	-0.000235
C166	C	1.075562	-0.084759	0.249765
C167	C	1.325562	0.165241	0.499765
C168	C	1.575562	0.415241	0.749765
C169	C	0.697478	-0.373389	-0.000224
C170	C	0.947478	-0.123389	0.249776
C171	C	1.197478	0.126611	0.499776
C172	C	1.447478	0.376611	0.749776
C173	C	0.698225	-0.322969	-0.000225
C174	C	0.948225	-0.072969	0.249775
C175	C	1.198225	0.177031	0.499775
C176	C	1.448225	0.427031	0.749775
C177	C	0.762267	-0.303653	-0.000234
C178	C	1.012267	-0.053653	0.249766
C179	C	1.262267	0.196347	0.499766
C180	C	1.512267	0.446347	0.749766
C181	C	0.763005	-0.253247	-0.000212
C182	C	1.013005	-0.003247	0.249788
C183	C	1.263005	0.246753	0.499788
C184	C	1.513005	0.496753	0.749788
N185	N	0.827043	-0.233928	-0.000229
N186	N	1.077043	0.016072	0.249771
N187	N	1.327043	0.266072	0.499771
N188	N	1.577043	0.516072	0.749771
C189	C	0.890340	-0.265025	-0.000245
C190	C	1.140340	-0.015025	0.249755
C191	C	1.390340	0.234975	0.499755
C192	C	1.640340	0.484975	0.749755
C193	C	0.756265	-0.712036	-0.000238
C194	C	1.006265	-0.462036	0.249762
C195	C	1.256265	-0.212036	0.499762
C196	C	1.506265	0.037964	0.749762
C197	C	0.755524	-0.762452	-0.000238
C198	C	1.005524	-0.512452	0.249762
C199	C	1.255524	-0.262452	0.499762
C200	C	1.505524	-0.012452	0.749762
C201	C	0.882865	-0.774231	-0.000270
C202	C	1.132865	-0.524231	0.249730
C203	C	1.382865	-0.274231	0.499730
C204	C	1.632865	-0.024231	0.749730
C205	C	0.883605	-0.723813	-0.000265
C206	C	1.133605	-0.473813	0.249735
C207	C	1.383605	-0.223813	0.499735
C208	C	1.633605	0.026187	0.749735
C209	C	0.820303	-0.692716	-0.000254
C210	C	1.070303	-0.442716	0.249746
C211	C	1.320303	-0.192716	0.499746
C212	C	1.570303	0.057284	0.749746
C213	C	0.891889	-0.159151	-0.000231
C214	C	1.141889	0.090849	0.249769
C215	C	1.391889	0.340849	0.499769
C216	C	1.641889	0.590849	0.749769
C217	C	0.892623	-0.108732	-0.000221
C218	C	1.142623	0.141268	0.249779
C219	C	1.392623	0.391268	0.499779
C220	C	1.642623	0.641268	0.749779
C221	C	0.765283	-0.096958	-0.000193
C222	C	1.015283	0.153042	0.249807
C223	C	1.265283	0.403042	0.499807
C224	C	1.515283	0.653042	0.749807
C225	C	0.764549	-0.147373	-0.000198
C226	C	1.014549	0.102627	0.249802
C227	C	1.264549	0.352627	0.499802
C228	C	1.514549	0.602627	0.749802
C229	C	0.827857	-0.178468	-0.000220
C230	C	1.077857	0.071532	0.249780
C231	C	1.327857	0.321532	0.499780
C232	C	1.577857	0.571532	0.749780
O233	O	0.709272	-0.222127	-0.000174
O234	O	0.959272	0.027873	0.249826
O235	O	1.209272	0.277873	0.499826
O236	O	1.459272	0.527873	0.749826
O237	O	0.944868	-0.243956	-0.000268
O238	O	1.194868	0.006044	0.249732
O239	O	1.444868	0.256044	0.499732
O240	O	1.694868	0.506044	0.749732
C241	C	0.887379	-0.466684	-0.000265
C242	C	1.137379	-0.216684	0.249735
C243	C	1.387379	0.033316	0.499735
C244	C	1.637379	0.283316	0.749735
C245	C	0.823342	-0.486001	-0.000255
C246	C	1.073342	-0.236001	0.249745
C247	C	1.323342	0.013999	0.499745
C248	C	1.573342	0.263999	0.749745
C249	C	0.760045	-0.454904	-0.000238
C250	C	1.010045	-0.204904	0.249762
C251	C	1.260045	0.045096	0.499762
C252	C	1.510045	0.295096	0.749762
C253	C	0.822601	-0.536418	-0.000254
C254	C	1.072601	-0.286418	0.249746
C255	C	1.322601	-0.036418	0.499746
C256	C	1.572601	0.213582	0.749746
C257	C	0.885898	-0.567515	-0.000271
C258	C	1.135898	-0.317515	0.249729
C259	C	1.385898	-0.067515	0.499729
C260	C	1.635898	0.182485	0.749729
C261	C	0.949936	-0.548195	-0.000288
C262	C	1.199936	-0.298195	0.249712
C263	C	1.449936	-0.048195	0.499712
C264	C	1.699936	0.201805	0.749712
C265	C	0.950676	-0.497781	-0.000281
C266	C	1.200676	-0.247781	0.249719
C267	C	1.450676	0.002219	0.499719
C268	C	1.700676	0.252219	0.749719
C269	C	0.696007	-0.474223	-0.000222
C270	C	0.946007	-0.224223	0.249778
C271	C	1.196007	0.025777	0.499778
C272	C	1.446007	0.275777	0.749778
C273	C	0.695272	-0.524638	-0.000227
C274	C	0.945272	-0.274638	0.249773
C275	C	1.195272	-0.024638	0.499773
C276	C	1.445272	0.225362	0.749773
C277	C	0.758569	-0.555735	-0.000244
C278	C	1.008569	-0.305735	0.249756
C279	C	1.258569	-0.055735	0.499756
C280	C	1.508569	0.194265	0.749756
C281	C	0.951765	0.060609	-0.000260
C282	C	1.201765	0.310609	0.249740
C283	C	1.451765	0.560609	0.499740
C284	C	1.701765	0.810609	0.749740
C285	C	1.029264	0.061399	-0.000285
C286	C	1.279264	0.311399	0.249715
C287	C	1.529264	0.561399	0.499715
C288	C	1.779264	0.811399	0.749715
C289	C	0.818023	0.152793	-0.000243
C290	C	1.068023	0.402793	0.249757
C291	C	1.318023	0.652793	0.499757
C292	C	1.568023	0.902793	0.749757
C293	C	0.818821	0.206450	-0.000254
C294	C	1.068821	0.456450	0.249746
C295	C	1.318821	0.706450	0.499746
C296	C	1.568821	0.956450	0.749746
N297	N	0.824052	0.064402	0.178937
N298	N	1.074052	0.314402	0.428937
N299	N	1.324052	0.564402	0.678937
N300	N	1.574052	0.814402	0.928937
N301	N	0.824101	0.064410	-0.179389
N302	N	1.074101	0.314410	0.070611
N303	N	1.324101	0.564410	0.320611
N304	N	1.574101	0.814410	0.570611
C305	C	0.871889	0.031456	0.218541
C306	C	1.121889	0.281456	0.468541
C307	C	1.371889	0.531456	0.718541
C308	C	1.621889	0.781456	0.968541
C309	C	0.871893	0.031454	0.297789
C310	C	1.121893	0.281454	0.547789
C311	C	1.371893	0.531454	0.797789
C312	C	1.621893	0.781454	1.047789
C313	C	0.824067	0.064406	0.337429
C314	C	1.074067	0.314406	0.587429
C315	C	1.324067	0.564406	0.837429
C316	C	1.574067	0.814406	1.087429
C317	C	0.776221	0.097354	0.297816
C318	C	1.026221	0.347354	0.547816
C319	C	1.276221	0.597354	0.797816
C320	C	1.526221	0.847354	1.047816
C321	C	0.776214	0.097352	0.218570
C322	C	1.026214	0.347352	0.468570
C323	C	1.276214	0.597352	0.718570
C324	C	1.526214	0.847352	0.968570
N325	N	0.814718	0.107196	0.461842
N326	N	1.064718	0.357196	0.711842
N327	N	1.314718	0.607196	0.961842
N328	N	1.564718	0.857196	1.211842
N329	N	0.814729	0.107196	0.537122
N330	N	1.064729	0.357196	0.787122
N331	N	1.314729	0.607196	1.037122
N332	N	1.564729	0.857196	1.287122
C333	C	0.824085	0.064412	0.576193
C334	C	1.074085	0.314412	0.826193
C335	C	1.324085	0.564412	1.076193
C336	C	1.574085	0.814412	1.326193
N337	N	0.833444	0.021627	0.537140
N338	N	1.083444	0.271627	0.787140
N339	N	1.333444	0.521627	1.037140
N340	N	1.583444	0.771627	1.287140
N341	N	0.833436	0.021628	0.461853
N342	N	1.083436	0.271628	0.711853
N343	N	1.333436	0.521628	0.961853
N344	N	1.583436	0.771628	1.211853
C345	C	0.824069	0.064411	0.423359
C346	C	1.074069	0.314411	0.673359
C347	C	1.324069	0.564411	0.923359
C348	C	1.574069	0.814411	1.173359
C349	C	0.871929	0.031462	0.701727
C350	C	1.121929	0.281462	0.951727
C351	C	1.371929	0.531462	1.201727
C352	C	1.621929	0.781462	1.451727
C353	C	0.871928	0.031459	0.780976
C354	C	1.121928	0.281459	1.030976
C355	C	1.371928	0.531459	1.280976
C356	C	1.621928	0.781459	1.530976
C357	C	0.776260	0.097363	0.781001
C358	C	1.026260	0.347363	1.031001
C359	C	1.276260	0.597363	1.281001
C360	C	1.526260	0.847363	1.531001
C361	C	0.776257	0.097361	0.701754
C362	C	1.026257	0.347361	0.951754
C363	C	1.276257	0.597361	1.201754
C364	C	1.526257	0.847361	1.451754
C365	C	0.824096	0.064411	0.662121
C366	C	1.074096	0.314411	0.912121
C367	C	1.324096	0.564411	1.162121
C368	C	1.574096	0.814411	1.412121
H369	H	0.464051	0.145923	-0.000216
H370	H	0.714051	0.395923	0.249784
H371	H	0.964051	0.645923	0.499784
H372	H	1.214051	0.895923	0.749784
H373	H	0.737259	0.124181	0.186323
H374	H	0.987259	0.374181	0.436323
H375	H	1.237259	0.624181	0.686323
H376	H	1.487259	0.874181	0.936323
F377	F	0.159074	0.153849	-0.000282
F378	F	0.409074	0.403849	0.249718
F379	F	0.659074	0.653849	0.499718
F380	F	0.909074	0.903849	0.749718
F381	F	0.959269	-0.192238	-0.000254
F382	F	1.209269	0.057762	0.249746
F383	F	1.459269	0.307762	0.499746
F384	F	1.709269	0.557762	0.749746
F385	F	0.603056	0.158379	-0.000200
F386	F	0.853056	0.408379	0.249800
F387	F	1.103056	0.658379	0.499800
F388	F	1.353056	0.908379	0.749800
F389	F	0.045090	-0.029565	-0.000266
F390	F	0.295090	0.220435	0.249734
F391	F	0.545090	0.470435	0.499734
F392	F	0.795090	0.720435	0.749734
H393	H	0.184097	-0.017109	-0.000246
H394	H	0.434097	0.232891	0.249754
H395	H	0.684097	0.482891	0.499754
H396	H	0.934097	0.732891	0.749754
H397	H	0.944776	-0.093007	-0.000226
H398	H	1.194776	0.156993	0.249774
H399	H	1.444776	0.406993	0.499774
H400	H	1.694776	0.656993	0.749774
H401	H	0.712400	-0.163101	-0.000170
H402	H	0.962400	0.086899	0.249830
H403	H	1.212400	0.336899	0.499830
H404	H	1.462400	0.586899	0.749830
H405	H	1.005046	-0.330816	-0.000272
H406	H	1.255046	-0.080816	0.249728
H407	H	1.505046	0.169184	0.499728
H408	H	1.755046	0.419184	0.749728
F409	F	0.489072	-0.025032	-0.000181
F410	F	0.739072	0.224968	0.249819
F411	F	0.989072	0.474968	0.499819
F412	F	1.239072	0.724968	0.749819
F413	F	1.019532	-0.430042	-0.000286
F414	F	1.269532	-0.180042	0.249714
F415	F	1.519532	0.069958	0.499714
F416	F	1.769532	0.319958	0.749714
F417	F	0.951766	-0.703260	-0.000274
F418	F	1.201766	-0.453260	0.249726
F419	F	1.451766	-0.203260	0.499726
F420	F	1.701766	0.046740	0.749726
F421	F	0.725319	0.132422	0.340004
F422	F	0.975319	0.382422	0.590004
F423	F	1.225319	0.632422	0.840004
F424	F	1.475319	0.882422	1.090004
H425	H	0.020068	0.141392	-0.000294
H426	H	0.270068	0.391392	0.249706
H427	H	0.520068	0.641392	0.499706
H428	H	0.770068	0.891392	0.749706
H429	H	0.628083	-0.012580	-0.000150
H430	H	0.878083	0.237420	0.249850
H431	H	1.128083	0.487420	0.499850
H432	H	1.378083	0.737420	0.749850
F433	F	0.950230	-0.807335	-0.000289
F434	F	1.200230	-0.557335	0.249711
F435	F	1.450230	-0.307335	0.499711
F436	F	1.700230	-0.057335	0.749711
F437	F	0.687362	-0.783005	-0.000214
F438	F	0.937362	-0.533005	0.249786
F439	F	1.187362	-0.283005	0.499786
F440	F	1.437362	-0.033005	0.749786
F441	F	0.688886	-0.678946	-0.000227
F442	F	0.938886	-0.428946	0.249773
F443	F	1.188886	-0.178946	0.499773
F444	F	1.438886	0.071054	0.749773
H445	H	0.737307	0.124191	0.669506
H446	H	0.987307	0.374191	0.919506
H447	H	1.237307	0.624191	1.169506
H448	H	1.487307	0.874191	1.419506
F449	F	0.629315	-0.393936	-0.000217
F450	F	0.879315	-0.143936	0.249783
F451	F	1.129315	0.106064	0.499783
F452	F	1.379315	0.356064	0.749783
H453	H	0.646676	-0.297652	-0.000217
H454	H	0.896676	-0.047652	0.249783
H455	H	1.146676	0.202348	0.499783
H456	H	1.396676	0.452348	0.749783
H457	H	0.713749	-0.071630	-0.000177
H458	H	0.963749	0.178370	0.249823
H459	H	1.213749	0.428370	0.499823
H460	H	1.463749	0.678370	0.749823
F461	F	1.018839	-0.477230	-0.000295
F462	F	1.268839	-0.227230	0.249705
F463	F	1.518839	0.022770	0.499705
F464	F	1.768839	0.272770	0.749705
F465	F	1.017302	-0.581300	-0.000301
F466	F	1.267302	-0.331300	0.249699
F467	F	1.517302	-0.081300	0.499699
F468	F	1.767302	0.168700	0.749699
F469	F	0.627105	-0.545190	-0.000213
F470	F	0.877105	-0.295190	0.249787
F471	F	1.127105	-0.045190	0.499787
F472	F	1.377105	0.204810	0.749787
H473	H	0.644461	-0.448908	-0.000210
H474	H	0.894461	-0.198908	0.249790
H475	H	1.144461	0.051092	0.499790
H476	H	1.394461	0.301092	0.749790
H477	H	0.910840	0.004625	0.186275
H478	H	1.160840	0.254625	0.436275
H479	H	1.410840	0.504625	0.686275
H480	H	1.660840	0.754625	0.936275
F481	F	0.922810	-0.003613	0.339946
F482	F	1.172810	0.246387	0.589946
F483	F	1.422810	0.496387	0.839946
F484	F	1.672810	0.746387	1.089946
F485	F	0.725356	0.132429	0.823186
F486	F	0.975356	0.382429	1.073186
F487	F	1.225356	0.632429	1.323186
F488	F	1.475356	0.882429	1.573186
F489	F	0.922840	-0.003609	0.659546
F490	F	1.172840	0.246391	0.909546
F491	F	1.422840	0.496391	1.159546
F492	F	1.672840	0.746391	1.409546
H493	H	0.910880	0.004628	0.813222
H494	H	1.160880	0.254628	1.063222
H495	H	1.410880	0.504628	1.313222
H496	H	1.660880	0.754628	1.563222
