data_functionalizedCrystal
_audit_creation_method	'MofGen! by Chris Wilmer'
_symmetry_space_group_name_H-M	'P1'
_symmetry_Int_Tables_number	1
_symmetry_cell_setting	triclinic
loop_
_symmetry_equiv_pos_as_xyz
  x,y,z
_cell_length_a	13.635800
_cell_length_b	11.102193
_cell_length_c	19.551823
_cell_angle_alpha	85.475021
_cell_angle_beta	78.336624
_cell_angle_gamma	108.604059
loop_
_atom_site_label
_atom_site_type_symbol
_atom_site_fract_x
_atom_site_fract_y
_atom_site_fract_z
V1	V	-2.038256	-0.396852	0.096680
O2	O	-2.036114	-0.388686	-0.004641
O3	O	-2.009444	-0.394726	0.191695
O4	O	-2.026911	-0.569664	0.095195
O5	O	-2.018525	-0.212536	0.092527
V6	V	-2.279001	-0.374735	0.084561
O7	O	-2.171113	-0.445367	0.123265
O8	O	-2.371243	-0.326219	0.057976
O9	O	-2.196210	-0.376861	-0.010455
O10	O	-2.339842	-0.382901	0.185881
O11	O	-2.357430	-0.559050	0.088713
O12	O	-2.178742	-0.201922	0.086045
C13	C	-1.930406	-0.388617	0.214858
C14	C	-1.947578	-0.388030	0.292534
C15	C	-1.952688	-0.611767	0.091761
C16	C	-1.984024	-0.753046	0.091176
V17	V	-1.538256	-0.396852	0.096680
O18	O	-1.536114	-0.388686	-0.004641
O19	O	-1.509444	-0.394726	0.191695
O20	O	-1.526911	-0.569664	0.095195
O21	O	-1.518525	-0.212536	0.092527
V22	V	-1.779001	-0.374735	0.084561
O23	O	-1.671113	-0.445367	0.123265
O24	O	-1.871243	-0.326219	0.057976
O25	O	-1.696210	-0.376861	-0.010455
O26	O	-1.839842	-0.382901	0.185881
O27	O	-1.857430	-0.559050	0.088713
O28	O	-1.678742	-0.201922	0.086045
C29	C	-2.021020	-0.790159	0.219156
C30	C	-2.054237	-0.875087	0.282867
C31	C	-2.083680	-1.007829	0.282314
C32	C	-2.079909	-1.055646	0.218041
C33	C	-2.046693	-0.970718	0.154329
C34	C	-2.017248	-0.837974	0.154890
C35	C	-2.009704	-0.933605	0.026351
C36	C	-1.980253	-0.800862	0.026903
C37	C	-2.005932	-0.981421	-0.037921
C38	C	-1.972709	-0.896493	-0.101635
C39	C	-1.943263	-0.763743	-0.101079
C40	C	-1.947036	-0.715934	-0.036809
C41	C	-2.106918	-0.382966	-0.033613
C42	C	-2.079365	-0.383561	-0.111289
C43	C	-2.084637	-0.159813	0.089481
C44	C	-2.042920	-0.018533	0.090063
C45	C	-1.430406	-0.388617	0.214858
C46	C	-1.447578	-0.388030	0.292534
C47	C	-1.452688	-0.611767	0.091761
C48	C	-1.484024	-0.753046	0.091176
C49	C	-2.047001	-0.394110	0.332580
C50	C	-2.063140	-0.393572	0.405566
C51	C	-1.979843	-0.386928	0.438501
C52	C	-1.880408	-0.380855	0.398446
C53	C	-1.864275	-0.381406	0.325463
C54	C	-1.917233	-0.306338	0.544988
C55	C	-1.933367	-0.305779	0.617969
C56	C	-2.029598	-0.385234	0.663607
C57	C	-2.109706	-0.465232	0.636253
C58	C	-2.093574	-0.465783	0.563269
C59	C	-1.997326	-0.386331	0.517639
C60	C	-2.146527	-0.390733	0.782793
C61	C	-2.162664	-0.390203	0.855781
C62	C	-1.979926	-0.377472	0.848659
C63	C	-1.963795	-0.378016	0.775674
C64	C	-2.047098	-0.384640	0.742744
C65	C	-1.606918	-0.382966	-0.033613
C66	C	-1.579365	-0.383561	-0.111289
C67	C	-1.584637	-0.159813	0.089481
C68	C	-1.542920	-0.018533	0.090063
C69	C	-1.547015	-0.394127	0.332574
C70	C	-1.563169	-0.393595	0.405561
C71	C	-1.479882	-0.386958	0.438506
C72	C	-1.380439	-0.380865	0.398460
C73	C	-1.364289	-0.381406	0.325475
C74	C	-1.652423	-0.377468	-0.151329
C75	C	-1.626542	-0.378005	-0.224315
C76	C	-1.527605	-0.384645	-0.257260
C77	C	-1.454541	-0.390735	-0.217215
C78	C	-1.480420	-0.390188	-0.144230
C79	C	-1.666786	-0.766058	0.098159
C80	C	-1.772886	-0.838937	0.101378
C81	C	-1.802322	-0.971680	0.100827
C82	C	-1.725650	-1.031546	0.097055
C83	C	-1.619550	-0.958667	0.093836
C84	C	-1.590124	-0.825923	0.094390
C85	C	-1.436788	-0.945653	0.086848
C86	C	-1.407351	-0.812912	0.087404
C87	C	-1.360116	-1.005520	0.083076
C88	C	-1.254016	-0.932643	0.079863
C89	C	-1.224582	-0.799892	0.080415
C90	C	-1.301252	-0.740033	0.084186
H91	H	-1.997032	-0.682074	0.219612
C92	C	-1.268883	-0.594013	0.084791
N93	N	-1.244506	-0.484028	0.085243
H94	H	-1.644146	-0.398554	0.438156
C95	C	-1.634416	-0.620040	0.098773
N96	N	-1.610036	-0.510058	0.099234
H97	H	-1.614841	-0.399524	0.305760
C98	C	-2.215569	-0.552636	0.686449
N99	N	-2.295304	-0.618462	0.724259
H100	H	-2.057307	-0.836140	0.335197
C101	C	-2.120218	-1.101252	0.352399
N102	N	-2.147736	-1.171618	0.405188
C103	C	-1.345712	-0.398037	-0.253465
N104	N	-1.263744	-0.403543	-0.280771
C105	C	-1.968561	-0.949100	-0.172327
N106	N	-1.965434	-0.988729	-0.225574
H107	H	-1.493047	-0.386519	0.497935
C108	C	-1.107865	-0.719736	0.076875
N109	N	-1.019954	-0.659367	0.074210
H110	H	-1.506546	-0.385089	-0.316689
C111	C	-1.761259	-0.370153	-0.115105
N112	N	-1.843235	-0.364634	-0.087827
C113	C	-1.288827	-0.373542	0.434709
N114	N	-1.219822	-0.368013	0.462013
C115	C	-1.254892	-0.374679	0.281437
N116	N	-1.172489	-0.369608	0.248270
C117	C	-1.811369	-0.218922	0.494792
N118	N	-1.731635	-0.153082	0.456986
H119	H	-2.103898	-1.163734	0.217596
C120	C	-1.854416	-0.371307	0.731620
N121	N	-1.772027	-0.366254	0.698438
C122	C	-2.038314	-1.127442	-0.038529
N123	N	-2.062697	-1.237425	-0.038989
H124	H	-1.686047	-0.373048	-0.256910
H125	H	-1.420926	-0.395161	-0.111634
H126	H	-1.835306	-0.790178	0.104446
H127	H	-1.888716	-1.031017	0.103446
C128	C	-1.758032	-1.177562	0.096432
N129	N	-1.782420	-1.287543	0.095961
C130	C	-1.906725	-0.670331	-0.171168
N131	N	-1.879203	-0.599977	-0.223962
C132	C	-1.914647	-0.569916	-0.036190
N133	N	-1.890256	-0.459935	-0.035722
H134	H	-1.384090	-1.113605	0.082623
H135	H	-1.912105	-0.372070	0.875475
C136	C	-2.272042	-0.396894	0.899832
N137	N	-2.354428	-0.401932	0.933011
H138	H	-2.114837	-0.399513	0.305774
H139	H	-2.144104	-0.398523	0.438177
H140	H	-2.158800	-0.530922	0.541001
H141	H	-2.214357	-0.396125	0.755980
H142	H	-1.191598	-0.981395	0.076787
H143	H	-1.868141	-0.240632	0.640234
H144	H	-1.783312	-0.376456	0.292858
C145	C	-1.788779	-0.373538	0.434676
N146	N	-1.719762	-0.368028	0.461964
