data_functionalizedCrystal
_audit_creation_method	'MofGen! by Chris Wilmer'
_symmetry_space_group_name_H-M	'P1'
_symmetry_Int_Tables_number	1
_symmetry_cell_setting	triclinic
loop_
_symmetry_equiv_pos_as_xyz
  x,y,z
_cell_length_a	23.532407
_cell_length_b	23.532409
_cell_length_c	22.610064
_cell_angle_alpha	90.007112
_cell_angle_beta	89.997161
_cell_angle_gamma	82.849119
loop_
_atom_site_label
_atom_site_type_symbol
_atom_site_fract_x
_atom_site_fract_y
_atom_site_fract_z
O1	O	0.755264	0.069127	-0.049107
O2	O	1.088597	0.402460	0.284226
O3	O	1.421931	0.735794	0.617560
O4	O	0.589401	0.079130	-0.049124
O5	O	0.922734	0.412464	0.284210
O6	O	1.256067	0.745797	0.617543
O7	O	0.677333	-0.008803	-0.049116
O8	O	1.010667	0.324530	0.284218
O9	O	1.344000	0.657864	0.617551
O10	O	0.667331	0.157060	-0.049115
O11	O	1.000665	0.490394	0.284218
O12	O	1.333998	0.823727	0.617551
O13	O	0.677318	-0.008790	0.049254
O14	O	1.010651	0.324543	0.382587
O15	O	1.343984	0.657876	0.715920
O16	O	0.589385	0.079143	0.049245
O17	O	0.922719	0.412476	0.382579
O18	O	1.256052	0.745810	0.715912
O19	O	0.755248	0.069140	0.049262
O20	O	1.088582	0.402473	0.382596
O21	O	1.421915	0.735806	0.715929
Zn22	Zn	0.672314	0.074143	0.064872
Zn23	Zn	1.005648	0.407477	0.398205
Zn24	Zn	1.338981	0.740810	0.731539
Zn25	Zn	0.672335	0.074127	-0.064734
Zn26	Zn	1.005668	0.407460	0.268600
Zn27	Zn	1.339002	0.740793	0.601933
O28	O	0.667316	0.157073	0.049254
O29	O	1.000649	0.490406	0.382587
O30	O	1.333983	0.823740	0.715921
C31	C	0.568177	0.078882	0.000059
C32	C	0.901510	0.412215	0.333392
C33	C	1.234844	0.745549	0.666725
C34	C	0.504960	0.078116	0.000052
C35	C	0.838293	0.411449	0.333385
C36	C	1.171627	0.744783	0.666719
C37	C	0.105857	0.125349	0.000079
C38	C	0.439190	0.458683	0.333412
C39	C	0.772524	0.792016	0.666746
C40	C	0.046457	0.124638	0.000083
C41	C	0.379790	0.457971	0.333416
C42	C	0.713124	0.791305	0.666749
O43	O	0.009713	0.168424	0.000104
O44	O	0.343046	0.501757	0.333437
O45	O	0.676379	0.835090	0.666771
N46	N	0.023830	0.072362	0.000081
N47	N	0.357164	0.405695	0.333415
N48	N	0.690497	0.739028	0.666748
C49	C	0.060608	0.020794	0.000083
C50	C	0.393941	0.354127	0.333416
C51	C	0.727274	0.687460	0.666749
O52	O	0.035908	-0.023737	0.000083
O53	O	0.369241	0.309596	0.333416
O54	O	0.702574	0.642930	0.666749
C55	C	0.120007	0.021506	0.000083
C56	C	0.453340	0.354839	0.333417
C57	C	0.786673	0.688172	0.666750
C58	C	0.142630	0.073785	0.000078
C59	C	0.475963	0.407119	0.333412
C60	C	0.809296	0.740452	0.666745
C61	C	0.128481	0.177625	0.000075
C62	C	0.461814	0.510958	0.333408
C63	C	0.795147	0.844291	0.666741
C64	C	0.187877	0.178336	0.000070
C65	C	0.521210	0.511669	0.333403
C66	C	0.854544	0.845003	0.666737
C67	C	0.224649	0.126772	0.000069
C68	C	0.557983	0.460105	0.333403
C69	C	0.891316	0.793438	0.666736
C70	C	0.202026	0.074496	0.000074
C71	C	0.535359	0.407830	0.333407
C72	C	0.868692	0.741163	0.666740
C73	C	0.156783	-0.030062	0.000089
C74	C	0.490116	0.303271	0.333422
C75	C	0.823449	0.636605	0.666755
C76	C	0.216185	-0.029345	0.000090
C77	C	0.549519	0.303988	0.333423
C78	C	0.882852	0.637321	0.666757
C79	C	0.238808	0.022934	0.000085
C80	C	0.572142	0.356268	0.333418
C81	C	0.905475	0.689601	0.666752
C82	C	0.298195	0.023643	0.000068
C83	C	0.631528	0.356977	0.333402
C84	C	0.964861	0.690310	0.666735
N85	N	0.320821	0.075920	0.000070
N86	N	0.654154	0.409253	0.333403
N87	N	0.987488	0.742586	0.666736
C88	C	0.284049	0.127484	0.000070
C89	C	0.617382	0.460817	0.333403
C90	C	0.950715	0.794151	0.666737
C91	C	-0.064135	0.019302	0.000082
C92	C	0.269198	0.352635	0.333416
C93	C	0.602532	0.685969	0.666749
C94	C	-0.123533	0.018589	0.000078
C95	C	0.209800	0.351923	0.333411
C96	C	0.543134	0.685256	0.666744
C97	C	-0.137679	0.122434	0.000079
C98	C	0.195654	0.455767	0.333412
C99	C	0.528987	0.789101	0.666745
C100	C	-0.078280	0.123146	0.000079
C101	C	0.255053	0.456480	0.333412
C102	C	0.588386	0.789813	0.666746
C103	C	-0.041508	0.071578	0.000084
C104	C	0.291825	0.404912	0.333417
C105	C	0.625158	0.738245	0.666750
C106	C	0.408785	0.128974	0.000060
C107	C	0.742119	0.462307	0.333393
C108	C	1.075452	0.795640	0.666726
C109	C	0.468187	0.129680	0.000052
C110	C	0.801521	0.463014	0.333386
C111	C	1.134854	0.796347	0.666719
C112	C	0.482329	0.025836	0.000055
C113	C	0.815662	0.359169	0.333388
C114	C	1.148995	0.692503	0.666721
C115	C	0.422932	0.025129	0.000059
C116	C	0.756265	0.358462	0.333392
C117	C	1.089599	0.691796	0.666725
C118	C	0.386161	0.076702	0.000063
C119	C	0.719494	0.410036	0.333397
C120	C	1.052828	0.743369	0.666730
O121	O	0.334973	-0.020119	0.000049
O122	O	0.668307	0.313214	0.333383
O123	O	1.001640	0.646547	0.666716
O124	O	0.308757	0.172007	0.000078
O125	O	0.642090	0.505340	0.333411
O126	O	0.975423	0.838674	0.666745
C127	C	0.677071	-0.030013	0.000067
C128	C	1.010404	0.303321	0.333401
C129	C	1.343737	0.636654	0.666734
C130	C	0.676304	-0.093230	0.000063
C131	C	1.009638	0.240104	0.333396
C132	C	1.342971	0.573437	0.666730
C133	C	0.673054	-0.366482	-0.053561
C134	C	1.006387	-0.033148	0.279772
C135	C	1.339721	0.300185	0.613106
C136	C	0.673765	-0.307081	-0.053561
C137	C	1.007099	0.026252	0.279772
C138	C	1.340432	0.359585	0.613106
O139	O	0.674161	-0.276363	-0.099162
O140	O	1.007494	0.056971	0.234171
O141	O	1.340827	0.390304	0.567505
N142	N	0.674109	-0.277372	0.000061
N143	N	1.007443	0.055961	0.333394
N144	N	1.340776	0.389294	0.666728
C145	C	0.673747	-0.307067	0.053687
C146	C	1.007080	0.026266	0.387020
C147	C	1.340414	0.359599	0.720353
O148	O	0.674105	-0.276343	0.099296
O149	O	1.007439	0.056990	0.432630
O150	O	1.340772	0.390324	0.765963
C151	C	0.673040	-0.366467	0.053686
C152	C	1.006373	-0.033134	0.387019
C153	C	1.339706	0.300200	0.720353
C154	C	0.672690	-0.396172	0.000060
C155	C	1.006023	-0.062839	0.333394
C156	C	1.339357	0.270494	0.666727
C157	C	0.672705	-0.396187	-0.107182
C158	C	1.006038	-0.062854	0.226151
C159	C	1.339372	0.270480	0.559485
C160	C	0.671992	-0.455583	-0.107182
C161	C	1.005326	-0.122250	0.226152
C162	C	1.338659	0.211084	0.559485
C163	C	0.671628	-0.485274	-0.053560
C164	C	1.004962	-0.151940	0.279773
C165	C	1.338295	0.181393	0.613106
C166	C	0.671977	-0.455568	0.000061
C167	C	1.005311	-0.122235	0.333394
C168	C	1.338644	0.211099	0.666727
C169	C	0.672682	-0.396161	0.107311
C170	C	1.006015	-0.062828	0.440644
C171	C	1.339348	0.270505	0.773978
C172	C	0.671974	-0.455565	0.107306
C173	C	1.005308	-0.122232	0.440639
C174	C	1.338641	0.211102	0.773972
C175	C	0.671625	-0.485270	0.053680
C176	C	1.004958	-0.151937	0.387014
C177	C	1.338292	0.181396	0.720347
C178	C	0.670901	-0.544655	0.053682
C179	C	1.004234	-0.211321	0.387016
C180	C	1.337568	0.122012	0.720349
N181	N	0.670557	-0.574364	0.000060
N182	N	1.003891	-0.241030	0.333394
N183	N	1.337224	0.092303	0.666727
C184	C	0.670921	-0.544673	-0.053561
C185	C	1.004254	-0.211340	0.279772
C186	C	1.337588	0.121993	0.613106
C187	C	0.675234	-0.182324	0.053684
C188	C	1.008567	0.151009	0.387017
C189	C	1.341901	0.484343	0.720350
C190	C	0.675937	-0.122925	0.053685
C191	C	1.009271	0.210408	0.387018
C192	C	1.342604	0.543742	0.720352
C193	C	0.675957	-0.122943	-0.053563
C194	C	1.009290	0.210390	0.279770
C195	C	1.342624	0.543723	0.613104
C196	C	0.675249	-0.182343	-0.053563
C197	C	1.008583	0.150990	0.279770
C198	C	1.341916	0.484324	0.613103
C199	C	0.674890	-0.212033	0.000062
C200	C	1.008224	0.121300	0.333395
C201	C	1.341557	0.454633	0.666728
C202	C	0.669424	-0.669409	-0.053556
C203	C	1.002757	-0.336076	0.279777
C204	C	1.336090	-0.002742	0.613110
C205	C	0.668709	-0.728810	-0.053551
C206	C	1.002042	-0.395477	0.279782
C207	C	1.335375	-0.062143	0.613115
C208	C	0.668692	-0.728787	0.053696
C209	C	1.002026	-0.395453	0.387029
C210	C	1.335359	-0.062120	0.720363
C211	C	0.669404	-0.669391	0.053691
C212	C	1.002738	-0.336057	0.387025
C213	C	1.336071	-0.002724	0.720358
C214	C	0.669772	-0.639703	0.000060
C215	C	1.003105	-0.306370	0.333394
C216	C	1.336439	0.026963	0.666727
O217	O	0.670508	-0.575412	0.099260
O218	O	1.003841	-0.242078	0.432593
O219	O	1.337174	0.091255	0.765927
O220	O	0.670570	-0.575406	-0.099163
O221	O	1.003903	-0.242072	0.234170
O222	O	1.337237	0.091261	0.567504
C223	C	0.776472	0.069388	0.000078
C224	C	1.109806	0.402721	0.333412
C225	C	1.443139	0.736055	0.666745
C226	C	0.839689	0.070154	0.000081
C227	C	1.173023	0.403487	0.333415
C228	C	1.506356	0.736821	0.666748
C229	C	0.667579	0.178283	0.000070
C230	C	1.000912	0.511616	0.333403
C231	C	1.334245	0.844949	0.666736
C232	C	0.668345	0.241500	0.000070
C233	C	1.001678	0.574833	0.333403
C234	C	1.335012	0.908166	0.666737
N235	N	0.672305	0.074155	0.153324
N236	N	1.005638	0.407488	0.486658
N237	N	1.338971	0.740821	0.819991
N238	N	0.672349	0.074111	-0.153186
N239	N	1.005683	0.407444	0.180147
N240	N	1.339016	0.740777	0.513481
C241	C	0.711273	0.035196	0.561969
C242	C	1.044606	0.368529	0.895303
C243	C	1.377940	0.701862	1.228636
C244	C	0.711276	0.035192	0.623889
C245	C	1.044609	0.368525	0.957223
C246	C	1.377943	0.701858	1.290556
O247	O	0.744384	0.002076	0.655911
O248	O	1.077718	0.335409	0.989245
O249	O	1.411051	0.668742	1.322578
N250	N	0.672334	0.074115	0.654862
N251	N	1.005668	0.407448	0.988195
N252	N	1.339001	0.740781	1.321528
C253	C	0.633384	0.113041	0.623911
C254	C	0.966717	0.446374	0.957244
C255	C	1.300050	0.779707	1.290577
O256	O	0.600261	0.146147	0.655941
O257	O	0.933594	0.479481	0.989274
O258	O	1.266927	0.812814	1.322607
C259	C	0.633378	0.113042	0.561992
C260	C	0.966712	0.446375	0.895325
C261	C	1.300045	0.779708	1.228659
C262	C	0.672326	0.074120	0.531023
C263	C	1.005660	0.407453	0.864356
C264	C	1.338993	0.740786	1.197690
C265	C	0.750218	-0.003724	0.531000
C266	C	1.083551	0.329610	0.864334
C267	C	1.416884	0.662943	1.197667
C268	C	0.750215	-0.003719	0.469085
C269	C	1.083548	0.329615	0.802418
C270	C	1.416882	0.662948	1.135751
C271	C	0.711268	0.035206	0.438138
C272	C	1.044602	0.368539	0.771472
C273	C	1.377935	0.701872	1.104805
C274	C	0.672324	0.074125	0.469107
C275	C	1.005657	0.407458	0.802441
C276	C	1.338991	0.740792	1.135774
C277	C	0.594425	0.151965	0.531042
C278	C	0.927759	0.485298	0.864376
C279	C	1.261092	0.818631	1.197709
C280	C	0.594423	0.151962	0.469119
C281	C	0.927756	0.485295	0.802453
C282	C	1.261090	0.818629	1.135786
C283	C	0.633371	0.113040	0.438150
C284	C	0.966704	0.446373	0.771483
C285	C	1.300038	0.779707	1.104817
C286	C	0.633375	0.113054	0.376245
C287	C	0.966708	0.446387	0.709578
C288	C	1.300042	0.779721	1.042912
N289	N	0.672316	0.074131	0.345273
N290	N	1.005650	0.407464	0.678606
N291	N	1.338983	0.740797	1.011940
C292	C	0.711263	0.035207	0.376219
C293	C	1.044597	0.368540	0.709553
C294	C	1.377930	0.701873	1.042886
C295	C	0.633397	0.113035	0.753944
C296	C	0.966730	0.446368	1.087278
C297	C	1.300063	0.779702	1.420611
C298	C	0.633404	0.113037	0.815862
C299	C	0.966737	0.446371	1.149195
C300	C	1.300071	0.779704	1.482529
C301	C	0.711296	0.035187	0.815836
C302	C	1.044629	0.368520	1.149170
C303	C	1.377963	0.701854	1.482503
C304	C	0.711291	0.035188	0.753918
C305	C	1.044624	0.368521	1.087251
C306	C	1.377958	0.701855	1.420584
C307	C	0.672338	0.074112	0.722972
C308	C	1.005672	0.407445	1.056305
C309	C	1.339005	0.740779	1.389639
C310	C	0.711256	0.035220	0.246192
C311	C	1.044589	0.368554	0.579525
C312	C	1.377922	0.701887	0.912859
C313	C	0.711251	0.035230	0.184271
C314	C	1.044585	0.368564	0.517604
C315	C	1.377918	0.701897	0.850938
C316	C	0.633358	0.113078	0.184302
C317	C	0.966691	0.446412	0.517635
C318	C	1.300024	0.779745	0.850969
C319	C	0.633364	0.113071	0.246218
C320	C	0.966697	0.446404	0.579551
C321	C	1.300030	0.779737	0.912884
C322	C	0.672315	0.074137	0.277161
C323	C	1.005648	0.407470	0.610495
C324	C	1.338981	0.740803	0.943828
O325	O	0.600282	0.146151	0.344184
O326	O	0.933615	0.479485	0.677517
O327	O	1.266949	0.812818	1.010851
O328	O	0.744376	0.002101	0.344182
O329	O	1.077709	0.335434	0.677515
O330	O	1.411042	0.668767	1.010849
H331	H	0.404512	-0.017441	0.000054
H332	H	0.737845	0.315892	0.333387
H333	H	1.071178	0.649225	0.666721
H334	H	0.669724	-0.645245	-0.097228
H335	H	1.003057	-0.311911	0.236106
H336	H	1.336390	0.021422	0.569439
H337	H	0.246123	-0.071339	0.000094
H338	H	0.579456	0.261994	0.333427
H339	H	0.912790	0.595327	0.666761
H340	H	0.673003	-0.372020	-0.150849
H341	H	1.006336	-0.038686	0.182484
H342	H	1.339670	0.294647	0.515817
Cl343	Cl	0.760255	-0.013745	0.714992
Cl344	Cl	1.093588	0.319588	1.048325
Cl345	Cl	1.426921	0.652921	1.381659
H346	H	0.676211	-0.098742	0.097352
H347	H	1.009545	0.234591	0.430685
H348	H	1.342878	0.567924	0.764019
Cl349	Cl	0.760257	-0.013747	0.854753
Cl350	Cl	1.093590	0.319586	1.188087
Cl351	Cl	1.426923	0.652919	1.521420
H352	H	0.512279	-0.016146	0.000052
H353	H	0.845613	0.317187	0.333385
H354	H	1.178946	0.650520	0.666719
Cl355	Cl	0.668268	-0.766150	-0.120971
Cl356	Cl	1.001602	-0.432816	0.212362
Cl357	Cl	1.334935	-0.099483	0.545695
H358	H	0.671712	-0.479764	-0.150849
H359	H	1.005045	-0.146431	0.182484
H360	H	1.338378	0.186902	0.515817
Cl361	Cl	-0.151966	-0.047136	0.000069
Cl362	Cl	0.181368	0.286197	0.333402
Cl363	Cl	0.514701	0.619530	0.666736
H364	H	0.676251	-0.098758	-0.097224
H365	H	1.009585	0.234575	0.236109
H366	H	1.342918	0.567908	0.569442
H367	H	-0.034198	-0.022693	0.000081
H368	H	0.299136	0.310640	0.333414
H369	H	0.632469	0.643973	0.666747
H370	H	0.138374	-0.072634	0.000093
H371	H	0.471707	0.260700	0.333427
H372	H	0.805041	0.594033	0.666760
H373	H	0.781933	-0.035423	0.556192
H374	H	1.115266	0.297910	0.889525
H375	H	1.448599	0.631244	1.222858
H376	H	0.098546	0.219617	0.000077
H377	H	0.431879	0.552950	0.333411
H378	H	0.765212	0.886284	0.666744
Cl379	Cl	0.362568	0.193810	0.000065
Cl380	Cl	0.695902	0.527143	0.333398
Cl381	Cl	1.029235	0.860476	0.666731
Cl382	Cl	0.674776	-0.219642	0.121105
Cl383	Cl	1.008109	0.113691	0.454439
Cl384	Cl	1.341442	0.447025	0.787772
Cl385	Cl	0.674812	-0.219681	-0.120981
Cl386	Cl	1.008145	0.113653	0.212353
Cl387	Cl	1.341478	0.446986	0.545686
H388	H	0.672972	-0.371986	0.150979
H389	H	1.006306	-0.038653	0.484312
H390	H	1.339639	0.294680	0.817645
Cl391	Cl	0.671525	-0.492886	0.174725
Cl392	Cl	1.004858	-0.159553	0.508058
Cl393	Cl	1.338192	0.173780	0.841391
Cl394	Cl	0.669843	-0.632046	0.121107
Cl395	Cl	1.003177	-0.298712	0.454440
Cl396	Cl	1.336510	0.034621	0.787774
H397	H	0.668394	-0.752971	0.097353
H398	H	1.001727	-0.419638	0.430687
H399	H	1.335061	-0.086304	0.764020
Cl400	Cl	0.760219	-0.013703	0.145342
Cl401	Cl	1.093552	0.319631	0.478675
Cl402	Cl	1.426886	0.652964	0.812008
H403	H	0.742973	0.003516	0.271379
H404	H	1.076306	0.336850	0.604713
H405	H	1.409639	0.670183	0.938046
Cl406	Cl	0.799176	-0.052654	0.430159
Cl407	Cl	1.132510	0.280679	0.763492
Cl408	Cl	1.465843	0.614012	1.096826
H409	H	-0.059865	0.165717	0.000079
H410	H	0.273468	0.499050	0.333412
H411	H	0.606801	0.832384	0.666745
Cl412	Cl	-0.183919	0.187258	0.000082
Cl413	Cl	0.149414	0.520592	0.333416
Cl414	Cl	0.482748	0.853925	0.666749
Cl415	Cl	0.584447	0.161977	0.854788
Cl416	Cl	0.917780	0.495310	1.188121
Cl417	Cl	1.251113	0.828644	1.521454
Cl418	Cl	0.584427	0.161977	0.715047
Cl419	Cl	0.917761	0.495311	1.048380
Cl420	Cl	1.251094	0.828644	1.381714
Cl421	Cl	0.545458	0.200896	0.569962
Cl422	Cl	0.878792	0.534229	0.903296
Cl423	Cl	1.212125	0.867563	1.236629
Cl424	Cl	0.545450	0.200897	0.430221
Cl425	Cl	0.878783	0.534231	0.763554
Cl426	Cl	1.212116	0.867564	1.096888
H427	H	0.601654	0.144770	0.271433
H428	H	0.934988	0.478103	0.604766
H429	H	1.268321	0.811436	0.938100
Cl430	Cl	0.584398	0.162010	0.145388
Cl431	Cl	0.917732	0.495343	0.478721
Cl432	Cl	1.251065	0.828677	0.812055
H433	H	0.206291	0.220907	0.000066
H434	H	0.539624	0.554241	0.333399
H435	H	0.872957	0.887574	0.666732
Cl436	Cl	0.496623	0.195408	0.000045
Cl437	Cl	0.829957	0.528741	0.333378
Cl438	Cl	1.163290	0.862075	0.666711
