data_functionalizedCrystal
_audit_creation_method	'MofGen! by Chris Wilmer'
_symmetry_space_group_name_H-M	'P1'
_symmetry_Int_Tables_number	1
_symmetry_cell_setting	triclinic
loop_
_symmetry_equiv_pos_as_xyz
  x,y,z
_cell_length_a	10.654541
_cell_length_b	8.597340
_cell_length_c	7.681481
_cell_angle_alpha	76.525094
_cell_angle_beta	84.205069
_cell_angle_gamma	95.090413
loop_
_atom_site_label
_atom_site_type_symbol
_atom_site_fract_x
_atom_site_fract_y
_atom_site_fract_z
O1	O	-0.173671	2.101765	-0.172458
O2	O	-0.193680	1.637926	-0.102083
O3	O	-0.000862	1.880512	-0.138888
O4	O	-0.366489	1.859179	-0.135653
O5	O	0.022924	1.910370	-0.436276
O6	O	-0.169894	1.667783	-0.399471
O7	O	-0.149884	2.131623	-0.469846
Zn8	Zn	-0.156113	1.904444	-0.481875
Zn9	Zn	-0.187452	1.865105	-0.090054
O10	O	-0.342702	1.889037	-0.433041
C11	C	-0.180963	1.593462	-0.241766
C12	C	-0.178494	1.416490	-0.214915
C13	C	-0.401383	1.875673	-0.284585
C14	C	-0.540794	1.880357	-0.285296
C15	C	-0.570766	1.590282	-0.241306
C16	C	-0.651246	1.447452	-0.219652
C17	C	-0.782233	1.451863	-0.220322
C18	C	-0.832743	1.599119	-0.242641
C19	C	-0.752264	1.741949	-0.264295
C20	C	-0.621275	1.737523	-0.263629
C21	C	-0.722293	2.032020	-0.308271
C22	C	-0.591304	2.027614	-0.307615
C23	C	-0.772803	2.179276	-0.330591
C24	C	-0.692322	2.322111	-0.352258
C25	C	-0.561327	2.317694	-0.351590
C26	C	-0.510824	2.170444	-0.329269
C27	C	0.057818	1.893875	-0.287341
C28	C	0.197228	1.889190	-0.286618
C29	C	-0.162602	2.176087	-0.330160
C30	C	-0.165072	2.353057	-0.356999
N31	N	-0.134723	1.931303	-0.749285
N32	N	-0.208831	1.838258	0.177353
H33	H	-0.155462	1.434140	-0.499192
O34	O	-0.191223	1.309097	-0.026541
H35	H	-0.187236	1.182282	-0.034287
H36	H	-0.939403	1.602695	-0.243162
H37	H	-0.464110	1.586676	-0.240763
O38	O	-0.034530	2.057136	-0.867993
H39	H	-0.053300	2.178030	-0.851034
H40	H	-0.610106	1.327558	-0.201475
H41	H	-0.847761	1.335557	-0.202683
O42	O	-0.914079	2.184050	-0.331337
H43	H	-0.961557	2.059998	-0.312557
H44	H	-0.733461	2.441993	-0.370404
O45	O	-0.474522	2.471749	-0.374958
H46	H	-0.531656	2.574876	-0.390604
H47	H	-0.404169	2.166833	-0.328721
O48	O	-0.309009	1.712408	-0.703964
H49	H	-0.306211	1.715874	-0.560853
