data_functionalizedCrystal
_audit_creation_method	'MofGen! by Chris Wilmer'
_symmetry_space_group_name_H-M	'P1'
_symmetry_Int_Tables_number	1
_symmetry_cell_setting	triclinic
loop_
_symmetry_equiv_pos_as_xyz
  x,y,z
_cell_length_a	18.760487
_cell_length_b	20.875641
_cell_length_c	18.760492
_cell_angle_alpha	122.411565
_cell_angle_beta	89.968331
_cell_angle_gamma	62.461161
loop_
_atom_site_label
_atom_site_type_symbol
_atom_site_fract_x
_atom_site_fract_y
_atom_site_fract_z
Zr1	Zr	0.715327	0.702108	0.121727
O2	O	0.606976	0.835927	0.241065
O3	O	0.744757	0.568290	0.081362
O4	O	0.750225	0.702108	0.235521
O5	O	0.601500	0.702109	-0.030397
O6	O	0.867528	0.702108	0.235449
O7	O	0.601508	0.702108	0.086906
O8	O	0.857747	0.462731	-0.040314
O9	O	0.611281	0.941485	0.245366
O10	O	0.849423	0.623331	0.068661
O11	O	0.761876	0.623331	-0.018827
O12	O	0.768313	0.780885	0.162676
O13	O	0.680766	0.780886	0.075188
Zr14	Zr	0.902399	0.702109	-0.065473
Zr15	Zr	0.902411	0.702108	0.121611
Zr16	Zr	0.715315	0.702109	-0.065357
Zr17	Zr	0.722193	0.870462	0.128586
Zr18	Zr	0.895532	0.533755	-0.072332
O19	O	0.872969	0.835927	-0.025108
O20	O	0.872986	0.835926	0.240901
O21	O	0.606959	0.835928	-0.024944
O22	O	1.010750	0.568290	-0.184811
O23	O	1.010767	0.568289	0.081198
O24	O	0.744740	0.568290	-0.184647
O25	O	1.016225	0.702108	0.086651
O26	O	0.867501	0.702109	-0.179267
O27	O	0.750198	0.702109	-0.179195
O28	O	1.016218	0.702108	-0.030652
O29	O	0.759988	0.941485	0.245275
O30	O	0.857737	0.462732	-0.189020
O31	O	1.006445	0.462732	-0.189112
O32	O	1.006454	0.462731	-0.040405
O33	O	0.611272	0.941486	0.096659
O34	O	0.759979	0.941486	0.096568
O35	O	0.849412	0.623332	-0.106422
O36	O	0.936960	0.623331	-0.018934
O37	O	0.855850	0.780885	0.075081
O38	O	0.768302	0.780886	-0.012407
C39	C	0.800274	0.491524	0.019547
C40	C	0.797358	0.420053	0.016635
C41	C	0.841685	0.386476	0.060934
C42	C	0.838948	0.319317	0.058190
C43	C	0.791879	0.285741	0.011150
C44	C	0.747551	0.319321	-0.033155
C45	C	0.750293	0.386474	-0.030415
C46	C	0.778782	0.084897	-0.001946
C47	C	0.776040	0.017741	-0.004680
C48	C	0.867440	0.017741	0.086663
C49	C	0.870174	0.084899	0.089403
C50	C	0.825849	0.118470	0.045094
N51	N	0.789078	0.217096	0.008346
N52	N	0.828655	0.187109	0.047894
C53	C	0.574849	0.702109	0.028271
C54	C	0.495426	0.702109	0.028320
C55	C	0.117271	0.784353	0.077050
C56	C	0.201956	0.619864	-0.021103
C57	C	0.276578	0.619863	-0.021028
C58	C	0.271549	0.702108	0.028088
C59	C	0.191899	0.784355	0.077129
C60	C	0.356233	0.537617	-0.070061
C61	C	0.430861	0.537613	-0.069987
C62	C	0.425833	0.619859	-0.020876
C63	C	0.346177	0.702109	0.028166
C64	C	0.341148	0.784354	0.077282
C65	C	0.261492	0.866605	0.126320
C66	C	0.186871	0.866601	0.126240
C67	C	0.500455	0.619864	-0.020796
C68	C	0.415776	0.784356	0.077361
C69	C	1.042877	0.702108	0.027983
C70	C	1.122299	0.702108	0.027934
C71	C	0.808878	0.702108	0.262141
C72	C	0.808883	0.702107	0.341563
C73	C	0.817452	0.912693	0.036707
C74	C	0.820367	0.984164	0.039619
C75	C	0.851205	0.619862	0.628301
C76	C	0.766525	0.784351	0.726450
C77	C	0.766529	0.784353	0.651830
C78	C	0.808871	0.702108	0.565441
C79	C	0.851209	0.619861	0.553672
C80	C	0.724185	0.866598	0.663592
C81	C	0.724187	0.866603	0.588968
C82	C	0.766535	0.784357	0.502578
C83	C	0.808875	0.702107	0.490812
C84	C	0.851217	0.619862	0.404423
C85	C	0.893563	0.537611	0.392655
C86	C	0.893557	0.537615	0.467282
C87	C	0.766541	0.784353	0.427951
C88	C	0.851220	0.619861	0.329794
C89	C	0.808853	0.702109	0.794113
C90	C	0.808863	0.702107	0.714690
C91	C	1.034288	0.491523	0.019403
C92	C	1.110795	0.420053	0.016442
C93	C	0.800259	0.491524	-0.214467
C94	C	0.797338	0.420054	-0.296801
C95	C	1.034273	0.491524	-0.214611
C96	C	1.110775	0.420054	-0.296994
C97	C	0.583453	0.912693	0.270865
C98	C	0.506951	0.984163	0.353248
C99	C	0.583438	0.912694	0.036851
C100	C	0.506931	0.984164	0.039812
C101	C	0.817467	0.912693	0.270721
C102	C	0.820387	0.984163	0.353055
C103	C	1.101031	0.386489	0.060783
C104	C	1.172910	0.319344	0.058019
C105	C	1.254554	0.285759	0.010908
C106	C	1.264317	0.319329	-0.033435
C107	C	1.192438	0.386478	-0.030665
C108	C	0.841660	0.386491	-0.381198
C109	C	0.838913	0.319346	-0.458566
C110	C	0.791849	0.285762	-0.451536
C111	C	0.747522	0.319331	-0.367130
C112	C	0.750265	0.386479	-0.289763
C113	C	1.192408	0.386490	-0.290014
C114	C	1.264297	0.319346	-0.367414
C115	C	1.254552	0.285761	-0.451793
C116	C	1.172910	0.319331	-0.458771
C117	C	1.101023	0.386479	-0.381371
C118	C	0.425318	1.017735	0.346268
C119	C	0.353430	1.084900	0.423669
C120	C	0.363175	1.118488	0.508048
C121	C	0.444817	1.084914	0.515026
C122	C	0.516703	1.017754	0.437626
C123	C	0.516696	1.017735	-0.004521
C124	C	0.444816	1.084898	-0.001735
C125	C	0.363173	1.118486	0.045378
C126	C	0.353410	1.084912	0.089717
C127	C	0.425289	1.017755	0.086936
C128	C	0.867459	1.017726	0.345996
C129	C	0.870220	1.084871	0.423350
C130	C	0.825903	1.118456	0.507762
C131	C	0.778829	1.084886	0.514819
C132	C	0.776074	1.017738	0.437466
H133	H	0.875043	0.291978	0.094261
H134	H	0.304633	1.173174	0.571065
Cl135	Cl	0.670944	0.970002	0.603768
Cl136	Cl	0.619324	0.975552	0.446416
H137	H	0.495713	0.470639	-0.109915
Cl138	Cl	0.086733	0.969992	0.187883
Cl139	Cl	1.160617	0.277152	0.113764
Cl140	Cl	0.412998	0.975554	0.142669
Cl141	Cl	0.713316	0.887745	0.442743
H142	H	0.286927	1.112269	0.128077
Cl143	Cl	0.723112	1.127125	0.620945
Cl144	Cl	0.413044	0.975523	0.240201
Cl145	Cl	1.204682	0.428703	-0.183947
H146	H	0.565307	0.552896	-0.060729
Cl147	Cl	0.716883	0.975560	0.446356
Cl148	Cl	0.998402	0.428700	0.120020
Cl149	Cl	0.723062	0.127088	-0.057653
H150	H	0.732048	0.851312	0.796790
Cl151	Cl	0.929396	1.127065	0.414458
Cl152	Cl	0.250805	1.127091	0.414877
H153	H	0.737707	-0.009593	-0.042985
Cl154	Cl	0.255182	0.969995	0.188064
H155	H	0.452742	1.112270	0.583737
Cl156	Cl	1.344908	0.201341	0.007432
H157	H	1.034556	0.413798	-0.387067
Cl158	Cl	0.688391	0.277099	-0.092305
H159	H	1.330800	0.291975	-0.071791
H160	H	0.714195	0.413814	-0.066486
H161	H	1.164988	0.291977	-0.527483
Cl162	Cl	1.204728	0.428657	-0.086422
Cl163	Cl	0.900835	0.428695	-0.390059
Cl164	Cl	1.366922	0.277153	-0.358621
Cl165	Cl	0.904459	0.516460	0.221193
H166	H	1.313094	0.231085	-0.514809
H167	H	0.828153	1.173133	0.570741
Cl168	Cl	0.894647	0.277155	-0.564664
H169	H	0.583167	0.990393	-0.042892
H170	H	0.885685	0.552895	0.618724
H171	H	0.789623	0.231086	-0.514540
Cl172	Cl	0.457109	1.127087	-0.057485
H173	H	0.880010	0.413813	0.099244
H174	H	0.304652	1.173170	0.047636
H175	H	0.903548	0.990392	0.277270
H176	H	0.908501	0.112235	0.127707
H177	H	0.903528	-0.009600	0.122737
H178	H	0.689711	0.933558	0.733932
H179	H	0.052413	0.851320	0.116972
H180	H	0.411671	0.851331	0.117348
H181	H	0.714175	0.413798	-0.221047
Cl182	Cl	0.362548	0.434231	-0.131799
Cl183	Cl	0.208273	0.516476	-0.082840
Cl184	Cl	0.946777	0.434224	0.452498
Cl185	Cl	0.946783	0.434221	0.284046
H186	H	0.709204	0.291977	-0.361419
