data_functionalizedCrystal
_audit_creation_method	'MofGen! by Chris Wilmer'
_symmetry_space_group_name_H-M	'P1'
_symmetry_Int_Tables_number	1
_symmetry_cell_setting	triclinic
loop_
_symmetry_equiv_pos_as_xyz
  x,y,z
_cell_length_a	15.298068
_cell_length_b	12.594516
_cell_length_c	15.296720
_cell_angle_alpha	99.650531
_cell_angle_beta	88.354818
_cell_angle_gamma	99.676660
loop_
_atom_site_label
_atom_site_type_symbol
_atom_site_fract_x
_atom_site_fract_y
_atom_site_fract_z
Zn1	Zn	1.253404	-0.316635	-0.727389
Zn2	Zn	1.278677	-0.459584	-0.580931
Zn3	Zn	1.132283	-0.306292	-0.555555
Zn4	Zn	1.106911	-0.519253	-0.701959
O5	O	1.192819	-0.400441	-0.641458
O6	O	1.379330	-0.314953	-0.729223
O7	O	1.280453	-0.409949	-0.455001
O8	O	1.148391	-0.158715	-0.578371
O9	O	1.397899	-0.419977	-0.621621
O10	O	1.237378	-0.166313	-0.704617
O11	O	1.172897	-0.297326	-0.436357
O12	O	1.006343	-0.355186	-0.553713
O13	O	1.105148	-0.521676	-0.827896
O14	O	0.987702	-0.511647	-0.661275
O15	O	1.212776	-0.372813	-0.846579
O16	O	1.255851	-0.616449	-0.596963
O17	O	1.129655	-0.660288	-0.685882
C18	C	0.965240	-0.438770	-0.601982
C19	C	0.867878	-0.455198	-0.585114
C20	C	0.554700	-0.283295	-0.762014
C21	C	0.646176	-0.267865	-0.777867
C22	C	0.701606	-0.314696	-0.729680
C23	C	0.665551	-0.376962	-0.665638
C24	C	0.574065	-0.392401	-0.649788
C25	C	0.720971	-0.423802	-0.617454
C26	C	0.684916	-0.486068	-0.553412
C27	C	0.593439	-0.501504	-0.537565
C28	C	0.538009	-0.454672	-0.585752
C29	C	0.812457	-0.408363	-0.633304
C30	C	0.831822	-0.517469	-0.521078
C31	C	0.740346	-0.532899	-0.505225
C32	C	1.192763	-0.676990	-0.641440
C33	C	1.192814	-0.795292	-0.641475
C34	C	1.124177	-0.888419	-0.689796
C35	C	1.116676	-0.943739	-0.606179
C36	C	1.200392	-0.950760	-0.725119
C37	C	1.185278	-0.849051	-0.557809
C38	C	1.269022	-0.856072	-0.676808
C39	C	1.261561	-0.911342	-0.593142
C40	C	1.421285	-0.361963	-0.681089
C41	C	1.518644	-0.345566	-0.697978
C42	C	1.153313	-0.455054	-0.869906
C43	C	1.136478	-0.478327	-0.967256
C44	C	1.192895	-0.122813	-0.641500
C45	C	1.192928	-0.004504	-0.641518
C46	C	1.313174	-0.233915	-1.280583
C47	C	1.328996	-0.212050	-1.189118
C48	C	1.280868	-0.278617	-1.133648
C49	C	1.216914	-0.367053	-1.169652
C50	C	1.201095	-0.388926	-1.261126
C51	C	1.168789	-0.433627	-1.114192
C52	C	1.104835	-0.522064	-1.150196
C53	C	1.089018	-0.543932	-1.241662
C54	C	1.137147	-0.477365	-1.297131
C55	C	1.184609	-0.411755	-1.022717
C56	C	1.072530	-0.566766	-1.003261
C57	C	1.056707	-0.588631	-1.094726
C58	C	1.232221	-0.345955	-0.413908
C59	C	1.249226	-0.322354	-0.316587
H60	H	0.509561	-0.245179	-0.801246
N61	N	0.987726	-0.684001	-1.133575
H62	H	1.016739	-0.736406	-1.177697
H63	H	0.959646	-0.722775	-1.084515
H64	H	1.381070	-0.140047	-1.159810
H65	H	1.206757	-0.994927	-0.795838
H66	H	1.352358	-0.179731	-1.325754
H67	H	1.052281	-0.981994	-0.576324
H68	H	1.236680	-0.339749	-0.993412
N69	N	0.800267	-0.298038	-0.746791
H70	H	0.832687	-0.260276	-0.690560
H71	H	0.819462	-0.371223	-0.766634
N72	N	1.120056	-0.500926	-1.395781
H73	H	1.160240	-0.445325	-1.425452
H74	H	1.132300	-0.576522	-1.420546
H75	H	1.036950	-0.615950	-1.270974
H76	H	1.293755	-0.260809	-1.059174
H77	H	1.033341	-0.620972	-0.958098
H78	H	0.841804	-0.357664	-0.685447
H79	H	0.463520	-0.467241	-0.572854
H80	H	0.675525	-0.217172	-0.830013
H81	H	0.710976	-0.583598	-0.453081
N82	N	0.554544	-0.568665	-0.468497
H83	H	0.568126	-0.645281	-0.484748
H84	H	0.581284	-0.534284	-0.408725
N85	N	0.891595	-0.567990	-0.469102
H86	H	0.955018	-0.548759	-0.488857
H87	H	0.886406	-0.539058	-0.403800
H88	H	1.319663	-0.921979	-0.552240
N89	N	1.047200	-0.874034	-0.743814
H90	H	0.989712	-0.906126	-0.717024
H91	H	1.048104	-0.793676	-0.743865
N92	N	1.354294	-0.805412	-0.716395
H93	H	1.359916	-0.842814	-0.779596
H94	H	1.353796	-0.725147	-0.715481
N95	N	1.176751	-0.790740	-0.464087
H96	H	1.176734	-0.710668	-0.464651
H97	H	1.119455	-0.823509	-0.437371
