data_functionalizedCrystal
_audit_creation_method	'MofGen! by Chris Wilmer'
_symmetry_space_group_name_H-M	'P1'
_symmetry_Int_Tables_number	1
_symmetry_cell_setting	triclinic
loop_
_symmetry_equiv_pos_as_xyz
  x,y,z
_cell_length_a	18.101398
_cell_length_b	18.101397
_cell_length_c	17.077396
_cell_angle_alpha	89.966723
_cell_angle_beta	89.977519
_cell_angle_gamma	90.015732
loop_
_atom_site_label
_atom_site_type_symbol
_atom_site_fract_x
_atom_site_fract_y
_atom_site_fract_z
Zn1	Zn	1.132162	-0.294911	-0.443939
Zn2	Zn	1.632162	0.205089	0.056061
Zn3	Zn	1.132085	-0.418763	-0.312665
Zn4	Zn	1.632085	0.081237	0.187335
Zn5	Zn	1.008325	-0.294930	-0.312674
Zn6	Zn	1.508325	0.205070	0.187326
Zn7	Zn	1.008295	-0.418705	-0.443877
Zn8	Zn	1.508295	0.081295	0.056123
O9	O	1.070217	-0.356828	-0.378289
O10	O	1.570217	0.143172	0.121711
O11	O	1.235785	-0.311357	-0.426547
O12	O	1.735785	0.188643	0.073453
O13	O	1.115648	-0.402369	-0.202820
O14	O	1.615648	0.097631	0.297180
O15	O	1.024797	-0.191295	-0.330117
O16	O	1.524797	0.308705	0.169883
O17	O	1.235728	-0.402351	-0.330101
O18	O	1.735728	0.097649	0.169899
O19	O	1.115780	-0.191281	-0.426556
O20	O	1.615780	0.308719	0.073444
O21	O	1.024723	-0.311389	-0.202826
O22	O	1.524723	0.188611	0.297174
O23	O	0.904688	-0.311333	-0.330056
O24	O	1.404688	0.188667	0.169944
O25	O	1.024746	-0.402252	-0.553732
O26	O	1.524746	0.097748	-0.053732
O27	O	0.904666	-0.402270	-0.426450
O28	O	1.404666	0.097730	0.073550
O29	O	1.115751	-0.311301	-0.553778
O30	O	1.615751	0.188699	-0.053778
O31	O	1.115619	-0.522389	-0.330041
O32	O	1.615619	-0.022389	0.169959
O33	O	1.024671	-0.522346	-0.426441
O34	O	1.524671	-0.022346	0.073559
C35	C	0.877806	-0.356797	-0.378248
C36	C	1.377806	0.143203	0.121752
C37	C	0.795492	-0.356802	-0.378249
C38	C	1.295492	0.143198	0.121751
C39	C	0.496401	-0.356849	-0.378315
C40	C	0.996401	0.143151	0.121685
C41	C	0.527716	-0.299347	-0.317962
C42	C	1.027716	0.200653	0.182038
C43	C	0.613334	-0.299502	-0.317705
C44	C	1.113334	0.200498	0.182295
C45	C	0.644784	-0.356825	-0.378282
C46	C	1.144784	0.143175	0.121718
C47	C	0.613681	-0.434838	-0.355675
C48	C	1.113681	0.065162	0.144325
C49	C	0.528036	-0.434518	-0.355256
C50	C	1.028036	0.065482	0.144744
C51	C	0.528010	-0.337016	-0.461416
C52	C	1.028010	0.162984	0.038584
C53	C	0.613660	-0.335278	-0.460963
C54	C	1.113660	0.164722	0.039037
C55	C	0.728643	-0.356817	-0.378265
C56	C	1.228643	0.143183	0.121735
C57	C	0.412542	-0.356862	-0.378330
C58	C	0.912542	0.143138	0.121670
C59	C	1.070154	-0.549238	-0.378251
C60	C	1.570154	-0.049238	0.121749
C61	C	1.070194	-0.631552	-0.378261
C62	C	1.570194	-0.131552	0.121739
C63	C	1.070289	-0.930643	-0.378332
C64	C	1.570289	-0.430643	0.121668
C65	C	1.127351	-0.899314	-0.317517
C66	C	1.627351	-0.399314	0.182483
C67	C	1.127549	-0.813695	-0.317675
C68	C	1.627549	-0.313695	0.182325
C69	C	1.070242	-0.782261	-0.378296
C70	C	1.570242	-0.282261	0.121704
C71	C	1.091395	-0.813266	-0.461040
C72	C	1.591395	-0.313266	0.038960
C73	C	1.091837	-0.898911	-0.460708
C74	C	1.591837	-0.398911	0.039292
C75	C	0.991921	-0.899147	-0.357120
C76	C	1.491921	-0.399147	0.142880
C77	C	0.992308	-0.813497	-0.355273
C78	C	1.492308	-0.313497	0.144727
C79	C	1.070214	-0.698401	-0.378281
C80	C	1.570214	-0.198401	0.121719
C81	C	1.070318	-1.014503	-0.378353
C82	C	1.570318	-0.514503	0.121647
C83	C	1.263379	-0.356858	-0.378330
C84	C	1.763379	0.143142	0.121670
C85	C	1.345693	-0.356871	-0.378348
C86	C	1.845693	0.143129	0.121652
C87	C	1.070253	-0.356768	-0.583033
C88	C	1.570253	0.143232	-0.083033
C89	C	1.070269	-0.356742	-0.670283
C90	C	1.570269	0.143258	-0.170283
C91	C	1.070301	-0.163666	-0.378344
C92	C	1.570301	0.336334	0.121656
C93	C	1.070336	-0.081352	-0.378368
C94	C	1.570336	0.418648	0.121632
C95	C	1.117681	-0.404029	-1.046097
C96	C	1.617681	0.095971	-0.546097
C97	C	1.117663	-0.404051	-0.964116
C98	C	1.617663	0.095949	-0.464116
C99	C	1.070317	-0.356690	-0.923132
C100	C	1.570317	0.143310	-0.423132
C101	C	1.022981	-0.309309	-0.964133
C102	C	1.522981	0.190691	-0.464133
C103	C	1.022997	-0.309292	-1.046112
C104	C	1.522997	0.190708	-0.546112
C105	C	1.022953	-0.309348	-0.793263
C106	C	1.522953	0.190652	-0.293263
C107	C	1.022939	-0.309364	-0.711278
C108	C	1.522939	0.190636	-0.211278
C109	C	1.117620	-0.404106	-0.711267
C110	C	1.617620	0.095894	-0.211267
C111	C	1.117635	-0.404089	-0.793246
C112	C	1.617635	0.095911	-0.293246
C113	C	1.070300	-0.356707	-0.834241
C114	C	1.570300	0.143293	-0.334241
C115	C	1.070223	-0.356834	-0.174341
C116	C	1.570223	0.143166	0.325659
C117	C	1.070351	-0.356651	-0.087092
C118	C	1.570351	0.143349	0.412908
H119	H	0.634052	-0.478828	-0.398257
H120	H	1.134052	0.021172	0.101743
Br121	Br	1.185802	-0.777428	-0.491497
Br122	Br	1.685802	-0.277428	0.008503
H123	H	0.947505	-0.792106	-0.396323
H124	H	1.447505	-0.292106	0.103677
Br125	Br	0.958734	-0.245023	-0.908513
Br126	Br	1.458734	0.254977	-0.408513
Br127	Br	0.965716	-0.779731	-0.253783
Br128	Br	1.465716	-0.279731	0.246217
Br129	Br	0.958724	-0.245032	-0.848898
Br130	Br	1.458724	0.254968	-0.348898
H131	H	0.507134	-0.241321	-0.331977
H132	H	1.007134	0.258679	0.168023
Br133	Br	1.105436	-0.778756	-0.215430
Br134	Br	1.605436	-0.278756	0.284570
H135	H	1.156161	-0.442686	-0.677885
H136	H	1.656161	0.057314	-0.177885
H137	H	0.633792	-0.312613	-0.256128
H138	H	1.133792	0.187387	0.243872
Br139	Br	0.649340	-0.399998	-0.539932
Br140	Br	1.149340	0.100002	-0.039932
H141	H	0.635101	-0.451948	-0.295580
H142	H	1.135101	0.048052	0.204420
Br143	Br	1.187312	-0.932122	-0.490655
Br144	Br	1.687312	-0.432122	0.009345
H145	H	0.506427	-0.281119	-0.481970
H146	H	1.006427	0.218881	0.018030
H147	H	0.506171	-0.312311	-0.256744
H148	H	1.006171	0.187689	0.243256
Br149	Br	0.494685	-0.462550	-0.254000
Br150	Br	0.994685	0.037450	0.246000
H151	H	0.507321	-0.478812	-0.397296
H152	H	1.007321	0.021188	0.102704
H153	H	0.633993	-0.277870	-0.478009
H154	H	1.133993	0.222130	0.021991
H155	H	0.634363	-0.241652	-0.331876
H156	H	1.134363	0.258348	0.168124
Br157	Br	0.958762	-0.244988	-1.101749
Br158	Br	1.458762	0.255012	-0.601749
Br159	Br	1.024236	-0.779338	-0.538596
Br160	Br	1.524236	-0.279338	-0.038596
H161	H	1.156240	-0.442592	-1.079460
H162	H	1.656240	0.057408	-0.579460
H163	H	1.156195	-0.442640	-0.930742
H164	H	1.656195	0.057360	-0.430742
H165	H	0.507760	-0.378897	-0.506385
H166	H	1.007760	0.121103	-0.006385
H167	H	1.114277	-0.919959	-0.255981
H168	H	1.614277	-0.419959	0.244019
Br169	Br	1.223580	-0.935098	-0.340638
Br170	Br	1.723580	-0.435098	0.159362
H171	H	1.185600	-0.793156	-0.331711
H172	H	1.685600	-0.293156	0.168289
Br173	Br	1.181894	-0.468361	-0.848867
Br174	Br	1.681894	0.031639	-0.348867
Br175	Br	1.025564	-0.933453	-0.538797
Br176	Br	1.525564	-0.433453	-0.038797
H177	H	0.984388	-0.270796	-0.677911
H178	H	1.484388	0.229204	-0.177911
H179	H	0.949405	-0.919407	-0.401414
H180	H	1.449405	-0.419407	0.098586
Br181	Br	0.959843	-0.935252	-0.258299
Br182	Br	1.459843	-0.435252	0.241701
