data_functionalizedCrystal
_audit_creation_method	'MofGen! by Chris Wilmer'
_symmetry_space_group_name_H-M	'P1'
_symmetry_Int_Tables_number	1
_symmetry_cell_setting	triclinic
loop_
_symmetry_equiv_pos_as_xyz
  x,y,z
_cell_length_a	23.532361
_cell_length_b	23.532407
_cell_length_c	9.730223
_cell_angle_alpha	89.994043
_cell_angle_beta	90.004093
_cell_angle_gamma	82.839173
loop_
_atom_site_label
_atom_site_type_symbol
_atom_site_fract_x
_atom_site_fract_y
_atom_site_fract_z
O1	O	0.755273	0.069006	-0.114166
O2	O	0.589406	0.079037	-0.114201
O3	O	0.677342	-0.008911	-0.114157
O4	O	0.667338	0.156954	-0.114210
O5	O	0.677341	-0.008909	0.114423
O6	O	0.589405	0.079039	0.114379
O7	O	0.755272	0.069008	0.114414
Zn8	Zn	0.672339	0.074024	0.150689
Zn9	Zn	0.672340	0.074021	-0.150475
O10	O	0.667337	0.156956	0.114370
C11	C	0.568189	0.078787	0.000085
C12	C	0.504971	0.078032	0.000073
C13	C	0.231728	0.074727	-0.124517
C14	C	0.291127	0.075442	-0.124520
O15	O	0.321854	0.075791	-0.230485
N16	N	0.320832	0.075804	0.000079
C17	C	0.291136	0.075446	0.124690
O18	O	0.321856	0.075819	0.230671
C19	C	0.231737	0.074727	0.124692
C20	C	0.202035	0.074370	0.000085
C21	C	0.202025	0.074370	-0.249114
C22	C	0.142629	0.073656	-0.249110
C23	C	0.112936	0.073299	-0.124509
C24	C	0.142639	0.073657	0.000089
C25	C	0.202042	0.074364	0.249302
C26	C	0.142640	0.073645	0.249293
C27	C	0.112937	0.073288	0.124686
C28	C	0.053550	0.072586	0.124694
N29	N	0.023845	0.072224	0.000095
C30	C	0.053538	0.072580	-0.124506
C31	C	0.415876	0.076955	0.124676
C32	C	0.475272	0.077678	0.124675
C33	C	0.475260	0.077673	-0.124536
C34	C	0.415862	0.076954	-0.124534
C35	C	0.386171	0.076593	0.000077
C36	C	-0.071198	0.071082	-0.124488
C37	C	-0.130599	0.070370	-0.124473
C38	C	-0.130581	0.070372	0.124737
C39	C	-0.071186	0.071087	0.124723
C40	C	-0.041495	0.071440	0.000099
O41	O	0.022786	0.072234	0.230605
O42	O	0.022811	0.072199	-0.230470
C43	C	0.677086	-0.030126	0.000136
C44	C	0.676320	-0.093343	0.000147
C45	C	0.723555	-0.492454	0.000081
C46	C	0.722844	-0.551854	0.000071
O47	O	0.766630	-0.588606	0.000029
N48	N	0.670566	-0.574471	0.000061
C49	C	0.618997	-0.537685	0.000047
O50	O	0.574465	-0.562377	0.000037
C51	C	0.619709	-0.478286	0.000048
C52	C	0.671990	-0.455672	0.000072
C53	C	0.775832	-0.469839	0.000104
C54	C	0.776543	-0.410443	0.000117
C55	C	0.724977	-0.373662	0.000108
C56	C	0.672701	-0.396276	0.000085
C57	C	0.568140	-0.441501	0.000025
C58	C	0.568857	-0.382099	0.000025
C59	C	0.621137	-0.359485	0.000048
C60	C	0.621847	-0.300099	0.000089
N61	N	0.674124	-0.277481	0.000099
C62	C	0.725690	-0.314263	0.000108
C63	C	0.617505	-0.662427	0.000043
C64	C	0.616793	-0.721825	0.000052
C65	C	0.720640	-0.735990	0.000073
C66	C	0.721352	-0.676591	0.000074
C67	C	0.669783	-0.639810	0.000053
C68	C	0.727179	-0.189526	0.000137
C69	C	0.727886	-0.130124	0.000156
C70	C	0.624039	-0.115965	0.000128
C71	C	0.623332	-0.175361	0.000116
C72	C	0.674907	-0.212141	0.000116
O73	O	0.578083	-0.263312	0.000125
O74	O	0.770214	-0.289562	0.000101
C75	C	0.776489	0.069258	0.000125
C76	C	0.839708	0.070014	0.000128
C77	C	0.667592	0.178171	0.000074
C78	C	0.668358	0.241388	0.000054
N79	N	0.672342	0.074026	0.356225
N80	N	0.672341	0.074015	-0.356012
C81	C	0.711289	0.035095	0.428170
C82	C	0.711288	0.035088	0.572053
C83	C	0.633390	0.112947	0.572033
C84	C	0.633389	0.112951	0.428152
C85	C	0.756265	-0.009854	0.428183
C86	C	0.756264	-0.009861	0.572066
H87	H	-0.047031	0.071370	-0.225969
O88	O	0.110501	0.073331	0.383552
H89	H	0.127102	0.034674	0.443527
H90	H	0.118451	0.073363	-0.350578
O91	O	-0.162640	0.069983	-0.258871
H92	H	-0.184407	0.030837	-0.264800
H93	H	0.226195	0.074658	-0.350585
O94	O	0.560402	-0.746209	0.000045
H95	H	0.557589	-0.772934	0.093213
H96	H	0.226216	0.074653	0.350771
O97	O	-0.162791	0.070271	0.258927
H98	H	-0.184699	0.031222	0.265173
O99	O	0.507305	0.078081	0.259071
H100	H	0.476672	0.077714	0.345707
H101	H	0.747169	-0.053493	0.389141
O102	O	0.513232	-0.342431	0.000017
H103	H	0.511067	-0.315025	-0.093147
H104	H	0.391704	0.076668	0.226155
O105	O	0.810778	0.007723	0.369052
H106	H	0.832262	-0.027598	0.304863
H107	H	0.743019	-0.051032	0.616692
O108	O	0.383828	0.076552	-0.258928
H109	H	0.414462	0.076913	-0.345564
O110	O	0.784276	-0.105732	0.000160
H111	H	0.820012	-0.141292	0.000144
H112	H	0.582056	-0.086007	0.000125
O113	O	-0.039143	0.071473	0.259115
H114	H	-0.069772	0.071103	0.345757
H115	H	0.769176	-0.219466	0.000132
O116	O	0.832931	-0.386055	0.000103
H117	H	0.868663	-0.421618	0.000085
O118	O	0.831456	-0.509502	0.000130
H119	H	0.833632	-0.536900	-0.093036
H120	H	0.763923	-0.658183	0.000092
H121	H	0.499447	0.077963	-0.225993
O122	O	0.776260	-0.775667	0.000069
H123	H	0.766977	-0.820768	0.000048
H124	H	0.575509	-0.632483	0.000038
O125	O	0.814053	0.002227	0.623822
H126	H	0.842344	0.008156	0.535053
H127	H	0.525567	-0.459902	-0.000003
O128	O	0.566946	-0.199758	0.000095
H129	H	0.531209	-0.164200	0.000085
H130	H	0.601670	0.144646	0.369576
H131	H	0.601675	0.144639	0.630612
