data_functionalizedCrystal
_audit_creation_method	'MofGen! by Chris Wilmer'
_symmetry_space_group_name_H-M	'P1'
_symmetry_Int_Tables_number	1
_symmetry_cell_setting	triclinic
loop_
_symmetry_equiv_pos_as_xyz
  x,y,z
_cell_length_a	13.339070
_cell_length_b	16.109301
_cell_length_c	15.186229
_cell_angle_alpha	90.005167
_cell_angle_beta	89.996148
_cell_angle_gamma	80.454613
loop_
_atom_site_label
_atom_site_type_symbol
_atom_site_fract_x
_atom_site_fract_y
_atom_site_fract_z
O1	O	1.342144	-0.416773	-0.073272
O2	O	1.047635	-0.362069	-0.073265
O3	O	1.202980	-0.270258	-0.073259
O4	O	1.186799	-0.508584	-0.073277
O5	O	1.202969	-0.270254	0.073198
O6	O	1.047624	-0.362065	0.073192
O7	O	1.342133	-0.416769	0.073186
Zn8	Zn	1.194877	-0.389416	0.096442
Zn9	Zn	1.194891	-0.389422	-0.096521
O10	O	1.186788	-0.508580	0.073180
C11	C	1.009943	-0.352827	-0.000035
C12	C	0.897651	-0.325282	-0.000032
C13	C	1.202319	-0.239130	-0.000030
C14	C	1.200354	-0.146381	-0.000029
N15	N	1.194875	-0.389414	0.228135
C16	C	0.532787	-0.539450	-0.000062
C17	C	0.638291	-0.565332	-0.000068
C18	C	0.703136	-0.505322	-0.000059
C19	C	0.662467	-0.419426	-0.000045
C20	C	0.556952	-0.393541	-0.000046
C21	C	0.727301	-0.359413	-0.000042
C22	C	0.686632	-0.273517	-0.000028
C23	C	0.581127	-0.247637	-0.000029
C24	C	0.516283	-0.307647	-0.000038
C25	C	0.832816	-0.385297	-0.000041
C26	C	0.856981	-0.239388	-0.000025
C27	C	0.751477	-0.213506	-0.000019
C28	C	1.379825	-0.426012	-0.000046
C29	C	1.492117	-0.453556	-0.000054
C30	C	1.187449	-0.539708	-0.000051
C31	C	1.189414	-0.632457	-0.000058
C32	C	1.287963	0.055662	-0.000045
C33	C	1.286109	0.142810	-0.000052
C34	C	1.101798	0.165494	-0.000045
C35	C	1.103653	0.078347	-0.000044
C36	C	1.196739	0.023433	-0.000039
C37	C	1.193029	0.197729	-0.000048
C38	C	1.191018	0.292219	-0.000055
C39	C	1.198750	-0.071064	-0.000033
N40	N	1.194901	-0.389420	-0.228214
C41	C	1.263685	-0.348785	0.453860
C42	C	1.263689	-0.348783	0.546050
C43	C	1.126083	-0.430050	0.546054
C44	C	1.126076	-0.430046	0.453866
C45	C	1.194883	-0.389415	0.407772
C46	C	1.194893	-0.389418	0.592149
C47	C	1.194896	-0.389417	0.692105
C48	C	1.194879	-0.389415	0.307809
H49	H	0.865918	-0.455234	-0.000049
F50	F	0.403990	-0.280105	-0.000030
F51	F	1.383203	0.177106	-0.000060
H52	H	1.363760	0.010952	-0.000043
F53	F	1.002734	0.223945	-0.000050
F54	F	1.336913	-0.305539	0.404807
H55	H	1.029362	0.052108	-0.000042
F56	F	1.336915	-0.305537	0.595098
H57	H	0.909778	-0.190522	-0.000021
F58	F	0.463770	-0.603307	-0.000084
H59	H	1.070044	-0.463132	0.416338
H60	H	0.789042	-0.526400	-0.000065
F61	F	0.537847	-0.156218	-0.000039
F62	F	1.052860	-0.473293	0.595117
H63	H	0.718348	-0.143568	-0.000015
H64	H	0.671396	-0.635268	-0.000086
