data_functionalizedCrystal
_audit_creation_method	'MofGen! by Chris Wilmer'
_symmetry_space_group_name_H-M	'P1'
_symmetry_Int_Tables_number	1
_symmetry_cell_setting	triclinic
loop_
_symmetry_equiv_pos_as_xyz
  x,y,z
_cell_length_a	16.625547
_cell_length_b	18.101397
_cell_length_c	16.625539
_cell_angle_alpha	89.970010
_cell_angle_beta	89.978691
_cell_angle_gamma	90.020402
loop_
_atom_site_label
_atom_site_type_symbol
_atom_site_fract_x
_atom_site_fract_y
_atom_site_fract_z
Zn1	Zn	1.232664	-0.294843	-0.455981
Zn2	Zn	1.732664	0.205157	0.044019
Zn3	Zn	1.232580	-0.418688	-0.321140
Zn4	Zn	1.732580	0.081312	0.178860
Zn5	Zn	1.097834	-0.294865	-0.321151
Zn6	Zn	1.597834	0.205135	0.178849
Zn7	Zn	1.097801	-0.418647	-0.455920
Zn8	Zn	1.597801	0.081353	0.044080
O9	O	1.165220	-0.356761	-0.388548
O10	O	1.665220	0.143239	0.111452
O11	O	1.345485	-0.311279	-0.438115
O12	O	1.845485	0.188721	0.061885
O13	O	1.214684	-0.402289	-0.208309
O14	O	1.714684	0.097711	0.291691
O15	O	1.115768	-0.191229	-0.339067
O16	O	1.615768	0.308771	0.160933
O17	O	1.345423	-0.402268	-0.339048
O18	O	1.845423	0.097732	0.160952
O19	O	1.214827	-0.191213	-0.438126
O20	O	1.714827	0.308787	0.061874
O21	O	1.115687	-0.311316	-0.208317
O22	O	1.615687	0.188684	0.291683
O23	O	0.984997	-0.311277	-0.339008
O24	O	1.484997	0.188723	0.160992
O25	O	1.115712	-0.402198	-0.568760
O26	O	1.615712	0.097802	-0.068760
O27	O	0.984973	-0.402219	-0.438022
O28	O	1.484973	0.097781	0.061978
O29	O	1.214795	-0.311240	-0.568805
O30	O	1.714795	0.188760	-0.068805
O31	O	1.214652	-0.522316	-0.338988
O32	O	1.714652	-0.022316	0.161012
O33	O	1.115631	-0.522286	-0.438010
O34	O	1.615631	-0.022286	0.061990
C35	C	0.955729	-0.356746	-0.388510
C36	C	1.455729	0.143254	0.111490
C37	C	0.866108	-0.356758	-0.388513
C38	C	1.366108	0.143242	0.111487
C39	C	0.793325	-0.356760	-0.388523
C40	C	1.293325	0.143240	0.111477
C41	C	0.702017	-0.356763	-0.388543
C42	C	1.202017	0.143237	0.111457
C43	C	0.629240	-0.356770	-0.388563
C44	C	1.129240	0.143230	0.111437
C45	C	0.537926	-0.356775	-0.388583
C46	C	1.037926	0.143225	0.111417
C47	C	1.165151	-0.549171	-0.388509
C48	C	1.665151	-0.049171	0.111491
C49	C	1.165195	-0.631485	-0.388519
C50	C	1.665195	-0.131485	0.111481
C51	C	1.165298	-0.930576	-0.388593
C52	C	1.665298	-0.430576	0.111407
C53	C	1.227426	-0.899239	-0.326124
C54	C	1.727426	-0.399239	0.173876
C55	C	1.227641	-0.813621	-0.326286
C56	C	1.727641	-0.313621	0.173714
C57	C	1.165247	-0.782194	-0.388556
C58	C	1.665247	-0.282194	0.111444
C59	C	1.188278	-0.813202	-0.473547
C60	C	1.688278	-0.313202	0.026453
C61	C	1.188759	-0.898847	-0.473207
C62	C	1.688759	-0.398847	0.026793
C63	C	1.079973	-0.899085	-0.366805
C64	C	1.579973	-0.399085	0.133195
C65	C	1.080394	-0.813436	-0.364908
C66	C	1.580394	-0.313436	0.135092
C67	C	1.165216	-0.698334	-0.388540
C68	C	1.665216	-0.198334	0.111460
C69	C	1.165330	-1.014436	-0.388614
C70	C	1.665330	-0.514436	0.111386
C71	C	1.375528	-0.356776	-0.388587
C72	C	1.875528	0.143224	0.111413
C73	C	1.465150	-0.356782	-0.388603
C74	C	1.965150	0.143218	0.111397
C75	C	1.165259	-0.356712	-0.598857
C76	C	1.665259	0.143288	-0.098857
C77	C	1.165276	-0.356691	-0.688478
C78	C	1.665276	0.143309	-0.188478
C79	C	1.165311	-0.163599	-0.388605
C80	C	1.665311	0.336401	0.111395
C81	C	1.165350	-0.081285	-0.388629
C82	C	1.665350	0.418715	0.111371
C83	C	1.165289	-0.356675	-0.761261
C84	C	1.665289	0.143325	-0.261261
C85	C	1.165308	-0.356647	-0.852569
C86	C	1.665308	0.143353	-0.352569
C87	C	1.165327	-0.356621	-0.925346
C88	C	1.665327	0.143379	-0.425346
C89	C	1.165347	-0.356594	-1.016660
C90	C	1.665347	0.143406	-0.516660
C91	C	1.165227	-0.356756	-0.179057
C92	C	1.665227	0.143244	0.320943
C93	C	1.165366	-0.356568	-0.089437
C94	C	1.665366	0.143432	0.410563
H95	H	1.213233	-0.792658	-0.263266
H96	H	1.713233	-0.292658	0.236734
C97	C	1.273019	-0.925759	-0.498128
C98	C	1.773019	-0.425759	0.001872
N99	N	1.336486	-0.946025	-0.516896
N100	N	1.836486	-0.446025	-0.016896
H101	H	1.213191	-0.919882	-0.262915
H102	H	1.713191	-0.419882	0.237085
C103	C	1.312343	-0.928255	-0.345362
C104	C	1.812343	-0.428255	0.154638
N105	N	1.376301	-0.950117	-0.359849
N106	N	1.876301	-0.450117	0.140151
H107	H	1.033683	-0.919351	-0.412304
H108	H	1.533683	-0.419351	0.087696
H109	H	1.059020	-0.920745	-0.305904
H110	H	1.559020	-0.420745	0.194096
H111	H	1.290845	-0.793077	-0.340701
H112	H	1.790845	-0.293077	0.159299
C113	C	1.130290	-0.926850	-0.538239
C114	C	1.630290	-0.426850	-0.038239
N115	N	1.086257	-0.947939	-0.587226
N116	N	1.586257	-0.447939	-0.087226
H117	H	1.144410	-0.792843	-0.521344
H118	H	1.644410	-0.292843	-0.021344
H119	H	1.249948	-0.791695	-0.492314
H120	H	1.749948	-0.291695	0.007686
C121	C	1.056925	-0.786057	-0.280415
C122	C	1.556925	-0.286057	0.219585
N123	N	1.039249	-0.765428	-0.216775
N124	N	1.539249	-0.265428	0.283225
H125	H	1.031615	-0.792051	-0.407075
H126	H	1.531615	-0.292051	0.092925
