data_functionalizedCrystal
_audit_creation_method	'MofGen! by Chris Wilmer'
_symmetry_space_group_name_H-M	'P1'
_symmetry_Int_Tables_number	1
_symmetry_cell_setting	triclinic
loop_
_symmetry_equiv_pos_as_xyz
  x,y,z
_cell_length_a	14.446369
_cell_length_b	18.760492
_cell_length_c	14.446369
_cell_angle_alpha	60.000908
_cell_angle_beta	90.000232
_cell_angle_gamma	60.001887
loop_
_atom_site_label
_atom_site_type_symbol
_atom_site_fract_x
_atom_site_fract_y
_atom_site_fract_z
Zr1	Zr	0.891732	0.780263	-0.121546
O2	O	0.743931	0.928961	-0.269345
O3	O	0.937039	0.631559	-0.076234
O4	O	0.937039	0.780261	-0.269351
O5	O	0.743932	0.780263	0.076101
O6	O	1.089368	0.780267	-0.269359
O7	O	0.743931	0.780258	-0.076229
O8	O	1.089368	0.514266	0.076091
O9	O	0.743932	1.046264	-0.269349
O10	O	1.070045	0.692731	-0.056919
O11	O	0.956365	0.692729	0.056769
O12	O	0.956365	0.867807	-0.170601
O13	O	0.842685	0.867805	-0.056913
Zr14	Zr	1.134681	0.780281	0.121390
Zr15	Zr	1.134678	0.780274	-0.121559
Zr16	Zr	0.891734	0.780271	0.121403
Zr17	Zr	0.891734	0.967349	-0.121552
Zr18	Zr	1.134678	0.593195	0.121396
O19	O	1.089374	0.928986	0.076078
O20	O	1.089370	0.928975	-0.269364
O21	O	0.743935	0.928971	0.076097
O22	O	1.282482	0.631583	0.269189
O23	O	1.282478	0.631573	-0.076253
O24	O	0.937043	0.631569	0.269207
O25	O	1.282480	0.780281	-0.076257
O26	O	1.089374	0.780283	0.269195
O27	O	0.937045	0.780277	0.269203
O28	O	1.282482	0.780286	0.076073
O29	O	0.937043	1.046273	-0.269359
O30	O	1.089370	0.514272	0.269203
O31	O	1.282480	0.514280	0.269193
O32	O	1.282478	0.514274	0.076081
O33	O	0.743935	1.046270	-0.076237
O34	O	0.937045	1.046278	-0.076247
O35	O	1.070048	0.692737	0.170445
O36	O	1.183728	0.692739	0.056757
O37	O	1.070048	0.867815	-0.056925
O38	O	0.956368	0.867814	0.056763
C39	C	1.013203	0.546257	-0.000071
C40	C	1.013202	0.466834	-0.000068
C41	C	1.097123	0.364900	0.083855
C42	C	0.929284	0.494139	-0.083995
C43	C	0.929283	0.419520	-0.084000
C44	C	1.013205	0.317586	-0.000076
C45	C	1.097127	0.290272	0.083851
C46	C	0.845370	0.446827	-0.167932
C47	C	0.845366	0.372206	-0.167941
C48	C	0.929283	0.270270	-0.084012
C49	C	1.013208	0.242958	-0.000080
C50	C	1.097129	0.141024	0.083844
C51	C	1.181050	0.113710	0.167781
C52	C	1.181044	0.188336	0.167781
C53	C	0.929290	0.195644	-0.084011
C54	C	1.097133	0.066396	0.083840
C55	C	0.709317	0.780259	-0.000062
C56	C	0.606180	0.780255	-0.000056
C57	C	0.531196	0.669846	0.071271
C58	C	0.638525	0.669771	0.071679
C59	C	0.531621	0.835104	0.052241
C60	C	0.424762	0.834403	0.052756
C61	C	0.423187	0.836672	-0.123796
C62	C	0.531858	0.834591	-0.123593
C63	C	1.317096	0.780285	-0.000094
C64	C	1.420233	0.780289	-0.000100
C65	C	1.013203	0.780263	-0.303970
C66	C	1.013202	0.780260	-0.407108
C67	C	1.013210	1.014288	-0.000085
C68	C	1.013211	1.093710	-0.000088
C69	C	1.084912	0.669828	-0.374688
C70	C	1.085300	0.669789	-0.481943
C71	C	1.065129	0.835450	-0.589904
C72	C	1.065667	0.834716	-0.482114
C73	C	0.889534	0.836329	-0.483063
C74	C	0.889726	0.834277	-0.589052
C75	C	1.013210	0.780281	0.303814
C76	C	1.013211	0.780284	0.406952
C77	C	1.317092	0.546269	-0.000087
C78	C	1.420229	0.466851	-0.000090
C79	C	1.013206	0.546265	0.303821
C80	C	1.013206	0.466846	0.406962
C81	C	1.317096	0.546278	0.303805
C82	C	1.420233	0.466863	0.406940
C83	C	0.709317	1.014266	-0.303961
C84	C	0.606180	1.093681	-0.407096
C85	C	0.709320	1.014275	-0.000069
C86	C	0.606184	1.093693	-0.000066
C87	C	1.013206	1.014279	-0.303977
C88	C	1.013206	1.093698	-0.407118
C89	C	1.409321	0.429551	-0.059440
C90	C	1.506219	0.354939	-0.059465
C91	C	1.614024	0.317624	-0.000134
C92	C	1.624929	0.354931	0.059217
C93	C	1.528032	0.429547	0.059235
C94	C	1.072547	0.429554	0.514745
C95	C	1.072543	0.354941	0.611666
C96	C	1.013204	0.317617	0.600801
C97	C	0.953855	0.354916	0.493006
C98	C	0.953854	0.429532	0.396087
C99	C	1.528017	0.429569	0.396029
C100	C	1.624935	0.354961	0.492926
C101	C	1.614066	0.317642	0.600733
C102	C	1.506270	0.354943	0.611641
C103	C	1.409355	0.429555	0.514745
C104	C	0.498395	1.130984	-0.396185
C105	C	0.401478	1.205616	-0.493082
C106	C	0.412347	1.242939	-0.600889
C107	C	0.520142	1.205633	-0.611798
C108	C	0.617058	1.131007	-0.514902
C109	C	0.617091	1.131001	0.059273
C110	C	0.520193	1.205633	0.059272
C111	C	0.412389	1.242951	-0.000062
C112	C	0.401484	1.205640	-0.059409
C113	C	0.498381	1.131015	-0.059414
C114	C	1.072557	1.130999	-0.396216
C115	C	1.072579	1.205612	-0.493118
C116	C	1.013243	1.242929	-0.600921
C117	C	0.953891	1.205621	-0.611821
C118	C	0.953876	1.131003	-0.514920
H119	H	1.249369	0.166107	0.236116
H120	H	0.850938	0.794047	-0.588395
O121	O	0.486645	1.090746	-0.279919
H122	H	0.527934	1.008433	-0.232932
O123	O	0.285220	1.245827	-0.481305
H124	H	0.293954	1.207314	-0.390060
H125	H	0.489484	1.100641	-0.107732
O126	O	0.498044	0.941365	-0.199949
H127	H	0.531295	0.950469	-0.271431
H128	H	0.529095	1.235999	0.107604
H129	H	0.344973	0.918033	-0.177221
H130	H	0.860968	0.217886	-0.152357
O131	O	1.013230	0.237120	0.705338
H132	H	1.064482	0.217453	0.782109
O133	O	1.000921	0.942058	-0.517388
H134	H	0.928064	0.958732	-0.485543
O135	O	1.205042	0.613002	-0.302095
H136	H	1.204424	0.610169	-0.223507
O137	O	1.293105	0.469763	0.526530
H138	H	1.227529	0.527921	0.441048
H139	H	1.536889	0.459944	0.308256
O140	O	0.531861	1.245888	-0.728077
H141	H	0.490540	1.231559	-0.775051
O142	O	0.832031	0.789167	-0.416610
H143	H	0.744993	0.830037	-0.472027
H144	H	0.333423	1.303703	-0.679779
H145	H	1.497318	0.324573	-0.107796
O146	O	0.889892	0.314627	0.481292
H147	H	0.899893	0.256461	0.566800
H148	H	0.425032	0.795427	0.143780
O149	O	0.813035	0.941041	-0.693843
H150	H	0.861955	0.957361	-0.750661
H151	H	1.712716	0.324538	0.107522
O152	O	0.599984	0.781620	-0.175343
H153	H	0.557623	0.753995	-0.197705
H154	H	1.013264	1.303687	-0.679815
O155	O	1.136578	1.090750	-0.279951
H156	H	1.102308	1.153389	-0.270092
O157	O	0.890030	0.469612	0.279834
H158	H	0.848845	0.431061	0.288573
O159	O	0.710422	0.612771	0.025217
H160	H	0.735798	0.534000	0.078965
H161	H	1.249382	0.030706	0.236108
O162	O	0.709778	0.612409	0.192549
H163	H	0.659803	0.649311	0.232448
H164	H	0.533530	0.626495	0.036373
H165	H	1.712698	0.324598	0.484024
H166	H	1.536928	0.459907	0.107571
O167	O	0.733312	1.090762	-0.526675
H168	H	0.724575	1.129249	-0.617921
H169	H	1.165447	0.342666	0.152197
H170	H	0.704862	1.100622	0.107598
O171	O	0.307881	1.323413	-0.000017
H172	H	0.333588	1.343064	0.051239
H173	H	0.532229	0.626715	0.161969
O174	O	1.184504	0.785326	-0.592957
H175	H	1.189845	0.840765	-0.668987
H176	H	0.313697	1.236036	-0.107717
O177	O	0.889881	1.245882	-0.728096
H178	H	0.899856	1.304044	-0.793636
O179	O	1.718600	0.237155	0.705240
H180	H	1.795372	0.217489	0.679530
O181	O	1.136594	1.245847	-0.481351
H182	H	1.177832	1.207371	-0.390107
H183	H	0.835861	0.917679	-0.510476
H184	H	0.346183	0.915434	0.004132
O185	O	0.889842	1.090786	-0.526683
H186	H	0.848578	1.129285	-0.617928
H187	H	1.165469	-0.016602	0.152185
H188	H	1.050305	0.626235	-0.320588
O189	O	0.838774	0.604075	-0.174513
H190	H	0.852868	0.651377	-0.160408
O191	O	1.494553	0.314674	0.727921
H192	H	1.580058	0.256516	0.793456
H193	H	1.120876	0.324581	0.699428
H194	H	0.777051	0.529824	-0.236263
O195	O	1.293052	0.469801	-0.123449
H196	H	1.301765	0.431329	-0.164730
O197	O	1.718532	0.237138	-0.000148
H198	H	1.692825	0.217468	-0.051378
O199	O	1.136552	0.469801	0.526490
H200	H	1.202155	0.455468	0.485194
O201	O	0.754851	0.401662	-0.258459
H202	H	0.696492	0.485080	-0.316810
H203	H	0.583224	0.797011	0.142405
O204	O	0.495584	0.942698	-0.013255
H205	H	0.530517	0.958257	-0.083945
O206	O	1.039647	0.612136	-0.479417
H207	H	1.017045	0.584070	-0.401425
H208	H	0.419066	0.801329	-0.167486
O209	O	1.206136	0.612788	-0.478957
H210	H	1.264521	0.585149	-0.400815
O211	O	1.186191	0.783394	-0.415626
H212	H	1.243544	0.759329	-0.460611
O213	O	0.999265	0.943064	-0.693590
H214	H	0.909920	0.984015	-0.696712
