data_functionalizedCrystal
_audit_creation_method	'MofGen! by Chris Wilmer'
_symmetry_space_group_name_H-M	'P1'
_symmetry_Int_Tables_number	1
_symmetry_cell_setting	triclinic
loop_
_symmetry_equiv_pos_as_xyz
  x,y,z
_cell_length_a	19.805407
_cell_length_b	18.101395
_cell_length_c	19.805399
_cell_angle_alpha	90.025118
_cell_angle_beta	90.017803
_cell_angle_gamma	90.028420
loop_
_atom_site_label
_atom_site_type_symbol
_atom_site_fract_x
_atom_site_fract_y
_atom_site_fract_z
Zn1	Zn	1.034714	-0.294900	0.382699
Zn2	Zn	1.368047	0.038434	0.716033
Zn3	Zn	1.701380	0.371767	1.049366
Zn4	Zn	1.034619	-0.418743	0.269516
Zn5	Zn	1.367952	-0.085410	0.602849
Zn6	Zn	1.701286	0.247923	0.936183
Zn7	Zn	0.921528	-0.294914	0.269527
Zn8	Zn	1.254862	0.038419	0.602861
Zn9	Zn	1.588195	0.371752	0.936194
Zn10	Zn	0.921482	-0.418698	0.382666
Zn11	Zn	1.254816	-0.085365	0.715999
Zn12	Zn	1.588149	0.247968	1.049333
O13	O	0.978086	-0.356814	0.326102
O14	O	1.311419	-0.023481	0.659435
O15	O	1.644753	0.309853	0.992769
O16	O	1.129418	-0.311341	0.367694
O17	O	1.462751	0.021993	0.701028
O18	O	1.796084	0.355326	1.034361
O19	O	1.019597	-0.402342	0.174801
O20	O	1.352930	-0.069009	0.508134
O21	O	1.686264	0.264324	0.841467
O22	O	0.936601	-0.191280	0.284558
O23	O	1.269934	0.142054	0.617892
O24	O	1.603268	0.475387	0.951225
O25	O	1.129348	-0.402328	0.284539
O26	O	1.462682	-0.068995	0.617872
O27	O	1.796015	0.264339	0.951206
O28	O	1.019758	-0.191269	0.367705
O29	O	1.353091	0.142064	0.701039
O30	O	1.686425	0.475398	1.034372
O31	O	0.936510	-0.311366	0.174809
O32	O	1.269843	0.021968	0.508143
O33	O	1.603176	0.355301	0.841476
O34	O	0.826806	-0.311322	0.284526
O35	O	1.160139	0.022011	0.617860
O36	O	1.493472	0.355345	0.951193
O37	O	0.936523	-0.402251	0.477387
O38	O	1.269857	-0.068918	0.810720
O39	O	1.603190	0.264416	1.144054
O40	O	0.826772	-0.402265	0.367649
O41	O	1.160105	-0.068932	0.700982
O42	O	1.493439	0.264401	1.034316
O43	O	1.019714	-0.311297	0.477411
O44	O	1.353047	0.022036	0.810745
O45	O	1.686380	0.355370	1.144078
O46	O	1.019553	-0.522370	0.284507
O47	O	1.352886	-0.189037	0.617840
O48	O	1.686219	0.144296	0.951173
O49	O	0.936432	-0.522337	0.367638
O50	O	1.269765	-0.189004	0.700971
O51	O	1.603098	0.144330	1.034304
C52	C	0.802230	-0.356791	0.326086
C53	C	1.135563	-0.023457	0.659419
C54	C	1.468896	0.309876	0.992752
C55	C	0.726998	-0.356799	0.326095
C56	C	1.060331	-0.023465	0.659428
C57	C	1.393665	0.309868	0.992761
C58	C	0.691690	-0.309505	0.369460
C59	C	1.025024	0.023828	0.702793
C60	C	1.358357	0.357161	1.036126
C61	C	0.621002	-0.309509	0.369462
C62	C	0.954335	0.023824	0.702795
C63	C	1.287669	0.357157	1.036129
C64	C	0.585622	-0.356811	0.326103
C65	C	0.918956	-0.023477	0.659436
C66	C	1.252289	0.309856	0.992770
C67	C	0.620935	-0.404106	0.282733
C68	C	0.954268	-0.070773	0.616067
C69	C	1.287601	0.262561	0.949400
C70	C	0.691622	-0.404098	0.282728
C71	C	1.024955	-0.070765	0.616061
C72	C	1.358288	0.262569	0.949394
C73	C	0.335861	-0.404139	0.282754
C74	C	0.669195	-0.070806	0.616087
C75	C	1.002528	0.262527	0.949421
C76	C	0.265169	-0.404146	0.282764
C77	C	0.598503	-0.070812	0.616098
C78	C	0.931836	0.262521	0.949431
C79	C	0.265242	-0.309551	0.369488
C80	C	0.598575	0.023783	0.702822
C81	C	0.931908	0.357116	1.036155
C82	C	0.335929	-0.309543	0.369483
C83	C	0.669262	0.023791	0.702816
C84	C	1.002595	0.357124	1.036150
C85	C	0.371235	-0.356835	0.326111
C86	C	0.704568	-0.023502	0.659444
C87	C	1.037902	0.309832	0.992778
C88	C	0.447883	-0.356829	0.326108
C89	C	0.781217	-0.023496	0.659441
C90	C	1.114550	0.309838	0.992775
C91	C	0.508975	-0.356821	0.326109
C92	C	0.842308	-0.023487	0.659442
C93	C	1.175642	0.309846	0.992776
C94	C	0.977995	-0.549225	0.326082
C95	C	1.311329	-0.215891	0.659416
C96	C	1.644662	0.117442	0.992749
C97	C	0.978018	-0.631539	0.326096
C98	C	1.311352	-0.298205	0.659430
C99	C	1.644685	0.035128	0.992763
C100	C	0.978167	-0.930630	0.326133
C101	C	1.311500	-0.597296	0.659466
C102	C	1.644834	-0.263963	0.992799
C103	C	0.925991	-0.899314	0.378566
C104	C	1.259324	-0.565981	0.711900
C105	C	1.592657	-0.232648	1.045233
C106	C	0.925743	-0.813696	0.378402
C107	C	1.259076	-0.480363	0.711736
C108	C	1.592409	-0.147030	1.045069
C109	C	0.978093	-0.782247	0.326115
C110	C	1.311427	-0.448914	0.659449
C111	C	1.644760	-0.115580	0.992782
C112	C	0.958782	-0.813394	0.254781
C113	C	1.292116	-0.480061	0.588115
C114	C	1.625449	-0.146728	0.921448
C115	C	0.958446	-0.899040	0.255095
C116	C	1.291779	-0.565706	0.588428
C117	C	1.625113	-0.232373	0.921762
C118	C	1.049768	-0.898978	0.344405
C119	C	1.383102	-0.565644	0.677739
C120	C	1.716435	-0.232311	1.011072
C121	C	1.049347	-0.813327	0.345970
C122	C	1.382681	-0.479993	0.679303
C123	C	1.716014	-0.146660	1.012636
C124	C	0.978053	-0.698388	0.326101
C125	C	1.311386	-0.365054	0.659434
C126	C	1.644719	-0.031721	0.992768
C127	C	0.978206	-1.014489	0.326142
C128	C	1.311539	-0.681156	0.659476
C129	C	1.644872	-0.347822	0.992809
C130	C	1.154629	-0.356838	0.326119
C131	C	1.487962	-0.023504	0.659452
C132	C	1.821295	0.309829	0.992786
C133	C	1.229861	-0.356848	0.326126
C134	C	1.563194	-0.023515	0.659460
C135	C	1.896527	0.309819	0.992793
C136	C	0.978124	-0.356767	0.502645
C137	C	1.311457	-0.023434	0.835978
C138	C	1.644790	0.309899	1.169312
C139	C	0.978140	-0.356747	0.577877
C140	C	1.311473	-0.023414	0.911210
C141	C	1.644807	0.309919	1.244544
C142	C	0.978195	-0.163652	0.326137
C143	C	1.311529	0.169681	0.659470
C144	C	1.644862	0.503015	0.992804
C145	C	0.978242	-0.081338	0.326152
C146	C	1.311575	0.251995	0.659485
C147	C	1.644908	0.585329	0.992818
C148	C	0.978087	-0.356807	0.150246
C149	C	1.311420	-0.023474	0.483579
C150	C	1.644754	0.309860	0.816913
C151	C	0.978202	-0.356618	0.075015
C152	C	1.311535	-0.023285	0.408348
C153	C	1.644869	0.310048	0.741681
C154	C	1.021458	-0.309385	0.613235
C155	C	1.354792	0.023948	0.946568
C156	C	1.688125	0.357281	1.279902
C157	C	1.021465	-0.309364	0.683923
C158	C	1.354798	0.023970	1.017257
C159	C	1.688132	0.357303	1.350590
C160	C	0.978157	-0.356709	0.719253
C161	C	1.311490	-0.023375	1.052586
C162	C	1.644823	0.309958	1.385919
C163	C	0.934834	-0.404073	0.683890
C164	C	1.268167	-0.070740	1.017223
C165	C	1.601500	0.262594	1.350556
C166	C	0.934824	-0.404090	0.613203
C167	C	1.268157	-0.070757	0.946536
C168	C	1.601491	0.262576	1.279869
C169	C	0.934872	-0.404004	0.968963
C170	C	1.268205	-0.070671	1.302296
C171	C	1.601539	0.262663	1.635630
C172	C	0.934887	-0.403985	1.039655
C173	C	1.268220	-0.070651	1.372989
C174	C	1.601553	0.262682	1.706322
C175	C	1.021513	-0.309278	1.039684
C176	C	1.354847	0.024056	1.373017
C177	C	1.688180	0.357389	1.706351
C178	C	1.021503	-0.309295	0.968997
C179	C	1.354837	0.024039	1.302330
C180	C	1.688170	0.357372	1.635663
C181	C	0.978178	-0.356656	0.933640
C182	C	1.311512	-0.023323	1.266973
C183	C	1.644845	0.310011	1.600307
C184	C	0.978170	-0.356678	0.856992
C185	C	1.311504	-0.023344	1.190325
C186	C	1.644837	0.309989	1.523658
C187	C	0.978168	-0.356691	0.795900
C188	C	1.311501	-0.023358	1.129233
C189	C	1.644834	0.309975	1.462566
H190	H	0.592123	-0.442616	0.247426
H191	H	0.925456	-0.109283	0.580759
H192	H	1.258789	0.224050	0.914093
H193	H	0.720368	-0.442609	0.247415
H194	H	1.053701	-0.109275	0.580748
H195	H	1.387035	0.224058	0.914082
Br196	Br	0.217154	-0.468345	0.223915
Br197	Br	0.550487	-0.135011	0.557249
Br198	Br	0.883820	0.198322	0.890582
H199	H	1.088641	-0.919228	0.306216
H200	H	1.421975	-0.585895	0.639549
H201	H	1.755308	-0.252561	0.972883
H202	H	0.906997	-0.792006	0.239025
H203	H	1.240330	-0.458673	0.572358
H204	H	1.573663	-0.125340	0.905692
H205	H	0.899604	-0.442579	0.940184
H206	H	1.232937	-0.109246	1.273518
H207	H	1.566271	0.224087	1.606851
Br208	Br	1.080285	-0.245043	0.921053
Br209	Br	1.413618	0.088291	1.254387
Br210	Br	1.746951	0.421624	1.587720
Br211	Br	1.080312	-0.244999	1.087672
Br212	Br	1.413645	0.088334	1.421005
Br213	Br	1.746979	0.421668	1.754338
H214	H	1.056741	-0.270798	0.712709
H215	H	1.390074	0.062535	1.046042
H216	H	1.723407	0.395868	1.379375
Br217	Br	0.876108	-0.468244	1.087602
Br218	Br	1.209441	-0.134911	1.420936
Br219	Br	1.542775	0.198422	1.754269
Br220	Br	0.876053	-0.468323	0.731836
Br221	Br	1.209386	-0.134990	1.065169
Br222	Br	1.542720	0.198343	1.398502
Br223	Br	0.945878	-0.778588	0.466562
Br224	Br	1.279211	-0.445255	0.799895
Br225	Br	1.612545	-0.111922	1.133229
H226	H	0.899543	-0.442650	0.584415
H227	H	1.232876	-0.109317	0.917748
H228	H	1.566210	0.224017	1.251082
H229	H	0.364731	-0.271027	0.404793
H230	H	0.698065	0.062306	0.738126
H231	H	1.031398	0.395639	1.071459
H232	H	0.236487	-0.271040	0.404801
H233	H	0.569820	0.062293	0.738135
H234	H	0.903153	0.395626	1.071468
Br235	Br	0.838072	-0.935307	0.358666
Br236	Br	1.171406	-0.601973	0.691999
Br237	Br	1.504739	-0.268640	1.025332
Br238	Br	0.739699	-0.245312	0.428312
Br239	Br	1.073032	0.088021	0.761646
Br240	Br	1.406366	0.421355	1.094979
H241	H	1.063910	-0.792967	0.398468
H242	H	1.397243	-0.459633	0.731801
H243	H	1.730576	-0.126300	1.065134
Br244	Br	0.383768	-0.468303	0.223875
Br245	Br	0.717101	-0.134969	0.557208
Br246	Br	1.050435	0.198364	0.890541
H247	H	0.872670	-0.793270	0.366299
H248	H	1.206004	-0.459937	0.699632
H249	H	1.539337	-0.126603	1.032965
Br250	Br	0.573087	-0.245323	0.428318
Br251	Br	0.906420	0.088010	0.761651
Br252	Br	1.239754	0.421344	1.094984
Br253	Br	0.945923	-0.933567	0.467015
Br254	Br	1.279256	-0.600234	0.800349
Br255	Br	1.612589	-0.266901	1.133682
H256	H	0.994801	-0.919757	0.214696
H257	H	1.328134	-0.586424	0.548029
H258	H	1.661467	-0.253090	0.881362
Br259	Br	0.871210	-0.932445	0.229295
Br260	Br	1.204543	-0.599111	0.562629
Br261	Br	1.537877	-0.265778	0.895962
H262	H	0.995590	-0.793024	0.214649
H263	H	1.328923	-0.459691	0.547982
H264	H	1.662256	-0.126358	0.881316
H265	H	1.067374	-0.920529	0.395536
H266	H	1.400708	-0.587195	0.728869
H267	H	1.734041	-0.253862	1.062202
Br268	Br	1.080242	-0.245133	0.565295
Br269	Br	1.413576	0.088200	0.898628
Br270	Br	1.746909	0.421533	1.231962
H271	H	1.090278	-0.791915	0.310563
H272	H	1.423611	-0.458581	0.643897
H273	H	1.756944	-0.125248	0.977230
