data_functionalizedCrystal
_audit_creation_method	'MofGen! by Chris Wilmer'
_symmetry_space_group_name_H-M	'P1'
_symmetry_Int_Tables_number	1
_symmetry_cell_setting	triclinic
loop_
_symmetry_equiv_pos_as_xyz
  x,y,z
_cell_length_a	21.295418
_cell_length_b	25.639239
_cell_length_c	21.295420
_cell_angle_alpha	90.004828
_cell_angle_beta	90.036164
_cell_angle_gamma	90.054499
loop_
_atom_site_label
_atom_site_type_symbol
_atom_site_fract_x
_atom_site_fract_y
_atom_site_fract_z
Zn1	Zn	0.962273	-0.208066	0.356243
Zn2	Zn	1.212273	0.041934	0.606243
Zn3	Zn	1.462273	0.291934	0.856243
Zn4	Zn	1.712273	0.541934	1.106243
Zn5	Zn	0.962174	-0.295463	0.250972
Zn6	Zn	1.212174	-0.045463	0.500972
Zn7	Zn	1.462174	0.204537	0.750972
Zn8	Zn	1.712174	0.454537	1.000972
Zn9	Zn	0.857010	-0.208068	0.250952
Zn10	Zn	1.107010	0.041932	0.500952
Zn11	Zn	1.357010	0.291932	0.750952
Zn12	Zn	1.607010	0.541932	1.000952
Zn13	Zn	0.856950	-0.295496	0.356168
Zn14	Zn	1.106950	-0.045496	0.606168
Zn15	Zn	1.356950	0.204504	0.856168
Zn16	Zn	1.606950	0.454504	1.106168
O17	O	0.909602	-0.251773	0.303584
O18	O	1.159602	-0.001773	0.553584
O19	O	1.409602	0.248227	0.803584
O20	O	1.659602	0.498227	1.053584
O21	O	1.050349	-0.219644	0.342317
O22	O	1.300349	0.030356	0.592317
O23	O	1.550349	0.280356	0.842317
O24	O	1.800349	0.530356	1.092317
O25	O	0.948208	-0.283857	0.162880
O26	O	1.198208	-0.033857	0.412880
O27	O	1.448208	0.216143	0.662880
O28	O	1.698208	0.466143	0.912880
O29	O	0.871040	-0.134902	0.264942
O30	O	1.121040	0.115098	0.514942
O31	O	1.371040	0.365098	0.764942
O32	O	1.621040	0.615098	1.014942
O33	O	1.050277	-0.283855	0.264976
O34	O	1.300277	-0.033855	0.514976
O35	O	1.550277	0.216145	0.764976
O36	O	1.800277	0.466145	1.014976
O37	O	0.948376	-0.134901	0.342299
O38	O	1.198376	0.115099	0.592299
O39	O	1.448376	0.365099	0.842299
O40	O	1.698376	0.615099	1.092299
O41	O	0.870944	-0.219648	0.162866
O42	O	1.120944	0.030352	0.412866
O43	O	1.370944	0.280352	0.662866
O44	O	1.620944	0.530352	0.912866
O45	O	0.768913	-0.219680	0.264870
O46	O	1.018913	0.030320	0.514870
O47	O	1.268913	0.280320	0.764870
O48	O	1.518913	0.530320	1.014870
O49	O	0.870938	-0.283911	0.444268
O50	O	1.120938	-0.033911	0.694268
O51	O	1.370938	0.216089	0.944268
O52	O	1.620938	0.466089	1.194268
O53	O	0.768869	-0.283913	0.342172
O54	O	1.018869	-0.033913	0.592172
O55	O	1.268869	0.216087	0.842172
O56	O	1.518869	0.466087	1.092172
O57	O	0.948318	-0.219676	0.444322
O58	O	1.198318	0.030324	0.694322
O59	O	1.448318	0.280324	0.944322
O60	O	1.698318	0.530324	1.194322
O61	O	0.948150	-0.368633	0.264904
O62	O	1.198150	-0.118633	0.514904
O63	O	1.448150	0.131367	0.764904
O64	O	1.698150	0.381367	1.014904
O65	O	0.870842	-0.368657	0.342191
O66	O	1.120842	-0.118657	0.592191
O67	O	1.370842	0.131343	0.842191
O68	O	1.620842	0.381343	1.092191
C69	C	0.746050	-0.251801	0.303511
C70	C	0.996050	-0.001801	0.553511
C71	C	1.246050	0.248199	0.803511
C72	C	1.496050	0.498199	1.053511
C73	C	0.676082	-0.251825	0.303495
C74	C	0.926082	-0.001825	0.553495
C75	C	1.176082	0.248175	0.803495
C76	C	1.426082	0.498175	1.053495
C77	C	0.643209	-0.285315	0.343686
C78	C	0.893209	-0.035315	0.593686
C79	C	1.143209	0.214685	0.843686
C80	C	1.393209	0.464685	1.093686
C81	C	0.577467	-0.285303	0.343714
C82	C	0.827467	-0.035303	0.593714
C83	C	1.077467	0.214697	0.843714
C84	C	1.327467	0.464697	1.093714
C85	C	0.544600	-0.251805	0.303541
C86	C	0.794600	-0.001805	0.553541
C87	C	1.044600	0.248195	0.803541
C88	C	1.294600	0.498195	1.053541
C89	C	0.577480	-0.218308	0.263347
C90	C	0.827480	0.031692	0.513347
C91	C	1.077480	0.281692	0.763347
C92	C	1.327480	0.531692	1.013347
C93	C	0.643222	-0.218318	0.263324
C94	C	0.893222	0.031682	0.513324
C95	C	1.143222	0.281682	0.763324
C96	C	1.393222	0.531682	1.013324
N97	N	0.441332	-0.247701	0.248483
N98	N	0.691332	0.002299	0.498483
N99	N	0.941332	0.252299	0.748483
N100	N	1.191332	0.502299	0.998483
N101	N	0.378880	-0.247694	0.248506
N102	N	0.628880	0.002306	0.498506
N103	N	0.878880	0.252306	0.748506
N104	N	1.128880	0.502306	0.998506
C105	C	0.346525	-0.251771	0.303607
C106	C	0.596525	-0.001771	0.553607
C107	C	0.846525	0.248229	0.803607
C108	C	1.096525	0.498229	1.053607
N109	N	0.378980	-0.255866	0.358686
N110	N	0.628980	-0.005866	0.608686
N111	N	0.878980	0.244134	0.858686
N112	N	1.128980	0.494134	1.108686
N113	N	0.441438	-0.255875	0.358662
N114	N	0.691438	-0.005875	0.608662
N115	N	0.941438	0.244125	0.858662
N116	N	1.191438	0.494125	1.108662
C117	C	0.473314	-0.251790	0.303561
C118	C	0.723314	-0.001790	0.553561
C119	C	0.973314	0.248210	0.803561
C120	C	1.223314	0.498210	1.053561
C121	C	0.242366	-0.285250	0.343832
C122	C	0.492366	-0.035250	0.593832
C123	C	0.742366	0.214750	0.843832
C124	C	0.992366	0.464750	1.093832
C125	C	0.176623	-0.285233	0.343862
C126	C	0.426623	-0.035233	0.593862
C127	C	0.676623	0.214767	0.843862
C128	C	0.926623	0.464767	1.093862
C129	C	0.176638	-0.218241	0.263489
C130	C	0.426638	0.031759	0.513489
C131	C	0.676638	0.281759	0.763489
C132	C	0.926638	0.531759	1.013489
C133	C	0.242380	-0.218255	0.263465
C134	C	0.492380	0.031745	0.513465
C135	C	0.742380	0.281745	0.763465
C136	C	0.992380	0.531745	1.013465
C137	C	0.275241	-0.251762	0.303636
C138	C	0.525241	-0.001762	0.553636
C139	C	0.775241	0.248238	0.803636
C140	C	1.025241	0.498238	1.053636
C141	C	0.909496	-0.387616	0.303555
C142	C	1.159496	-0.137616	0.553555
C143	C	1.409496	0.112384	0.803555
C144	C	1.659496	0.362384	1.053555
C145	C	0.909508	-0.445730	0.303564
C146	C	1.159508	-0.195730	0.553564
C147	C	1.409508	0.054270	0.803564
C148	C	1.659508	0.304270	1.053564
C149	C	0.949961	-0.806068	0.263409
C150	C	1.199961	-0.556068	0.513409
C151	C	1.449961	-0.306068	0.763409
C152	C	1.699961	-0.056068	1.013409
C153	C	0.949985	-0.860672	0.263417
C154	C	1.199985	-0.610672	0.513417
C155	C	1.449985	-0.360672	0.763417
C156	C	1.699985	-0.110672	1.013417
O157	O	0.984270	-0.888887	0.229245
O158	O	1.234270	-0.638887	0.479245
O159	O	1.484270	-0.388887	0.729245
O160	O	1.734270	-0.138887	0.979245
N161	N	0.909712	-0.888012	0.303626
N162	N	1.159712	-0.638012	0.553626
N163	N	1.409712	-0.388012	0.803626
N164	N	1.659712	-0.138012	1.053626
C165	C	0.869417	-0.860745	0.343833
C166	C	1.119417	-0.610745	0.593833
C167	C	1.369417	-0.360745	0.843833
C168	C	1.619417	-0.110745	1.093833
O169	O	0.835165	-0.889014	0.378034
O170	O	1.085165	-0.639014	0.628034
O171	O	1.335165	-0.389014	0.878034
O172	O	1.585165	-0.139014	1.128034
C173	C	0.869396	-0.806142	0.343827
C174	C	1.119396	-0.556142	0.593827
C175	C	1.369396	-0.306142	0.843827
C176	C	1.619396	-0.056142	1.093827
C177	C	0.909667	-0.778805	0.303611
C178	C	1.159667	-0.528805	0.553611
C179	C	1.409667	-0.278805	0.803611
C180	C	1.659667	-0.028805	1.053611
C181	C	0.990229	-0.778730	0.223197
C182	C	1.240229	-0.528730	0.473197
C183	C	1.490229	-0.278730	0.723197
C184	C	1.740229	-0.028730	0.973197
C185	C	0.990204	-0.724130	0.223188
C186	C	1.240204	-0.474130	0.473188
C187	C	1.490204	-0.224130	0.723188
C188	C	1.740204	0.025870	0.973188
C189	C	0.949910	-0.696867	0.263391
C190	C	1.199910	-0.446867	0.513391
C191	C	1.449910	-0.196867	0.763391
C192	C	1.699910	0.053133	1.013391
C193	C	0.909642	-0.724204	0.303602
C194	C	1.159642	-0.474204	0.553602
C195	C	1.409642	-0.224204	0.803602
C196	C	1.659642	0.025796	1.053602
C197	C	0.829105	-0.778876	0.384036
C198	C	1.079105	-0.528876	0.634036
C199	C	1.329105	-0.278876	0.884036
C200	C	1.579105	-0.028876	1.134036
C201	C	0.829088	-0.724269	0.384028
C202	C	1.079088	-0.474269	0.634028
C203	C	1.329088	-0.224269	0.884028
C204	C	1.579088	0.025731	1.134028
C205	C	0.869359	-0.696932	0.343812
C206	C	1.119359	-0.446932	0.593812
C207	C	1.369359	-0.196932	0.843812
C208	C	1.619359	0.053068	1.093812
C209	C	0.869323	-0.642340	0.343796
C210	C	1.119323	-0.392340	0.593796
C211	C	1.369323	-0.142340	0.843796
C212	C	1.619323	0.107660	1.093796
N213	N	0.909596	-0.615000	0.303588
N214	N	1.159596	-0.365000	0.553588
N215	N	1.409596	-0.115000	0.803588
N216	N	1.659596	0.135000	1.053588
C217	C	0.949889	-0.642263	0.263385
C218	C	1.199889	-0.392263	0.513385
C219	C	1.449889	-0.142263	0.763385
C220	C	1.699889	0.107737	1.013385
C221	C	0.869465	-0.975416	0.343842
C222	C	1.119465	-0.725416	0.593842
C223	C	1.369465	-0.475416	0.843842
C224	C	1.619465	-0.225416	1.093842
C225	C	0.869482	-1.030018	0.343845
C226	C	1.119482	-0.780018	0.593845
C227	C	1.369482	-0.530018	0.843845
C228	C	1.619482	-0.280018	1.093845
C229	C	0.950051	-1.029941	0.263431
C230	C	1.200051	-0.779941	0.513431
C231	C	1.450051	-0.529941	0.763431
C232	C	1.700051	-0.279941	1.013431
C233	C	0.950030	-0.975338	0.263425
C234	C	1.200030	-0.725338	0.513425
C235	C	1.450030	-0.475338	0.763425
C236	C	1.700030	-0.225338	1.013425
C237	C	0.909737	-0.948076	0.303634
C238	C	1.159737	-0.698076	0.553634
C239	C	1.409737	-0.448076	0.803634
C240	C	1.659737	-0.198076	1.053634
C241	C	0.949833	-0.527598	0.263369
C242	C	1.199833	-0.277598	0.513369
C243	C	1.449833	-0.027598	0.763369
C244	C	1.699833	0.222402	1.013369
C245	C	0.949802	-0.472993	0.263361
C246	C	1.199802	-0.222993	0.513361
C247	C	1.449802	0.027007	0.763361
C248	C	1.699802	0.277007	1.013361
C249	C	0.869235	-0.473075	0.343778
C250	C	1.119235	-0.223075	0.593778
C251	C	1.369235	0.026925	0.843778
C252	C	1.619235	0.276925	1.093778
C253	C	0.869264	-0.527675	0.343783
C254	C	1.119264	-0.277675	0.593783
C255	C	1.369264	-0.027675	0.843783
C256	C	1.619264	0.222325	1.093783
C257	C	0.909567	-0.554936	0.303576
C258	C	1.159567	-0.304936	0.553576
C259	C	1.409567	-0.054936	0.803576
C260	C	1.659567	0.195064	1.053576
O261	O	0.835058	-0.614090	0.377953
O262	O	1.085058	-0.364090	0.627953
O263	O	1.335058	-0.114090	0.877953
O264	O	1.585058	0.135910	1.127953
O265	O	0.984142	-0.613988	0.229195
O266	O	1.234142	-0.363988	0.479195
O267	O	1.484142	-0.113988	0.729195
O268	O	1.734142	0.136012	0.979195
C269	C	1.073792	-0.251746	0.303657
C270	C	1.323792	-0.001746	0.553657
C271	C	1.573792	0.248254	0.803657
C272	C	1.823792	0.498254	1.053657
C273	C	1.143760	-0.251734	0.303688
C274	C	1.393760	-0.001734	0.553688
C275	C	1.643760	0.248266	0.803688
C276	C	1.893760	0.498266	1.053688
C277	C	0.909632	-0.251797	0.467774
C278	C	1.159632	-0.001797	0.717774
C279	C	1.409632	0.248203	0.967774
C280	C	1.659632	0.498203	1.217774
C281	C	0.909645	-0.251807	0.537742
C282	C	1.159645	-0.001807	0.787742
C283	C	1.409645	0.248193	1.037742
C284	C	1.659645	0.498193	1.287742
C285	C	0.909725	-0.115400	0.303627
C286	C	1.159725	0.134600	0.553627
C287	C	1.409725	0.384600	0.803627
C288	C	1.659725	0.634600	1.053627
C289	C	0.909778	-0.057286	0.303645
C290	C	1.159778	0.192714	0.553645
C291	C	1.409778	0.442714	0.803645
C292	C	1.659778	0.692714	1.053645
C293	C	0.949931	-0.218366	0.570638
C294	C	1.199931	0.031634	0.820638
C295	C	1.449931	0.281634	1.070638
C296	C	1.699931	0.531634	1.320638
C297	C	0.949921	-0.218357	0.636381
C298	C	1.199921	0.031643	0.886381
C299	C	1.449921	0.281643	1.136381
C300	C	1.699921	0.531643	1.386381
C301	C	0.909633	-0.251799	0.669225
C302	C	1.159633	-0.001799	0.919225
C303	C	1.409633	0.248201	1.169225
C304	C	1.659633	0.498201	1.419225
C305	C	0.869339	-0.285243	0.636321
C306	C	1.119339	-0.035243	0.886321
C307	C	1.369339	0.214757	1.136321
C308	C	1.619339	0.464757	1.386321
C309	C	0.869346	-0.285247	0.570579
C310	C	1.119346	-0.035247	0.820579
C311	C	1.369346	0.214753	1.070579
C312	C	1.619346	0.464753	1.320579
N313	N	0.904755	-0.297561	0.772440
N314	N	1.154755	-0.047561	1.022440
N315	N	1.404755	0.202439	1.272440
N316	N	1.654755	0.452439	1.522440
N317	N	0.904752	-0.297555	0.834892
N318	N	1.154752	-0.047555	1.084892
N319	N	1.404752	0.202445	1.334892
N320	N	1.654752	0.452445	1.584892
C321	C	0.909611	-0.251789	0.867299
C322	C	1.159611	-0.001789	1.117299
C323	C	1.409611	0.248211	1.367299
C324	C	1.659611	0.498211	1.617299
N325	N	0.914484	-0.206026	0.834896
N326	N	1.164484	0.043974	1.084896
N327	N	1.414484	0.293974	1.334896
N328	N	1.664484	0.543974	1.584896
N329	N	0.914489	-0.206032	0.772439
N330	N	1.164489	0.043968	1.022439
N331	N	1.414489	0.293968	1.272439
N332	N	1.664489	0.543968	1.522439
C333	C	0.909621	-0.251798	0.740510
C334	C	1.159621	-0.001798	0.990510
C335	C	1.409621	0.248202	1.240510
C336	C	1.659621	0.498202	1.490510
C337	C	0.949888	-0.218335	0.971481
C338	C	1.199888	0.031665	1.221481
C339	C	1.449888	0.281665	1.471481
C340	C	1.699888	0.531665	1.721481
C341	C	0.949874	-0.218325	1.037225
C342	C	1.199874	0.031675	1.287225
C343	C	1.449874	0.281675	1.537225
C344	C	1.699874	0.531675	1.787225
C345	C	0.869295	-0.285216	1.037163
C346	C	1.119295	-0.035216	1.287163
C347	C	1.369295	0.214784	1.537163
C348	C	1.619295	0.464784	1.787163
C349	C	0.869306	-0.285221	0.971421
C350	C	1.119306	-0.035221	1.221421
C351	C	1.369306	0.214779	1.471421
C352	C	1.619306	0.464779	1.721421
C353	C	0.909606	-0.251781	0.938584
C354	C	1.159606	-0.001781	1.188584
C355	C	1.409606	0.248219	1.438584
C356	C	1.659606	0.498219	1.688584
C357	C	0.909574	-0.251765	1.140032
C358	C	1.159574	-0.001765	1.390032
C359	C	1.409574	0.248235	1.640032
C360	C	1.659574	0.498235	1.890032
C361	C	0.909584	-0.251767	1.070064
C362	C	1.159584	-0.001767	1.320064
C363	C	1.409584	0.248233	1.570064
C364	C	1.659584	0.498233	1.820064
H365	H	0.149878	-0.190964	0.230781
H366	H	0.399878	0.059036	0.480781
H367	H	0.649878	0.309036	0.730781
H368	H	0.899878	0.559036	0.980781
H369	H	0.149859	-0.312504	0.376594
H370	H	0.399859	-0.062504	0.626594
H371	H	0.649859	0.187496	0.876594
H372	H	0.899859	0.437496	1.126594
H373	H	0.836648	-0.953222	0.376583
H374	H	1.086648	-0.703222	0.626583
H375	H	1.336648	-0.453222	0.876583
H376	H	1.586648	-0.203222	1.126583
Br377	Br	0.532877	-0.172842	0.208830
Br378	Br	0.782877	0.077158	0.458830
Br379	Br	1.032877	0.327158	0.708830
Br380	Br	1.282877	0.577158	0.958830
H381	H	0.669987	-0.191044	0.230596
H382	H	0.919987	0.058956	0.480596
H383	H	1.169987	0.308956	0.730596
H384	H	1.419987	0.558956	0.980596
Br385	Br	0.774454	-0.815963	0.438625
Br386	Br	1.024454	-0.565963	0.688625
Br387	Br	1.274454	-0.315963	0.938625
Br388	Br	1.524454	-0.065963	1.188625
Br389	Br	1.004562	-0.172944	1.081871
Br390	Br	1.254562	0.077056	1.331871
Br391	Br	1.504562	0.327056	1.581871
Br392	Br	1.754562	0.577056	1.831871
Br393	Br	0.687803	-0.330788	0.398205
Br394	Br	0.937803	-0.080788	0.648205
Br395	Br	1.187803	0.169212	0.898205
Br396	Br	1.437803	0.419212	1.148205
Br397	Br	0.814657	-0.330626	0.680893
Br398	Br	1.064657	-0.080626	0.930893
Br399	Br	1.314657	0.169374	1.180893
Br400	Br	1.564657	0.419374	1.430893
Br401	Br	0.814609	-0.330596	1.081730
Br402	Br	1.064609	-0.080596	1.331730
Br403	Br	1.314609	0.169404	1.581730
Br404	Br	1.564609	0.419404	1.831730
Br405	Br	1.004583	-0.172956	0.681036
Br406	Br	1.254583	0.077044	0.931036
Br407	Br	1.504583	0.327044	1.181036
Br408	Br	1.754583	0.577044	1.431036
Br409	Br	0.814631	-0.330609	0.926773
Br410	Br	1.064631	-0.080609	1.176773
Br411	Br	1.314631	0.169391	1.426773
Br412	Br	1.564631	0.419391	1.676773
H413	H	0.269146	-0.190986	0.230734
H414	H	0.519146	0.059014	0.480734
H415	H	0.769146	0.309014	0.730734
H416	H	1.019146	0.559014	0.980734
H417	H	0.836537	-0.312479	0.543796
H418	H	1.086537	-0.062479	0.793796
H419	H	1.336537	0.187521	1.043796
H420	H	1.586537	0.437521	1.293796
H421	H	0.796277	-0.702075	0.416773
H422	H	1.046277	-0.452075	0.666773
H423	H	1.296277	-0.202075	0.916773
H424	H	1.546277	0.047925	1.166773
H425	H	0.982595	-0.450736	0.230611
H426	H	1.232595	-0.200736	0.480611
H427	H	1.482595	0.049264	0.730611
H428	H	1.732595	0.299264	0.980611
H429	H	0.550696	-0.312574	0.376445
H430	H	0.800696	-0.062574	0.626445
H431	H	1.050696	0.187426	0.876445
H432	H	1.300696	0.437426	1.126445
Br433	Br	1.004577	-0.172952	0.926912
Br434	Br	1.254577	0.077048	1.176912
Br435	Br	1.504577	0.327048	1.426912
Br436	Br	1.754577	0.577048	1.676912
Br437	Br	1.004531	-0.564586	0.208802
Br438	Br	1.254531	-0.314586	0.458802
Br439	Br	1.504531	-0.064586	0.708802
Br440	Br	1.754531	0.185414	0.958802
H441	H	0.836474	-0.549935	0.376532
H442	H	1.086474	-0.299935	0.626532
H443	H	1.336474	-0.049935	0.876532
H444	H	1.586474	0.200065	1.126532
H445	H	0.269123	-0.312530	0.376545
H446	H	0.519123	-0.062530	0.626545
H447	H	0.769123	0.187470	0.876545
H448	H	1.019123	0.437470	1.126545
H449	H	1.022997	-0.701875	0.190443
H450	H	1.272997	-0.451875	0.440443
H451	H	1.522997	-0.201875	0.690443
H452	H	1.772997	0.048125	0.940443
H453	H	1.023044	-0.800922	0.190459
H454	H	1.273044	-0.550922	0.440459
H455	H	1.523044	-0.300922	0.690459
H456	H	1.773044	-0.050922	0.940459
H457	H	0.982822	-0.953083	0.230679
H458	H	1.232822	-0.703083	0.480679
H459	H	1.482822	-0.453083	0.730679
H460	H	1.732822	-0.203083	0.980679
H461	H	0.836683	-1.052272	0.376587
H462	H	1.086683	-0.802272	0.626587
H463	H	1.336683	-0.552272	0.876587
H464	H	1.586683	-0.302272	1.126587
Br465	Br	1.004733	-1.066952	0.208867
Br466	Br	1.254733	-0.816952	0.458867
Br467	Br	1.504733	-0.566952	0.708867
Br468	Br	1.754733	-0.316952	0.958867
H469	H	0.836427	-0.450869	0.376508
H470	H	1.086427	-0.200869	0.626508
H471	H	1.336427	0.049131	0.876508
H472	H	1.586427	0.299131	1.126508
H473	H	0.982745	-0.191136	0.543906
H474	H	1.232745	0.058864	0.793906
H475	H	1.482745	0.308864	1.043906
H476	H	1.732745	0.558864	1.293906
