data_functionalizedCrystal
_audit_creation_method	'MofGen! by Chris Wilmer'
_symmetry_space_group_name_H-M	'P1'
_symmetry_Int_Tables_number	1
_symmetry_cell_setting	triclinic
loop_
_symmetry_equiv_pos_as_xyz
  x,y,z
_cell_length_a	10.540558
_cell_length_b	10.540539
_cell_length_c	9.016244
_cell_angle_alpha	89.999933
_cell_angle_beta	90.006057
_cell_angle_gamma	95.470686
loop_
_atom_site_label
_atom_site_type_symbol
_atom_site_fract_x
_atom_site_fract_y
_atom_site_fract_z
O1	O	-1.685879	0.179008	-0.123289
O2	O	-1.316469	0.195839	-0.123301
O3	O	-1.509602	0.002718	-0.123293
O4	O	-1.492746	0.372130	-0.123297
O5	O	-1.509574	0.002722	0.123388
O6	O	-1.316441	0.195844	0.123380
O7	O	-1.685851	0.179012	0.123392
Cu8	Cu	-1.501143	0.187428	0.145910
Cu9	Cu	-1.501177	0.187423	-0.145819
O10	O	-1.492718	0.372134	0.123384
C11	C	-1.269152	0.194574	0.000038
C12	C	-1.128206	0.190783	0.000033
C13	C	-1.508324	-0.044583	0.000045
C14	C	-1.504542	-0.185531	0.000037
C15	C	-0.944780	0.045853	0.000614
C16	C	-1.091397	0.049697	0.000040
C17	C	-1.066550	0.258672	-0.140828
C18	C	-0.920006	0.253847	-0.140928
C19	C	-0.919486	0.256722	0.139594
C20	C	-1.066466	0.258031	0.141438
C21	C	-1.359626	-0.368968	-0.000521
C22	C	-1.363460	-0.222350	0.000034
C23	C	-1.572421	-0.247182	0.140906
C24	C	-1.567606	-0.393727	0.141025
C25	C	-1.570508	-0.394250	-0.139498
C26	C	-1.571807	-0.247268	-0.141360
C27	C	-0.733170	0.180261	0.000054
C28	C	-0.874123	0.184002	0.000060
C29	C	-1.493996	0.419435	0.000043
C30	C	-1.497778	0.560383	0.000041
N31	N	-1.501129	0.187431	0.351096
N32	N	-1.501201	0.187411	-0.351005
C33	C	-1.397498	0.290392	0.586124
C34	C	-1.397728	0.290778	0.414233
C35	C	-1.633851	0.217574	0.413438
C36	C	-1.633285	0.218303	0.585383
C37	C	-1.473355	0.053991	0.585640
C38	C	-1.470310	0.054856	0.413686
H39	H	-1.133999	-0.003721	0.101016
F40	F	-1.119864	0.193103	0.277646
H41	H	-1.303907	-0.397574	-0.101541
H42	H	-1.712905	0.144616	0.372537
F43	F	-1.098122	0.392482	0.152552
F44	F	-1.562502	-0.050125	0.357533
F45	F	-1.122227	0.197027	-0.277854
H46	H	-1.415165	0.388817	0.629317
H47	H	-1.548967	-0.022659	0.626295
H48	H	-1.372673	0.032008	0.372941
H49	H	-1.674668	-0.223040	-0.149863
F50	F	-0.883146	0.188251	-0.278554
H51	H	-1.310048	-0.179752	-0.100947
F52	F	-1.145947	-0.020336	-0.132379
F53	F	-0.857759	0.389913	0.140839
H54	H	-0.916183	-0.009883	0.101635
H55	H	-0.872038	0.355308	-0.147322
H56	H	-1.088903	0.362281	-0.146070
H57	H	-1.672411	-0.441469	-0.140442
F58	F	-1.502000	-0.430591	0.278654
H59	H	-1.304110	-0.399177	0.099929
F60	F	-0.878243	0.197040	0.279156
H61	H	-1.522141	-0.206415	-0.245571
F62	F	-1.268812	0.267135	0.359140
H63	H	-1.298574	0.272533	0.627515
F64	F	-1.293123	-0.167767	0.132236
F65	F	-1.700223	-0.456420	0.149397
F66	F	-1.707843	-0.217957	0.147762
H67	H	-1.525245	-0.204584	0.245733
H68	H	-1.524859	-0.425808	-0.246267
F69	F	-1.421082	0.420170	0.360444
H70	H	-0.914585	-0.009650	-0.099842
H71	H	-1.657639	0.315642	0.625472
H72	H	-1.712927	0.146319	0.626969
F73	F	-1.666398	0.343365	0.357135
H74	H	-1.378619	0.025305	0.629085
