data_functionalizedCrystal
_audit_creation_method	'MofGen! by Chris Wilmer'
_symmetry_space_group_name_H-M	'P1'
_symmetry_Int_Tables_number	1
_symmetry_cell_setting	triclinic
loop_
_symmetry_equiv_pos_as_xyz
  x,y,z
_cell_length_a	17.038272
_cell_length_b	16.109301
_cell_length_c	16.098524
_cell_angle_alpha	86.937360
_cell_angle_beta	92.876406
_cell_angle_gamma	92.713482
loop_
_atom_site_label
_atom_site_type_symbol
_atom_site_fract_x
_atom_site_fract_y
_atom_site_fract_z
O1	O	0.103613	-1.113806	0.069205
O2	O	0.603613	-0.613806	0.569205
O3	O	0.116120	-0.872633	0.069218
O4	O	0.616120	-0.372633	0.569218
O5	O	-0.003949	-0.991785	0.069205
O6	O	0.496051	-0.491785	0.569205
O7	O	0.223682	-0.994653	0.069218
O8	O	0.723682	-0.494653	0.569218
O9	O	-0.010192	-0.984695	-0.069309
O10	O	0.489808	-0.484695	0.430691
O11	O	0.109877	-0.865543	-0.069296
O12	O	0.609877	-0.365543	0.430704
O13	O	0.097370	-1.106716	-0.069309
O14	O	0.597370	-0.606716	0.430691
Zn15	Zn	0.102633	-0.985003	-0.091294
Zn16	Zn	0.602633	-0.485003	0.408706
Zn17	Zn	0.110858	-0.994345	0.091203
Zn18	Zn	0.610858	-0.494345	0.591203
O19	O	0.217439	-0.987563	-0.069296
O20	O	0.717439	-0.487563	0.430704
C21	C	0.112492	-0.838077	-0.000037
C22	C	0.612492	-0.338077	0.499963
C23	C	0.110974	-0.745674	-0.000032
C24	C	0.610974	-0.245674	0.499968
C25	C	-0.036199	-0.985633	-0.000052
C26	C	0.463801	-0.485633	0.499948
C27	C	-0.122991	-0.977854	-0.000051
C28	C	0.377009	-0.477854	0.499949
N29	N	0.097018	-0.978634	-0.215844
N30	N	0.597018	-0.478634	0.284156
C31	C	-0.173106	-1.049275	-0.000056
C32	C	0.326894	-0.549275	0.499944
C33	C	-0.254657	-1.041961	-0.000048
C34	C	0.245343	-0.541961	0.499952
C35	C	-0.286090	-0.963225	-0.000040
C36	C	0.213910	-0.463225	0.499960
C37	C	-0.235969	-0.891800	-0.000033
C38	C	0.264031	-0.391800	0.499967
C39	C	-0.154420	-0.899115	-0.000035
C40	C	0.345580	-0.399115	0.499965
C41	C	-0.531847	-0.937384	-0.000028
C42	C	-0.031847	-0.437384	0.499972
C43	C	-0.613403	-0.930074	-0.000028
C44	C	-0.113403	-0.430074	0.499972
C45	C	-0.632085	-1.080236	-0.000041
C46	C	-0.132085	-0.580236	0.499959
C47	C	-0.550534	-1.087544	-0.000048
C48	C	-0.050534	-0.587544	0.499952
C49	C	-0.500419	-1.016118	-0.000036
C50	C	-0.000419	-0.516118	0.499964
C51	C	-0.369448	-0.955748	-0.000035
C52	C	0.130552	-0.455748	0.499965
C53	C	-0.417063	-1.023597	-0.000036
C54	C	0.082937	-0.523597	0.499964
C55	C	0.249689	-0.993715	-0.000037
C56	C	0.749689	-0.493715	0.499963
C57	C	0.336482	-1.001495	-0.000033
C58	C	0.836482	-0.501495	0.499967
C59	C	0.100998	-1.141272	-0.000052
C60	C	0.600998	-0.641272	0.499948
C61	C	0.102517	-1.233675	-0.000051
C62	C	0.602517	-0.733675	0.499949
C63	C	0.178688	-0.528210	-0.000038
C64	C	0.678688	-0.028210	0.499962
C65	C	0.177255	-0.441388	-0.000043
C66	C	0.677255	0.058612	0.499957
C67	C	0.034797	-0.451145	-0.000048
C68	C	0.534797	0.048855	0.499952
C69	C	0.036231	-0.537965	-0.000049
C70	C	0.536231	-0.037965	0.499951
C71	C	0.108179	-0.576496	-0.000039
C72	C	0.608179	-0.076496	0.499961
C73	C	0.105312	-0.402853	-0.000044
C74	C	0.605312	0.097147	0.499956
C75	C	0.103757	-0.308716	-0.000050
C76	C	0.603757	0.191284	0.499950
C77	C	0.109734	-0.670638	-0.000035
C78	C	0.609734	-0.170638	0.499965
C79	C	0.142490	-1.030183	-0.259425
C80	C	0.642490	-0.530183	0.240575
C81	C	0.138558	-1.025738	-0.346615
C82	C	0.638558	-0.525738	0.153385
C83	C	0.089157	-0.969740	-0.390221
C84	C	0.589157	-0.469740	0.109779
C85	C	0.043680	-0.918189	-0.346633
C86	C	0.543680	-0.418189	0.153367
C87	C	0.047609	-0.922638	-0.259445
C88	C	0.547609	-0.422638	0.240555
C89	C	0.074918	-0.953619	-0.653472
C90	C	0.574918	-0.453619	-0.153472
C91	C	0.070994	-0.949171	-0.740666
C92	C	0.570994	-0.449171	-0.240666
C93	C	0.165871	-1.056722	-0.740641
C94	C	0.665871	-0.556722	-0.240641
C95	C	0.169799	-1.061163	-0.653452
C96	C	0.669799	-0.561163	-0.153452
C97	C	0.124319	-1.009616	-0.609872
C98	C	0.624319	-0.509616	-0.109872
C99	C	0.085138	-0.965193	-0.479342
C100	C	0.585138	-0.465193	0.020658
C101	C	0.128334	-1.014167	-0.520752
C102	C	0.628334	-0.514167	-0.020752
N103	N	0.116466	-1.000720	0.215753
N104	N	0.616466	-0.500720	0.715753
H105	H	-0.147520	-1.113389	-0.000067
H106	H	0.352480	-0.613389	0.499933
H107	H	0.210024	-1.106765	-0.617954
H108	H	0.710024	-0.606765	-0.117954
H109	H	-0.672896	-1.138386	-0.000049
H110	H	-0.172896	-0.638386	0.499951
Cl111	Cl	0.023043	-0.894791	-0.534168
Cl112	Cl	0.523043	-0.394791	-0.034168
H113	H	-0.113616	-0.840956	-0.000031
H114	H	0.386384	-0.340956	0.499969
H115	H	-0.021189	-0.577281	-0.000052
H116	H	0.478811	-0.077281	0.499948
Cl117	Cl	0.223040	-1.121523	-0.795432
Cl118	Cl	0.723040	-0.621523	-0.295432
Cl119	Cl	0.269136	-0.576645	-0.000032
Cl120	Cl	0.769136	-0.076645	0.499968
H121	H	0.030767	-0.903566	-0.776167
H122	H	0.530767	-0.403566	-0.276167
Cl123	Cl	-0.275485	-0.792818	-0.000014
Cl124	Cl	0.224515	-0.292818	0.499986
Cl125	Cl	-0.317656	-1.131751	-0.000056
Cl126	Cl	0.182344	-0.631751	0.499944
H127	H	0.175584	-1.067716	-0.382095
H128	H	0.675584	-0.567716	0.117905
Cl129	Cl	0.204598	-1.100584	-0.204615
Cl130	Cl	0.704598	-0.600584	0.295385
Cl131	Cl	0.190433	-1.084565	-0.465932
Cl132	Cl	0.690433	-0.584565	0.034068
H133	H	-0.491053	-0.879224	-0.000018
H134	H	0.008947	-0.379224	0.499982
H135	H	-0.023781	-0.419762	-0.000061
H136	H	0.476219	0.080238	0.499939
H137	H	-0.524947	-1.151658	-0.000054
H138	H	-0.024947	-0.651658	0.499946
H139	H	0.037884	-0.911645	-0.617999
H140	H	0.537884	-0.411645	-0.117999
Cl141	Cl	-0.652918	-0.831085	-0.000024
Cl142	Cl	-0.152918	-0.331085	0.499976
Cl143	Cl	-0.018425	-0.847792	-0.401452
Cl144	Cl	0.481575	-0.347792	0.098548
Cl145	Cl	-0.377545	-1.122575	-0.000041
Cl146	Cl	0.122455	-0.622575	0.499959
H147	H	0.234670	-0.402077	-0.000044
H148	H	0.734670	0.097923	0.499956
H149	H	-0.395050	-0.891641	-0.000031
H150	H	0.104950	-0.391641	0.499969
H151	H	0.010581	-0.880661	-0.223962
H152	H	0.510581	-0.380661	0.276038
