data_functionalizedCrystal
_audit_creation_method	'MofGen! by Chris Wilmer'
_symmetry_space_group_name_H-M	'P1'
_symmetry_Int_Tables_number	1
_symmetry_cell_setting	triclinic
loop_
_symmetry_equiv_pos_as_xyz
  x,y,z
_cell_length_a	9.798715
_cell_length_b	10.723024
_cell_length_c	14.519709
_cell_angle_alpha	95.925993
_cell_angle_beta	90.007495
_cell_angle_gamma	90.000034
loop_
_atom_site_label
_atom_site_type_symbol
_atom_site_fract_x
_atom_site_fract_y
_atom_site_fract_z
O1	O	0.113485	-1.655971	0.129352
O2	O	0.613485	-1.155971	0.629352
O3	O	0.113490	-1.292703	0.141734
O4	O	0.613490	-0.792703	0.641734
O5	O	0.113475	-1.483968	0.001354
O6	O	0.613475	-0.983968	0.501354
O7	O	0.113500	-1.464705	0.269732
O8	O	0.613500	-0.964705	0.769732
O9	O	-0.113507	-1.483968	0.001343
O10	O	0.386493	-0.983968	0.501343
O11	O	-0.113492	-1.292702	0.141723
O12	O	0.386508	-0.792702	0.641723
O13	O	-0.113497	-1.655970	0.129342
O14	O	0.386503	-1.155970	0.629342
Zn15	Zn	-0.149533	-1.474336	0.135531
Zn16	Zn	0.350467	-0.974336	0.635531
Zn17	Zn	0.149526	-1.474337	0.135545
Zn18	Zn	0.649526	-0.974337	0.635545
O19	O	-0.113482	-1.464705	0.269722
O20	O	0.386518	-0.964705	0.769722
C21	C	-0.000000	-1.246211	0.140827
C22	C	0.500000	-0.746211	0.640827
C23	C	0.000001	-1.107682	0.138132
C24	C	0.500001	-0.607682	0.638132
N25	N	0.353626	-1.474338	0.135547
N26	N	0.853626	-0.974338	0.635547
C27	C	-0.000016	-1.483070	-0.033016
C28	C	0.499984	-0.983070	0.466984
C29	C	-0.000017	-1.480380	-0.135411
C30	C	0.499983	-0.980380	0.364589
N31	N	-0.353632	-1.474345	0.135521
N32	N	0.146368	-0.974345	0.635521
C33	C	0.421396	-1.554820	0.076474
C34	C	0.921396	-1.054820	0.576474
C35	C	0.578559	-1.554825	0.076459
C36	C	1.078559	-1.054825	0.576459
C37	C	-0.000003	-1.702462	0.130248
C38	C	0.499997	-1.202462	0.630248
C39	C	0.000004	-1.840991	0.132944
C40	C	0.500004	-1.340991	0.632944
C41	C	0.000009	-1.031965	0.216681
C42	C	0.500009	-0.531965	0.716681
C43	C	0.000011	-0.888788	0.213896
C44	C	0.500011	-0.388788	0.713896
C45	C	0.000019	-1.470476	-0.510357
C46	C	0.500019	-0.970476	-0.010357
C47	C	0.000009	-1.473227	-0.406035
C48	C	0.500009	-0.973227	0.093965
C49	C	-0.000000	-1.475428	-0.322887
C50	C	0.500000	-0.975428	0.177113
C51	C	-0.000008	-1.478179	-0.218559
C52	C	0.499992	-0.978179	0.281441
C53	C	0.000012	-1.465603	0.304091
C54	C	0.500012	-0.965603	0.804091
C55	C	0.000022	-1.468293	0.406486
C56	C	0.500022	-0.968293	0.906486
H57	H	0.636839	-1.623724	0.025881
H58	H	1.136839	-1.123724	0.525881
H59	H	0.411956	-1.405442	0.186115
H60	H	0.911956	-0.905442	0.686115
C61	C	0.342609	-1.647901	0.008163
C62	C	0.842609	-1.147901	0.508163
H63	H	0.247314	-1.635680	0.017130
H64	H	0.747314	-1.135680	0.517130
H65	H	0.365962	-1.731227	0.018702
H66	H	0.865962	-1.231227	0.518702
H67	H	0.365934	-1.634200	-0.053495
H68	H	0.865934	-1.134200	0.446505
H69	H	0.588097	-1.405433	0.186095
H70	H	1.088097	-0.905433	0.686095
H71	H	0.000008	-1.073139	0.285991
H72	H	0.500008	-0.573139	0.785991
H73	H	0.000030	-1.066508	0.068822
H74	H	0.500030	-0.566508	0.568822
C75	C	0.000020	-0.800905	0.304741
C76	C	0.500020	-0.300905	0.804741
H77	H	0.000010	-0.716203	0.290952
H78	H	0.500010	-0.216203	0.790952
H79	H	0.079174	-0.816140	0.339663
H80	H	0.579174	-0.316140	0.839663
H81	H	-0.079144	-0.816139	0.339650
H82	H	0.420856	-0.316139	0.839650
C83	C	0.000002	-0.928861	0.042093
C84	C	0.500002	-0.428861	0.542093
H85	H	0.000009	-0.880300	-0.009057
H86	H	0.500009	-0.380300	0.490943
H87	H	-0.079148	-0.980251	0.039633
H88	H	0.420852	-0.480251	0.539633
H89	H	0.079169	-0.980238	0.039647
H90	H	0.579169	-0.480238	0.539647
