data_functionalizedCrystal
_audit_creation_method	'MofGen! by Chris Wilmer'
_symmetry_space_group_name_H-M	'P1'
_symmetry_Int_Tables_number	1
_symmetry_cell_setting	triclinic
loop_
_symmetry_equiv_pos_as_xyz
  x,y,z
_cell_length_a	6.817900
_cell_length_b	15.301048
_cell_length_c	12.200737
_cell_angle_alpha	94.046281
_cell_angle_beta	107.141108
_cell_angle_gamma	104.176180
loop_
_atom_site_label
_atom_site_type_symbol
_atom_site_fract_x
_atom_site_fract_y
_atom_site_fract_z
V1	V	-4.071808	-0.124970	-0.358015
O2	O	-4.054851	0.005789	-0.350836
O3	O	-4.026491	-0.247586	-0.355917
O4	O	-4.041468	-0.123143	-0.513999
O5	O	-4.039770	-0.119516	-0.191660
V6	V	-4.552696	-0.109318	-0.338076
O7	O	-4.338846	-0.159303	-0.401755
O8	O	-4.735855	-0.074986	-0.294336
O9	O	-4.374807	0.013298	-0.340174
O10	O	-4.687049	-0.240077	-0.345255
O11	O	-4.702130	-0.114772	-0.504431
O12	O	-4.359829	-0.111146	-0.182092
C13	C	-3.871657	-0.277474	-0.350359
C14	C	-3.916012	-0.377715	-0.349683
C15	C	-3.890761	-0.118733	-0.552007
C16	C	-3.947259	-0.118051	-0.679526
C17	C	-4.054217	-0.796546	-0.241646
C18	C	-4.012536	-0.702360	-0.242288
C19	C	-4.044519	-0.668208	-0.347697
C20	C	-4.118168	-0.728249	-0.452472
C21	C	-4.159834	-0.822433	-0.451828
C22	C	-4.031325	-0.531939	-0.453805
C23	C	-3.989660	-0.437748	-0.454449
C24	C	-3.884027	-0.411865	-0.244265
C25	C	-3.925693	-0.506049	-0.243621
C26	C	-3.999343	-0.566083	-0.348396
C27	C	-3.993140	-0.117495	-0.783086
C28	C	-4.050714	-0.116795	-0.913006
C29	C	-4.192982	0.043181	-0.345729
C30	C	-4.127866	0.143421	-0.346412
C31	C	-4.173877	-0.115558	-0.144078
C32	C	-4.096617	-0.116236	-0.016557
H33	H	-4.028177	-0.824344	-0.155809
F34	F	-4.109756	-0.595831	-0.565321
H35	H	-3.952574	-0.653484	-0.156976
H36	H	-3.899662	-0.533852	-0.157788
F37	F	-3.805568	-0.347970	-0.132753
H38	H	-4.015749	-0.409947	-0.540285
H39	H	-4.144194	-0.700435	-0.538298
H40	H	-4.219798	-0.871312	-0.537140
