data_functionalizedCrystal
_audit_creation_method	'MofGen! by Chris Wilmer'
_symmetry_space_group_name_H-M	'P1'
_symmetry_Int_Tables_number	1
_symmetry_cell_setting	triclinic
loop_
_symmetry_equiv_pos_as_xyz
  x,y,z
_cell_length_a	8.559649
_cell_length_b	15.995350
_cell_length_c	7.088929
_cell_angle_alpha	83.778427
_cell_angle_beta	95.325015
_cell_angle_gamma	76.635520
loop_
_atom_site_label
_atom_site_type_symbol
_atom_site_fract_x
_atom_site_fract_y
_atom_site_fract_z
O1	O	2.103728	-0.018745	-0.158958
O2	O	1.638524	0.024497	-0.158965
O3	O	1.883843	-0.119829	-0.158960
O4	O	1.858409	0.125582	-0.158964
O5	O	1.916627	-0.139156	0.159016
O6	O	1.671308	0.005171	0.159011
O7	O	2.136513	-0.038072	0.159018
Cu8	Cu	1.906904	-0.018215	0.188048
Cu9	Cu	1.868132	0.004641	-0.187995
O10	O	1.891194	0.106255	0.159012
C11	C	1.595386	0.018111	0.000022
C12	C	1.418005	0.027866	0.000019
C13	C	1.899183	-0.160619	0.000025
C14	C	1.896030	-0.253367	0.000014
C15	C	1.884710	-0.590386	0.000020
C16	C	1.709925	-0.531674	-0.000696
C17	C	1.713152	-0.435230	0.000021
C18	C	1.890325	-0.423187	0.000016
C19	C	1.995220	-0.480842	0.181594
C20	C	1.990847	-0.577205	0.181746
C21	C	1.957174	-0.555817	-0.179852
C22	C	1.956885	-0.458723	-0.182252
C23	C	1.893508	-0.328694	0.000020
C24	C	1.881533	-0.684880	0.000029
C25	C	2.179650	-0.031685	0.000027
C26	C	2.357029	-0.041439	0.000017
C27	C	1.875853	0.147046	0.000024
C28	C	1.879005	0.239793	0.000022
N29	N	1.934185	-0.034292	0.452537
N30	N	1.840864	0.020710	-0.452484
H31	H	1.440525	-0.108235	0.000009
N32	N	1.934412	-0.449050	0.360610
H33	H	2.023578	-0.431644	0.438755
H34	H	1.838951	-0.397357	0.324363
H35	H	1.880031	-0.419258	-0.316578
N36	N	2.168577	-0.473795	0.190513
H37	H	2.180811	-0.433059	0.076669
H38	H	2.198910	-0.450686	0.312195
H39	H	2.119966	-0.618201	0.189981
N40	N	1.307413	0.116349	0.000092
H41	H	1.373306	0.161208	0.000117
H42	H	1.225261	0.130668	-0.117767
H43	H	1.885862	-0.564318	-0.317478
H44	H	2.084957	-0.451003	-0.193219
N45	N	2.062325	-0.109791	0.560688
H46	H	2.040222	-0.165916	0.525963
H47	H	2.172141	-0.105309	0.525872
N48	N	1.635522	-0.562124	0.170828
H49	H	1.609032	-0.513745	0.251910
H50	H	1.533199	-0.579256	0.126353
N51	N	1.605649	-0.381325	-0.172384
H52	H	1.555731	-0.420144	-0.249533
H53	H	1.517221	-0.336639	-0.128863
N54	N	2.127634	-0.608754	-0.181488
H55	H	2.157836	-0.654909	-0.066345
H56	H	2.134290	-0.637099	-0.302027
H57	H	1.626669	-0.537801	-0.130908
N58	N	1.712727	0.096208	0.439388
H59	H	1.734837	0.152331	0.474116
H60	H	1.714704	0.094990	0.297473
N61	N	1.640656	-0.403007	0.172742
H62	H	1.642450	-0.340150	0.173924
H63	H	1.525287	-0.408692	0.167057
N64	N	1.926151	-0.607032	0.361536
H65	H	1.900733	-0.557582	0.439944
H66	H	1.824437	-0.626530	0.326198
