data_functionalizedCrystal
_audit_creation_method	'MofGen! by Chris Wilmer'
_symmetry_space_group_name_H-M	'P1'
_symmetry_Int_Tables_number	1
_symmetry_cell_setting	triclinic
loop_
_symmetry_equiv_pos_as_xyz
  x,y,z
_cell_length_a	15.624803
_cell_length_b	14.185569
_cell_length_c	19.288865
_cell_angle_alpha	103.113428
_cell_angle_beta	83.707209
_cell_angle_gamma	94.308746
loop_
_atom_site_label
_atom_site_type_symbol
_atom_site_fract_x
_atom_site_fract_y
_atom_site_fract_z
O1	O	1.078882	0.475999	0.180377
O2	O	0.837903	0.388319	0.174660
O3	O	0.965360	0.434674	0.076888
O4	O	0.951425	0.429643	0.278149
O5	O	1.003012	0.281533	0.048008
O6	O	0.875555	0.235178	0.145781
O7	O	1.116534	0.322858	0.151498
Cu8	Cu	0.999482	0.265035	0.146002
Cu9	Cu	0.954954	0.446142	0.180155
O10	O	0.989077	0.276503	0.249270
C11	C	0.825899	0.300530	0.157617
C12	C	0.734036	0.267105	0.149853
N13	N	1.030807	0.137656	0.121981
C14	C	0.329361	0.574651	0.203007
C15	C	0.243044	0.543242	0.195698
C16	C	0.284069	0.376287	0.164213
C17	C	0.370392	0.407682	0.171516
C18	C	0.393030	0.506865	0.190915
C19	C	0.434061	0.339896	0.159424
C20	C	0.520376	0.371289	0.166730
C21	C	0.543021	0.470468	0.186130
C22	C	0.479344	0.538258	0.198221
C23	C	0.411421	0.240713	0.140031
C24	C	0.475090	0.172927	0.127938
C25	C	0.561407	0.204319	0.135240
C26	C	0.584052	0.303498	0.154639
C27	C	0.625084	0.136529	0.123148
C28	C	0.711398	0.167922	0.130455
C29	C	0.670367	0.334891	0.161946
C30	C	0.831605	-0.302442	0.274717
C31	C	0.855339	-0.398832	0.256526
C32	C	0.968225	-0.357737	0.169985
C33	C	0.944498	-0.261342	0.188167
C34	C	0.876188	-0.233703	0.240534
C35	C	0.989081	-0.192604	0.153983
C36	C	0.965359	-0.096217	0.172166
C37	C	0.897053	-0.068569	0.224532
C38	C	0.852466	-0.137316	0.258716
C39	C	1.057394	-0.220243	0.101620
C40	C	1.101977	-0.151505	0.067436
C41	C	1.078251	-0.055117	0.085615
C42	C	1.009946	-0.027469	0.137982
C43	C	1.122838	0.013630	0.051431
C44	C	1.099116	0.110017	0.069614
C45	C	0.986224	0.068918	0.156164
C46	C	1.128537	0.410648	0.168541
C47	C	1.220399	0.444079	0.176306
C48	C	0.983738	0.357938	0.036539
C49	C	0.982395	0.357440	-0.040664
N50	N	0.923637	0.573523	0.204172
C51	C	1.057180	0.384646	-0.079959
C52	C	1.055912	0.384200	-0.152495
C53	C	0.979861	0.356530	-0.185735
C54	C	0.905065	0.329326	-0.146430
C55	C	0.906333	0.329781	-0.073894
C56	C	0.933264	0.281135	-0.308457
C57	C	0.932002	0.280675	-0.380993
C58	C	0.975948	0.355129	-0.409459
C59	C	1.021175	0.430035	-0.365384
C60	C	1.022442	0.430490	-0.292848
C61	C	0.978478	0.356034	-0.264388
C62	C	1.049364	0.381854	-0.527406
C63	C	1.048092	0.381414	-0.599942
C64	C	0.897245	0.326529	-0.593877
C65	C	0.898517	0.326980	-0.521341
C66	C	0.974579	0.354639	-0.488111
C67	C	0.970698	0.353241	0.289619
C68	C	0.972039	0.353744	0.366823
H69	H	0.688799	0.415656	0.177740
Cl70	Cl	1.079288	0.524658	-0.237441
Cl71	Cl	0.801635	0.291748	-0.635657
H72	H	0.497777	0.619023	0.214015
Cl73	Cl	0.302909	0.201247	0.130849
H74	H	0.845432	0.307626	-0.041899
Cl75	Cl	0.766580	-0.102570	0.324543
H76	H	0.613304	0.496026	0.192083
H77	H	0.775975	-0.279941	0.317354
H78	H	0.837620	0.304821	-0.489347
H79	H	0.819028	-0.454798	0.284368
H80	H	0.347793	0.655416	0.218801
H81	H	0.191204	0.598449	0.205549
H82	H	0.265625	0.295531	0.148421
H83	H	0.456645	0.092171	0.112146
Cl84	Cl	0.596611	0.011846	0.098774
H85	H	0.895171	0.219686	-0.416872
H86	H	1.157598	-0.174020	0.024800
Cl87	Cl	0.791444	0.082705	0.115254
H88	H	0.930593	0.091419	0.198801
H89	H	0.843143	0.306798	-0.173498
H90	H	1.178462	-0.008885	0.008798
H91	H	0.897477	0.220500	-0.285287
Cl92	Cl	1.155168	0.196435	0.026641
H93	H	0.877742	0.009918	0.239338
Cl94	Cl	1.144984	0.416620	-0.485629
Cl95	Cl	1.054099	-0.392490	0.104156
H96	H	1.076709	-0.298728	0.086820
Cl97	Cl	1.152795	0.419443	-0.038183
Cl98	Cl	1.149934	0.418405	-0.201905
Cl99	Cl	1.076425	0.523642	-0.401161
Cl100	Cl	1.142114	0.415624	-0.649342
