data_functionalizedCrystal
_audit_creation_method	'MofGen! by Chris Wilmer'
_symmetry_space_group_name_H-M	'P1'
_symmetry_Int_Tables_number	1
_symmetry_cell_setting	triclinic
loop_
_symmetry_equiv_pos_as_xyz
  x,y,z
_cell_length_a	13.033289
_cell_length_b	13.032905
_cell_length_c	13.032268
_cell_angle_alpha	103.285392
_cell_angle_beta	90.908951
_cell_angle_gamma	74.797067
loop_
_atom_site_label
_atom_site_type_symbol
_atom_site_fract_x
_atom_site_fract_y
_atom_site_fract_z
Zn1	Zn	1.451210	0.335355	0.817668
Zn2	Zn	1.951210	0.835355	1.317668
Zn3	Zn	1.451078	0.490452	0.662592
Zn4	Zn	1.951078	0.990452	1.162592
Zn5	Zn	1.301863	0.329699	0.623263
Zn6	Zn	1.801863	0.829699	1.123263
Zn7	Zn	1.250969	0.535501	0.817588
Zn8	Zn	1.750969	1.035501	1.317588
O9	O	1.363780	0.422752	0.730278
O10	O	1.863780	0.922752	1.230278
O11	O	1.597441	0.339443	0.813589
O12	O	2.097441	0.839443	1.313589
O13	O	1.452529	0.447907	0.511149
O14	O	1.952529	0.947907	1.011149
O15	O	1.343029	0.179411	0.632626
O16	O	1.843029	0.679411	1.132626
O17	O	1.597344	0.453392	0.699656
O18	O	2.097344	0.953392	1.199656
O19	O	1.452753	0.183567	0.775454
O20	O	1.952753	0.683567	1.275454
O21	O	1.342901	0.329803	0.482255
O22	O	1.842901	0.829803	0.982255
O23	O	1.148863	0.373485	0.632548
O24	O	1.648863	0.873485	1.132548
O25	O	1.256287	0.530171	0.963824
O26	O	1.756287	1.030171	1.463824
O27	O	1.111472	0.524687	0.775318
O28	O	1.611472	1.024687	1.275318
O29	O	1.403403	0.383125	0.963883
O30	O	1.903403	0.883125	1.463883
O31	O	1.403179	0.647465	0.699578
O32	O	1.903179	1.147465	1.199578
O33	O	1.256159	0.680563	0.813453
O34	O	1.756159	1.180563	1.313453
C35	C	1.092247	0.453361	0.699657
C36	C	1.592247	0.953361	1.199657
C37	C	0.976076	0.466486	0.686586
C38	C	1.476076	0.966486	1.186586
C39	C	1.324157	0.703176	0.760801
C40	C	1.824157	1.203176	1.260801
C41	C	1.307297	0.823138	0.773904
C42	C	1.807297	1.323138	1.273904
C43	C	1.324183	0.462304	1.002828
C44	C	1.824183	0.962304	1.502828
C45	C	1.307309	0.479159	1.118973
C46	C	1.807309	0.979159	1.618973
C47	C	1.636373	0.392023	0.761018
C48	C	2.136373	0.892023	1.261018
C49	C	1.752536	0.378928	0.774118
C50	C	2.252536	0.878928	1.274118
C51	C	1.804277	0.429470	0.723586
C52	C	2.304277	0.929470	1.223586
C53	C	1.924338	0.415937	0.737124
C54	C	2.424338	0.915937	1.237124
C55	C	1.355150	0.984196	0.736994
C56	C	1.855150	1.484196	1.236994
C57	C	1.372578	0.860209	0.723451
C58	C	1.872578	1.360209	1.223451
C59	C	1.403552	1.141233	0.699645
C60	C	1.903552	1.641233	1.199645
C61	C	1.420422	1.021272	0.686547
C62	C	1.920422	1.521272	1.186547
C63	C	1.403294	0.383268	0.458786
C64	C	1.903294	0.883268	0.958786
C65	C	1.420414	0.366086	0.342632
C66	C	1.920414	0.866086	0.842632
C67	C	1.372576	0.413918	1.170783
C68	C	1.872576	0.913918	1.670783
C69	C	1.355137	0.431337	1.290824
C70	C	1.855137	0.931337	1.790824
H71	H	1.759692	0.482754	0.670297
H72	H	2.259692	0.982754	1.170297
C73	C	1.465506	0.321041	1.110659
C74	C	1.965506	0.821041	1.610659
H75	H	1.465040	0.321523	1.037866
H76	H	1.965040	0.821523	1.537866
H77	H	1.457897	0.252814	1.118882
H78	H	1.957897	0.752814	1.618882
H79	H	1.530921	0.331501	1.138131
H80	H	2.030921	0.831501	1.638131
H81	H	1.238515	0.547904	1.163485
H82	H	1.738515	1.047904	1.663485
C83	C	1.984556	0.343947	0.809116
C84	C	2.484556	0.843947	1.309116
H85	H	2.057348	0.344302	0.808778
H86	H	2.557348	0.844302	1.308778
H87	H	1.979194	0.271204	0.783946
H88	H	2.479194	0.771204	1.283946
H89	H	1.954283	0.371940	0.879050
H90	H	2.454283	0.871940	1.379050
C91	C	1.214370	0.904244	0.845803
C92	C	1.714370	1.404244	1.345803
H93	H	1.214841	0.976937	0.845472
H94	H	1.714841	1.476937	1.345472
H95	H	1.221984	0.894253	0.915738
H96	H	1.721984	1.394253	1.415738
H97	H	1.148950	0.891587	0.820540
H98	H	1.648950	1.391587	1.320540
C99	C	1.465498	0.779101	0.651544
C100	C	1.965498	1.279101	1.151544
H101	H	1.465015	0.706408	0.651864
H102	H	1.965015	1.206408	1.151864
H103	H	1.530921	0.791752	0.676788
H104	H	2.030921	1.291752	1.176788
H105	H	1.457867	0.789094	0.581605
H106	H	1.957867	1.289094	1.081605
C107	C	1.915866	0.538480	0.614593
C108	C	2.415866	1.038480	1.114593
H109	H	1.963900	0.568427	0.584641
H110	H	2.463900	1.068427	1.084641
H111	H	1.860824	0.596073	0.654908
H112	H	2.360824	1.096073	1.154908
H113	H	1.885742	0.495341	0.559801
H114	H	2.385742	0.995341	1.059801
C115	C	1.513337	0.940161	0.614645
C116	C	2.013337	1.440161	1.114645
H117	H	1.512854	0.867468	0.614965
H118	H	2.012854	1.367468	1.114965
H119	H	1.578760	0.952812	0.639888
H120	H	2.078760	1.452812	1.139888
H121	H	1.505705	0.950153	0.544706
H122	H	2.005705	1.450153	1.044706
H123	H	1.797124	0.325634	0.827398
H124	H	2.297124	0.825634	1.327398
H125	H	1.286368	1.044244	0.790214
H126	H	1.786368	1.544244	1.290214
C127	C	1.262208	0.524224	1.350946
C128	C	1.762208	1.024224	1.850946
H129	H	1.262684	0.523753	1.423741
H130	H	1.762684	1.023753	1.923741
H131	H	1.196791	0.513783	1.323477
H132	H	1.696791	1.013783	1.823477
H133	H	1.269836	0.592451	1.342723
H134	H	1.769836	1.092451	1.842723
C135	C	1.513347	0.273202	1.282514
C136	C	2.013347	0.773202	1.782514
H137	H	1.512882	0.273681	1.209720
H138	H	2.012882	0.773681	1.709720
H139	H	1.505735	0.204977	1.290739
H140	H	2.005735	0.704977	1.790739
H141	H	1.578763	0.283660	1.309985
H142	H	2.078763	0.783660	1.809985
