data_functionalizedCrystal
_audit_creation_method	'MofGen! by Chris Wilmer'
_symmetry_space_group_name_H-M	'P1'
_symmetry_Int_Tables_number	1
_symmetry_cell_setting	triclinic
loop_
_symmetry_equiv_pos_as_xyz
  x,y,z
_cell_length_a	16.109301
_cell_length_b	15.995292
_cell_length_c	15.186229
_cell_angle_alpha	89.999448
_cell_angle_beta	89.999006
_cell_angle_gamma	83.465100
loop_
_atom_site_label
_atom_site_type_symbol
_atom_site_fract_x
_atom_site_fract_y
_atom_site_fract_z
O1	O	1.103137	0.107628	-0.073174
O2	O	1.603137	0.607628	0.426826
O3	O	0.861076	0.121022	-0.073185
O4	O	1.361076	0.621022	0.426815
O5	O	0.988749	-0.007568	-0.073181
O6	O	1.488749	0.492432	0.426819
O7	O	0.975465	0.236218	-0.073179
O8	O	1.475465	0.736218	0.426821
O9	O	0.988740	-0.007570	0.073277
O10	O	1.488740	0.492430	0.573277
O11	O	0.861068	0.121020	0.073272
O12	O	1.361068	0.621020	0.573272
O13	O	1.103129	0.107626	0.073283
O14	O	1.603129	0.607626	0.573283
Zn15	Zn	0.982097	0.114323	0.096531
Zn16	Zn	1.482097	0.614323	0.596531
Zn17	Zn	0.982108	0.114325	-0.096433
Zn18	Zn	1.482108	0.614325	0.403567
O19	O	0.975456	0.236216	0.073279
O20	O	1.475456	0.736216	0.573279
C21	C	0.830097	0.120478	0.000042
C22	C	1.330097	0.620478	0.500042
C23	C	0.737802	0.118852	0.000037
C24	C	1.237802	0.618852	0.500037
C25	C	0.428808	0.189837	0.000053
C26	C	0.928808	0.689837	0.500053
C27	C	0.515528	0.191373	0.000048
C28	C	1.015528	0.691373	0.500048
C29	C	0.535392	0.038805	0.000035
C30	C	1.035392	0.538805	0.500035
C31	C	0.448673	0.037270	0.000034
C32	C	0.948673	0.537270	0.500034
C33	C	0.395383	0.112788	0.000047
C34	C	0.895383	0.612788	0.500047
C35	C	0.568822	0.115860	0.000043
C36	C	1.068822	0.615860	0.500043
C37	C	0.662848	0.117525	0.000038
C38	C	1.162848	0.617525	0.500038
C39	C	0.301351	0.111123	0.000051
C40	C	0.801351	0.611123	0.500051
C41	C	0.988204	-0.038764	0.000046
C42	C	1.488204	0.461236	0.500046
C43	C	0.986583	-0.131717	0.000039
C44	C	1.486583	0.368283	0.500039
C45	C	0.980624	-0.469454	0.000047
C46	C	1.480624	0.030546	0.500047
C47	C	1.072775	-0.446166	0.000378
C48	C	1.572775	0.053834	0.500378
C49	C	1.074526	-0.349491	0.000045
C50	C	1.574526	0.150509	0.500045
C51	C	0.983581	-0.301898	0.000043
C52	C	1.483581	0.198102	0.500043
C53	C	0.937515	-0.330986	-0.083590
C54	C	1.437515	0.169014	0.416410
C55	C	0.936405	-0.427776	-0.083657
C56	C	1.436405	0.072224	0.416343
C57	C	0.934514	-0.427635	0.082892
C58	C	1.434514	0.072365	0.582892
C59	C	0.937929	-0.331143	0.083994
C60	C	1.437929	0.168857	0.583994
C61	C	0.985247	-0.207203	0.000039
C62	C	1.485247	0.292797	0.500039
C63	C	0.978955	-0.564149	0.000046
C64	C	1.478955	-0.064149	0.500046
C65	C	1.134108	0.108170	0.000054
C66	C	1.634108	0.608170	0.500054
C67	C	1.226403	0.109796	0.000053
C68	C	1.726403	0.609796	0.500053
C69	C	0.976001	0.267412	0.000050
C70	C	1.476001	0.767412	0.500050
C71	C	0.977622	0.360365	0.000051
C72	C	1.477622	0.860365	0.500051
N73	N	0.982095	0.114321	0.228224
N74	N	1.482095	0.614321	0.728224
N75	N	0.982116	0.114321	-0.228126
N76	N	1.482116	0.614321	0.271874
C77	C	1.038648	0.057400	0.453948
C78	C	1.538648	0.557400	0.953948
C79	C	1.038650	0.057398	0.546138
C80	C	1.538650	0.557398	1.046138
C81	C	0.925557	0.171244	0.546143
C82	C	1.425557	0.671244	1.046143
C83	C	0.925552	0.171241	0.453955
C84	C	1.425552	0.671241	0.953955
C85	C	0.982101	0.114320	0.407860
C86	C	1.482101	0.614320	0.907860
C87	C	0.982110	0.114321	0.592238
C88	C	1.482110	0.614321	1.092238
C89	C	0.982112	0.114319	0.692194
C90	C	1.482112	0.614319	1.192194
C91	C	0.982098	0.114321	0.307898
C92	C	1.482098	0.614321	0.807898
H93	H	0.421459	-0.025476	0.000026
H94	H	0.921459	0.474524	0.500026
H95	H	0.868840	-0.442308	-0.087448
H96	H	1.368840	0.057692	0.412552
H97	H	0.578791	-0.022679	0.000026
H98	H	1.078791	0.477321	0.500026
Br99	Br	1.134634	-0.317791	0.099983
Br100	Br	1.634634	0.182209	0.599983
H101	H	0.385421	0.251328	0.000063
H102	H	0.885421	0.751328	0.500063
Br103	Br	0.848816	0.248492	0.608703
Br104	Br	1.348816	0.748492	1.108703
H105	H	1.108290	-0.474174	0.060356
H106	H	1.608290	0.025826	0.560356
Br107	Br	0.560887	0.295943	0.000048
Br108	Br	1.060887	0.795943	0.500048
H109	H	1.108100	-0.475193	-0.059259
H110	H	1.608100	0.024807	0.440741
Br111	Br	0.990843	-0.297570	-0.187329
Br112	Br	1.490843	0.202430	0.312671
H113	H	1.110824	-0.331096	-0.060008
H114	H	1.610824	0.168904	0.439992
H115	H	0.879501	0.217593	0.416427
H116	H	1.379501	0.717593	0.916427
Br117	Br	0.982555	-0.474817	0.188547
Br118	Br	1.482555	0.025183	0.688547
Br119	Br	0.989596	-0.472491	-0.187852
Br120	Br	1.489596	0.027509	0.312148
H121	H	0.870591	-0.299100	-0.086701
H122	H	1.370591	0.200900	0.413299
Br123	Br	0.993828	-0.300210	0.187122
Br124	Br	1.493828	0.199790	0.687122
H125	H	0.871547	-0.298156	0.089044
H126	H	1.371547	0.201844	0.589044
H127	H	0.866684	-0.441607	0.083454
H128	H	1.366684	0.058393	0.583454
H129	H	1.084693	0.011051	0.416420
H130	H	1.584693	0.511051	0.916420
H131	H	1.084695	0.011048	0.583661
H132	H	1.584695	0.511048	1.083661
