data_functionalizedCrystal
_audit_creation_method	'MofGen! by Chris Wilmer'
_symmetry_space_group_name_H-M	'P1'
_symmetry_Int_Tables_number	1
_symmetry_cell_setting	triclinic
loop_
_symmetry_equiv_pos_as_xyz
  x,y,z
_cell_length_a	17.699077
_cell_length_b	9.065218
_cell_length_c	7.540329
_cell_angle_alpha	90.001757
_cell_angle_beta	89.997601
_cell_angle_gamma	95.851769
loop_
_atom_site_label
_atom_site_type_symbol
_atom_site_fract_x
_atom_site_fract_y
_atom_site_fract_z
O1	O	1.005532	-0.186513	-0.147452
O2	O	0.785342	-0.210794	-0.147460
O3	O	0.899988	0.016124	-0.147452
O4	O	0.890886	-0.413431	-0.147459
O5	O	0.899981	0.016126	0.147513
O6	O	0.785335	-0.210792	0.147505
O7	O	1.005525	-0.186510	0.147513
Cu8	Cu	0.895429	-0.198651	0.174442
Cu9	Cu	0.895437	-0.198654	-0.174388
O10	O	0.890879	-0.413428	0.147506
C11	C	0.757135	-0.209924	0.000022
C12	C	0.673096	-0.207319	0.000019
C13	C	0.633615	-0.206089	0.160806
C14	C	0.554653	-0.203618	0.160808
C15	C	0.515173	-0.202386	0.000021
C16	C	0.554660	-0.203611	-0.160779
C17	C	0.633621	-0.206072	-0.160779
C18	C	0.236219	-0.193683	-0.160782
C19	C	0.157252	-0.191226	-0.160770
C20	C	0.157252	-0.191229	0.160805
C21	C	0.236213	-0.193690	0.160805
C22	C	0.275693	-0.194907	0.000006
C23	C	0.361312	-0.197584	0.000006
C24	C	0.429554	-0.199719	0.000019
C25	C	0.899110	0.071086	0.000028
C26	C	0.896494	0.234851	0.000019
C27	C	1.033732	-0.187380	0.000028
C28	C	1.117771	-0.189986	0.000019
C29	C	0.891757	-0.468390	0.000022
C30	C	0.894373	-0.632156	0.000019
N31	N	0.895429	-0.198648	0.419790
N32	N	0.895444	-0.198645	-0.419737
H33	H	0.125110	-0.190221	-0.291710
H34	H	0.665754	-0.207105	0.291738
H35	H	0.522513	-0.202592	0.291737
H36	H	0.522509	-0.202597	-0.291695
C37	C	0.279638	-0.195036	0.337670
H38	H	0.244816	-0.193935	0.433432
H39	H	0.305258	-0.281988	0.344360
H40	H	0.315623	-0.109985	0.344343
H41	H	0.125098	-0.190231	0.291735
H42	H	0.665765	-0.207076	-0.291709
H43	H	0.268354	-0.194669	-0.291715
