data_functionalizedCrystal
_audit_creation_method	'MofGen! by Chris Wilmer'
_symmetry_space_group_name_H-M	'P1'
_symmetry_Int_Tables_number	1
_symmetry_cell_setting	triclinic
loop_
_symmetry_equiv_pos_as_xyz
  x,y,z
_cell_length_a	19.805407
_cell_length_b	15.297327
_cell_length_c	19.805399
_cell_angle_alpha	99.649417
_cell_angle_beta	89.980427
_cell_angle_gamma	99.707092
loop_
_atom_site_label
_atom_site_type_symbol
_atom_site_fract_x
_atom_site_fract_y
_atom_site_fract_z
Zn1	Zn	0.988098	-0.359189	-0.429336
Zn2	Zn	1.488098	0.140811	0.070664
Zn3	Zn	0.968423	-0.510058	-0.335728
Zn4	Zn	1.468423	-0.010058	0.164272
Zn5	Zn	0.874909	-0.359214	-0.316164
Zn6	Zn	1.374909	0.140786	0.183836
Zn7	Zn	0.855293	-0.510010	-0.448869
Zn8	Zn	1.355293	-0.010010	0.051131
O9	O	0.921681	-0.434618	-0.382524
O10	O	1.421681	0.065382	0.117476
O11	O	1.080203	-0.379212	-0.416932
O12	O	1.580203	0.120788	0.083068
O13	O	0.955994	-0.490079	-0.238420
O14	O	1.455994	0.009921	0.261580
O15	O	0.906367	-0.232963	-0.314814
O16	O	1.406367	0.267037	0.185186
O17	O	1.065749	-0.490055	-0.348159
O18	O	1.565749	0.009945	0.151841
O19	O	0.989526	-0.232945	-0.397962
O20	O	1.489526	0.267055	0.102038
O21	O	0.887290	-0.379254	-0.224047
O22	O	1.387290	0.120746	0.275953
O23	O	0.777592	-0.379208	-0.333754
O24	O	1.277592	0.120792	0.166246
O25	O	0.872934	-0.489973	-0.540990
O26	O	1.372934	0.010027	-0.040990
O27	O	0.763180	-0.489997	-0.431252
O28	O	1.263180	0.010003	0.068748
O29	O	0.970505	-0.379166	-0.526640
O30	O	1.470505	0.120834	-0.026640
O31	O	0.936973	-0.636300	-0.367099
O32	O	1.436973	-0.136300	0.132901
O33	O	0.853857	-0.636265	-0.450222
O34	O	1.353857	-0.136265	0.049778
C35	C	0.745827	-0.434601	-0.382500
C36	C	1.245827	0.065399	0.117500
C37	C	0.670593	-0.434615	-0.382509
C38	C	1.170593	0.065385	0.117491
C39	C	0.891170	-0.669017	-0.412918
C40	C	1.391170	-0.169017	0.087082
C41	C	0.878179	-0.769294	-0.425943
C42	C	1.378179	-0.269294	0.074057
C43	C	0.627751	-0.492390	-0.433217
C44	C	1.127751	0.007610	0.066783
C45	C	0.557063	-0.492392	-0.433227
C46	C	1.057063	0.007608	0.066773
C47	C	0.529217	-0.434622	-0.382525
C48	C	1.029217	0.065378	0.117475
C49	C	0.572065	-0.376841	-0.331814
C50	C	1.072065	0.123159	0.168186
C51	C	0.642752	-0.376835	-0.331808
C52	C	1.142752	0.123165	0.168192
C53	C	0.286989	-0.376861	-0.331839
C54	C	0.786989	0.123139	0.168161
C55	C	0.216295	-0.376873	-0.331848
C56	C	0.716295	0.123127	0.168152
C57	C	0.201299	-0.492417	-0.433258
C58	C	0.701299	0.007583	0.066742
C59	C	0.271987	-0.492412	-0.433252
C60	C	0.771987	0.007588	0.066748
C61	C	0.314829	-0.434627	-0.382543
C62	C	0.814829	0.065373	0.117457
C63	C	0.391477	-0.434625	-0.382534
C64	C	0.891477	0.065375	0.117466
C65	C	0.452569	-0.434628	-0.382531
C66	C	0.952569	0.065372	0.117469
C67	C	1.014807	-1.051906	-0.289663
C68	C	1.514807	-0.551906	0.210337
C69	C	1.027012	-0.957691	-0.277422
C70	C	1.527012	-0.457691	0.222578
C71	C	0.989805	-0.910587	-0.314551
C72	C	1.489805	-0.410587	0.185449
C73	C	0.940391	-0.957708	-0.363923
C74	C	1.440391	-0.457708	0.136077
C75	C	0.928180	-1.051932	-0.376162
C76	C	1.428180	-0.551932	0.123838
C77	C	0.903178	-0.910613	-0.401050
C78	C	1.403178	-0.410613	0.098950
C79	C	0.853764	-0.957734	-0.450423
C80	C	1.353764	-0.457734	0.049577
C81	C	0.841556	-1.051949	-0.462659
C82	C	1.341556	-0.551949	0.037341
C83	C	0.878763	-1.099053	-0.425530
C84	C	1.378763	-0.599053	0.074470
C85	C	0.915389	-0.816389	-0.388812
C86	C	1.415389	-0.316389	0.111188
C87	C	0.828762	-0.816415	-0.475311
C88	C	1.328762	-0.316415	0.024689
C89	C	0.816557	-0.910630	-0.487552
C90	C	1.316557	-0.410630	0.012448
C91	C	1.098221	-0.434636	-0.382549
C92	C	1.598221	0.065364	0.117451
C93	C	1.173452	-0.434644	-0.382559
C94	C	1.673452	0.065356	0.117441
C95	C	0.921726	-0.434561	-0.559060
C96	C	1.421726	0.065439	-0.059060
C97	C	0.921746	-0.434537	-0.634289
C98	C	1.421746	0.065463	-0.134289
C99	C	0.952329	-0.199304	-0.352027
C100	C	1.452329	0.300696	0.147973
C101	C	0.965390	-0.099027	-0.339031
C102	C	1.465390	0.400973	0.160969
C103	C	0.972552	-0.376837	-0.662161
C104	C	1.472552	0.123163	-0.162161
C105	C	0.972562	-0.376810	-0.732846
C106	C	1.472562	0.123190	-0.232846
C107	C	0.921768	-0.434490	-0.775658
C108	C	1.421768	0.065510	-0.275658
C109	C	0.870957	-0.492193	-0.747781
C110	C	1.370957	0.007807	-0.247781
C111	C	0.870944	-0.492214	-0.677096
C112	C	1.370944	0.007786	-0.177096
C113	C	0.871006	-0.492109	-1.032843
C114	C	1.371006	0.007891	-0.532843
C115	C	0.871024	-0.492085	-1.103533
C116	C	1.371024	0.007915	-0.603533
C117	C	0.972624	-0.376705	-1.088593
C118	C	1.472624	0.123295	-0.588593
C119	C	0.972612	-0.376726	-1.017909
C120	C	1.472612	0.123274	-0.517909
C121	C	0.921798	-0.434426	-0.990037
C122	C	1.421798	0.065574	-0.490037
C123	C	0.921787	-0.434452	-0.913392
C124	C	1.421787	0.065548	-0.413392
C125	C	0.921782	-0.434469	-0.852303
C126	C	1.421782	0.065531	-0.352303
C127	C	0.921683	-0.434610	-0.206667
C128	C	1.421683	0.065390	0.293333
C129	C	0.921828	-0.434380	-0.131406
C130	C	1.421828	0.065620	0.368594
H131	H	0.650417	-0.539436	-0.474502
H132	H	1.150417	-0.039436	0.025498
H133	H	0.868830	-1.175770	-0.435496
H134	H	1.368830	-0.675770	0.064504
Br135	Br	0.802017	-0.570468	-0.805881
Br136	Br	1.302017	-0.070468	-0.305881
Br137	Br	0.774489	-1.115897	-0.529660
Br138	Br	1.274489	-0.615897	-0.029660
Br139	Br	0.778257	-0.752496	-0.525697
Br140	Br	1.278257	-0.252496	-0.025697
H141	H	1.013916	-0.329870	-0.627308
H142	H	1.513916	0.170130	-0.127308
H143	H	0.677635	-0.329784	-0.290519
H144	H	1.177635	0.170216	0.209481
Br145	Br	0.309773	-0.570821	-0.502060
Br146	Br	0.809773	-0.070821	-0.002060
Br147	Br	1.041543	-0.298541	-0.770676
Br148	Br	1.541543	0.201459	-0.270676
H149	H	0.549387	-0.329800	-0.290534
H150	H	1.049387	0.170200	0.209466
Br151	Br	0.982448	-0.752451	-0.321807
Br152	Br	1.482448	-0.252451	0.178193
H153	H	0.522183	-0.539439	-0.474518
H154	H	1.022183	-0.039439	0.025482
H155	H	1.013997	-0.329721	-1.111294
H156	H	1.513997	0.170279	-0.611294
Br157	Br	1.094078	-0.893748	-0.210425
Br158	Br	1.594078	-0.393748	0.289575
H159	H	0.999745	-0.833873	-0.304581
H160	H	1.499745	-0.333873	0.195419
H161	H	0.776322	-0.949009	-0.527751
H162	H	1.276322	-0.449009	-0.027751
H163	H	0.829566	-0.539190	-0.654403
H164	H	1.329566	-0.039190	-0.154403
Br165	Br	1.065293	-1.115835	-0.239276
Br166	Br	1.565293	-0.615835	0.260724
Br167	Br	0.802085	-0.570371	-1.161635
Br168	Br	1.302085	-0.070371	-0.661635
Br169	Br	0.143152	-0.570842	-0.502077
Br170	Br	0.643152	-0.070842	-0.002077
Br171	Br	1.041552	-0.298449	-0.959811
Br172	Br	1.541552	0.201551	-0.459811
Br173	Br	0.802044	-0.570413	-0.995026
Br174	Br	1.302044	-0.070413	-0.495026
H175	H	0.193626	-0.329824	-0.290560
H176	H	0.693626	0.170176	0.209440
Br177	Br	0.345123	-0.298434	-0.263023
Br178	Br	0.845123	0.201566	0.236977
