data_functionalizedCrystal
_audit_creation_method	'MofGen! by Chris Wilmer'
_symmetry_space_group_name_H-M	'P1'
_symmetry_Int_Tables_number	1
_symmetry_cell_setting	triclinic
loop_
_symmetry_equiv_pos_as_xyz
  x,y,z
_cell_length_a	15.538191
_cell_length_b	10.489741
_cell_length_c	14.750779
_cell_angle_alpha	77.226586
_cell_angle_beta	97.572172
_cell_angle_gamma	65.905634
loop_
_atom_site_label
_atom_site_type_symbol
_atom_site_fract_x
_atom_site_fract_y
_atom_site_fract_z
O1	O	1.226910	-0.375937	-0.079837
O2	O	0.953648	-0.229122	-0.079837
O3	O	1.096498	-0.491086	-0.079831
O4	O	1.084059	-0.113973	-0.079843
O5	O	1.136881	-0.565134	0.079820
O6	O	0.994030	-0.303170	0.079815
O7	O	1.267292	-0.449985	0.079814
Zn8	Zn	1.137073	-0.388334	0.105163
Zn9	Zn	1.083867	-0.290773	-0.105185
O10	O	1.124442	-0.188021	0.079809
C11	C	0.938847	-0.250786	-0.000011
C12	C	0.834584	-0.205032	-0.000010
C13	C	0.543710	-0.659589	-0.000011
C14	C	0.445735	-0.616562	-0.000013
C15	C	0.424932	-0.374552	-0.000021
C16	C	0.522908	-0.417560	-0.000014
C17	C	0.582289	-0.560080	-0.000010
C18	C	0.561488	-0.318051	-0.000013
C19	C	0.659454	-0.361054	-0.000011
C20	C	0.718840	-0.503566	-0.000011
C21	C	0.680255	-0.603083	-0.000009
C22	C	0.502103	-0.175529	-0.000023
C23	C	0.540683	-0.076020	-0.000022
C24	C	0.638652	-0.119026	-0.000013
C25	C	0.698039	-0.261538	-0.000013
C26	C	0.677237	-0.019509	-0.000015
C27	C	0.775203	-0.062512	-0.000014
C28	C	0.796005	-0.304540	-0.000011
C29	C	1.115750	-0.575195	-0.000006
C30	C	1.112940	-0.715488	-0.000008
C31	C	1.022047	-0.740411	-0.000014
C32	C	1.084893	-0.889457	0.078702
C33	C	1.045101	-0.816436	-0.078702
C34	C	1.175840	-0.862716	0.078774
C35	C	1.136017	-0.789647	-0.078701
C36	C	1.198935	-0.938706	0.000035
C37	C	1.282092	-0.428320	-0.000014
C38	C	1.386354	-0.474071	-0.000020
C39	C	1.105189	-0.103911	-0.000018
C40	C	1.107998	0.036385	-0.000023
N41	N	1.173391	-0.454921	0.248720
N42	N	1.047557	-0.224199	-0.248742
C43	C	0.946125	-0.038287	0.600530
C44	C	0.971581	-0.084942	0.701030
C45	C	1.098102	-0.316860	0.700997
C46	C	1.072654	-0.270227	0.600495
C47	C	0.996665	-0.130939	0.550269
C48	C	1.123193	-0.362879	0.550235
C49	C	1.097750	-0.316246	0.449741
C50	C	1.021766	-0.176962	0.399508
C51	C	0.971221	-0.084307	0.449776
C52	C	1.199186	-0.502162	0.600462
C53	C	1.249726	-0.594814	0.550202
C54	C	1.224278	-0.548186	0.449707
C55	C	1.148295	-0.408902	0.399474
C56	C	1.274823	-0.640842	0.399439
C57	C	1.249379	-0.594209	0.298946
C58	C	1.122851	-0.362270	0.298980
H59	H	0.798607	-0.538570	-0.000022
H60	H	1.159976	-0.430268	0.741903
H61	H	0.947337	-0.655267	0.000065
O62	O	0.897395	0.050925	0.400829
C63	C	0.885797	0.072222	0.301355
H64	H	0.916744	-0.038722	0.287626
H65	H	0.805117	0.136935	0.263176
H66	H	0.926151	0.135673	0.272824
H67	H	0.989797	-0.798241	-0.145257
H68	H	0.414329	-0.697605	-0.000016
O69	O	1.223911	-0.547705	0.698082
C70	C	1.212499	-0.675152	0.731658
H71	H	1.216574	-0.732081	0.673738
H72	H	1.272906	-0.752504	0.798875
H73	H	1.138791	-0.643930	0.749513
H74	H	0.884241	0.075129	0.559634
O75	O	1.288255	-1.039960	0.000134
C76	C	1.353442	-0.977926	0.000939
H77	H	1.325835	-0.882008	0.031540
H78	H	1.428374	-1.064265	0.047378
H79	H	1.358829	-0.937343	-0.075448
H80	H	0.592063	-0.775645	-0.000003
H81	H	1.157609	-0.746004	-0.145254
O82	O	1.058931	-0.941286	0.158024
C83	C	0.965644	-0.838138	0.157760
H84	H	0.924661	-0.764897	0.081158
H85	H	0.923708	-0.898044	0.187495
H86	H	0.973128	-0.768069	0.204413
O87	O	0.737867	-0.741465	-0.000173
C88	C	0.699335	-0.766247	-0.082843
H89	H	0.651693	-0.656818	-0.140637
H90	H	0.761462	-0.836535	-0.110597
H91	H	0.653693	-0.825427	-0.064145
H92	H	1.060966	-0.248853	0.258085
H93	H	1.001054	-0.138994	0.317680
O94	O	0.367123	-0.236192	0.000021
C95	C	0.272375	-0.219558	-0.000007
H96	H	0.275576	-0.331704	0.030214
H97	H	0.240224	-0.147435	0.046346
H98	H	0.224710	-0.166084	-0.076601
H99	H	1.231116	-0.881053	0.145397
O100	O	0.406920	-0.133858	-0.000154
C101	C	0.358977	-0.147491	-0.082848
H102	H	0.414533	-0.230157	-0.110407
H103	H	0.303249	-0.186829	-0.064249
H104	H	0.320380	-0.036514	-0.140753
H105	H	1.311600	-0.708222	0.591107
H106	H	0.930420	-0.009480	0.741947
O107	O	0.619419	0.118949	-0.000152
C108	C	0.541236	0.189422	-0.082856
H109	H	0.528625	0.103578	-0.110421
H110	H	0.472643	0.262253	-0.064269
H111	H	0.559219	0.259420	-0.140753
O112	O	1.348517	-0.776223	0.448281
C113	C	1.312425	-0.858385	0.506448
H114	H	1.230695	-0.812265	0.476182
H115	H	1.350342	-0.977687	0.507588
H116	H	1.327054	-0.851642	0.582608
H117	H	1.290536	-0.669656	0.258023
H118	H	0.844358	-0.420597	-0.000003
O119	O	0.812692	0.034165	-0.000174
C120	C	0.847850	0.054854	-0.082844
H121	H	0.809606	0.025964	-0.140641
H122	H	0.832753	0.174265	-0.110594
H123	H	0.929617	-0.018931	-0.064148
O124	O	0.483126	0.062397	0.000103
C125	C	0.521637	0.087137	0.082803
H126	H	0.602695	0.008715	0.110373
H127	H	0.510774	0.204994	0.064209
H128	H	0.482583	0.067710	0.140699
