data_functionalizedCrystal
_audit_creation_method	'MofGen! by Chris Wilmer'
_symmetry_space_group_name_H-M	'P1'
_symmetry_Int_Tables_number	1
_symmetry_cell_setting	triclinic
loop_
_symmetry_equiv_pos_as_xyz
  x,y,z
_cell_length_a	29.839126
_cell_length_b	11.169417
_cell_length_c	11.169416
_cell_angle_alpha	89.988973
_cell_angle_beta	89.984604
_cell_angle_gamma	90.016564
loop_
_atom_site_label
_atom_site_type_symbol
_atom_site_fract_x
_atom_site_fract_y
_atom_site_fract_z
Zn1	Zn	-0.253996	-1.834925	-0.477871
Zn2	Zn	-0.178877	-1.834827	-0.678556
Zn3	Zn	-0.178882	-1.634223	-0.477888
Zn4	Zn	-0.253983	-1.634219	-0.678514
O5	O	-0.216435	-1.734548	-0.578207
O6	O	-0.244034	-2.002862	-0.504502
O7	O	-0.116011	-1.808176	-0.651961
O8	O	-0.188854	-1.660889	-0.309936
O9	O	-0.188845	-2.002789	-0.651945
O10	O	-0.244039	-1.808344	-0.309924
O11	O	-0.116015	-1.660793	-0.504532
O12	O	-0.188841	-1.466272	-0.504491
O13	O	-0.316852	-1.660883	-0.651873
O14	O	-0.244017	-1.466270	-0.651890
O15	O	-0.316861	-1.808341	-0.504462
O16	O	-0.188832	-1.808173	-0.846500
O17	O	-0.244012	-1.660788	-0.846469
C18	C	-0.216429	-1.422724	-0.578189
C19	C	-0.216437	-1.289324	-0.578210
C20	C	-0.216430	-1.734502	-0.890032
C21	C	-0.216443	-1.734592	-1.023432
C22	C	-0.333613	-1.734623	-0.578161
C23	C	-0.383547	-1.734654	-0.578141
C24	C	-0.693196	-1.657936	-0.501255
C25	C	-0.880869	-1.657970	-0.501172
O26	O	-0.905138	-1.592681	-0.435920
N27	N	-0.904333	-1.734711	-0.577916
C28	C	-0.880875	-1.811444	-0.654693
O29	O	-0.905139	-1.876709	-0.719976
C30	C	-0.693203	-1.811403	-0.654781
C31	C	-0.669742	-1.734665	-0.578023
C32	C	-0.669734	-1.581204	-0.424504
C33	C	-0.622819	-1.581200	-0.424521
C34	C	-0.599365	-1.657930	-0.501289
C35	C	-0.622826	-1.734662	-0.578040
C36	C	-0.669746	-1.888129	-0.731563
C37	C	-0.622825	-1.888110	-0.731581
C38	C	-0.599364	-1.811372	-0.654822
C39	C	-0.552457	-1.811388	-0.654825
N40	N	-0.528993	-1.734647	-0.578080
C41	C	-0.552447	-1.657918	-0.501312
C42	C	-0.979406	-1.811462	-0.654639
C43	C	-1.026324	-1.811474	-0.654616
C44	C	-1.026314	-1.657998	-0.501096
C45	C	-0.979395	-1.657993	-0.501114
C46	C	-0.955942	-1.734720	-0.577895
C47	C	-0.453921	-1.657918	-0.501353
C48	C	-0.407001	-1.657925	-0.501373
C49	C	-0.407015	-1.811396	-0.654897
C50	C	-0.453931	-1.811394	-0.654873
C51	C	-0.477382	-1.734645	-0.578097
O52	O	-0.528159	-1.876633	-0.720053
O53	O	-0.528175	-1.592644	-0.436058
C54	C	-0.740111	-1.657939	-0.501238
C55	C	-0.763573	-1.734672	-0.577989
C56	C	-0.740118	-1.811401	-0.654757
C57	C	-0.810490	-1.734683	-0.577966
C58	C	-0.833945	-1.657954	-0.501198
C59	C	-0.810481	-1.581213	-0.424453
C60	C	-0.763565	-1.581210	-0.424470
C61	C	-0.763582	-1.888142	-0.731502
C62	C	-0.810498	-1.888140	-0.731478
C63	C	-0.833952	-1.811411	-0.654710
C64	C	-0.099712	-1.734543	-0.578166
C65	C	-0.049778	-1.734744	-0.577848
C66	C	-0.216441	-2.047591	-0.578226
C67	C	-0.216443	-2.180991	-0.578234
C68	C	-0.216449	-1.734628	-0.265165
C69	C	-0.216455	-1.734662	-0.131765
H70	H	-0.473010	-1.595423	-0.438834
H71	H	-0.688826	-1.518715	-0.361989
N72	N	-0.597531	-1.970865	-0.814401
H73	H	-0.619517	-2.019471	-0.863017
H74	H	-0.578072	-2.026424	-0.765567
N75	N	-0.954116	-1.894239	-0.737448
H76	H	-0.934656	-1.949865	-0.688685
H77	H	-0.934669	-1.845375	-0.793069
N78	N	-0.479239	-1.894174	-0.737643
H79	H	-0.457259	-1.942784	-0.786273
H80	H	-0.498696	-1.845307	-0.793180
N81	N	-0.381714	-1.894155	-0.737690
H82	H	-0.348432	-1.882364	-0.726186
H83	H	-0.389961	-1.875575	-0.823392
H84	H	-0.960296	-1.595507	-0.438610
N85	N	-0.597524	-1.498431	-0.341719
H86	H	-0.605685	-1.412678	-0.360351
H87	H	-0.564249	-1.510152	-0.353393
N88	N	-0.695044	-1.970893	-0.814357
H89	H	-0.673059	-2.019484	-0.862991
H90	H	-0.714502	-1.922023	-0.869889
H91	H	-1.045418	-1.595524	-0.438586
H92	H	-0.744467	-1.518722	-0.361965
H93	H	-0.829585	-1.518742	-0.361941
H94	H	-1.045422	-1.873975	-0.717107
H95	H	-0.829596	-1.950641	-0.793982
N96	N	-0.738289	-1.970902	-0.814308
H97	H	-0.760276	-2.019512	-0.862916
H98	H	-0.718831	-2.026458	-0.765465
H99	H	-0.387901	-1.595436	-0.438862
