data_functionalizedCrystal
_audit_creation_method	'MofGen! by Chris Wilmer'
_symmetry_space_group_name_H-M	'P1'
_symmetry_Int_Tables_number	1
_symmetry_cell_setting	triclinic
loop_
_symmetry_equiv_pos_as_xyz
  x,y,z
_cell_length_a	18.050590
_cell_length_b	19.805405
_cell_length_c	19.805399
_cell_angle_alpha	89.970699
_cell_angle_beta	89.997050
_cell_angle_gamma	90.015577
loop_
_atom_site_label
_atom_site_type_symbol
_atom_site_fract_x
_atom_site_fract_y
_atom_site_fract_z
Zn1	Zn	1.135329	-0.269675	-0.382411
Zn2	Zn	1.385329	-0.019675	-0.132411
Zn3	Zn	1.635329	0.230325	0.117589
Zn4	Zn	1.885329	0.480325	0.367589
Zn5	Zn	1.135236	-0.382863	-0.269220
Zn6	Zn	1.385236	-0.132863	-0.019220
Zn7	Zn	1.635236	0.117137	0.230780
Zn8	Zn	1.885236	0.367137	0.480780
Zn9	Zn	1.011140	-0.269672	-0.269269
Zn10	Zn	1.261140	-0.019672	-0.019269
Zn11	Zn	1.511140	0.230328	0.230731
Zn12	Zn	1.761140	0.480328	0.480731
Zn13	Zn	1.011100	-0.382806	-0.382399
Zn14	Zn	1.261100	-0.132806	-0.132399
Zn15	Zn	1.511100	0.117194	0.117601
Zn16	Zn	1.761100	0.367194	0.367601
O17	O	1.073201	-0.326254	-0.325825
O18	O	1.323201	-0.076254	-0.075825
O19	O	1.573201	0.173746	0.174175
O20	O	1.823201	0.423746	0.424175
O21	O	1.239241	-0.284714	-0.367381
O22	O	1.489241	-0.034714	-0.117381
O23	O	1.739241	0.215286	0.132619
O24	O	1.989241	0.465286	0.382619
O25	O	1.118752	-0.367871	-0.174510
O26	O	1.368752	-0.117871	0.075490
O27	O	1.618752	0.132129	0.325490
O28	O	1.868752	0.382129	0.575490
O29	O	1.027670	-0.174956	-0.284303
O30	O	1.277670	0.075044	-0.034303
O31	O	1.527670	0.325044	0.215697
O32	O	1.777670	0.575044	0.465697
O33	O	1.239173	-0.367873	-0.284219
O34	O	1.489173	-0.117873	-0.034219
O35	O	1.739173	0.132127	0.215781
O36	O	1.989173	0.382127	0.465781
O37	O	1.118911	-0.174958	-0.367428
O38	O	1.368911	0.075042	-0.117428
O39	O	1.618911	0.325042	0.132572
O40	O	1.868911	0.575042	0.382572
O41	O	1.027579	-0.284710	-0.174546
O42	O	1.277579	-0.034710	0.075454
O43	O	1.527579	0.215290	0.325454
O44	O	1.777579	0.465290	0.575454
O45	O	0.907210	-0.284654	-0.284291
O46	O	1.157210	-0.034654	-0.034291
O47	O	1.407210	0.215346	0.215709
O48	O	1.657210	0.465346	0.465709
O49	O	1.027602	-0.367776	-0.477117
O50	O	1.277602	-0.117776	-0.227117
O51	O	1.527602	0.132224	0.022883
O52	O	1.777602	0.382224	0.272883
O53	O	0.907181	-0.367773	-0.367408
O54	O	1.157181	-0.117773	-0.117408
O55	O	1.407181	0.132227	0.132592
O56	O	1.657181	0.382227	0.382592
O57	O	1.118872	-0.284659	-0.477126
O58	O	1.368872	-0.034659	-0.227126
O59	O	1.618872	0.215341	0.022874
O60	O	1.868872	0.465341	0.272874
O61	O	1.118713	-0.477572	-0.284208
O62	O	1.368713	-0.227572	-0.034208
O63	O	1.618713	0.022428	0.215792
O64	O	1.868713	0.272428	0.465792
O65	O	1.027511	-0.477530	-0.367360
O66	O	1.277511	-0.227530	-0.117360
O67	O	1.527511	0.022470	0.132640
O68	O	1.777511	0.272470	0.382640
C69	C	1.073118	-0.502110	-0.325792
C70	C	1.323118	-0.252110	-0.075792
C71	C	1.573118	-0.002110	0.174208
C72	C	1.823118	0.247890	0.424208
C73	C	1.073150	-0.577342	-0.325801
C74	C	1.323150	-0.327342	-0.075801
C75	C	1.573150	-0.077342	0.174199
C76	C	1.823150	0.172658	0.424199
C77	C	0.880249	-0.326208	-0.325854
C78	C	1.130249	-0.076208	-0.075854
C79	C	1.380249	0.173792	0.174146
C80	C	1.630249	0.423792	0.424146
C81	C	0.797703	-0.326204	-0.325882
C82	C	1.047703	-0.076204	-0.075882
C83	C	1.297703	0.173796	0.174118
C84	C	1.547703	0.423796	0.424118
C85	C	1.120685	-0.612685	-0.282548
C86	C	1.370685	-0.362685	-0.032548
C87	C	1.620685	-0.112685	0.217452
C88	C	1.870685	0.137315	0.467452
C89	C	1.120716	-0.683374	-0.282563
C90	C	1.370716	-0.433374	-0.032563
C91	C	1.620716	-0.183374	0.217437
C92	C	1.870716	0.066626	0.467437
C93	C	1.073209	-0.718717	-0.325828
C94	C	1.323209	-0.468717	-0.075828
C95	C	1.573209	-0.218717	0.174172
C96	C	1.823209	0.031283	0.424172
C97	C	1.025672	-0.683369	-0.369085
C98	C	1.275672	-0.433369	-0.119085
C99	C	1.525672	-0.183369	0.130915
C100	C	1.775672	0.066631	0.380915
C101	C	1.025644	-0.612682	-0.369073
C102	C	1.275644	-0.362682	-0.119073
C103	C	1.525644	-0.112682	0.130927
C104	C	1.775644	0.137318	0.380927
C105	C	1.025781	-0.968442	-0.369135
C106	C	1.275781	-0.718442	-0.119135
C107	C	1.525781	-0.468442	0.130865
C108	C	1.775781	-0.218442	0.380865
C109	C	1.025811	-1.039134	-0.369142
C110	C	1.275811	-0.789134	-0.119142
C111	C	1.525811	-0.539134	0.130858
C112	C	1.775811	-0.289134	0.380858
C113	C	1.120853	-1.039134	-0.282625
C114	C	1.370853	-0.789134	-0.032625
C115	C	1.620853	-0.539134	0.217375
C116	C	1.870853	-0.289134	0.467375
C117	C	1.120826	-0.968447	-0.282613
C118	C	1.370826	-0.718447	-0.032613
C119	C	1.620826	-0.468447	0.217387
C120	C	1.870826	-0.218447	0.467387
C121	C	1.073292	-0.933105	-0.325873
C122	C	1.323292	-0.683105	-0.075873
C123	C	1.573292	-0.433105	0.174127
C124	C	1.823292	-0.183105	0.424127
C125	C	1.073259	-0.856456	-0.325857
C126	C	1.323259	-0.606456	-0.075857
C127	C	1.573259	-0.356456	0.174143
C128	C	1.823259	-0.106456	0.424143
C129	C	1.073237	-0.795365	-0.325840
C130	C	1.323237	-0.545365	-0.075840
C131	C	1.573237	-0.295365	0.174160
C132	C	1.823237	-0.045365	0.424160
C133	C	0.598258	-0.371534	-0.370974
C134	C	0.848258	-0.121534	-0.120974
C135	C	1.098258	0.128466	0.129026
C136	C	1.348258	0.378466	0.379026
C137	C	0.548864	-0.309817	-0.387633
C138	C	0.798864	-0.059817	-0.137633
C139	C	1.048864	0.190183	0.112367
C140	C	1.298864	0.440183	0.362367
C141	C	0.646573	-0.326242	-0.325849
C142	C	0.896573	-0.076242	-0.075849
C143	C	1.146573	0.173758	0.174151
C144	C	1.396573	0.423758	0.424151
C145	C	0.548885	-0.387994	-0.309190
C146	C	0.798885	-0.137994	-0.059190
C147	C	1.048885	0.112006	0.190810
C148	C	1.298885	0.362006	0.440810
C149	C	0.500588	-0.326284	-0.325819
C150	C	0.750588	-0.076284	-0.075819
C151	C	1.000588	0.173716	0.174181
C152	C	1.250588	0.423716	0.424181
C153	C	0.598266	-0.264493	-0.342540
C154	C	0.848266	-0.014493	-0.092540
C155	C	1.098266	0.235507	0.157460
C156	C	1.348266	0.485507	0.407460
C157	C	0.598292	-0.342711	-0.264069
C158	C	0.848292	-0.092711	-0.014069
C159	C	1.098292	0.157289	0.235931
C160	C	1.348292	0.407289	0.485931
C161	C	0.548920	-0.280952	-0.280704
C162	C	0.798920	-0.030952	-0.030704
C163	C	1.048920	0.219048	0.219296
C164	C	1.298920	0.469048	0.469296
C165	C	0.730671	-0.326219	-0.325869
C166	C	0.980671	-0.076219	-0.075869
C167	C	1.230671	0.173781	0.174131
C168	C	1.480671	0.423781	0.424131
C169	C	0.416491	-0.326300	-0.325799
C170	C	0.666491	-0.076300	-0.075799
C171	C	0.916491	0.173700	0.174201
C172	C	1.166491	0.423700	0.424201
C173	C	1.266907	-0.326301	-0.325796
C174	C	1.516907	-0.076301	-0.075796
C175	C	1.766907	0.173699	0.174204
C176	C	2.016907	0.423699	0.424204
C177	C	1.349453	-0.326321	-0.325784
C178	C	1.599453	-0.076321	-0.075784
C179	C	1.849453	0.173679	0.174216
C180	C	2.099453	0.423679	0.424216
C181	C	1.073243	-0.326211	-0.502367
C182	C	1.323243	-0.076211	-0.252367
C183	C	1.573243	0.173789	-0.002367
C184	C	1.823243	0.423789	0.247633
C185	C	1.073261	-0.326193	-0.577599
C186	C	1.323261	-0.076193	-0.327599
C187	C	1.573261	0.173807	-0.077599
C188	C	1.823261	0.423807	0.172401
C189	C	1.073305	-0.149711	-0.325872
C190	C	1.323305	0.100289	-0.075872
C191	C	1.573305	0.350289	0.174128
C192	C	1.823305	0.600289	0.424128
C193	C	1.073350	-0.074479	-0.325893
C194	C	1.323350	0.175521	-0.075893
C195	C	1.573350	0.425521	0.174107
C196	C	1.823350	0.675521	0.424107
C197	C	1.120786	-0.282912	-0.612949
C198	C	1.370786	-0.032912	-0.362949
C199	C	1.620786	0.217088	-0.112949
C200	C	1.870786	0.467088	0.137051
C201	C	1.120794	-0.282892	-0.683638
C202	C	1.370794	-0.032892	-0.433638
C203	C	1.620794	0.217108	-0.183638
C204	C	1.870794	0.467108	0.066362
C205	C	1.073279	-0.326158	-0.718975
C206	C	1.323279	-0.076158	-0.468975
C207	C	1.573279	0.173842	-0.218975
C208	C	1.823279	0.423842	0.031025
C209	C	1.025748	-0.369441	-0.683620
C210	C	1.275748	-0.119441	-0.433620
C211	C	1.525748	0.130559	-0.183620
C212	C	1.775748	0.380559	0.066380
C213	C	1.025737	-0.369456	-0.612933
C214	C	1.275737	-0.119456	-0.362933
C215	C	1.525737	0.130544	-0.112933
C216	C	1.775737	0.380544	0.137067
C217	C	1.025790	-0.369378	-0.968694
C218	C	1.275790	-0.119378	-0.718694
C219	C	1.525790	0.130622	-0.468694
C220	C	1.775790	0.380622	-0.218694
C221	C	1.025806	-0.369360	-1.039386
C222	C	1.275806	-0.119360	-0.789386
C223	C	1.525806	0.130640	-0.539386
C224	C	1.775806	0.380640	-0.289386
C225	C	1.120847	-0.282813	-1.039398
C226	C	1.370847	-0.032813	-0.789398
C227	C	1.620847	0.217187	-0.539398
C228	C	1.870847	0.467187	-0.289398
C229	C	1.120836	-0.282829	-0.968711
C230	C	1.370836	-0.032829	-0.718711
C231	C	1.620836	0.217171	-0.468711
C232	C	1.870836	0.467171	-0.218711
C233	C	1.073303	-0.326109	-0.933363
C234	C	1.323303	-0.076109	-0.683363
C235	C	1.573303	0.173891	-0.433363
C236	C	1.823303	0.423891	-0.183363
C237	C	1.073294	-0.326129	-0.856714
C238	C	1.323294	-0.076129	-0.606714
C239	C	1.573294	0.173871	-0.356714
C240	C	1.823294	0.423871	-0.106714
C241	C	1.073291	-0.326142	-0.795622
C242	C	1.323291	-0.076142	-0.545622
C243	C	1.573291	0.173858	-0.295622
C244	C	1.823291	0.423858	-0.045622
C245	C	1.073202	-0.326247	-0.149969
C246	C	1.323202	-0.076247	0.100031
C247	C	1.573202	0.173753	0.350031
C248	C	1.823202	0.423753	0.600031
C249	C	1.073329	-0.326075	-0.074737
C250	C	1.323329	-0.076075	0.175263
C251	C	1.573329	0.173925	0.425263
C252	C	1.823329	0.423925	0.675263
H253	H	1.159368	-0.583913	-0.247315
H254	H	1.409368	-0.333913	0.002685
H255	H	1.659368	-0.083913	0.252685
H256	H	1.909368	0.166087	0.502685
F257	F	0.626671	-0.360914	-0.195805
F258	F	0.876671	-0.110914	0.054195
F259	F	1.126671	0.139086	0.304195
F260	F	1.376671	0.389086	0.554195
H261	H	1.159508	-0.939673	-0.247381
H262	H	1.409508	-0.689673	0.002619
H263	H	1.659508	-0.439673	0.252619
H264	H	1.909508	-0.189673	0.502619
F265	F	0.520532	-0.456229	-0.290788
F266	F	0.770532	-0.206229	-0.040788
F267	F	1.020532	0.043771	0.209212
F268	F	1.270532	0.293771	0.459212
F269	F	0.975053	-0.575067	-0.415109
F270	F	1.225053	-0.325067	-0.165109
F271	F	1.475053	-0.075067	0.084891
F272	F	1.725053	0.174933	0.334891
F273	F	0.975201	-0.415440	-0.931082
F274	F	1.225201	-0.165440	-0.681082
F275	F	1.475201	0.084560	-0.431082
F276	F	1.725201	0.334560	-0.181082
H277	H	0.619924	-0.409768	-0.409177
H278	H	0.869924	-0.159768	-0.159177
H279	H	1.119924	0.090232	0.090823
H280	H	1.369924	0.340232	0.340823
H281	H	0.986993	-0.712151	-0.404314
H282	H	1.236993	-0.462151	-0.154314
H283	H	1.486993	-0.212151	0.095686
H284	H	1.736993	0.037849	0.345686
F285	F	0.626496	-0.196236	-0.361019
F286	F	0.876496	0.053764	-0.111019
F287	F	1.126496	0.303764	0.138981
F288	F	1.376496	0.553764	0.388981
F289	F	0.520486	-0.291627	-0.455904
F290	F	0.770486	-0.041627	-0.205904
F291	F	1.020486	0.208373	0.044096
F292	F	1.270486	0.458373	0.294096
F293	F	0.520780	-0.230856	-0.230809
F294	F	0.770780	0.019144	0.019191
F295	F	1.020780	0.269144	0.269191
F296	F	1.270780	0.519144	0.519191
H297	H	1.159481	-0.247682	-0.584183
H298	H	1.409481	0.002318	-0.334183
H299	H	1.659481	0.252318	-0.084183
H300	H	1.909481	0.502318	0.165817
H301	H	1.159496	-0.247650	-0.712417
H302	H	1.409496	0.002350	-0.462417
H303	H	1.659496	0.252350	-0.212417
H304	H	1.909496	0.502350	0.037583
H305	H	0.987076	-0.939672	-0.404357
H306	H	1.237076	-0.689672	-0.154357
H307	H	1.487076	-0.439672	0.095643
H308	H	1.737076	-0.189672	0.345643
F309	F	1.171410	-0.236783	-0.931106
F310	F	1.421410	0.013217	-0.681106
F311	F	1.671410	0.263217	-0.431106
F312	F	1.921410	0.513217	-0.181106
F313	F	1.171434	-0.236748	-1.077025
F314	F	1.421434	0.013252	-0.827025
F315	F	1.671434	0.263252	-0.577025
F316	F	1.921434	0.513252	-0.327025
H317	H	1.159560	-1.067919	-0.247404
H318	H	1.409560	-0.817919	0.002596
H319	H	1.659560	-0.567919	0.252596
H320	H	1.909560	-0.317919	0.502596
H321	H	0.987111	-0.404593	-1.068156
H322	H	1.237111	-0.154593	-0.818156
H323	H	1.487111	0.095407	-0.568156
H324	H	1.737111	0.345407	-0.318156
F325	F	0.975152	-0.415520	-0.575312
F326	F	1.225152	-0.165520	-0.325312
F327	F	1.475152	0.084480	-0.075312
F328	F	1.725152	0.334480	0.174688
F329	F	1.171312	-0.720986	-0.236530
F330	F	1.421312	-0.470986	0.013470
F331	F	1.671312	-0.220986	0.263470
F332	F	1.921312	0.029014	0.513470
F333	F	0.975245	-1.076748	-0.415193
F334	F	1.225245	-0.826748	-0.165193
F335	F	1.475245	-0.576748	0.084807
F336	F	1.725245	-0.326748	0.334807
H337	H	0.987058	-0.404666	-0.712398
H338	H	1.237058	-0.154666	-0.462398
H339	H	1.487058	0.095334	-0.212398
H340	H	1.737058	0.345334	0.037602
