data_functionalizedCrystal
_audit_creation_method	'MofGen! by Chris Wilmer'
_symmetry_space_group_name_H-M	'P1'
_symmetry_Int_Tables_number	1
_symmetry_cell_setting	triclinic
loop_
_symmetry_equiv_pos_as_xyz
  x,y,z
_cell_length_a	16.625547
_cell_length_b	16.625547
_cell_length_c	16.625539
_cell_angle_alpha	90.019469
_cell_angle_beta	89.972942
_cell_angle_gamma	89.996613
loop_
_atom_site_label
_atom_site_type_symbol
_atom_site_fract_x
_atom_site_fract_y
_atom_site_fract_z
Zn1	Zn	-1.232783	-0.321018	0.456099
Zn2	Zn	-0.982783	-0.071018	0.706099
Zn3	Zn	-0.732783	0.178982	0.956099
Zn4	Zn	-0.482783	0.428982	1.206099
Zn5	Zn	-1.232729	-0.455861	0.321287
Zn6	Zn	-0.982729	-0.205861	0.571287
Zn7	Zn	-0.732729	0.044139	0.821287
Zn8	Zn	-0.482729	0.294139	1.071287
Zn9	Zn	-1.097945	-0.321044	0.321264
Zn10	Zn	-0.847945	-0.071044	0.571264
Zn11	Zn	-0.597945	0.178956	0.821264
Zn12	Zn	-0.347945	0.428956	1.071264
Zn13	Zn	-1.097958	-0.455810	0.456061
Zn14	Zn	-0.847958	-0.205810	0.706061
Zn15	Zn	-0.597958	0.044190	0.956061
Zn16	Zn	-0.347958	0.294190	1.206061
O17	O	-1.165354	-0.388433	0.388677
O18	O	-0.915354	-0.138433	0.638677
O19	O	-0.665354	0.111567	0.888677
O20	O	-0.415354	0.361567	1.138677
O21	O	-1.345608	-0.338915	0.438241
O22	O	-1.095608	-0.088915	0.688241
O23	O	-0.845608	0.161085	0.938241
O24	O	-0.595608	0.411085	1.188241
O25	O	-1.214822	-0.438009	0.208451
O26	O	-0.964822	-0.188009	0.458451
O27	O	-0.714822	0.061991	0.708451
O28	O	-0.464822	0.311991	0.958451
O29	O	-1.115848	-0.208208	0.339156
O30	O	-0.865848	0.041792	0.589156
O31	O	-0.615848	0.291792	0.839156
O32	O	-0.365848	0.541792	1.089156
O33	O	-1.345569	-0.437984	0.339195
O34	O	-1.095569	-0.187984	0.589195
O35	O	-0.845569	0.062016	0.839195
O36	O	-0.595569	0.312016	1.089195
O37	O	-1.214913	-0.208189	0.438219
O38	O	-0.964913	0.041811	0.688219
O39	O	-0.714913	0.291811	0.938219
O40	O	-0.464913	0.541811	1.188219
O41	O	-1.115796	-0.338960	0.208434
O42	O	-0.865796	-0.088960	0.458434
O43	O	-0.615796	0.161040	0.708434
O44	O	-0.365796	0.411040	0.958434
O45	O	-0.985114	-0.338911	0.339120
O46	O	-0.735114	-0.088911	0.589120
O47	O	-0.485114	0.161089	0.839120
O48	O	-0.235114	0.411089	1.089120
O49	O	-1.115871	-0.437897	0.568899
O50	O	-0.865871	-0.187897	0.818899
O51	O	-0.615871	0.062103	1.068899
O52	O	-0.365871	0.312103	1.318899
O53	O	-0.985124	-0.437923	0.438155
O54	O	-0.735124	-0.187923	0.688155
O55	O	-0.485124	0.062077	0.938155
O56	O	-0.235124	0.312077	1.188155
O57	O	-1.214926	-0.338866	0.568926
O58	O	-0.964926	-0.088866	0.818926
O59	O	-0.714926	0.161134	1.068926
O60	O	-0.464926	0.411134	1.318926
O61	O	-1.214835	-0.568686	0.339159
O62	O	-0.964835	-0.318686	0.589159
O63	O	-0.714835	-0.068686	0.839159
O64	O	-0.464835	0.181314	1.089159
O65	O	-1.115819	-0.568649	0.438177
O66	O	-0.865819	-0.318649	0.688177
O67	O	-0.615819	-0.068649	0.938177
O68	O	-0.365819	0.181351	1.188177
C69	C	-0.955863	-0.388415	0.388631
C70	C	-0.705863	-0.138415	0.638631
C71	C	-0.455863	0.111585	0.888631
C72	C	-0.205863	0.361585	1.138631
C73	C	-0.866242	-0.388426	0.388631
C74	C	-0.616242	-0.138426	0.638631
C75	C	-0.366242	0.111574	0.888631
C76	C	-0.116242	0.361574	1.138631
C77	C	-0.793459	-0.388427	0.388638
C78	C	-0.543459	-0.138427	0.638638
C79	C	-0.293459	0.111573	0.888638
C80	C	-0.043459	0.361573	1.138638
C81	C	-0.702151	-0.388430	0.388654
C82	C	-0.452151	-0.138430	0.638654
C83	C	-0.202151	0.111570	0.888654
C84	C	0.047849	0.361570	1.138654
C85	C	-0.629374	-0.388436	0.388672
C86	C	-0.379374	-0.138436	0.638672
C87	C	-0.129374	0.111564	0.888672
C88	C	0.120626	0.361564	1.138672
C89	C	-0.538060	-0.388441	0.388688
C90	C	-0.288060	-0.138441	0.638688
C91	C	-0.038060	0.111559	0.888688
C92	C	0.211940	0.361559	1.138688
C93	C	-1.165344	-0.597924	0.388684
C94	C	-0.915344	-0.347924	0.638684
C95	C	-0.665344	-0.097924	0.888684
C96	C	-0.415344	0.152076	1.138684
C97	C	-1.165414	-0.687545	0.388713
C98	C	-0.915414	-0.437545	0.638713
C99	C	-0.665414	-0.187545	0.888713
C100	C	-0.415414	0.062455	1.138713
C101	C	-0.375663	-0.388449	0.388715
C102	C	-0.125663	-0.138449	0.638715
C103	C	0.124337	0.111551	0.888715
C104	C	0.374337	0.361551	1.138715
C105	C	-0.465284	-0.388447	0.388705
C106	C	-0.215284	-0.138447	0.638705
C107	C	0.034716	0.111553	0.888705
C108	C	0.284716	0.361553	1.138705
C109	C	-1.165385	-0.178124	0.388689
C110	C	-0.915385	0.071876	0.638689
C111	C	-0.665385	0.321876	0.888689
C112	C	-0.415385	0.571876	1.138689
C113	C	-1.165399	-0.088503	0.388694
C114	C	-0.915399	0.161497	0.638694
C115	C	-0.665399	0.411497	0.888694
C116	C	-0.415399	0.661497	1.138694
C117	C	-1.165406	-0.388373	0.598986
C118	C	-0.915406	-0.138373	0.848986
C119	C	-0.665406	0.111627	1.098986
C120	C	-0.415406	0.361627	1.348986
C121	C	-1.165428	-0.388347	0.688608
C122	C	-0.915428	-0.138347	0.938608
C123	C	-0.665428	0.111653	1.188608
C124	C	-0.415428	0.361653	1.438608
C125	C	-1.165408	-0.015721	0.388700
C126	C	-0.915408	0.234279	0.638700
C127	C	-0.665408	0.484279	0.888700
C128	C	-0.415408	0.734279	1.138700
C129	C	-1.165412	0.075588	0.388707
C130	C	-0.915412	0.325588	0.638707
C131	C	-0.665412	0.575588	0.888707
C132	C	-0.415412	0.825588	1.138707
C133	C	-1.165410	0.148364	0.388708
C134	C	-0.915410	0.398364	0.638708
C135	C	-0.665410	0.648364	0.888708
C136	C	-0.415410	0.898364	1.138708
C137	C	-1.165415	0.239679	0.388712
C138	C	-0.915415	0.489679	0.638712
C139	C	-0.665415	0.739679	0.888712
C140	C	-0.415415	0.989679	1.138712
C141	C	-1.165348	-0.388435	0.179187
C142	C	-0.915348	-0.138435	0.429187
C143	C	-0.665348	0.111565	0.679187
C144	C	-0.415348	0.361565	0.929187
C145	C	-1.165482	-0.388233	0.089566
C146	C	-0.915482	-0.138233	0.339566
C147	C	-0.665482	0.111767	0.589566
C148	C	-0.415482	0.361767	0.839566
C149	C	-1.165466	-0.388257	1.016783
C150	C	-0.915466	-0.138257	1.266783
C151	C	-0.665466	0.111743	1.516783
C152	C	-0.415466	0.361743	1.766783
C153	C	-1.165453	-0.388285	0.925475
C154	C	-0.915453	-0.138285	1.175475
C155	C	-0.665453	0.111715	1.425475
C156	C	-0.415453	0.361715	1.675475
C157	C	-1.165447	-0.388303	0.852698
C158	C	-0.915447	-0.138303	1.102698
C159	C	-0.665447	0.111697	1.352698
C160	C	-0.415447	0.361697	1.602698
C161	C	-1.165434	-0.388329	0.761384
C162	C	-0.915434	-0.138329	1.011384
C163	C	-0.665434	0.111671	1.261384
C164	C	-0.415434	0.361671	1.511384
