data_functionalizedCrystal
_audit_creation_method	'MofGen! by Chris Wilmer'
_symmetry_space_group_name_H-M	'P1'
_symmetry_Int_Tables_number	1
_symmetry_cell_setting	triclinic
loop_
_symmetry_equiv_pos_as_xyz
  x,y,z
_cell_length_a	23.532361
_cell_length_b	23.532407
_cell_length_c	9.130313
_cell_angle_alpha	89.994125
_cell_angle_beta	90.004063
_cell_angle_gamma	82.839173
loop_
_atom_site_label
_atom_site_type_symbol
_atom_site_fract_x
_atom_site_fract_y
_atom_site_fract_z
O1	O	0.755274	0.069006	-0.121667
O2	O	0.589406	0.079037	-0.121704
O3	O	0.677342	-0.008911	-0.121658
O4	O	0.667338	0.156954	-0.121714
O5	O	0.677341	-0.008909	0.121941
O6	O	0.589405	0.079039	0.121894
O7	O	0.755272	0.069008	0.121932
Cu8	Cu	0.672339	0.074024	0.144156
Cu9	Cu	0.672340	0.074021	-0.143928
O10	O	0.667337	0.156956	0.121885
C11	C	0.568189	0.078787	0.000091
C12	C	0.504971	0.078032	0.000078
C13	C	0.231728	0.074727	-0.132698
C14	C	0.291127	0.075442	-0.132702
O15	O	0.321854	0.075791	-0.245629
N16	N	0.320832	0.075804	0.000084
C17	C	0.291136	0.075446	0.132883
O18	O	0.321856	0.075819	0.245827
C19	C	0.231737	0.074727	0.132885
C20	C	0.202035	0.074370	0.000090
C21	C	0.202025	0.074370	-0.265482
C22	C	0.142629	0.073656	-0.265478
C23	C	0.112936	0.073299	-0.132689
C24	C	0.142639	0.073657	0.000095
C25	C	0.202042	0.074365	0.265682
C26	C	0.142640	0.073645	0.265673
C27	C	0.112937	0.073288	0.132878
C28	C	0.053550	0.072586	0.132887
N29	N	0.023845	0.072224	0.000101
C30	C	0.053538	0.072580	-0.132687
C31	C	0.415876	0.076955	0.132868
C32	C	0.475272	0.077678	0.132867
C33	C	0.475260	0.077673	-0.132718
C34	C	0.415862	0.076954	-0.132716
C35	C	0.386171	0.076593	0.000082
C36	C	-0.071198	0.071082	-0.132668
C37	C	-0.130599	0.070370	-0.132652
C38	C	-0.130581	0.070372	0.132933
C39	C	-0.071186	0.071087	0.132917
C40	C	-0.041495	0.071440	0.000105
O41	O	0.022786	0.072234	0.245756
O42	O	0.022811	0.072199	-0.245613
C43	C	0.677086	-0.030126	0.000145
C44	C	0.676320	-0.093343	0.000156
C45	C	0.723555	-0.492454	0.000087
C46	C	0.722844	-0.551854	0.000075
O47	O	0.766630	-0.588606	0.000031
N48	N	0.670566	-0.574471	0.000065
C49	C	0.618997	-0.537685	0.000050
O50	O	0.574465	-0.562377	0.000039
C51	C	0.619709	-0.478286	0.000051
C52	C	0.671990	-0.455672	0.000077
C53	C	0.775832	-0.469839	0.000111
C54	C	0.776543	-0.410443	0.000125
C55	C	0.724977	-0.373662	0.000115
C56	C	0.672701	-0.396276	0.000091
C57	C	0.568140	-0.441501	0.000026
C58	C	0.568857	-0.382099	0.000026
C59	C	0.621137	-0.359485	0.000052
C60	C	0.621847	-0.300099	0.000095
N61	N	0.674124	-0.277481	0.000106
C62	C	0.725690	-0.314263	0.000115
C63	C	0.617505	-0.662427	0.000046
C64	C	0.616793	-0.721825	0.000056
C65	C	0.720640	-0.735990	0.000078
C66	C	0.721352	-0.676591	0.000079
C67	C	0.669783	-0.639810	0.000057
C68	C	0.727179	-0.189526	0.000146
C69	C	0.727886	-0.130124	0.000166
C70	C	0.624039	-0.115965	0.000136
C71	C	0.623332	-0.175361	0.000124
C72	C	0.674907	-0.212141	0.000124
O73	O	0.578083	-0.263312	0.000133
O74	O	0.770214	-0.289562	0.000108
C75	C	0.776489	0.069258	0.000133
C76	C	0.839708	0.070014	0.000137
C77	C	0.667592	0.178171	0.000079
C78	C	0.668358	0.241388	0.000058
N79	N	0.672342	0.074026	0.346778
N80	N	0.672341	0.074015	-0.346551
C81	C	0.711289	0.035095	0.423451
C82	C	0.711288	0.035088	0.576788
C83	C	0.633390	0.112947	0.576766
C84	C	0.633389	0.112951	0.423432
C85	C	0.750243	-0.003830	0.346797
C86	C	0.789194	-0.042763	0.423470
C87	C	0.789192	-0.042770	0.576807
C88	C	0.750240	-0.003844	0.653471
H89	H	0.226195	0.074658	-0.373621
H90	H	0.574220	-0.740232	0.000060
H91	H	0.526862	-0.352154	0.000006
C92	C	0.565821	-0.200237	0.000105
N93	N	0.522502	-0.218970	0.000076
C94	C	-0.163255	0.069978	0.278993
N95	N	-0.187866	0.069677	0.389007
H96	H	0.499447	0.077963	-0.240842
C97	C	0.785401	-0.105253	0.000190
N98	N	0.828721	-0.086523	0.000204
C99	C	0.783914	-0.229976	0.000160
N100	N	0.826647	-0.260442	0.000182
H101	H	-0.154781	0.070082	-0.240794
C102	C	0.590546	0.155764	0.661102
N103	N	0.558275	0.188015	0.724625
H104	H	0.820904	-0.074474	0.639232
H105	H	0.575509	-0.632483	0.000041
H106	H	0.820905	-0.074459	0.361042
H107	H	0.819115	-0.392037	0.000139
C108	C	0.507938	0.078077	0.278952
N109	N	0.532540	0.078373	0.388988
H110	H	0.525567	-0.459902	-0.000003
C111	C	0.832563	-0.510291	0.000137
N112	N	0.875297	-0.540756	0.000173
C113	C	0.750240	-0.003854	0.822147
N114	N	0.750244	-0.003859	0.949192
H115	H	0.601674	0.144651	0.361004
H116	H	-0.047031	0.071370	-0.240816
H117	H	0.391704	0.076668	0.241014
H118	H	0.582056	-0.086007	0.000133
H119	H	0.750248	-0.003827	0.221943
C120	C	0.109965	0.073251	-0.411564
N121	N	0.085368	0.072942	-0.521604
H122	H	0.762627	-0.765949	0.000080
C123	C	0.383195	0.076555	-0.278799
N124	N	0.358594	0.076253	-0.388836
H125	H	0.226216	0.074653	0.373818
C126	C	-0.038512	0.071484	0.278998
N127	N	-0.013906	0.071776	0.389028
C128	C	0.778864	-0.651722	0.000094
N129	N	0.822185	-0.632993	0.000100
H130	H	0.118468	0.073356	0.373816
