data_functionalizedCrystal
_audit_creation_method	'MofGen! by Chris Wilmer'
_symmetry_space_group_name_H-M	'P1'
_symmetry_Int_Tables_number	1
_symmetry_cell_setting	triclinic
loop_
_symmetry_equiv_pos_as_xyz
  x,y,z
_cell_length_a	16.109301
_cell_length_b	9.730223
_cell_length_c	16.109301
_cell_angle_alpha	90.002753
_cell_angle_beta	83.461481
_cell_angle_gamma	89.997484
loop_
_atom_site_label
_atom_site_type_symbol
_atom_site_fract_x
_atom_site_fract_y
_atom_site_fract_z
O1	O	1.103127	0.114207	0.106864
O2	O	0.861065	0.114230	0.120163
O3	O	0.988746	0.114204	-0.007518
O4	O	0.975446	0.114233	0.234544
O5	O	0.988744	-0.114376	-0.007515
O6	O	0.861064	-0.114350	0.120166
O7	O	1.103126	-0.114373	0.106867
Zn8	Zn	0.982094	-0.150653	0.113517
Zn9	Zn	0.982096	0.150511	0.113513
O10	O	0.975445	-0.114347	0.234547
C11	C	0.830090	-0.000057	0.119626
C12	C	0.737794	-0.000049	0.118011
N13	N	0.982099	-0.356190	0.113519
C14	C	0.515522	-0.000057	0.190018
C15	C	0.428801	-0.000066	0.188494
C16	C	0.448676	-0.000078	0.037006
C17	C	0.535394	-0.000079	0.038530
C18	C	0.568815	-0.000061	0.115039
C19	C	0.395376	-0.000069	0.111990
C20	C	0.301350	-0.000079	0.110337
C21	C	0.662847	-0.000054	0.116693
C22	C	1.038650	-0.428127	0.057001
C23	C	1.038648	-0.572010	0.056991
C24	C	0.925541	-0.572006	0.170024
C25	C	0.925540	-0.428125	0.170030
C26	C	1.095210	-0.356192	0.000491
C27	C	1.151767	-0.428129	-0.056031
C28	C	1.151764	-0.572012	-0.056041
C29	C	1.095206	-0.643958	0.000471
C30	C	1.134101	-0.000082	0.107404
C31	C	1.226397	-0.000081	0.109019
C32	C	0.988206	-0.000087	-0.038491
C33	C	0.986591	-0.000088	-0.130786
N34	N	0.982098	0.356047	0.113504
C35	C	1.058599	-0.000073	-0.353059
C36	C	1.057075	-0.000062	-0.439779
C37	C	0.905586	-0.000053	-0.419905
C38	C	0.907111	-0.000055	-0.333186
C39	C	0.983620	-0.000072	-0.299766
C40	C	0.980571	-0.000059	-0.473205
C41	C	0.978918	-0.000046	-0.567231
C42	C	0.985273	-0.000082	-0.205734
C43	C	0.975984	-0.000053	0.265521
C44	C	0.977600	-0.000042	0.357816
H45	H	0.542730	-0.000053	0.252317
H46	H	1.095218	-0.239035	0.000495
H47	H	0.578788	-0.000087	-0.022530
C48	C	1.213979	-0.348996	-0.118185
H49	H	1.205889	-0.253003	-0.110080
H50	H	1.204977	-0.372564	-0.173682
H51	H	1.269460	-0.372591	-0.109126
H52	H	0.846050	-0.000050	-0.289792
C53	C	1.213971	-0.651141	-0.118212
H54	H	1.247657	-0.587687	-0.151861
H55	H	1.184081	-0.707265	-0.152838
H56	H	1.248569	-0.707271	-0.088287
H57	H	1.120897	-0.000084	-0.325851
H58	H	0.879494	-0.630593	0.216035
C59	C	1.095198	-0.802226	0.000459
H60	H	1.053414	-0.834766	0.042207
H61	H	1.148328	-0.834787	0.011851
H62	H	1.083830	-0.834763	-0.052690
C63	C	0.370182	-0.000051	0.270971
H64	H	0.402510	-0.000030	0.316752
H65	H	0.335942	-0.079761	0.273530
H66	H	0.335940	0.079671	0.273522
H67	H	1.118130	-0.000060	-0.483168
C68	C	0.863339	-0.348989	0.232202
H69	H	0.829663	-0.412435	0.265866
H70	H	0.828743	-0.292855	0.202285
H71	H	0.893241	-0.292867	0.266825
H72	H	0.421454	-0.000101	-0.025285
C73	C	0.821433	-0.000054	-0.456671
H74	H	0.831262	-0.000068	-0.515950
H75	H	0.790557	0.079655	-0.438375
H76	H	0.790568	-0.079777	-0.438377
