data_functionalizedCrystal
_audit_creation_method	'MofGen! by Chris Wilmer'
_symmetry_space_group_name_H-M	'P1'
_symmetry_Int_Tables_number	1
_symmetry_cell_setting	triclinic
loop_
_symmetry_equiv_pos_as_xyz
  x,y,z
_cell_length_a	10.967926
_cell_length_b	12.811415
_cell_length_c	10.065875
_cell_angle_alpha	93.481155
_cell_angle_beta	93.120479
_cell_angle_gamma	85.527577
loop_
_atom_site_label
_atom_site_type_symbol
_atom_site_fract_x
_atom_site_fract_y
_atom_site_fract_z
O1	O	1.617248	0.180172	0.244578
O2	O	1.267275	0.183122	0.161898
O3	O	1.448200	0.031612	0.223210
O4	O	1.436323	0.331682	0.183266
O5	O	1.413703	0.060624	0.438493
O6	O	1.232778	0.212134	0.377181
O7	O	1.582751	0.209184	0.459861
Zn8	Zn	1.402287	0.215265	0.452702
Zn9	Zn	1.447739	0.177040	0.169057
O10	O	1.401826	0.360694	0.398549
C11	C	1.205175	0.195221	0.259289
C12	C	1.071531	0.188037	0.228745
C13	C	0.994078	0.199863	0.326650
C14	C	0.855949	0.192439	0.295084
C15	C	1.429229	0.007594	0.335213
C16	C	1.424081	-0.107195	0.348205
C17	C	1.451998	-0.354518	0.137885
C18	C	1.447162	-0.462374	0.150086
C19	C	1.409564	-0.430763	0.384805
C20	C	1.414400	-0.322908	0.372604
C21	C	1.435619	-0.284790	0.249140
C22	C	1.440464	-0.176933	0.236943
C23	C	1.402857	-0.145324	0.471658
C24	C	1.398021	-0.253179	0.483859
C25	C	1.644852	0.197084	0.362468
C26	C	1.778497	0.204267	0.393003
C27	C	1.420798	0.384711	0.286543
C28	C	1.425947	0.499499	0.273543
N29	N	1.371277	0.241353	0.646284
N30	N	1.478759	0.150945	-0.024522
C31	C	1.436941	0.186110	0.736347
C32	C	1.413084	0.206196	0.885416
H33	H	0.820006	0.176813	0.187887
O34	O	1.525244	0.112018	0.696897
C35	C	1.639588	0.137641	0.755422
H36	H	1.624823	0.190662	0.849160
H37	H	1.690369	0.180199	0.681697
C38	C	1.733976	-0.028603	0.677189
C39	C	1.715842	0.036511	0.792325
H40	H	1.781016	-0.090983	0.699947
H41	H	1.656941	-0.045864	0.637755
H42	H	1.776289	0.006875	0.615762
H43	H	1.673516	0.001039	0.853742
H44	H	1.792872	0.053765	0.831771
O45	O	1.037118	0.218358	0.454499
C46	C	1.120092	0.134282	0.491736
H47	H	1.158932	0.091912	0.398657
H48	H	1.070504	0.077249	0.548270
C49	C	1.177545	0.228761	0.696097
C50	C	1.225256	0.176726	0.581777
H51	H	1.242412	0.254940	0.751643
H52	H	1.121640	0.285404	0.671013
H53	H	1.136222	0.181225	0.743192
H54	H	1.266564	0.224266	0.534675
H55	H	1.281170	0.120092	0.606855
H56	H	1.339195	0.268361	0.918661
H57	H	1.392278	-0.461818	0.485321
H58	H	1.035582	0.172413	0.121555
H59	H	1.552639	0.088772	0.942232
H60	H	1.380740	-0.284230	0.584379
H61	H	1.297392	0.303514	0.679536
O62	O	0.821203	0.223046	0.520922
C63	C	0.767718	0.319941	0.571652
H64	H	0.678011	0.340199	0.512996
H65	H	0.832968	0.383783	0.561837
C66	C	0.852513	0.287298	0.791601
C67	C	0.742327	0.312175	0.719566
H68	H	0.836855	0.282511	0.882843
H69	H	0.888551	0.222019	0.757424
H70	H	0.906877	0.340504	0.783408
H71	H	0.687971	0.258963	0.727747
H72	H	0.706280	0.377445	0.753748
O73	O	1.460857	-0.139944	0.116929
C74	C	1.367240	-0.168258	0.023149
H75	H	1.282313	-0.183276	0.077450
H76	H	1.399632	-0.242464	-0.037197
C77	C	1.440251	-0.060210	-0.137818
C78	C	1.335939	-0.078648	-0.071125
H79	H	1.420946	-0.004938	-0.195976
H80	H	1.503326	-0.041138	-0.074640
H81	H	1.467234	-0.122056	-0.188096
H82	H	1.308967	-0.016808	-0.020836
H83	H	1.272859	-0.097708	-0.134298
O84	O	1.472575	-0.317655	0.017852
C85	C	1.486035	-0.402332	-0.077722
H86	H	1.439102	-0.471773	-0.043905
H87	H	1.587527	-0.425784	-0.088992
C88	C	1.484682	-0.284059	-0.254117
C89	C	1.427029	-0.369344	-0.212586
H90	H	1.448290	-0.263711	-0.337309
H91	H	1.475618	-0.227010	-0.189727
H92	H	1.569255	-0.303614	-0.263498
H93	H	1.342461	-0.349785	-0.203190
H94	H	1.436077	-0.426390	-0.276978
O95	O	1.462851	-0.530139	0.042005
C96	C	1.357311	-0.585800	0.016692
H97	H	1.275499	-0.538949	0.061875
H98	H	1.372080	-0.665031	0.063213
C99	C	1.433071	-0.660404	-0.190328
C100	C	1.332586	-0.602856	-0.134844
H101	H	1.417822	-0.670931	-0.283802
H102	H	1.504178	-0.622908	-0.173274
H103	H	1.445368	-0.726424	-0.151548
H104	H	1.320301	-0.536834	-0.173612
H105	H	1.261476	-0.640342	-0.151909
H106	H	1.389525	-0.088538	0.562252
