data_functionalizedCrystal
_audit_creation_method	'MofGen! by Chris Wilmer'
_symmetry_space_group_name_H-M	'P1'
_symmetry_Int_Tables_number	1
_symmetry_cell_setting	triclinic
loop_
_symmetry_equiv_pos_as_xyz
  x,y,z
_cell_length_a	19.805407
_cell_length_b	13.032721
_cell_length_c	13.032268
_cell_angle_alpha	103.289627
_cell_angle_beta	97.161370
_cell_angle_gamma	97.204665
loop_
_atom_site_label
_atom_site_type_symbol
_atom_site_fract_x
_atom_site_fract_y
_atom_site_fract_z
Zn1	Zn	0.939872	-0.499088	-0.654244
Zn2	Zn	0.939799	-0.654172	-0.499191
Zn3	Zn	0.843151	-0.476582	-0.476659
Zn4	Zn	0.810205	-0.676645	-0.676728
O5	O	0.883257	-0.576622	-0.576705
O6	O	1.034576	-0.519674	-0.633696
O7	O	0.940735	-0.611791	-0.347583
O8	O	0.869800	-0.330937	-0.481376
O9	O	1.034522	-0.633614	-0.519780
O10	O	0.940861	-0.347472	-0.611847
O11	O	0.869728	-0.481316	-0.331029
O12	O	0.744067	-0.503107	-0.503178
O13	O	0.813649	-0.671916	-0.822364
O14	O	0.719862	-0.650093	-0.650168
O15	O	0.908915	-0.541465	-0.805845
O16	O	0.908789	-0.805784	-0.541582
O17	O	0.813577	-0.822295	-0.672017
C18	C	0.707406	-0.576597	-0.576668
C19	C	0.632171	-0.576616	-0.576681
C20	C	0.584242	-0.653239	-0.653122
C21	C	0.513552	-0.653243	-0.653137
C22	C	0.490793	-0.576627	-0.576706
C23	C	0.538728	-0.499995	-0.500262
C24	C	0.609416	-0.499988	-0.500252
C25	C	0.253649	-0.500023	-0.500300
C26	C	0.182955	-0.500039	-0.500313
C27	C	0.157785	-0.653278	-0.653185
C28	C	0.228473	-0.653271	-0.653175
C29	C	0.276402	-0.576637	-0.576735
C30	C	0.353052	-0.576632	-0.576720
C31	C	0.414144	-0.576635	-0.576715
C32	C	0.857616	-0.852580	-0.611707
C33	C	0.846706	-0.970641	-0.626716
C34	C	0.888982	-1.015079	-0.568920
C35	C	0.877707	-1.137100	-0.584431
C36	C	1.059794	-0.576648	-0.576743
C37	C	1.135024	-0.576659	-0.576759
C38	C	0.857615	-0.611708	-0.853718
C39	C	0.846688	-0.626659	-0.971764
C40	C	0.909013	-0.299589	-0.541590
C41	C	0.919990	-0.181534	-0.526626
C42	C	0.888953	-0.568781	-1.016219
C43	C	0.877660	-0.584232	-1.138226
C44	C	0.908844	-0.541596	-0.300761
C45	C	0.919930	-0.526346	-0.182678
H46	H	0.164428	-0.437642	-0.438073
H47	H	0.292665	-0.437630	-0.438050
H48	H	0.246999	-0.715663	-0.715410
Br49	Br	0.772468	-1.057788	-0.728343
Br50	Br	0.674465	-0.395990	-0.396512
Br51	Br	0.963181	-0.467088	-0.929114
H52	H	0.964537	-1.129248	-0.465660
H53	H	0.833109	-0.645221	-1.190487
Br54	Br	0.772437	-0.728311	-1.058864
H55	H	0.964474	-0.465344	-1.130417
H56	H	0.933527	-0.962790	-0.507958
Br57	Br	0.507841	-0.396006	-0.396541
H58	H	0.833164	-1.189389	-0.645405
H59	H	0.602766	-0.715632	-0.715358
H60	H	0.474530	-0.715639	-0.715381
H61	H	0.118752	-0.715675	-0.715430
