data_functionalizedCrystal
_audit_creation_method	'MofGen! by Chris Wilmer'
_symmetry_space_group_name_H-M	'P1'
_symmetry_Int_Tables_number	1
_symmetry_cell_setting	triclinic
loop_
_symmetry_equiv_pos_as_xyz
  x,y,z
_cell_length_a	11.026607
_cell_length_b	17.038272
_cell_length_c	9.482900
_cell_angle_alpha	100.012096
_cell_angle_beta	78.636152
_cell_angle_gamma	99.848786
loop_
_atom_site_label
_atom_site_type_symbol
_atom_site_fract_x
_atom_site_fract_y
_atom_site_fract_z
O1	O	1.662374	0.322506	-0.120910
O2	O	1.305163	0.284676	-0.120910
O3	O	1.481644	0.189477	-0.120899
O4	O	1.485893	0.417705	-0.120922
O5	O	1.445807	0.208914	0.120891
O6	O	1.269325	0.304112	0.120880
O7	O	1.626537	0.341943	0.120880
Cu8	Cu	1.444659	0.324802	0.142957
Cu9	Cu	1.487041	0.301816	-0.142988
O10	O	1.450056	0.437141	0.120868
C11	C	1.241313	0.287415	-0.000015
C12	C	1.104451	0.266610	-0.000015
C13	C	1.036577	0.324055	-0.000022
C14	C	0.895123	0.302554	-0.000021
C15	C	1.459863	0.169523	-0.000004
C16	C	1.448341	0.081107	-0.000004
C17	C	1.554125	0.045899	-0.000003
C18	C	1.543294	-0.037179	-0.000016
C19	C	1.426676	-0.085048	-0.000021
C20	C	1.320885	-0.049835	-0.000027
C21	C	1.331719	0.033241	-0.000024
C22	C	1.388403	-0.336201	-0.000041
C23	C	1.377576	-0.419281	-0.000040
C24	C	1.599987	-0.406621	-0.000032
C25	C	1.610809	-0.323543	-0.000020
C26	C	1.505019	-0.288338	-0.000034
C27	C	1.415602	-0.169967	-0.000031
C28	C	1.516096	-0.203421	-0.000034
C29	C	1.690388	0.339203	-0.000018
C30	C	1.827251	0.360008	-0.000028
C31	C	1.471837	0.457095	-0.000030
C32	C	1.483360	0.545511	-0.000039
N33	N	1.414859	0.340969	0.344075
N34	N	1.516850	0.285644	-0.344106
C35	C	1.478242	0.306580	0.416279
C36	C	1.453458	0.320039	0.583695
H37	H	1.083189	0.389155	-0.000020
O38	O	1.574423	0.254377	0.333995
H39	H	1.617076	0.231227	0.412352
H40	H	1.320650	-0.208950	-0.000032
O41	O	0.833403	0.216314	-0.000012
H42	H	0.731986	0.212957	-0.000022
O43	O	1.318682	0.393181	0.426338
H44	H	1.245014	0.356994	0.495718
O45	O	1.657387	-0.075158	-0.000017
H46	H	1.643153	-0.104796	0.098522
H47	H	0.873856	0.425112	-0.000025
H48	H	1.057843	0.201507	-0.000046
H49	H	1.705771	-0.284574	-0.000016
H50	H	1.649086	0.084868	0.000010
O51	O	1.714087	-0.444590	-0.000027
H52	H	1.686969	-0.510401	-0.000040
O53	O	1.217619	0.071216	-0.000020
H54	H	1.244745	0.137024	-0.000031
O55	O	1.251793	-0.470917	-0.000062
H56	H	1.180052	-0.432483	-0.000088
H57	H	1.302261	-0.307547	-0.000052
O58	O	1.641871	-0.151791	-0.000030
H59	H	1.707726	-0.172612	-0.098583
O60	O	1.195098	-0.101457	-0.000017
H61	H	1.205330	-0.165139	0.000002
O62	O	1.357269	0.372246	0.665961
H63	H	1.352904	0.374631	0.784546
O64	O	1.613032	0.233433	0.573627
H65	H	1.686703	0.269628	0.504263
