data_functionalizedCrystal
_audit_creation_method	'MofGen! by Chris Wilmer'
_symmetry_space_group_name_H-M	'P1'
_symmetry_Int_Tables_number	1
_symmetry_cell_setting	triclinic
loop_
_symmetry_equiv_pos_as_xyz
  x,y,z
_cell_length_a	10.723024
_cell_length_b	16.992695
_cell_length_c	16.053802
_cell_angle_alpha	87.258926
_cell_angle_beta	92.605405
_cell_angle_gamma	87.568046
loop_
_atom_site_label
_atom_site_type_symbol
_atom_site_fract_x
_atom_site_fract_y
_atom_site_fract_z
O1	O	-1.671600	-0.106759	-0.069425
O2	O	-1.309355	-0.117291	-0.069428
O3	O	-1.489025	0.002125	-0.069420
O4	O	-1.491930	-0.226175	-0.069433
O5	O	-1.479133	-0.004420	0.069439
O6	O	-1.299463	-0.123837	0.069431
O7	O	-1.661708	-0.113305	0.069434
Zn8	Zn	-1.479015	-0.119610	0.091479
Zn9	Zn	-1.492048	-0.110986	-0.091473
O10	O	-1.482038	-0.232721	0.069426
C11	C	-1.257843	-0.119797	0.000001
C12	C	-1.119092	-0.117504	0.000000
C13	C	-1.480343	0.028085	0.000009
C14	C	-1.469195	0.115189	0.000009
C15	C	-1.713220	-0.110798	0.000003
C16	C	-1.851972	-0.113091	-0.000002
C17	C	-1.049863	-0.184323	-0.000004
C18	C	-0.906455	-0.181955	-0.000005
C19	C	-1.490720	-0.258680	-0.000005
C20	C	-1.501869	-0.345784	-0.000011
N21	N	-1.470129	-0.125495	0.216339
C22	C	-1.576755	0.164851	0.000011
C23	C	-1.566274	0.246694	0.000003
C24	C	-1.448231	0.278874	-0.000001
C25	C	-1.340663	0.229206	-0.000005
C26	C	-1.351146	0.147364	-0.000003
C27	C	-1.404783	0.522706	-0.000013
C28	C	-1.394308	0.604554	-0.000012
C29	C	-1.619921	0.622037	-0.000006
C30	C	-1.630393	0.540193	0.000001
C31	C	-1.522825	0.490532	-0.000007
N32	N	-1.437514	0.362531	-0.000006
N33	N	-1.533543	0.406877	-0.000008
N34	N	-1.500943	-0.105094	-0.216333
C35	C	-1.546610	-0.074702	0.260036
C36	C	-1.540407	-0.078826	0.347443
C37	C	-1.457727	-0.133748	0.391150
C38	C	-1.381238	-0.184544	0.347447
C39	C	-1.387435	-0.180415	0.260042
C40	C	-1.430651	-0.151761	0.652559
C41	C	-1.424462	-0.155887	0.739970
C42	C	-1.583630	-0.050168	0.739960
C43	C	-1.589826	-0.046048	0.652553
C44	C	-1.513332	-0.096840	0.608857
N45	N	-1.451387	-0.137967	0.480494
N46	N	-1.519666	-0.092617	0.519515
H47	H	-1.096761	-0.243283	-0.000003
H48	H	-1.707496	0.662479	-0.000000
C49	C	-1.055739	-0.037849	0.000005
N50	N	-1.008024	0.022149	0.000007
C51	C	-1.760249	0.504802	0.000006
N52	N	-1.858058	0.478145	0.000014
H53	H	-0.846949	-0.239157	-0.000012
C54	C	-1.706612	0.129462	0.000015
N55	N	-1.804425	0.102809	0.000015
C56	C	-1.210813	0.264606	-0.000002
N57	N	-1.113007	0.291268	0.000006
C58	C	-1.624511	-0.022930	0.395506
N59	N	-1.687850	0.019181	0.431706
H60	H	-1.263558	0.106930	-0.000005
C61	C	-1.264447	0.639949	-0.000023
N62	N	-1.166640	0.666609	-0.000031
C63	C	-1.684598	0.301319	0.000018
N64	N	-1.773726	0.342462	0.000034
C65	C	-1.286454	0.468090	-0.000027
N66	N	-1.197323	0.426950	-0.000040
H67	H	-1.613942	-0.029982	0.224455
C68	C	-1.680773	0.014375	0.604481
N69	N	-1.749276	0.059886	0.568274
C70	C	-1.667758	0.005706	0.788032
N71	N	-1.731121	0.047796	0.824241
C72	C	-1.333500	-0.216306	0.788046
N73	N	-1.264992	-0.261812	0.824257
C74	C	-1.346677	-0.207738	0.604505
N75	N	-1.283484	-0.249939	0.568307
C76	C	-1.290277	-0.244952	0.395528
N77	N	-1.221762	-0.290452	0.431742
H78	H	-0.911471	-0.055885	-0.000003
C79	C	-1.303310	-0.236298	0.211975
N80	N	-1.239945	-0.278392	0.175773
