data_functionalizedCrystal
_audit_creation_method	'MofGen! by Chris Wilmer'
_symmetry_space_group_name_H-M	'P1'
_symmetry_Int_Tables_number	1
_symmetry_cell_setting	triclinic
loop_
_symmetry_equiv_pos_as_xyz
  x,y,z
_cell_length_a	23.532350
_cell_length_b	27.732066
_cell_length_c	22.610064
_cell_angle_alpha	89.992187
_cell_angle_beta	90.002600
_cell_angle_gamma	82.737671
loop_
_atom_site_label
_atom_site_type_symbol
_atom_site_fract_x
_atom_site_fract_y
_atom_site_fract_z
O1	O	-0.755164	-0.058539	-0.049103
O2	O	-0.589279	-0.067059	-0.049120
O3	O	-0.677368	0.007590	-0.049113
O4	O	-0.667075	-0.133188	-0.049110
O5	O	-0.677353	0.007579	0.049256
O6	O	-0.589263	-0.067070	0.049249
O7	O	-0.755149	-0.058550	0.049266
Zn8	Zn	-0.672203	-0.062812	0.064876
Zn9	Zn	-0.672224	-0.062797	-0.064730
O10	O	-0.667059	-0.133199	0.049259
C11	C	-0.568055	-0.066852	0.000062
C12	C	-0.504837	-0.066213	0.000055
C13	C	-0.112822	-0.062204	0.053703
C14	C	-0.053424	-0.061596	0.053705
O15	O	-0.022699	-0.061270	0.099307
N16	N	-0.023724	-0.061288	0.000084
C17	C	-0.053427	-0.061584	-0.053542
O18	O	-0.022711	-0.061266	-0.099151
C19	C	-0.112825	-0.062188	-0.053544
C20	C	-0.142520	-0.062501	0.000080
C21	C	-0.142518	-0.062515	0.107323
C22	C	-0.201912	-0.063124	0.107320
C23	C	-0.231610	-0.063421	0.053697
C24	C	-0.201915	-0.063110	0.000077
C25	C	-0.142527	-0.062481	-0.107170
C26	C	-0.201929	-0.063085	-0.107168
C27	C	-0.231625	-0.063397	-0.053543
C28	C	-0.291007	-0.064015	-0.053548
N29	N	-0.320706	-0.064323	0.000073
C30	C	-0.291008	-0.064026	0.053695
C31	C	0.071312	-0.060314	-0.053534
C32	C	0.130709	-0.059713	-0.053533
C33	C	0.130709	-0.059724	0.053715
C34	C	0.071311	-0.060328	0.053713
C35	C	0.041613	-0.060621	0.000087
C36	C	-0.415740	-0.065305	0.053685
C37	C	-0.475139	-0.065916	0.053678
C38	C	-0.475133	-0.065902	-0.053570
C39	C	-0.415739	-0.065294	-0.053562
C40	C	-0.386044	-0.064994	0.000070
O41	O	-0.321770	-0.064340	-0.099127
O42	O	-0.321732	-0.064337	0.099296
C43	C	-0.677143	0.025592	0.000070
C44	C	-0.676487	0.079247	0.000065
C45	C	-0.619968	0.456396	0.000059
C46	C	-0.622381	0.254733	0.000057
O47	O	-0.578526	0.223540	0.000029
N48	N	-0.674617	0.235534	0.000063
C49	C	-0.726253	0.266755	0.000064
O50	O	-0.770738	0.245798	0.000063
C51	C	-0.723840	0.468417	0.000062
C52	C	-0.671601	0.487613	0.000063
C53	C	-0.567733	0.475593	0.000059
C54	C	-0.567131	0.526006	0.000063
C55	C	-0.618763	0.557222	0.000067
C56	C	-0.670998	0.538026	0.000066
C57	C	-0.775476	0.499637	0.000060
C58	C	-0.774868	0.550055	0.000058
C59	C	-0.722629	0.569251	0.000058
C60	C	-0.722028	0.619656	0.000074
N61	N	-0.669793	0.638854	0.000069
C62	C	-0.618160	0.607638	0.000065
C63	C	-0.727516	0.160879	0.000067
C64	C	-0.728120	0.110464	0.000068
C65	C	-0.624247	0.098445	0.000060
C66	C	-0.623644	0.148861	0.000063
C67	C	-0.675280	0.180078	0.000061
C68	C	-0.616899	0.713509	0.000073
C69	C	-0.616301	0.763927	0.000079
C70	C	-0.720173	0.775941	0.000084
C71	C	-0.720771	0.725527	0.000081
C72	C	-0.669129	0.694312	0.000074
O73	O	-0.765859	0.650877	0.000096
O74	O	-0.573681	0.628604	0.000053
C75	C	-0.620571	0.405984	0.000055
C76	C	-0.672806	0.386787	0.000055
C77	C	-0.724438	0.418004	0.000059
C78	C	-0.673409	0.336372	0.000057
C79	C	-0.621777	0.305155	0.000053
C80	C	-0.569541	0.324354	0.000048
C81	C	-0.568939	0.374767	0.000052
C82	C	-0.776674	0.398805	0.000064
C83	C	-0.777273	0.348392	0.000061
C84	C	-0.725640	0.317175	0.000058
C85	C	0.223628	-0.058762	0.000084
C86	C	0.160413	-0.059413	0.000090
C87	C	-0.667283	0.848799	0.000076
C88	C	-0.667933	0.795143	0.000083
N89	N	-0.672194	-0.062821	0.153328
N90	N	-0.672238	-0.062784	-0.153182
C91	C	-0.711232	-0.029748	0.561973
C92	C	-0.711235	-0.029744	0.623893
O93	O	-0.744402	-0.001632	0.655914
N94	N	-0.672224	-0.062787	0.654865
C95	C	-0.633203	-0.095833	0.623915
O96	O	-0.600021	-0.123938	0.655945
C97	C	-0.633198	-0.095833	0.561996
C98	C	-0.672215	-0.062792	0.531027
C99	C	-0.750245	0.003292	0.531004
C100	C	-0.750243	0.003287	0.469088
C101	C	-0.711227	-0.029756	0.438142
C102	C	-0.672213	-0.062796	0.469111
C103	C	-0.594175	-0.128876	0.531047
C104	C	-0.594173	-0.128874	0.469124
C105	C	-0.633191	-0.095832	0.438154
C106	C	-0.633194	-0.095844	0.376249
N107	N	-0.672206	-0.062801	0.345277
C108	C	-0.711222	-0.029757	0.376223
C109	C	-0.633216	-0.095828	0.753949
C110	C	-0.633224	-0.095830	0.815866
C111	C	-0.711255	-0.029741	0.815840
C112	C	-0.711249	-0.029741	0.753921
C113	C	-0.672227	-0.062785	0.722976
C114	C	-0.711214	-0.029769	0.246196
C115	C	-0.711210	-0.029777	0.184275
C116	C	-0.633177	-0.095864	0.184306
C117	C	-0.633183	-0.095858	0.246222
C118	C	-0.672204	-0.062806	0.277165
O119	O	-0.600043	-0.123941	0.344188
O120	O	-0.744393	-0.001653	0.344185
H121	H	0.154884	-0.059466	-0.097199
Br122	Br	-0.242204	-0.063546	0.180100
H123	H	-0.743023	-0.002834	0.841048
H124	H	-0.499314	-0.066171	0.097347
H125	H	-0.525686	0.450180	0.000054
H126	H	-0.118344	-0.062272	0.150991
H127	H	-0.742984	-0.002871	0.159061
H128	H	-0.562395	-0.155781	0.443931
H129	H	-0.743020	-0.002836	0.728709
H130	H	-0.391569	-0.065065	0.097358
Br131	Br	0.171025	-0.059320	0.126489
H132	H	-0.391558	-0.065047	-0.097228
H133	H	-0.742988	-0.002855	0.271383
Br134	Br	-0.580237	-0.140708	0.288250
Br135	Br	-0.242230	-0.063480	-0.179951
H136	H	0.047137	-0.060583	0.097379
H137	H	0.047136	-0.060557	-0.097206
H138	H	-0.499324	-0.066146	-0.097228
H139	H	-0.524592	0.541630	0.000058
H140	H	-0.601458	-0.122740	0.841077
Br141	Br	-0.545400	0.789974	0.000083
H142	H	-0.818721	0.424218	0.000067
H143	H	-0.118359	-0.062226	-0.150837
H144	H	-0.601441	-0.122740	0.728756
Br145	Br	-0.554175	0.056070	0.000057
Br146	Br	-0.580230	-0.140709	0.142298
H147	H	-0.574847	0.688099	0.000067
Br148	Br	-0.541221	-0.173720	0.573064
H149	H	-0.581107	0.164487	0.000066
H150	H	-0.526400	0.390391	0.000053
H151	H	-0.770658	0.094839	0.000077
Br152	Br	-0.844950	0.592418	0.000052
Br153	Br	-0.803194	0.048134	0.427065
H154	H	-0.769567	0.186292	0.000067
Br155	Br	-0.791668	0.699475	0.000106
Br156	Br	-0.846377	0.473599	0.000045
Br157	Br	-0.803202	0.048143	0.572991
H158	H	-0.527500	0.298928	0.000049
H159	H	-0.762211	0.801366	0.000090
H160	H	-0.819815	0.332768	0.000065
