data_functionalizedCrystal
_audit_creation_method	'MofGen! by Chris Wilmer'
_symmetry_space_group_name_H-M	'P1'
_symmetry_Int_Tables_number	1
_symmetry_cell_setting	triclinic
loop_
_symmetry_equiv_pos_as_xyz
  x,y,z
_cell_length_a	11.792241
_cell_length_b	23.532407
_cell_length_c	10.268362
_cell_angle_alpha	89.990068
_cell_angle_beta	89.999626
_cell_angle_gamma	83.521047
loop_
_atom_site_label
_atom_site_type_symbol
_atom_site_fract_x
_atom_site_fract_y
_atom_site_fract_z
O1	O	1.505071	0.078055	-0.108188
O2	O	2.005071	0.578055	0.391812
O3	O	1.174541	0.086099	-0.108220
O4	O	1.674541	0.586099	0.391780
O5	O	1.349773	-0.000795	-0.108179
O6	O	1.849773	0.499205	0.391821
O7	O	1.329839	0.164950	-0.108229
O8	O	1.829839	0.664950	0.391771
O9	O	1.349758	-0.000799	0.108421
O10	O	1.849758	0.499201	0.608421
O11	O	1.174526	0.086096	0.108380
O12	O	1.674526	0.586096	0.608380
O13	O	1.505056	0.078051	0.108412
O14	O	2.005056	0.578051	0.608412
Cu15	Cu	1.339790	0.082073	0.128174
Cu16	Cu	1.839790	0.582073	0.628174
Cu17	Cu	1.339808	0.082078	-0.127982
Cu18	Cu	1.839808	0.582078	0.372018
O19	O	1.329824	0.164946	0.108372
O20	O	1.829824	0.664946	0.608372
C21	C	1.132254	0.085592	0.000076
C22	C	1.632254	0.585592	0.500076
C23	C	1.006276	0.084080	0.000065
C24	C	1.506276	0.584080	0.500065
C25	C	0.775630	0.081299	0.000104
C26	C	1.275630	0.581299	0.500104
C27	C	0.903978	0.082844	0.000082
C28	C	1.403978	0.582844	0.500082
C29	C	1.349258	-0.022016	0.000124
C30	C	1.849258	0.477984	0.500124
C31	C	1.347732	-0.085242	0.000134
C32	C	1.847732	0.414758	0.500134
C33	C	1.441858	-0.483788	0.000072
C34	C	1.941858	0.016212	0.500072
C35	C	1.440440	-0.543196	0.000062
C36	C	1.940440	-0.043196	0.500062
O37	O	1.527696	-0.579424	0.000022
O38	O	2.027696	-0.079424	0.500022
N39	N	1.336265	-0.566440	0.000053
N40	N	1.836265	-0.066440	0.500053
C41	C	1.233500	-0.530271	0.000040
C42	C	1.733500	-0.030271	0.500040
O43	O	1.144761	-0.555497	0.000030
O44	O	1.644761	-0.055497	0.500030
C45	C	1.234919	-0.470864	0.000041
C46	C	1.734919	0.029136	0.500041
C47	C	1.339102	-0.447624	0.000063
C48	C	1.839102	0.052376	0.500063
C49	C	1.546032	-0.460547	0.000093
C50	C	2.046032	0.039453	0.500093
C51	C	1.547449	-0.401142	0.000105
C52	C	2.047449	0.098858	0.500105
C53	C	1.444693	-0.364979	0.000097
C54	C	1.944693	0.135021	0.500097
C55	C	1.340519	-0.388219	0.000076
C56	C	1.840519	0.111781	0.500076
C57	C	1.132156	-0.434696	0.000019
C58	C	1.632156	0.065304	0.500019
C59	C	1.133584	-0.375285	0.000019
C60	C	1.633584	0.124715	0.500019
C61	C	1.237766	-0.352045	0.000041
C62	C	1.737766	0.147955	0.500041
C63	C	1.239180	-0.292651	0.000080
C64	C	1.739180	0.207349	0.500080
N65	N	1.343355	-0.269407	0.000089
N66	N	1.843355	0.230593	0.500089
C67	C	1.446112	-0.305571	0.000097
C68	C	1.946112	0.194429	0.500097
C69	C	1.230528	-0.655031	0.000036
C70	C	1.730528	-0.155031	0.500036
C71	C	1.229108	-0.714438	0.000045
C72	C	1.729108	-0.214438	0.500045
C73	C	1.436049	-0.727359	0.000064
C74	C	1.936049	-0.227359	0.500064
C75	C	1.437468	-0.667951	0.000065
C76	C	1.937468	-0.167951	0.500065
C77	C	1.334704	-0.631788	0.000046
C78	C	1.834704	-0.131788	0.500046
C79	C	1.449080	-0.180817	0.000125
C80	C	1.949080	0.319183	0.500125
C81	C	1.450489	-0.121406	0.000142
C82	C	1.950489	0.378594	0.500142
C83	C	1.243549	-0.108491	0.000117
C84	C	1.743549	0.391509	0.500117
C85	C	1.242140	-0.167896	0.000106
C86	C	1.742140	0.332104	0.500106
C87	C	1.344915	-0.204058	0.000105
C88	C	1.844915	0.295942	0.500105
O89	O	1.151970	-0.256388	0.000114
O90	O	1.651970	0.243612	0.500114
O91	O	1.534837	-0.280337	0.000090
O92	O	2.034837	0.219663	0.500090
C93	C	1.547343	0.078558	0.000113
C94	C	2.047343	0.578558	0.500113
C95	C	1.673321	0.080071	0.000115
C96	C	2.173321	0.580071	0.500115
C97	C	1.330339	0.186167	0.000065
C98	C	1.830339	0.686167	0.500065
C99	C	1.331865	0.249393	0.000047
C100	C	1.831865	0.749393	0.500047
N101	N	1.339786	0.082070	0.308340
N102	N	1.839786	0.582070	0.808340
N103	N	1.339821	0.082076	-0.308148
N104	N	1.839821	0.582076	0.191852
C105	C	1.339802	0.082076	0.574010
C106	C	1.839802	0.582076	1.074010
C107	C	1.339789	0.082074	0.426172
C108	C	1.839789	0.582074	0.926172
H109	H	1.535330	-0.102488	0.000164
H110	H	2.035330	0.397512	0.500164
C111	C	1.552075	-0.642393	0.000078
C112	C	2.052075	-0.142393	0.500078
N113	N	1.638402	-0.623146	0.000083
N114	N	2.138402	-0.123146	0.500083
H115	H	1.047320	-0.453608	-0.000007
H116	H	1.547320	0.046392	0.499993
C117	C	1.020532	-0.335509	0.000003
C118	C	1.520532	0.164491	0.500003
N119	N	0.935382	-0.305550	-0.000005
N120	N	1.435382	0.194450	0.499995
H121	H	1.532770	-0.210254	0.000119
H122	H	2.032770	0.289746	0.500119
C123	C	1.662059	-0.375587	0.000116
C124	C	2.162059	0.124413	0.500116
N125	N	1.748389	-0.356342	0.000118
N126	N	2.248389	0.143658	0.500118
H127	H	1.157306	-0.186819	0.000124
H128	H	1.657306	0.313181	0.500124
H129	H	1.519719	-0.756814	0.000066
H130	H	2.019719	-0.256814	0.500066
C131	C	1.659083	-0.500319	0.000116
C132	C	2.159083	-0.000319	0.500116
N133	N	1.744241	-0.530272	0.000147
N134	N	2.244241	-0.030272	0.500147
C135	C	1.114500	-0.739995	0.000037
C136	C	1.614500	-0.239995	0.500037
N137	N	1.028172	-0.759242	0.000022
N138	N	1.528172	-0.259242	0.500022
H139	H	1.146840	-0.625590	0.000032
H140	H	1.646840	-0.125590	0.500032
C141	C	1.130522	-0.068699	0.000098
C142	C	1.630522	0.431301	0.500098
N143	N	1.045390	-0.038727	0.000072
N144	N	1.545390	0.461273	0.500072
