data_functionalizedCrystal
_audit_creation_method	'MofGen! by Chris Wilmer'
_symmetry_space_group_name_H-M	'P1'
_symmetry_Int_Tables_number	1
_symmetry_cell_setting	triclinic
loop_
_symmetry_equiv_pos_as_xyz
  x,y,z
_cell_length_a	13.897448
_cell_length_b	12.759401
_cell_length_c	12.759393
_cell_angle_alpha	89.980324
_cell_angle_beta	89.967728
_cell_angle_gamma	90.018119
loop_
_atom_site_label
_atom_site_type_symbol
_atom_site_fract_x
_atom_site_fract_y
_atom_site_fract_z
Zn1	Zn	-0.383957	1.606244	-0.593972
Zn2	Zn	-0.545284	1.606126	-0.418286
Zn3	Zn	-0.384005	1.430543	-0.418311
Zn4	Zn	-0.545213	1.430526	-0.593928
O5	O	-0.464615	1.518360	-0.506124
O6	O	-0.405367	1.753250	-0.570675
O7	O	-0.523939	1.582793	-0.271269
O8	O	-0.249017	1.453907	-0.441641
O9	O	-0.523893	1.753163	-0.441600
O10	O	-0.248982	1.582994	-0.570699
O11	O	-0.405449	1.453793	-0.271286
O12	O	-0.405381	1.283520	-0.441598
O13	O	-0.523773	1.453878	-0.740955
O14	O	-0.523819	1.283507	-0.570623
O15	O	-0.405299	1.582977	-0.740987
O16	O	-0.680256	1.582776	-0.441557
O17	O	-0.680204	1.453763	-0.570600
C18	C	-0.464598	1.245393	-0.506109
C19	C	-0.464614	1.128616	-0.506128
C20	C	-0.403010	1.073800	-0.573441
C21	C	-0.403019	0.964076	-0.573448
C22	C	-0.526247	0.963994	-0.438826
C23	C	-0.526232	1.073716	-0.438814
C24	C	-0.715229	1.518283	-0.506094
C25	C	-0.822443	1.518347	-0.506116
C26	C	-1.018738	1.518457	-0.506182
C27	C	-0.909506	1.518393	-0.506148
C28	C	-0.213022	1.518466	-0.506178
C29	C	-0.105808	1.518511	-0.506200
C30	C	-0.464522	1.518439	-0.780158
C31	C	-0.464483	1.518472	-0.896934
C32	C	-0.464632	1.792393	-0.506140
C33	C	-0.464640	1.909170	-0.506146
C34	C	-0.402784	1.585699	-0.951815
C35	C	-0.402742	1.585717	-1.061539
C36	C	-0.526107	1.451278	-1.061492
C37	C	-0.526143	1.451255	-0.951770
C38	C	-0.464638	1.518342	-0.233157
C39	C	-0.464405	1.518512	-0.116381
H40	H	-0.352853	0.919449	-0.628259
H41	H	-0.576415	0.919281	-0.384022
H42	H	-0.352573	1.640429	-0.907171
H43	H	-0.576399	1.118348	-0.383994
O44	O	-0.342779	1.651123	-1.114687
C45	C	-0.220384	1.784425	-1.103147
C46	C	-0.288263	1.710422	-1.042827
H47	H	-0.176276	1.832372	-1.045075
H48	H	-0.264610	1.839420	-1.154488
H49	H	-0.169964	1.736207	-1.154546
H50	H	-0.338697	1.758556	-0.991372
H51	H	-0.243977	1.655425	-0.991552
O52	O	-0.585975	1.386091	-1.114925
C53	C	-0.640554	1.326498	-1.283936
C54	C	-0.572719	1.400392	-1.223559
H55	H	-0.629846	1.338020	-1.371777
H56	H	-0.718363	1.344909	-1.262425
H57	H	-0.623625	1.241797	-1.262292
H58	H	-0.589562	1.485119	-1.245170
H59	H	-0.494930	1.381891	-1.245075
O60	O	-0.586175	1.385915	-0.898615
C61	C	-0.708493	1.252528	-0.910138
C62	C	-0.640581	1.326488	-0.970467
H63	H	-0.752484	1.204446	-0.968204
H64	H	-0.759013	1.300682	-0.858792
H65	H	-0.664201	1.197650	-0.858743
H66	H	-0.684795	1.381381	-1.021919
H67	H	-0.590058	1.278269	-1.021747
H68	H	-0.352834	1.118496	-0.628249
