data_functionalizedCrystal
_audit_creation_method	'MofGen! by Chris Wilmer'
_symmetry_space_group_name_H-M	'P1'
_symmetry_Int_Tables_number	1
_symmetry_cell_setting	triclinic
loop_
_symmetry_equiv_pos_as_xyz
  x,y,z
_cell_length_a	15.995350
_cell_length_b	14.044220
_cell_length_c	13.101039
_cell_angle_alpha	93.667477
_cell_angle_beta	86.645958
_cell_angle_gamma	88.340626
loop_
_atom_site_label
_atom_site_type_symbol
_atom_site_fract_x
_atom_site_fract_y
_atom_site_fract_z
O1	O	1.124322	0.116953	-0.085130
O2	O	1.624322	0.616953	0.414870
O3	O	0.881675	0.132040	-0.085151
O4	O	1.381675	0.632040	0.414849
O5	O	0.999356	-0.013487	-0.085130
O6	O	1.499356	0.486513	0.414870
O7	O	1.006641	0.262481	-0.085150
O8	O	1.506641	0.762481	0.414850
O9	O	0.990914	-0.003029	0.085298
O10	O	1.490914	0.496971	0.585298
O11	O	0.873233	0.142498	0.085277
O12	O	1.373233	0.642498	0.585277
O13	O	1.115880	0.127412	0.085299
O14	O	1.615880	0.627412	0.585299
Zn15	Zn	0.993216	0.136616	0.112347
Zn16	Zn	1.493216	0.636616	0.612347
Zn17	Zn	1.004339	0.122836	-0.112199
Zn18	Zn	1.504339	0.622836	0.387801
O19	O	0.998199	0.272939	0.085278
O20	O	1.498199	0.772939	0.585278
C21	C	0.991946	-0.043573	0.000084
C22	C	1.491946	0.456427	0.500084
C23	C	0.982435	-0.148798	0.000084
C24	C	1.482435	0.351202	0.500084
C25	C	0.846213	0.136645	0.000061
C26	C	1.346213	0.636645	0.500061
C27	C	0.753123	0.134775	0.000053
C28	C	1.253123	0.634775	0.500053
C29	C	0.965048	-0.341461	0.000068
C30	C	1.465048	0.158539	0.500068
C31	C	1.032504	-0.399094	0.000071
C32	C	1.532504	0.100906	0.500071
C33	C	1.022829	-0.506298	0.000062
C34	C	1.522829	-0.006298	0.500062
C35	C	0.974721	-0.234247	0.000077
C36	C	1.474721	0.265753	0.500077
C37	C	0.414873	0.128060	0.000075
C38	C	0.914873	0.628060	0.500075
C39	C	0.454547	0.024441	0.000462
C40	C	0.954547	0.524441	0.500462
C41	C	0.551396	0.026288	0.000071
C42	C	1.051396	0.526288	0.500071
C43	C	0.582683	0.131391	0.000064
C44	C	1.082683	0.631391	0.500064
C45	C	0.550234	0.176539	-0.097258
C46	C	1.050234	0.676539	0.402742
C47	C	0.453408	0.173930	-0.097332
C48	C	0.953408	0.673930	0.402668
C49	C	0.443629	0.187965	0.096477
C50	C	0.943629	0.687965	0.596477
C51	C	0.540509	0.188019	0.097756
C52	C	1.040509	0.688019	0.597756
C53	C	0.677522	0.133278	0.000055
C54	C	1.177522	0.633278	0.500055
C55	C	0.320034	0.126176	0.000077
C56	C	0.820034	0.626176	0.500077
C57	C	1.151342	0.122807	0.000085
C58	C	1.651342	0.622807	0.500085
C59	C	1.244432	0.124677	0.000086
C60	C	1.744432	0.624677	0.500086
C61	C	1.005609	0.303024	0.000062
C62	C	1.505609	0.803024	0.500062
C63	C	1.015120	0.408250	0.000055
C64	C	1.515120	0.908250	0.500055
N65	N	0.985631	0.146020	0.265595
N66	N	1.485631	0.646020	0.765595
N67	N	1.011930	0.113425	-0.265447
N68	N	1.511930	0.613425	0.234553
C69	C	0.975312	0.158822	0.474635
C70	C	1.475312	0.658822	0.974635
C71	C	1.022247	0.100625	0.525519
C72	C	1.522247	0.600625	1.025519
C73	C	1.016505	0.107749	0.641837
C74	C	1.516505	0.607749	1.141837
C75	C	0.981052	0.151700	0.358307
C76	C	1.481052	0.651700	0.858307
H77	H	1.097524	-0.367926	0.000008
H78	H	1.597524	0.132074	0.500008
H79	H	1.066742	0.045452	0.481725
H80	H	1.566742	0.545452	0.981725
C81	C	0.407534	0.148311	0.196131
C82	C	0.907534	0.648311	0.696131
H83	H	0.374588	0.094842	0.179874
H84	H	0.874588	0.594842	0.679874
H85	H	0.373597	0.196381	0.234125
H86	H	0.873597	0.696381	0.734125
H87	H	0.452155	0.129222	0.235866
H88	H	0.952155	0.629222	0.735866
H89	H	0.900036	-0.372630	0.000060
H90	H	1.400036	0.127370	0.500060
H91	H	0.930821	0.213994	0.518425
H92	H	1.430821	0.713994	1.018425
H93	H	0.573368	-0.009614	0.069836
H94	H	1.073368	0.490386	0.569836
H95	H	0.417542	0.264420	0.097130
H96	H	0.917542	0.764420	0.597130
C97	C	0.420670	-0.025742	0.094744
C98	C	0.920670	0.474258	0.594744
H99	H	0.382022	0.016044	0.134715
H100	H	0.882022	0.516044	0.634715
H101	H	0.465845	-0.042340	0.134816
H102	H	0.965845	0.457660	0.634816
H103	H	0.393224	-0.081886	0.072864
H104	H	0.893224	0.418114	0.572864
C105	C	0.428564	-0.037031	-0.093288
C106	C	0.928564	0.462969	0.406712
H107	H	0.452798	-0.099519	-0.092463
H108	H	0.952798	0.400481	0.407537
H109	H	0.447602	-0.009125	-0.154235
H110	H	0.947602	0.490875	0.345765
H111	H	0.369256	-0.040383	-0.090993
H112	H	0.869256	0.459617	0.409007
C113	C	0.589630	-0.034144	-0.094337
C114	C	1.089630	0.465856	0.405663
H115	H	0.545964	-0.059912	-0.132605
H116	H	1.045964	0.440088	0.367395
H117	H	0.623654	-0.084685	-0.072637
H118	H	1.123654	0.415315	0.427363
H119	H	0.622852	0.004893	-0.136028
H120	H	1.122852	0.504893	0.363972
C121	C	0.429777	0.117533	-0.195598
C122	C	0.929777	0.617533	0.304402
H123	H	0.479326	0.096425	-0.235095
H124	H	0.979326	0.596425	0.264905
H125	H	0.396893	0.157493	-0.234510
H126	H	0.896893	0.657493	0.265490
H127	H	0.398545	0.063871	-0.177810
H128	H	0.898545	0.563871	0.322190
H129	H	0.427062	0.249752	-0.101754
H130	H	0.927062	0.749752	0.398246
H131	H	0.561472	0.155120	0.169754
H132	H	1.061472	0.655120	0.669754
H133	H	0.570306	0.253533	-0.100882
H134	H	1.070306	0.753533	0.399118
H135	H	0.579544	0.136588	-0.169683
H136	H	1.079544	0.636588	0.330317
C137	C	0.568601	0.292048	0.105695
C138	C	1.068601	0.792048	0.605695
H139	H	0.606582	0.302354	0.049278
H140	H	1.106582	0.802354	0.549278
H141	H	0.595475	0.303881	0.167809
H142	H	1.095475	0.803881	0.667809
H143	H	0.521072	0.334091	0.104871
H144	H	1.021072	0.834091	0.604871
