data_functionalizedCrystal
_audit_creation_method	'MofGen! by Chris Wilmer'
_symmetry_space_group_name_H-M	'P1'
_symmetry_Int_Tables_number	1
_symmetry_cell_setting	triclinic
loop_
_symmetry_equiv_pos_as_xyz
  x,y,z
_cell_length_a	16.974848
_cell_length_b	19.288865
_cell_length_c	15.455283
_cell_angle_alpha	86.972425
_cell_angle_beta	96.642807
_cell_angle_gamma	96.731495
loop_
_atom_site_label
_atom_site_type_symbol
_atom_site_fract_x
_atom_site_fract_y
_atom_site_fract_z
O1	O	-1.055038	0.094103	-0.146214
O2	O	-0.824103	0.104755	-0.130004
O3	O	-0.946243	-0.001672	-0.138560
O4	O	-0.932898	0.200530	-0.137658
O5	O	-0.940086	-0.007145	0.006136
O6	O	-0.817947	0.099283	0.014693
O7	O	-1.048881	0.088630	-0.001518
Cu8	Cu	-0.932852	0.093457	0.019799
Cu9	Cu	-0.940133	0.099929	-0.151321
O10	O	-0.926742	0.195057	0.007039
C11	C	-0.791480	0.101510	-0.055581
C12	C	-0.703446	0.099986	-0.049401
C13	C	-0.207542	0.091111	-0.006146
C14	C	-0.290260	0.092543	-0.011954
C15	C	-0.334976	0.096237	-0.093734
C16	C	-0.296969	0.098506	-0.169710
C17	C	-0.214252	0.097079	-0.163900
C18	C	-0.582722	0.100829	-0.119567
C19	C	-0.665445	0.102253	-0.125371
C20	C	-0.658730	0.096291	0.032385
C21	C	-0.576013	0.094860	0.038187
C22	C	-0.538012	0.097133	-0.037788
N23	N	-0.419527	0.097698	-0.099674
N24	N	-0.453462	0.095677	-0.031848
C25	C	-0.942735	-0.030287	-0.066179
C26	C	-0.941445	-0.107397	-0.066081
C27	C	-1.013111	-0.151772	-0.071107
C28	C	-1.011901	-0.224224	-0.071036
C29	C	-0.939020	-0.252298	-0.065921
C30	C	-0.867344	-0.207913	-0.060899
C31	C	-0.868557	-0.135462	-0.060979
C32	C	-0.879570	-0.362759	-0.011215
C33	C	-0.878360	-0.435209	-0.011130
C34	C	-0.935276	-0.475760	-0.065677
C35	C	-0.993415	-0.443853	-0.120300
C36	C	-0.994628	-0.371402	-0.120380
C37	C	-0.937696	-0.330858	-0.065834
C38	C	-1.005634	-0.598696	-0.070628
C39	C	-1.004421	-0.671149	-0.070562
C40	C	-0.859862	-0.654837	-0.060416
C41	C	-0.861078	-0.582385	-0.060491
C42	C	-0.933966	-0.554320	-0.065593
C43	C	-0.081505	0.091870	-0.075939
C44	C	-0.169541	0.093378	-0.082116
C45	C	-0.930250	0.223672	-0.065344
C46	C	-0.931539	0.300782	-0.065448
N47	N	-0.945254	0.104476	-0.271677
C48	C	-0.899351	0.063863	-0.313835
C49	C	-0.903237	0.067283	-0.404917
C50	C	-0.953021	0.111319	-0.453839
C51	C	-0.998929	0.151933	-0.411675
C52	C	-0.995047	0.148509	-0.320595
C53	C	-0.969763	0.126094	-0.726601
C54	C	-0.973639	0.129516	-0.817687
C55	C	-0.877948	0.044865	-0.810922
C56	C	-0.874067	0.041448	-0.719841
C57	C	-0.919978	0.082059	-0.677685
N58	N	-0.956991	0.114817	-0.546939
N59	N	-0.916012	0.078557	-0.584587
N60	N	-0.927736	0.088904	0.140155
H61	H	-0.539612	0.091837	0.104781
H62	H	-1.039762	-0.476868	-0.164718
H63	H	-1.032427	0.181580	-0.286272
H64	H	-0.802719	-0.546254	-0.056393
F65	F	-0.818989	-0.319609	0.046847
H66	H	-1.070262	-0.260360	-0.075133
F67	F	-1.018622	0.169320	-0.681747
F68	F	-0.789779	-0.237793	-0.055460
H69	H	-0.171140	0.088106	0.060448
F70	F	-0.821077	-0.005418	-0.667781
H71	H	-1.072463	-0.128925	-0.075265
H72	H	-0.333383	0.101518	-0.236297
F73	F	-1.051917	0.198796	-0.463744
H74	H	-0.831016	-0.461181	0.033342
F75	F	-0.713034	0.106185	-0.212416
F76	F	-0.542291	0.103245	-0.200428
H77	H	-0.183313	0.098927	-0.225763
F78	F	-0.792277	-0.088233	-0.055629
H79	H	-0.800521	-0.677694	-0.056255
F80	F	-0.829091	0.001645	-0.855794
H81	H	-1.014178	0.165381	-0.857517
F82	F	-1.056499	-0.337447	-0.178515
F83	F	-0.699178	0.093876	0.113238
H84	H	-1.064984	-0.575843	-0.074787
H85	H	-0.858808	0.028008	-0.274009
H86	H	-0.321197	0.090695	0.049909
H87	H	-1.062783	-0.707279	-0.074660
H88	H	-0.865860	0.034210	-0.439238
