data_functionalizedCrystal
_audit_creation_method	'MofGen! by Chris Wilmer'
_symmetry_space_group_name_H-M	'P1'
_symmetry_Int_Tables_number	1
_symmetry_cell_setting	triclinic
loop_
_symmetry_equiv_pos_as_xyz
  x,y,z
_cell_length_a	27.732048
_cell_length_b	19.288865
_cell_length_c	26.210047
_cell_angle_alpha	90.009860
_cell_angle_beta	90.010925
_cell_angle_gamma	82.889452
loop_
_atom_site_label
_atom_site_type_symbol
_atom_site_fract_x
_atom_site_fract_y
_atom_site_fract_z
O1	O	-0.641185	-0.082647	-0.042369
O2	O	-0.307852	0.250687	0.290964
O3	O	0.025481	0.584020	0.624298
O4	O	-0.500430	-0.095213	-0.042385
O5	O	-0.167096	0.238120	0.290948
O6	O	0.166237	0.571453	0.624281
O7	O	-0.574875	0.012226	-0.042367
O8	O	-0.241541	0.345559	0.290967
O9	O	0.091792	0.678892	0.624300
O10	O	-0.566740	-0.190086	-0.042388
O11	O	-0.233407	0.143248	0.290946
O12	O	0.099926	0.476581	0.624279
O13	O	-0.574851	0.012226	0.042492
O14	O	-0.241518	0.345559	0.375825
O15	O	0.091815	0.678892	0.709158
O16	O	-0.500406	-0.095213	0.042473
O17	O	-0.167073	0.238120	0.375806
O18	O	0.166260	0.571453	0.709139
O19	O	-0.641162	-0.082647	0.042489
O20	O	-0.307829	0.250687	0.375822
O21	O	0.025505	0.584020	0.709156
Cu22	Cu	-0.570782	-0.088930	0.050229
Cu23	Cu	-0.237449	0.244403	0.383562
Cu24	Cu	0.095885	0.577737	0.716896
Cu25	Cu	-0.570810	-0.088930	-0.050125
Cu26	Cu	-0.237476	0.244403	0.283208
Cu27	Cu	0.095857	0.577737	0.616541
O28	O	-0.566717	-0.190086	0.042470
O29	O	-0.233384	0.143248	0.375804
O30	O	0.099950	0.476581	0.709137
C31	C	-0.574601	0.038100	0.000064
C32	C	-0.241268	0.371434	0.333397
C33	C	0.092065	0.704767	0.666731
C34	C	-0.573816	0.115199	0.000068
C35	C	-0.240482	0.448532	0.333402
C36	C	0.092851	0.781866	0.666735
C37	C	-0.482410	-0.094950	0.000042
C38	C	-0.149077	0.238384	0.333375
C39	C	0.184256	0.571717	0.666709
C40	C	-0.428753	-0.094155	0.000036
C41	C	-0.095420	0.239178	0.333369
C42	C	0.237914	0.572511	0.666703
C43	C	-0.659181	-0.082910	0.000061
C44	C	-0.325848	0.250423	0.333394
C45	C	0.007485	0.583756	0.666728
C46	C	-0.712839	-0.083705	0.000063
C47	C	-0.379505	0.249629	0.333397
C48	C	-0.046172	0.582962	0.666730
C49	C	-0.090115	-0.152644	0.000052
C50	C	0.243219	0.180689	0.333385
C51	C	0.576552	0.514023	0.666719
C52	C	0.111554	-0.149697	0.000057
C53	C	0.444887	0.183636	0.333390
C54	C	0.778220	0.516970	0.666724
O55	O	0.142648	-0.203181	0.000073
O56	O	0.475981	0.130153	0.333407
O57	O	0.809315	0.463486	0.666740
N58	N	0.130870	-0.085990	0.000063
N59	N	0.464203	0.247343	0.333396
N60	N	0.797537	0.580677	0.666729
C61	C	0.099766	-0.023015	0.000071
C62	C	0.433099	0.310318	0.333404
C63	C	0.766432	0.643651	0.666737
O64	O	0.120823	0.031239	0.000081
O65	O	0.454156	0.364572	0.333414
O66	O	0.787489	0.697906	0.666748
C67	C	-0.101902	-0.025963	0.000069
C68	C	0.231431	0.307370	0.333403
C69	C	0.564765	0.640703	0.666736
C70	C	-0.121215	-0.089674	0.000058
C71	C	0.212118	0.243659	0.333392
C72	C	0.545452	0.576992	0.666725
C73	C	-0.109428	-0.216350	0.000042
C74	C	0.223905	0.116983	0.333375
C75	C	0.557238	0.450317	0.666708
C76	C	-0.159843	-0.217086	0.000038
C77	C	0.173491	0.116247	0.333371
C78	C	0.506824	0.449581	0.666704
C79	C	-0.190943	-0.154116	0.000044
C80	C	0.142390	0.179217	0.333377
C81	C	0.475724	0.512550	0.666711
C82	C	-0.171629	-0.090410	0.000054
C83	C	0.161704	0.242923	0.333388
C84	C	0.495037	0.576256	0.666721
C85	C	-0.133005	0.037011	0.000081
C86	C	0.200328	0.370344	0.333414
C87	C	0.533661	0.703677	0.666748
C88	C	-0.183425	0.036268	0.000082
C89	C	0.149908	0.369601	0.333415
C90	C	0.483242	0.702935	0.666749
C91	C	-0.202738	-0.027443	0.000071
C92	C	0.130595	0.305890	0.333404
C93	C	0.463929	0.639224	0.666738
C94	C	-0.253144	-0.028177	0.000057
C95	C	0.080189	0.305157	0.333390
C96	C	0.413523	0.638490	0.666723
N97	N	-0.272460	-0.091884	0.000051
N98	N	0.060873	0.241450	0.333384
N99	N	0.394207	0.574783	0.666718
C100	C	-0.241360	-0.154853	0.000045
C101	C	0.091974	0.178480	0.333378
C102	C	0.425307	0.511813	0.666711
C103	C	0.205644	-0.021472	0.000070
C104	C	0.538978	0.311861	0.333404
C105	C	0.872311	0.645194	0.666737
C106	C	0.256061	-0.020735	0.000070
C107	C	0.589394	0.312598	0.333403
C108	C	0.922728	0.645932	0.666736
C109	C	0.267846	-0.147417	0.000057
C110	C	0.601179	0.185916	0.333390
C111	C	0.934512	0.519250	0.666724
C112	C	0.217428	-0.148153	0.000054
C113	C	0.550761	0.185180	0.333387
C114	C	0.884095	0.518513	0.666721
C115	C	0.186328	-0.085179	0.000064
C116	C	0.519661	0.248154	0.333398
C117	C	0.852995	0.581488	0.666731
C118	C	-0.347234	-0.156395	0.000036
C119	C	-0.013900	0.176939	0.333369
C120	C	0.319433	0.510272	0.666703
C121	C	-0.397653	-0.157125	0.000030
C122	C	-0.064319	0.176208	0.333363
C123	C	0.269014	0.509542	0.666696
C124	C	-0.409433	-0.030444	0.000045
C125	C	-0.076100	0.302890	0.333378
C126	C	0.257234	0.636223	0.666712
C127	C	-0.359018	-0.029713	0.000049
C128	C	-0.025685	0.303621	0.333382
C129	C	0.307648	0.636954	0.666715
C130	C	-0.327919	-0.092694	0.000046
C131	C	0.005414	0.240640	0.333379
C132	C	0.338747	0.573973	0.666712
O133	O	-0.284266	0.025278	0.000046
O134	O	0.049067	0.358612	0.333379
O135	O	0.382400	0.691945	0.666713
O136	O	-0.262426	-0.209100	0.000046
O137	O	0.070907	0.124234	0.333379
O138	O	0.404241	0.457567	0.666712
C139	C	-0.039701	-0.151908	0.000056
C140	C	0.293633	0.181425	0.333389
C141	C	0.626966	0.514759	0.666723
C142	C	-0.020387	-0.088202	0.000066
C143	C	0.312947	0.245131	0.333400
C144	C	0.646280	0.578465	0.666733
C145	C	-0.051487	-0.025232	0.000073
C146	C	0.281846	0.308101	0.333406
C147	C	0.615179	0.641434	0.666739
C148	C	0.030030	-0.087465	0.000066
C149	C	0.363363	0.245868	0.333399
C150	C	0.696697	0.579202	0.666733
C151	C	0.061130	-0.150435	0.000059
C152	C	0.394464	0.182899	0.333393
C153	C	0.727797	0.516232	0.666726
C154	C	0.041814	-0.214142	0.000054
C155	C	0.375147	0.119192	0.333387
C156	C	0.708481	0.452525	0.666720
C157	C	-0.008600	-0.214878	0.000050
C158	C	0.324733	0.118456	0.333383
C159	C	0.658067	0.451789	0.666716
C160	C	-0.032171	0.038475	0.000079
C161	C	0.301162	0.371808	0.333412
C162	C	0.634496	0.705141	0.666745
C163	C	0.018244	0.039206	0.000082
C164	C	0.351577	0.372539	0.333415
C165	C	0.684910	0.705872	0.666749
C166	C	0.049344	-0.023764	0.000076
C167	C	0.382677	0.309569	0.333409
C168	C	0.716011	0.642902	0.666742
C169	C	-0.566990	-0.215961	0.000039
C170	C	-0.233657	0.117373	0.333372
C171	C	0.099676	0.450706	0.666705
C172	C	-0.567776	-0.293059	0.000031
C173	C	-0.234443	0.040274	0.333364
C174	C	0.098891	0.373607	0.666698
N175	N	-0.570766	-0.088930	0.120813
N176	N	-0.237433	0.244404	0.454146
N177	N	0.095901	0.577737	0.787480
C178	C	-0.617496	0.160168	0.000076
C179	C	-0.284163	0.493501	0.333409
C180	C	0.049170	0.826835	0.666743
C181	C	-0.616758	0.232610	0.000068
C182	C	-0.283425	0.565944	0.333401
C183	C	0.049908	0.899277	0.666734
C184	C	-0.572337	0.260081	0.000062
C185	C	-0.239003	0.593414	0.333396
C186	C	0.094330	0.926748	0.666729
C187	C	-0.528650	0.215102	0.000052
C188	C	-0.195317	0.548436	0.333385
C189	C	0.138016	0.881769	0.666719
C190	C	-0.529390	0.142661	0.000055
C191	C	-0.196056	0.475995	0.333388
C192	C	0.137277	0.809328	0.666722
C193	C	-0.537408	0.368150	0.029782
C194	C	-0.204075	0.701484	0.363116
C195	C	0.129259	1.034817	0.696449
C196	C	-0.536671	0.440590	0.029782
C197	C	-0.203337	0.773924	0.363116
C198	C	0.129996	1.107257	0.696449
C199	C	-0.570054	0.483512	0.000051
C200	C	-0.236721	0.816846	0.333384
C201	C	0.096612	1.150179	0.666717
C202	C	-0.604184	0.453987	-0.029675
C203	C	-0.270851	0.787320	0.303659
C204	C	0.062482	1.120654	0.636992
C205	C	-0.604924	0.381546	-0.029672
C206	C	-0.271590	0.714879	0.303662
C207	C	0.061743	1.048213	0.636995
C208	C	-0.571530	0.338630	0.000059
C209	C	-0.238197	0.671963	0.333392
C210	C	0.095137	1.005296	0.666725
C211	C	-0.612938	0.607032	0.000049
C212	C	-0.279605	0.940365	0.333382
C213	C	0.053729	1.273699	0.666715
C214	C	-0.612198	0.679475	0.000037
C215	C	-0.278865	1.012809	0.333371
C216	C	0.054469	1.346142	0.666704
C217	C	-0.524089	0.661966	0.000027
C218	C	-0.190755	0.995299	0.333360
C219	C	0.142578	1.328632	0.666693
C220	C	-0.524830	0.589524	0.000033
C221	C	-0.191497	0.922857	0.333366
C222	C	0.141837	1.256190	0.666699
C223	C	-0.569256	0.562062	0.000046
C224	C	-0.235923	0.895395	0.333380
C225	C	0.097411	1.228728	0.666713
N226	N	-0.570829	-0.088925	-0.120709
N227	N	-0.237496	0.244408	0.212624
N228	N	0.095837	0.577742	0.545957
C229	C	-0.600028	-0.130760	0.473326
C230	C	-0.266695	0.202573	0.806659
C231	C	0.066639	0.535906	1.139993
C232	C	-0.600042	-0.130760	0.686985
C233	C	-0.266709	0.202574	1.020318
C234	C	0.066624	0.535907	1.353651
O235	O	-0.624911	-0.166318	0.714606
O236	O	-0.291577	0.167015	1.047939
O237	O	0.041756	0.500349	1.381272
N238	N	-0.570821	-0.088923	0.713707
N239	N	-0.237488	0.244410	1.047040
N240	N	0.095846	0.577744	1.380374
C241	C	-0.541597	-0.047080	0.687011
C242	C	-0.208263	0.286254	1.020345
C243	C	0.125070	0.619587	1.353678
O244	O	-0.516746	-0.011490	0.714643
O245	O	-0.183413	0.321844	1.047976
O246	O	0.149920	0.655177	1.381309
C247	C	-0.541585	-0.047077	0.473354
C248	C	-0.208252	0.286256	0.806687
C249	C	0.125081	0.619590	1.140020
C250	C	-0.570805	-0.088922	0.446634
C251	C	-0.237471	0.244411	0.779968
C252	C	0.095862	0.577745	1.113301
C253	C	-0.629245	-0.172601	0.446607
C254	C	-0.295912	0.160732	0.779940
C255	C	0.037421	0.494065	1.113273
C256	C	-0.629240	-0.172604	0.393195
C257	C	-0.295906	0.160729	0.726528
C258	C	0.037427	0.494063	1.059862
C259	C	-0.600016	-0.130766	0.366503
C260	C	-0.266683	0.202568	0.699837
C261	C	0.066650	0.535901	1.033170
C262	C	-0.570799	-0.088925	0.393223
C263	C	-0.237466	0.244409	0.726556
C264	C	0.095868	0.577742	1.059889
C265	C	-0.512364	-0.005231	0.446659
C266	C	-0.179031	0.328103	0.779992
C267	C	0.154303	0.661436	1.113326
C268	C	-0.512365	-0.005232	0.393241
C269	C	-0.179031	0.328101	0.726575
C270	C	0.154302	0.661434	1.059908
C271	C	-0.541584	-0.047077	0.366522
C272	C	-0.208251	0.286256	0.699855
C273	C	0.125083	0.619589	1.033188
C274	C	-0.541570	-0.047089	0.313119
C275	C	-0.208236	0.286244	0.646453
C276	C	0.125097	0.619578	0.979786
N277	N	-0.570791	-0.088926	0.286397
N278	N	-0.237458	0.244408	0.619730
N279	N	0.095876	0.577741	0.953064
C280	C	-0.600014	-0.130764	0.313089
C281	C	-0.266681	0.202569	0.646422
C282	C	0.066653	0.535903	0.979756
C283	C	-0.541604	-0.047085	0.799185
C284	C	-0.208271	0.286248	1.132518
C285	C	0.125063	0.619582	1.465851
C286	C	-0.541606	-0.047087	0.852599
C287	C	-0.208273	0.286247	1.185932
C288	C	0.125061	0.619580	1.519266
C289	C	-0.600053	-0.130766	0.852569
C290	C	-0.266719	0.202568	1.185902
C291	C	0.066614	0.535901	1.519235
C292	C	-0.600047	-0.130768	0.799153
C293	C	-0.266714	0.202566	1.132487
C294	C	0.066619	0.535899	1.465820
C295	C	-0.570825	-0.088922	0.772462
C296	C	-0.237492	0.244411	1.105796
C297	C	0.095841	0.577745	1.439129
C298	C	-0.599999	-0.130767	0.200921
C299	C	-0.266666	0.202566	0.534254
C300	C	0.066667	0.535900	0.867588
C301	C	-0.599989	-0.130768	0.147505
C302	C	-0.266656	0.202565	0.480838
C303	C	0.066677	0.535899	0.814172
C304	C	-0.541545	-0.047086	0.147540
C305	C	-0.208212	0.286247	0.480873
C306	C	0.125122	0.619580	0.814207
C307	C	-0.541553	-0.047088	0.200951
C308	C	-0.208220	0.286246	0.534285
C309	C	0.125114	0.619579	0.867618
C310	C	-0.570784	-0.088930	0.227641
C311	C	-0.237451	0.244403	0.560974
C312	C	0.095883	0.577737	0.894307
O313	O	-0.516719	-0.011543	0.285465
O314	O	-0.183385	0.321790	0.618799
O315	O	0.149948	0.655123	0.952132
O316	O	-0.624869	-0.166337	0.285448
O317	O	-0.291535	0.166996	0.618782
O318	O	0.041798	0.500329	0.952115
C319	C	-0.600034	-0.130758	0.526738
C320	C	-0.266701	0.202576	0.860071
C321	C	0.066633	0.535909	1.193404
C322	C	-0.570816	-0.088917	0.553457
C323	C	-0.237483	0.244416	0.886790
C324	C	0.095850	0.577750	1.220124
C325	C	-0.541593	-0.047079	0.526765
C326	C	-0.208260	0.286255	0.860099
C327	C	0.125073	0.619588	1.193432
C328	C	-0.570819	-0.088918	0.606871
C329	C	-0.237485	0.244415	0.940205
C330	C	0.095848	0.577748	1.273538
C331	C	-0.600042	-0.130757	0.633563
C332	C	-0.266708	0.202577	0.966897
C333	C	0.066625	0.535910	1.300230
C334	C	-0.629263	-0.172593	0.606841
C335	C	-0.295930	0.160740	0.940174
C336	C	0.037404	0.494073	1.273508
C337	C	-0.629257	-0.172596	0.553429
C338	C	-0.295924	0.160737	0.886763
C339	C	0.037410	0.494071	1.220096
C340	C	-0.512372	-0.005242	0.553488
C341	C	-0.179039	0.328092	0.886821
C342	C	0.154295	0.661425	1.220154
C343	C	-0.512380	-0.005243	0.606899
C344	C	-0.179047	0.328090	0.940232
C345	C	0.154287	0.661424	1.273566
C346	C	-0.541603	-0.047081	0.633591
C347	C	-0.208270	0.286252	0.966924
C348	C	0.125064	0.619585	1.300258
H349	H	-0.413374	-0.209008	0.000021
H350	H	-0.080041	0.124325	0.333354
H351	H	0.253292	0.457658	0.666687
H352	H	-0.632712	0.357510	-0.053876
H353	H	-0.299379	0.690843	0.279458
H354	H	0.033955	1.024176	0.612791
C355	C	-0.664809	0.282085	0.000080
C356	C	-0.331476	0.615418	0.333413
C357	C	0.001858	0.948751	0.666746
H358	H	-0.691373	0.255354	0.000091
H359	H	-0.358039	0.588687	0.333425
H360	H	-0.024706	0.922020	0.666758
H361	H	-0.666363	0.310704	-0.029511
H362	H	-0.333030	0.644037	0.303822
H363	H	0.000303	0.977370	0.637155
H364	H	-0.666338	0.310711	0.029676
H365	H	-0.333004	0.644045	0.363009
H366	H	0.000329	0.977378	0.696343
H367	H	-0.117290	0.088891	0.000090
H368	H	0.216043	0.422224	0.333424
H369	H	0.549377	0.755558	0.666757
C370	C	-0.509402	-0.001066	0.118174
C371	C	-0.176069	0.332268	0.451508
C372	C	0.157265	0.665601	0.784841
H373	H	-0.491997	0.023854	0.141735
H374	H	-0.158664	0.357187	0.475068
H375	H	0.174670	0.690520	0.808402
H376	H	-0.529282	0.031093	0.097336
H377	H	-0.195948	0.364426	0.430669
H378	H	0.137385	0.697759	0.764002
H379	H	-0.487091	-0.029755	0.097341
H380	H	-0.153757	0.303579	0.430674
H381	H	0.179576	0.636912	0.764007
H382	H	-0.488571	0.028845	0.468405
H383	H	-0.155238	0.362178	0.801738
H384	H	0.178096	0.695511	1.135072
C385	C	-0.661403	-0.218620	0.524045
C386	C	-0.328070	0.114714	0.857378
C387	C	0.005264	0.448047	1.190711
H388	H	-0.678809	-0.243528	0.547598
H389	H	-0.345476	0.089805	0.880931
H390	H	-0.012142	0.423138	1.214264
H391	H	-0.641528	-0.250787	0.503208
H392	H	-0.308195	0.082546	0.836541
H393	H	0.025138	0.415879	1.169875
H394	H	-0.683713	-0.189931	0.503208
H395	H	-0.350380	0.143402	0.836541
H396	H	-0.017047	0.476735	1.169874
H397	H	-0.488568	0.028845	0.371512
H398	H	-0.155235	0.362178	0.704846
H399	H	0.178099	0.695511	1.038179
H400	H	0.201707	-0.200032	0.000048
H401	H	0.535041	0.133301	0.333381
H402	H	0.868374	0.466634	0.666715
H403	H	0.067145	-0.265414	0.000046
H404	H	0.400478	0.067920	0.333380
H405	H	0.733812	0.401253	0.666713
C406	C	-0.640906	0.501191	-0.062385
C407	C	-0.307573	0.834524	0.270949
C408	C	0.025761	1.167857	0.604282
H409	H	-0.635575	0.548562	-0.058136
H410	H	-0.302241	0.881895	0.275198
H411	H	0.031092	1.215228	0.608531
H412	H	-0.673006	0.495680	-0.051930
H413	H	-0.339673	0.829014	0.281404
H414	H	-0.006339	1.162347	0.614737
H415	H	-0.636784	0.488459	-0.097272
H416	H	-0.303450	0.821793	0.236062
H417	H	0.029883	1.155126	0.569395
C418	C	-0.661386	-0.218627	0.363810
C419	C	-0.328053	0.114707	0.697144
C420	C	0.005281	0.448040	1.030477
H421	H	-0.678792	-0.243535	0.387363
H422	H	-0.345459	0.089799	0.720697
H423	H	-0.012126	0.423132	1.054030
H424	H	-0.641512	-0.250794	0.342973
H425	H	-0.308179	0.082539	0.676306
H426	H	0.025155	0.415872	1.009640
H427	H	-0.683696	-0.189937	0.342974
H428	H	-0.350363	0.143396	0.676307
H429	H	-0.017030	0.476730	1.009640
H430	H	-0.175562	-0.268966	0.000029
H431	H	0.157771	0.064367	0.333362
H432	H	0.491104	0.397701	0.666695
H433	H	-0.487920	0.684331	0.000020
H434	H	-0.154586	1.017664	0.333353
H435	H	0.178747	1.350998	0.666686
H436	H	-0.488581	0.028830	0.628649
H437	H	-0.155248	0.362164	0.961983
H438	H	0.178085	0.695497	1.295316
H439	H	-0.321918	-0.207680	0.000035
H440	H	0.011415	0.125653	0.333368
H441	H	0.344749	0.458987	0.666702
H442	H	-0.623845	-0.164835	0.874310
H443	H	-0.290512	0.168498	1.207643
H444	H	0.042821	0.501832	1.540977
H445	H	-0.647770	0.716089	0.000041
H446	H	-0.314436	1.049422	0.333374
H447	H	0.018897	1.382756	0.666707
H448	H	-0.488575	0.028830	0.531760
H449	H	-0.155242	0.362163	0.865094
H450	H	0.178091	0.695497	1.198427
H451	H	-0.343293	0.022166	0.000050
H452	H	-0.009960	0.355499	0.333383
H453	H	0.323374	0.688833	0.666717
H454	H	-0.489260	0.552909	0.000029
H455	H	-0.155927	0.886242	0.333363
H456	H	0.177407	1.219576	0.666696
C457	C	-0.443647	0.038819	0.000049
C458	C	-0.110314	0.372153	0.333383
C459	C	0.223019	0.705486	0.666716
H460	H	-0.424927	0.076871	0.000051
H461	H	-0.091594	0.410204	0.333385
H462	H	0.241740	0.743538	0.666718
H463	H	-0.463557	0.041161	0.029640
H464	H	-0.130223	0.374495	0.362973
H465	H	0.203110	0.707828	0.696307
H466	H	-0.463562	0.041161	-0.029548
H467	H	-0.130229	0.374494	0.303786
H468	H	0.203104	0.707828	0.637119
H469	H	-0.517754	-0.013023	0.222708
H470	H	-0.184421	0.320310	0.556041
H471	H	0.148913	0.653644	0.889374
H472	H	-0.649112	0.584671	0.000057
H473	H	-0.315779	0.918004	0.333391
H474	H	0.017554	1.251338	0.666724
H475	H	-0.024320	-0.266758	0.000042
H476	H	0.309014	0.066576	0.333375
H477	H	0.642347	0.399909	0.666708
C478	C	0.039485	0.109291	0.000091
C479	C	0.372818	0.442624	0.333424
C480	C	0.706151	0.775957	0.666757
H481	H	0.073966	0.100718	0.000089
H482	H	0.407299	0.434051	0.333422
H483	H	0.740632	0.767384	0.666755
H484	H	0.028801	0.135193	0.029685
H485	H	0.362135	0.468526	0.363018
H486	H	0.695468	0.801860	0.696351
H487	H	0.028796	0.135193	-0.029503
H488	H	0.362129	0.468527	0.303831
H489	H	0.695462	0.801860	0.637164
C490	C	0.277303	0.049345	0.000072
C491	C	0.610636	0.382678	0.333406
C492	C	0.943969	0.716012	0.666739
H493	H	0.311783	0.040772	0.000067
H494	H	0.645117	0.374105	0.333400
H495	H	0.978450	0.707439	0.666733
H496	H	0.266622	0.075251	0.029666
H497	H	0.599956	0.408584	0.363000
H498	H	0.933289	0.741917	0.696333
H499	H	0.266611	0.075244	-0.029521
H500	H	0.599944	0.408578	0.303812
H501	H	0.933277	0.741911	0.637145
C502	C	-0.661409	-0.218613	0.636209
C503	C	-0.328075	0.114720	0.969542
C504	C	0.005258	0.448054	1.302876
H505	H	-0.657226	-0.212610	0.671846
H506	H	-0.323893	0.120723	1.005180
H507	H	0.009440	0.454056	1.338513
H508	H	-0.652326	-0.266230	0.627456
H509	H	-0.318992	0.067103	0.960789
H510	H	0.014341	0.400436	1.294123
H511	H	-0.694510	-0.205374	0.627449
H512	H	-0.361177	0.127960	0.960783
H513	H	-0.027843	0.461293	1.294116
H514	H	-0.510222	0.333208	0.053996
H515	H	-0.176888	0.666542	0.387329
H516	H	0.156445	0.999875	0.720663
C517	C	-0.066375	0.107745	0.000081
C518	C	0.266958	0.441079	0.333415
C519	C	0.600291	0.774412	0.666748
H520	H	-0.047646	0.145787	0.000081
H521	H	0.285687	0.479121	0.333415
H522	H	0.619020	0.812454	0.666748
H523	H	-0.086287	0.110101	0.029670
H524	H	0.247046	0.443434	0.363004
H525	H	0.580380	0.776767	0.696337
H526	H	-0.086288	0.110091	-0.029517
H527	H	0.247045	0.443424	0.303816
H528	H	0.580378	0.776758	0.637149
H529	H	0.293177	-0.198689	0.000052
H530	H	0.626510	0.134644	0.333385
H531	H	0.959843	0.467977	0.666719
C532	C	-0.499131	0.473062	0.062478
C533	C	-0.165797	0.806395	0.395812
C534	C	0.167536	1.139729	0.729145
H535	H	-0.479348	0.437125	0.080179
H536	H	-0.146015	0.770458	0.413512
H537	H	0.187318	1.103791	0.746845
H538	H	-0.515544	0.504647	0.086387
H539	H	-0.182211	0.837980	0.419720
H540	H	0.151123	1.171313	0.753054
H541	H	-0.479331	0.497438	0.041036
H542	H	-0.145998	0.830771	0.374370
H543	H	0.187335	1.164104	0.707703
C544	C	-0.217632	0.105541	0.000088
C545	C	0.115701	0.438875	0.333421
C546	C	0.449034	0.772208	0.666755
H547	H	-0.198906	0.143586	0.000090
H548	H	0.134428	0.476920	0.333423
H549	H	0.467761	0.810253	0.666756
H550	H	-0.237543	0.107892	0.029677
H551	H	0.095790	0.441225	0.363010
H552	H	0.429123	0.774558	0.696344
H553	H	-0.237546	0.107887	-0.029510
H554	H	0.095787	0.441221	0.303823
H555	H	0.429121	0.774554	0.637156
H556	H	-0.492482	0.237473	0.000046
H557	H	-0.159148	0.570807	0.333380
H558	H	0.174185	0.904140	0.666713
C559	C	-0.481340	0.093191	0.000048
C560	C	-0.148007	0.426524	0.333381
C561	C	0.185327	0.759857	0.666714
H562	H	-0.488143	0.046114	0.000048
H563	H	-0.154809	0.379447	0.333381
H564	H	0.178524	0.712781	0.666715
H565	H	-0.463107	0.101473	0.029635
H566	H	-0.129774	0.434807	0.362968
H567	H	0.203560	0.768140	0.696302
H568	H	-0.463129	0.101457	-0.029553
H569	H	-0.129796	0.434790	0.303781
H570	H	0.203537	0.768124	0.637114
H571	H	-0.623783	-0.164846	0.125752
H572	H	-0.290450	0.168487	0.459086
H573	H	0.042884	0.501820	0.792419
H574	H	-0.623802	-0.164838	0.222645
H575	H	-0.290469	0.168495	0.555979
H576	H	0.042864	0.501828	0.889312
C577	C	-0.632194	-0.176788	0.769767
C578	C	-0.298861	0.156545	1.103100
C579	C	0.034473	0.489878	1.436433
H580	H	-0.649599	-0.201700	0.793318
H581	H	-0.316266	0.131633	1.126651
H582	H	0.017067	0.464967	1.459985
H583	H	-0.612320	-0.208953	0.748927
H584	H	-0.278987	0.124380	1.082260
H585	H	0.054347	0.457714	1.415594
H586	H	-0.654505	-0.148097	0.748932
H587	H	-0.321172	0.185237	1.082266
H588	H	0.012162	0.518570	1.415599
H589	H	-0.653672	0.137813	0.000085
H590	H	-0.320338	0.471147	0.333418
H591	H	0.012995	0.804480	0.666752
C592	C	-0.509460	-0.001064	0.881985
C593	C	-0.176127	0.332269	1.215318
C594	C	0.157207	0.665602	1.548651
H595	H	-0.492060	0.023855	0.858433
H596	H	-0.158727	0.357189	1.191766
H597	H	0.174606	0.690522	1.525100
H598	H	-0.487152	-0.029746	0.902824
H599	H	-0.153818	0.303587	1.236157
H600	H	0.179515	0.636921	1.569490
H601	H	-0.529341	0.031104	0.902820
H602	H	-0.196008	0.364438	1.236153
H603	H	0.137326	0.697771	1.569486
C604	C	-0.509453	-0.001059	0.769831
C605	C	-0.176120	0.332275	1.103164
C606	C	0.157214	0.665608	1.436498
H607	H	-0.492049	0.023848	0.793400
H608	H	-0.158715	0.357182	1.126734
H609	H	0.174618	0.690515	1.460067
H610	H	-0.529324	0.031110	0.748992
H611	H	-0.195991	0.364444	1.082326
H612	H	0.137342	0.697777	1.415659
H613	H	-0.487141	-0.029748	0.748998
H614	H	-0.153807	0.303586	1.082331
H615	H	0.179526	0.636919	1.415665
H616	H	-0.653045	-0.206671	0.468333
H617	H	-0.319712	0.126662	0.801667
H618	H	0.013622	0.459995	1.135000
H619	H	-0.084111	-0.267630	0.000038
H620	H	0.249223	0.065703	0.333372
H621	H	0.582556	0.399036	0.666705
H622	H	0.180326	0.029812	0.000079
H623	H	0.513660	0.363145	0.333412
H624	H	0.846993	0.696479	0.666746
