data_functionalizedCrystal
_audit_creation_method	'MofGen! by Chris Wilmer'
_symmetry_space_group_name_H-M	'P1'
_symmetry_Int_Tables_number	1
_symmetry_cell_setting	triclinic
loop_
_symmetry_equiv_pos_as_xyz
  x,y,z
_cell_length_a	17.699077
_cell_length_b	10.723024
_cell_length_c	16.176319
_cell_angle_alpha	89.994397
_cell_angle_beta	89.993140
_cell_angle_gamma	83.874223
loop_
_atom_site_label
_atom_site_type_symbol
_atom_site_fract_x
_atom_site_fract_y
_atom_site_fract_z
O1	O	1.005077	0.157762	-0.068733
O2	O	1.505077	0.657762	0.431267
O3	O	0.784827	0.178299	-0.068737
O4	O	1.284827	0.678299	0.431263
O5	O	0.900032	-0.013633	-0.068732
O6	O	1.400032	0.486367	0.431268
O7	O	0.889872	0.349694	-0.068739
O8	O	1.389872	0.849694	0.431261
O9	O	0.900016	-0.013645	0.068761
O10	O	1.400016	0.486355	0.568761
O11	O	0.784811	0.178287	0.068756
O12	O	1.284811	0.678287	0.568756
O13	O	1.005061	0.157750	0.068760
O14	O	1.505061	0.657750	0.568760
Cu15	Cu	0.894934	0.168017	0.081312
Cu16	Cu	1.394934	0.668017	0.581312
Cu17	Cu	0.894953	0.168032	-0.081290
Cu18	Cu	1.394953	0.668032	0.418710
O19	O	0.889856	0.349682	0.068755
O20	O	1.389856	0.849682	0.568755
C21	C	0.756618	0.177559	0.000009
C22	C	1.256618	0.677559	0.500009
C23	C	0.672585	0.175355	0.000007
C24	C	1.172585	0.675355	0.500007
C25	C	0.633103	0.174310	0.074956
C26	C	1.133103	0.674310	0.574956
C27	C	0.554147	0.172219	0.074957
C28	C	1.054147	0.672219	0.574957
C29	C	0.514675	0.171182	0.000008
C30	C	1.014675	0.671182	0.500008
C31	C	0.554163	0.172224	-0.074946
C32	C	1.054163	0.672224	0.425054
C33	C	0.633118	0.174305	-0.074946
C34	C	1.133118	0.674305	0.425054
C35	C	0.235747	0.163827	-0.074947
C36	C	0.735747	0.663827	0.425053
C37	C	0.156786	0.161748	-0.074942
C38	C	0.656786	0.661748	0.425058
C39	C	0.156776	0.161740	0.074955
C40	C	0.656776	0.661740	0.574955
C41	C	0.235731	0.163822	0.074955
C42	C	0.735731	0.663822	0.574955
C43	C	0.275213	0.164856	0.000002
C44	C	0.775213	0.664856	0.500002
C45	C	0.360826	0.167121	0.000002
C46	C	0.860826	0.667121	0.500002
C47	C	0.429062	0.168927	0.000008
C48	C	0.929062	0.668927	0.500008
C49	C	0.899285	-0.060126	0.000013
C50	C	1.399285	0.439874	0.500013
C51	C	0.897073	-0.198642	0.000010
C52	C	1.397073	0.301358	0.500010
C53	C	0.961535	-0.274732	0.000010
C54	C	1.461535	0.225268	0.500010
C55	C	0.959250	-0.417896	0.000007
C56	C	1.459250	0.082104	0.500007
C57	C	1.033270	0.158490	0.000012
C58	C	1.533270	0.658490	0.500012
C59	C	1.117303	0.160694	0.000008
C60	C	1.617303	0.660694	0.500008
C61	C	0.890603	0.396175	0.000007
C62	C	1.390603	0.896175	0.500007
C63	C	0.892815	0.534691	0.000005
C64	C	1.392815	1.034691	0.500005
N65	N	0.894927	0.168006	0.195677
N66	N	1.394927	0.668006	0.695677
N67	N	0.894967	0.168033	-0.195655
N68	N	1.394967	0.668033	0.304345
C69	C	0.945955	0.083053	0.238944
C70	C	1.445955	0.583053	0.738944
C71	C	0.945959	0.083052	0.325491
C72	C	1.445959	0.583052	0.825491
C73	C	0.894937	0.168011	0.368770
C74	C	1.394937	0.668011	0.868770
C75	C	0.843903	0.252968	0.325497
C76	C	1.343903	0.752968	0.825497
C77	C	0.843896	0.252962	0.238952
C78	C	1.343896	0.752962	0.738952
C79	C	0.843929	0.252991	0.674526
C80	C	1.343929	0.752991	1.174526
C81	C	0.843942	0.252993	0.761077
C82	C	1.343942	0.752993	1.261077
C83	C	0.945992	0.083081	0.761065
C84	C	1.445992	0.583081	1.261065
C85	C	0.945985	0.083075	0.674519
C86	C	1.445985	0.583075	1.174519
C87	C	0.894949	0.168027	0.631254
C88	C	1.394949	0.668027	1.131254
C89	C	0.894944	0.168026	0.537410
C90	C	1.394944	0.668026	1.037410
C91	C	0.894945	0.168019	0.462612
C92	C	1.394945	0.668019	0.962612
H93	H	0.522005	0.171347	0.135987
H94	H	1.022005	0.671347	0.635987
H95	H	0.522019	0.171371	-0.135970
H96	H	1.022019	0.671371	0.364030
H97	H	0.987510	0.013876	0.360718
H98	H	1.487510	0.513876	0.860718
H99	H	0.124620	0.160892	0.135986
H100	H	0.624620	0.660892	0.635986
C101	C	0.787772	0.346412	0.373108
C102	C	1.287772	0.846412	0.873108
N103	N	0.745492	0.416795	0.408967
N104	N	1.245492	0.916795	0.908967
C105	C	0.818256	-0.376993	0.000004
C106	C	1.318256	0.123007	0.500004
N107	N	0.762099	-0.310464	0.000002
N108	N	1.262099	0.189536	0.500002
H109	H	0.802343	0.322138	0.203725
H110	H	1.302343	0.822138	0.703725
H111	H	0.840192	-0.239487	0.000004
H112	H	1.340192	0.260513	0.500004
H113	H	1.014435	-0.483277	0.000011
H114	H	1.514435	0.016723	0.500011
C115	C	0.676515	0.175449	0.157406
C116	C	1.176515	0.675449	0.657406
N117	N	0.709211	0.176301	0.219511
N118	N	1.209211	0.676301	0.719511
C119	C	0.676548	0.175458	-0.157395
C120	C	1.176548	0.675458	0.342605
N121	N	0.709259	0.176323	-0.219499
N122	N	1.209259	0.676323	0.280501
C123	C	0.279146	0.164959	0.157404
C124	C	0.779146	0.664959	0.657404
N125	N	0.311846	0.165809	0.219507
N126	N	0.811846	0.665809	0.719507
H127	H	0.124650	0.160903	-0.135977
H128	H	0.624650	0.660903	0.364023
C129	C	1.002084	-0.010410	0.191345
C130	C	1.502084	0.489590	0.691345
N131	N	1.044359	-0.080814	0.155495
N132	N	1.544359	0.419186	0.655495
C133	C	1.002127	-0.010380	0.808664
C134	C	1.502127	0.489620	1.308664
N135	N	1.044407	-0.080772	0.844514
N136	N	1.544407	0.419228	1.344514
H137	H	1.018416	-0.233887	0.000016
H138	H	1.518416	0.266113	0.500016
C139	C	0.279168	0.164954	-0.157399
C140	C	0.779168	0.664954	0.342601
N141	N	0.311875	0.165799	-0.219505
N142	N	0.811875	0.665799	0.280495
C143	C	1.002111	-0.010388	0.626917
C144	C	1.502111	0.489612	1.126917
N145	N	1.044384	-0.080792	0.591064
N146	N	1.544384	0.419208	1.091064
H147	H	0.802375	0.322164	0.639306
H148	H	1.302375	0.822164	1.139306
C149	C	0.787806	0.346450	0.808682
C150	C	1.287806	0.846450	1.308682
N151	N	0.745527	0.416838	0.844539
N152	N	1.245527	0.916838	1.344539
