data_functionalizedCrystal
_audit_creation_method	'MofGen! by Chris Wilmer'
_symmetry_space_group_name_H-M	'P1'
_symmetry_Int_Tables_number	1
_symmetry_cell_setting	triclinic
loop_
_symmetry_equiv_pos_as_xyz
  x,y,z
_cell_length_a	18.215407
_cell_length_b	19.077068
_cell_length_c	18.215399
_cell_angle_alpha	87.731836
_cell_angle_beta	90.019833
_cell_angle_gamma	92.327501
loop_
_atom_site_label
_atom_site_type_symbol
_atom_site_fract_x
_atom_site_fract_y
_atom_site_fract_z
Zn1	Zn	1.113288	-0.280200	0.427869
Zn2	Zn	1.613288	0.219800	0.927869
Zn3	Zn	1.108246	-0.397902	0.309739
Zn4	Zn	1.608246	0.102098	0.809739
Zn5	Zn	0.990220	-0.280223	0.304817
Zn6	Zn	1.490220	0.219777	0.804817
Zn7	Zn	0.985238	-0.397863	0.432763
Zn8	Zn	1.485238	0.102137	0.932763
O9	O	1.049248	-0.339047	0.368797
O10	O	1.549248	0.160953	0.868797
O11	O	1.215603	-0.295821	0.412210
O12	O	1.715603	0.204179	0.912210
O13	O	1.092565	-0.382318	0.206103
O14	O	1.592565	0.117682	0.706103
O15	O	1.010740	-0.181729	0.317032
O16	O	1.510740	0.318271	0.817032
O17	O	1.211899	-0.382295	0.325421
O18	O	1.711899	0.117705	0.825421
O19	O	1.101157	-0.181712	0.407437
O20	O	1.601157	0.318288	0.907437
O21	O	1.005851	-0.295860	0.202487
O22	O	1.505851	0.204140	0.702487
O23	O	0.886575	-0.295822	0.321777
O24	O	1.386575	0.204178	0.821777
O25	O	1.002249	-0.382229	0.535097
O26	O	1.502249	0.117771	1.035097
O27	O	0.882915	-0.382251	0.415778
O28	O	1.382915	0.117749	0.915778
O29	O	1.096327	-0.295783	0.531501
O30	O	1.596327	0.204217	1.031501
O31	O	1.087734	-0.496388	0.330167
O32	O	1.587734	0.003612	0.830167
O33	O	0.997361	-0.496359	0.420551
O34	O	1.497361	0.003641	0.920551
C35	C	0.858042	-0.339035	0.368775
C36	C	1.358042	0.160965	0.868775
C37	C	0.776243	-0.339047	0.368784
C38	C	1.276243	0.160953	0.868784
C39	C	0.586159	-0.384121	0.417674
C40	C	1.086159	0.115879	0.917674
C41	C	0.509301	-0.384124	0.417684
C42	C	1.009301	0.115876	0.917684
C43	C	0.513088	-0.293986	0.319936
C44	C	1.013088	0.206014	0.819936
C45	C	0.589945	-0.293980	0.319931
C46	C	1.089945	0.206020	0.819931
C47	C	0.626479	-0.339052	0.368799
C48	C	1.126479	0.160948	0.868799
C49	C	0.472763	-0.339060	0.368814
C50	C	0.972763	0.160940	0.868814
C51	C	0.389429	-0.339062	0.368823
C52	C	0.889429	0.160938	0.868823
C53	C	0.709818	-0.339050	0.368791
C54	C	1.209818	0.160950	0.868791
C55	C	1.041480	-0.521911	0.376440
C56	C	1.541480	-0.021911	0.876440
C57	C	1.038224	-0.600141	0.379735
C58	C	1.538224	-0.100141	0.879735
C59	C	1.083783	-0.636886	0.334263
C60	C	1.583783	-0.136886	0.834263
C61	C	1.080725	-0.710391	0.337366
C62	C	1.580725	-0.210391	0.837366
C63	C	1.032104	-0.747151	0.385937
C64	C	1.532104	-0.247151	0.885937
C65	C	0.986542	-0.710401	0.431414
C66	C	1.486542	-0.210401	0.931414
C67	C	0.989604	-0.636897	0.428314
C68	C	1.489604	-0.136897	0.928314
C69	C	1.017899	-0.966985	0.400254
C70	C	1.517899	-0.466985	0.900254
C71	C	1.014839	-1.040495	0.403348
C72	C	1.514839	-0.540495	0.903348
C73	C	1.109023	-1.040479	0.309301
C74	C	1.609023	-0.540479	0.809301
C75	C	1.112078	-0.966974	0.306202
C76	C	1.612078	-0.466974	0.806202
C77	C	1.066520	-0.930231	0.351682
C78	C	1.566520	-0.430231	0.851682
N79	N	1.028975	-0.822285	0.389109
N80	N	1.528975	-0.322285	0.889109
N81	N	1.069652	-0.855098	0.348514
N82	N	1.569652	-0.355098	0.848514
C83	C	1.241200	-0.339060	0.368819
C84	C	1.741200	0.160940	0.868819
C85	C	1.322999	-0.339065	0.368828
C86	C	1.822999	0.160935	0.868828
C87	C	1.049295	-0.338999	0.560748
C88	C	1.549295	0.161001	1.060748
C89	C	1.049315	-0.338978	0.642546
C90	C	1.549315	0.161022	1.142546
C91	C	1.057067	-0.155469	0.361140
C92	C	1.557067	0.344531	0.861140
C93	C	1.060398	-0.077239	0.357877
C94	C	1.560398	0.422761	0.857877
C95	C	1.049246	-0.339045	0.177591
C96	C	1.549246	0.160955	0.677591
C97	C	1.049377	-0.338867	0.095785
C98	C	1.549377	0.161133	0.595785
C99	C	1.098320	-0.293923	0.828867
C100	C	1.598320	0.206077	1.328867
C101	C	1.098329	-0.293903	0.905725
C102	C	1.598329	0.206097	1.405725
C103	C	1.000366	-0.383924	0.909458
C104	C	1.500366	0.116076	1.409458
C105	C	1.000354	-0.383940	0.832601
C106	C	1.500354	0.116060	1.332601
C107	C	1.049335	-0.338941	0.792308
C108	C	1.549335	0.161059	1.292308
C109	C	1.049357	-0.338904	0.946023
C110	C	1.549357	0.161096	1.446023
C111	C	1.049367	-0.338882	1.029355
C112	C	1.549367	0.161118	1.529355
C113	C	1.049324	-0.338962	0.708970
C114	C	1.549324	0.161038	1.208970
H115	H	1.123373	-0.606961	0.294708
H116	H	1.623373	-0.106961	0.794708
O117	O	0.952693	-0.427574	0.797046
O118	O	1.452693	0.072426	1.297046
C119	C	0.906873	-0.387510	0.750897
C120	C	1.406873	0.112490	1.250897
H121	H	0.904688	-0.332073	0.771751
H122	H	1.404688	0.167927	1.271751
H123	H	0.929722	-0.385096	0.692553
H124	H	1.429722	0.114904	1.192553
C125	C	0.831587	-0.489982	0.725518
C126	C	1.331587	0.010018	1.225518
C127	C	0.828900	-0.421894	0.751134
C128	C	1.328900	0.078106	1.251134
H129	H	0.783490	-0.511192	0.725661
H130	H	1.283490	-0.011192	1.225661
H131	H	0.862459	-0.516975	0.756607
H132	H	1.362459	-0.016975	1.256607
H133	H	0.850631	-0.487961	0.676900
H134	H	1.350631	0.012039	1.176900
H135	H	0.809864	-0.423917	0.799754
H136	H	1.309864	0.076083	1.299754
H137	H	0.798023	-0.394902	0.720053
H138	H	1.298023	0.105098	1.220053
H139	H	1.138217	-0.257244	0.935488
H140	H	1.638217	0.242756	1.435488
H141	H	0.960490	-0.420562	0.942274
H142	H	1.460490	0.079438	1.442274
H143	H	0.615903	-0.420820	0.457468
H144	H	1.115903	0.079180	0.957468
H145	H	0.476476	-0.420822	0.457484
H146	H	0.976476	0.079178	0.957484
O147	O	1.145819	-0.250107	0.789755
O148	O	1.645819	0.249893	1.289755
C149	C	1.132730	-0.179957	0.805627
C150	C	1.632730	0.320043	1.305627
H151	H	1.074091	-0.176401	0.826593
H152	H	1.574091	0.323599	1.326593
H153	H	1.172973	-0.161551	0.849482
H154	H	1.672973	0.338449	1.349482
C155	C	1.215302	-0.137363	0.709648
C156	C	1.715302	0.362637	1.209648
C157	C	1.143279	-0.132995	0.735394
C158	C	1.643279	0.367005	1.235394
H159	H	1.221812	-0.108393	0.666327
H160	H	1.721812	0.391607	1.166327
H161	H	1.224123	-0.184623	0.698957
H162	H	1.724123	0.315377	1.198957
H163	H	1.248830	-0.122025	0.746201
H164	H	1.748830	0.377975	1.246201
H165	H	1.109753	-0.148340	0.698845
H166	H	1.609753	0.351660	1.198845
H167	H	1.134453	-0.085735	0.746078
H168	H	1.634453	0.414265	1.246078
O169	O	0.477481	-0.250273	0.272493
O170	O	0.977481	0.249727	0.772493
C171	C	0.400999	-0.259928	0.282989
C172	C	0.900999	0.240072	0.782989
H173	H	0.388204	-0.314275	0.309269
H174	H	0.888204	0.185725	0.809269
H175	H	0.380975	-0.218231	0.320511
H176	H	0.880975	0.281769	0.820511
C177	C	0.377500	-0.186636	0.175991
C178	C	0.877500	0.313364	0.675991
C179	C	0.361785	-0.253388	0.208263
C180	C	0.861785	0.246612	0.708263
H181	H	0.353310	-0.182599	0.129897
H182	H	0.853310	0.317401	0.629897
H183	H	0.429028	-0.180128	0.168920
H184	H	0.929028	0.319872	0.668920
H185	H	0.360814	-0.151896	0.207267
H186	H	0.860814	0.348104	0.707267
H187	H	0.378480	-0.288126	0.176992
H188	H	0.878480	0.211874	0.676992
H189	H	0.310259	-0.259901	0.215326
H190	H	0.810259	0.240099	0.715326
H191	H	0.622775	-0.257275	0.280130
H192	H	1.122775	0.242725	0.780130
H193	H	1.117824	-0.740305	0.300338
H194	H	1.617824	-0.240305	0.800338
H195	H	1.151670	-0.937045	0.266652
H196	H	1.651670	-0.437045	0.766652
O197	O	0.973667	-0.931380	0.444528
O198	O	1.473667	-0.431380	0.944528
C199	C	0.988967	-0.949270	0.518647
C200	C	1.488967	-0.449270	1.018647
H201	H	1.015042	-1.002612	0.522448
H202	H	1.515042	-0.502612	1.022448
H203	H	1.028504	-0.907851	0.541732
H204	H	1.528504	-0.407851	1.041732
C205	C	0.885021	-0.887192	0.558625
C206	C	1.385021	-0.387192	1.058625
C207	C	0.917041	-0.952710	0.563293
C208	C	1.417041	-0.452710	1.063293
H209	H	0.840655	-0.889311	0.586166
H210	H	1.340655	-0.389311	1.086166
H211	H	0.874714	-0.875137	0.508690
H212	H	1.374714	-0.375137	1.008690
H213	H	0.917975	-0.852683	0.577862
H214	H	1.417975	-0.352683	1.077862
H215	H	0.884091	-0.987216	0.544049
H216	H	1.384091	-0.487216	1.044049
H217	H	0.927341	-0.964771	0.613226
H218	H	1.427341	-0.464771	1.113226
H219	H	1.146116	-1.070403	0.272275
H220	H	1.646116	-0.570403	0.772275
H221	H	0.952506	-0.606981	0.465343
H222	H	1.452506	-0.106981	0.965343
H223	H	0.975254	-1.070422	0.442914
H224	H	1.475254	-0.570422	0.942914
H225	H	0.946956	-0.740337	0.470965
H226	H	1.446956	-0.240337	0.970965
