data_functionalizedCrystal
_audit_creation_method	'MofGen! by Chris Wilmer'
_symmetry_space_group_name_H-M	'P1'
_symmetry_Int_Tables_number	1
_symmetry_cell_setting	triclinic
loop_
_symmetry_equiv_pos_as_xyz
  x,y,z
_cell_length_a	6.817900
_cell_length_b	11.353959
_cell_length_c	14.858572
_cell_angle_alpha	104.864136
_cell_angle_beta	104.524003
_cell_angle_gamma	107.526623
loop_
_atom_site_label
_atom_site_type_symbol
_atom_site_fract_x
_atom_site_fract_y
_atom_site_fract_z
V1	V	-4.080045	-0.181811	-0.319400
V2	V	-3.580045	0.318189	0.180600
O3	O	-4.023802	0.007890	-0.283163
O4	O	-3.523802	0.507890	0.216837
O5	O	-4.072306	-0.359685	-0.346220
O6	O	-3.572306	0.140315	0.153780
O7	O	-4.036129	-0.179386	-0.445469
O8	O	-3.536129	0.320614	0.054531
O9	O	-4.060229	-0.173658	-0.183227
O10	O	-3.560229	0.326342	0.316773
V11	V	-4.557823	-0.159077	-0.299589
V12	V	-4.057823	0.340923	0.200411
O13	O	-4.353905	-0.231680	-0.362857
O14	O	-3.853905	0.268320	0.137143
O15	O	-4.734161	-0.109207	-0.256133
O16	O	-4.234161	0.390793	0.243867
O17	O	-4.342356	0.018798	-0.272770
O18	O	-3.842356	0.518798	0.227230
O19	O	-4.731464	-0.348777	-0.335827
O20	O	-4.231464	0.151223	0.164173
O21	O	-4.695036	-0.167229	-0.435763
O22	O	-4.195036	0.332771	0.064237
O23	O	-4.378533	-0.161501	-0.173520
O24	O	-3.878533	0.338499	0.326480
C25	C	-3.927053	-0.403036	-0.348665
C26	C	-3.427053	0.096964	0.151335
C27	C	-4.002042	-0.548453	-0.371434
C28	C	-3.502042	-0.048453	0.128566
C29	C	-3.989874	-0.595303	-0.297737
C30	C	-3.489874	-0.095303	0.202263
C31	C	-4.067378	-0.745598	-0.321268
C32	C	-3.567378	-0.245598	0.178732
C33	C	-3.880904	-0.173044	-0.475266
C34	C	-3.380904	0.326956	0.024734
C35	C	-3.926550	-0.172238	-0.578519
C36	C	-3.426550	0.327762	-0.078519
C37	C	-4.093616	-0.169294	-0.956610
C38	C	-3.593616	0.330706	-0.456610
C39	C	-4.047125	-0.170113	-0.851413
C40	C	-3.547125	0.329887	-0.351413
C41	C	-4.010085	-0.170767	-0.767568
C42	C	-3.510085	0.329233	-0.267568
C43	C	-3.963590	-0.171584	-0.662364
C44	C	-3.463590	0.328416	-0.162364
C45	C	-4.150952	0.062142	-0.270323
C46	C	-3.650952	0.562142	0.229677
C47	C	-4.055202	0.207558	-0.247561
C48	C	-3.555202	0.707558	0.252439
C49	C	-4.197101	-0.167847	-0.143719
C50	C	-3.697101	0.332153	0.356281
C51	C	-4.130692	-0.168646	-0.040465
C52	C	-3.630692	0.331354	0.459535
H53	H	-4.069844	-0.619612	-0.451949
H54	H	-3.569844	-0.119612	0.048051
H55	H	-3.987414	-0.721289	-0.167040
H56	H	-3.487414	-0.221289	0.332960
H57	H	-4.135181	-0.816754	-0.401788
H58	H	-3.635181	-0.316754	0.098212
H59	H	-3.922089	-0.524144	-0.217223
H60	H	-3.422089	-0.024144	0.282777
