data_functionalizedCrystal
_audit_creation_method	'MofGen! by Chris Wilmer'
_symmetry_space_group_name_H-M	'P1'
_symmetry_Int_Tables_number	1
_symmetry_cell_setting	triclinic
loop_
_symmetry_equiv_pos_as_xyz
  x,y,z
_cell_length_a	14.971486
_cell_length_b	14.853567
_cell_length_c	13.448316
_cell_angle_alpha	89.997194
_cell_angle_beta	89.998199
_cell_angle_gamma	83.624529
loop_
_atom_site_label
_atom_site_type_symbol
_atom_site_fract_x
_atom_site_fract_y
_atom_site_fract_z
O1	O	1.186969	0.117488	-0.082569
O2	O	0.926571	0.131557	-0.082595
O3	O	1.063725	-0.006709	-0.082584
O4	O	1.049814	0.255753	-0.082580
O5	O	1.063708	-0.006717	0.082800
O6	O	0.926554	0.131549	0.082789
O7	O	1.186951	0.117479	0.082815
Cu8	Cu	1.056751	0.124513	0.097903
Cu9	Cu	1.056771	0.124523	-0.097683
O10	O	1.049797	0.255745	0.082804
C11	C	0.893238	0.130924	0.000093
C12	C	0.793940	0.129038	0.000083
C13	C	0.736730	0.210265	0.000086
C14	C	0.643430	0.208488	0.000101
C15	C	0.607342	0.125483	0.000106
C16	C	0.664560	0.044249	0.000106
C17	C	0.757858	0.046027	0.000098
C18	C	0.470097	0.040549	0.000119
C19	C	0.376793	0.038771	0.000125
C20	C	0.355669	0.203010	0.000122
C21	C	0.448967	0.204788	0.000114
C22	C	0.506178	0.123554	0.000113
C23	C	1.063087	-0.040301	0.000105
C24	C	1.061198	-0.140385	0.000096
C25	C	0.971740	-0.552902	0.000106
C26	C	1.134683	-0.574213	0.000122
C27	C	1.136459	-0.480180	0.000116
C28	C	1.055874	-0.422503	0.000107
C29	C	0.973514	-0.458860	0.000103
C30	C	1.218818	-0.443816	0.000130
C31	C	1.220597	-0.349777	0.000126
C32	C	1.140012	-0.292099	0.000109
C33	C	1.057648	-0.328461	0.000104
C34	C	0.977064	-0.270784	0.000095
C35	C	0.894699	-0.307144	0.000083
C36	C	0.892928	-0.401181	0.000087
C37	C	1.141782	-0.198061	0.000105
C38	C	0.978837	-0.176741	0.000092
C39	C	1.220285	0.118113	0.000124
C40	C	1.319582	0.119998	0.000128
C41	C	1.050436	0.289338	0.000113
C42	C	1.052325	0.389421	0.000115
N43	N	1.056743	0.124505	0.235467
N44	N	1.056786	0.124524	-0.235247
C45	C	1.117494	0.063307	0.287512
C46	C	1.117500	0.063306	0.391615
C47	C	1.056758	0.124509	0.443672
C48	C	0.996001	0.185711	0.391619
C49	C	0.995991	0.185707	0.287518
C50	C	0.996025	0.185717	0.608599
C51	C	0.996036	0.185723	0.712708
C52	C	1.117534	0.063316	0.712697
C53	C	1.117525	0.063312	0.608595
C54	C	1.056768	0.124515	0.556550
H55	H	0.347414	-0.028819	0.000130
H56	H	1.167003	0.013483	0.755078
H57	H	0.946521	0.235540	0.245144
H58	H	0.478346	0.272378	0.000101
O59	O	0.930486	0.251710	0.552452
H60	H	0.968177	0.295583	0.504997
O61	O	0.819571	-0.041581	0.000092
H62	H	0.778805	-0.099599	0.000088
H63	H	1.166989	0.013480	0.566211
O64	O	1.309431	-0.310568	0.000115
H65	H	1.348161	-0.333730	0.067520
O66	O	0.775650	0.299794	0.000078
H67	H	0.817660	0.304524	0.067479
H68	H	0.516677	-0.025600	0.000120
O69	O	0.581721	0.296097	0.000104
H70	H	0.622489	0.354114	0.000088
O71	O	0.293965	0.290628	0.000130
H72	H	0.306819	0.330347	0.067530
O73	O	0.930522	0.251727	0.768865
H74	H	0.887030	0.213691	0.816313
H75	H	0.635171	-0.023335	0.000124
H76	H	0.829087	-0.260172	0.000082
H77	H	0.946539	0.235541	0.434009
H78	H	0.913214	-0.129786	0.000080
O79	O	0.804097	-0.440395	0.000095
H80	H	0.816404	-0.515475	0.000116
O81	O	0.882905	-0.592109	0.000105
H82	H	0.895204	-0.667189	0.000116
H83	H	1.166961	0.013472	0.245135
O84	O	1.183039	-0.002684	0.447754
H85	H	1.225288	-0.045230	0.394067
H86	H	1.200291	-0.621179	0.000138
O87	O	1.305731	-0.506019	0.000155
H88	H	1.290659	-0.577516	0.000146
H89	H	1.208842	-0.168461	0.000122
