data_functionalizedCrystal
_audit_creation_method	'MofGen! by Chris Wilmer'
_symmetry_space_group_name_H-M	'P1'
_symmetry_Int_Tables_number	1
_symmetry_cell_setting	triclinic
loop_
_symmetry_equiv_pos_as_xyz
  x,y,z
_cell_length_a	25.639242
_cell_length_b	25.639239
_cell_length_c	12.759393
_cell_angle_alpha	89.962948
_cell_angle_beta	89.977361
_cell_angle_gamma	90.030990
loop_
_atom_site_label
_atom_site_type_symbol
_atom_site_fract_x
_atom_site_fract_y
_atom_site_fract_z
Zn1	Zn	0.799268	-0.208227	-0.594057
Zn2	Zn	0.799179	-0.295674	-0.418360
Zn3	Zn	0.711831	-0.208243	-0.418384
Zn4	Zn	0.711789	-0.295622	-0.593989
O5	O	0.755517	-0.251941	-0.506198
O6	O	0.872421	-0.219843	-0.570769
O7	O	0.787572	-0.284104	-0.271342
O8	O	0.723485	-0.135075	-0.441726
O9	O	0.872356	-0.284089	-0.441686
O10	O	0.787724	-0.135064	-0.570792
O11	O	0.723399	-0.219869	-0.271360
O12	O	0.638661	-0.219818	-0.441660
O13	O	0.723413	-0.284000	-0.741019
O14	O	0.638630	-0.284015	-0.570676
O15	O	0.787683	-0.219792	-0.741069
O16	O	0.787531	-0.368832	-0.441620
O17	O	0.723327	-0.368794	-0.570653
C18	C	0.619674	-0.251913	-0.506164
C19	C	0.561560	-0.251914	-0.506174
C20	C	0.310409	-0.218548	-0.573534
C21	C	0.365013	-0.218542	-0.573528
O22	O	0.393286	-0.190151	-0.630793
N23	N	0.392286	-0.251935	-0.506210
C24	C	0.364952	-0.285339	-0.438900
O25	O	0.393164	-0.313743	-0.381641
C26	C	0.310349	-0.285347	-0.438912
C27	C	0.283079	-0.251948	-0.506228
C28	C	0.283139	-0.185152	-0.640845
C29	C	0.228538	-0.185156	-0.640849
C30	C	0.201208	-0.218557	-0.573543
C31	C	0.228478	-0.251953	-0.506232
C32	C	0.283016	-0.318753	-0.371609
C33	C	0.228409	-0.318758	-0.371628
C34	C	0.201139	-0.285359	-0.438943
C35	C	0.146547	-0.285358	-0.438930
N36	N	0.119274	-0.251965	-0.506249
C37	C	0.146604	-0.218564	-0.573555
C38	C	0.479623	-0.285322	-0.438882
C39	C	0.534225	-0.285312	-0.438863
C40	C	0.534282	-0.218516	-0.573493
C41	C	0.479679	-0.218523	-0.573505
C42	C	0.452350	-0.251929	-0.506200
C43	C	0.031939	-0.218576	-0.573558
C44	C	-0.022666	-0.218582	-0.573554
C45	C	-0.022718	-0.285380	-0.438929
C46	C	0.031882	-0.285373	-0.438929
C47	C	0.059210	-0.251969	-0.506252
O48	O	0.118240	-0.313736	-0.381698
O49	O	0.118386	-0.190171	-0.630814
C50	C	0.755429	-0.387784	-0.506150
C51	C	0.755439	-0.445898	-0.506164
C52	C	0.789035	-0.806268	-0.439124
C53	C	0.789056	-0.860873	-0.439138
O54	O	0.817529	-0.889116	-0.382086
N55	N	0.755609	-0.888180	-0.506267
C56	C	0.722143	-0.860881	-0.573394
O57	O	0.693696	-0.889122	-0.630494
C58	C	0.722126	-0.806278	-0.573385
C59	C	0.755571	-0.778973	-0.506244
C60	C	0.822478	-0.778964	-0.371990
C61	C	0.822457	-0.724363	-0.371975
C62	C	0.788993	-0.697067	-0.439094
C63	C	0.755550	-0.724372	-0.506229
C64	C	0.688663	-0.778979	-0.640516
C65	C	0.688649	-0.724372	-0.640501
C66	C	0.722094	-0.697067	-0.573360
C67	C	0.722065	-0.642476	-0.573333
N68	N	0.755512	-0.615168	-0.506204
C69	C	0.788976	-0.642464	-0.439084
C70	C	0.722182	-0.975552	-0.573410
C71	C	0.722197	-1.030154	-0.573415
C72	C	0.789110	-1.030142	-0.439161
C73	C	0.789093	-0.975539	-0.439151
C74	C	0.755629	-0.948244	-0.506281
C75	C	0.788929	-0.527799	-0.439057
C76	C	0.788903	-0.473194	-0.439045
C77	C	0.721992	-0.473210	-0.573303
C78	C	0.722015	-0.527811	-0.573312
C79	C	0.755488	-0.555104	-0.506185
O80	O	0.693607	-0.614198	-0.630359
O81	O	0.817423	-0.614216	-0.382003
C82	C	0.891890	-0.251970	-0.506232
C83	C	0.950004	-0.251982	-0.506247
C84	C	0.755553	-0.251889	-0.780231
C85	C	0.755569	-0.251866	-0.897008
C86	C	0.755619	-0.115568	-0.506269
C87	C	0.755663	-0.057454	-0.506299
C88	C	0.789039	-0.218430	-0.951898
C89	C	0.789052	-0.218411	-1.061622
C90	C	0.722122	-0.285269	-1.061557
C91	C	0.722108	-0.285285	-0.951835
C92	C	0.822500	-0.185011	-0.897071
C93	C	0.855974	-0.151572	-0.951961
C94	C	0.855986	-0.151553	-1.061685
C95	C	0.822525	-0.184973	-1.116519
C96	C	0.755510	-0.251956	-0.233230
C97	C	0.755596	-0.251831	-0.116454
H98	H	0.457479	-0.191326	-0.628318
H99	H	0.694783	-0.550044	-0.627986
C100	C	0.061562	-0.321660	-0.366011
C101	C	0.092914	-0.355196	-0.425378
C102	C	0.120264	-0.388630	-0.358250
H103	H	0.037524	-0.341602	-0.325898
H104	H	0.082895	-0.301647	-0.320325
H105	H	0.071582	-0.375207	-0.471046
H106	H	0.116961	-0.335268	-0.465489
H107	H	0.141597	-0.368617	-0.312563
H108	H	0.096223	-0.408568	-0.318140
H109	H	0.141543	-0.411384	-0.398520
H110	H	0.661426	-0.801202	-0.695184
C111	C	0.198671	-0.354943	-0.298488
C112	C	0.167312	-0.325307	-0.231271
C113	C	0.139907	-0.358622	-0.163890
H114	H	0.222676	-0.374843	-0.258301
H115	H	0.177339	-0.377741	-0.338568
H116	H	0.188642	-0.302518	-0.191194
H117	H	0.143297	-0.305409	-0.271429
H118	H	0.118575	-0.381420	-0.203970
H119	H	0.163915	-0.378520	-0.123710
H120	H	0.118622	-0.338519	-0.118282
C121	C	0.892383	-0.115317	-0.892564
C122	C	0.944108	-0.126700	-0.919283
C123	C	0.977662	-0.093307	-0.864600
H124	H	0.887654	-0.120084	-0.819340
H125	H	0.884791	-0.080174	-0.910588
H126	H	0.951697	-0.161834	-0.901252
H127	H	0.948854	-0.121930	-0.992497
H128	H	0.970070	-0.058164	-0.882624
H129	H	0.972928	-0.098076	-0.791379
H130	H	1.012760	-0.101022	-0.882728
H131	H	0.822495	-0.185023	-0.807728
C132	C	0.825189	-0.443616	-0.365977
C133	C	0.813846	-0.456962	-0.262012
C134	C	0.847265	-0.429733	-0.194678
H135	H	0.820419	-0.407178	-0.375432
H136	H	0.860326	-0.452539	-0.381361
H137	H	0.778718	-0.448035	-0.246633
H138	H	0.818619	-0.493395	-0.252524
H139	H	0.882402	-0.438656	-0.210062
H140	H	0.842493	-0.393297	-0.204142
H141	H	0.839577	-0.438788	-0.124131
C142	C	0.312833	-0.148970	-0.714055
C143	C	0.344176	-0.178600	-0.781311
C144	C	0.371528	-0.145283	-0.848774
H145	H	0.334174	-0.126150	-0.674068
H146	H	0.288780	-0.129095	-0.754199
H147	H	0.368226	-0.198467	-0.741171
H148	H	0.322848	-0.201419	-0.821321
H149	H	0.347475	-0.125407	-0.888919
H150	H	0.392866	-0.122464	-0.808779
H151	H	0.392794	-0.165382	-0.894422
H152	H	0.556424	-0.312503	-0.384037
H153	H	0.694880	-0.312478	-1.106212
C154	C	0.450048	-0.321608	-0.365675
C155	C	0.485624	-0.350837	-0.306704
C156	C	0.458402	-0.384263	-0.239248
H157	H	0.428745	-0.344464	-0.405659
H158	H	0.428756	-0.301595	-0.319916
H159	H	0.506907	-0.370848	-0.352457
H160	H	0.506928	-0.327994	-0.266698
H161	H	0.437111	-0.364251	-0.193489
H162	H	0.437100	-0.407116	-0.279241
H163	H	0.482537	-0.404096	-0.199222
C164	C	0.892295	-0.115162	-1.121144
C165	C	0.880957	-0.063434	-1.094458
C166	C	0.914401	-0.029897	-1.149196
H167	H	0.887546	-0.119864	-1.194360
H168	H	0.927424	-0.122796	-1.103143
H169	H	0.845836	-0.055803	-1.112466
H170	H	0.885709	-0.058716	-1.021252
H171	H	0.949531	-0.037531	-1.131196
H172	H	0.909650	-0.034603	-1.222410
H173	H	0.906717	0.005203	-1.131091
C174	C	0.825342	-0.557448	-0.366358
C175	C	0.858863	-0.588726	-0.425918
C176	C	0.892420	-0.616038	-0.358985
H177	H	0.805433	-0.578830	-0.320516
H178	H	0.845283	-0.533372	-0.326405
H179	H	0.838924	-0.612800	-0.465853
H180	H	0.878784	-0.567357	-0.471758
H181	H	0.912361	-0.591962	-0.319032
H182	H	0.872506	-0.637417	-0.313146
H183	H	0.915171	-0.637260	-0.399387
H184	H	0.556545	-0.191320	-0.628298
H185	H	0.694928	-0.953331	-0.628073
H186	H	0.305210	-0.345950	-0.316794
H187	H	0.822532	-0.184949	-1.205864
C188	C	-0.052332	-0.321729	-0.365922
C189	C	-0.039059	-0.373471	-0.388600
C190	C	-0.066326	-0.406972	-0.321366
H191	H	-0.088764	-0.317018	-0.375509
H192	H	-0.043390	-0.314072	-0.295335
H193	H	-0.048005	-0.381125	-0.459170
H194	H	-0.002632	-0.378198	-0.379006
H195	H	-0.057383	-0.399315	-0.250779
H196	H	-0.102757	-0.402257	-0.330959
H197	H	-0.057320	-0.442082	-0.336738
C198	C	0.858834	-0.694817	-0.299051
C199	C	0.888153	-0.730417	-0.240305
C200	C	0.921677	-0.703222	-0.173128
H201	H	0.838904	-0.673547	-0.253130
H202	H	0.881626	-0.673495	-0.339260
H203	H	0.865364	-0.751730	-0.200099
H204	H	0.908093	-0.751688	-0.286198
H205	H	0.944469	-0.681900	-0.213337
H206	H	0.901743	-0.681953	-0.127214
H207	H	0.941577	-0.727373	-0.133268
C208	C	0.858914	-0.808600	-0.299322
C209	C	0.892434	-0.839865	-0.358915
C210	C	0.926025	-0.867154	-0.292017
H211	H	0.839031	-0.829989	-0.253448
H212	H	0.878855	-0.784510	-0.259400
H213	H	0.872495	-0.863951	-0.398818
H214	H	0.912329	-0.818488	-0.404786
H215	H	0.945966	-0.843065	-0.252096
H216	H	0.906137	-0.888541	-0.246146
H217	H	0.948775	-0.888367	-0.332441
H218	H	0.816327	-0.953310	-0.384480
H219	H	-0.044867	-0.191382	-0.628370
C220	C	0.825469	-1.059878	-0.366490
C221	C	0.818352	-1.113540	-0.380937
C222	C	0.851857	-1.140950	-0.314063
H223	H	0.817910	-1.051052	-0.295808
H224	H	0.860588	-1.050902	-0.382025
H225	H	0.783240	-1.122513	-0.365395
H226	H	0.825914	-1.122382	-0.451605
H227	H	0.886977	-1.131974	-0.329598
H228	H	0.844296	-1.132120	-0.243386
H229	H	0.847036	-1.177363	-0.323863
H230	H	0.694957	-1.052381	-0.628078
C231	C	0.685762	-0.321658	-0.892421
C232	C	0.656480	-0.350940	-0.963918
C233	C	0.623001	-0.384460	-0.909224
H234	H	0.662942	-0.301726	-0.849611
H235	H	0.705740	-0.344473	-0.849642
H236	H	0.636504	-0.328127	-1.006679
H237	H	0.679286	-0.370881	-1.006730
H238	H	0.642978	-0.407275	-0.866445
H239	H	0.600184	-0.364524	-0.866416
H240	H	0.603132	-0.404335	-0.957726
C241	C	0.652260	-0.694833	-0.713431
C242	C	0.622970	-0.730437	-0.772209
C243	C	0.589439	-0.703247	-0.839392
H244	H	0.672184	-0.673496	-0.759332
H245	H	0.629451	-0.673579	-0.673225
H246	H	0.645776	-0.751683	-0.812412
H247	H	0.603035	-0.751776	-0.726336
H248	H	0.566629	-0.681992	-0.799186
H249	H	0.609367	-0.681910	-0.885285
H250	H	0.569558	-0.727400	-0.879274
C251	C	0.685719	-0.443474	-0.646136
C252	C	0.692875	-0.389812	-0.631767
C253	C	0.659478	-0.362402	-0.698859
H254	H	0.650574	-0.452393	-0.630773
H255	H	0.693364	-0.452358	-0.716765
H256	H	0.685227	-0.380932	-0.561154
H257	H	0.728014	-0.380878	-0.647138
H258	H	0.667122	-0.371285	-0.769489
H259	H	0.624334	-0.371325	-0.683490
H260	H	0.664332	-0.325989	-0.689126
H261	H	0.054183	-0.191375	-0.628379
H262	H	0.206339	-0.157962	-0.695669
