data_functionalizedCrystal
_audit_creation_method	'MofGen! by Chris Wilmer'
_symmetry_space_group_name_H-M	'P1'
_symmetry_Int_Tables_number	1
_symmetry_cell_setting	triclinic
loop_
_symmetry_equiv_pos_as_xyz
  x,y,z
_cell_length_a	10.723023
_cell_length_b	10.723023
_cell_length_c	16.776229
_cell_angle_alpha	89.994384
_cell_angle_beta	89.993342
_cell_angle_gamma	84.467548
loop_
_atom_site_label
_atom_site_type_symbol
_atom_site_fract_x
_atom_site_fract_y
_atom_site_fract_z
O1	O	1.657193	0.175026	-0.066278
O2	O	2.157193	0.675026	0.433722
O3	O	1.294041	0.191780	-0.066281
O4	O	1.794041	0.691780	0.433719
O5	O	1.483994	0.001827	-0.066276
O6	O	1.983994	0.501827	0.433724
O7	O	1.467240	0.364979	-0.066283
O8	O	1.967240	0.864979	0.433717
O9	O	1.483968	0.001814	0.066300
O10	O	1.983968	0.501814	0.566300
O11	O	1.294015	0.191768	0.066295
O12	O	1.794015	0.691768	0.566295
O13	O	1.657168	0.175014	0.066298
O14	O	2.157168	0.675014	0.566298
Zn15	Zn	1.475587	0.183389	0.087346
Zn16	Zn	1.975587	0.683389	0.587346
Zn17	Zn	1.475621	0.183405	-0.087329
Zn18	Zn	1.975621	0.683405	0.412671
O19	O	1.467214	0.364967	0.066293
O20	O	1.967214	0.864967	0.566293
C21	C	1.247528	0.190555	0.000006
C22	C	1.747528	0.690555	0.500006
C23	C	1.108974	0.186908	0.000005
C24	C	1.608974	0.686908	0.500005
C25	C	0.904019	0.181518	-0.068673
C26	C	1.404019	0.681518	0.431327
C27	C	1.047223	0.185288	-0.068674
C28	C	1.547223	0.685288	0.431326
C29	C	1.482762	-0.044679	0.000011
C30	C	1.982762	0.455321	0.500011
C31	C	1.479115	-0.183233	0.000008
C32	C	1.979115	0.316767	0.500008
C33	C	1.477502	-0.244993	-0.068671
C34	C	1.977502	0.255007	0.431329
C35	C	1.473732	-0.388196	-0.068676
C36	C	1.973732	0.111804	0.431324
C37	C	1.703680	0.176239	0.000009
C38	C	2.203680	0.676239	0.500009
C39	C	1.842234	0.179886	0.000005
C40	C	2.342234	0.679886	0.500005
C41	C	1.468446	0.411473	0.000004
C42	C	1.968446	0.911473	0.500004
C43	C	1.472093	0.550027	0.000002
C44	C	1.972093	1.050027	0.500002
N45	N	1.475573	0.183377	0.206557
N46	N	1.975573	0.683377	0.706557
N47	N	1.475645	0.183406	-0.206540
N48	N	1.975645	0.683406	0.293460
C49	C	1.559711	0.099301	0.248277
C50	C	2.059711	0.599301	0.748277
C51	C	1.559718	0.099300	0.331729
C52	C	2.059718	0.599300	0.831729
C53	C	1.475592	0.183382	0.373460
C54	C	1.975592	0.683382	0.873460
C55	C	1.391446	0.267463	0.331735
C56	C	1.891446	0.767463	0.831735
C57	C	1.391434	0.267457	0.248284
C58	C	1.891434	0.767457	0.748284
C59	C	1.391491	0.267488	0.668282
C60	C	1.891491	0.767488	1.168282
C61	C	1.391512	0.267490	0.751739
C62	C	1.891512	0.767490	1.251739
C63	C	1.559775	0.099331	0.751727
C64	C	2.059775	0.599331	1.251727
C65	C	1.559763	0.099325	0.668276
C66	C	2.059763	0.599325	1.168276
C67	C	1.475613	0.183400	0.626558
C68	C	1.975613	0.683400	1.126558
C69	C	1.475605	0.183399	0.536070
C70	C	1.975605	0.683399	1.036070
C71	C	1.475605	0.183391	0.463947
C72	C	1.975605	0.683391	0.963947
H73	H	0.895356	0.181274	0.058802
H74	H	1.395356	0.681274	0.558802
C75	C	1.652328	0.006836	0.797618
C76	C	2.152328	0.506836	1.297618
H77	H	1.640281	0.018867	0.853295
H78	H	2.140281	0.518867	1.353295
H79	H	1.735722	0.021150	0.783930
H80	H	2.235722	0.521150	1.283930
H81	H	1.638058	-0.076579	0.783948
H82	H	2.138058	0.423421	1.283948
C83	C	1.471857	-0.459935	-0.148111
C84	C	1.971857	0.040065	0.351889
H85	H	1.469560	-0.546771	-0.137693
H86	H	1.969560	-0.046771	0.362307
H87	H	1.545064	-0.447546	-0.177825
H88	H	2.045064	0.052454	0.322175
H89	H	1.399766	-0.429759	-0.177820
H90	H	1.899766	0.070241	0.322180
H91	H	1.478907	-0.191849	-0.127467
H92	H	1.978907	0.308151	0.372533
C93	C	1.118992	0.187186	-0.148108
C94	C	1.618992	0.687186	0.351892
H95	H	1.205826	0.189463	-0.137687
H96	H	1.705826	0.689463	0.362313
H97	H	1.088826	0.259271	-0.177822
H98	H	1.588826	0.759271	0.322178
H99	H	1.106617	0.113973	-0.177816
H100	H	1.606617	0.613973	0.322184
H101	H	1.322975	0.335947	0.634322
H102	H	1.822975	0.835947	1.134322
C103	C	0.832270	0.179639	-0.148107
C104	C	1.332270	0.679639	0.351893
H105	H	0.745432	0.177361	-0.137686
H106	H	1.245432	0.677361	0.362314
H107	H	0.862444	0.107560	-0.177820
H108	H	1.362444	0.607560	0.322180
H109	H	0.844655	0.252858	-0.177816
H110	H	1.344655	0.752858	0.322184
C111	C	1.298911	0.359954	0.377637
C112	C	1.798911	0.859954	0.877637
H113	H	1.310977	0.347926	0.433313
H114	H	1.810977	0.847926	0.933313
H115	H	1.215512	0.345642	0.363976
H116	H	1.715512	0.845642	0.863976
H117	H	1.313180	0.443366	0.363948
H118	H	1.813180	0.943366	0.863948
H119	H	1.473486	-0.396870	0.058804
H120	H	1.973486	0.103130	0.558804
H121	H	1.322919	0.335919	0.214317
H122	H	1.822919	0.835919	0.714317
H123	H	1.477697	-0.236375	0.058804
H124	H	1.977697	0.263625	0.558804
H125	H	1.628221	0.030837	0.214304
H126	H	2.128221	0.530837	0.714304
H127	H	1.628228	0.030838	0.365696
H128	H	2.128228	0.530838	0.865696
C129	C	1.652297	0.006831	0.622376
C130	C	2.152297	0.506831	1.122376
H131	H	1.702400	-0.043252	0.659175
H132	H	2.202400	0.456748	1.159175
H133	H	1.704619	0.052190	0.589807
H134	H	2.204619	0.552190	1.089807
H135	H	1.606948	-0.045532	0.589836
H136	H	2.106948	0.454468	1.089836
H137	H	1.323002	0.335962	0.785715
H138	H	1.823002	0.835962	1.285715
H139	H	1.055847	0.185511	0.058806
H140	H	1.555847	0.685511	0.558806
