data_functionalizedCrystal
_audit_creation_method	'MofGen! by Chris Wilmer'
_symmetry_space_group_name_H-M	'P1'
_symmetry_Int_Tables_number	1
_symmetry_cell_setting	triclinic
loop_
_symmetry_equiv_pos_as_xyz
  x,y,z
_cell_length_a	17.699083
_cell_length_b	7.088929
_cell_length_c	17.699083
_cell_angle_alpha	96.211898
_cell_angle_beta	83.283015
_cell_angle_gamma	83.803027
loop_
_atom_site_label
_atom_site_type_symbol
_atom_site_fract_x
_atom_site_fract_y
_atom_site_fract_z
O1	O	0.996305	0.158727	0.103493
O2	O	1.329638	0.492060	0.436826
O3	O	1.662971	0.825393	0.770160
O4	O	0.775923	0.158790	0.115949
O5	O	1.109257	0.492123	0.449282
O6	O	1.442590	0.825456	0.782615
O7	O	0.892341	0.158740	-0.000469
O8	O	1.225674	0.492073	0.332864
O9	O	1.559008	0.825406	0.666197
O10	O	0.879887	0.158777	0.219911
O11	O	1.213220	0.492110	0.553244
O12	O	1.546553	0.825443	0.886578
O13	O	0.907899	-0.159242	-0.016062
O14	O	1.241233	0.174091	0.317271
O15	O	1.574566	0.507424	0.650604
O16	O	0.791481	-0.159192	0.100355
O17	O	1.124815	0.174141	0.433689
O18	O	1.458148	0.507475	0.767022
O19	O	1.011863	-0.159255	0.087900
O20	O	1.345196	0.174078	0.421233
O21	O	1.678529	0.507411	0.754567
Cu22	Cu	0.903093	-0.188258	0.092704
Cu23	Cu	1.236426	0.145075	0.426037
Cu24	Cu	1.569759	0.478409	0.759371
Cu25	Cu	0.884693	0.187792	0.111145
Cu26	Cu	1.218027	0.521126	0.444478
Cu27	Cu	1.551360	0.854459	0.777811
O28	O	0.895445	-0.159205	0.204318
O29	O	1.228778	0.174128	0.537651
O30	O	1.562112	0.507462	0.870984
C31	C	0.755505	-0.000193	0.107706
C32	C	1.088838	0.333140	0.441040
C33	C	1.422172	0.666473	0.774373
C34	C	0.671486	-0.000170	0.106369
C35	C	1.004819	0.333164	0.439702
C36	C	1.338152	0.666497	0.773035
N37	N	0.916039	-0.452752	0.079733
N38	N	1.249373	-0.119418	0.413066
N39	N	1.582706	0.213915	0.746400
C40	C	0.622864	-0.000159	0.174703
C41	C	0.956197	0.333175	0.508036
C42	C	1.289531	0.666508	0.841369
C43	C	0.543922	-0.000184	0.173439
C44	C	0.877255	0.333150	0.506773
C45	C	1.210589	0.666483	0.840106
C46	C	0.513602	-0.000206	0.103842
C47	C	0.846936	0.333127	0.437175
C48	C	1.180269	0.666461	0.770508
C49	C	0.562230	-0.000223	0.035502
C50	C	0.895564	0.333111	0.368836
C51	C	1.228897	0.666444	0.702169
C52	C	0.641172	-0.000211	0.036766
C53	C	0.974505	0.333122	0.370099
C54	C	1.307838	0.666455	0.703432
C55	C	0.243870	-0.000271	0.030405
C56	C	0.577203	0.333063	0.363738
C57	C	0.910536	0.666396	0.697071
C58	C	0.164922	-0.000276	0.029146
C59	C	0.498255	0.333057	0.362480
C60	C	0.831589	0.666390	0.695813
C61	C	0.146620	-0.000243	0.167078
C62	C	0.479953	0.333090	0.500411
C63	C	0.813287	0.666424	0.833745
C64	C	0.225561	-0.000232	0.168342
C65	C	0.558895	0.333102	0.501675
C66	C	0.892228	0.666435	0.835008
C67	C	0.274183	-0.000259	0.100002
C68	C	0.607516	0.333075	0.433335
C69	C	0.940850	0.666408	0.766669
C70	C	0.359781	-0.000235	0.101373
C71	C	0.693114	0.333098	0.434706
C72	C	1.026448	0.666431	0.768039
C73	C	0.428005	-0.000216	0.102471
C74	C	0.761339	0.333118	0.435804
C75	C	1.094672	0.666451	0.769138
C76	C	1.032281	-0.000268	0.096142
C77	C	1.365614	0.333065	0.429476
C78	C	1.698948	0.666399	0.762809
C79	C	1.116300	-0.000279	0.097481
C80	C	1.449633	0.333054	0.430814
C81	C	1.782966	0.666388	0.764147
C82	C	0.899674	-0.000252	-0.036463
C83	C	1.233007	0.333082	0.296870
C84	C	1.566341	0.666415	0.630204
C85	C	0.898335	-0.000252	-0.120481
C86	C	1.231669	0.333081	0.212852
C87	C	1.565002	0.666415	0.546186
N88	N	0.871753	0.452286	0.124109
N89	N	1.205086	0.785619	0.457443
N90	N	1.538419	1.118953	0.790776
C91	C	0.966670	-0.000274	-0.169103
C92	C	1.300003	0.333059	0.164230
C93	C	1.633337	0.666392	0.497564
C94	C	0.965407	-0.000257	-0.248045
C95	C	1.298740	0.333076	0.085288
C96	C	1.632073	0.666410	0.418621
C97	C	0.895809	-0.000231	-0.278365
C98	C	1.229142	0.333102	0.054968
C99	C	1.562476	0.666436	0.388302
C100	C	0.827469	-0.000203	-0.229736
C101	C	1.160802	0.333130	0.103597
C102	C	1.494136	0.666464	0.436930
C103	C	0.828732	-0.000207	-0.150795
C104	C	1.162066	0.333127	0.182538
C105	C	1.495399	0.666460	0.515872
C106	C	0.822373	-0.000186	-0.548099
C107	C	1.155706	0.333147	-0.214765
C108	C	1.489040	0.666481	0.118568
C109	C	0.821115	-0.000188	-0.627047
C110	C	1.154449	0.333145	-0.293713
C111	C	1.487782	0.666478	0.039620
C112	C	0.959047	-0.000236	-0.645349
C113	C	1.292381	0.333097	-0.312016
C114	C	1.625714	0.666430	0.021317
C115	C	0.960311	-0.000240	-0.566408
C116	C	1.293644	0.333093	-0.233074
C117	C	1.626977	0.666427	0.100259
C118	C	0.891971	-0.000202	-0.517786
C119	C	1.225304	0.333131	-0.184452
C120	C	1.558637	0.666465	0.148881
C121	C	0.893341	-0.000217	-0.432187
C122	C	1.226674	0.333116	-0.098854
C123	C	1.560007	0.666450	0.234479
C124	C	0.894439	-0.000230	-0.363963
C125	C	1.227772	0.333104	-0.030629
C126	C	1.561105	0.666437	0.302704
C127	C	0.888112	-0.000210	0.240312
C128	C	1.221445	0.333124	0.573645
C129	C	1.554778	0.666457	0.906978
C130	C	0.889450	-0.000197	0.324330
C131	C	1.222783	0.333136	0.657664
C132	C	1.556116	0.666470	0.990997
H133	H	0.647544	-0.000139	0.231377
H134	H	0.980877	0.333194	0.564711
H135	H	1.314210	0.666527	0.898044
H136	H	0.770801	-0.000170	-0.254428
H137	H	1.104134	0.333163	0.078905
H138	H	1.437467	0.666497	0.412238
N139	N	0.976850	-0.560919	0.018822
N140	N	1.310183	-0.227586	0.352155
N141	N	1.643517	0.105747	0.685488
H142	H	0.975940	-0.702869	0.019742
H143	H	1.309274	-0.369536	0.353075
H144	H	1.642607	-0.036203	0.686409
H145	H	0.966437	-0.526044	-0.033143
H146	H	1.299771	-0.192711	0.300190
H147	H	1.633104	0.140622	0.633523
H148	H	0.825855	-0.466048	0.170096
H149	H	1.159188	-0.132715	0.503429
H150	H	1.492522	0.200619	0.836763
N151	N	0.755029	-0.000171	-0.098348
N152	N	1.088362	0.333162	0.234985
N153	N	1.421695	0.666496	0.568319
H154	H	0.710747	-0.000156	-0.129532
H155	H	1.044080	0.333177	0.203801
H156	H	1.377413	0.666510	0.537134
H157	H	0.758313	-0.118047	-0.070977
H158	H	1.091647	0.215286	0.262356
H159	H	1.424980	0.548619	0.595689
H160	H	0.504337	-0.000173	0.229084
H161	H	0.837670	0.333161	0.562417
H162	H	1.171004	0.666494	0.895750
H163	H	1.021052	-0.000279	-0.287631
H164	H	1.354385	0.333054	0.045702
H165	H	1.687719	0.666387	0.379035
N166	N	0.748666	-0.000153	-0.495665
N167	N	1.081999	0.333180	-0.162332
N168	N	1.415332	0.666513	0.171001
H169	H	0.760020	-0.000144	-0.441054
H170	H	1.093353	0.333189	-0.107720
H171	H	1.426687	0.666522	0.225613
H172	H	0.712567	0.117741	-0.499691
H173	H	1.045900	0.451074	-0.166357
H174	H	1.379233	0.784408	0.166976
H175	H	1.023345	-0.000307	-0.144424
H176	H	1.356678	0.333026	0.188909
H177	H	1.690012	0.666360	0.522243
H178	H	0.250242	-0.000205	0.225015
H179	H	0.583576	0.333128	0.558349
H180	H	0.916909	0.666462	0.891682
H181	H	0.107023	-0.000232	0.222723
H182	H	0.440356	0.333102	0.556056
H183	H	0.773690	0.666435	0.889389
H184	H	0.140239	-0.000297	-0.027532
H185	H	0.473573	0.333036	0.305802
H186	H	0.806906	0.666370	0.639135
N187	N	1.035380	-0.000263	-0.533713
N188	N	1.368713	0.333070	-0.200379
N189	N	1.702046	0.666403	0.132954
H190	H	1.033209	0.117610	-0.495584
H191	H	1.366542	0.450944	-0.162250
H192	H	1.699876	0.784277	0.171083
H193	H	1.044706	-0.118220	-0.507194
H194	H	1.378039	0.215114	-0.173860
H195	H	1.711372	0.548447	0.159473
H196	H	1.014693	-0.000258	-0.684947
H197	H	1.348026	0.333076	-0.351614
H198	H	1.681359	0.666409	-0.018280
H199	H	0.283448	-0.000294	-0.025242
H200	H	0.616782	0.333039	0.308091
H201	H	0.950115	0.666372	0.641425
H202	H	0.537539	-0.000268	-0.021167
H203	H	0.870873	0.333065	0.312167
H204	H	1.204206	0.666398	0.645500
N205	N	0.693613	-0.000234	-0.036940
N206	N	1.026946	0.333100	0.296393
N207	N	1.360280	0.666433	0.629726
H208	H	0.678105	0.117632	-0.061534
H209	H	1.011438	0.450966	0.271799
H210	H	1.344771	0.784299	0.605133
H211	H	0.748205	-0.000304	-0.025523
H212	H	1.081538	0.333029	0.307810
H213	H	1.414871	0.666362	0.641144
N214	N	0.746046	-0.000171	-0.659752
N215	N	1.079380	0.333162	-0.326418
N216	N	1.412713	0.666495	0.006915
H217	H	0.702944	-0.000146	-0.616972
H218	H	1.036277	0.333187	-0.283638
H219	H	1.369611	0.666520	0.049695
H220	H	0.736755	0.117704	-0.686327
H221	H	1.070088	0.451037	-0.352994
H222	H	1.403421	0.784370	-0.019661
