data_functionalizedCrystal
_audit_creation_method	'MofGen! by Chris Wilmer'
_symmetry_space_group_name_H-M	'P1'
_symmetry_Int_Tables_number	1
_symmetry_cell_setting	triclinic
loop_
_symmetry_equiv_pos_as_xyz
  x,y,z
_cell_length_a	13.032831
_cell_length_b	13.897448
_cell_length_c	13.034356
_cell_angle_alpha	97.210930
_cell_angle_beta	105.184960
_cell_angle_gamma	82.822399
loop_
_atom_site_label
_atom_site_type_symbol
_atom_site_fract_x
_atom_site_fract_y
_atom_site_fract_z
Zn1	Zn	1.700192	-0.489005	0.806446
Zn2	Zn	2.200192	0.010995	1.306446
Zn3	Zn	1.677506	-0.668494	0.628818
Zn4	Zn	2.177506	-0.168494	1.128818
Zn5	Zn	1.499996	-0.489013	0.606329
Zn6	Zn	1.999996	0.010987	1.106329
Zn7	Zn	1.522536	-0.632052	0.783870
Zn8	Zn	2.022536	-0.132052	1.283870
O9	O	1.600058	-0.569641	0.706366
O10	O	2.100058	-0.069641	1.206366
O11	O	1.845820	-0.528063	0.801743
O12	O	2.345820	-0.028063	1.301743
O13	O	1.635032	-0.659941	0.477194
O14	O	2.135032	-0.159941	0.977194
O15	O	1.526614	-0.354034	0.632911
O16	O	2.026614	0.145966	1.132911
O17	O	1.829153	-0.659933	0.671240
O18	O	2.329153	-0.159933	1.171240
O19	O	1.673696	-0.354028	0.779936
O20	O	2.173696	0.145972	1.279936
O21	O	1.504616	-0.528077	0.460672
O22	O	2.004616	-0.028077	0.960672
O23	O	1.354348	-0.492740	0.611020
O24	O	1.854348	0.007260	1.111020
O25	O	1.565029	-0.597821	0.935505
O26	O	2.065029	-0.097821	1.435505
O27	O	1.370908	-0.597829	0.741459
O28	O	1.870908	-0.097829	1.241459
O29	O	1.695552	-0.492726	0.952091
O30	O	2.195552	0.007274	1.452091
O31	O	1.656888	-0.798639	0.649349
O32	O	2.156888	-0.298639	1.149349
O33	O	1.543032	-0.771865	0.763266
O34	O	2.043032	-0.271865	1.263266
C35	C	1.324088	-0.541332	0.671350
C36	C	1.824088	-0.041332	1.171350
C37	C	1.206030	-0.529241	0.656395
C38	C	1.706030	-0.029241	1.156395
C39	C	1.161605	-0.575951	0.714170
C40	C	1.661605	-0.075951	1.214170
C41	C	1.039587	-0.563457	0.698715
C42	C	1.539587	-0.063457	1.198715
C43	C	1.599976	-0.820251	0.706325
C44	C	2.099976	-0.320251	1.206325
C45	C	1.600043	-0.927469	0.706355
C46	C	2.100043	-0.427469	1.206355
C47	C	1.600163	-1.123769	0.706436
C48	C	2.100163	-0.623769	1.206436
C49	C	1.600094	-1.014533	0.706394
C50	C	2.100094	-0.514533	1.206394
C51	C	1.877105	-0.598062	0.741518
C52	C	2.377105	-0.098062	1.241518
C53	C	1.995166	-0.610173	0.756498
C54	C	2.495166	-0.110173	1.256498
C55	C	1.635336	-0.541208	0.983416
C56	C	2.135336	-0.041208	1.483416
C57	C	1.650369	-0.529091	1.101479
C58	C	2.150369	-0.029091	1.601479
C59	C	1.600171	-0.318054	0.706433
C60	C	2.100171	0.181946	1.206433
C61	C	1.600220	-0.210842	0.706462
C62	C	2.100220	0.289158	1.206462
C63	C	1.564978	-0.597901	0.430400
C64	C	2.064978	-0.097901	0.930400
C65	C	1.550150	-0.609767	0.312365
C66	C	2.050150	-0.109767	0.812365
C67	C	1.608026	-0.563170	1.267932
C68	C	2.108026	-0.063170	1.767932
C69	C	1.592485	-0.575694	1.145908
C70	C	2.092485	-0.075694	1.645908
H71	H	0.987291	-0.514209	0.637811
H72	H	1.487291	-0.014209	1.137811
H73	H	1.213906	-0.625188	0.775079
H74	H	1.713906	-0.125188	1.275079
H75	H	1.047462	-0.659411	0.817414
H76	H	1.547462	-0.159411	1.317414
N77	N	1.140417	-0.467462	0.580002
N78	N	1.640417	0.032538	1.080002
N79	N	1.041390	-0.457395	0.567560
N80	N	1.541390	0.042605	1.067560
H81	H	0.995051	-0.413760	0.513607
H82	H	1.495051	0.086240	1.013607
N83	N	1.684625	-0.501505	1.333545
N84	N	2.184625	-0.001505	1.833545
N85	N	1.697145	-0.491424	1.432577
N86	N	2.197145	0.008576	1.932577
H87	H	1.751246	-0.447872	1.478916
H88	H	2.251246	0.052128	1.978916
H89	H	1.531431	-0.624865	1.093614
H90	H	2.031431	-0.124865	1.593614
H91	H	1.711431	-0.479926	1.153772
H92	H	2.211431	0.020074	1.653772
H93	H	1.489100	-0.658935	1.260068
H94	H	1.989100	-0.158935	1.760068
