data_functionalizedCrystal
_audit_creation_method	'MofGen! by Chris Wilmer'
_symmetry_space_group_name_H-M	'P1'
_symmetry_Int_Tables_number	1
_symmetry_cell_setting	triclinic
loop_
_symmetry_equiv_pos_as_xyz
  x,y,z
_cell_length_a	17.077404
_cell_length_b	16.959454
_cell_length_c	16.959434
_cell_angle_alpha	89.914120
_cell_angle_beta	89.940322
_cell_angle_gamma	90.020300
loop_
_atom_site_label
_atom_site_type_symbol
_atom_site_fract_x
_atom_site_fract_y
_atom_site_fract_z
Zn1	Zn	1.200381	-0.314200	-0.446951
Zn2	Zn	1.200203	-0.446529	-0.314781
Zn3	Zn	1.069021	-0.314369	-0.314786
Zn4	Zn	1.069088	-0.446341	-0.446917
O5	O	1.134673	-0.380359	-0.380859
O6	O	1.310205	-0.331761	-0.429430
O7	O	1.182699	-0.429147	-0.204170
O8	O	1.086493	-0.203735	-0.332334
O9	O	1.310073	-0.428983	-0.332325
O10	O	1.183003	-0.203611	-0.429436
O11	O	1.086320	-0.332049	-0.204174
O12	O	0.959183	-0.331867	-0.332301
O13	O	1.086607	-0.428663	-0.557533
O14	O	0.959232	-0.428826	-0.429378
O15	O	1.183068	-0.331579	-0.557558
O16	O	1.182763	-0.557115	-0.332292
O17	O	1.086433	-0.556976	-0.429372
C18	C	0.930725	-0.380345	-0.380837
C19	C	0.843476	-0.380358	-0.380846
C20	C	1.134607	-0.585726	-0.380845
C21	C	1.134651	-0.673582	-0.380866
C22	C	0.802531	-0.430921	-0.431313
C23	C	0.720551	-0.430923	-0.431325
C24	C	0.679516	-0.380365	-0.380867
C25	C	0.720466	-0.329796	-0.330398
C26	C	0.802445	-0.329791	-0.330390
C27	C	0.549596	-0.329812	-0.330417
C28	C	0.467612	-0.329818	-0.330424
C29	C	0.467702	-0.430943	-0.431352
C30	C	0.549681	-0.430938	-0.431344
C31	C	0.590625	-0.380370	-0.380874
C32	C	1.084587	-1.045016	-0.431403
C33	C	1.184978	-1.045100	-0.330395
C34	C	1.184951	-0.962554	-0.330388
C35	C	1.134740	-0.921235	-0.380888
C36	C	1.084557	-0.962462	-0.431395
C37	C	1.235127	-0.921320	-0.279875
C38	C	1.235101	-0.838769	-0.279865
C39	C	1.184894	-0.797449	-0.330370
C40	C	1.134709	-0.838682	-0.380881
C41	C	1.084498	-0.797363	-0.431381
C42	C	1.034317	-0.838594	-0.481896
C43	C	1.034349	-0.921142	-0.481900
C44	C	1.184862	-0.714901	-0.330366
C45	C	1.084468	-0.714809	-0.431373
C46	C	1.339417	-0.380374	-0.380881
C47	C	1.426667	-0.380381	-0.380891
C48	C	1.134864	-0.380081	-0.587027
C49	C	1.134946	-0.379962	-0.674884
C50	C	1.134761	-0.174191	-0.380889
C51	C	1.134798	-0.086334	-0.380903
C52	C	1.134528	-0.380580	-0.175492
C53	C	1.134599	-0.380475	-0.087636
C54	C	1.185174	-0.430613	-0.046320
C55	C	1.084094	-0.330235	-0.046398
C56	C	1.084161	-0.330132	0.036148
C57	C	1.134737	-0.380270	0.077463
C58	C	1.185245	-0.430511	0.036234
C59	C	1.033660	-0.279887	0.077383
C60	C	1.033726	-0.279782	0.159934
C61	C	1.084298	-0.329925	0.201252
C62	C	1.134808	-0.380168	0.160017
C63	C	1.185383	-0.430305	0.201333
C64	C	1.235889	-0.480553	0.160099
C65	C	1.235817	-0.480653	0.077551
C66	C	1.084370	-0.329825	0.283800
C67	C	1.185454	-0.430203	0.283886
H68	H	0.687218	-0.472097	-0.472420
H69	H	1.042921	-0.289411	-0.080042
C70	C	1.224610	-0.563741	0.309591
C71	C	1.241048	-0.485319	0.329297
H72	H	1.258935	-0.597766	0.337623
H73	H	1.171966	-0.575661	0.323260
H74	H	1.231795	-0.570984	0.254525
H75	H	1.233858	-0.478075	0.384362
H76	H	1.293705	-0.473395	0.315633
H77	H	1.277071	-0.521372	0.193749
C78	C	1.229546	-1.171678	-0.285509
C79	C	1.240133	-1.090515	-0.274853
H80	H	1.263593	-1.199716	-0.251211
H81	H	1.176802	-1.185237	-0.273922
H82	H	1.241077	-1.185124	-0.338620
H83	H	1.228597	-1.077067	-0.221742
H84	H	1.292889	-1.076950	-0.286434
C85	C	1.022174	-0.173423	0.252498
C86	C	0.978206	-0.224558	0.205254
H87	H	0.987896	-0.139330	0.280473
H88	H	1.052296	-0.203269	0.288915
H89	H	1.056141	-0.142983	0.220141
H90	H	0.944244	-0.255003	0.237612
H91	H	0.948072	-0.194709	0.168833
C92	C	1.046239	-0.689211	-0.565184
C93	C	1.029275	-0.669395	-0.486888
H94	H	1.012162	-0.661177	-0.599454
H95	H	1.098970	-0.675619	-0.576790
H96	H	1.039076	-0.744276	-0.572408
H97	H	1.036443	-0.614330	-0.479662
H98	H	0.976530	-0.682982	-0.475278
H99	H	0.993493	-0.954720	-0.523026
H100	H	0.434361	-0.472115	-0.472449
C101	C	1.229952	-0.475350	-0.172820
C102	C	1.240691	-0.485842	-0.091639
H103	H	1.264230	-0.509443	-0.200797
H104	H	1.177284	-0.487316	-0.186209
H105	H	1.241073	-0.422175	-0.186511
H106	H	1.229564	-0.539015	-0.077946
H107	H	1.293371	-0.473882	-0.078244
C108	C	0.827553	-0.291269	-0.196605
C109	C	0.847458	-0.274218	-0.274912
H110	H	0.855347	-0.256961	-0.162357
H111	H	0.772865	-0.284031	-0.189392
H112	H	0.840962	-0.344377	-0.184959
H113	H	0.834044	-0.221111	-0.286560
H114	H	0.902159	-0.281449	-0.282128
C115	C	0.988683	-0.235474	-0.049193
C116	C	0.978079	-0.224770	0.031969
H117	H	0.954367	-0.201445	-0.077231
H118	H	1.041332	-0.223554	-0.062847
H119	H	0.977530	-0.288680	-0.062546
H120	H	0.989239	-0.171564	0.045323
H121	H	0.925419	-0.236684	0.045628
H122	H	1.043254	-0.288909	0.317368
C123	C	0.794378	-0.530871	-0.531084
C124	C	0.847633	-0.486494	-0.486782
H125	H	0.822222	-0.565175	-0.565334
H126	H	0.762358	-0.561102	-0.496598
H127	H	0.762445	-0.496430	-0.561376
H128	H	0.879562	-0.520936	-0.456485
H129	H	0.879666	-0.456261	-0.521272
C130	C	0.541540	-0.530895	-0.531113
C131	C	0.594788	-0.486512	-0.486809
H132	H	0.569390	-0.565199	-0.565358
H133	H	0.509520	-0.561126	-0.496628
H134	H	0.509608	-0.496458	-0.561409
H135	H	0.626717	-0.520949	-0.456507
H136	H	0.626822	-0.456279	-0.521298
C137	C	0.475752	-0.229844	-0.230673
C138	C	0.422504	-0.274238	-0.274966
H139	H	0.447903	-0.195527	-0.196440
H140	H	0.507681	-0.264267	-0.200371
H141	H	0.507776	-0.199618	-0.265172
H142	H	0.390484	-0.304468	-0.240468
H143	H	0.390561	-0.239810	-0.305271
C144	C	1.290412	-0.622008	-0.319465
C145	C	1.240013	-0.669580	-0.274844
H146	H	1.324459	-0.594027	-0.285185
H147	H	1.320455	-0.654136	-0.353923
H148	H	1.260500	-0.585589	-0.349540
H149	H	1.269926	-0.706003	-0.244774
H150	H	1.209968	-0.637448	-0.240372
C151	C	0.641675	-0.318809	-0.224108
C152	C	0.594609	-0.274232	-0.274940
H153	H	0.669469	-0.284498	-0.189862
H154	H	0.609648	-0.353235	-0.193821
H155	H	0.677839	-0.348915	-0.254171
H156	H	0.558442	-0.244129	-0.244877
H157	H	0.626639	-0.239792	-0.305230
C158	C	0.985357	-1.036628	-0.531253
C159	C	1.029431	-1.090331	-0.486930
H160	H	0.951310	-1.064606	-0.565536
H161	H	0.955313	-1.004514	-0.496782
H162	H	1.019559	-1.004352	-0.561510
H163	H	0.995229	-1.122603	-0.456668
H164	H	1.059477	-1.122459	-0.521405
C165	C	0.996092	-0.812978	-0.615705
C166	C	0.979128	-0.793171	-0.537407
H167	H	0.962018	-0.784936	-0.649973
H168	H	1.048825	-0.799391	-0.627308
H169	H	0.988923	-0.868042	-0.622936
H170	H	0.986302	-0.738107	-0.530174
H171	H	0.926382	-0.806753	-0.525800
C172	C	1.274934	-0.614253	0.052420
C173	C	1.291334	-0.535878	0.032228
H174	H	1.309206	-0.648344	0.024433
H175	H	1.282215	-0.621365	0.107489
H176	H	1.222258	-0.626207	0.039018
H177	H	1.344008	-0.523923	0.045635
H178	H	1.284059	-0.528763	-0.022853
C179	C	1.368033	-0.946790	-0.241449
C180	C	1.290278	-0.966779	-0.224363
H181	H	1.402069	-0.974868	-0.207172
H182	H	1.379540	-0.960213	-0.294564
H183	H	1.375223	-0.891734	-0.234184
H184	H	1.283086	-1.021835	-0.231634
H185	H	1.278766	-0.953362	-0.171235
H186	H	1.275962	-0.805204	-0.238735
H187	H	0.687049	-0.288628	-0.289318
