data_functionalizedCrystal
_audit_creation_method	'MofGen! by Chris Wilmer'
_symmetry_space_group_name_H-M	'P1'
_symmetry_Int_Tables_number	1
_symmetry_cell_setting	triclinic
loop_
_symmetry_equiv_pos_as_xyz
  x,y,z
_cell_length_a	16.120444
_cell_length_b	11.169417
_cell_length_c	11.169409
_cell_angle_alpha	89.980176
_cell_angle_beta	92.861473
_cell_angle_gamma	92.927304
loop_
_atom_site_label
_atom_site_type_symbol
_atom_site_fract_x
_atom_site_fract_y
_atom_site_fract_z
Zn1	Zn	-0.331820	1.810607	-0.702711
Zn2	Zn	0.168180	2.310607	-0.202711
Zn3	Zn	-0.471263	1.800261	-0.512185
Zn4	Zn	0.028737	2.300261	-0.012185
Zn5	Zn	-0.331870	1.609889	-0.502050
Zn6	Zn	0.168130	2.109889	-0.002050
Zn7	Zn	-0.471195	1.599670	-0.712825
Zn8	Zn	0.028805	2.099670	-0.212825
O9	O	-0.401537	1.705107	-0.607443
O10	O	0.098463	2.205107	-0.107443
O11	O	-0.350324	1.977184	-0.677447
O12	O	0.149676	2.477184	-0.177447
O13	O	-0.452822	1.774955	-0.342894
O14	O	0.047178	2.274955	0.157106
O15	O	-0.215198	1.645121	-0.520194
O16	O	0.284802	2.145121	-0.020194
O17	O	-0.452773	1.969583	-0.537468
O18	O	0.047227	2.469583	-0.037468
O19	O	-0.215161	1.792588	-0.667619
O20	O	0.284839	2.292588	-0.167619
O21	O	-0.350411	1.635089	-0.335448
O22	O	0.149589	2.135089	0.164552
O23	O	-0.350345	1.440585	-0.530000
O24	O	0.149655	1.940585	-0.030000
O25	O	-0.452657	1.627705	-0.879430
O26	O	0.047343	2.127705	-0.379430
O27	O	-0.452706	1.433077	-0.684856
O28	O	0.047294	1.933077	-0.184856
O29	O	-0.350258	1.782679	-0.871999
O30	O	0.149742	2.282679	-0.371999
O31	O	-0.587920	1.765046	-0.547275
O32	O	-0.087920	2.265046	-0.047275
O33	O	-0.587870	1.617673	-0.694684
O34	O	-0.087870	2.117673	-0.194684
C35	C	-0.401524	1.393283	-0.607426
C36	C	0.098476	1.893283	-0.107426
C37	C	-0.401539	1.259882	-0.607449
C38	C	0.098461	1.759882	-0.107449
C39	C	-0.618145	1.689161	-0.623203
C40	C	-0.118145	2.189161	-0.123203
C41	C	-0.710810	1.682449	-0.629985
C42	C	-0.210810	2.182449	-0.129985
C43	C	-0.921757	1.740220	-0.572517
C44	C	-0.421757	2.240220	-0.072517
C45	C	-0.880466	1.670216	-0.642380
C46	C	-0.380466	2.170216	-0.142380
C47	C	-0.786061	1.677024	-0.635482
C48	C	-0.286061	2.177024	-0.135482
C49	C	-1.016170	1.733414	-0.579415
C50	C	-0.516170	2.233414	-0.079415
C51	C	-0.184084	1.721148	-0.591648
C52	C	0.315916	2.221148	-0.091648
C53	C	-0.091418	1.727984	-0.584917
C54	C	0.408582	2.227984	-0.084917
C55	C	-0.401445	1.705206	-0.920479
C56	C	0.098555	2.205206	-0.420479
C57	C	-0.401405	1.705248	-1.053876
C58	C	0.098595	2.205248	-0.553876
C59	C	-0.401550	2.018148	-0.607460
C60	C	0.098450	2.518148	-0.107460
C61	C	-0.401556	2.151548	-0.607467
C62	C	0.098444	2.651548	-0.107467
C63	C	-0.401569	1.705082	-0.295620
C64	C	0.098431	2.205082	0.204380
C65	C	-0.401374	1.705290	-0.162207
C66	C	0.098626	2.205290	0.337793
H67	H	-0.916017	1.605170	-0.707373
H68	H	-0.416017	2.105170	-0.207373
O69	O	-0.879224	1.817705	-0.495007
O70	O	-0.379224	2.317705	0.004993
C71	C	-0.793069	1.807341	-0.505304
C72	C	-0.293069	2.307341	-0.005304
H73	H	-0.781326	1.715532	-0.543702
H74	H	-0.281326	2.215532	-0.043702
H75	H	-0.759948	1.817854	-0.413041
H76	H	-0.259948	2.317854	0.086959
H77	H	-0.768267	1.880254	-0.567495
H78	H	-0.268267	2.380254	-0.067495
