data_functionalizedCrystal
_audit_creation_method	'MofGen! by Chris Wilmer'
_symmetry_space_group_name_H-M	'P1'
_symmetry_Int_Tables_number	1
_symmetry_cell_setting	triclinic
loop_
_symmetry_equiv_pos_as_xyz
  x,y,z
_cell_length_a	23.532407
_cell_length_b	27.731996
_cell_length_c	22.010155
_cell_angle_alpha	89.998256
_cell_angle_beta	89.994271
_cell_angle_gamma	82.735067
loop_
_atom_site_label
_atom_site_type_symbol
_atom_site_fract_x
_atom_site_fract_y
_atom_site_fract_z
O1	O	0.755125	0.058674	-0.050495
O2	O	0.589242	0.067164	-0.050505
O3	O	0.677351	-0.007472	-0.050486
O4	O	0.667016	0.133310	-0.050513
O5	O	0.677335	-0.007460	0.050564
O6	O	0.589226	0.067175	0.050545
O7	O	0.755109	0.058685	0.050556
Cu8	Cu	0.672166	0.062931	0.059777
Cu9	Cu	0.672185	0.062918	-0.059727
O10	O	0.667000	0.133321	0.050537
C11	C	0.568019	0.066954	0.000019
C12	C	0.504803	0.066303	0.000015
C13	C	0.238746	0.019455	0.000041
C14	C	0.298145	0.020059	0.000040
O15	O	0.334977	-0.017106	0.000069
N16	N	0.320666	0.064430	0.000028
C17	C	0.283786	0.108200	0.000022
O18	O	0.308396	0.145996	0.000011
C19	C	0.224388	0.107595	0.000026
C20	C	0.201870	0.063221	0.000033
C21	C	0.216227	-0.024915	0.000048
C22	C	0.156832	-0.025519	0.000047
C23	C	0.119956	0.018248	0.000039
C24	C	0.142475	0.062618	0.000032
C25	C	0.187509	0.151365	0.000024
C26	C	0.128108	0.150757	0.000030
C27	C	0.105589	0.106383	0.000036
C28	C	0.046205	0.105781	0.000023
N29	N	0.023683	0.061410	0.000036
C30	C	0.060559	0.017643	0.000044
C31	C	0.408525	0.109465	0.000013
C32	C	0.467922	0.110070	0.000004
C33	C	0.482277	0.021929	0.000024
C34	C	0.422879	0.021325	0.000029
C35	C	0.386004	0.065095	0.000026
C36	C	-0.064175	0.016379	0.000041
C37	C	-0.123576	0.015779	0.000038
C38	C	-0.137925	0.103920	0.000021
C39	C	-0.078530	0.104520	0.000021
C40	C	-0.041656	0.060745	0.000033
O41	O	0.009338	0.142926	-0.000003
O42	O	0.035940	-0.020147	0.000062
C43	C	0.677131	-0.025474	0.000041
C44	C	0.676491	-0.079131	0.000047
C45	C	0.672477	-0.411860	-0.055066
C46	C	0.670049	-0.613522	-0.055076
O47	O	0.669718	-0.639598	-0.101922
N48	N	0.669738	-0.638733	0.000006
C49	C	0.670031	-0.613526	0.055094
O50	O	0.669706	-0.639596	0.101945
C51	C	0.672456	-0.411864	0.055104
C52	C	0.672772	-0.386656	0.000019
C53	C	0.672792	-0.386651	-0.110147
C54	C	0.673403	-0.336239	-0.110143
C55	C	0.673697	-0.311035	-0.055059
C56	C	0.673382	-0.336244	0.000022
C57	C	0.672744	-0.386657	0.110192
C58	C	0.673349	-0.336238	0.110190
C59	C	0.673665	-0.311030	0.055104
C60	C	0.674287	-0.260628	0.055110
N61	N	0.674597	-0.235416	0.000028
C62	C	0.674302	-0.260620	-0.055057
C63	C	0.668760	-0.719401	0.055085
C64	C	0.668155	-0.769816	0.055083
C65	C	0.668171	-0.769809	-0.055088
C66	C	0.668780	-0.719393	-0.055085
C67	C	0.669070	-0.694189	0.000003
C68	C	0.675584	-0.154751	-0.055046
C69	C	0.676197	-0.104335	-0.055037
C70	C	0.676177	-0.104346	0.055133
C71	C	0.675568	-0.154759	0.055125
C72	C	0.675269	-0.179959	0.000031
O73	O	0.674612	-0.234520	0.101931
O74	O	0.674615	-0.234539	-0.101900
C75	C	0.671867	-0.462272	-0.055069
C76	C	0.671551	-0.487480	0.000012
C77	C	0.671846	-0.462276	0.055097
C78	C	0.670946	-0.537895	0.000010
C79	C	0.670652	-0.563099	-0.055075
C80	C	0.670962	-0.537888	-0.110157
C81	C	0.671572	-0.487475	-0.110153
C82	C	0.671536	-0.487488	0.110179
C83	C	0.670926	-0.537900	0.110171
C84	C	0.670632	-0.563104	0.055087
C85	C	0.776333	0.058896	0.000030
C86	C	0.839548	0.059546	0.000030
C87	C	0.667221	0.151323	0.000008
C88	C	0.667860	0.204980	-0.000002
N89	N	0.672157	0.062940	0.143830
N90	N	0.672199	0.062905	-0.143779
C91	C	0.711202	0.029874	0.563617
C92	C	0.711205	0.029871	0.627225
O93	O	0.744379	0.001763	0.660123
N94	N	0.672185	0.062908	0.659037
C95	C	0.633156	0.095947	0.627238
O96	O	0.599966	0.124048	0.660137
C97	C	0.633151	0.095948	0.563631
C98	C	0.672177	0.062912	0.531823
C99	C	0.750225	-0.003160	0.531809
C100	C	0.750223	-0.003156	0.468206
C101	C	0.711198	0.029882	0.436411
C102	C	0.672175	0.062916	0.468219
C103	C	0.594120	0.128985	0.531833
C104	C	0.594118	0.128982	0.468222
C105	C	0.633144	0.095946	0.436414
C106	C	0.633148	0.095958	0.372822
N107	N	0.672168	0.062921	0.341010
C108	C	0.711193	0.029883	0.372804
C109	C	0.633169	0.095943	0.760815
C110	C	0.633176	0.095945	0.824421
C111	C	0.711224	0.029867	0.824404
C112	C	0.711219	0.029868	0.760797
C113	C	0.672189	0.062906	0.729004
C114	C	0.711186	0.029894	0.239233
C115	C	0.711182	0.029902	0.175624
C116	C	0.633132	0.095978	0.175647
C117	C	0.633138	0.095971	0.239250
C118	C	0.672167	0.062925	0.271042
O119	O	0.599989	0.124050	0.339883
O120	O	0.744372	0.001783	0.339898
H121	H	0.138504	-0.061653	0.000055
H122	H	0.098086	0.186400	0.000030
F123	F	0.673735	-0.309416	-0.168774
H124	H	0.671777	-0.466972	0.155036
H125	H	0.671829	-0.466955	-0.155010
H126	H	0.601403	0.122851	0.850315
F127	F	0.752725	-0.005277	0.273059
H128	H	0.670725	-0.558418	-0.155008
H129	H	0.742964	0.003000	0.149728
F130	F	0.791757	-0.038319	0.434358
H131	H	0.670673	-0.558421	0.155032
F132	F	0.552574	0.164146	0.434390
F133	F	-0.147537	-0.031452	0.000041
F134	F	-0.024939	-0.030211	0.000054
F135	F	0.791763	-0.038327	0.565638
F136	F	0.667829	-0.796640	0.113712
F137	F	0.673657	-0.309418	0.168824
H138	H	0.601365	0.122877	0.265149
H139	H	0.742997	0.002967	0.734902
F140	F	0.675242	-0.181589	0.113753
H141	H	0.669037	-0.698871	-0.099941
F142	F	0.752757	-0.005295	0.858254
F143	F	0.591602	0.131139	0.141799
F144	F	0.398919	-0.025903	0.000037
F145	F	0.255466	-0.071502	0.000058
F146	F	0.521534	-0.024651	0.000032
F147	F	0.369284	0.156054	0.000003
F148	F	0.211461	0.198594	0.000017
F149	F	0.491880	0.157299	-0.000014
F150	F	-0.054564	0.151747	0.000006
H151	H	-0.167960	0.139553	0.000012
H152	H	0.668999	-0.698885	0.099947
F153	F	0.552582	0.164146	0.565675
H154	H	0.676455	-0.083813	-0.099897
H155	H	0.672488	-0.407173	0.155049
H156	H	0.676420	-0.083817	0.099981
H157	H	0.672550	-0.407167	-0.155006
F158	F	0.675266	-0.181565	-0.113683
F159	F	0.667856	-0.796641	-0.113714
F160	F	0.591628	0.131111	0.726983
