data_functionalizedCrystal
_audit_creation_method	'MofGen! by Chris Wilmer'
_symmetry_space_group_name_H-M	'P1'
_symmetry_Int_Tables_number	1
_symmetry_cell_setting	triclinic
loop_
_symmetry_equiv_pos_as_xyz
  x,y,z
_cell_length_a	21.395362
_cell_length_b	11.169416
_cell_length_c	21.395355
_cell_angle_alpha	89.989073
_cell_angle_beta	89.956060
_cell_angle_gamma	90.026221
loop_
_atom_site_label
_atom_site_type_symbol
_atom_site_fract_x
_atom_site_fract_y
_atom_site_fract_z
Zn1	Zn	0.957948	-0.477437	-0.354619
Zn2	Zn	0.957888	-0.678108	-0.249855
Zn3	Zn	0.853163	-0.477493	-0.249820
Zn4	Zn	0.853169	-0.678133	-0.354560
O5	O	0.905542	-0.577793	-0.302213
O6	O	1.045618	-0.504023	-0.340761
O7	O	0.943968	-0.651509	-0.162172
O8	O	0.867086	-0.309536	-0.263732
O9	O	1.045574	-0.651455	-0.263792
O10	O	0.944071	-0.309495	-0.340727
O11	O	0.867027	-0.504118	-0.162147
O12	O	0.765486	-0.504142	-0.263675
O13	O	0.867096	-0.651497	-0.442246
O14	O	0.765491	-0.651551	-0.340627
O15	O	0.944077	-0.504047	-0.442289
O16	O	0.943974	-0.846061	-0.263734
O17	O	0.867038	-0.846079	-0.340661
C18	C	0.742754	-0.577856	-0.302141
C19	C	0.673113	-0.577912	-0.302124
C20	C	0.905517	-0.889618	-0.302209
C21	C	0.905564	-1.023018	-0.302228
C22	C	0.640419	-0.654770	-0.342133
C23	C	0.574984	-0.654741	-0.342161
C24	C	0.542245	-0.577866	-0.302169
C25	C	0.574947	-0.500994	-0.262157
C26	C	0.640381	-0.501017	-0.262135
C27	C	0.438518	-0.568198	-0.245763
C28	C	0.373085	-0.568183	-0.245784
C29	C	0.340424	-0.577788	-0.302238
C30	C	0.373204	-0.587433	-0.358673
C31	C	0.438638	-0.587456	-0.358650
C32	C	0.471293	-0.577832	-0.302189
C33	C	0.236777	-0.654618	-0.342281
C34	C	0.171341	-0.654580	-0.342310
C35	C	0.171306	-0.500839	-0.262300
C36	C	0.236741	-0.500871	-0.262277
C37	C	0.269473	-0.577766	-0.302266
C38	C	1.068965	-0.577730	-0.302287
C39	C	1.138607	-0.577703	-0.302318
C40	C	0.905594	-0.577769	-0.465637
C41	C	0.905616	-0.577758	-0.535278
C42	C	0.905584	-0.264751	-0.302232
C43	C	0.905602	-0.131351	-0.302240
C44	C	0.945698	-0.500978	-0.568015
C45	C	0.945697	-0.500926	-0.633450
C46	C	0.905621	-0.577676	-0.666146
C47	C	0.865531	-0.654462	-0.633402
C48	C	0.865529	-0.654503	-0.567968
C49	C	0.900665	-0.685744	-0.769818
C50	C	0.900672	-0.685705	-0.835251
C51	C	0.905625	-0.577550	-0.867967
C52	C	0.910584	-0.469429	-0.835243
C53	C	0.910582	-0.469470	-0.769809
C54	C	0.905619	-0.577640	-0.737099
C55	C	0.945708	-0.500707	-0.971656
C56	C	0.945703	-0.500653	-1.037093
C57	C	0.865540	-0.654200	-1.037044
C58	C	0.865542	-0.654243	-0.971608
C59	C	0.905630	-0.577498	-0.938919
C60	C	0.905526	-0.577731	-0.139426
C61	C	0.905626	-0.577403	-0.069785
H62	H	0.548359	-0.717327	-0.374744
C63	C	0.821438	-0.738967	-0.531951
C64	C	0.848572	-0.833210	-0.486992
C65	C	0.804481	-0.917673	-0.450974
C66	C	0.733255	-0.907894	-0.459914
C67	C	0.706117	-0.813647	-0.504875
C68	C	0.750208	-0.729184	-0.540893
H69	H	0.901301	-0.840452	-0.480373
H70	H	0.824571	-0.987441	-0.417691
H71	H	0.700616	-0.970419	-0.433250
H72	H	0.653388	-0.806405	-0.511494
H73	H	0.730118	-0.659416	-0.574176
C74	C	0.895218	-0.804633	-0.871244
C75	C	0.895224	-0.804595	-0.943219
C76	C	0.889769	-0.923526	-0.979211
C77	C	0.884308	-1.042493	-0.943228
C78	C	0.884301	-1.042535	-0.871249
C79	C	0.889756	-0.923605	-0.835257
H80	H	0.899267	-0.716524	-0.969860
H81	H	0.889774	-0.923494	-1.032495
H82	H	0.880270	-1.130533	-0.969872
H83	H	0.880259	-1.130606	-0.844609
H84	H	0.889751	-0.923636	-0.781973
C85	C	0.337034	-0.557582	-0.183708
C86	C	0.346019	-0.446646	-0.141939
C87	C	0.309971	-0.436047	-0.079859
C88	C	0.264936	-0.536384	-0.059549
C89	C	0.255948	-0.647328	-0.101318
C90	C	0.291997	-0.657927	-0.163398
H91	H	0.379358	-0.372363	-0.156973
H92	H	0.316624	-0.353919	-0.048939
H93	H	0.238251	-0.528539	-0.013594
H94	H	0.222609	-0.721610	-0.086284
H95	H	0.285344	-0.740055	-0.194318
H96	H	0.896464	-0.773795	-0.743185
H97	H	0.978342	-0.438122	-1.063746
C98	C	0.989798	-0.416281	-0.935694
C99	C	1.038985	-0.468297	-0.890755
C100	C	1.083075	-0.383872	-0.854795
C101	C	1.077979	-0.247429	-0.863775
C102	C	1.028790	-0.195406	-0.908716
C103	C	0.984700	-0.279832	-0.944676
H104	H	1.042759	-0.569306	-0.884106
H105	H	1.119488	-0.422383	-0.821527
H106	H	1.110617	-0.184932	-0.837156
H107	H	1.025016	-0.094397	-0.915366
H108	H	0.948287	-0.241320	-0.977944
H109	H	0.914618	-0.381359	-0.861879
C110	C	0.474696	-0.598048	-0.420724
C111	C	0.438780	-0.608612	-0.482826
C112	C	0.474838	-0.619197	-0.544900
C113	C	0.546813	-0.619219	-0.544873
C114	C	0.582734	-0.608655	-0.482769
C115	C	0.546675	-0.598070	-0.420694
H116	H	0.385496	-0.608596	-0.482848
H117	H	0.448247	-0.627017	-0.590873
H118	H	0.573506	-0.627055	-0.590824
H119	H	0.636018	-0.608671	-0.482746
H120	H	0.573267	-0.590249	-0.374721
H121	H	0.832903	-0.716679	-1.063664
H122	H	0.144650	-0.438241	-0.229741
H123	H	0.548287	-0.438400	-0.229597
C124	C	0.989785	-0.416547	-0.532055
C125	C	1.038966	-0.468554	-0.487107
C126	C	1.083049	-0.384120	-0.451144
C127	C	1.077951	-0.247679	-0.460129
C128	C	1.028768	-0.195665	-0.505079
C129	C	0.984684	-0.280100	-0.541042
H130	H	1.042742	-0.569562	-0.480453
H131	H	1.119458	-0.422625	-0.417869
H132	H	1.110585	-0.185176	-0.433507
H133	H	1.024992	-0.094658	-0.511732
H134	H	0.948276	-0.241595	-0.574317
H135	H	0.832907	-0.716773	-0.944954
H136	H	0.263429	-0.717225	-0.374846
H137	H	0.832899	-0.716949	-0.660027
H138	H	0.346613	-0.595252	-0.404643
H139	H	0.263361	-0.438291	-0.229694
C140	C	0.135374	-0.739127	-0.386324
C141	C	0.171382	-0.823704	-0.430308
C142	C	0.135414	-0.908251	-0.474323
C143	C	0.063439	-0.908221	-0.474355
C144	C	0.027428	-0.823641	-0.430369
C145	C	0.063395	-0.739093	-0.386354
H146	H	0.224666	-0.823729	-0.430286
H147	H	0.162073	-0.970863	-0.506884
H148	H	0.036814	-0.970808	-0.506937
H149	H	-0.025856	-0.823615	-0.430391
H150	H	0.036737	-0.676481	-0.353793
C151	C	0.474442	-0.557623	-0.183659
C152	C	0.438390	-0.547027	-0.121585
C153	C	0.474313	-0.536446	-0.059484
C154	C	0.546288	-0.536462	-0.059457
C155	C	0.582344	-0.547059	-0.121534
C156	C	0.546421	-0.557640	-0.183634
H157	H	0.385106	-0.547014	-0.121603
H158	H	0.447622	-0.528601	-0.013531
H159	H	0.572880	-0.528630	-0.013486
H160	H	0.635628	-0.547071	-0.121516
H161	H	0.573113	-0.565484	-0.229587
C162	C	0.676350	-0.416477	-0.218119
C163	C	0.721261	-0.468367	-0.168869
C164	C	0.757231	-0.383829	-0.124851
C165	C	0.748292	-0.247401	-0.130084
C166	C	0.703379	-0.195504	-0.179337
C167	C	0.667408	-0.280042	-0.223354
H168	H	0.727880	-0.569366	-0.164993
H169	H	0.790479	-0.422248	-0.088391
H170	H	0.774919	-0.184821	-0.097500
H171	H	0.696760	-0.094505	-0.183212
H172	H	0.634161	-0.241623	-0.259814
C173	C	0.989795	-0.416473	-0.669471
C174	C	1.033890	-0.332061	-0.633514
C175	C	1.077990	-0.247613	-0.669532
C176	C	1.077994	-0.247575	-0.741507
C177	C	1.033897	-0.331990	-0.777468
C178	C	0.989798	-0.416439	-0.741450
H179	H	1.033888	-0.332086	-0.580230
H180	H	1.110633	-0.185123	-0.642912
H181	H	1.110639	-0.185061	-0.768170
H182	H	1.033899	-0.331966	-0.830752
H183	H	0.957155	-0.478929	-0.768071
H184	H	0.914618	-0.381435	-0.743167
H185	H	0.667065	-0.717383	-0.374697
