data_functionalizedCrystal
_audit_creation_method	'MofGen! by Chris Wilmer'
_symmetry_space_group_name_H-M	'P1'
_symmetry_Int_Tables_number	1
_symmetry_cell_setting	triclinic
loop_
_symmetry_equiv_pos_as_xyz
  x,y,z
_cell_length_a	10.723023
_cell_length_b	17.038274
_cell_length_c	9.798715
_cell_angle_alpha	90.011213
_cell_angle_beta	89.996770
_cell_angle_gamma	92.210333
loop_
_atom_site_label
_atom_site_type_symbol
_atom_site_fract_x
_atom_site_fract_y
_atom_site_fract_z
O1	O	1.667337	-0.109717	-0.113505
O2	O	1.305156	-0.120220	-0.113513
O3	O	1.484094	-0.001141	-0.113471
O4	O	1.488400	-0.228796	-0.113547
O5	O	1.484080	-0.001141	0.113511
O6	O	1.305142	-0.120220	0.113469
O7	O	1.667323	-0.109717	0.113478
Zn8	Zn	1.486230	-0.114968	0.149512
Zn9	Zn	1.486249	-0.114969	-0.149547
O10	O	1.488385	-0.228796	0.113436
C11	C	1.258579	-0.119456	-0.000022
C12	C	1.119813	-0.117169	-0.000024
C13	C	1.057939	-0.116150	0.117559
C14	C	0.914518	-0.113787	0.117560
C15	C	1.480171	0.028009	0.000027
C16	C	1.468489	0.114866	0.000047
C17	C	1.575744	0.164388	0.000061
C18	C	1.564760	0.245999	0.000068
C19	C	1.446519	0.278087	0.000069
C20	C	1.339256	0.228559	0.000050
C21	C	1.350241	0.146949	0.000034
C22	C	1.407710	0.524059	0.000108
C23	C	1.396732	0.605675	0.000128
C24	C	1.622237	0.623109	0.000143
C25	C	1.633213	0.541497	0.000135
C26	C	1.525949	0.491977	0.000109
C27	C	1.435288	0.361507	0.000079
C28	C	1.537181	0.408559	0.000089
C29	C	1.713900	-0.110481	-0.000016
C30	C	1.852666	-0.112768	-0.000024
N31	N	1.486227	-0.114968	0.353611
C32	C	1.492307	0.742054	-0.000006
C33	C	1.503987	0.655197	0.000142
N34	N	1.486262	-0.114963	-0.353647
C35	C	1.561337	-0.064749	0.421406
C36	C	1.561357	-0.064747	0.578569
H37	H	0.861307	-0.112914	0.218227
H38	H	1.625667	-0.021756	0.636869
H39	H	1.339016	0.387642	0.000083
O40	O	0.923134	-0.113931	-0.133380
H41	H	0.856001	-0.112831	-0.219511
H42	H	1.625624	-0.021754	0.363098
O43	O	1.401082	-0.171935	0.430827
H44	H	1.302606	-0.161609	0.403518
O45	O	1.401060	-0.171907	0.569137
H46	H	1.457860	-0.210089	0.503996
O47	O	1.760753	0.506901	0.000122
H48	H	1.771157	0.470147	0.092635
O49	O	1.234558	0.093534	0.000020
H50	H	1.234168	0.055934	0.092520
O51	O	1.049360	-0.115992	-0.133383
H52	H	1.068853	-0.169622	-0.192786
H53	H	1.652099	0.286316	0.000083
O54	O	1.128399	-0.117316	0.250915
H55	H	1.229990	-0.118997	0.229987
O56	O	1.703276	0.129779	0.000047
H57	H	1.776010	0.177928	0.000041
H58	H	1.709565	0.663437	0.000162
O59	O	1.269196	0.640290	0.000113
H60	H	1.196453	0.592145	0.000077
H61	H	1.633452	0.382429	0.000058
O62	O	1.292025	0.470652	0.000114
H63	H	1.207963	0.506678	0.000142
O64	O	1.211720	0.263162	0.000065
H65	H	1.222097	0.328230	0.000099
