data_functionalizedCrystal
_audit_creation_method	'MofGen! by Chris Wilmer'
_symmetry_space_group_name_H-M	'P1'
_symmetry_Int_Tables_number	1
_symmetry_cell_setting	triclinic
loop_
_symmetry_equiv_pos_as_xyz
  x,y,z
_cell_length_a	10.967819
_cell_length_b	11.026607
_cell_length_c	16.053802
_cell_angle_alpha	93.134017
_cell_angle_beta	75.280432
_cell_angle_gamma	96.381100
loop_
_atom_site_label
_atom_site_type_symbol
_atom_site_fract_x
_atom_site_fract_y
_atom_site_fract_z
O1	O	1.712798	0.147466	-0.315863
O2	O	1.350060	0.167596	-0.263674
O3	O	1.501365	-0.019054	-0.285440
O4	O	1.561492	0.334117	-0.294097
O5	O	1.493027	-0.008823	-0.145382
O6	O	1.341722	0.177828	-0.123615
O7	O	1.704460	0.157698	-0.175805
Zn8	Zn	1.521767	0.169387	-0.127473
Zn9	Zn	1.532753	0.155907	-0.312006
O10	O	1.553154	0.344348	-0.154038
C11	C	1.298730	0.172019	-0.186859
C12	C	1.158205	0.169940	-0.166641
C13	C	0.954642	0.161576	-0.209302
C14	C	1.099882	0.163716	-0.230193
C15	C	1.486104	-0.059124	-0.213816
C16	C	1.453037	-0.193765	-0.209061
C17	C	1.544340	-0.267775	-0.222199
C18	C	1.510167	-0.406933	-0.217285
C19	C	1.755789	0.153275	-0.252621
C20	C	1.896315	0.155353	-0.272844
C21	C	1.568416	0.384418	-0.225664
C22	C	1.601483	0.519058	-0.230424
N23	N	1.514279	0.178586	-0.001535
N24	N	1.540249	0.146698	-0.437944
C25	C	1.578696	0.099195	0.032892
C26	C	1.573472	0.105641	0.121050
C27	C	1.503838	0.191486	0.174779
C28	C	1.439413	0.270881	0.140347
C29	C	1.444630	0.264428	0.052191
C30	C	1.481041	0.219640	0.439468
C31	C	1.475831	0.226090	0.527628
C32	C	1.609890	0.060847	0.508326
C33	C	1.615107	0.054406	0.420169
C34	C	1.550676	0.133797	0.385745
N35	N	1.498500	0.198080	0.264890
N36	N	1.556008	0.127197	0.295636
H37	H	0.953905	0.151617	-0.342712
N38	N	1.176156	0.158751	-0.322746
H39	H	1.148384	0.080809	-0.351860
H40	H	1.162058	0.231188	-0.353768
H41	H	1.392173	0.329076	0.024162
N42	N	1.373098	-0.459434	-0.197567
H43	H	1.358389	-0.515069	-0.246926
H44	H	1.352294	-0.507429	-0.143065
H45	H	1.647807	-0.228115	-0.237080
H46	H	1.704961	-0.441295	-0.245375
N47	N	0.878282	0.165478	-0.116741
H48	H	0.785307	0.162891	-0.114933
H49	H	0.892910	0.092707	-0.086287
H50	H	1.349571	-0.233424	-0.194181
N51	N	1.653811	0.006611	-0.025057
H52	H	1.693824	-0.042706	0.010134
H53	H	1.595524	-0.049607	-0.052923
H54	H	1.625925	0.040993	0.149080
H55	H	1.428581	0.284286	0.411447
H56	H	1.100622	0.173692	-0.096769
N57	N	1.690214	-0.038182	0.362220
H58	H	1.730230	-0.087501	0.397407
H59	H	1.631925	-0.094398	0.334354
N60	N	1.679378	-0.024778	0.545454
H61	H	1.665510	-0.007669	0.609453
H62	H	1.646184	-0.111926	0.534962
H63	H	1.419124	0.296000	0.571372
N64	N	1.364295	0.363465	0.198293
H65	H	1.370766	0.355510	0.259364
H66	H	1.399308	0.448357	0.177966
