data_functionalizedCrystal
_audit_creation_method	'MofGen! by Chris Wilmer'
_symmetry_space_group_name_H-M	'P1'
_symmetry_Int_Tables_number	1
_symmetry_cell_setting	triclinic
loop_
_symmetry_equiv_pos_as_xyz
  x,y,z
_cell_length_a	6.817900
_cell_length_b	14.712618
_cell_length_c	17.982959
_cell_angle_alpha	84.046985
_cell_angle_beta	102.451857
_cell_angle_gamma	77.863674
loop_
_atom_site_label
_atom_site_type_symbol
_atom_site_fract_x
_atom_site_fract_y
_atom_site_fract_z
V1	V	-4.006254	0.290351	-0.105904
V2	V	-3.506254	0.790351	0.394096
O3	O	-3.999427	0.284424	0.004585
O4	O	-3.499427	0.784424	0.504585
O5	O	-3.952844	0.288750	-0.209504
O6	O	-3.452844	0.788750	0.290496
O7	O	-3.951221	0.416808	-0.104496
O8	O	-3.451221	0.916808	0.395504
O9	O	-4.001060	0.155480	-0.101150
O10	O	-3.501060	0.655480	0.398850
V11	V	-4.491391	0.274173	-0.092662
V12	V	-3.991391	0.774173	0.407338
O13	O	-4.263973	0.325840	-0.134951
O14	O	-3.763973	0.825840	0.365049
O15	O	-4.683869	0.238684	-0.063615
O16	O	-4.183869	0.738684	0.436385
O17	O	-4.321595	0.275774	0.010938
O18	O	-3.821595	0.775774	0.510938
O19	O	-4.615615	0.280099	-0.203150
O20	O	-4.115615	0.780099	0.296850
O21	O	-4.613981	0.409044	-0.097415
O22	O	-4.113981	0.909044	0.402585
O23	O	-4.323217	0.147716	-0.094069
O24	O	-3.823217	0.647716	0.405931
C25	C	-3.796840	0.284268	-0.234752
C26	C	-3.296840	0.784268	0.265248
C27	C	-3.834413	0.283802	-0.319448
C28	C	-3.334413	0.783802	0.180552
C29	C	-4.033738	0.288236	-0.363127
C30	C	-3.533738	0.788236	0.136873
C31	C	-4.069033	0.287803	-0.442708
C32	C	-3.569033	0.787803	0.057292
C33	C	-3.904997	0.282930	-0.478608
C34	C	-3.404997	0.782930	0.021392
C35	C	-3.705657	0.278498	-0.434924
C36	C	-3.205657	0.778498	0.065076
C37	C	-3.670368	0.278938	-0.355345
C38	C	-3.170368	0.778938	0.144655
C39	C	-3.847970	0.276727	-0.755857
C40	C	-3.347970	0.776727	-0.255857
C41	C	-3.883274	0.276285	-0.835441
C42	C	-3.383274	0.776285	-0.335441
C43	C	-4.246635	0.285592	-0.843219
C44	C	-3.746635	0.785592	-0.343219
C45	C	-4.211346	0.286032	-0.763641
C46	C	-3.711346	0.786032	-0.263641
C47	C	-4.012012	0.281605	-0.719964
C48	C	-3.512012	0.781605	-0.219964
C49	C	-3.973745	0.282076	-0.633673
C50	C	-3.473745	0.782076	-0.133673
C51	C	-3.943259	0.282452	-0.564896
C52	C	-3.443259	0.782452	-0.064896
C53	C	-4.143010	0.116901	-0.097764
C54	C	-3.643010	0.616901	0.402236
C55	C	-4.085994	0.013518	-0.098226
C56	C	-3.585994	0.513518	0.401774
C57	C	-3.877322	-0.365044	-0.099952
C58	C	-3.377322	0.134956	0.400048
C59	C	-3.935389	-0.259717	-0.099472
C60	C	-3.435389	0.240283	0.400528
C61	C	-3.981657	-0.175766	-0.099090
C62	C	-3.481657	0.324234	0.400910
C63	C	-4.039726	-0.070432	-0.098608
C64	C	-3.539726	0.429568	0.401392
C65	C	-3.794770	0.447618	-0.100803
C66	C	-3.294770	0.947618	0.399197
C67	C	-3.831025	0.551000	-0.100338
C68	C	-3.331025	1.051000	0.399662
C69	C	-4.140940	0.280253	0.036183
C70	C	-3.640940	0.780253	0.536183
C71	C	-4.082605	0.280725	0.120878
C72	C	-3.582605	0.780725	0.620878
H73	H	-3.572101	0.274536	-0.464161
H74	H	-3.072101	0.774536	0.035839
H75	H	-3.749687	0.272322	-0.864669
H76	H	-3.249687	0.772322	-0.364669
H77	H	-4.231340	0.291415	-0.478268
H78	H	-3.731340	0.791415	0.021732
O79	O	-3.455373	0.274155	-0.308236
O80	O	-2.955373	0.774155	0.191764
H81	H	-3.456929	0.337851	-0.280047
H82	H	-2.956929	0.837851	0.219953
H83	H	-4.167316	0.292195	-0.333902
H84	H	-3.667316	0.792195	0.166098
O85	O	-3.632980	0.271950	-0.708757
O86	O	-3.132980	0.771950	-0.208757
H87	H	-3.581884	0.208223	-0.664066
H88	H	-3.081884	0.708223	-0.164066
H89	H	-4.344922	0.289995	-0.734414
H90	H	-3.844922	0.789995	-0.234414
H91	H	-4.408946	0.289198	-0.878791
H92	H	-3.908946	0.789198	-0.378791
