data_functionalizedCrystal
_audit_creation_method	'MofGen! by Chris Wilmer'
_symmetry_space_group_name_H-M	'P1'
_symmetry_Int_Tables_number	1
_symmetry_cell_setting	triclinic
loop_
_symmetry_equiv_pos_as_xyz
  x,y,z
_cell_length_a	38.077507
_cell_length_b	38.072239
_cell_length_c	38.067077
_cell_angle_alpha	119.999926
_cell_angle_beta	90.000350
_cell_angle_gamma	59.986515
loop_
_atom_site_label
_atom_site_type_symbol
_atom_site_fract_x
_atom_site_fract_y
_atom_site_fract_z
O1	O	-0.240826	-0.309873	-0.010459
O2	O	-0.189777	-0.237936	0.010394
O3	O	-0.189755	-0.309871	-0.061544
O4	O	-0.240848	-0.237938	0.061479
O5	O	-0.248184	-0.251441	-0.061538
O6	O	-0.248206	-0.179505	0.010400
O7	O	-0.299255	-0.251443	-0.010453
Zn8	Zn	-0.283007	-0.206197	-0.000026
Zn9	Zn	-0.206025	-0.283182	-0.000034
O10	O	-0.299277	-0.179507	0.061485
C11	C	-0.088914	0.005991	0.031595
C12	C	-0.110142	-0.015046	0.031895
C13	C	-0.025303	-0.057619	0.031599
C14	C	-0.046627	-0.078560	0.031899
C15	C	-0.088899	-0.057618	0.031601
C16	C	-0.046643	-0.015047	0.031893
C17	C	-0.127782	0.147867	0.020067
C18	C	-0.147809	0.188050	0.016808
C19	C	-0.189697	0.208208	0.015172
C20	C	-0.211411	0.251771	0.011630
C21	C	-0.211559	0.188182	0.016800
C22	C	-0.191534	0.148006	0.020065
C23	C	-0.149644	0.127849	0.021698
C24	C	-0.191899	-0.107978	0.020089
C25	C	-0.212051	-0.131255	0.016835
C26	C	-0.190311	-0.174783	0.015201
C27	C	-0.212154	-0.200029	0.011667
C28	C	-0.148417	-0.195029	0.016828
C29	C	-0.128269	-0.171748	0.020089
C30	C	-0.150014	-0.128220	0.021717
C31	C	0.128072	-0.107983	0.020081
C32	C	0.171510	-0.131266	0.016820
C33	C	0.193308	-0.174793	0.015188
C34	C	0.240407	-0.200041	0.011650
C35	C	0.171667	-0.195038	0.016814
C36	C	0.128231	-0.171756	0.020074
C37	C	0.106435	-0.128225	0.021711
C38	C	-0.127932	0.084281	0.025235
C39	C	-0.110626	0.049555	0.028055
C40	C	0.021795	-0.082863	0.028063
C41	C	0.059336	-0.102984	0.025245
C42	C	-0.110746	-0.082861	0.028066
C43	C	-0.128162	-0.102981	0.025250
C44	C	-0.424458	-0.386412	-0.025332
C45	C	-0.403135	-0.365468	-0.025626
C46	C	-0.360842	-0.450029	-0.025338
C47	C	-0.339616	-0.428989	-0.025633
C48	C	-0.360863	-0.386411	-0.025331
C49	C	-0.403115	-0.428990	-0.025633
C50	C	-0.493193	-0.381416	-0.020170
C51	C	-0.536632	-0.358132	-0.016909
C52	C	-0.558428	-0.314604	-0.015270
C53	C	-0.605528	-0.289355	-0.011733
C54	C	-0.536789	-0.294355	-0.016895
C55	C	-0.493352	-0.317638	-0.020157
C56	C	-0.471556	-0.361167	-0.021792
C57	C	-0.361050	-0.317488	-0.020161
C58	C	-0.341039	-0.294066	-0.016900
C59	C	-0.299153	-0.314169	-0.015268
C60	C	-0.277454	-0.288774	-0.011730
C61	C	-0.277271	-0.357698	-0.016900
C62	C	-0.297280	-0.381120	-0.020162
C63	C	-0.339170	-0.361013	-0.021791
C64	C	-0.360987	-0.513625	-0.020183
C65	C	-0.340958	-0.553810	-0.016924
C66	C	-0.299072	-0.573965	-0.015291
C67	C	-0.277352	-0.617538	-0.011761
C68	C	-0.277212	-0.553939	-0.016914
C69	C	-0.297240	-0.513754	-0.020172
C70	C	-0.339128	-0.493599	-0.021806
C71	C	-0.088792	-0.432048	-0.406442
C72	C	-0.046514	-0.474625	-0.427685
C73	C	-0.088792	-0.432048	-0.342829
C74	C	-0.046514	-0.474625	-0.364169
C75	C	-0.025177	-0.495664	-0.406448
C76	C	-0.110032	-0.411105	-0.364163
C77	C	-0.191840	-0.317484	-0.445277
C78	C	-0.212005	-0.294063	-0.465297
C79	C	-0.190268	-0.314166	-0.507193
C80	C	-0.212128	-0.288768	-0.528900
C81	C	-0.148366	-0.357694	-0.529069
C82	C	-0.128207	-0.381115	-0.509051
C83	C	-0.149945	-0.361008	-0.467153
C84	C	0.128226	-0.637557	-0.509501
C85	C	0.171668	-0.677745	-0.529668
C86	C	0.193463	-0.697904	-0.507934
C87	C	0.240567	-0.741472	-0.529794
C88	C	0.171810	-0.677875	-0.466032
C89	C	0.128367	-0.637694	-0.445869
C90	C	0.106578	-0.617535	-0.467608
C91	C	-0.191840	-0.317484	-0.189417
C92	C	-0.212003	-0.294059	-0.145971
C93	C	-0.190266	-0.314162	-0.124180
C94	C	-0.212126	-0.288765	-0.077073
C95	C	-0.148366	-0.357687	-0.145835
C96	C	-0.128205	-0.381108	-0.189279
C97	C	-0.149947	-0.361004	-0.211068
C98	C	-0.128080	-0.386406	-0.445448
C99	C	-0.110654	-0.406650	-0.428147
C100	C	-0.110654	-0.406650	-0.295724
C101	C	-0.128081	-0.386406	-0.258176
C102	C	0.021926	-0.539233	-0.428311
C103	C	0.059473	-0.573963	-0.445739
O104	O	0.378932	-0.251451	-0.010462
O105	O	0.255929	-0.179517	0.010383
O106	O	0.327865	-0.251461	-0.061552
O107	O	0.306997	-0.179507	0.061473
O108	O	0.327878	-0.309885	-0.061547
O109	O	0.255943	-0.237940	0.010388
O110	O	0.378946	-0.309875	-0.010457
Zn111	Zn	0.317447	-0.283183	-0.000034
Zn112	Zn	0.317428	-0.206208	-0.000040
O113	O	0.307011	-0.237930	0.061478
O114	O	-0.299134	0.368195	-0.010495
O115	O	-0.248038	0.266033	0.010359
O116	O	-0.248032	0.266017	-0.061580
O117	O	-0.299140	0.368211	0.061444
O118	O	-0.189621	0.266016	-0.061581
O119	O	-0.189627	0.266032	0.010358
O120	O	-0.240723	0.368194	-0.010497
Zn121	Zn	-0.205901	0.317113	-0.000070
Zn122	Zn	-0.282860	0.317114	-0.000068
O123	O	-0.240729	0.368210	0.061442
O124	O	0.379113	-0.857911	-0.558515
O125	O	0.256098	-0.755735	-0.507423
O126	O	0.328009	-0.755733	-0.507420
O127	O	0.307202	-0.857913	-0.558517
O128	O	0.328011	-0.755734	-0.565848
O129	O	0.256100	-0.755736	-0.565850
O130	O	0.379114	-0.857912	-0.616942
Zn131	Zn	0.317607	-0.806824	-0.600673
Zn132	Zn	0.317605	-0.806823	-0.523692
O133	O	0.307204	-0.857914	-0.616944
O134	O	-0.240852	-0.237933	-0.616613
O135	O	-0.189756	-0.309871	-0.565536
O136	O	-0.189779	-0.237933	-0.565528
O137	O	-0.240828	-0.309871	-0.616622
O138	O	-0.248207	-0.179504	-0.507095
O139	O	-0.248183	-0.251442	-0.507104
O140	O	-0.299280	-0.179504	-0.558181
Zn141	Zn	-0.283008	-0.206196	-0.523365
Zn142	Zn	-0.206027	-0.283179	-0.600352
O143	O	-0.299256	-0.251442	-0.558189
C144	C	-0.424568	-0.039355	0.321735
C145	C	-0.403232	-0.060394	0.342972
C146	C	-0.360953	-0.102971	0.258116
C147	C	-0.339713	-0.123914	0.279451
C148	C	-0.360953	-0.102971	0.321730
C149	C	-0.403232	-0.060395	0.279455
C150	C	-0.493321	0.024239	0.321574
C151	C	-0.536765	0.064427	0.341601
C152	C	-0.558555	0.084582	0.383494
C153	C	-0.605660	0.128155	0.405210
C154	C	-0.536903	0.064557	0.405367
C155	C	-0.493461	0.024373	0.385341
C156	C	-0.471672	0.004214	0.343445
C157	C	-0.361118	-0.107967	0.385485
C158	C	-0.341092	-0.131250	0.405645
C159	C	-0.299199	-0.174778	0.383905
C160	C	-0.277485	-0.200027	0.405761
C161	C	-0.277325	-0.195027	0.342005
C162	C	-0.297348	-0.171744	0.321847
C163	C	-0.339245	-0.128216	0.343587
C164	C	-0.361116	-0.107969	0.189363
C165	C	-0.341091	-0.131257	0.145915
C166	C	-0.299199	-0.174785	0.124123
C167	C	-0.277484	-0.200034	0.077015
C168	C	-0.277326	-0.195033	0.145771
C169	C	-0.297349	-0.171749	0.189217
C170	C	-0.339243	-0.128217	0.211011
C171	C	0.292126	-0.102942	0.321725
C172	C	0.291819	-0.060367	0.342962
C173	C	0.292124	-0.102951	0.258108
C174	C	0.291818	-0.060376	0.279442
C175	C	0.292111	-0.039333	0.321720
C176	C	0.291833	-0.123889	0.279447
C177	C	0.297303	-0.171857	0.321565
C178	C	0.300566	-0.195272	0.341592
C179	C	0.302197	-0.175166	0.383484
C180	C	0.305737	-0.200554	0.405200
C181	C	0.300560	-0.131639	0.405357
C182	C	0.297295	-0.108223	0.385332
C183	C	0.295668	-0.128334	0.343436
C184	C	0.297258	0.024263	0.385475
C185	C	0.300506	0.064449	0.405634
C186	C	0.302135	0.084598	0.383894
C187	C	0.305660	0.128169	0.405749
C188	C	0.300512	0.064569	0.341994
C189	C	0.297262	0.024387	0.321837
C190	C	0.295637	0.004234	0.343577
C191	C	0.297300	-0.171876	0.189355
C192	C	0.300567	-0.195305	0.145908
C193	C	0.302196	-0.175207	0.124116
C194	C	0.305735	-0.200605	0.077009
C195	C	0.300562	-0.131684	0.145763
C196	C	0.297296	-0.108256	0.189209
C197	C	0.295665	-0.128353	0.211003
C198	C	-0.360880	0.613633	0.321692
C199	C	-0.403153	0.634578	0.342932
C200	C	-0.360857	0.550008	0.258077
C201	C	-0.403130	0.571050	0.279413
C202	C	-0.424475	0.613632	0.321692
C203	C	-0.339632	0.571051	0.279413
C204	C	-0.297143	0.618630	0.321527
C205	C	-0.276995	0.641916	0.341552
C206	C	-0.298742	0.685449	0.383444
C207	C	-0.276899	0.710700	0.405158
C208	C	-0.340636	0.705699	0.405319
C209	C	-0.360782	0.682413	0.385297
C210	C	-0.339036	0.638880	0.343400
C211	C	-0.493233	0.682560	0.385451
C212	C	-0.536673	0.705983	0.405613
C213	C	-0.558448	0.685877	0.383875
C214	C	-0.605549	0.711272	0.405733
C215	C	-0.536787	0.642344	0.341975
C216	C	-0.493349	0.618921	0.321815
C217	C	-0.471574	0.639031	0.343552
C218	C	-0.297096	0.486406	0.189321
C219	C	-0.276927	0.446216	0.145873
C220	C	-0.298650	0.426058	0.124083
C221	C	-0.276783	0.382479	0.076976
C222	C	-0.340543	0.446085	0.145734
C223	C	-0.360713	0.486275	0.189180
C224	C	-0.338988	0.506433	0.210972
C225	C	0.349127	-0.495434	-0.406447
C226	C	0.349418	-0.474399	-0.427689
C227	C	0.349113	-0.431815	-0.342835
C228	C	0.349404	-0.410877	-0.364174
C229	C	0.349111	-0.431824	-0.406452
C230	C	0.349420	-0.474390	-0.364168
C231	C	0.337646	-0.637316	-0.445281
C232	C	0.334400	-0.677502	-0.465301
C233	C	0.332769	-0.697665	-0.507197
C234	C	0.329242	-0.741231	-0.528904
C235	C	0.334389	-0.677641	-0.529073
C236	C	0.337641	-0.637462	-0.509055
C237	C	0.339269	-0.617300	-0.467157
C238	C	0.337582	-0.381479	-0.509503
C239	C	0.334321	-0.358205	-0.529669
C240	C	0.332674	-0.314674	-0.507936
C241	C	0.329132	-0.289431	-0.529795
C242	C	0.334296	-0.294423	-0.466035
C243	C	0.337565	-0.317701	-0.445872
C244	C	0.339205	-0.361231	-0.467611
C245	C	0.337590	-0.381433	-0.189424
C246	C	0.334325	-0.358146	-0.145979
C247	C	0.332681	-0.314616	-0.124188
C248	C	0.329138	-0.289363	-0.077081
C249	C	0.334298	-0.294373	-0.145843
C250	C	0.337562	-0.317661	-0.189286
C251	C	0.339212	-0.361194	-0.211075
C252	C	0.342791	-0.573729	-0.445453
C253	C	0.345601	-0.539000	-0.428152
C254	C	0.345572	-0.406566	-0.295730
C255	C	0.342751	-0.386440	-0.258182
C256	C	0.345569	-0.406584	-0.428315
C257	C	0.342746	-0.386467	-0.445743
O258	O	0.327864	-0.251371	0.492928
O259	O	0.307005	-0.179452	0.441833
O260	O	0.378937	-0.251384	0.441830
O261	O	0.255932	-0.179438	0.492931
O262	O	0.378949	-0.309817	0.383404
O263	O	0.307018	-0.237884	0.383407
O264	O	0.327876	-0.309803	0.434502
Zn265	Zn	0.317449	-0.283121	0.399678
Zn266	Zn	0.317432	-0.206134	0.476656
O267	O	0.255944	-0.237870	0.434505
C268	C	-0.025261	-0.057715	-0.406483
C269	C	-0.046583	-0.078660	-0.427723
C270	C	-0.088878	0.005909	-0.342868
C271	C	-0.110104	-0.015133	-0.364204
C272	C	-0.088856	-0.057715	-0.406483
C273	C	-0.046605	-0.015133	-0.364204
C274	C	0.128116	-0.108082	-0.445330
C275	C	0.171554	-0.131364	-0.465353
C276	C	0.193355	-0.174900	-0.507250
C277	C	0.240456	-0.200151	-0.528959
C278	C	0.171715	-0.195151	-0.529123
C279	C	0.128279	-0.171866	-0.509101
C280	C	0.106479	-0.128329	-0.467203
C281	C	-0.127651	-0.172290	-0.509526
C282	C	-0.147660	-0.195713	-0.529690
C283	C	-0.189549	-0.175611	-0.507954
C284	C	-0.211245	-0.201007	-0.529810
C285	C	-0.211430	-0.132078	-0.466052
C286	C	-0.191425	-0.108651	-0.445892
C287	C	-0.149531	-0.128765	-0.467634
C288	C	-0.127763	0.147822	-0.189459
C289	C	-0.147792	0.188012	-0.146013
C290	C	-0.189682	0.208173	-0.124219
C291	C	-0.211401	0.251748	-0.077112
C292	C	-0.211540	0.188142	-0.145871
C293	C	-0.191509	0.147952	-0.189315
C294	C	-0.149620	0.127798	-0.211107
C295	C	0.059381	-0.103086	-0.445495
C296	C	0.021838	-0.082962	-0.428191
C297	C	-0.110595	0.049484	-0.295762
C298	C	-0.127905	0.084219	-0.258214
C299	C	-0.110549	-0.083115	-0.428343
C300	C	-0.127840	-0.103361	-0.445768
H301	H	0.189417	-0.230482	0.015486
C302	C	-0.292694	-0.452774	-0.026284
C303	C	-0.257297	-0.506728	-0.063767
C304	C	-0.210376	-0.530511	-0.064420
C305	C	-0.198853	-0.500340	-0.027590
C306	C	-0.234251	-0.446383	0.009896
C307	C	-0.281172	-0.422600	0.010549
H308	H	-0.265826	-0.529065	-0.091034
H309	H	-0.184173	-0.570454	-0.092170
H310	H	-0.164120	-0.517946	-0.028073
H311	H	-0.225722	-0.424046	0.037163
H312	H	-0.307376	-0.382657	0.038298
C313	C	-0.258092	-0.246183	-0.441232
C314	C	-0.294317	-0.244767	-0.459846
C315	C	-0.340403	-0.196886	-0.435780
C316	C	-0.350265	-0.150421	-0.393101
C317	C	-0.314039	-0.151835	-0.374486
C318	C	-0.267952	-0.199716	-0.398551
H319	H	-0.287018	-0.279165	-0.491441
H320	H	-0.367220	-0.195839	-0.449561
H321	H	-0.384381	-0.114976	-0.375287
H322	H	-0.321338	-0.117437	-0.342890
H323	H	-0.241135	-0.200763	-0.384771
H324	H	0.291373	-0.158155	0.262317
C325	C	0.295475	0.002353	0.275751
C326	C	0.258866	0.035175	0.265898
C327	C	0.257078	0.013140	0.219812
C328	C	0.291900	-0.041716	0.183578
C329	C	0.328512	-0.074540	0.193430
C330	C	0.330300	-0.052505	0.239516
H331	H	0.233086	0.075785	0.292721
H332	H	0.229975	0.037439	0.212519
H333	H	0.290576	-0.058027	0.149462
H334	H	0.354292	-0.115150	0.166606
H335	H	0.357402	-0.076805	0.246809
C336	C	0.332489	-0.246542	-0.442125
C337	C	0.295872	-0.199991	-0.399478
C338	C	0.294063	-0.152109	-0.375568
C339	C	0.328871	-0.150777	-0.394305
C340	C	0.365491	-0.197330	-0.436954
C341	C	0.367300	-0.245213	-0.460865
H342	H	0.270102	-0.200975	-0.385606
H343	H	0.266954	-0.117647	-0.343996
H344	H	0.327532	-0.115332	-0.376605
H345	H	0.391261	-0.196346	-0.450827
H346	H	0.394409	-0.279674	-0.492437
C347	C	-0.560434	-0.380402	-0.015119
C348	C	-0.580448	-0.396612	-0.049943
C349	C	-0.604252	-0.418881	-0.048154
C350	C	-0.608043	-0.424940	-0.011542
C351	C	-0.588028	-0.408730	0.023285
C352	C	-0.564224	-0.386460	0.021497
H353	H	-0.577643	-0.392127	-0.077049
H354	H	-0.619068	-0.430881	-0.073936
H355	H	-0.625664	-0.441426	-0.010218
H356	H	-0.590833	-0.413215	0.050391
H357	H	-0.549407	-0.374460	0.047278
H358	H	-0.144876	0.002568	0.032379
H359	H	-0.094091	-0.416556	-0.526866
C360	C	-0.215754	-0.295368	-0.213384
C361	C	-0.193579	-0.321131	-0.261171
C362	C	-0.217489	-0.299017	-0.285140
C363	C	-0.263574	-0.251139	-0.261321
C364	C	-0.285752	-0.225373	-0.213531
C365	C	-0.261841	-0.247488	-0.189563
H366	H	-0.159461	-0.356576	-0.278805
H367	H	-0.201071	-0.318091	-0.320517
H368	H	-0.281274	-0.234769	-0.279064
H369	H	-0.319869	-0.189929	-0.195897
H370	H	-0.278259	-0.228414	-0.154186
C371	C	0.104260	-0.615389	-0.533415
C372	C	0.119986	-0.593620	-0.548815
C373	C	0.096019	-0.571451	-0.572728
C374	C	0.056327	-0.571049	-0.581241
C375	C	0.040599	-0.592819	-0.565842
C376	C	0.064565	-0.614988	-0.541929
H377	H	0.149370	-0.593917	-0.542513
H378	H	0.107663	-0.555336	-0.584128
H379	H	0.038586	-0.554638	-0.598943
H380	H	0.011215	-0.592522	-0.572144
H381	H	0.052922	-0.631103	-0.530529
H382	H	-0.093542	-0.188668	-0.527232
C383	C	-0.124457	-0.379805	-0.575152
C384	C	-0.143178	-0.395892	-0.611309
C385	C	-0.119266	-0.418004	-0.657393
C386	C	-0.076634	-0.424030	-0.667321
C387	C	-0.057911	-0.407943	-0.631164
C388	C	-0.081823	-0.385830	-0.585080
H389	H	-0.174739	-0.391432	-0.603960
H390	H	-0.133126	-0.429913	-0.684159
H391	H	-0.058933	-0.440399	-0.701435
H392	H	-0.026350	-0.412403	-0.638512
H393	H	-0.067963	-0.373921	-0.558314
H394	H	-0.029525	0.002564	0.032373
H395	H	-0.395228	-0.072523	0.207106
H396	H	0.338885	-0.301210	-0.411757
H397	H	0.338877	-0.301174	-0.206914
C398	C	-0.258092	-0.246184	-0.122152
C399	C	-0.294311	-0.244777	-0.102124
C400	C	-0.340402	-0.196903	-0.078306
C401	C	-0.350273	-0.150435	-0.074516
C402	C	-0.314053	-0.151840	-0.094545
C403	C	-0.267963	-0.199715	-0.118362
H404	H	-0.287005	-0.279176	-0.104929
H405	H	-0.367214	-0.195863	-0.063480
H406	H	-0.384392	-0.114996	-0.056885
H407	H	-0.321360	-0.117441	-0.091740
H408	H	-0.241151	-0.200755	-0.133189
H409	H	-0.129840	-0.231159	-0.563804
C410	C	0.332595	-0.699818	-0.575156
C411	C	0.370096	-0.721600	-0.612333
C412	C	0.368302	-0.743776	-0.658417
C413	C	0.329007	-0.744170	-0.667324
C414	C	0.291503	-0.722388	-0.630146
C415	C	0.293297	-0.700212	-0.584062
H416	H	0.399188	-0.721308	-0.605741
H417	H	0.396065	-0.759900	-0.685939
H418	H	0.327679	-0.760586	-0.701438
H419	H	0.262412	-0.722679	-0.636738
H420	H	0.265534	-0.684087	-0.556540
C421	C	-0.560875	0.086729	0.451452
C422	C	-0.545155	0.108505	0.488626
C423	C	-0.569124	0.130674	0.534710
C424	C	-0.608812	0.131067	0.543620
C425	C	-0.624534	0.109290	0.506445
C426	C	-0.600565	0.087121	0.460361
H427	H	-0.515774	0.108215	0.482031
H428	H	-0.557485	0.146795	0.562229
H429	H	-0.626555	0.147478	0.577735
H430	H	-0.653915	0.109581	0.513040
H431	H	-0.612204	0.071000	0.432841
H432	H	-0.395093	-0.497218	-0.021517
C433	C	0.339399	-0.429316	-0.213391
C434	C	0.337613	-0.451580	-0.189573
C435	C	0.339419	-0.499461	-0.213541
C436	C	0.343012	-0.525078	-0.261327
C437	C	0.344798	-0.502814	-0.285148
C438	C	0.342991	-0.454933	-0.261180
H439	H	0.334953	-0.432617	-0.154196
H440	H	0.338097	-0.515942	-0.195907
H441	H	0.344349	-0.560522	-0.279070
H442	H	0.347457	-0.521777	-0.320525
H443	H	0.344314	-0.438453	-0.278814
C444	C	-0.231193	-0.379812	-0.015102
C445	C	-0.221266	-0.385842	0.021511
C446	C	-0.175188	-0.407959	0.023308
C447	C	-0.139039	-0.424045	-0.011510
C448	C	-0.148966	-0.418015	-0.048126
C449	C	-0.195043	-0.395898	-0.049922
H450	H	-0.248026	-0.373934	0.047288
H451	H	-0.167840	-0.412423	0.050414
H452	H	-0.104930	-0.440417	-0.010180
H453	H	-0.122205	-0.429923	-0.073902
H454	H	-0.202392	-0.391434	-0.077028
H455	H	-0.358232	0.429671	0.127988
C456	C	-0.426260	0.547263	0.256276
C457	C	-0.432928	0.542393	0.214577
C458	C	-0.456059	0.518610	0.191443
C459	C	-0.472521	0.499696	0.210009
C460	C	-0.465853	0.504566	0.251710
C461	C	-0.442723	0.528349	0.274844
H462	H	-0.420742	0.556395	0.200832
H463	H	-0.460995	0.515005	0.160573
H464	H	-0.489644	0.482090	0.192883
H465	H	-0.478040	0.490564	0.265456
H466	H	-0.437787	0.531954	0.305715
H467	H	0.301891	-0.115321	0.128015
C468	C	0.195315	-0.108996	0.015031
C469	C	0.199102	-0.102931	-0.021578
C470	C	0.222905	-0.080660	-0.023364
C471	C	0.242922	-0.064454	0.011459
C472	C	0.239135	-0.070519	0.048071
C473	C	0.215332	-0.092790	0.049857
H474	H	0.184284	-0.114928	-0.047358
H475	H	0.225708	-0.076171	-0.050467
H476	H	0.260543	-0.047968	0.010136
H477	H	0.253953	-0.058522	0.073851
H478	H	0.212529	-0.097280	0.076960
C479	C	-0.023436	-0.124952	-0.474650
C480	C	-0.041988	-0.122874	-0.510045
C481	C	-0.018844	-0.169165	-0.556970
C482	C	0.022852	-0.217534	-0.568500
C483	C	0.041406	-0.219614	-0.533104
C484	C	0.018262	-0.173323	-0.486179
H485	H	-0.072856	-0.087066	-0.501511
H486	H	-0.032579	-0.167625	-0.583172
H487	H	0.039984	-0.251801	-0.603236
H488	H	0.072273	-0.255422	-0.541638
H489	H	0.031997	-0.174863	-0.459977
H490	H	-0.029485	0.002475	-0.347076
C491	C	0.291174	-0.036586	0.389889
C492	C	0.253695	0.017366	0.425294
C493	C	0.253053	0.041140	0.472217
C494	C	0.289891	0.010963	0.483735
C495	C	0.327374	-0.042993	0.448330
C496	C	0.328015	-0.066767	0.401406
H497	H	0.226422	0.039708	0.416768
H498	H	0.225306	0.081082	0.498426
H499	H	0.289416	0.028562	0.518471
H500	H	0.354646	-0.065335	0.456856
H501	H	0.355762	-0.106709	0.375197
C502	C	0.332613	-0.699522	-0.441238
C503	C	0.296002	-0.666690	-0.398559
C504	C	0.294214	-0.688709	-0.374494
C505	C	0.329037	-0.743560	-0.393109
C506	C	0.365651	-0.776395	-0.435791
C507	C	0.367439	-0.754376	-0.459855
H508	H	0.270221	-0.626083	-0.384777
H509	H	0.267110	-0.664402	-0.342898
H510	H	0.327714	-0.759859	-0.375296
H511	H	0.391431	-0.817002	-0.449573
H512	H	0.394543	-0.778683	-0.491451
H513	H	-0.554544	-0.258905	-0.015555
H514	H	0.301896	-0.230740	0.128286
C515	C	-0.215553	0.125921	-0.213133
C516	C	-0.224169	0.125549	-0.252801
C517	C	-0.248214	0.103518	-0.276619
C518	C	-0.263643	0.081860	-0.260768
C519	C	-0.255027	0.082231	-0.221098
C520	C	-0.230982	0.104262	-0.197280
H521	H	-0.212747	0.141583	-0.264537
H522	H	-0.254592	0.103244	-0.305986
H523	H	-0.281442	0.065551	-0.278400
H524	H	-0.266449	0.066197	-0.209362
H525	H	-0.224604	0.104536	-0.167913
C526	C	0.295510	-0.193987	0.213326
C527	C	0.258909	-0.200016	0.217234
C528	C	0.257125	-0.222132	0.241203
C529	C	0.291943	-0.238219	0.261265
C530	C	0.328547	-0.232190	0.257358
C531	C	0.330331	-0.210074	0.233388
H532	H	0.233132	-0.188107	0.202383
H533	H	0.230028	-0.226594	0.244096
H534	H	0.290622	-0.254590	0.279008
H535	H	0.354324	-0.244099	0.272209
H536	H	0.357428	-0.205612	0.230496
H537	H	0.295928	0.007860	0.403182
H538	H	-0.209546	-0.301109	-0.411162
H539	H	-0.420288	0.668842	0.377671
H540	H	-0.279403	0.502815	0.207063
H541	H	0.189469	-0.230598	-0.563235
C542	C	-0.273290	-0.194019	0.213031
C543	C	-0.264679	-0.163339	0.252699
C544	C	-0.240620	-0.185611	0.276513
C545	C	-0.225171	-0.238562	0.260659
C546	C	-0.233781	-0.269245	0.220989
C547	C	-0.257841	-0.246973	0.197175
H548	H	-0.276116	-0.124139	0.264437
H549	H	-0.234246	-0.162897	0.305880
H550	H	-0.207361	-0.255049	0.278288
H551	H	-0.222345	-0.308446	0.209252
H552	H	-0.264215	-0.269687	0.167809
C553	C	-0.273220	0.570740	0.275443
C554	C	-0.257819	0.571067	0.238270
C555	C	-0.233896	0.523179	0.192185
C556	C	-0.225375	0.474964	0.183272
C557	C	-0.240777	0.474635	0.220446
C558	C	-0.264699	0.522523	0.266531
H559	H	-0.264126	0.606760	0.244867
H560	H	-0.222495	0.523423	0.164667
H561	H	-0.207666	0.439514	0.149157
H562	H	-0.234469	0.438941	0.213849
H563	H	-0.276100	0.522279	0.294049
C564	C	-0.258128	-0.108990	0.015041
C565	C	-0.294360	-0.092778	0.049863
C566	C	-0.340438	-0.070513	0.048068
C567	C	-0.350283	-0.064459	0.011452
C568	C	-0.314051	-0.080671	-0.023373
C569	C	-0.267973	-0.102937	-0.021578
H570	H	-0.287072	-0.097259	0.076971
H571	H	-0.367259	-0.058511	0.073848
H572	H	-0.384393	-0.047977	0.010123
H573	H	-0.321339	-0.076191	-0.050481
H574	H	-0.241152	-0.114938	-0.047357
C575	C	-0.231241	-0.242918	0.121800
C576	C	-0.222314	-0.291138	0.082093
C577	C	-0.176229	-0.339021	0.058121
C578	C	-0.139070	-0.338685	0.073856
C579	C	-0.147995	-0.290463	0.113565
C580	C	-0.194081	-0.242579	0.137537
H581	H	-0.249822	-0.291389	0.070443
H582	H	-0.169622	-0.374718	0.028726
H583	H	-0.104955	-0.374131	0.056111
H584	H	-0.120487	-0.290212	0.125215
H585	H	-0.200688	-0.206882	0.166932
C586	C	0.302367	-0.243148	0.317535
C587	C	0.264865	-0.242734	0.302099
C588	C	0.266663	-0.290609	0.278044
C589	C	0.305962	-0.338898	0.269424
C590	C	0.343467	-0.339313	0.284859
C591	C	0.341669	-0.291438	0.308915
H592	H	0.235770	-0.206987	0.308480
H593	H	0.238899	-0.290302	0.266617
H594	H	0.307293	-0.374338	0.251616
H595	H	0.372562	-0.375061	0.278479
H596	H	0.369433	-0.291746	0.320341
C597	C	-0.469351	0.002069	0.275490
C598	C	-0.485076	-0.019699	0.238319
C599	C	-0.461108	-0.041871	0.192233
C600	C	-0.421414	-0.042274	0.183320
C601	C	-0.405687	-0.020505	0.220493
C602	C	-0.429655	0.001667	0.266578
H603	H	-0.514462	-0.019402	0.244916
H604	H	-0.472750	-0.057986	0.164716
H605	H	-0.403671	-0.058687	0.149205
H606	H	-0.376301	-0.020803	0.213896
H607	H	-0.418013	0.017782	0.294096
C608	C	-0.124451	-0.379805	-0.121869
C609	C	-0.109038	-0.432714	-0.137611
C610	C	-0.085122	-0.454832	-0.113646
C611	C	-0.076620	-0.424041	-0.073941
C612	C	-0.092034	-0.371129	-0.058197
C613	C	-0.115949	-0.349011	-0.082161
H614	H	-0.115331	-0.455510	-0.167005
H615	H	-0.073712	-0.494001	-0.125301
H616	H	-0.058917	-0.440414	-0.056201
H617	H	-0.085740	-0.348333	-0.028803
H618	H	-0.127359	-0.309842	-0.070507
C619	C	-0.426280	-0.319181	-0.026263
C620	C	-0.467977	-0.270810	0.010579
C621	C	-0.491119	-0.224523	0.009944
C622	C	-0.472565	-0.226609	-0.027533
C623	C	-0.430865	-0.274982	-0.064378
C624	C	-0.407723	-0.321269	-0.063743
H625	H	-0.481714	-0.269264	0.038324
H626	H	-0.521988	-0.188714	0.037220
H627	H	-0.489696	-0.192345	-0.028002
H628	H	-0.417128	-0.276528	-0.092123
H629	H	-0.376854	-0.357078	-0.091018
H630	H	0.301837	0.080984	0.324296
H631	H	0.301826	0.080752	0.439749
H632	H	-0.243210	-0.230472	0.324306
C633	C	-0.215580	0.125979	0.021855
C634	C	-0.261654	0.148146	0.020055
C635	C	-0.285699	0.126118	0.021844
C636	C	-0.263671	0.081922	0.025432
C637	C	-0.217594	0.059752	0.027232
C638	C	-0.193549	0.081780	0.025443
H639	H	-0.277963	0.180865	0.017399
H640	H	-0.319808	0.142530	0.020511
H641	H	-0.281470	0.065615	0.026756
H642	H	-0.201285	0.027033	0.029888
H643	H	-0.159440	0.065368	0.026776
H644	H	-0.420363	-0.042784	0.262330
H645	H	-0.420236	-0.446595	-0.026110
C646	C	-0.231134	-0.576109	-0.015118
C647	C	-0.193969	-0.597881	-0.052626
C648	C	-0.147891	-0.620053	-0.050831
C649	C	-0.138979	-0.620454	-0.011529
C650	C	-0.176145	-0.598681	0.025981
C651	C	-0.222223	-0.576509	0.024187
H652	H	-0.200566	-0.597585	-0.081722
H653	H	-0.120378	-0.636171	-0.078599
H654	H	-0.104869	-0.636867	-0.010201
H655	H	-0.169548	-0.598977	0.055078
H656	H	-0.249736	-0.560391	0.051955
C657	C	-0.082189	-0.194017	0.021877
C658	C	-0.058271	-0.241895	0.020081
C659	C	-0.012190	-0.264166	0.021867
C660	C	0.009972	-0.238558	0.025450
C661	C	-0.013946	-0.190678	0.027246
C662	C	-0.060026	-0.168407	0.025460
H663	H	-0.074677	-0.260854	0.017429
H664	H	0.005515	-0.299610	0.020538
H665	H	0.044084	-0.255044	0.026772
H666	H	0.002460	-0.171719	0.029898
H667	H	-0.077732	-0.132962	0.026789
H668	H	-0.358860	-0.258624	-0.015571
C669	C	-0.426373	-0.036605	0.389901
C670	C	-0.407826	-0.017681	0.425294
C671	C	-0.430966	0.006107	0.472221
C672	C	-0.472652	0.010970	0.483756
C673	C	-0.491202	-0.007955	0.448362
C674	C	-0.468062	-0.031743	0.401435
H675	H	-0.376965	-0.021280	0.416756
H676	H	-0.417234	0.020117	0.498422
H677	H	-0.489782	0.028579	0.518494
H678	H	-0.522063	-0.004356	0.456900
H679	H	-0.481794	-0.045753	0.375234
C680	C	-0.257508	-0.109960	-0.442140
C681	C	-0.293655	-0.093879	-0.460874
C682	C	-0.339733	-0.071762	-0.436961
C683	C	-0.349665	-0.065726	-0.394314
C684	C	-0.313517	-0.081807	-0.375578
C685	C	-0.267439	-0.103924	-0.399491
H686	H	-0.286304	-0.098347	-0.492446
H687	H	-0.366491	-0.059858	-0.450831
H688	H	-0.383774	-0.049354	-0.376613
H689	H	-0.320869	-0.077339	-0.344006
H690	H	-0.240681	-0.115828	-0.385620
C691	C	-0.023371	-0.498416	-0.341033
C692	C	-0.046830	-0.475275	-0.294428
C693	C	-0.023688	-0.499067	-0.271295
C694	C	0.022914	-0.546000	-0.294767
C695	C	0.046376	-0.569143	-0.341376
C696	C	0.023234	-0.545351	-0.364509
H697	H	-0.081330	-0.440531	-0.277049
H698	H	-0.041056	-0.481935	-0.236792
H699	H	0.040045	-0.563612	-0.277643
H700	H	0.080876	-0.603887	-0.358754
H701	H	0.040602	-0.562483	-0.399011
C702	C	-0.365158	-0.108983	0.122107
C703	C	-0.380606	-0.056034	0.137954
C704	C	-0.404677	-0.033763	0.114143
C705	C	-0.413299	-0.064442	0.074486
C706	C	-0.397850	-0.117394	0.058637
C707	C	-0.373780	-0.139665	0.082447
H708	H	-0.374224	-0.033321	0.167313
H709	H	-0.416113	0.005436	0.125876
H710	H	-0.431118	-0.047955	0.056860
H711	H	-0.404233	-0.140107	0.029278
H712	H	-0.362343	-0.178864	0.070714
C713	C	0.104136	-0.060191	-0.399245
C714	C	0.064429	-0.011978	-0.390334
C715	C	0.040448	0.035911	-0.344249
C716	C	0.056173	0.035587	-0.307075
C717	C	0.095883	-0.012629	-0.315984
C718	C	0.119864	-0.060518	-0.362069
H719	H	0.052786	-0.011736	-0.417854
H720	H	0.011052	0.071604	-0.337654
H721	H	0.038421	0.071037	-0.272960
H722	H	0.107526	-0.012871	-0.288464
H723	H	0.149259	-0.096210	-0.368664
H724	H	-0.358760	-0.570112	-0.015604
H725	H	-0.554389	0.080728	0.323790
C726	C	-0.365155	-0.108978	0.451732
C727	C	-0.373762	-0.139661	0.460715
C728	C	-0.397821	-0.117391	0.506802
C729	C	-0.413274	-0.064438	0.543907
C730	C	-0.404667	-0.033752	0.534926
C731	C	-0.380608	-0.056022	0.488839
H732	H	-0.362322	-0.178862	0.433246
H733	H	-0.404192	-0.140107	0.513451
H734	H	-0.431084	-0.047953	0.578024
H735	H	-0.416107	0.005449	0.562395
H736	H	-0.374237	-0.033305	0.482190
H737	H	-0.475832	0.008074	0.403153
C738	C	-0.257620	0.210316	-0.121902
C739	C	-0.294783	0.232080	-0.137641
C740	C	-0.340862	0.254252	-0.113673
C741	C	-0.349777	0.254661	-0.073966
C742	C	-0.312614	0.232897	-0.058225
C743	C	-0.266535	0.210724	-0.082193
H744	H	-0.288184	0.231778	-0.167036
H745	H	-0.368373	0.270364	-0.125326
H746	H	-0.383887	0.271074	-0.056224
H747	H	-0.319213	0.233199	-0.028830
H748	H	-0.239024	0.194613	-0.070540
C749	C	0.104097	-0.060102	0.021877
C750	C	0.127900	-0.037835	0.020083
C751	C	0.103924	0.010044	0.021877
C752	C	0.056145	0.035656	0.025466
C753	C	0.032340	0.013389	0.027260
C754	C	0.056316	-0.034490	0.025466
H755	H	0.163271	-0.056795	0.017426
H756	H	0.121546	0.026527	0.020549
H757	H	0.038397	0.071099	0.026794
H758	H	-0.003031	0.032348	0.029917
H759	H	0.038694	-0.050973	0.026794
H760	H	-0.093659	0.131422	-0.207203
H761	H	0.110663	-0.188356	-0.526913
C762	C	-0.123750	0.210045	-0.122195
C763	C	-0.081076	0.177228	-0.118406
C764	C	-0.057033	0.199262	-0.094588
C765	C	-0.075665	0.254114	-0.074559
C766	C	-0.118341	0.286935	-0.078347
C767	C	-0.142383	0.264900	-0.102165
H768	H	-0.067281	0.136620	-0.133233
H769	H	-0.025442	0.174966	-0.091784
H770	H	-0.057867	0.270425	-0.056928
H771	H	-0.132135	0.327542	-0.063520
H772	H	-0.173975	0.289197	-0.104969
C773	C	0.332491	-0.246490	-0.121877
C774	C	0.367303	-0.245154	-0.101817
C775	C	0.365495	-0.197272	-0.077854
C776	C	0.328876	-0.150727	-0.073950
C777	C	0.294061	-0.152061	-0.094011
C778	C	0.295869	-0.199942	-0.117974
H779	H	0.394413	-0.279611	-0.104706
H780	H	0.391267	-0.196285	-0.063003
H781	H	0.327538	-0.115282	-0.056211
H782	H	0.266951	-0.117604	-0.091122
H783	H	0.270097	-0.200930	-0.132824
H784	H	-0.242816	0.429910	0.128250
H785	H	-0.093674	0.131460	0.021398
C786	C	-0.123760	0.210073	0.015012
C787	C	-0.081086	0.177241	-0.021603
C788	C	-0.057037	0.199262	-0.023401
C789	C	-0.075661	0.254115	0.011417
C790	C	-0.118338	0.286950	0.048035
C791	C	-0.142387	0.264929	0.049832
H792	H	-0.067298	0.136633	-0.047380
H793	H	-0.025445	0.174955	-0.050508
H794	H	-0.057859	0.270416	0.010087
H795	H	-0.132127	0.327558	0.073812
H796	H	-0.173979	0.289236	0.076939
H797	H	-0.029493	-0.112815	0.032381
H798	H	0.295959	-0.072782	0.403142
H799	H	0.189295	-0.694047	-0.563783
C800	C	0.195357	-0.109093	-0.441293
C801	C	0.199139	-0.103022	-0.398615
C802	C	0.222943	-0.080752	-0.374554
C803	C	0.242965	-0.064552	-0.393172
C804	C	0.239184	-0.070623	-0.435852
C805	C	0.215380	-0.092893	-0.459913
H806	H	0.184317	-0.115015	-0.384831
H807	H	0.225742	-0.076258	-0.342959
H808	H	0.260586	-0.048066	-0.375360
H809	H	0.254005	-0.058630	-0.449636
H810	H	0.212580	-0.097386	-0.491508
H811	H	-0.304909	0.553465	0.262274
C812	C	0.339421	-0.615438	-0.533116
C813	C	0.337627	-0.637611	-0.579198
C814	C	0.339406	-0.615585	-0.603258
C815	C	0.342979	-0.571385	-0.581237
C816	C	0.344774	-0.549210	-0.535152
C817	C	0.342995	-0.571236	-0.511092
H818	H	0.334981	-0.670332	-0.595501
H819	H	0.338077	-0.632001	-0.637373
H820	H	0.344296	-0.555080	-0.599048
H821	H	0.347419	-0.516488	-0.518848
H822	H	0.344324	-0.554819	-0.476977
C823	C	0.302356	-0.109522	0.451441
C824	C	0.341660	-0.140311	0.460350
C825	C	0.343456	-0.118192	0.506434
C826	C	0.305947	-0.065283	0.543608
C827	C	0.266640	-0.034491	0.534701
C828	C	0.264845	-0.056610	0.488617
H829	H	0.369429	-0.179480	0.432830
H830	H	0.372554	-0.140987	0.513027
H831	H	0.307276	-0.048909	0.577722
H832	H	0.238871	0.004678	0.562221
H833	H	0.235747	-0.033816	0.482023
C834	C	-0.469215	-0.429301	-0.021975
C835	C	-0.465295	-0.475851	-0.058597
C836	C	-0.441318	-0.523735	-0.060398
C837	C	-0.421262	-0.525068	-0.025577
C838	C	-0.425182	-0.478516	0.011049
C839	C	-0.449158	-0.430633	0.012850
H840	H	-0.480142	-0.474866	-0.084377
H841	H	-0.438417	-0.558195	-0.087511
H842	H	-0.403513	-0.560514	-0.026910
H843	H	-0.410334	-0.479501	0.036828
H844	H	-0.452060	-0.396172	0.039962
H845	H	-0.245665	0.204599	0.015471
C846	C	-0.124501	-0.242907	0.015035
C847	C	-0.081855	-0.289458	-0.021582
C848	C	-0.057939	-0.337337	-0.023377
C849	C	-0.076669	-0.338666	0.011445
C850	C	-0.119317	-0.292113	0.048064
C851	C	-0.143233	-0.244233	0.049859
H852	H	-0.067989	-0.288476	-0.047361
H853	H	-0.026368	-0.371799	-0.050485
H854	H	-0.058964	-0.374109	0.010116
H855	H	-0.133184	-0.293094	0.073843
H856	H	-0.174804	-0.209772	0.076967
H857	H	-0.209608	-0.072536	0.021417
C858	C	-0.230917	0.619644	0.317491
C859	C	-0.221940	0.650322	0.308871
C860	C	-0.175858	0.628050	0.284811
C861	C	-0.138754	0.575100	0.269373
C862	C	-0.147730	0.544418	0.277993
C863	C	-0.193811	0.566691	0.302052
H864	H	-0.249407	0.689522	0.320299
H865	H	-0.169214	0.650763	0.278430
H866	H	-0.104642	0.558612	0.251563
H867	H	-0.120262	0.505219	0.266564
H868	H	-0.200456	0.543978	0.308433
H869	H	0.189554	-0.694293	-0.448338
H870	H	0.110613	-0.188242	0.021399
C871	C	-0.406863	0.704684	0.409353
C872	C	-0.443969	0.757629	0.424783
C873	C	-0.490051	0.779899	0.448839
C874	C	-0.499027	0.749224	0.457464
C875	C	-0.461919	0.696275	0.442034
C876	C	-0.415837	0.674005	0.417978
H877	H	-0.437326	0.780340	0.418398
H878	H	-0.517520	0.819096	0.460261
H879	H	-0.533139	0.765709	0.475272
H880	H	-0.468563	0.673564	0.448419
H881	H	-0.388368	0.634808	0.406556
H882	H	0.295976	-0.188233	0.287452
H883	H	0.295965	-0.072818	0.206834
H884	H	-0.209244	-0.073206	-0.411777
H885	H	-0.475735	-0.301149	-0.021477
H886	H	-0.395157	-0.301114	-0.021490
C887	C	-0.560743	0.620227	0.318062
C888	C	-0.564635	0.614188	0.275413
C889	C	-0.588588	0.592068	0.251498
C890	C	-0.608649	0.575987	0.270232
C891	C	-0.604758	0.582025	0.312882
C892	C	-0.580805	0.604145	0.336797
H893	H	-0.549784	0.626093	0.261544
H894	H	-0.591469	0.587598	0.219925
H895	H	-0.626380	0.559612	0.252528
H896	H	-0.619609	0.570120	0.326752
H897	H	-0.577925	0.608615	0.368370
C898	C	0.350041	-0.364597	-0.341038
C899	C	0.350356	-0.341447	-0.294433
C900	C	0.350993	-0.295169	-0.271300
C901	C	0.351316	-0.272041	-0.294772
C902	C	0.351001	-0.295192	-0.341380
C903	C	0.350364	-0.341470	-0.364513
H904	H	0.350117	-0.358567	-0.277055
H905	H	0.351226	-0.278031	-0.236797
H906	H	0.351788	-0.237784	-0.277647
H907	H	0.351240	-0.278072	-0.358758
H908	H	0.350131	-0.358607	-0.399015
H909	H	0.110740	-0.621391	-0.411754
C910	C	0.332545	-0.380412	-0.122159
C911	C	0.293248	-0.349731	-0.082490
C912	C	0.291470	-0.371999	-0.058670
C913	C	0.328990	-0.424947	-0.074520
C914	C	0.368291	-0.455631	-0.114191
C915	C	0.370068	-0.433363	-0.138010
H916	H	0.265471	-0.310533	-0.070755
H917	H	0.262377	-0.349285	-0.029303
H918	H	0.327675	-0.441431	-0.056887
H919	H	0.396068	-0.494829	-0.125925
H920	H	0.399161	-0.456077	-0.167377
C921	C	0.332532	-0.380476	-0.575755
C922	C	0.293231	-0.349795	-0.584735
C923	C	0.291441	-0.372066	-0.630820
C924	C	0.328953	-0.425020	-0.667926
C925	C	0.368257	-0.455705	-0.658947
C926	C	0.370047	-0.433433	-0.612861
H927	H	0.265459	-0.310592	-0.557266
H928	H	0.262345	-0.349351	-0.637467
H929	H	0.327628	-0.441507	-0.702041
H930	H	0.396028	-0.494907	-0.686416
H931	H	0.399143	-0.456149	-0.606215
H932	H	-0.279464	-0.416560	-0.021489
H933	H	-0.279440	-0.497448	-0.021492
H934	H	-0.029386	-0.492232	-0.462424
H935	H	-0.358340	0.741149	0.439433
H936	H	-0.144766	-0.376835	-0.347028
H937	H	-0.094088	-0.416546	-0.206908
H938	H	-0.395231	-0.072523	0.403192
H939	H	-0.304976	-0.158175	0.262317
H940	H	0.338921	-0.416924	-0.527207
H941	H	-0.279535	-0.188228	0.287733
H942	H	0.291336	-0.042775	0.262307
H943	H	-0.554303	0.741426	0.439728
H944	H	-0.475505	0.698937	0.403154
H945	H	-0.475713	0.583475	0.287701
H946	H	-0.394824	0.502582	0.206807
H947	H	0.349904	-0.492016	-0.462429
H948	H	0.349900	-0.491995	-0.347037
H949	H	0.338973	-0.620904	-0.411168
H950	H	-0.144840	0.002483	-0.347074
