data_functionalizedCrystal
_audit_creation_method	'MofGen! by Chris Wilmer'
_symmetry_space_group_name_H-M	'P1'
_symmetry_Int_Tables_number	1
_symmetry_cell_setting	triclinic
loop_
_symmetry_equiv_pos_as_xyz
  x,y,z
_cell_length_a	30.700809
_cell_length_b	30.711276
_cell_length_c	30.700862
_cell_angle_alpha	59.998386
_cell_angle_beta	89.999414
_cell_angle_gamma	60.000191
loop_
_atom_site_label
_atom_site_type_symbol
_atom_site_fract_x
_atom_site_fract_y
_atom_site_fract_z
O1	O	-0.371254	-0.311651	0.012944
O2	O	-0.307913	-0.222487	-0.012907
O3	O	-0.307911	-0.311650	0.076286
O4	O	-0.371257	-0.222488	-0.076249
O5	O	-0.235466	-0.384070	0.076286
O6	O	-0.235468	-0.294907	-0.012907
O7	O	-0.298809	-0.384071	0.012944
Zn8	Zn	-0.255636	-0.350987	0.000018
Zn9	Zn	-0.351086	-0.255571	0.000019
O10	O	-0.298812	-0.294908	-0.076249
C11	C	-0.234796	-0.137097	-0.018777
C12	C	-0.261674	-0.083360	-0.015076
C13	C	-0.182374	-0.163176	-0.019143
C14	C	-0.234798	-0.215942	-0.018783
C15	C	-0.261678	-0.246507	-0.015089
C16	C	-0.182376	-0.241901	-0.019150
C17	C	-0.155920	-0.215947	-0.018777
C18	C	-0.098463	-0.246515	-0.015075
C19	C	-0.261132	-0.163172	-0.019150
C20	C	-0.574961	-0.535511	0.039265
C21	C	-0.548506	-0.588283	0.039634
C22	C	-0.496086	-0.535509	0.039262
C23	C	-0.469751	-0.588281	0.039632
C24	C	-0.496085	-0.614360	0.039265
C25	C	-0.548507	-0.509552	0.039632
C26	C	-0.765169	-0.393516	0.024987
C27	C	-0.819034	-0.364488	0.020950
C28	C	-0.846055	-0.389406	0.018925
C29	C	-0.904462	-0.357927	0.014538
C30	C	-0.819206	-0.443357	0.020941
C31	C	-0.765344	-0.472385	0.024984
C32	C	-0.738325	-0.447463	0.027007
C33	C	-0.447920	-0.790230	0.024988
C34	C	-0.423094	-0.840041	0.020951
C35	C	-0.371150	-0.865027	0.018921
C36	C	-0.344230	-0.919028	0.014536
C37	C	-0.344030	-0.840201	0.020935
C38	C	-0.368852	-0.790399	0.024981
C39	C	-0.420803	-0.765414	0.027004
C40	C	-0.447922	-0.393510	0.024977
C41	C	-0.423099	-0.364475	0.020931
C42	C	-0.371152	-0.389391	0.018903
C43	C	-0.344235	-0.357911	0.014513
C44	C	-0.344034	-0.443338	0.020916
C45	C	-0.368860	-0.472368	0.024960
C46	C	-0.420804	-0.447452	0.026995
C47	C	-0.679920	-0.478941	0.031387
C48	C	-0.633366	-0.504032	0.034880
C49	C	-0.469171	-0.504029	0.034875
C50	C	-0.447717	-0.478936	0.031380
C51	C	-0.469170	-0.668361	0.034880
C52	C	-0.447716	-0.711408	0.031386
C53	C	-0.496432	-0.071057	-0.503890
C54	C	-0.548853	-0.018285	-0.530226
C55	C	-0.496432	-0.071056	-0.425015
C56	C	-0.548854	-0.018284	-0.451470
C57	C	-0.575308	0.007793	-0.503892
C58	C	-0.470097	-0.097014	-0.451469
C59	C	-0.368666	-0.213054	-0.552051
C60	C	-0.343664	-0.242084	-0.576877
C61	C	-0.370616	-0.217167	-0.628824
C62	C	-0.343513	-0.248647	-0.655741
C63	C	-0.422570	-0.163216	-0.655945
C64	C	-0.447565	-0.134187	-0.631122
C65	C	-0.420611	-0.159108	-0.579173
C66	C	-0.765518	0.183662	-0.631659
C67	C	-0.819384	0.233473	-0.656662
C68	C	-0.846408	0.258459	-0.629712
C69	C	-0.904813	0.312461	-0.656813
C70	C	-0.819559	0.233635	-0.577758
C71	C	-0.765694	0.183833	-0.552761
C72	C	-0.738677	0.158847	-0.579717
C73	C	-0.368668	-0.213052	-0.234803
C74	C	-0.343669	-0.242086	-0.180935
C75	C	-0.370621	-0.217169	-0.153914
C76	C	-0.343519	-0.248648	-0.095506
C77	C	-0.422573	-0.163222	-0.180762
C78	C	-0.447570	-0.134193	-0.234627
C79	C	-0.420610	-0.159111	-0.261646
C80	C	-0.447720	-0.127629	-0.552258
C81	C	-0.469327	-0.102536	-0.530805
C82	C	-0.469328	-0.102535	-0.366609
C83	C	-0.447721	-0.127627	-0.320054
C84	C	-0.633714	0.061794	-0.530997
C85	C	-0.680269	0.104841	-0.552605
O86	O	0.076277	-0.384081	0.012960
O87	O	-0.076257	-0.294916	-0.012894
O88	O	0.012931	-0.384083	0.076300
O89	O	-0.012910	-0.294914	-0.076234
O90	O	0.012933	-0.311666	0.076306
O91	O	-0.076254	-0.222499	-0.012888
O92	O	0.076280	-0.311664	0.012966
Zn93	Zn	0.000013	-0.255584	0.000040
Zn94	Zn	0.000010	-0.350996	0.000032
O95	O	-0.012908	-0.222497	-0.076228
O96	O	-0.298805	0.063292	0.012964
O97	O	-0.235462	-0.063346	-0.012888
O98	O	-0.235465	-0.063353	0.076305
O99	O	-0.298803	0.063300	-0.076229
O100	O	-0.307912	-0.063350	0.076299
O101	O	-0.307909	-0.063342	-0.012895
O102	O	-0.371252	0.063295	0.012958
Zn103	Zn	-0.351083	-0.000023	0.000031
Zn104	Zn	-0.255631	-0.000027	0.000039
O105	O	-0.371250	0.063303	-0.076236
O106	O	-1.076607	0.456783	-0.692421
O107	O	-0.924074	0.330140	-0.629074
O108	O	-1.013262	0.330138	-0.629073
O109	O	-0.987418	0.456785	-0.692422
O110	O	-1.013261	0.330136	-0.701518
O111	O	-0.924072	0.330138	-0.701518
O112	O	-1.076605	0.456781	-0.764865
Zn113	Zn	-1.000338	0.393459	-0.744694
Zn114	Zn	-1.000340	0.393461	-0.649245
O115	O	-0.987417	0.456783	-0.764866
O116	O	-0.307911	-0.311650	-0.764507
O117	O	-0.371254	-0.222491	-0.701165
O118	O	-0.371252	-0.311652	-0.701162
O119	O	-0.307912	-0.222489	-0.764510
O120	O	-0.298806	-0.384074	-0.628716
O121	O	-0.298807	-0.294912	-0.628719
O122	O	-0.235464	-0.384072	-0.692061
Zn123	Zn	-0.255634	-0.350991	-0.648887
Zn124	Zn	-0.351085	-0.255572	-0.744338
O125	O	-0.235466	-0.294910	-0.692064
C126	C	-0.155920	-0.469469	0.234827
C127	C	-0.098464	-0.523208	0.261706
C128	C	-0.182375	-0.443392	0.261162
C129	C	-0.234797	-0.390619	0.155950
C130	C	-0.261676	-0.360052	0.098494
C131	C	-0.261132	-0.364662	0.182405
C132	C	-0.234797	-0.390620	0.234826
C133	C	-0.261675	-0.360052	0.261704
C134	C	-0.182375	-0.443391	0.182406
C135	C	0.018810	-0.390643	0.234846
C136	C	0.015111	-0.360079	0.261727
C137	C	0.019176	-0.443414	0.261179
C138	C	0.018812	-0.390637	0.155967
C139	C	0.015115	-0.360067	0.098511
C140	C	0.019178	-0.443408	0.182420
C141	C	0.018807	-0.469488	0.234841
C142	C	0.015106	-0.523226	0.261717
C143	C	0.019180	-0.364683	0.182425
C144	C	-0.234799	-0.215977	0.234834
C145	C	-0.261678	-0.246545	0.261708
C146	C	-0.182376	-0.241940	0.261172
C147	C	-0.234798	-0.137119	0.155964
C148	C	-0.261676	-0.083372	0.098509
C149	C	-0.182375	-0.163202	0.182421
C150	C	-0.155921	-0.215981	0.234841
C151	C	-0.098464	-0.246554	0.261721
C152	C	-0.261134	-0.163198	0.182415
C153	C	-0.039199	0.007461	-0.503869
C154	C	-0.039568	-0.018614	-0.530207
C155	C	-0.039203	-0.071390	-0.424995
C156	C	-0.039572	-0.097344	-0.451452
C157	C	-0.039201	-0.071385	-0.503874
C158	C	-0.039570	-0.018618	-0.451448
C159	C	-0.024912	0.183325	-0.552025
C160	C	-0.020873	0.233135	-0.576849
C161	C	-0.018844	0.258123	-0.628796
C162	C	-0.014454	0.312124	-0.655711
C163	C	-0.020859	0.233301	-0.655918
C164	C	-0.024906	0.183500	-0.631097
C165	C	-0.026932	0.158512	-0.579148
C166	C	-0.024920	-0.133799	-0.631644
C167	C	-0.020882	-0.162650	-0.656647
C168	C	-0.018855	-0.216605	-0.629699
C169	C	-0.014470	-0.247897	-0.656801
C170	C	-0.020872	-0.241704	-0.577746
C171	C	-0.024919	-0.212847	-0.552747
C172	C	-0.026939	-0.158893	-0.579702
C173	C	-0.024929	-0.133823	-0.234783
C174	C	-0.020887	-0.162684	-0.180915
C175	C	-0.018862	-0.216639	-0.153896
C176	C	-0.014477	-0.247936	-0.095488
C177	C	-0.020875	-0.241733	-0.180745
C178	C	-0.024915	-0.212872	-0.234610
C179	C	-0.026947	-0.158912	-0.261627
C180	C	-0.031316	0.104507	-0.552235
C181	C	-0.034811	0.061462	-0.530782
C182	C	-0.034820	-0.102682	-0.366590
C183	C	-0.031328	-0.127624	-0.320035
C184	C	-0.034816	-0.102672	-0.530980
C185	C	-0.031322	-0.127610	-0.552588
O186	O	-0.012940	-0.294936	0.371303
O187	O	0.012923	-0.384099	0.307961
O188	O	-0.076273	-0.294935	0.307950
O189	O	0.076257	-0.384100	0.371315
O190	O	-0.076265	-0.222515	0.235508
O191	O	0.012932	-0.311679	0.235520
O192	O	-0.012931	-0.222517	0.298862
Zn193	Zn	0.000002	-0.255600	0.255689
Zn194	Zn	-0.000010	-0.351016	0.351134
O195	O	0.076266	-0.311681	0.298873
C196	C	-0.574962	0.464558	-0.503864
C197	C	-0.548506	0.490518	-0.530195
C198	C	-0.496085	0.385697	-0.424987
C199	C	-0.469749	0.411776	-0.451438
C200	C	-0.496084	0.464555	-0.503857
C201	C	-0.548507	0.411779	-0.451444
C202	C	-0.765173	0.526994	-0.552039
C203	C	-0.819039	0.555852	-0.576867
C204	C	-0.846061	0.609814	-0.628812
C205	C	-0.904469	0.641114	-0.655732
C206	C	-0.819211	0.634913	-0.655928
C207	C	-0.765348	0.606050	-0.631102
C208	C	-0.738329	0.552088	-0.579155
C209	C	-0.447916	0.606561	-0.631604
C210	C	-0.423088	0.635592	-0.656601
C211	C	-0.371143	0.610674	-0.629648
C212	C	-0.344222	0.642150	-0.656742
C213	C	-0.344023	0.556716	-0.577696
C214	C	-0.368845	0.527681	-0.552704
C215	C	-0.420798	0.552613	-0.579664
C216	C	-0.447920	0.209802	-0.234786
C217	C	-0.423096	0.159988	-0.180919
C218	C	-0.371148	0.134996	-0.153895
C219	C	-0.344230	0.080987	-0.095489
C220	C	-0.344029	0.159823	-0.180737
C221	C	-0.368856	0.209637	-0.234602
C222	C	-0.420801	0.234620	-0.261624
C223	C	-0.679923	0.520797	-0.552238
C224	C	-0.633367	0.495853	-0.530781
C225	C	-0.469169	0.331687	-0.366583
C226	C	-0.447714	0.288634	-0.320030
C227	C	-0.469167	0.496035	-0.530956
C228	C	-0.447712	0.521128	-0.552558
H229	H	-0.304205	-0.141343	-0.019747
H230	H	-0.040120	0.003178	-0.430195
H231	H	-0.161141	-0.284407	0.304244
H232	H	-0.026564	-0.233284	-0.510448
H233	H	-0.161128	-0.465208	0.161163
H234	H	-0.026556	-0.233307	-0.256467
H235	H	-0.444519	-0.142934	-0.158758
H236	H	-0.019230	0.253339	-0.554762
C237	C	-0.018709	-0.300293	-0.151330
C238	C	-0.014759	-0.320188	-0.098416
C239	C	-0.012773	-0.374122	-0.071308
H240	H	0.011484	-0.331381	-0.151883
H241	H	-0.050243	-0.292290	-0.168279
H242	H	0.016772	-0.328194	-0.081471
H243	H	-0.044949	-0.289116	-0.097847
H244	H	-0.044308	-0.366119	-0.088257
H245	H	0.017420	-0.405205	-0.071865
H246	H	-0.010098	-0.387625	-0.035404
H247	H	-0.019210	0.253653	-0.698214
H248	H	-0.040160	0.003216	-0.573279
C249	C	0.019864	-0.307989	0.154039
C250	C	-0.025541	-0.259753	0.108396
C251	C	-0.024932	-0.207517	0.082237
H252	H	0.050936	-0.317109	0.144009
H253	H	0.019996	-0.296149	0.177286
H254	H	-0.025668	-0.271591	0.085154
H255	H	-0.056619	-0.250614	0.118411
H256	H	-0.024800	-0.195677	0.105484
H257	H	0.006141	-0.216644	0.072211
H258	H	-0.055741	-0.174781	0.051268
C259	C	-0.735925	0.468391	-0.495651
C260	C	-0.770960	0.452579	-0.477225
C261	C	-0.744032	0.398595	-0.425287
H262	H	-0.723079	0.474925	-0.472914
H263	H	-0.706742	0.435959	-0.495656
H264	H	-0.800133	0.485004	-0.477216
H265	H	-0.783808	0.446032	-0.499947
H266	H	-0.714849	0.366162	-0.425292
H267	H	-0.731186	0.405135	-0.402555
H268	H	-0.767797	0.387856	-0.412780
H269	H	-0.304205	-0.141373	0.161175
H270	H	0.019779	-0.465234	0.161179
H271	H	0.019760	-0.465234	0.304248
H272	H	-0.161136	-0.141377	0.161182
H273	H	-0.040166	-0.139808	-0.430213
C274	C	-0.018737	-0.135326	-0.151868
C275	C	-0.021395	-0.081887	-0.187062
C276	C	-0.019427	-0.056660	-0.160326
H277	H	0.013689	-0.164384	-0.122681
H278	H	-0.048036	-0.125394	-0.139051
H279	H	0.007901	-0.091820	-0.199871
H280	H	-0.053819	-0.052815	-0.216249
H281	H	-0.048726	-0.046729	-0.147509
H282	H	0.013000	-0.085723	-0.131140
H283	H	-0.021235	-0.020396	-0.184202
C284	C	-0.027240	-0.075173	-0.264172
C285	C	-0.075095	-0.027503	-0.307155
C286	C	-0.077243	0.026534	-0.334238
H287	H	0.002004	-0.081698	-0.277065
H288	H	-0.025488	-0.064323	-0.240493
H289	H	-0.076842	-0.038351	-0.330830
H290	H	-0.104347	-0.020959	-0.294277
H291	H	-0.075491	0.037384	-0.310559
H292	H	-0.047997	0.020003	-0.347127
H293	H	-0.109715	0.058886	-0.363402
H294	H	-0.026563	0.162985	-0.509727
C295	C	-0.027059	0.156618	-0.660619
C296	C	-0.024403	0.189149	-0.711419
C297	C	-0.026376	0.164396	-0.738627
H298	H	-0.059487	0.159861	-0.663979
H299	H	0.002238	0.114516	-0.641258
H300	H	-0.053698	0.231240	-0.730776
H301	H	0.008023	0.185909	-0.708075
H302	H	0.002922	0.122294	-0.719266
H303	H	-0.058804	0.167639	-0.741983
H304	H	-0.024569	0.186460	-0.773095
H305	H	-0.445184	-0.320548	0.019287
C306	C	-0.339483	0.469084	-0.496316
C307	C	-0.372340	0.448989	-0.480204
C308	C	-0.345307	0.395008	-0.428264
H309	H	-0.330506	0.477074	-0.472798
H310	H	-0.307835	0.438101	-0.495533
H311	H	-0.403978	0.479965	-0.480983
H312	H	-0.381319	0.440986	-0.503707
H313	H	-0.313660	0.364025	-0.427481
H314	H	-0.336331	0.403004	-0.404751
H315	H	-0.367595	0.381364	-0.417327
C316	C	-0.027140	-0.075205	-0.661008
C317	C	-0.024526	-0.059391	-0.711859
C318	C	-0.026577	-0.005416	-0.738924
H319	H	0.002134	-0.081749	-0.641617
H320	H	-0.059589	-0.042768	-0.664271
H321	H	0.007919	-0.091820	-0.708594
H322	H	-0.053798	-0.052835	-0.731264
H323	H	-0.059025	0.027021	-0.742187
H324	H	0.002699	-0.011966	-0.719528
H325	H	-0.024808	0.005324	-0.773431
H326	H	-0.161134	-0.465220	0.304234
H327	H	-0.019237	-0.142213	-0.698946
C328	C	-0.018643	-0.300300	-0.548564
C329	C	-0.014657	-0.320210	-0.581569
C330	C	-0.012592	-0.374194	-0.554702
H331	H	-0.050151	-0.292370	-0.539596
H332	H	0.011570	-0.331352	-0.516919
H333	H	-0.044867	-0.289165	-0.613204
H334	H	0.016850	-0.328153	-0.590539
H335	H	0.017621	-0.405245	-0.523057
H336	H	-0.044101	-0.366258	-0.545735
H337	H	-0.009882	-0.387712	-0.577090
C338	C	-0.576884	0.547234	-0.587582
C339	C	-0.622508	0.595465	-0.590406
C340	C	-0.648655	0.647728	-0.643255
H341	H	-0.586933	0.538151	-0.609555
H342	H	-0.553623	0.559058	-0.599540
H343	H	-0.645764	0.583643	-0.578454
H344	H	-0.612474	0.604567	-0.568444
H345	H	-0.625395	0.659552	-0.655214
H346	H	-0.658701	0.638639	-0.665224
H347	H	-0.679611	0.680460	-0.645178
H348	H	-0.490218	-0.769893	0.026639
H349	H	-0.426680	-0.610102	0.040221
H350	H	-0.161137	-0.141349	-0.019737
C351	C	-0.412310	0.382566	-0.423035
C352	C	-0.394804	0.330665	-0.371371
C353	C	-0.341895	0.303741	-0.345195
H354	H	-0.410213	0.411446	-0.421159
H355	H	-0.390389	0.370618	-0.442197
H356	H	-0.416719	0.342615	-0.352213
H357	H	-0.396888	0.301772	-0.373231
H358	H	-0.319974	0.291792	-0.364357
H359	H	-0.339803	0.332625	-0.343323
H360	H	-0.330009	0.268520	-0.310140
C361	C	-0.576909	0.382751	-0.423225
C362	C	-0.628576	0.416906	-0.457632
C363	C	-0.654752	0.390182	-0.431656
H364	H	-0.578776	0.382519	-0.392233
H365	H	-0.557751	0.341685	-0.413264
H366	H	-0.647729	0.457962	-0.467585
H367	H	-0.626724	0.417141	-0.488625
H368	H	-0.635594	0.349115	-0.421696
H369	H	-0.656615	0.389951	-0.400665
H370	H	-0.689809	0.413348	-0.454999
H371	H	-0.161139	-0.284365	-0.019743
C372	C	-0.452618	0.133102	-0.151877
C373	C	-0.503417	0.165636	-0.187075
C374	C	-0.530626	0.140880	-0.160344
H375	H	-0.455977	0.136339	-0.122690
H376	H	-0.433258	0.091002	-0.139062
H377	H	-0.522772	0.207726	-0.199882
H378	H	-0.500074	0.162402	-0.216263
H379	H	-0.511266	0.098780	-0.147529
H380	H	-0.533981	0.144118	-0.131157
H381	H	-0.565094	0.162946	-0.184222
H382	H	-0.743837	0.163627	-0.510462
H383	H	-0.569749	-0.467085	0.040220
H384	H	-0.490217	0.230142	-0.256784
H385	H	-0.840896	0.535415	-0.554785
H386	H	-0.841216	0.678847	-0.698222
H387	H	-0.743490	0.626486	-0.653184
C388	C	-0.339350	-0.531009	0.027261
C389	C	-0.292736	-0.576525	0.071812
C390	C	-0.265541	-0.630557	0.073954
H391	H	-0.330323	-0.523032	-0.004225
H392	H	-0.361548	-0.544768	0.029989
H393	H	-0.270542	-0.562769	0.069080
H394	H	-0.301747	-0.584521	0.103306
H395	H	-0.287739	-0.644316	0.076682
H396	H	-0.256518	-0.622574	0.042465
H397	H	-0.233913	-0.661448	0.104184
H398	H	-0.490215	0.626864	-0.653559
H399	H	-0.445174	0.679524	-0.698898
H400	H	-0.301723	0.536422	-0.555753
H401	H	-0.304201	-0.322192	0.161160
H402	H	-0.346770	0.229846	-0.256454
H403	H	-0.301729	0.139473	-0.158731
H404	H	-0.569747	-0.610106	0.040228
H405	H	-0.490220	-0.373215	0.026628
H406	H	-0.489870	-0.090268	-0.256484
H407	H	-0.743175	-0.373219	0.026636
C408	C	-0.848097	-0.305901	0.018734
C409	C	-0.812911	-0.290280	0.021356
C410	C	-0.839667	-0.236308	0.019307
H411	H	-0.860936	-0.312375	0.048008
H412	H	-0.877272	-0.273404	-0.013716
H413	H	-0.783745	-0.322769	0.053802
H414	H	-0.800070	-0.283793	-0.007916
H415	H	-0.868842	-0.203812	-0.013143
H416	H	-0.852505	-0.242788	0.048581
H417	H	-0.815798	-0.225699	0.021080
C418	C	-0.287590	-0.867386	0.018851
C419	C	-0.253044	-0.888793	0.065367
C420	C	-0.201046	-0.913847	0.063468
H421	H	-0.286679	-0.836629	-0.011314
H422	H	-0.276658	-0.900629	0.016184
H423	H	-0.263972	-0.855554	0.068029
H424	H	-0.253939	-0.919557	0.095540
H425	H	-0.190115	-0.947090	0.060801
H426	H	-0.200141	-0.883087	0.033301
H427	H	-0.177600	-0.928380	0.095030
C428	C	-0.848641	-0.470297	0.018710
C429	C	-0.901563	-0.433321	0.014725
C430	C	-0.928695	-0.458117	0.012662
H431	H	-0.831738	-0.510761	0.050219
H432	H	-0.848059	-0.471726	-0.011504
H433	H	-0.902143	-0.431899	0.044936
H434	H	-0.918481	-0.392857	-0.016782
H435	H	-0.928112	-0.459546	-0.017552
H436	H	-0.911788	-0.498581	0.044171
H437	H	-0.964607	-0.433030	0.009953
C438	C	-0.736296	-0.530934	0.027139
C439	C	-0.771489	-0.546536	0.024487
C440	C	-0.744752	-0.600461	0.026461
H441	H	-0.707110	-0.563466	0.059567
H442	H	-0.723479	-0.524392	-0.002160
H443	H	-0.784298	-0.553081	0.053783
H444	H	-0.800675	-0.514019	-0.007938
H445	H	-0.731935	-0.593920	-0.002837
H446	H	-0.715567	-0.632989	0.058890
H447	H	-0.768628	-0.611051	0.024657
C448	C	-0.452568	-0.866992	0.018850
C449	C	-0.465736	-0.888272	0.065359
C450	C	-0.492893	-0.913096	0.063440
H451	H	-0.430389	-0.900260	0.016180
H452	H	-0.484244	-0.836121	-0.011329
H453	H	-0.434065	-0.919141	0.095530
H454	H	-0.487920	-0.855016	0.068038
H455	H	-0.524570	-0.882225	0.033260
H456	H	-0.470712	-0.946362	0.060768
H457	H	-0.501836	-0.927533	0.094993
C458	C	-0.339422	-0.763393	0.027051
C459	C	-0.326282	-0.742090	-0.019474
C460	C	-0.299177	-0.717200	-0.017592
H461	H	-0.307738	-0.794217	0.057211
H462	H	-0.361639	-0.730125	0.029718
H463	H	-0.304065	-0.775354	-0.022135
H464	H	-0.357956	-0.711259	-0.049640
H465	H	-0.321394	-0.683931	-0.014925
H466	H	-0.267495	-0.748027	0.012570
H467	H	-0.290262	-0.702737	-0.049160
C468	C	-0.287624	-0.470321	0.018743
C469	C	-0.271677	-0.433366	0.014789
C470	C	-0.219714	-0.458209	0.012796
H471	H	-0.286722	-0.471777	-0.011451
H472	H	-0.264091	-0.510786	0.050277
H473	H	-0.295204	-0.392912	-0.016741
H474	H	-0.272566	-0.431907	0.044980
H475	H	-0.196181	-0.498674	0.044329
H476	H	-0.218817	-0.459664	-0.017399
H477	H	-0.208886	-0.433143	0.010117
H478	H	-0.570092	0.003538	-0.430229
H479	H	-0.427024	-0.139478	-0.430231
C480	C	-0.577088	0.010852	-0.587696
C481	C	-0.548685	0.028336	-0.619829
C482	C	-0.574677	0.055190	-0.672774
H483	H	-0.612152	0.046112	-0.599719
H484	H	-0.578913	-0.018061	-0.589792
H485	H	-0.546866	0.057246	-0.617735
H486	H	-0.513623	-0.006913	-0.607823
H487	H	-0.576503	0.026278	-0.674871
H488	H	-0.609740	0.090448	-0.684792
H489	H	-0.555408	0.067051	-0.694582
C490	C	-0.287253	-0.300633	-0.151888
C491	C	-0.268992	-0.316230	-0.187083
C492	C	-0.217021	-0.370153	-0.160347
H493	H	-0.287136	-0.333168	-0.122703
H494	H	-0.264500	-0.294091	-0.139070
H495	H	-0.291739	-0.322775	-0.199893
H496	H	-0.269097	-0.283710	-0.216269
H497	H	-0.194268	-0.363611	-0.147529
H498	H	-0.216908	-0.402683	-0.131163
H499	H	-0.204622	-0.380739	-0.184225
H500	H	-0.346709	-0.233340	-0.256801
C501	C	-0.339300	-0.240187	-0.495660
C502	C	-0.288448	-0.293633	-0.477230
C503	C	-0.261382	-0.318638	-0.425288
H504	H	-0.358688	-0.250071	-0.472929
H505	H	-0.336038	-0.211011	-0.495663
H506	H	-0.291712	-0.322804	-0.477223
H507	H	-0.269046	-0.283766	-0.499947
H508	H	-0.258120	-0.289461	-0.425291
H509	H	-0.280774	-0.328518	-0.402561
H510	H	-0.226874	-0.354900	-0.412778
C511	C	-0.287223	-0.300588	-0.547503
C512	C	-0.253834	-0.290764	-0.576177
C513	C	-0.201836	-0.344642	-0.549133
H514	H	-0.287103	-0.333101	-0.544196
H515	H	-0.274715	-0.311281	-0.513015
H516	H	-0.266339	-0.280080	-0.610656
H517	H	-0.253938	-0.258261	-0.579485
H518	H	-0.189328	-0.355334	-0.514645
H519	H	-0.201721	-0.377151	-0.545827
H520	H	-0.179174	-0.337982	-0.568582
H521	H	-0.444508	-0.142931	-0.698242
C522	C	-0.503937	-0.075565	-0.660658
C523	C	-0.504927	-0.030055	-0.707287
C524	C	-0.556849	0.023953	-0.734511
H525	H	-0.515017	-0.061765	-0.638500
H526	H	-0.527408	-0.083601	-0.669663
H527	H	-0.481464	-0.022019	-0.698281
H528	H	-0.493858	-0.043835	-0.729458
H529	H	-0.580320	0.015917	-0.743516
H530	H	-0.567924	0.037747	-0.712349
H531	H	-0.557529	0.054836	-0.766154
C532	C	-0.736189	0.156659	-0.661003
C533	C	-0.737174	0.202190	-0.707609
C534	C	-0.710157	0.177338	-0.734652
H535	H	-0.753126	0.142122	-0.670026
H536	H	-0.700250	0.123457	-0.638709
H537	H	-0.773106	0.235381	-0.729899
H538	H	-0.720234	0.216731	-0.698601
H539	H	-0.674218	0.144136	-0.712358
H540	H	-0.727097	0.162801	-0.743671
H541	H	-0.710818	0.208225	-0.766274
C542	C	-0.848622	0.260418	-0.713029
C543	C	-0.891607	0.255560	-0.712942
C544	C	-0.918559	0.280381	-0.764858
H545	H	-0.824884	0.238439	-0.725555
H546	H	-0.861493	0.302538	-0.735779
H547	H	-0.878736	0.213447	-0.690200
H548	H	-0.915357	0.277541	-0.700426
H549	H	-0.931429	0.322502	-0.787608
H550	H	-0.894817	0.258400	-0.777380
H551	H	-0.947730	0.277094	-0.764807
C552	C	-0.848993	0.260830	-0.548576
C553	C	-0.901915	0.309750	-0.581581
C554	C	-0.929047	0.334810	-0.554713
H555	H	-0.832090	0.275430	-0.539608
H556	H	-0.848409	0.230042	-0.516931
H557	H	-0.902496	0.340531	-0.613216
H558	H	-0.918832	0.295165	-0.590550
H559	H	-0.928464	0.304023	-0.523068
H560	H	-0.912141	0.349407	-0.545747
H561	H	-0.964959	0.368001	-0.577101
