data_functionalizedCrystal
_audit_creation_method	'MofGen! by Chris Wilmer'
_symmetry_space_group_name_H-M	'P1'
_symmetry_Int_Tables_number	1
_symmetry_cell_setting	triclinic
loop_
_symmetry_equiv_pos_as_xyz
  x,y,z
_cell_length_a	13.032831
_cell_length_b	21.295417
_cell_length_c	21.295420
_cell_angle_alpha	90.017552
_cell_angle_beta	97.184758
_cell_angle_gamma	82.834379
loop_
_atom_site_label
_atom_site_type_symbol
_atom_site_fract_x
_atom_site_fract_y
_atom_site_fract_z
Zn1	Zn	1.597491	-0.373134	0.477890
Zn2	Zn	1.597357	-0.478368	0.372605
Zn3	Zn	1.422752	-0.359735	0.359293
Zn4	Zn	1.422673	-0.464971	0.464499
O5	O	1.510068	-0.419052	0.418572
O6	O	1.743709	-0.398307	0.475100
O7	O	1.574172	-0.462630	0.282748
O8	O	1.446020	-0.273430	0.375058
O9	O	1.743610	-0.475622	0.397747
O10	O	1.574401	-0.283274	0.462191
O11	O	1.445890	-0.375471	0.272967
O12	O	1.276506	-0.362481	0.362073
O13	O	1.445886	-0.452790	0.554366
O14	O	1.276448	-0.439798	0.439367
O15	O	1.574325	-0.385317	0.564205
O16	O	1.574096	-0.564673	0.384762
O17	O	1.445756	-0.554831	0.452276
C18	C	1.238560	-0.398232	0.397823
C19	C	1.122407	-0.389341	0.388961
C20	C	1.509931	-0.582593	0.418526
C21	C	1.509968	-0.652564	0.418535
C22	C	1.070622	-0.423693	0.423197
C23	C	0.950572	-0.414503	0.414038
C24	C	1.576854	-0.690539	0.383427
C25	C	1.576903	-0.756285	0.383445
C26	C	1.510048	-0.784052	0.418563
C27	C	1.443157	-0.746069	0.453679
C28	C	1.443117	-0.680325	0.453665
N29	N	1.418631	-0.880314	0.416376
N30	N	1.418671	-0.942768	0.416385
C31	C	1.510165	-0.982136	0.418608
N32	N	1.601618	-0.956690	0.420808
N33	N	1.601576	-0.894230	0.420795
C34	C	1.510084	-0.855341	0.418582
C35	C	1.577109	-1.091401	0.383517
C36	C	1.577160	-1.157149	0.383540
C37	C	1.443405	-1.146931	0.453770
C38	C	1.443363	-1.081185	0.453752
C39	C	1.510214	-1.053424	0.418622
C40	C	1.782637	-0.439953	0.439402
C41	C	1.898789	-0.448860	0.448279
C42	C	1.510112	-0.419054	0.582765
C43	C	1.510130	-0.419054	0.652735
C44	C	1.510234	-0.254874	0.418633
C45	C	1.510305	-0.184912	0.418659
C46	C	1.443344	-0.373675	0.680499
C47	C	1.443325	-0.373676	0.746240
C48	C	1.510111	-0.419053	0.784216
C49	C	1.576902	-0.464441	0.756443
C50	C	1.576912	-0.464442	0.690703
N51	N	1.601565	-0.430893	0.894437
N52	N	1.601552	-0.430888	0.956888
C53	C	1.510084	-0.419054	0.982288
N54	N	1.418626	-0.407213	0.942879
N55	N	1.418640	-0.407214	0.880423
C56	C	1.510107	-0.419057	0.855501
C57	C	1.443271	-0.373674	1.081337
C58	C	1.443251	-0.373680	1.147079
C59	C	1.576837	-0.464442	1.157281
C60	C	1.576848	-0.464439	1.091540
C61	C	1.510067	-0.419051	1.053571
C62	C	1.510027	-0.419062	1.255017
C63	C	1.510036	-0.419058	1.185049
H64	H	1.115163	-0.459903	0.459289
C65	C	1.650224	-0.514430	0.798207
N66	N	1.705399	-0.552112	0.829659
C67	C	1.369864	-1.177471	0.492402
N68	N	1.314473	-1.200477	0.521502
C69	C	0.890409	-0.365577	0.365279
N70	N	0.845092	-0.328727	0.328553
C71	C	1.062240	-0.340417	0.340203
N72	N	1.016923	-0.303567	0.303478
H73	H	0.943325	-0.485072	0.484376
H74	H	1.631302	-0.501395	0.668098
H75	H	1.631236	-0.501391	1.068934
H76	H	1.631291	-0.667939	0.354824
H77	H	1.388894	-1.050263	0.482337
C78	C	1.650480	-0.798065	0.344817
N79	N	1.705896	-0.829532	0.315721
H80	H	1.388725	-0.768681	0.482274
C81	C	1.369547	-0.638551	0.492298
N82	N	1.314138	-0.607087	0.521400
H83	H	1.388941	-0.336720	0.768851
C84	C	1.650661	-1.060863	0.344884
N85	N	1.706065	-1.037864	0.315788
C86	C	1.650743	-1.198922	0.344915
N87	N	1.706165	-1.230386	0.315820
H88	H	1.388961	-0.336719	0.649589
H89	H	1.388857	-0.336728	1.169682
H90	H	1.388893	-0.336717	1.050421
C91	C	1.650350	-0.514333	1.199054
N92	N	1.705737	-0.551903	1.230522
