data_functionalizedCrystal
_audit_creation_method	'MofGen! by Chris Wilmer'
_symmetry_space_group_name_H-M	'P1'
_symmetry_Int_Tables_number	1
_symmetry_cell_setting	triclinic
loop_
_symmetry_equiv_pos_as_xyz
  x,y,z
_cell_length_a	12.827893
_cell_length_b	18.215404
_cell_length_c	18.215399
_cell_angle_alpha	89.972485
_cell_angle_beta	90.017704
_cell_angle_gamma	89.976206
loop_
_atom_site_label
_atom_site_type_symbol
_atom_site_fract_x
_atom_site_fract_y
_atom_site_fract_z
Zn1	Zn	1.597592	0.292992	0.416076
Zn2	Zn	1.597465	0.416064	0.293011
Zn3	Zn	1.422838	0.293015	0.293028
Zn4	Zn	1.422793	0.416022	0.416040
O5	O	1.510172	0.354523	0.354539
O6	O	1.743811	0.309326	0.399759
O7	O	1.574267	0.399768	0.190029
O8	O	1.446092	0.190028	0.309373
O9	O	1.743718	0.399746	0.309344
O10	O	1.574483	0.190011	0.399776
O11	O	1.445969	0.309365	0.190042
O12	O	1.276596	0.309325	0.309338
O13	O	1.446015	0.399674	0.519029
O14	O	1.276563	0.399697	0.399715
O15	O	1.574439	0.309285	0.519056
O16	O	1.574223	0.519042	0.309309
O17	O	1.445892	0.519012	0.399698
C18	C	1.238662	0.354509	0.354525
C19	C	1.122509	0.354521	0.354536
C20	C	1.510067	0.545730	0.354514
C21	C	1.510118	0.627529	0.354528
C22	C	1.510236	0.354473	0.546492
C23	C	1.510263	0.354451	0.628291
C24	C	1.070736	0.399310	0.399189
C25	C	0.950685	0.399323	0.399202
C26	C	1.782742	0.354538	0.354553
C27	C	1.898895	0.354544	0.354560
C28	C	1.577101	0.815714	0.307558
C29	C	1.577150	0.892573	0.307580
C30	C	1.443403	0.892581	0.401625
C31	C	1.443361	0.815723	0.401607
C32	C	1.510208	0.777292	0.354569
C33	C	1.510299	0.931008	0.354610
C34	C	1.510352	1.014342	0.354634
C35	C	1.510157	0.693953	0.354546
C36	C	1.510313	1.162570	0.354594
C37	C	1.510390	1.080771	0.354651
C38	C	1.510169	0.354521	0.163333
C39	C	1.510344	0.354335	0.081534
C40	C	1.577158	0.307341	0.816500
C41	C	1.577170	0.307320	0.893359
C42	C	1.443443	0.401447	0.893320
C43	C	1.443426	0.401464	0.816463
C44	C	1.510289	0.354412	0.778054
C45	C	1.510318	0.354374	0.931771
C46	C	1.510331	0.354351	1.015104
C47	C	1.510275	0.354434	0.694715
H48	H	1.115287	0.437643	0.437410
C49	C	1.650731	0.255543	0.935648
C50	C	1.732762	0.287422	0.988489
C51	C	1.806325	0.235641	1.030778
C52	C	1.797857	0.151982	1.020224
C53	C	1.715822	0.120099	0.967381
C54	C	1.642259	0.171879	0.925092
H55	H	1.739034	0.349355	0.996303
H56	H	1.867053	0.259243	1.069896
H57	H	1.852313	0.113651	1.051529
H58	H	1.709550	0.058165	0.959566
H59	H	1.581531	0.148277	0.885974
H60	H	0.943413	0.316200	0.316327
H61	H	1.389007	0.439756	0.924601
C62	C	1.369866	0.453246	0.774167
C63	C	1.296328	0.505008	0.816410
C64	C	1.222769	0.556785	0.774114
C65	C	1.222749	0.556800	0.689574
C66	C	1.296289	0.505037	0.647325
C67	C	1.369848	0.453260	0.689622
H68	H	1.296341	0.504998	0.878996
H69	H	1.168330	0.595104	0.805390
H70	H	1.168296	0.595129	0.658264
H71	H	1.296277	0.505047	0.584740
H72	H	1.424288	0.414941	0.658346
H73	H	1.631623	0.923853	0.269301
C74	C	1.369865	0.934857	0.453358
C75	C	1.296284	0.892591	0.505071
C76	C	1.222741	0.934866	0.556803
C77	C	1.222778	1.019406	0.556823
C78	C	1.296362	1.061676	0.505108
C79	C	1.369905	1.019402	0.453376
H80	H	1.296254	0.830005	0.505058
H81	H	1.168269	0.903574	0.595085
H82	H	1.168337	1.050700	0.595118
H83	H	1.296392	1.124262	0.505121
H84	H	1.424376	1.050694	0.415094
H85	H	0.906161	0.437670	0.437428
H86	H	1.077958	0.316182	0.316321
C87	C	1.650641	0.773439	0.255825
C88	C	1.650599	0.688899	0.255800
C89	C	1.724144	0.646626	0.204068
C90	C	1.797731	0.688893	0.152361
C91	C	1.797776	0.773438	0.152385
C92	C	1.724231	0.815711	0.204117
H93	H	1.596123	0.657606	0.294078
H94	H	1.724111	0.584040	0.204050
H95	H	1.852174	0.657600	0.114066
H96	H	1.852252	0.804731	0.114107
H97	H	1.724264	0.878297	0.204134
C98	C	1.369773	0.773454	0.453323
C99	C	1.250985	0.784087	0.447245
C100	C	1.177405	0.741818	0.498961
C101	C	1.222614	0.688916	0.556756
C102	C	1.341409	0.678280	0.562836
C103	C	1.414988	0.720549	0.511120
H104	H	1.217513	0.823251	0.404460
H105	H	1.089465	0.749691	0.494460
H106	H	1.168146	0.657626	0.595039
H107	H	1.374881	0.639117	0.605621
H108	H	1.502928	0.712676	0.515621
H109	H	1.631599	0.269027	0.785230
