data_functionalizedCrystal
_audit_creation_method	'MofGen! by Chris Wilmer'
_symmetry_space_group_name_H-M	'P1'
_symmetry_Int_Tables_number	1
_symmetry_cell_setting	triclinic
loop_
_symmetry_equiv_pos_as_xyz
  x,y,z
_cell_length_a	10.868271
_cell_length_b	11.026607
_cell_length_c	11.026607
_cell_angle_alpha	71.413983
_cell_angle_beta	90.002960
_cell_angle_gamma	89.996513
loop_
_atom_site_label
_atom_site_type_symbol
_atom_site_fract_x
_atom_site_fract_y
_atom_site_fract_z
O1	O	0.102319	-1.726733	0.533624
O2	O	0.435653	-1.393400	0.866958
O3	O	0.768986	-1.060066	1.200291
O4	O	0.102321	-1.360153	0.472861
O5	O	0.435655	-1.026820	0.806194
O6	O	0.768988	-0.693486	1.139527
O7	O	0.102316	-1.513061	0.319952
O8	O	0.435649	-1.179728	0.653286
O9	O	0.768983	-0.846395	0.986619
O10	O	0.102325	-1.573825	0.686532
O11	O	0.435658	-1.240492	1.019866
O12	O	0.768991	-0.907158	1.353199
O13	O	-0.102329	-1.513044	0.319941
O14	O	0.231005	-1.179710	0.653275
O15	O	0.564338	-0.846377	0.986608
O16	O	-0.102323	-1.360135	0.472850
O17	O	0.231010	-1.026802	0.806183
O18	O	0.564343	-0.693469	1.139516
O19	O	-0.102325	-1.726715	0.533613
O20	O	0.231008	-1.393382	0.866947
O21	O	0.564341	-1.060049	1.200280
Zn22	Zn	-0.134816	-1.543423	0.503230
Zn23	Zn	0.198517	-1.210089	0.836563
Zn24	Zn	0.531850	-0.876756	1.169896
Zn25	Zn	0.134812	-1.543446	0.503244
Zn26	Zn	0.468145	-1.210113	0.836578
Zn27	Zn	0.801479	-0.876779	1.169911
O28	O	-0.102320	-1.573807	0.686521
O29	O	0.231013	-1.240474	1.019855
O30	O	0.564347	-0.907141	1.353188
C31	C	-0.000001	-1.312485	0.461645
C32	C	0.333332	-0.979151	0.794979
C33	C	0.666666	-0.645818	1.128312
C34	C	-0.000000	-1.170471	0.428228
C35	C	0.333333	-0.837137	0.761562
C36	C	0.666667	-0.503804	1.094895
N37	N	-0.318830	-1.543416	0.503221
N38	N	0.014503	-1.210082	0.836554
N39	N	0.347836	-0.876749	1.169888
C40	C	-0.000005	-1.501843	0.272287
C41	C	0.333328	-1.168509	0.605621
C42	C	0.666662	-0.835176	0.938954
C43	C	-0.000000	-1.468426	0.130273
C44	C	0.333333	-1.135092	0.463607
C45	C	0.666666	-0.801759	0.796940
C46	C	-0.569836	-1.543439	0.503240
C47	C	-0.236503	-1.210105	0.836573
C48	C	0.096830	-0.876772	1.169907
C49	C	-0.430159	-1.543423	0.503232
C50	C	-0.096825	-1.210089	0.836566
C51	C	0.236508	-0.876756	1.169899
N52	N	0.318826	-1.543461	0.503245
N53	N	0.652159	-1.210127	0.836578
N54	N	0.985493	-0.876794	1.169912
C55	C	-0.000001	-1.774384	0.544828
C56	C	0.333333	-1.441051	0.878162
C57	C	0.666666	-1.107717	1.211495
C58	C	0.000007	-1.916398	0.578245
C59	C	0.333340	-1.583064	0.911579
C60	C	0.666673	-1.249731	1.244912
C61	C	0.000003	-1.116821	0.520498
C62	C	0.333336	-0.783488	0.853831
C63	C	0.666670	-0.450155	1.187165
C64	C	0.000004	-0.970043	0.485962
C65	C	0.333337	-0.636709	0.819296
C66	C	0.666670	-0.303376	1.152629
C67	C	0.000001	-1.560695	0.076624
C68	C	0.333334	-1.227362	0.409957
C69	C	0.666668	-0.894029	0.743291
C70	C	0.000006	-1.526160	-0.070155
C71	C	0.333339	-1.192826	0.263179
C72	C	0.666672	-0.859493	0.596512
C73	C	0.000003	-1.585026	0.734187
C74	C	0.333337	-1.251693	1.067520
C75	C	0.666670	-0.918359	1.400853
C76	C	0.000007	-1.618443	0.876200
C77	C	0.333340	-1.285109	1.209534
C78	C	0.666674	-0.951776	1.542867
H79	H	-0.000002	-1.179555	0.625061
H80	H	0.333332	-0.846221	0.958394
H81	H	0.666665	-0.512888	1.291728
N82	N	0.000024	-0.999464	0.716766
N83	N	0.333358	-0.666130	1.050100
N84	N	0.666691	-0.332797	1.383433
H85	H	-0.075833	-0.980748	0.760649
H86	H	0.257500	-0.647415	1.093982
H87	H	0.590834	-0.314082	1.427316
H88	H	0.000073	-1.092512	0.721707
H89	H	0.333406	-0.759178	1.055041
H90	H	0.666740	-0.425845	1.388374
H91	H	0.000099	-1.723013	-0.061072
H92	H	0.333432	-1.389680	0.272261
H93	H	0.666765	-1.056346	0.605595
H94	H	0.000008	-1.363863	0.067540
H95	H	0.333342	-1.030530	0.400874
H96	H	0.666675	-0.697196	0.734207
N97	N	-0.000015	-0.886966	0.347445
N98	N	0.333319	-0.553632	0.680779
N99	N	0.666652	-0.220299	1.014112
H100	H	-0.000017	-0.793888	0.342408
H101	H	0.333317	-0.460555	0.675741
H102	H	0.666650	-0.127222	1.009074
H103	H	0.075847	-0.905782	0.303641
H104	H	0.409180	-0.572448	0.636975
H105	H	0.742513	-0.239115	0.970308
H106	H	-0.000007	-1.665258	0.139357
H107	H	0.333326	-1.331925	0.472691
H108	H	0.666659	-0.998592	0.806024
N109	N	-0.000018	-1.087390	0.289718
N110	N	0.333315	-0.754056	0.623052
N111	N	0.666648	-0.420723	0.956385
H112	H	-0.000020	-0.994312	0.284681
H113	H	0.333313	-0.660979	0.618014
H114	H	0.666646	-0.327646	0.951347
H115	H	0.075843	-1.106206	0.245914
H116	H	0.409176	-0.772872	0.579248
H117	H	0.742510	-0.439539	0.912581
N118	N	0.000019	-1.387643	-0.153232
N119	N	0.333352	-1.054309	0.180102
N120	N	0.666685	-0.720976	0.513435
H121	H	0.000023	-1.382605	-0.246309
H122	H	0.333356	-1.049272	0.087024
H123	H	0.666689	-0.715938	0.420358
H124	H	-0.075846	-1.343832	-0.134428
H125	H	0.257487	-1.010498	0.198905
H126	H	0.590820	-0.677165	0.532239
