data_functionalizedCrystal
_audit_creation_method	'MofGen! by Chris Wilmer'
_symmetry_space_group_name_H-M	'P1'
_symmetry_Int_Tables_number	1
_symmetry_cell_setting	triclinic
loop_
_symmetry_equiv_pos_as_xyz
  x,y,z
_cell_length_a	14.044220
_cell_length_b	14.971486
_cell_length_c	14.048226
_cell_angle_alpha	89.993360
_cell_angle_beta	89.998644
_cell_angle_gamma	88.401503
loop_
_atom_site_label
_atom_site_type_symbol
_atom_site_fract_x
_atom_site_fract_y
_atom_site_fract_z
O1	O	1.257954	0.215664	-0.079060
O2	O	1.757954	0.715664	0.420940
O3	O	0.981976	0.207881	-0.079084
O4	O	1.481976	0.707881	0.420916
O5	O	1.127361	0.082155	-0.079065
O6	O	1.627361	0.582155	0.420935
O7	O	1.112568	0.341390	-0.079080
O8	O	1.612568	0.841390	0.420920
O9	O	1.127344	0.082146	0.079256
O10	O	1.627344	0.582146	0.579256
O11	O	0.981958	0.207872	0.079237
O12	O	1.481958	0.707872	0.579237
O13	O	1.257936	0.215654	0.079261
O14	O	1.757936	0.715654	0.579261
Zn15	Zn	1.119944	0.211762	0.104386
Zn16	Zn	1.619944	0.711762	0.604386
Zn17	Zn	1.119967	0.211774	-0.104209
Zn18	Zn	1.619967	0.711774	0.395791
O19	O	1.112550	0.341380	0.079241
O20	O	1.612550	0.841380	0.579241
C21	C	1.126691	0.048774	0.000095
C22	C	1.626691	0.548774	0.500095
C23	C	1.124708	-0.050680	0.000094
C24	C	1.624708	0.449320	0.500094
C25	C	0.946648	0.204470	0.000073
C26	C	1.446648	0.704470	0.500073
C27	C	0.841411	0.194309	0.000064
C28	C	1.341411	0.694309	0.500064
C29	C	1.210119	-0.101176	0.000102
C30	C	1.710119	0.398824	0.500102
C31	C	1.208250	-0.194623	0.000093
C32	C	1.708250	0.305377	0.500093
C33	C	1.120970	-0.237571	0.000082
C34	C	1.620970	0.262429	0.500082
C35	C	1.035554	-0.187067	0.000071
C36	C	1.535554	0.312933	0.500071
C37	C	1.037423	-0.093623	0.000074
C38	C	1.537423	0.406377	0.500074
C39	C	1.031663	-0.381836	0.000067
C40	C	1.531663	0.118164	0.500067
C41	C	1.029793	-0.475288	0.000066
C42	C	1.529793	0.024712	0.500066
C43	C	1.202490	-0.482837	0.000086
C44	C	1.702490	0.017163	0.500086
C45	C	1.204360	-0.389392	0.000089
C46	C	1.704360	0.110608	0.500089
C47	C	1.118942	-0.338895	0.000080
C48	C	1.618942	0.161105	0.500080
C49	C	0.648729	0.175732	0.000084
C50	C	1.148729	0.675732	0.500084
C51	C	0.591177	0.247799	0.000084
C52	C	1.091177	0.747799	0.500084
C53	C	0.483962	0.237463	0.000095
C54	C	0.983962	0.737463	0.500095
C55	C	0.755954	0.186067	0.000073
C56	C	1.255954	0.686067	0.500073
C57	C	1.293263	0.219065	0.000101
C58	C	1.793263	0.719065	0.500101
C59	C	1.398500	0.229227	0.000104
C60	C	1.898500	0.729227	0.500104
C61	C	1.113220	0.374762	0.000079
C62	C	1.613220	0.874762	0.500079
C63	C	1.115203	0.474215	0.000074
C64	C	1.615203	0.974215	0.500074
N65	N	1.119935	0.211753	0.246746
N66	N	1.619935	0.711753	0.746746
N67	N	1.119984	0.211776	-0.246570
N68	N	1.619984	0.711776	0.253430
C69	C	1.184333	0.156108	0.296573
C70	C	1.684333	0.656108	0.796573
C71	C	1.184339	0.156108	0.396231
C72	C	1.684339	0.656108	0.896231
C73	C	1.119952	0.211758	0.446060
C74	C	1.619952	0.711758	0.946060
C75	C	1.055548	0.267406	0.396226
C76	C	1.555548	0.767406	0.896226
C77	C	1.055538	0.267400	0.296570
C78	C	1.555538	0.767400	0.796570
C79	C	1.055575	0.267414	0.603941
C80	C	1.555575	0.767414	1.103941
C81	C	1.055587	0.267421	0.703603
C82	C	1.555587	0.767421	1.203603
C83	C	1.184377	0.156122	0.703601
C84	C	1.684377	0.656122	1.203601
C85	C	1.184366	0.156117	0.603945
C86	C	1.684366	0.656117	1.103945
C87	C	1.119963	0.211766	0.554118
C88	C	1.619963	0.711766	1.054118
H89	H	1.281192	-0.066215	0.000117
H90	H	1.781192	0.433785	0.500117
H91	H	0.617481	0.106277	0.000093
H92	H	1.117481	0.606277	0.500093
C93	C	1.302209	-0.250166	0.000117
C94	C	1.802209	0.249834	0.500117
N95	N	1.372982	-0.292000	0.000140
N96	N	1.872982	0.208000	0.500140
H97	H	1.272040	-0.523957	0.000090
H98	H	1.772040	-0.023957	0.500090
H99	H	1.236799	0.110807	0.563374
H100	H	1.736799	0.610807	1.063374
H101	H	0.964489	-0.222043	0.000056
H102	H	1.464489	0.277957	0.500056
H103	H	1.275430	-0.354427	0.000105
H104	H	1.775430	0.145573	0.500105
C105	C	0.633392	0.341639	0.000062
C106	C	1.133392	0.841639	0.500062
N107	N	0.665193	0.412317	0.000039
N108	N	1.165193	0.912317	0.500039
C109	C	1.255164	0.094887	0.241770
C110	C	1.755164	0.594887	0.741770
N111	N	1.308514	0.048770	0.200495
N112	N	1.808514	0.548770	0.700495
C113	C	1.255158	0.094871	0.451036
C114	C	1.755158	0.594871	0.951036
N115	N	1.308494	0.048735	0.492314
N116	N	1.808494	0.548735	0.992314
H117	H	1.236815	0.110811	0.744176
H118	H	1.736815	0.610811	1.244176
H119	H	0.958722	-0.510253	0.000072
H120	H	1.458722	-0.010253	0.500072
C121	C	0.937699	-0.326292	0.000061
C122	C	1.437699	0.173708	0.500061
N123	N	0.866926	-0.284455	0.000064
N124	N	1.366926	0.215545	0.500064
H125	H	1.003155	0.312736	0.744169
H126	H	1.503155	0.812736	1.244169
H127	H	1.003128	0.312726	0.563375
H128	H	1.503128	0.812726	1.063375
H129	H	1.003118	0.312714	0.436803
H130	H	1.503118	0.812714	0.936803
C131	C	0.984703	0.328622	0.241762
C132	C	1.484703	0.828622	0.741762
N133	N	0.931349	0.374736	0.200481
N134	N	1.431349	0.874736	0.700481
H135	H	0.967873	-0.052509	0.000067
H136	H	1.467873	0.447491	0.500067
