data_functionalizedCrystal
_audit_creation_method	'MofGen! by Chris Wilmer'
_symmetry_space_group_name_H-M	'P1'
_symmetry_Int_Tables_number	1
_symmetry_cell_setting	triclinic
loop_
_symmetry_equiv_pos_as_xyz
  x,y,z
_cell_length_a	14.908571
_cell_length_b	19.121063
_cell_length_c	14.908694
_cell_angle_alpha	95.839462
_cell_angle_beta	83.592472
_cell_angle_gamma	89.303906
loop_
_atom_site_label
_atom_site_type_symbol
_atom_site_fract_x
_atom_site_fract_y
_atom_site_fract_z
Zn1	Zn	1.394122	-0.369756	-0.610618
Zn2	Zn	1.727455	-0.036423	-0.277285
Zn3	Zn	2.060789	0.296911	0.056049
Zn4	Zn	1.379559	-0.480018	-0.464952
Zn5	Zn	1.712892	-0.146684	-0.131619
Zn6	Zn	2.046225	0.186649	0.201715
Zn7	Zn	1.234771	-0.355390	-0.449811
Zn8	Zn	1.568104	-0.022057	-0.116478
Zn9	Zn	1.901437	0.311276	0.216856
Zn10	Zn	1.236993	-0.479963	-0.607548
Zn11	Zn	1.570327	-0.146630	-0.274214
Zn12	Zn	1.903660	0.186704	0.059119
O13	O	1.311361	-0.421282	-0.533232
O14	O	1.644694	-0.087948	-0.199899
O15	O	1.978028	0.245385	0.133435
O16	O	1.518543	-0.390417	-0.598917
O17	O	1.851877	-0.057084	-0.265584
O18	O	2.185210	0.276250	0.067750
O19	O	1.353327	-0.457496	-0.335968
O20	O	1.686661	-0.124163	-0.002635
O21	O	2.019994	0.209170	0.330698
O22	O	1.261073	-0.259017	-0.466091
O23	O	1.594407	0.074316	-0.132757
O24	O	1.927740	0.407650	0.200576
O25	O	1.507844	-0.471426	-0.491897
O26	O	1.841177	-0.138093	-0.158563
O27	O	2.174511	0.195241	0.174770
O28	O	1.378148	-0.269571	-0.584235
O29	O	1.711481	0.063762	-0.250902
O30	O	2.044815	0.397095	0.082431
O31	O	1.246952	-0.365933	-0.324844
O32	O	1.580285	-0.032600	0.008489
O33	O	1.913619	0.300733	0.341822
O34	O	1.108712	-0.365880	-0.463113
O35	O	1.442046	-0.032547	-0.129780
O36	O	1.775379	0.300786	0.203553
O37	O	1.264862	-0.471333	-0.734930
O38	O	1.598195	-0.138000	-0.401597
O39	O	1.931528	0.195334	-0.068263
O40	O	1.110345	-0.457403	-0.579002
O41	O	1.443679	-0.124070	-0.245668
O42	O	1.777012	0.209263	0.087665
O43	O	1.380303	-0.390364	-0.737186
O44	O	1.713637	-0.057031	-0.403853
O45	O	2.046970	0.276302	-0.070519
O46	O	1.355483	-0.578289	-0.488919
O47	O	1.688816	-0.244956	-0.155586
O48	O	2.022149	0.088377	0.177748
O49	O	1.250741	-0.578249	-0.593683
O50	O	1.584074	-0.244916	-0.260350
O51	O	1.917407	0.088417	0.072983
C52	C	1.076767	-0.410078	-0.519082
C53	C	1.410100	-0.076744	-0.185749
C54	C	1.743433	0.256589	0.147585
C55	C	0.976407	-0.405303	-0.513051
C56	C	1.309740	-0.071969	-0.179717
C57	C	1.643073	0.261364	0.153616
C58	C	1.301798	-0.603754	-0.542632
C59	C	1.635131	-0.270421	-0.209299
C60	C	1.968465	0.062913	0.124034
C61	C	1.297791	-0.681822	-0.546689
C62	C	1.631125	-0.348489	-0.213356
C63	C	1.964458	-0.015155	0.119978
C64	C	0.789552	-0.491764	-0.622243
C65	C	1.122885	-0.158431	-0.288910
C66	C	1.456219	0.174902	0.044423
C67	C	0.695255	-0.487280	-0.616580
C68	C	1.028588	-0.153947	-0.283247
C69	C	1.361922	0.179387	0.050087
C70	C	0.693513	-0.391847	-0.496065
C71	C	1.026847	-0.058513	-0.162732
C72	C	1.360180	0.274820	0.170601
C73	C	0.787811	-0.396331	-0.501729
C74	C	1.121144	-0.062998	-0.168395
C75	C	1.454477	0.270336	0.164938
C76	C	0.835827	-0.446292	-0.564819
C77	C	1.169160	-0.112959	-0.231486
C78	C	1.502493	0.220374	0.101848
C79	C	0.930125	-0.450779	-0.570478
C80	C	1.263459	-0.117446	-0.237144
C81	C	1.596792	0.215887	0.096189
C82	C	0.928383	-0.355343	-0.449968
C83	C	1.261716	-0.022010	-0.116635
C84	C	1.595049	0.311324	0.216699
C85	C	0.834085	-0.350859	-0.444304
C86	C	1.167419	-0.017525	-0.110971
C87	C	1.500752	0.315808	0.222362
C88	C	1.350490	-0.718500	-0.494101
C89	C	1.683823	-0.385167	-0.160767
C90	C	2.017157	-0.051834	0.172566
C91	C	1.346727	-0.791854	-0.497922
C92	C	1.680061	-0.458520	-0.164588
C93	C	2.013394	-0.125187	0.168745
C94	C	1.290260	-0.828527	-0.554327
C95	C	1.623594	-0.495194	-0.220994
C96	C	1.956927	-0.161860	0.112340
C97	C	1.237560	-0.791844	-0.606921
C98	C	1.570893	-0.458510	-0.273588
C99	C	1.904226	-0.125177	0.059745
C100	C	1.241328	-0.718492	-0.603105
C101	C	1.574661	-0.385159	-0.269771
C102	C	1.907994	-0.051825	0.063562
C103	C	1.276157	-1.050002	-0.568582
C104	C	1.609490	-0.716669	-0.235249
C105	C	1.942823	-0.383336	0.098085
C106	C	1.272391	-1.123359	-0.572393
C107	C	1.605724	-0.790026	-0.239059
C108	C	1.939057	-0.456692	0.094274
C109	C	1.381560	-1.123364	-0.463394
C110	C	1.714893	-0.790031	-0.130060
C111	C	2.048227	-0.456697	0.203273
C112	C	1.385319	-1.050011	-0.459578
C113	C	1.718652	-0.716677	-0.126245
C114	C	2.051986	-0.383344	0.207089
C115	C	1.332622	-1.013334	-0.512176
C116	C	1.665955	-0.680001	-0.178843
C117	C	1.999289	-0.346667	0.154491
C118	C	1.286411	-0.903506	-0.558232
C119	C	1.619744	-0.570173	-0.224899
C120	C	1.953077	-0.236839	0.108435
C121	C	1.336477	-0.938357	-0.508275
C122	C	1.669810	-0.605023	-0.174942
C123	C	2.003144	-0.271690	0.158391
C124	C	1.546872	-0.432530	-0.547438
C125	C	1.880205	-0.099197	-0.214105
C126	C	2.213538	0.234137	0.119228
C127	C	1.647232	-0.437323	-0.553492
C128	C	1.980565	-0.103990	-0.220159
C129	C	2.313899	0.229343	0.113175
C130	C	1.324455	-0.432445	-0.769902
C131	C	1.657788	-0.099112	-0.436568
C132	C	1.991122	0.234222	-0.103235
C133	C	1.330035	-0.437202	-0.870756
C134	C	1.663368	-0.103869	-0.537423
C135	C	1.996702	0.229465	-0.204090
C136	C	1.320987	-0.238099	-0.523817
C137	C	1.654321	0.095234	-0.190483
C138	C	1.987654	0.428568	0.142850
C139	C	1.325089	-0.160037	-0.519804
C140	C	1.658423	0.173296	-0.186471
C141	C	1.991756	0.506629	0.146862
C142	C	1.229730	-0.350798	-1.048689
C143	C	1.563064	-0.017464	-0.715356
C144	C	1.896397	0.315869	-0.382023
C145	C	1.234970	-0.355265	-1.143451
C146	C	1.568303	-0.021931	-0.810117
C147	C	1.901637	0.311402	-0.476784
C148	C	1.345749	-0.450607	-1.155042
C149	C	1.679082	-0.117273	-0.821709
C150	C	2.012415	0.216060	-0.488375
C151	C	1.340509	-0.446140	-1.060281
C152	C	1.673842	-0.112806	-0.726947
C153	C	2.007176	0.220527	-0.393614
C154	C	1.282499	-0.396233	-1.007107
C155	C	1.615832	-0.062899	-0.673774
C156	C	1.949165	0.270434	-0.340441
C157	C	1.277264	-0.391762	-0.912344
C158	C	1.610598	-0.058429	-0.579011
C159	C	1.943931	0.274904	-0.245678
C160	C	1.388038	-0.487107	-0.923937
C161	C	1.721371	-0.153774	-0.590604
C162	C	2.054705	0.179559	-0.257271
C163	C	1.393278	-0.491575	-1.018699
C164	C	1.726611	-0.158241	-0.685365
C165	C	2.059944	0.175092	-0.352032
C166	C	1.298373	-0.410114	-0.297484
C167	C	1.631706	-0.076780	0.035849
C168	C	1.965039	0.256553	0.369183
C169	C	1.292978	-0.405167	-0.196630
C170	C	1.626312	-0.071834	0.136703
C171	C	1.959645	0.261500	0.470036
H172	H	0.969218	-0.491461	-0.621848
H173	H	1.302552	-0.158128	-0.288514
H174	H	1.635885	0.175205	0.044819
H175	H	0.657582	-0.524307	-0.663343
H176	H	0.990915	-0.190973	-0.330009
H177	H	1.324249	0.142360	0.003324
H178	H	1.396467	-0.688645	-0.448165
H179	H	1.729801	-0.355312	-0.114832
H180	H	2.063134	-0.021979	0.218501
H181	H	1.198416	-0.688629	-0.645929
H182	H	1.531749	-0.355296	-0.312596
H183	H	1.865083	-0.021963	0.020738
H184	H	0.966069	-0.318318	-0.403207
H185	H	1.299402	0.015016	-0.069873
H186	H	1.632736	0.348349	0.263460
Br187	Br	1.471996	-0.559306	-1.090870
Br188	Br	1.805329	-0.225973	-0.757536
Br189	Br	2.138662	0.107361	-0.424203
H190	H	1.182504	-0.310155	-1.005395
H191	H	1.515838	0.023178	-0.672061
H192	H	1.849171	0.356511	-0.338728
H193	H	0.654403	-0.351166	-0.444706
H194	H	0.987736	-0.017833	-0.111372
H195	H	1.321070	0.315500	0.221961
H196	H	0.794978	-0.310180	-0.392940
H197	H	1.128311	0.023153	-0.059607
H198	H	1.461645	0.356487	0.273726
Br199	Br	1.418256	-0.841630	-0.426554
Br200	Br	1.751590	-0.508296	-0.093221
Br201	Br	2.084923	-0.174963	0.240113
H202	H	1.431299	-1.020153	-0.413648
H203	H	1.764632	-0.686819	-0.080315
H204	H	2.097965	-0.353486	0.253018
Br205	Br	0.854720	-0.559575	-0.707851
Br206	Br	1.188053	-0.226242	-0.374517
Br207	Br	1.521387	0.107091	-0.041184
Br208	Br	1.453078	-1.173143	-0.392020
Br209	Br	1.786411	-0.839810	-0.058686
Br210	Br	2.119745	-0.506477	0.274647
H211	H	1.192000	-0.318267	-1.177303
H212	H	1.525334	0.015067	-0.843969
H213	H	1.858667	0.348400	-0.510636
Br214	Br	1.195736	-1.173129	-0.648932
Br215	Br	1.529069	-0.839795	-0.315598
Br216	Br	1.862402	-0.506462	0.017735
Br217	Br	1.209780	-0.953283	-0.634782
Br218	Br	1.543114	-0.619950	-0.301448
Br219	Br	1.876447	-0.286616	0.031885
Br220	Br	1.160933	-0.841615	-0.683481
Br221	Br	1.494266	-0.508281	-0.350148
Br222	Br	1.827600	-0.174948	-0.016814
Br223	Br	1.198542	-0.324030	-0.840181
Br224	Br	1.531875	0.009304	-0.506848
Br225	Br	1.865209	0.342637	-0.173514
H226	H	1.233247	-1.020146	-0.611408
H227	H	1.566580	-0.686812	-0.278074
H228	H	1.899913	-0.353479	0.055259
Br229	Br	1.459661	-0.548770	-0.867501
Br230	Br	1.792995	-0.215437	-0.534167
Br231	Br	2.126328	0.117897	-0.200834
Br232	Br	1.424453	-0.518344	-1.227220
Br233	Br	1.757786	-0.185011	-0.893887
Br234	Br	2.091120	0.148323	-0.560553
H235	H	1.382456	-0.908496	-0.462354
H236	H	1.715789	-0.575162	-0.129020
H237	H	2.049123	-0.241829	0.204313
