data_functionalizedCrystal
_audit_creation_method	'MofGen! by Chris Wilmer'
_symmetry_space_group_name_H-M	'P1'
_symmetry_Int_Tables_number	1
_symmetry_cell_setting	triclinic
loop_
_symmetry_equiv_pos_as_xyz
  x,y,z
_cell_length_a	12.594516
_cell_length_b	19.077105
_cell_length_c	19.076919
_cell_angle_alpha	89.923776
_cell_angle_beta	92.277239
_cell_angle_gamma	92.287367
loop_
_atom_site_label
_atom_site_type_symbol
_atom_site_fract_x
_atom_site_fract_y
_atom_site_fract_z
Zn1	Zn	-0.514930	-1.058319	-0.440450
Zn2	Zn	-0.686069	-1.062975	-0.322954
Zn3	Zn	-0.500672	-0.945535	-0.318243
Zn4	Zn	-0.685427	-0.940797	-0.435707
O5	O	-0.596775	-1.001907	-0.379338
O6	O	-0.543868	-1.157269	-0.428821
O7	O	-0.655777	-1.051328	-0.223998
O8	O	-0.353620	-0.960531	-0.334467
O9	O	-0.669603	-1.160690	-0.342497
O10	O	-0.364096	-1.043393	-0.424253
O11	O	-0.519567	-0.965046	-0.220536
O12	O	-0.518944	-0.846574	-0.329868
O13	O	-0.668509	-0.952455	-0.534668
O14	O	-0.654683	-0.843093	-0.416168
O15	O	-0.543246	-1.038798	-0.538153
O16	O	-0.834927	-1.046733	-0.337898
O17	O	-0.834455	-0.956969	-0.420737
C18	C	-0.585197	-0.819337	-0.371992
C19	C	-0.580271	-0.741233	-0.368866
C20	C	-0.873312	-1.001861	-0.379330
C21	C	-0.991622	-1.001905	-0.379352
C22	C	-0.607396	-0.994578	-0.562619
C23	C	-0.611923	-0.991455	-0.640723
C24	C	-1.060655	-0.953079	-0.424375
C25	C	-1.126689	-0.938538	-0.359570
C26	C	-1.136391	-1.016509	-0.444171
C27	C	-1.056094	-0.987331	-0.314511
C28	C	-1.065794	-1.065330	-0.399157
C29	C	-1.131795	-1.050816	-0.334309
C30	C	-0.319159	-1.001971	-0.379363
C31	C	-0.200856	-1.001998	-0.379374
C32	C	-0.608398	-1.185189	-0.386714
C33	C	-0.613351	-1.263293	-0.389857
C34	C	-0.648728	-0.702747	-0.412259
C35	C	-0.644085	-0.629360	-0.409325
C36	C	-0.570991	-0.594459	-0.362994
C37	C	-0.502527	-0.632949	-0.319600
C38	C	-0.507165	-0.706335	-0.322538
C39	C	-0.549525	-0.375169	-0.349400
C40	C	-0.544895	-0.301778	-0.346464
C41	C	-0.686452	-0.298194	-0.436191
C42	C	-0.691088	-0.371582	-0.439121
C43	C	-0.622620	-0.410065	-0.395730
N44	N	-0.566246	-0.519445	-0.359993
N45	N	-0.627361	-0.485078	-0.398735
C46	C	-0.548834	-1.034940	-0.679231
C47	C	-0.553083	-1.031997	-0.752617
C48	C	-0.620426	-0.985572	-0.787494
C49	C	-0.683517	-0.942083	-0.748980
C50	C	-0.679262	-0.945023	-0.675595
C51	C	-0.640139	-0.971956	-1.006776
C52	C	-0.644391	-0.969021	-1.080166
C53	C	-0.513955	-1.058935	-1.083799
C54	C	-0.509711	-1.061873	-1.010412
C55	C	-0.572798	-1.018381	-0.971905
N56	N	-0.624772	-0.982565	-0.862506
N57	N	-0.568445	-1.021386	-0.896894
C58	C	-0.586120	-1.009247	-0.196772
C59	C	-0.581302	-1.012506	-0.118675
H60	H	-1.029418	-0.911720	-0.462389
H61	H	-0.462592	-1.094343	-1.115159
N62	N	-0.713154	-0.921570	-1.115781
N63	N	-0.769451	-0.882726	-1.081391
H64	H	-0.818000	-0.849207	-1.106543
N65	N	-0.756379	-0.258872	-0.480506
N66	N	-0.752233	-0.193350	-0.477878
H67	H	-0.801620	-0.165578	-0.509178
N68	N	-1.170754	-1.102658	-0.286502
N69	N	-1.268554	-1.111425	-0.279094
H70	H	-1.296073	-1.148036	-0.245329
H71	H	-0.451416	-0.737669	-0.287206
H72	H	-1.038859	-1.118911	-0.415922
N73	N	-0.714034	-0.590064	-0.453648
N74	N	-0.812476	-0.598442	-0.449199
H75	H	-0.861884	-0.570691	-0.480506
H76	H	-0.708252	-0.731159	-0.449984
N77	N	-1.160477	-0.871307	-0.338566
N78	N	-1.257387	-0.860751	-0.334716
H79	H	-1.281248	-0.813268	-0.319886
N80	N	-0.479585	-0.414470	-0.305079
N81	N	-0.381141	-0.406094	-0.309517
H82	H	-0.331743	-0.433852	-0.278212
H83	H	-0.750611	-0.399993	-0.476847
N84	N	-0.704585	-0.927527	-0.967458
N85	N	-0.764709	-0.886083	-0.998609
H86	H	-0.810229	-0.854703	-0.970839
H87	H	-0.494000	-1.072746	-0.650841
N88	N	-0.470223	-0.266115	-0.299146
N89	N	-0.466100	-0.200592	-0.296530
H90	H	-0.413369	-0.175403	-0.263113
N91	N	-0.743692	-0.900606	-0.636245
N92	N	-0.701023	-0.857479	-0.593495
H93	H	-0.746524	-0.826106	-0.565703
H94	H	-0.738345	-0.904280	-0.777382
H95	H	-0.443008	-0.604527	-0.281879
N96	N	-0.488632	-1.076421	-0.791942
N97	N	-0.428515	-1.117872	-0.760795
H98	H	-0.382993	-1.149248	-0.788567
N99	N	-0.440904	-1.109295	-0.974805
N100	N	-0.342871	-1.104331	-0.982826
H101	H	-0.294277	-1.137826	-0.957680
N102	N	-1.012195	-0.971795	-0.245738
N103	N	-0.913634	-0.969217	-0.234637
H104	H	-0.882626	-0.958238	-0.186068
N105	N	-1.180440	-1.031948	-0.512927
N106	N	-1.158437	-0.992536	-0.563146
H107	H	-1.189544	-1.003434	-0.611706
