data_functionalizedCrystal
_audit_creation_method	'MofGen! by Chris Wilmer'
_symmetry_space_group_name_H-M	'P1'
_symmetry_Int_Tables_number	1
_symmetry_cell_setting	triclinic
loop_
_symmetry_equiv_pos_as_xyz
  x,y,z
_cell_length_a	11.792241
_cell_length_b	10.654550
_cell_length_c	9.130313
_cell_angle_alpha	89.999724
_cell_angle_beta	89.999538
_cell_angle_gamma	95.660827
loop_
_atom_site_label
_atom_site_type_symbol
_atom_site_fract_x
_atom_site_fract_y
_atom_site_fract_z
O1	O	-0.159420	1.667388	-0.121672
O2	O	-0.174608	1.301867	-0.121697
O3	O	-0.001864	1.493498	-0.121693
O4	O	-0.332164	1.475758	-0.121677
O5	O	-0.001859	1.493485	0.121906
O6	O	-0.174603	1.301854	0.121901
O7	O	-0.159415	1.667375	0.121927
Cu8	Cu	-0.167009	1.484613	0.144157
Cu9	Cu	-0.167015	1.484629	-0.143927
O10	O	-0.332159	1.475744	0.121922
C11	C	-0.173491	1.255066	0.000098
C12	C	-0.170154	1.115632	0.000088
C13	C	-0.271863	1.035859	0.000097
C14	C	-0.268721	0.904847	0.000123
C15	C	-0.062152	0.933394	0.000123
C16	C	-0.065295	1.064403	0.000109
C17	C	-0.374455	1.476865	0.000125
C18	C	-0.500477	1.480201	0.000132
C19	C	-0.731203	1.486334	0.000095
C20	C	-0.602810	1.482926	0.000115
C21	C	0.040432	1.492377	0.000101
C22	C	0.166453	1.489042	0.000085
C23	C	-0.160533	1.714177	0.000127
C24	C	-0.163869	1.853611	0.000128
N25	N	-0.167004	1.484612	0.346779
N26	N	-0.167011	1.484641	-0.346550
C27	C	-0.090545	1.569495	0.423433
C28	C	-0.090545	1.569507	0.576770
C29	C	-0.243473	1.399749	0.576785
C30	C	-0.243466	1.399732	0.423451
H31	H	-0.351543	0.839900	0.000133
Br32	Br	0.072749	1.172677	0.000115
Br33	Br	0.080149	0.863861	0.000146
Br34	Br	0.013227	1.684686	0.319383
H35	H	-0.028284	1.638624	0.639177
Br36	Br	-0.347242	1.284561	0.680846
H37	H	-0.305728	1.330604	0.361036
H38	H	-0.357246	1.077564	0.000092
