data_functionalizedCrystal
_audit_creation_method	'MofGen! by Chris Wilmer'
_symmetry_space_group_name_H-M	'P1'
_symmetry_Int_Tables_number	1
_symmetry_cell_setting	triclinic
loop_
_symmetry_equiv_pos_as_xyz
  x,y,z
_cell_length_a	23.096457
_cell_length_b	23.096457
_cell_length_c	23.096457
_cell_angle_alpha	60.008701
_cell_angle_beta	90.011518
_cell_angle_gamma	60.000185
loop_
_atom_site_label
_atom_site_type_symbol
_atom_site_fract_x
_atom_site_fract_y
_atom_site_fract_z
Zr1	Zr	0.557763	0.633740	-0.075976
O2	O	0.465295	0.754526	-0.168417
O3	O	0.586107	0.512954	-0.047641
O4	O	0.586081	0.633742	-0.168427
O5	O	0.465344	0.633736	0.047651
O6	O	0.681361	0.633743	-0.168430
O7	O	0.465321	0.633738	-0.047631
O8	O	0.681407	0.417676	0.047634
O9	O	0.465298	0.849804	-0.168413
O10	O	0.669304	0.562636	-0.035555
O11	O	0.598215	0.562634	0.035556
O12	O	0.598184	0.704846	-0.106654
O13	O	0.527095	0.704844	-0.035543
Zr14	Zr	0.709760	0.633740	0.075983
Zr15	Zr	0.709724	0.633742	-0.075981
Zr16	Zr	0.557799	0.633737	0.075988
Zr17	Zr	0.557767	0.785697	-0.075969
Zr18	Zr	0.709756	0.481782	0.075976
O19	O	0.681416	0.754526	0.047648
O20	O	0.681365	0.754529	-0.168425
O21	O	0.465347	0.754522	0.047656
O22	O	0.802227	0.512954	0.168424
O23	O	0.802176	0.512958	-0.047649
O24	O	0.586158	0.512950	0.168432
O25	O	0.802179	0.633743	-0.047644
O26	O	0.681442	0.633738	0.168434
O27	O	0.586161	0.633736	0.168437
O28	O	0.802202	0.633742	0.047638
O29	O	0.586087	0.849806	-0.168418
O30	O	0.681436	0.417674	0.168425
O31	O	0.802225	0.417676	0.168420
O32	O	0.802196	0.417678	0.047629
O33	O	0.465326	0.849802	-0.047622
O34	O	0.586115	0.849804	-0.047627
O35	O	0.669338	0.562634	0.106661
O36	O	0.740428	0.562636	0.035551
O37	O	0.669308	0.704846	-0.035549
O38	O	0.598218	0.704844	0.035562
C39	C	0.633757	0.443664	-0.000004
C40	C	0.633755	0.379154	-0.000007
C41	C	0.443681	0.633737	0.000011
C42	C	0.379170	0.633736	0.000013
C43	C	0.670858	0.348855	-0.037129
C44	C	0.670865	0.288232	-0.037123
C45	C	0.633755	0.257924	-0.000005
C46	C	0.596650	0.288228	0.037124
C47	C	0.596650	0.348843	0.037123
N48	N	0.573349	0.195527	-0.005150
N49	N	0.573351	0.137946	-0.005153
C50	C	0.633754	0.075292	0.000001
N51	N	0.694155	0.072401	0.005145
N52	N	0.694152	0.129989	0.005144
C53	C	0.633751	0.192196	0.000000
C54	C	0.670868	-0.020742	-0.037116
C55	C	0.670877	-0.081369	-0.037105
C56	C	0.596655	-0.081367	0.037138
C57	C	0.596653	-0.020747	0.037132
C58	C	0.633758	0.009564	0.000001
C59	C	0.385988	0.559506	0.037119
C60	C	0.325372	0.559505	0.037122
C61	C	0.257939	0.633737	0.000005
C62	C	0.251123	0.707977	-0.037103
C63	C	0.311739	0.707976	-0.037099
N64	N	0.135130	0.688994	-0.060404
N65	N	0.077551	0.688989	-0.060406
C66	C	0.075306	0.633745	-0.000007
N67	N	0.132823	0.578492	0.060393
N68	N	0.190408	0.578494	0.060394
C69	C	0.192208	0.633747	-0.000003
C70	C	0.016401	0.559509	0.037106
C71	C	-0.044217	0.559511	0.037111
C72	C	-0.118466	0.707985	-0.037121
C73	C	-0.057848	0.707981	-0.037119
C74	C	0.009583	0.633741	-0.000008
C75	C	0.823842	0.633743	-0.000003
C76	C	0.888353	0.633744	-0.000006
C77	C	0.633716	0.633743	-0.190080
C78	C	0.633701	0.633744	-0.254593
C79	C	0.633766	0.823815	0.000012
C80	C	0.633768	0.888325	0.000014
C81	C	0.596581	0.707974	-0.322009
C82	C	0.596599	0.707975	-0.382626
C83	C	0.633727	0.633742	-0.375821
C84	C	0.670856	0.559503	-0.308392
C85	C	0.670843	0.559504	-0.247778
N86	N	0.628604	0.578486	-0.443379
N87	N	0.628613	0.578490	-0.500963
C88	C	0.633771	0.633735	-0.558447
N89	N	0.638907	0.688988	-0.556178
N90	N	0.638894	0.688986	-0.498590
C91	C	0.633746	0.633733	-0.441543
C92	C	0.596668	0.707971	-0.691593
C93	C	0.596692	0.707969	-0.752209
C94	C	0.670944	0.559495	-0.677974
C95	C	0.670926	0.559499	-0.617360
C96	C	0.633784	0.633739	-0.624174
C97	C	0.633806	0.633737	0.190087
C98	C	0.633822	0.633736	0.254600
C99	C	0.823837	0.443668	-0.000011
C100	C	0.888347	0.379159	-0.000017
C101	C	0.633802	0.443661	0.190079
C102	C	0.633815	0.379150	0.254589
C103	C	0.823882	0.443664	0.190072
C104	C	0.888407	0.379154	0.254580
C105	C	0.443641	0.823815	-0.190065
C106	C	0.379115	0.888325	-0.254573
C107	C	0.443686	0.823812	0.000019
C108	C	0.379176	0.888321	0.000024
C109	C	0.633721	0.823819	-0.190072
C110	C	0.633707	0.888329	-0.254582
C111	C	0.881515	0.348865	-0.037141
C112	C	0.942124	0.288260	-0.037160
C113	C	1.009562	0.257947	-0.000050
C114	C	1.016392	0.288247	0.037076
C115	C	0.955785	0.348854	0.037091
C116	C	0.670948	0.348855	0.322006
C117	C	0.670958	0.288249	0.382626
C118	C	0.633839	0.257934	0.375827
C119	C	0.596703	0.288235	0.308403
C120	C	0.596689	0.348845	0.247784
C121	C	0.955823	0.348861	0.247754
C122	C	1.016458	0.288256	0.308360
C123	C	1.009674	0.257941	0.375791
C124	C	0.942250	0.288240	0.382615
C125	C	0.881618	0.348848	0.322010
C126	C	0.311699	0.918626	-0.247747
C127	C	0.251065	0.979250	-0.308353
C128	C	0.257849	1.009568	-0.375784
C129	C	0.325272	0.979265	-0.382608
C130	C	0.385905	0.918646	-0.322003
C131	C	0.386007	0.918621	0.037142
C132	C	0.325399	0.979242	0.037145
C133	C	0.257960	1.009558	0.000032
C134	C	0.251131	0.979255	-0.037091
C135	C	0.311738	0.918639	-0.037097
C136	C	0.670833	0.918625	-0.247760
C137	C	0.670834	0.979232	-0.308368
C138	C	0.633705	1.009546	-0.375797
C139	C	0.596578	0.979245	-0.382618
C140	C	0.596582	0.918635	-0.322010
H141	H	0.701080	0.263558	-0.067353
O142	O	0.560715	0.008622	0.073275
C143	C	0.608372	-0.006163	0.125353
H144	H	0.664297	-0.059288	0.139150
H145	H	0.592292	-0.022209	0.174921
H146	H	0.607065	0.051051	0.104102
H147	H	0.566454	0.373503	0.192893
H148	H	0.701071	0.499055	-0.192882
H149	H	0.961360	0.373535	0.192854
H150	H	0.701150	0.499053	-0.562465
O151	O	0.185603	1.008628	-0.073022
C152	C	0.148338	0.993833	-0.025357
H153	H	0.187690	0.940703	0.030557
H154	H	0.114803	0.977789	-0.041436
H155	H	0.112387	1.051042	-0.026648
O156	O	0.706950	0.487457	-0.671483
C157	C	0.698952	0.503372	-0.739439
H158	H	0.648789	0.567154	-0.779597
H159	H	0.694720	0.455937	-0.738743
H160	H	0.746879	0.499894	-0.754928
O161	O	1.081893	0.258889	0.301595
C162	C	1.074871	0.298654	0.229082
H163	H	1.020770	0.323623	0.196773
H164	H	1.118335	0.253188	0.220624
H165	H	1.079830	0.351303	0.211213
H166	H	0.701087	0.499062	-0.302856
O167	O	0.560626	0.258817	0.073278
C168	C	0.527880	0.298558	0.106049
H169	H	0.556972	0.323578	0.113351
H170	H	0.529948	0.253061	0.159990
H171	H	0.470244	0.351167	0.071307
O172	O	0.560682	0.780133	-0.817664
C173	C	0.587971	0.825293	-0.825417
H174	H	0.615144	0.804186	-0.770846
H175	H	0.542787	0.893203	-0.857300
H176	H	0.628047	0.815009	-0.854374
H177	H	0.566346	0.893975	-0.327574
O178	O	0.560663	0.378348	0.073169
C179	C	0.568601	0.438367	0.065188
H180	H	0.618729	0.428416	0.051517
H181	H	0.572862	0.433455	0.116848
H182	H	0.520634	0.501761	0.020749
H183	H	0.306166	0.893970	-0.067322
O184	O	0.935442	0.258752	-0.073128
C185	C	0.898043	0.223708	-0.045833
H186	H	0.903130	0.205504	0.010748
H187	H	0.921056	0.167111	-0.045938
H188	H	0.839703	0.270168	-0.080235
O189	O	0.332115	0.487321	0.073178
C190	C	0.404629	0.421796	0.105952
H191	H	0.436954	0.443557	0.076846
H192	H	0.413070	0.369883	0.103944
H193	H	0.422498	0.398963	0.163565
H194	H	0.701073	0.373531	-0.067361
O195	O	1.068556	0.199168	0.434679
C196	C	1.068459	0.228775	0.475304
H197	H	1.034164	0.298563	0.439728
H198	H	1.125009	0.204977	0.499842
H199	H	1.046125	0.206727	0.519191
O200	O	1.068485	0.198989	0.000067
C201	C	1.109101	0.128853	0.070293
H202	H	1.095869	0.147149	0.108601
H203	H	1.167902	0.099506	0.077317
H204	H	1.096377	0.083189	0.081748
H205	H	0.196215	0.768418	-0.067323
H206	H	1.071309	0.263557	0.067290
H207	H	0.936738	0.263548	0.437525
H208	H	0.961357	0.373512	0.067326
H209	H	0.071307	0.499058	0.067339
H210	H	0.701068	0.893952	-0.192861
O211	O	0.633831	1.068349	-0.434617
C212	C	0.704065	1.038714	-0.434510
H213	H	0.742373	0.987148	-0.377908
H214	H	0.711099	1.090475	-0.456799
H215	H	0.715515	1.014557	-0.468738
H216	H	0.306181	0.768425	-0.067314
H217	H	0.306162	0.893944	-0.192847
H218	H	0.826727	0.373505	0.327577
O219	O	0.560704	0.258767	0.301709
C220	C	0.588009	0.223680	0.264338
H221	H	0.615174	0.251071	0.230875
H222	H	0.542835	0.236950	0.228317
H223	H	0.628094	0.154647	0.303601
O224	O	0.707009	0.378240	0.328747
C225	C	0.739789	0.338486	0.401255
H226	H	0.710684	0.313503	0.433578
H227	H	0.737779	0.383964	0.409703
H228	H	0.797408	0.285849	0.419118
H229	H	0.196172	1.003913	-0.302783
O230	O	0.560612	1.008689	-0.448159
C231	C	0.608260	0.993864	-0.485437
H232	H	0.657127	0.986296	-0.462276
H233	H	0.581328	1.047716	-0.543765
H234	H	0.624852	0.935596	-0.480416
H235	H	0.826609	0.373545	-0.067370
O236	O	0.706926	0.258895	0.448131
C237	C	0.659295	0.273695	0.485429
H238	H	0.603362	0.326816	0.446107
H239	H	0.675399	0.289755	0.518934
H240	H	0.660606	0.216483	0.521406
O241	O	0.198874	1.068424	-0.434579
C242	C	0.137919	1.088674	-0.414086
H243	H	0.151857	1.035506	-0.358136
H244	H	0.095096	1.101266	-0.452372
H245	H	0.117513	1.145622	-0.415180
O246	O	0.331774	1.008650	-0.448146
C247	C	0.298864	0.993838	-0.485372
H248	H	0.296124	0.940689	-0.445996
H249	H	0.330933	0.977812	-0.518938
H250	H	0.242925	1.051031	-0.521282
H251	H	-0.038659	0.499061	0.067332
H252	H	0.440914	0.893943	0.067369
H253	H	0.440889	0.499053	0.067334
H254	H	0.440796	0.893976	-0.327568
O255	O	0.706820	-0.110795	-0.073215
C256	C	0.659155	-0.095977	-0.125312
H257	H	0.610307	-0.088434	-0.109704
H258	H	0.686082	-0.149819	-0.129802
H259	H	0.642533	-0.037696	-0.178554
O260	O	0.560495	0.780135	-0.698295
C261	C	0.488037	0.825290	-0.735695
H262	H	0.481977	0.804184	-0.769161
H263	H	0.465294	0.893201	-0.771716
H264	H	0.458251	0.814999	-0.696451
O265	O	-0.183926	0.780149	-0.073279
C266	C	-0.191716	0.825304	-0.145734
H267	H	-0.137152	0.804194	-0.151808
H268	H	-0.223600	0.893214	-0.168468
H269	H	-0.220693	0.815017	-0.175515
H270	H	0.330974	1.003905	0.067377
H271	H	0.701066	1.003896	-0.302801
O272	O	0.706980	0.008583	-0.073185
C273	C	0.739724	-0.031156	-0.105957
H274	H	0.747080	-0.092594	-0.076843
H275	H	0.793642	-0.041598	-0.103960
H276	H	0.704930	0.008590	-0.163567
O277	O	0.560618	-0.110867	0.073134
C278	C	0.568591	-0.170883	0.065193
H279	H	0.582248	-0.160933	0.015061
H280	H	0.516929	-0.165968	0.060947
H281	H	0.613042	-0.234279	0.113149
H282	H	0.566340	0.768426	-0.327564
O283	O	-0.064560	0.780142	-0.073121
C284	C	-0.101934	0.825294	-0.045816
H285	H	-0.135385	0.804185	-0.018636
H286	H	-0.137973	0.893205	-0.090986
H287	H	-0.062668	0.815004	-0.005747
O288	O	0.560474	0.780158	-0.448071
C289	C	0.527707	0.845684	-0.441087
H290	H	0.520352	0.823923	-0.387005
H291	H	0.473787	0.897597	-0.484569
H292	H	0.562484	0.868517	-0.446040
H293	H	0.633856	0.208582	0.425192
H294	H	0.208616	1.058915	0.000042
