data_functionalizedCrystal
_audit_creation_method	'MofGen! by Chris Wilmer'
_symmetry_space_group_name_H-M	'P1'
_symmetry_Int_Tables_number	1
_symmetry_cell_setting	triclinic
loop_
_symmetry_equiv_pos_as_xyz
  x,y,z
_cell_length_a	10.654547
_cell_length_b	17.699083
_cell_length_c	16.776229
_cell_angle_alpha	90.007545
_cell_angle_beta	90.007840
_cell_angle_gamma	83.884535
loop_
_atom_site_label
_atom_site_type_symbol
_atom_site_fract_x
_atom_site_fract_y
_atom_site_fract_z
O1	O	-1.665984	-0.106314	-0.066304
O2	O	-1.300328	-0.116440	-0.066302
O3	O	-1.493487	-0.001254	-0.066296
O4	O	-1.472825	-0.221501	-0.066310
O5	O	-1.493461	-0.001247	0.066280
O6	O	-1.300303	-0.116433	0.066274
O7	O	-1.665958	-0.106307	0.066273
Zn8	Zn	-1.483126	-0.111369	0.087323
Zn9	Zn	-1.483160	-0.111378	-0.087352
O10	O	-1.472800	-0.221493	0.066266
C11	C	-1.492733	0.026952	-0.000008
C12	C	-1.490512	0.110984	-0.000007
C13	C	-1.253530	-0.115693	-0.000014
C14	C	-1.114126	-0.113467	-0.000013
C15	C	-1.712756	-0.107055	-0.000017
C16	C	-1.852160	-0.109280	-0.000023
C17	C	-0.852208	-0.109279	-0.144562
C18	C	-0.917721	-0.110330	-0.216830
C19	C	-1.048702	-0.112427	-0.216828
C20	C	-1.114173	-0.113471	-0.144551
C21	C	-1.048659	-0.112420	-0.072283
C22	C	-0.917675	-0.110326	-0.072293
C23	C	-1.048613	-0.112416	0.072254
C24	C	-0.917631	-0.110325	0.072254
C25	C	-1.114083	-0.113460	0.144532
C26	C	-1.048568	-0.112415	0.216801
C27	C	-0.917579	-0.110319	0.216796
C28	C	-0.852117	-0.109274	0.144522
C29	C	-1.473553	-0.249699	-0.000024
C30	C	-1.475774	-0.333731	-0.000029
N31	N	-1.483112	-0.111362	0.206534
C32	C	-1.603892	0.158883	-0.000007
C33	C	-1.601798	0.237840	-0.000014
C34	C	-1.486322	0.268896	-0.000016
C35	C	-1.372934	0.220990	-0.000019
C36	C	-1.375029	0.142035	-0.000018
C37	C	-1.364480	0.539407	-0.000025
C38	C	-1.362393	0.618368	-0.000024
C39	C	-1.591248	0.635212	-0.000021
C40	C	-1.593344	0.556257	-0.000020
C41	C	-1.479956	0.508358	-0.000027
C42	C	-1.482228	0.422744	-0.000021
C43	C	-1.484049	0.354508	-0.000016
N44	N	-1.483184	-0.111379	-0.206564
C45	C	-1.568669	-0.060379	0.248254
C46	C	-1.568676	-0.060378	0.331706
C47	C	-1.483131	-0.111365	0.373437
C48	C	-1.397566	-0.162351	0.331711
C49	C	-1.397554	-0.162347	0.248261
C50	C	-1.397611	-0.162366	0.668258
C51	C	-1.397632	-0.162367	0.751715
C52	C	-1.568733	-0.060397	0.751704
C53	C	-1.568721	-0.060393	0.668253
C54	C	-1.483152	-0.111376	0.626535
C55	C	-1.483144	-0.111375	0.536047
C56	C	-1.483145	-0.111370	0.463924
H57	H	-0.745554	-0.107582	-0.144571
H58	H	-0.864402	-0.109477	-0.275677
Br59	Br	-1.684865	0.008797	0.808325
H60	H	-1.694123	0.276837	-0.000011
H61	H	-1.268353	0.643650	-0.000024
H62	H	-1.272152	0.500417	-0.000031
H63	H	-1.697926	0.133604	-0.000000
H64	H	-1.102044	-0.113282	-0.275675
H65	H	-1.638334	-0.018862	0.214282
H66	H	-1.220826	-0.115169	-0.144555
Br67	Br	-1.291846	-0.116300	0.144536
H68	H	-1.101886	-0.113260	0.275644
Br69	Br	-1.281529	-0.231569	0.808350
H70	H	-1.327940	-0.203879	0.634298
Br71	Br	-0.828681	-0.108882	0.314880
H72	H	-0.745464	-0.107571	0.144511
H73	H	-1.327908	-0.203862	0.365693
H74	H	-1.638342	-0.018863	0.365674
Br75	Br	-1.750066	0.514114	-0.000018
Br76	Br	-1.216214	0.263136	-0.000035
H77	H	-1.683574	0.674221	-0.000020
H78	H	-1.282704	0.103035	-0.000018
Br79	Br	-1.281428	-0.231537	0.191640
Br80	Br	-1.684827	0.008801	0.611621
