data_functionalizedCrystal
_audit_creation_method	'MofGen! by Chris Wilmer'
_symmetry_space_group_name_H-M	'P1'
_symmetry_Int_Tables_number	1
_symmetry_cell_setting	triclinic
loop_
_symmetry_equiv_pos_as_xyz
  x,y,z
_cell_length_a	12.759401
_cell_length_b	17.077402
_cell_length_c	12.759393
_cell_angle_alpha	89.965312
_cell_angle_beta	89.980324
_cell_angle_gamma	90.023310
loop_
_atom_site_label
_atom_site_type_symbol
_atom_site_fract_x
_atom_site_fract_y
_atom_site_fract_z
Zn1	Zn	1.606207	-0.312461	-0.593954
Zn2	Zn	2.106207	0.187539	-0.093954
Zn3	Zn	1.606073	-0.443747	-0.418261
Zn4	Zn	2.106073	0.056253	0.081739
Zn5	Zn	1.430505	-0.312500	-0.418293
Zn6	Zn	1.930505	0.187500	0.081707
Zn7	Zn	1.430472	-0.443690	-0.593902
Zn8	Zn	1.930472	0.056310	-0.093902
O9	O	1.518314	-0.378100	-0.506103
O10	O	2.018314	0.121900	-0.006103
O11	O	1.753210	-0.329884	-0.570656
O12	O	2.253210	0.170116	-0.070656
O13	O	1.582741	-0.426378	-0.271244
O14	O	2.082741	0.073622	0.228756
O15	O	1.453882	-0.202648	-0.441630
O16	O	1.953882	0.297352	0.058370
O17	O	1.753111	-0.426340	-0.441576
O18	O	2.253111	0.073660	0.058424
O19	O	1.582969	-0.202620	-0.570687
O20	O	2.082969	0.297380	-0.070687
O21	O	1.453753	-0.329951	-0.271268
O22	O	1.953753	0.170049	0.228732
O23	O	1.283480	-0.329895	-0.441580
O24	O	1.783480	0.170105	0.058420
O25	O	1.453826	-0.426242	-0.740930
O26	O	1.953826	0.073758	-0.240930
O27	O	1.283456	-0.426280	-0.570599
O28	O	1.783456	0.073720	-0.070599
O29	O	1.582937	-0.329829	-0.740968
O30	O	2.082937	0.170171	-0.240968
O31	O	1.582709	-0.553587	-0.441526
O32	O	2.082709	-0.053587	0.058474
O33	O	1.453696	-0.553545	-0.570568
O34	O	1.953696	-0.053545	-0.070568
C35	C	1.245347	-0.378086	-0.506088
C36	C	1.745347	0.121914	-0.006088
C37	C	1.128570	-0.378099	-0.506106
C38	C	1.628570	0.121901	-0.006106
C39	C	1.073760	-0.327966	-0.573422
C40	C	1.573760	0.172034	-0.073422
C41	C	0.964036	-0.327974	-0.573429
C42	C	1.464036	0.172026	-0.073429
C43	C	0.963942	-0.428256	-0.438802
C44	C	1.463942	0.071744	0.061198
C45	C	1.073664	-0.428243	-0.438790
C46	C	1.573664	0.071757	0.061210
C47	C	1.518213	-0.582048	-0.506061
C48	C	2.018213	-0.082048	-0.006061
C49	C	1.518265	-0.669297	-0.506078
C50	C	2.018265	-0.169297	-0.006078
C51	C	1.585511	-0.710283	-0.438958
C52	C	2.085511	-0.210283	0.061042
C53	C	1.585563	-0.792264	-0.438984
C54	C	2.085563	-0.292264	0.061016
C55	C	1.518362	-0.833257	-0.506127
C56	C	2.018362	-0.333257	-0.006127
C57	C	1.451114	-0.792265	-0.573255
C58	C	1.951114	-0.292265	-0.073255
C59	C	1.451068	-0.710286	-0.573233
C60	C	1.951068	-0.210286	-0.073233
C61	C	1.451211	-0.963135	-0.573295
C62	C	1.951211	-0.463135	-0.073295
C63	C	1.451255	-1.045120	-0.573316
C64	C	1.951255	-0.545120	-0.073316
C65	C	1.585705	-1.045113	-0.439047
C66	C	2.085705	-0.545113	0.060953
C67	C	1.585660	-0.963134	-0.439024
C68	C	2.085660	-0.463134	0.060976
C69	C	1.518410	-0.922148	-0.506151
C70	C	2.018410	-0.422148	-0.006151
C71	C	1.792347	-0.378114	-0.506118
C72	C	2.292347	0.121886	-0.006118
C73	C	1.909124	-0.378120	-0.506125
C74	C	2.409124	0.121880	-0.006125
C75	C	1.518393	-0.378024	-0.780136
C76	C	2.018393	0.121976	-0.280136
C77	C	1.518426	-0.377992	-0.896913
C78	C	2.018426	0.122008	-0.396913
C79	C	1.518445	-0.173355	-0.506168
C80	C	2.018445	0.326645	-0.006168
C81	C	1.518500	-0.086106	-0.506196
C82	C	2.018500	0.413894	-0.006196
C83	C	1.585660	-0.327782	-0.951796
C84	C	2.085660	0.172218	-0.451796
C85	C	1.585677	-0.327748	-1.061521
C86	C	2.085677	0.172252	-0.561521
C87	C	1.451226	-0.428142	-1.061468
C88	C	1.951226	0.071858	-0.561468
C89	C	1.451203	-0.428171	-0.951746
C90	C	1.951203	0.071829	-0.451746
C91	C	1.518296	-0.378118	-0.233135
C92	C	2.018296	0.121882	0.266865
C93	C	1.518466	-0.377929	-0.116359
C94	C	2.018466	0.122071	0.383641
H95	H	0.919224	-0.469082	-0.383996
H96	H	1.419224	0.030918	0.116004
C97	C	1.377296	-0.483341	-1.121788
C98	C	1.877296	0.016659	-0.621788
H99	H	1.386945	-0.476139	-1.194995
H100	H	1.886945	0.023861	-0.694995
H101	H	1.306708	-0.471856	-1.103803
H102	H	1.806708	0.028144	-0.603803
H103	H	1.392643	-0.536090	-1.103788
H104	H	1.892643	-0.036090	-0.603788
C105	C	1.377250	-0.483410	-0.891370
C106	C	1.877250	0.016590	-0.391370
H107	H	1.337230	-0.513300	-0.939739
H108	H	1.837230	-0.013300	-0.439739
H109	H	1.331485	-0.453394	-0.848568
H110	H	1.831485	0.046606	-0.348568
H111	H	1.417421	-0.517627	-0.848565
H112	H	1.917421	-0.017627	-0.348565
H113	H	1.640320	-0.825631	-0.384327
H114	H	2.140320	-0.325631	0.115673
C115	C	0.903749	-0.272831	-0.647482
C116	C	1.403749	0.227169	-0.147482
H117	H	0.952167	-0.242972	-0.687574
H118	H	1.452167	0.257028	-0.187574
H119	H	0.860941	-0.238594	-0.607385
H120	H	1.360941	0.261406	-0.107385
H121	H	0.860958	-0.302912	-0.693192
H122	H	1.360958	0.197088	-0.193192
C123	C	1.133964	-0.483392	-0.364741
C124	C	1.633964	0.016608	0.135259
H125	H	1.207174	-0.476195	-0.374369
H126	H	1.707174	0.023805	0.125631
H127	H	1.115975	-0.536150	-0.379987
H128	H	1.615975	-0.036150	0.120013
H129	H	1.115955	-0.471836	-0.294177
H130	H	1.615955	0.028164	0.205823
C131	C	1.134154	-0.272804	-0.647458
C132	C	1.634154	0.227196	-0.147458
H133	H	1.085792	-0.242943	-0.687543
H134	H	1.585792	0.257057	-0.187543
H135	H	1.176968	-0.302865	-0.693160
H136	H	1.676968	0.197135	-0.193160
H137	H	1.176948	-0.238558	-0.607339
H138	H	1.676948	0.261442	-0.107339
C139	C	1.659434	-0.665198	-0.365101
C140	C	2.159434	-0.165198	0.134899
H141	H	1.699497	-0.701353	-0.325138
H142	H	2.199497	-0.201353	0.174862
H143	H	1.619256	-0.633269	-0.319279
H144	H	2.119256	-0.133269	0.180721
H145	H	1.705176	-0.633168	-0.405330
H146	H	2.205176	-0.133168	0.094670
H147	H	1.640374	-0.929758	-0.384347
H148	H	2.140374	-0.429758	0.115653
H149	H	1.396554	-1.078494	-0.628009
H150	H	1.896554	-0.578494	-0.128009
C151	C	1.659667	-1.090194	-0.365196
C152	C	2.159667	-0.590194	0.134804
H153	H	1.650075	-1.144888	-0.374827
H154	H	2.150075	-0.644888	0.125173
H155	H	1.644302	-1.076806	-0.294595
H156	H	2.144302	-0.576806	0.205405
H157	H	1.730251	-1.076710	-0.380617
H158	H	2.230251	-0.576710	0.119383
C159	C	1.377241	-0.918052	-0.647137
C160	C	1.877241	-0.418052	-0.147137
H161	H	1.337219	-0.954205	-0.687122
H162	H	1.837219	-0.454205	-0.187122
H163	H	1.417391	-0.886020	-0.692938
H164	H	1.917391	-0.386020	-0.192938
H165	H	1.331463	-0.886124	-0.606894
H166	H	1.831463	-0.386124	-0.106894
C167	C	1.659588	-0.272578	-0.891483
C168	C	2.159588	0.227422	-0.391483
H169	H	1.699623	-0.242664	-0.939889
H170	H	2.199623	0.257336	-0.439889
H171	H	1.705340	-0.302614	-0.848673
H172	H	2.205340	0.197386	-0.348673
H173	H	1.619400	-0.238383	-0.848691
H174	H	2.119400	0.261617	-0.348691
C175	C	1.377100	-0.665201	-0.647067
C176	C	1.877100	-0.165201	-0.147067
H177	H	1.337079	-0.701355	-0.687053
H178	H	1.837079	-0.201355	-0.187053
H179	H	1.417252	-0.633171	-0.692867
H180	H	1.917252	-0.133171	-0.192867
H181	H	1.331321	-0.633273	-0.606827
H182	H	1.831321	-0.133273	-0.106827
H183	H	1.640424	-0.286860	-1.106202
H184	H	2.140424	0.213140	-0.606202
H185	H	1.396402	-0.825648	-0.627928
H186	H	1.896402	-0.325648	-0.127928
