data_functionalizedCrystal
_audit_creation_method	'MofGen! by Chris Wilmer'
_symmetry_space_group_name_H-M	'P1'
_symmetry_Int_Tables_number	1
_symmetry_cell_setting	triclinic
loop_
_symmetry_equiv_pos_as_xyz
  x,y,z
_cell_length_a	14.044191
_cell_length_b	13.101018
_cell_length_c	10.654550
_cell_angle_alpha	93.391548
_cell_angle_beta	91.161646
_cell_angle_gamma	93.666878
loop_
_atom_site_label
_atom_site_type_symbol
_atom_site_fract_x
_atom_site_fract_y
_atom_site_fract_z
O1	O	1.264876	0.085164	-0.296687
O2	O	1.764876	0.585164	0.203313
O3	O	0.988835	0.085177	-0.285743
O4	O	1.488835	0.585177	0.214257
O5	O	1.133202	0.085164	-0.109114
O6	O	1.633202	0.585164	0.390886
O7	O	1.120510	0.085178	-0.473316
O8	O	1.620510	0.585178	0.026684
O9	O	1.122832	-0.085265	-0.121798
O10	O	1.622832	0.414735	0.378202
O11	O	0.978465	-0.085252	-0.298427
O12	O	1.478465	0.414748	0.201573
O13	O	1.254506	-0.085265	-0.309370
O14	O	1.754506	0.414735	0.190630
Zn15	Zn	1.114839	-0.112318	-0.305912
Zn16	Zn	1.614839	0.387682	0.194088
Zn17	Zn	1.128502	0.112230	-0.289201
Zn18	Zn	1.628502	0.612230	0.210799
O19	O	1.110139	-0.085252	-0.485999
O20	O	1.610139	0.414748	0.014001
C21	C	0.948305	-0.000036	-0.287298
C22	C	1.448305	0.499964	0.212702
C23	C	0.842985	-0.000031	-0.273018
C24	C	1.342985	0.499969	0.226982
N25	N	1.105522	-0.265566	-0.317317
N26	N	1.605522	0.234434	0.182683
C27	C	0.593192	-0.000038	-0.348184
C28	C	1.093192	0.499962	0.151816
C29	C	0.650156	-0.000040	-0.246934
C30	C	1.150156	0.499960	0.253066
C31	C	0.757456	-0.000035	-0.261451
C32	C	1.257456	0.499965	0.238549
C33	C	0.485882	-0.000044	-0.333669
C34	C	0.985882	0.499956	0.166331
C35	C	1.150500	-0.525480	-0.262264
C36	C	1.650500	-0.025480	0.237736
C37	C	1.092852	-0.474602	-0.332836
C38	C	1.592852	0.025398	0.167164
C39	C	1.099903	-0.358283	-0.324199
C40	C	1.599903	0.141717	0.175801
C41	C	1.143450	-0.641808	-0.270900
C42	C	1.643450	-0.141808	0.229100
C43	C	1.295037	-0.000050	-0.307815
C44	C	1.795037	0.499950	0.192185
C45	C	1.400357	-0.000048	-0.322094
C46	C	1.900357	0.499952	0.177906
C47	C	1.127085	-0.000050	-0.068564
C48	C	1.627085	0.499950	0.431436
C49	C	1.124297	-0.000048	0.071159
C50	C	1.624297	0.499952	0.571159
N51	N	1.137828	0.265478	-0.277787
N52	N	1.637828	0.765478	0.222213
C53	C	1.116257	-0.000035	-0.526549
C54	C	1.616257	0.499965	-0.026549
C55	C	1.119045	-0.000030	-0.666272
C56	C	1.619045	0.499970	-0.166272
C57	C	1.209298	-0.000052	0.142100
C58	C	1.709298	0.499948	0.642100
C59	C	1.206673	-0.000039	0.273386
C60	C	1.706673	0.499961	0.773386
C61	C	1.034038	-0.000024	0.262778
C62	C	1.534038	0.499976	0.762778
C63	C	1.036664	-0.000029	0.131495
C64	C	1.536664	0.499971	0.631495
H65	H	0.618343	0.000028	-0.149343
H66	H	1.118343	0.500028	0.350657
H67	H	0.625008	-0.000032	-0.445762
H68	H	1.125008	0.499968	0.054238
H69	H	1.038204	-0.518402	-0.399742
H70	H	1.538204	-0.018402	0.100258
N71	N	1.219046	-0.470527	-0.178341
N72	N	1.719046	0.029473	0.321659
N73	N	1.224746	-0.374745	-0.171361
N74	N	1.724746	0.125255	0.328639
H75	H	1.273158	-0.335923	-0.112093
H76	H	1.773158	0.164077	0.387907
N77	N	1.298816	-0.000075	0.080487
N78	N	1.798816	0.499925	0.580487
N79	N	1.374703	-0.000079	0.143849
N80	N	1.874703	0.499921	0.643849
H81	H	1.437929	-0.000094	0.100340
H82	H	1.937929	0.499906	0.600340
N83	N	1.293509	-0.000035	0.345831
N84	N	1.793509	0.499965	0.845831
N85	N	1.371741	-0.000046	0.291939
N86	N	1.871741	0.499954	0.791939
H87	H	1.433074	-0.000041	0.343103
H88	H	1.933074	0.499959	0.843103
N89	N	0.944537	-0.000002	0.324432
N90	N	1.444537	0.499998	0.824432
N91	N	0.942202	0.000002	0.441648
N92	N	1.442202	0.500002	0.941648
H93	H	0.878989	0.000016	0.485191
H94	H	1.378989	0.500016	0.985191
H95	H	0.967442	-0.000023	0.073733
H96	H	1.467442	0.499977	0.573733
