data_functionalizedCrystal
_audit_creation_method	'MofGen! by Chris Wilmer'
_symmetry_space_group_name_H-M	'P1'
_symmetry_Int_Tables_number	1
_symmetry_cell_setting	triclinic
loop_
_symmetry_equiv_pos_as_xyz
  x,y,z
_cell_length_a	15.297475
_cell_length_b	16.120484
_cell_length_c	15.296720
_cell_angle_alpha	101.986518
_cell_angle_beta	91.617114
_cell_angle_gamma	83.687474
loop_
_atom_site_label
_atom_site_type_symbol
_atom_site_fract_x
_atom_site_fract_y
_atom_site_fract_z
Zn1	Zn	1.212936	-0.646916	-0.755054
Zn2	Zn	1.712936	-0.146916	-0.255054
Zn3	Zn	1.230712	-0.766607	-0.613834
Zn4	Zn	1.730712	-0.266607	-0.113834
Zn5	Zn	1.094735	-0.600220	-0.581241
Zn6	Zn	1.594735	-0.100220	-0.081241
Zn7	Zn	1.059450	-0.758436	-0.734603
Zn8	Zn	1.559450	-0.258436	-0.234603
O9	O	1.149458	-0.693045	-0.671183
O10	O	1.649458	-0.193045	-0.171183
O11	O	1.336436	-0.685755	-0.758520
O12	O	1.836436	-0.185755	-0.258520
O13	O	1.234881	-0.728412	-0.486227
O14	O	1.734881	-0.228412	0.013773
O15	O	1.117742	-0.490110	-0.599215
O16	O	1.617742	0.009890	-0.099215
O17	O	1.349496	-0.773691	-0.654766
O18	O	1.849496	-0.273691	-0.154766
O19	O	1.204584	-0.524417	-0.726915
O20	O	1.704584	-0.024417	-0.226915
O21	O	1.134979	-0.606169	-0.462280
O22	O	1.634979	-0.106169	0.037720
O23	O	0.968913	-0.598246	-0.579385
O24	O	1.468913	-0.098246	-0.079385
O25	O	1.057604	-0.759766	-0.860600
O26	O	1.557604	-0.259766	-0.360600
O27	O	0.942989	-0.714486	-0.692060
O28	O	1.442989	-0.214486	-0.192060
O29	O	1.170370	-0.677833	-0.875625
O30	O	1.670370	-0.177833	-0.375625
O31	O	1.200666	-0.881827	-0.634936
O32	O	1.700666	-0.381827	-0.134936
O33	O	1.074840	-0.875825	-0.723665
O34	O	1.574840	-0.375825	-0.223665
C35	C	0.924540	-0.650413	-0.629967
C36	C	1.424540	-0.150413	-0.129967
C37	C	0.828314	-0.632198	-0.612357
C38	C	1.328314	-0.132198	-0.112357
C39	C	1.135873	-0.908989	-0.680642
C40	C	1.635873	-0.408989	-0.180642
C41	C	1.130135	-1.001390	-0.684732
C42	C	1.630135	-0.501390	-0.184732
C43	C	0.503218	-0.823238	-0.797050
C44	C	1.003218	-0.323238	-0.297050
C45	C	0.593627	-0.840358	-0.813594
C46	C	1.093627	-0.340358	-0.313594
C47	C	0.652303	-0.788320	-0.763286
C48	C	1.152303	-0.288320	-0.263286
C49	C	0.620561	-0.719158	-0.696432
C50	C	1.120561	-0.219158	-0.196432
C51	C	0.530143	-0.702040	-0.679882
C52	C	1.030143	-0.202040	-0.179882
C53	C	0.679229	-0.667122	-0.646118
C54	C	1.179229	-0.167122	-0.146118
C55	C	0.647487	-0.597960	-0.579263
C56	C	1.147487	-0.097960	-0.079263
C57	C	0.557078	-0.580845	-0.562717
C58	C	1.057078	-0.080845	-0.062717
C59	C	0.498402	-0.632884	-0.613024
C60	C	0.998402	-0.132884	-0.113024
C61	C	0.769646	-0.684239	-0.662668
C62	C	1.269646	-0.184239	-0.162668
C63	C	0.796572	-0.563041	-0.545499
C64	C	1.296572	-0.063041	-0.045499
C65	C	0.706162	-0.545921	-0.528956
C66	C	1.206162	-0.045921	-0.028956
C67	C	1.119661	-1.170572	-0.692219
C68	C	1.619661	-0.670572	-0.192219
C69	C	1.179408	-1.214709	-0.650189
C70	C	1.679408	-0.714709	-0.150189
C71	C	1.173580	-1.308847	-0.654355
C72	C	1.673580	-0.808847	-0.154355
C73	C	1.125488	-1.076425	-0.688054
C74	C	1.625488	-0.576425	-0.188054
C75	C	1.375255	-0.735844	-0.712560
C76	C	1.875255	-0.235844	-0.212560
C77	C	1.471476	-0.754082	-0.730193
C78	C	1.971476	-0.254082	-0.230193
C79	C	1.108068	-0.723097	-0.900972
C80	C	1.608068	-0.223097	-0.400972
C81	C	1.090430	-0.735903	-0.998895
C82	C	1.590430	-0.235903	-0.498895
C83	C	1.163116	-0.476264	-0.661711
C84	C	1.663116	0.023736	-0.161711
C85	C	1.168937	-0.383885	-0.657674
C86	C	1.668937	0.116115	-0.157674
C87	C	1.275562	-0.601377	-1.306214
C88	C	1.775562	-0.101377	-0.806214
C89	C	1.292140	-0.589347	-1.214212
C90	C	1.792140	-0.089347	-0.714212
C91	C	1.241714	-0.625985	-1.160378
C92	C	1.741714	-0.125985	-0.660378
C93	C	1.174707	-0.674655	-1.198556
C94	C	1.674707	-0.174655	-0.698556
C95	C	1.158133	-0.686691	-1.290568
C96	C	1.658133	-0.186691	-0.790568
C97	C	1.124284	-0.711299	-1.144732
C98	C	1.624284	-0.211299	-0.644732
C99	C	1.057278	-0.759969	-1.182909
C100	C	1.557278	-0.259969	-0.682909
C101	C	1.040706	-0.772003	-1.274912
C102	C	1.540706	-0.272003	-0.774912
C103	C	1.091132	-0.735365	-1.328746
C104	C	1.591132	-0.235365	-0.828746
C105	C	1.140858	-0.699263	-1.052720
C106	C	1.640858	-0.199263	-0.552720
C107	C	1.023429	-0.784577	-1.037073
C108	C	1.523429	-0.284577	-0.537073
C109	C	1.006852	-0.796607	-1.129075
C110	C	1.506852	-0.296607	-0.629075
C111	C	1.190741	-0.663059	-0.442294
C112	C	1.690741	-0.163059	0.057706
C113	C	1.208562	-0.650051	-0.344393
C114	C	1.708562	-0.150051	0.155607
H115	H	0.795481	-0.740551	-0.717102
H116	H	1.295481	-0.240551	-0.217102
H117	H	1.064138	-1.203483	-0.731327
H118	H	1.564138	-0.703483	-0.231327
H119	H	1.195415	-0.659634	-1.021645
H120	H	1.695415	-0.159634	-0.521645
H121	H	0.424782	-0.618947	-0.599559
H122	H	0.924782	-0.118947	-0.099559
H123	H	1.255215	-0.616187	-1.085467
H124	H	1.755215	-0.116187	-0.585467
H125	H	0.531238	-0.524537	-0.508270
H126	H	1.031238	-0.024537	-0.008270
H127	H	0.952294	-0.836234	-1.160172
H128	H	1.452294	-0.336234	-0.660172
H129	H	1.234934	-1.181795	-0.611077
H130	H	1.734934	-0.681795	-0.111077
H131	H	0.844347	-0.520668	-0.504533
H132	H	1.344347	-0.020668	-0.004533
H133	H	1.346698	-0.549722	-1.183136
H134	H	1.846698	-0.049722	-0.683136
H135	H	1.316617	-0.571557	-1.350055
H136	H	1.816617	-0.071557	-0.850055
H137	H	1.077639	-0.745157	-1.403662
H138	H	1.577639	-0.245157	-0.903662
H139	H	0.680305	-0.489610	-0.474522
H140	H	1.180305	0.010390	0.025478
H141	H	0.982369	-0.814412	-0.993241
H142	H	1.482369	-0.314412	-0.493241
H143	H	0.725918	-0.802263	-0.776760
H144	H	1.225918	-0.302263	-0.276760
H145	H	0.619465	-0.896671	-0.868025
H146	H	1.119465	-0.396671	-0.368025
H147	H	0.455438	-0.865605	-0.837998
H148	H	0.955438	-0.365605	-0.337998
H149	H	0.986152	-0.811641	-1.305994
H150	H	1.486152	-0.311641	-0.805994
