data_functionalizedCrystal
_audit_creation_method	'MofGen! by Chris Wilmer'
_symmetry_space_group_name_H-M	'P1'
_symmetry_Int_Tables_number	1
_symmetry_cell_setting	triclinic
loop_
_symmetry_equiv_pos_as_xyz
  x,y,z
_cell_length_a	12.594517
_cell_length_b	12.594516
_cell_length_c	13.897441
_cell_angle_alpha	90.026377
_cell_angle_beta	90.012353
_cell_angle_gamma	90.011939
loop_
_atom_site_label
_atom_site_type_symbol
_atom_site_fract_x
_atom_site_fract_y
_atom_site_fract_z
Zn1	Zn	1.627276	-0.423825	0.545194
Zn2	Zn	1.627164	-0.601836	0.383907
Zn3	Zn	1.449277	-0.423859	0.383936
Zn4	Zn	1.449262	-0.601749	0.545183
O5	O	1.538245	-0.512817	0.464555
O6	O	1.776207	-0.447461	0.523791
O7	O	1.603527	-0.578277	0.248929
O8	O	1.472942	-0.274909	0.405343
O9	O	1.776125	-0.578244	0.405294
O10	O	1.603717	-0.274884	0.523819
O11	O	1.472834	-0.447519	0.248950
O12	O	1.300329	-0.447434	0.405333
O13	O	1.472917	-0.578097	0.680166
O14	O	1.300318	-0.578130	0.523801
O15	O	1.603703	-0.447377	0.680174
O16	O	1.603512	-0.750770	0.405284
O17	O	1.472808	-0.750706	0.523773
C18	C	1.261704	-0.512777	0.464570
C19	C	1.143399	-0.512785	0.464599
C20	C	1.538175	-0.789358	0.464545
C21	C	1.538243	-0.907664	0.464574
C22	C	1.074170	-0.584010	0.528909
C23	C	1.003362	-0.486964	0.552630
C24	C	1.003408	-0.609912	0.440857
C25	C	1.074149	-0.415688	0.488366
C26	C	1.074200	-0.538701	0.376552
C27	C	1.003424	-0.441588	0.400239
C28	C	1.467146	-0.976921	0.528974
C29	C	1.441211	-1.047785	0.440961
C30	C	1.564275	-1.047599	0.552602
C31	C	1.512257	-0.976969	0.376514
C32	C	1.635365	-0.976777	0.488214
C33	C	1.609467	-1.047609	0.400140
C34	C	1.815866	-0.512858	0.464541
C35	C	1.934171	-0.512876	0.464535
C36	C	1.538320	-0.512723	0.716148
C37	C	1.538353	-0.512683	0.823362
C38	C	1.538344	-0.235196	0.464585
C39	C	1.538386	-0.116891	0.464599
C40	C	1.538231	-0.512834	0.213941
C41	C	1.538405	-0.512574	0.106727
C42	C	1.538382	-0.512611	1.019657
C43	C	1.538362	-0.512654	0.910425
H44	H	0.972246	-0.465076	0.627062
O45	O	1.115459	-0.567743	0.277991
H46	H	1.085883	-0.509459	0.224440
H47	H	1.490202	-0.946072	0.302058
O48	O	1.387366	-0.935796	0.601008
H49	H	1.428860	-0.887244	0.656076
O50	O	0.962263	-0.718669	0.414292
H51	H	0.874143	-0.717538	0.413844
H52	H	1.669653	-1.078451	0.345626
O53	O	1.593373	-1.088693	0.651197
H54	H	1.534169	-1.060380	0.704499
O55	O	1.332502	-1.089102	0.414470
H56	H	1.273565	-1.060798	0.468019
O57	O	1.744134	-0.935669	0.514743
H58	H	1.738204	-0.885936	0.580477
O59	O	1.115329	-0.663651	0.601025
H60	H	1.165017	-0.622242	0.655307
O61	O	1.115122	-0.306903	0.515054
H62	H	1.203247	-0.307731	0.514910
O63	O	0.962529	-0.361767	0.328165
H64	H	0.992172	-0.382613	0.255362
