data_functionalizedCrystal
_audit_creation_method	'MofGen! by Chris Wilmer'
_symmetry_space_group_name_H-M	'P1'
_symmetry_Int_Tables_number	1
_symmetry_cell_setting	triclinic
loop_
_symmetry_equiv_pos_as_xyz
  x,y,z
_cell_length_a	18.627243
_cell_length_b	18.627245
_cell_length_c	18.627297
_cell_angle_alpha	90.002039
_cell_angle_beta	59.997824
_cell_angle_gamma	119.999685
loop_
_atom_site_label
_atom_site_type_symbol
_atom_site_fract_x
_atom_site_fract_y
_atom_site_fract_z
O1	O	0.633240	-0.492484	-0.021356
O2	O	0.486232	-0.388088	0.021256
O3	O	0.633235	-0.388087	-0.125751
O4	O	0.486237	-0.492485	0.125650
O5	O	0.513833	-0.507489	-0.125750
O6	O	0.366830	-0.507489	0.021256
O7	O	0.513838	-0.611886	-0.021356
Cu8	Cu	0.429432	-0.570590	-0.000050
Cu9	Cu	0.570639	-0.429384	-0.000050
O10	O	0.366835	-0.611886	0.125650
C11	C	0.356044	-0.256979	0.030935
C12	C	0.406443	-0.162282	0.024836
C13	C	0.269040	-0.300580	0.031539
C14	C	0.356039	-0.386983	0.030943
C15	C	0.406432	-0.431286	0.024852
C16	C	0.269035	-0.430386	0.031548
C17	C	0.226044	-0.386979	0.030935
C18	C	0.137446	-0.431279	0.024835
C19	C	0.398838	-0.300583	0.031548
O20	O	-0.104350	-0.611881	-0.021369
O21	O	0.104442	-0.507482	0.021239
O22	O	0.104453	-0.507489	-0.125766
O23	O	-0.104360	-0.611875	0.125635
O24	O	0.104457	-0.388084	-0.125773
O25	O	0.104446	-0.388078	0.021231
O26	O	-0.104345	-0.492477	-0.021377
Cu27	Cu	0.000051	-0.429375	-0.000073
Cu28	Cu	0.000046	-0.570584	-0.000065
O29	O	-0.104356	-0.492470	0.125628
C30	C	0.644032	-0.386986	-0.387050
C31	C	0.593636	-0.431285	-0.431350
C32	C	0.731038	-0.300587	-0.430453
C33	C	0.644032	-0.386986	-0.257049
C34	C	0.593635	-0.431287	-0.162352
C35	C	0.731037	-0.300588	-0.300650
C36	C	0.774032	-0.256986	-0.387049
C37	C	0.862632	-0.162290	-0.431348
C38	C	0.601235	-0.430390	-0.300651
C39	C	0.774046	-0.612982	-0.031065
C40	C	0.862649	-0.568681	-0.024971
C41	C	0.731054	-0.699380	-0.031674
C42	C	0.644041	-0.612985	-0.031058
C43	C	0.593641	-0.568686	-0.024957
C44	C	0.601246	-0.699383	-0.031667
C45	C	0.644046	-0.742983	-0.031064
C46	C	0.593651	-0.837679	-0.024969
C47	C	0.731049	-0.569580	-0.031668
O48	O	0.513853	0.125721	-0.021375
O49	O	0.366846	-0.125678	0.021232
O50	O	0.513856	0.021315	-0.125772
O51	O	0.366843	-0.021272	0.125629
O52	O	0.633253	0.021311	-0.125765
O53	O	0.486243	-0.125682	0.021240
O54	O	0.633250	0.125717	-0.021368
Cu55	Cu	0.570648	0.000017	-0.000063
Cu56	Cu	0.429448	0.000022	-0.000072
O57	O	0.486240	-0.021275	0.125637
O58	O	1.104430	0.125707	-0.492538
O59	O	0.895633	-0.125690	-0.388147
O60	O	0.895628	0.021307	-0.388137
O61	O	1.104435	-0.021290	-0.492548
O62	O	0.895631	0.021311	-0.507540
O63	O	0.895636	-0.125686	-0.507550
O64	O	1.104433	0.125711	-0.611941
Cu65	Cu	1.000035	0.000013	-0.570648
Cu66	Cu	1.000031	0.000008	-0.429440
O67	O	1.104438	-0.021286	-0.611951
O68	O	0.486231	-0.492490	-0.611948
O69	O	0.633235	-0.388087	-0.507553
O70	O	0.486230	-0.388090	-0.507544
O71	O	0.633237	-0.492487	-0.611956
O72	O	0.366830	-0.507490	-0.388142
O73	O	0.513836	-0.507487	-0.388151
O74	O	0.366832	-0.611890	-0.492545
Cu75	Cu	0.429431	-0.570591	-0.429446
Cu76	Cu	0.570636	-0.429386	-0.570653
O77	O	0.513837	-0.611887	-0.492554
C78	C	0.226037	-0.742989	0.386948
C79	C	0.137437	-0.837686	0.431246
C80	C	0.269030	-0.699389	0.430353
C81	C	0.356038	-0.612988	0.256949
C82	C	0.406435	-0.568687	0.162252
C83	C	0.398834	-0.569585	0.300552
C84	C	0.356036	-0.612990	0.386950
C85	C	0.406432	-0.568691	0.431252
C86	C	0.269032	-0.699387	0.300549
C87	C	0.356073	-0.256995	-0.387073
C88	C	0.406473	-0.162299	-0.431376
C89	C	0.398871	-0.300599	-0.430474
C90	C	0.226065	-0.386990	-0.257069
C91	C	0.137460	-0.431286	-0.162372
C92	C	0.269060	-0.430398	-0.300668
C93	C	0.356070	-0.386997	-0.387067
C94	C	0.406468	-0.431300	-0.431364
C95	C	0.269063	-0.300593	-0.300674
C96	C	-0.355975	-0.612964	0.386929
C97	C	-0.406373	-0.568662	0.431227
C98	C	-0.398774	-0.699362	0.430336
C99	C	-0.225968	-0.612970	0.256931
C100	C	-0.137363	-0.568673	0.162234
C101	C	-0.268966	-0.699367	0.300535
C102	C	-0.355976	-0.742966	0.386934
C103	C	-0.406376	-0.837662	0.431237
C104	C	-0.268964	-0.569563	0.300530
C105	C	0.774043	0.030962	-0.387056
C106	C	0.862639	0.024856	-0.431349
C107	C	0.731051	0.031564	-0.430463
C108	C	0.644049	0.030986	-0.257064
C109	C	0.593654	0.024905	-0.162369
C110	C	0.601253	0.031588	-0.300669
C111	C	0.644048	0.030966	-0.387064
C112	C	0.593653	0.024863	-0.431366
C113	C	0.731051	0.031584	-0.300660
O114	O	0.633303	0.125701	-0.611972
O115	O	0.486281	-0.125700	-0.507577
O116	O	0.633272	0.021288	-0.507558
O117	O	0.486311	-0.021287	-0.611991
O118	O	0.513861	0.021292	-0.388162
O119	O	0.366869	-0.125696	-0.388181
O120	O	0.513891	0.125706	-0.492576
Cu121	Cu	0.429477	0.000005	-0.429476
Cu122	Cu	0.570695	0.000001	-0.570676
O123	O	0.366900	-0.021282	-0.492594
C124	C	0.356047	-0.030927	0.386929
C125	C	0.406443	-0.024826	0.431231
C126	C	0.269046	-0.031525	0.430327
C127	C	0.356047	-0.030947	0.256928
C128	C	0.406442	-0.024866	0.162234
C129	C	0.269045	-0.031545	0.300525
C130	C	0.226053	-0.030923	0.386920
C131	C	0.137458	-0.024816	0.431213
C132	C	0.398842	-0.031549	0.300533
H133	H	0.233055	-0.501375	0.032526
O134	O	0.517601	-0.515024	-0.258899
C135	C	0.342721	-0.615724	-0.207061
C136	C	0.437385	-0.519860	-0.254404
H137	H	0.277836	-0.619662	-0.203395
H138	H	0.360769	-0.659131	-0.244966
H139	H	0.319459	-0.639341	-0.137712
H140	H	0.460696	-0.496162	-0.323753
H141	H	0.419284	-0.476511	-0.216433
H142	H	-0.468788	-0.734361	0.501326
H143	H	0.233059	-0.265571	0.032519
H144	H	0.468895	-0.265589	-0.501459
H145	H	-0.233028	-0.498597	0.265502
H146	H	0.468865	-0.032513	0.265528
O147	O	0.226261	-0.032494	0.514954
C148	C	0.248637	0.041598	0.615694
C149	C	0.297202	0.042797	0.519828
H150	H	0.305977	0.102454	0.619669
H151	H	0.178978	0.041339	0.639359
H152	H	0.225015	-0.019932	0.659041
H153	H	0.320887	0.104317	0.476414
H154	H	0.366818	0.043009	0.496234
O155	O	0.482254	-0.484850	0.258820
C156	C	0.554253	-0.335421	0.187099
C157	C	0.459701	-0.431338	0.234352
H158	H	0.536059	-0.292132	0.167286
H159	H	0.577577	-0.311708	0.233131
H160	H	0.619154	-0.331427	0.125837
H161	H	0.394738	-0.435406	0.295611
H162	H	0.436465	-0.455008	0.188260
O163	O	0.517837	-0.741061	-0.033000
C164	C	0.445892	-0.741297	-0.110470
C165	C	0.540422	-0.694019	-0.109072
H166	H	0.464112	-0.703273	-0.171959
H167	H	0.422569	-0.810650	-0.110870
H168	H	0.380981	-0.744940	-0.049571
H169	H	0.605396	-0.690310	-0.169959
H170	H	0.563658	-0.624692	-0.108627
O171	O	0.225985	-0.741118	0.258860
C172	C	0.076829	-0.812845	0.258586
C173	C	0.125447	-0.765591	0.305885
H174	H	-0.004470	-0.832661	0.296596
H175	H	0.122472	-0.766813	0.189231
H176	H	0.076478	-0.874103	0.254943
H177	H	0.125808	-0.704336	0.309594
H178	H	0.079789	-0.811683	0.375214
O179	O	0.773826	-0.741263	-0.032734
C180	C	0.751540	-0.864346	0.041300
C181	C	0.702966	-0.817022	0.042604
H182	H	0.694280	-0.925595	0.102213
H183	H	0.775082	-0.884152	-0.020187
H184	H	0.821258	-0.818280	0.040935
H185	H	0.633217	-0.863039	0.043001
H186	H	0.679498	-0.797201	0.104085
H187	H	0.233062	-0.501390	-0.265660
O188	O	0.225950	-0.032834	0.258893
C189	C	0.076806	-0.110346	0.258604
C190	C	0.125478	-0.108985	0.305848
H191	H	-0.004426	-0.171917	0.296538
H192	H	0.076292	-0.049522	0.255030
H193	H	0.122557	-0.110633	0.189223
H194	H	0.079767	-0.108728	0.375251
H195	H	0.126007	-0.169805	0.309352
H196	H	0.468845	-0.265576	0.032531
H197	H	0.767030	-0.498593	-0.032637
O198	O	0.517845	0.032924	-0.258938
C199	C	0.445895	0.110397	-0.187232
C200	C	0.540429	0.109001	-0.234487
H201	H	0.464115	0.171890	-0.167433
H202	H	0.422565	0.110785	-0.233258
H203	H	0.380990	0.049505	-0.125961
H204	H	0.605398	0.169882	-0.295754
H205	H	0.563673	0.108568	-0.188401
O206	O	0.226299	-0.258704	-0.258959
C207	C	0.248598	-0.135627	-0.207189
C208	C	0.297160	-0.182960	-0.254466
H209	H	0.305859	-0.074390	-0.203525
H210	H	0.225075	-0.115801	-0.245139
H211	H	0.178871	-0.181696	-0.137840
H212	H	0.366919	-0.136941	-0.323815
H213	H	0.320610	-0.202801	-0.216450
O214	O	0.774116	-0.258783	-0.259006
C215	C	0.923228	-0.187161	-0.258670
C216	C	0.874588	-0.234464	-0.305938
H217	H	1.004460	-0.167502	-0.296585
H218	H	0.923738	-0.125824	-0.255098
H219	H	0.877458	-0.233200	-0.189287
H220	H	0.920318	-0.188495	-0.375342
H221	H	0.874062	-0.295812	-0.309439
O222	O	0.774034	0.032872	-0.515198
C223	C	0.851708	0.110305	-0.664617
C224	C	0.803079	0.108944	-0.568699
H225	H	0.875185	0.171794	-0.707896
H226	H	0.921447	0.110675	-0.688353
H227	H	0.794420	0.049409	-0.668598
H228	H	0.860291	0.169829	-0.564643
H229	H	0.733322	0.108529	-0.545005
O230	O	0.773845	-0.258799	-0.515094
C231	C	0.751546	-0.207106	-0.615910
C232	C	0.702941	-0.254433	-0.520021
H233	H	0.694235	-0.203577	-0.619929
H234	H	0.821218	-0.137714	-0.639588
H235	H	0.775153	-0.245049	-0.659218
H236	H	0.679271	-0.216563	-0.476646
H237	H	0.633311	-0.323829	-0.496415
H238	H	-0.232978	-0.734371	0.265528
O239	O	0.225927	-0.741156	0.515096
C240	C	0.076783	-0.812676	0.664528
C241	C	0.125467	-0.765441	0.568584
H242	H	-0.004439	-0.832307	0.707803
H243	H	0.076241	-0.874024	0.668687
H244	H	0.122544	-0.766602	0.688131
H245	H	0.079746	-0.811444	0.544920
H246	H	0.126024	-0.704081	0.564480
H247	H	0.767034	0.032562	-0.265654
