data_functionalizedCrystal
_audit_creation_method	'MofGen! by Chris Wilmer'
_symmetry_space_group_name_H-M	'P1'
_symmetry_Int_Tables_number	1
_symmetry_cell_setting	triclinic
loop_
_symmetry_equiv_pos_as_xyz
  x,y,z
_cell_length_a	17.639617
_cell_length_b	29.839131
_cell_length_c	17.640968
_cell_angle_alpha	78.759880
_cell_angle_beta	70.333968
_cell_angle_gamma	101.217837
loop_
_atom_site_label
_atom_site_type_symbol
_atom_site_fract_x
_atom_site_fract_y
_atom_site_fract_z
Zn1	Zn	1.354416	0.059430	-0.721274
Zn2	Zn	1.326400	-0.034761	-0.583383
Zn3	Zn	1.188686	0.021352	-0.555526
Zn4	Zn	1.216489	-0.034717	-0.693266
O5	O	1.271498	0.002826	-0.638362
O6	O	1.466056	0.062852	-0.726363
O7	O	1.284771	-0.043271	-0.464335
O8	O	1.210760	0.089288	-0.577576
O9	O	1.445473	-0.006349	-0.625055
O10	O	1.332521	0.117263	-0.699351
O11	O	1.183593	-0.002045	-0.443869
O12	O	1.077018	-0.002003	-0.550417
O13	O	1.258146	-0.006275	-0.812334
O14	O	1.097444	-0.043197	-0.651614
O15	O	1.359480	0.062895	-0.832912
O16	O	1.311730	-0.097640	-0.597896
O17	O	1.230980	-0.097608	-0.678626
C18	C	1.057321	-0.026727	-0.594954
C19	C	0.965699	-0.039378	-0.576403
C20	C	0.717996	0.098972	-0.779494
C21	C	0.631900	0.087071	-0.762046
C22	C	0.610457	0.015086	-0.656402
C23	C	0.696554	0.026980	-0.673844
C24	C	0.750317	0.068924	-0.735390
C25	C	0.728875	-0.003069	-0.629740
C26	C	0.814963	0.008826	-0.647178
C27	C	0.868731	0.050768	-0.708720
C28	C	0.836405	0.080818	-0.752828
C29	C	0.675110	-0.045011	-0.568190
C30	C	0.707431	-0.075060	-0.524087
C31	C	0.793521	-0.063167	-0.541528
C32	C	0.847289	-0.021224	-0.603070
C33	C	0.825847	-0.093217	-0.497420
C34	C	0.911936	-0.081322	-0.514857
C35	C	0.933378	-0.009330	-0.620507
C36	C	1.271358	-0.113924	-0.638267
C37	C	1.271379	-0.163855	-0.638270
C38	C	1.334902	-0.458864	-0.701843
C39	C	1.335002	-0.646518	-0.701911
O40	O	1.388878	-0.658364	-0.755887
N41	N	1.271656	-0.684584	-0.638482
C42	C	1.208278	-0.675735	-0.575035
O43	O	1.154396	-0.712419	-0.521091
C44	C	1.208176	-0.488082	-0.574971
C45	C	1.271531	-0.450017	-0.638400
C46	C	1.398251	-0.420800	-0.765267
C47	C	1.398228	-0.373890	-0.765247
C48	C	1.334856	-0.365043	-0.701803
C49	C	1.271508	-0.403107	-0.638380
C50	C	1.144795	-0.479234	-0.511528
C51	C	1.144774	-0.432316	-0.511519
C52	C	1.208129	-0.394251	-0.574948
C53	C	1.208113	-0.347349	-0.574916
N54	N	1.271458	-0.309283	-0.638345
C55	C	1.334830	-0.318130	-0.701788
C56	C	1.208337	-0.774255	-0.575072
C57	C	1.208363	-0.821168	-0.575087
C58	C	1.335086	-0.791947	-0.701964
C59	C	1.335063	-0.745033	-0.701945
C60	C	1.271683	-0.736188	-0.638501
C61	C	1.334778	-0.219616	-0.701741
C62	C	1.334751	-0.172702	-0.701713
C63	C	1.208026	-0.201927	-0.574839
C64	C	1.208054	-0.248836	-0.574864
C65	C	1.271434	-0.257678	-0.638322
O66	O	1.154260	-0.335468	-0.520973
O67	O	1.388694	-0.281440	-0.755734
C68	C	1.334925	-0.505775	-0.701863
C69	C	1.271576	-0.543838	-0.638440
C70	C	1.208205	-0.534991	-0.574996
C71	C	1.271603	-0.590751	-0.638455
C72	C	1.334974	-0.599598	-0.701898
C73	C	1.398320	-0.561532	-0.765327
C74	C	1.398297	-0.514621	-0.765307
C75	C	1.144859	-0.573058	-0.511567
C76	C	1.144888	-0.619967	-0.511592
C77	C	1.208259	-0.628814	-0.575036
C78	C	1.486511	0.032494	-0.681941
C79	C	1.578137	0.045137	-0.700511
C80	C	1.315040	0.032562	-0.853369
C81	C	1.333595	0.045234	-0.944992
C82	C	1.271664	0.120037	-0.638480
C83	C	1.271735	0.169985	-0.638531
C84	C	1.130854	-0.093153	-1.192766
C85	C	1.148307	-0.081238	-1.278863
C86	C	1.253817	-0.009218	-1.300278
C87	C	1.236371	-0.021126	-1.214180
C88	C	1.174889	-0.063095	-1.160431
C89	C	1.280405	0.008933	-1.181846
C90	C	1.262963	-0.002976	-1.095756
C91	C	1.201486	-0.044943	-1.042001
C92	C	1.157446	-0.075003	-1.074341
C93	C	1.341891	0.050899	-1.235598
C94	C	1.385926	0.080958	-1.203263
C95	C	1.368479	0.069052	-1.117171
C96	C	1.307002	0.027084	-1.063416
C97	C	1.412519	0.099112	-1.084831
C98	C	1.395076	0.087203	-0.998741
C99	C	1.289560	0.015176	-0.977327
C100	C	1.228173	-0.026756	-0.424202
C101	C	1.209778	-0.039279	-0.332612
H102	H	1.386345	-0.141709	-0.753365
H103	H	1.080770	-0.127320	-1.148995
N104	N	0.552468	-0.030150	-0.590016
H105	H	0.493025	-0.033125	-0.585659
H106	H	0.570069	-0.058411	-0.605776
N107	N	1.452238	0.126222	-1.261237
H108	H	1.456608	0.129205	-1.320682
H109	H	1.436399	0.154463	-1.243621
N110	N	1.466552	-0.332839	-0.833670
H111	H	1.456930	-0.301773	-0.824044
H112	H	1.522853	-0.334656	-0.832830
N113	N	1.403440	-0.801493	-0.770393
H114	H	1.393837	-0.836989	-0.760772
H115	H	1.402471	-0.786921	-0.826640
H116	H	1.449922	-0.568743	-0.816983
N117	N	0.894411	0.126051	-0.819222
H118	H	0.876895	0.154346	-0.803521
H119	H	0.953827	0.128973	-0.823537
H120	H	0.782060	-0.127365	-0.447303
H121	H	1.187289	-0.054640	-0.971903
N122	N	0.961586	0.063579	-0.727537
H123	H	0.993753	0.065948	-0.788256
H124	H	0.979254	0.095188	-0.716660
H125	H	1.093205	-0.510220	-0.459878
N126	N	1.076420	-0.422774	-0.443084
H127	H	1.044959	-0.403965	-0.468795
H128	H	1.036351	-0.454027	-0.402930
N129	N	0.776001	0.144205	-0.845888
H130	H	0.758485	0.172500	-0.830187
H131	H	0.835417	0.147128	-0.850203
H132	H	1.239476	-0.018991	-0.933556
N133	N	0.597038	0.119483	-0.809619
H134	H	0.644162	0.147858	-0.851252
H135	H	0.569026	0.101495	-0.840465
H136	H	1.112444	-0.105719	-1.305185
H137	H	1.303878	0.024952	-1.344053
H138	H	0.605008	-0.054687	-0.553977
H139	H	1.356092	0.060593	-1.305697
H140	H	0.938251	-0.105791	-0.478944
N141	N	1.478833	0.144374	-1.142803
H142	H	1.524246	0.136322	-1.186239
H143	H	1.452536	0.165498	-1.171701
H144	H	0.663645	-0.109209	-0.473973
N145	N	0.991383	0.035900	-0.686909
H146	H	1.020356	0.057065	-0.660737
H147	H	1.034755	0.027760	-0.732239
N148	N	1.091129	-0.120267	-1.016358
H149	H	1.065875	-0.137504	-1.049902
H150	H	1.117422	-0.141373	-0.987419
N151	N	1.076510	-0.563518	-0.443133
H152	H	1.020186	-0.578075	-0.443944
H153	H	1.077525	-0.578066	-0.386897
H154	H	1.430933	0.111680	-0.972414
N155	N	1.139731	-0.289894	-0.506447
H156	H	1.165543	-0.310006	-0.475079
H157	H	1.099610	-0.277129	-0.466309
H158	H	1.386383	-0.226808	-0.753419
H159	H	1.449857	-0.427996	-0.816935
N160	N	1.403387	-0.703977	-0.770357
H161	H	1.459718	-0.705750	-0.769545
H162	H	1.402390	-0.705786	-0.826603
N163	N	1.140042	-0.862221	-0.506666
H164	H	1.099895	-0.849493	-0.466476
H165	H	1.108661	-0.882328	-0.532453
H166	H	1.156724	-0.767058	-0.523406
H167	H	1.156431	-0.194716	-0.523182
N168	N	1.466629	-0.473569	-0.833720
H169	H	1.506771	-0.486299	-0.873910
H170	H	1.440755	-0.453472	-0.865030
H171	H	1.093296	-0.650958	-0.459934
