data_functionalizedCrystal
_audit_creation_method	'MofGen! by Chris Wilmer'
_symmetry_space_group_name_H-M	'P1'
_symmetry_Int_Tables_number	1
_symmetry_cell_setting	triclinic
loop_
_symmetry_equiv_pos_as_xyz
  x,y,z
_cell_length_a	27.731993
_cell_length_b	19.188940
_cell_length_c	18.266242
_cell_angle_alpha	89.993204
_cell_angle_beta	90.002496
_cell_angle_gamma	82.884554
loop_
_atom_site_label
_atom_site_type_symbol
_atom_site_fract_x
_atom_site_fract_y
_atom_site_fract_z
O1	O	0.641203	0.082897	-0.060685
O2	O	0.500445	0.095569	-0.060730
O3	O	0.574883	-0.012449	-0.060700
O4	O	0.566764	0.190915	-0.060714
O5	O	0.574871	-0.012455	0.061062
O6	O	0.500432	0.095564	0.061032
O7	O	0.641190	0.082892	0.061077
Zn8	Zn	0.570809	0.089227	0.080387
Zn9	Zn	0.570826	0.089234	-0.080040
O10	O	0.566752	0.190910	0.061048
C11	C	0.574613	-0.038461	0.000180
C12	C	0.573822	-0.115960	0.000180
C13	C	0.482430	0.095306	0.000146
C14	C	0.428772	0.094523	0.000129
C15	C	0.568183	-0.669185	0.066533
C16	C	0.568922	-0.596365	0.066537
C17	C	0.569300	-0.559945	0.000166
C18	C	0.568927	-0.596348	-0.066215
C19	C	0.568184	-0.669165	-0.066217
N20	N	0.597979	-0.451110	-0.049227
N21	N	0.598686	-0.381937	-0.049220
C22	C	0.571539	-0.340551	0.000169
N23	N	0.543664	-0.370952	0.049563
N24	N	0.542959	-0.440132	0.049558
C25	C	0.570106	-0.480987	0.000161
C26	C	0.572709	-0.225196	0.066550
C27	C	0.573444	-0.152375	0.066552
C28	C	0.573455	-0.152360	-0.066202
C29	C	0.572715	-0.225180	-0.066202
C30	C	0.572344	-0.261594	0.000177
C31	C	0.045601	0.088848	-0.066208
C32	C	0.247267	0.091834	-0.066228
O33	O	0.273347	0.092195	-0.122676
N34	N	0.272482	0.092205	0.000143
C35	C	0.247277	0.091824	0.066524
O36	O	0.273352	0.092201	0.122976
C37	C	0.045612	0.088834	0.066543
C38	C	0.020399	0.088470	0.000168
C39	C	0.020388	0.088484	-0.132578
C40	C	-0.030026	0.087742	-0.132572
C41	C	-0.055227	0.087363	-0.066196
C42	C	-0.030015	0.087728	0.000173
C43	C	0.020409	0.088448	0.132923
C44	C	-0.030011	0.087699	0.132922
C45	C	-0.055223	0.087335	0.066547
C46	C	-0.105630	0.086607	0.066555
N47	N	-0.130845	0.086236	0.000184
C48	C	-0.105643	0.086615	-0.066192
C49	C	0.353154	0.093396	0.066509
C50	C	0.403570	0.094145	0.066504
C51	C	0.403557	0.094153	-0.066248
C52	C	0.353140	0.093409	-0.066242
C53	C	0.327940	0.093025	0.000138
C54	C	-0.211516	0.085056	-0.066175
C55	C	-0.261935	0.084316	-0.066163
C56	C	-0.261917	0.084304	0.066588
C57	C	-0.211503	0.085047	0.066577
C58	C	-0.186304	0.085421	0.000190
O59	O	-0.131740	0.086238	0.122974
O60	O	-0.131725	0.086222	-0.122635
C61	C	0.096015	0.089591	-0.066213
C62	C	0.121227	0.089955	0.000156
C63	C	0.096026	0.089577	0.066532
C64	C	0.171643	0.090704	0.000152
C65	C	0.196845	0.091082	-0.066224
C66	C	0.171630	0.090712	-0.132595
C67	C	0.121216	0.089969	-0.132589
C68	C	0.121240	0.089948	0.132903
C69	C	0.171654	0.090691	0.132892
C70	C	0.196856	0.091069	0.066516
C71	C	0.659205	0.083155	0.000200
C72	C	0.712864	0.083938	0.000212
C73	C	0.567022	0.216922	0.000165
C74	C	0.567813	0.294421	0.000161
N75	N	0.570802	0.089222	0.189874
N76	N	0.570837	0.089234	-0.189527
C77	C	0.603774	0.041414	0.228196
C78	C	0.603777	0.041411	0.304841
C79	C	0.570812	0.089227	0.343161
C80	C	0.537834	0.137038	0.304830
C81	C	0.537829	0.137035	0.228186
N82	N	0.564530	0.151076	0.463488
N83	N	0.564538	0.151076	0.536296
C84	C	0.570826	0.089237	0.574083
N85	N	0.577114	0.027395	0.536312
N86	N	0.577109	0.027395	0.463497
C87	C	0.570814	0.089235	0.426268
C88	C	0.603803	0.041422	0.695512
C89	C	0.603803	0.041418	0.772159
C90	C	0.537862	0.137051	0.772146
C91	C	0.537860	0.137049	0.695501
C92	C	0.570833	0.089235	0.657189
H93	H	0.567881	-0.698828	0.120584
C94	C	0.640055	-0.011176	0.347003
N95	N	0.667382	-0.050782	0.378758
C96	C	0.501571	0.189633	0.346983
N97	N	0.474254	0.229246	0.378734
H98	H	0.192178	0.090993	0.186947
C99	C	0.325439	0.092988	0.139537
N100	N	0.304566	0.092688	0.194543
H101	H	0.630621	0.002480	0.197004
C102	C	0.640069	-0.011188	0.814312
N103	N	0.667383	-0.050816	0.846063
H104	H	0.567882	-0.698797	-0.120267
C105	C	0.048132	0.088841	0.205942
N106	N	0.069012	0.089134	0.260945
C107	C	0.501601	0.189650	0.814294
N108	N	0.474288	0.229269	0.846043
H109	H	0.511013	0.175981	0.664298
C110	C	-0.057728	0.087280	0.205947
N111	N	-0.078604	0.086968	0.260950
C112	C	0.569333	-0.556324	0.139555
N113	N	0.569645	-0.526167	0.194552
C114	C	0.573870	-0.112302	-0.139212
N115	N	0.574181	-0.082127	-0.194205
H116	H	0.572403	-0.254846	0.120600
H117	H	-0.190975	0.085357	0.120625
H118	H	0.573744	-0.122743	0.120602
C119	C	0.569347	-0.556285	-0.139224
N120	N	0.569662	-0.526110	-0.194216
H121	H	0.572417	-0.254813	-0.120249
H122	H	-0.282445	0.083999	0.120629
C123	C	-0.289665	0.083911	-0.139184
N124	N	-0.310550	0.083603	-0.194182
H125	H	-0.191005	0.085361	-0.120234
C126	C	-0.057752	0.087327	-0.205591
N127	N	-0.078631	0.087009	-0.260592
C128	C	0.048102	0.088899	-0.205603
N129	N	0.068972	0.089216	-0.260610
C130	C	0.325411	0.093002	-0.139259
N131	N	0.304529	0.092692	-0.194259
C132	C	0.431288	0.094564	-0.139261
N133	N	0.452179	0.094867	-0.194252
H134	H	0.424093	0.094452	0.120554
C135	C	0.501576	0.189659	0.186031
N136	N	0.474278	0.229308	0.154279
C137	C	0.199362	0.091125	-0.205608
N138	N	0.220252	0.091432	-0.260599
H139	H	0.630650	0.002487	0.664317
H140	H	0.100692	0.089673	-0.186639
H141	H	0.100727	0.089636	0.186955
