data_functionalizedCrystal
_audit_creation_method	'MofGen! by Chris Wilmer'
_symmetry_space_group_name_H-M	'P1'
_symmetry_Int_Tables_number	1
_symmetry_cell_setting	triclinic
loop_
_symmetry_equiv_pos_as_xyz
  x,y,z
_cell_length_a	15.944551
_cell_length_b	15.944493
_cell_length_c	13.101039
_cell_angle_alpha	93.367629
_cell_angle_beta	86.646591
_cell_angle_gamma	83.486891
loop_
_atom_site_label
_atom_site_type_symbol
_atom_site_fract_x
_atom_site_fract_y
_atom_site_fract_z
O1	O	1.119117	0.103706	-0.085094
O2	O	1.452450	0.437039	0.248239
O3	O	1.785783	0.770372	0.581572
O4	O	0.874565	0.117061	-0.085118
O5	O	1.207899	0.450394	0.248215
O6	O	1.541232	0.783728	0.581549
O7	O	1.003545	-0.011895	-0.085114
O8	O	1.336878	0.321438	0.248219
O9	O	1.670212	0.654771	0.581553
O10	O	0.990137	0.232662	-0.085098
O11	O	1.323470	0.565995	0.248235
O12	O	1.656804	0.899329	0.581568
O13	O	0.994291	-0.002627	0.085315
O14	O	1.327624	0.330706	0.418649
O15	O	1.660958	0.664039	0.751982
O16	O	0.865311	0.126329	0.085311
O17	O	1.198645	0.459662	0.418645
O18	O	1.531978	0.792995	0.751978
O19	O	1.109862	0.112973	0.085335
O20	O	1.443196	0.446307	0.418669
O21	O	1.776529	0.779640	0.752002
Zn22	Zn	0.986118	0.121123	0.112383
Zn23	Zn	1.319451	0.454456	0.445716
Zn24	Zn	1.652784	0.787789	0.779049
Zn25	Zn	0.998310	0.108912	-0.112166
Zn26	Zn	1.331644	0.442245	0.221168
Zn27	Zn	1.664977	0.775579	0.554501
O28	O	0.980883	0.241930	0.085331
O29	O	1.314216	0.575263	0.418665
O30	O	1.647550	0.908596	0.751998
C31	C	0.838645	0.121140	0.000093
C32	C	1.171978	0.454474	0.333427
C33	C	1.505311	0.787807	0.666760
C34	C	0.745400	0.119477	0.000084
C35	C	1.078733	0.452811	0.333417
C36	C	1.412066	0.786144	0.666750
C37	C	0.530559	0.035571	0.000098
C38	C	0.863893	0.368905	0.333431
C39	C	1.197226	0.702238	0.666765
C40	C	0.474094	0.069965	-0.083930
C41	C	0.807427	0.403299	0.249403
C42	C	1.140761	0.736632	0.582736
C43	C	0.574674	0.116471	0.000095
C44	C	0.908007	0.449804	0.333429
C45	C	1.241340	0.783137	0.666762
C46	C	0.464992	0.079122	0.084100
C47	C	0.798326	0.412455	0.417433
C48	C	1.131659	0.745789	0.750767
C49	C	0.409761	0.113561	0.000112
C50	C	0.743094	0.446894	0.333445
C51	C	1.076427	0.780227	0.666778
C52	C	0.519440	0.150883	-0.084002
C53	C	0.852773	0.484216	0.249331
C54	C	1.186107	0.817550	0.582665
C55	C	0.510341	0.160032	0.084104
C56	C	0.843674	0.493366	0.417437
C57	C	1.177007	0.826699	0.750770
C58	C	0.453894	0.194484	0.000055
C59	C	0.787227	0.527817	0.333388
C60	C	1.120560	0.861151	0.666721
C61	C	0.669676	0.118145	0.000085
C62	C	1.003009	0.451478	0.333419
C63	C	1.336343	0.784811	0.666752
C64	C	0.314760	0.111892	0.000114
C65	C	0.648093	0.445226	0.333448
C66	C	0.981426	0.778559	0.666781
C67	C	0.998370	-0.038556	0.000096
C68	C	1.331704	0.294777	0.333430
C69	C	1.665037	0.628110	0.666763
C70	C	0.996728	-0.131806	0.000083
C71	C	1.330061	0.201528	0.333416
C72	C	1.663395	0.534861	0.666750
C73	C	1.072647	-0.367564	0.000110
C74	C	1.405980	-0.034231	0.333443
C75	C	1.739314	0.299103	0.666777
C76	C	1.036269	-0.422702	-0.083924
C77	C	1.369602	-0.089369	0.249409
C78	C	1.702936	0.243965	0.582742
C79	C	0.993683	-0.302526	0.000095
C80	C	1.327017	0.030807	0.333429
C81	C	1.660350	0.364141	0.666762
C82	C	1.027127	-0.413541	0.084106
C83	C	1.360460	-0.080207	0.417439
C84	C	1.693793	0.253126	0.750773
C85	C	0.990748	-0.467435	0.000112
C86	C	1.324081	-0.134101	0.333445
C87	C	1.657415	0.199232	0.666778
C88	C	0.957330	-0.356439	-0.084008
C89	C	1.290664	-0.023106	0.249325
C90	C	1.623997	0.310227	0.582659
C91	C	0.948196	-0.347271	0.084098
C92	C	1.281529	-0.013937	0.417431
C93	C	1.614862	0.319396	0.750764
C94	C	0.911761	-0.402377	0.000043
C95	C	1.245094	-0.069043	0.333376
C96	C	1.578427	0.264290	0.666710
C97	C	0.995377	-0.207527	0.000085
C98	C	1.328710	0.125807	0.333418
C99	C	1.662043	0.459140	0.666752
C100	C	0.989049	-0.562432	0.000115
C101	C	1.322382	-0.229098	0.333448
C102	C	1.655715	0.104235	0.666781
C103	C	1.145783	0.108894	0.000122
C104	C	1.479117	0.442227	0.333455
C105	C	1.812450	0.775561	0.666788
C106	C	1.239029	0.110557	0.000125
C107	C	1.572362	0.443890	0.333458
C108	C	1.905695	0.777223	0.666791
C109	C	0.986058	0.268591	0.000119
C110	C	1.319391	0.601924	0.333452
C111	C	1.652724	0.935257	0.666785
C112	C	0.987700	0.361840	0.000125
C113	C	1.321034	0.695173	0.333458
C114	C	1.654367	1.028506	0.666792
N115	N	0.977802	0.129455	0.265631
N116	N	1.311136	0.462789	0.598964
N117	N	1.644469	0.796122	0.932298
N118	N	1.006632	0.100572	-0.265414
N119	N	1.339965	0.433906	0.067919
N120	N	1.673299	0.767239	0.401253
C121	C	0.966489	0.140800	0.474673
C122	C	1.299823	0.474134	0.808007
C123	C	1.633156	0.807467	1.141340
C124	C	1.017942	0.089230	0.525550
C125	C	1.351276	0.422563	0.858884
C126	C	1.684609	0.755897	1.192217
C127	C	1.011648	0.095543	0.641869
C128	C	1.344981	0.428876	0.975202
C129	C	1.678314	0.762209	1.308535
C130	C	0.972783	0.134489	0.358344
C131	C	1.306116	0.467822	0.691678
C132	C	1.639450	0.801156	1.025011
H133	H	0.420724	0.261691	0.000012
H134	H	0.754057	0.595024	0.333345
H135	H	1.087390	0.928357	0.666679
H136	H	0.457849	0.031885	-0.154975
H137	H	0.791182	0.365218	0.178359
H138	H	1.124515	0.698552	0.511692
H139	H	1.056634	-0.438609	0.155146
H140	H	1.389967	-0.105275	0.488479
H141	H	1.723300	0.228058	0.821812
H142	H	0.917716	0.189689	0.518469
H143	H	1.251049	0.523023	0.851802
H144	H	1.584382	0.856356	1.185135
H145	H	0.563912	-0.031574	-0.000010
H146	H	0.897246	0.301759	0.333323
H147	H	1.230579	0.635092	0.666656
H148	H	0.843693	-0.417845	-0.000010
H149	H	1.177026	-0.084512	0.333324
H150	H	1.510359	0.248821	0.666657
F151	F	1.084897	-0.465588	-0.176776
F152	F	1.418231	-0.132254	0.156557
F153	F	1.751564	0.201079	0.489890
F154	F	0.433707	0.039430	0.176952
F155	F	0.767040	0.372763	0.510285
F156	F	1.100374	0.706096	0.843618
F157	F	1.081950	0.025577	0.468304
F158	F	1.415283	0.358910	0.801637
F159	F	1.748617	0.692243	1.134971
H160	H	0.911019	-0.314447	0.155139
H161	H	1.244352	0.018887	0.488472
H162	H	1.577686	0.352220	0.821806
F163	F	0.550600	0.190519	-0.176958
F164	F	0.883933	0.523852	0.156375
F165	F	1.217267	0.857186	0.489709
H166	H	0.526607	0.198085	0.155151
H167	H	0.859940	0.531418	0.488485
H168	H	1.193274	0.864751	0.821818
F169	F	1.161555	-0.347140	0.000011
F170	F	1.494889	-0.013807	0.333345
F171	F	1.828222	0.319527	0.666678
H172	H	0.927863	-0.331487	-0.155128
H173	H	1.261197	0.001846	0.178205
H174	H	1.594530	0.335180	0.511538
