data_functionalizedCrystal
_audit_creation_method	'MofGen! by Chris Wilmer'
_symmetry_space_group_name_H-M	'P1'
_symmetry_Int_Tables_number	1
_symmetry_cell_setting	triclinic
loop_
_symmetry_equiv_pos_as_xyz
  x,y,z
_cell_length_a	16.959455
_cell_length_b	12.827893
_cell_length_c	12.827885
_cell_angle_alpha	89.974949
_cell_angle_beta	89.979870
_cell_angle_gamma	90.000457
loop_
_atom_site_label
_atom_site_type_symbol
_atom_site_fract_x
_atom_site_fract_y
_atom_site_fract_z
Zn1	Zn	1.208520	-0.416067	-0.590907
Zn2	Zn	1.708520	0.083933	-0.090907
Zn3	Zn	1.208467	-0.590845	-0.416182
Zn4	Zn	1.708467	-0.090845	0.083818
Zn5	Zn	1.076335	-0.416109	-0.416178
Zn6	Zn	1.576335	0.083891	0.083822
Zn7	Zn	1.076351	-0.590758	-0.590879
Zn8	Zn	1.576351	-0.090758	-0.090879
O9	O	1.142419	-0.503445	-0.503536
O10	O	1.642419	-0.003445	-0.003536
O11	O	1.319124	-0.439271	-0.567743
O12	O	1.819124	0.060729	-0.067743
O13	O	1.190911	-0.567720	-0.269945
O14	O	1.690911	-0.067720	0.230055
O15	O	1.093885	-0.269868	-0.439366
O16	O	1.593885	0.230132	0.060634
O17	O	1.319085	-0.567679	-0.439373
O18	O	1.819085	-0.067679	0.060627
O19	O	1.191001	-0.269837	-0.567739
O20	O	1.691001	0.230163	-0.067739
O21	O	1.093834	-0.439342	-0.269942
O22	O	1.593834	0.060658	0.230058
O23	O	0.965726	-0.439258	-0.439339
O24	O	1.465726	0.060742	0.060661
O25	O	1.093913	-0.567531	-0.737119
O26	O	1.593913	-0.067531	-0.237119
O27	O	0.965738	-0.567571	-0.567691
O28	O	1.465738	-0.067571	-0.067691
O29	O	1.191016	-0.439187	-0.737139
O30	O	1.691016	0.060813	-0.237139
O31	O	1.190927	-0.737069	-0.439346
O32	O	1.690927	-0.237069	0.060654
O33	O	1.093862	-0.737005	-0.567695
O34	O	1.593862	-0.237005	-0.067695
C35	C	0.937052	-0.503410	-0.503512
C36	C	1.437052	-0.003410	-0.003512
C37	C	0.849196	-0.503421	-0.503527
C38	C	1.349196	-0.003421	-0.003527
C39	C	1.142447	-0.230875	-0.503555
C40	C	1.642447	0.269125	-0.003555
C41	C	1.142459	-0.114722	-0.503563
C42	C	1.642459	0.385278	-0.003563
C43	C	1.142412	-0.774955	-0.503540
C44	C	1.642412	-0.274955	-0.003540
C45	C	1.142481	-0.891108	-0.503577
C46	C	1.642481	-0.391108	-0.003577
C47	C	0.477689	-0.436577	-0.436843
C48	C	0.977689	0.063423	0.063157
C49	C	0.477751	-0.570399	-0.570290
C50	C	0.977751	-0.070399	-0.070290
C51	C	0.560297	-0.570384	-0.570283
C52	C	1.060297	-0.070384	-0.070283
C53	C	0.601543	-0.503465	-0.503555
C54	C	1.101543	-0.003465	-0.003555
C55	C	0.560243	-0.436562	-0.436832
C56	C	1.060243	0.063438	0.063168
C57	C	0.601603	-0.637293	-0.636997
C58	C	1.101603	-0.137293	-0.136997
C59	C	0.684153	-0.637281	-0.636992
C60	C	1.184153	-0.137281	-0.136992
C61	C	0.725401	-0.570357	-0.570268
C62	C	1.225401	-0.070357	-0.070268
C63	C	0.684096	-0.503451	-0.503544
C64	C	1.184096	-0.003451	-0.003544
C65	C	0.725342	-0.436533	-0.436815
C66	C	1.225342	0.063467	0.063185
C67	C	0.684039	-0.369620	-0.370096
C68	C	1.184039	0.130380	0.129904
C69	C	0.601491	-0.369638	-0.370108
C70	C	1.101491	0.130362	0.129892
C71	C	0.807950	-0.570339	-0.570256
C72	C	1.307950	-0.070339	-0.070256
C73	C	0.807896	-0.436518	-0.436805
C74	C	1.307896	0.063482	0.063195
C75	C	1.348587	-0.503480	-0.503561
C76	C	1.848587	-0.003480	-0.003561
C77	C	1.436443	-0.503495	-0.503572
C78	C	1.936443	-0.003495	-0.003572
C79	C	1.142472	-0.503345	-0.776107
C80	C	1.642472	-0.003345	-0.276107
C81	C	1.142495	-0.503302	-0.892260
C82	C	1.642495	-0.003302	-0.392260
C83	C	1.094413	-0.062952	-0.440051
C84	C	1.594413	0.437048	0.059949
C85	C	1.094425	0.057098	-0.440058
C86	C	1.594425	0.557098	0.059942
C87	C	1.190550	-0.439780	-0.944055
C88	C	1.690550	0.060220	-0.444055
C89	C	1.190575	-0.439735	-1.064105
C90	C	1.690575	0.060265	-0.564105
C91	C	1.142410	-0.503469	-0.232027
C92	C	1.642410	-0.003469	0.267973
C93	C	1.142541	-0.503218	-0.115874
C94	C	1.642541	-0.003218	0.384126
H95	H	0.841473	-0.382018	-0.382472
H96	H	1.341473	0.117982	0.117528
F97	F	1.196233	-0.056491	-0.574651
F98	F	1.696233	0.443509	-0.074651
F99	F	1.040662	0.115286	-0.368977
F100	F	1.540662	0.615286	0.131023
H101	H	1.231720	-0.385355	-1.108648
H102	H	1.731720	0.114645	-0.608648
H103	H	1.231671	-0.385428	-0.899522
H104	H	1.731671	0.114572	-0.399522
H105	H	1.183620	0.064378	-0.557952
H106	H	1.683620	0.564378	-0.057952
H107	H	1.101367	-0.557644	-0.936793
H108	H	1.601367	-0.057644	-0.436793
F109	F	1.088765	-0.574311	-1.057664
F110	F	1.588765	-0.074311	-0.557664
H111	H	0.717632	-0.315140	-0.315761
H112	H	1.217632	0.184860	0.184239
H113	H	0.567854	-0.315163	-0.315787
H114	H	1.067854	0.184837	0.184213
H115	H	0.444057	-0.382096	-0.382524
H116	H	0.944057	0.117904	0.117476
H117	H	0.717776	-0.691765	-0.691320
H118	H	1.217776	-0.191765	-0.191320
H119	H	0.568014	-0.691781	-0.691316
H120	H	1.068014	-0.191781	-0.191316
F121	F	0.851904	-0.641553	-0.641252
F122	F	1.351904	-0.141553	-0.141252
F123	F	0.433852	-0.641632	-0.641284
F124	F	0.933852	-0.141632	-0.141284
H125	H	1.053269	-0.107507	-0.385674
H126	H	1.553269	0.392493	0.114326
