data_functionalizedCrystal
_audit_creation_method	'MofGen! by Chris Wilmer'
_symmetry_space_group_name_H-M	'P1'
_symmetry_Int_Tables_number	1
_symmetry_cell_setting	triclinic
loop_
_symmetry_equiv_pos_as_xyz
  x,y,z
_cell_length_a	18.101395
_cell_length_b	10.685972
_cell_length_c	10.686551
_cell_angle_alpha	98.409768
_cell_angle_beta	85.593544
_cell_angle_gamma	85.604248
loop_
_atom_site_label
_atom_site_type_symbol
_atom_site_fract_x
_atom_site_fract_y
_atom_site_fract_z
Zn1	Zn	-0.166031	-1.995711	-0.866736
Zn2	Zn	-0.300195	-1.979223	-0.654460
Zn3	Zn	-0.186639	-1.767127	-0.638193
Zn4	Zn	-0.300120	-1.783346	-0.850365
O5	O	-0.238246	-1.881352	-0.752439
O6	O	-0.175236	-2.171162	-0.852236
O7	O	-0.293788	-1.937400	-0.474669
O8	O	-0.080266	-1.797562	-0.668553
O9	O	-0.273805	-2.159048	-0.696278
O10	O	-0.065125	-1.965501	-0.836463
O11	O	-0.210359	-1.781574	-0.462718
O12	O	-0.210286	-1.591641	-0.652680
O13	O	-0.273676	-1.825205	-1.030170
O14	O	-0.293659	-1.603557	-0.808562
O15	O	-0.175162	-1.981228	-1.042198
O16	O	-0.403825	-1.953126	-0.680404
O17	O	-0.403770	-1.809217	-0.824335
C18	C	-0.254201	-1.551539	-0.727080
C19	C	-0.261043	-1.410446	-0.716261
C20	C	-0.430667	-1.881179	-0.752388
C21	C	-0.512978	-1.881224	-0.752418
C22	C	-0.812052	-1.881508	-0.752508
C23	C	-0.780700	-1.791210	-0.843326
C24	C	-0.695119	-1.790722	-0.842983
C25	C	-0.663678	-1.881368	-0.752464
C26	C	-0.703078	-1.834871	-0.615904
C27	C	-0.788726	-1.834285	-0.616444
C28	C	-0.772230	-2.018427	-0.797088
C29	C	-0.686475	-2.017862	-0.799962
C30	C	-0.579823	-1.881290	-0.752432
C31	C	-0.895907	-1.881582	-0.752531
C32	C	-0.045071	-1.881562	-0.752520
C33	C	0.037248	-1.881651	-0.752554
C34	C	-0.222112	-1.906865	-1.083530
C35	C	-0.215237	-1.917737	-1.224622
C36	C	-0.222225	-1.212452	-0.777891
C37	C	-0.215386	-1.353546	-0.788723
C38	C	-0.254261	-1.856011	-0.422641
C39	C	-0.260916	-1.845385	-0.281569
H40	H	-0.668141	-1.821003	-0.943919
N41	N	-0.159789	-1.427836	-0.876956
N42	N	-0.159806	-1.422174	-0.992959
H43	H	-0.120540	-1.474649	-1.055277
N44	N	-0.316566	-1.757218	-1.207332
N45	N	-0.316606	-1.641210	-1.213035
H46	H	-0.355909	-1.578937	-1.160598
H47	H	-0.305368	-1.351214	-0.645937
N48	N	-0.798999	-1.829022	-0.970350
N49	N	-0.835367	-1.922953	-0.995431
H50	H	-0.848276	-1.949685	-1.085153
H51	H	-0.787524	-2.058814	-0.895513
H52	H	-0.170869	-1.988008	-1.283813
N53	N	-0.676895	-1.663679	-0.804956
N54	N	-0.643008	-1.637691	-0.708184
H55	H	-0.630128	-1.547963	-0.681347
N56	N	-0.815150	-1.664944	-0.805654
N57	N	-0.808791	-1.607142	-0.697096
H58	H	-0.833123	-1.517967	-0.670483
N59	N	-0.821594	-1.708343	-0.570562
N60	N	-0.781240	-1.621490	-0.538367
H61	H	-0.804450	-1.532540	-0.505961
H62	H	-0.683021	-1.898118	-0.545942
N63	N	-0.815195	-1.912467	-0.527928
N64	N	-0.804672	-1.886380	-0.413154
H65	H	-0.823367	-1.941579	-0.350627
N66	N	-0.683948	-1.710191	-0.569461
N67	N	-0.617444	-1.690823	-0.557499
H68	H	-0.603933	-1.602766	-0.524702
H69	H	-0.664571	-2.089523	-0.739456
N70	N	-0.653272	-2.061605	-0.926102
N71	N	-0.612959	-1.992586	-0.980892
H72	H	-0.589505	-2.023474	-1.069981
H73	H	-0.792428	-2.085828	-0.731067
