data_functionalizedCrystal
_audit_creation_method	'MofGen! by Chris Wilmer'
_symmetry_space_group_name_H-M	'P1'
_symmetry_Int_Tables_number	1
_symmetry_cell_setting	triclinic
loop_
_symmetry_equiv_pos_as_xyz
  x,y,z
_cell_length_a	13.033615
_cell_length_b	18.215407
_cell_length_c	18.215399
_cell_angle_alpha	89.980167
_cell_angle_beta	97.199361
_cell_angle_gamma	82.814791
loop_
_atom_site_label
_atom_site_type_symbol
_atom_site_fract_x
_atom_site_fract_y
_atom_site_fract_z
Zn1	Zn	-0.416040	-1.087955	0.378939
Zn2	Zn	0.083960	-0.587955	0.878939
Zn3	Zn	-0.590803	-1.072271	0.240256
Zn4	Zn	-0.090803	-0.572271	0.740256
Zn5	Zn	-0.416074	-0.964884	0.255883
Zn6	Zn	0.083926	-0.464884	0.755883
Zn7	Zn	-0.590745	-0.949267	0.363286
Zn8	Zn	-0.090745	-0.449267	0.863286
O9	O	-0.503416	-1.018594	0.309591
O10	O	-0.003416	-0.518594	0.809591
O11	O	-0.439233	-1.188858	0.360553
O12	O	0.060767	-0.688858	0.860553
O13	O	-0.567664	-1.057999	0.139341
O14	O	-0.067664	-0.557999	0.639341
O15	O	-0.269831	-0.994309	0.285298
O16	O	0.230169	-0.494309	0.785298
O17	O	-0.567631	-1.177335	0.258663
O18	O	-0.067631	-0.677335	0.758663
O19	O	-0.269806	-1.084729	0.375706
O20	O	0.230194	-0.584729	0.875706
O21	O	-0.439291	-0.979102	0.150823
O22	O	0.060709	-0.479102	0.650823
O23	O	-0.439235	-0.859829	0.270120
O24	O	0.060765	-0.359829	0.770120
O25	O	-0.567531	-0.967691	0.468350
O26	O	-0.067531	-0.467691	0.968350
O27	O	-0.567565	-0.848355	0.349028
O28	O	-0.067565	-0.348355	0.849028
O29	O	-0.439176	-1.069585	0.479850
O30	O	0.060824	-0.569585	0.979850
O31	O	-0.737035	-1.042855	0.243486
O32	O	-0.237035	-0.542855	0.743486
O33	O	-0.736992	-0.952484	0.333875
O34	O	-0.236992	-0.452484	0.833875
C35	C	-0.503398	-0.827390	0.309572
C36	C	-0.003398	-0.327390	0.809572
C37	C	-0.503415	-0.745589	0.309579
C38	C	-0.003415	-0.245589	0.809579
C39	C	-0.230840	-1.043010	0.333991
C40	C	0.269160	-0.543010	0.833991
C41	C	-0.114684	-1.053415	0.344389
C42	C	0.385316	-0.553415	0.844389
C43	C	-0.774931	-0.994293	0.285302
C44	C	-0.274931	-0.494293	0.785302
C45	C	-0.891087	-0.983964	0.274936
C46	C	-0.391087	-0.483964	0.774936
C47	C	-0.062911	-1.013316	0.304292
C48	C	0.437089	-0.513316	0.804292
C49	C	0.057142	-1.024069	0.315038
C50	C	0.557142	-0.524069	0.815038
C51	C	-0.503344	-1.018646	0.501551
C52	C	-0.003344	-0.518646	1.001551
C53	C	-0.503313	-1.018667	0.583352
C54	C	-0.003313	-0.518667	1.083352
C55	C	-0.503434	-1.210545	0.309611
C56	C	-0.003434	-0.710545	0.809611
C57	C	-0.503442	-1.292344	0.309620
C58	C	-0.003442	-0.792344	0.809620
C59	C	-0.570342	-0.551431	0.350598
C60	C	-0.070342	-0.051431	0.850598
C61	C	-0.570345	-0.474572	0.350607
C62	C	-0.070345	0.025428	0.850607
C63	C	-0.436509	-0.486508	0.268599
C64	C	0.063491	0.013492	0.768599
C65	C	-0.436501	-0.563366	0.268595
C66	C	0.063499	-0.063366	0.768595
C67	C	-0.503423	-0.595825	0.309593
C68	C	-0.003423	-0.095825	0.809593
C69	C	-0.503434	-0.442108	0.309606
C70	C	-0.003434	0.057892	0.809606
C71	C	-0.503437	-0.358774	0.309615
C72	C	-0.003437	0.141226	0.809615
C73	C	-0.503419	-0.679164	0.309584
C74	C	-0.003419	-0.179164	0.809584
C75	C	-0.503412	-1.018592	0.118385
C76	C	-0.003412	-0.518592	0.618385
C77	C	-0.503148	-1.018739	0.036610
C78	C	-0.003148	-0.518739	0.536610
C79	C	-0.436416	-1.071746	0.777541
C80	C	0.063584	-0.571746	1.277541
C81	C	-0.436386	-1.071757	0.854403
C82	C	0.063614	-0.571757	1.354403
C83	C	-0.570048	-0.965655	0.842416
C84	C	-0.070048	-0.465655	1.342416
C85	C	-0.570073	-0.965641	0.765556
C86	C	-0.070073	-0.465641	1.265556
C87	C	-0.503258	-1.018691	0.733121
C88	C	-0.003258	-0.518691	1.233121
C89	C	-0.503203	-1.018716	0.886842
C90	C	-0.003203	-0.518716	1.386842
C91	C	-0.503171	-1.018728	0.970178
C92	C	-0.003171	-0.518728	1.470178
C93	C	-0.503289	-1.018678	0.649779
C94	C	-0.003289	-0.518678	1.149779
H95	H	-0.107464	-0.971023	0.262011
H96	H	0.392536	-0.471023	0.762011
Br97	Br	-0.661162	-0.595480	0.406239
Br98	Br	-0.161162	-0.095480	0.906239
Br99	Br	-0.661162	-0.414325	0.406263
Br100	Br	-0.161162	0.085675	0.906263
H101	H	0.064365	-0.941666	0.232654
H102	H	0.564365	-0.441666	0.732654
Br103	Br	-0.345690	-0.442452	0.212962
Br104	Br	0.154310	0.057548	0.712962
H105	H	-0.070132	-1.095703	0.386675
H106	H	0.429868	-0.595703	0.886675
H107	H	-0.382001	-0.599514	0.235204
H108	H	0.117999	-0.099514	0.735204
H109	H	-0.382008	-1.114940	0.751135
H110	H	0.117992	-0.614940	1.251135
Br111	Br	-0.345675	-1.143769	0.914685
Br112	Br	0.154325	-0.643769	1.414685
H113	H	-0.624448	-0.922466	0.868834
H114	H	-0.124448	-0.422466	1.368834
H115	H	0.101691	-1.066360	0.357327
H116	H	0.601691	-0.566360	0.857327
Br117	Br	-0.660784	-0.893627	0.705267
Br118	Br	-0.160784	-0.393627	1.205267
