data_functionalizedCrystal
_audit_creation_method	'MofGen! by Chris Wilmer'
_symmetry_space_group_name_H-M	'P1'
_symmetry_Int_Tables_number	1
_symmetry_cell_setting	triclinic
loop_
_symmetry_equiv_pos_as_xyz
  x,y,z
_cell_length_a	14.971486
_cell_length_b	15.944551
_cell_length_c	13.448316
_cell_angle_alpha	89.992444
_cell_angle_beta	89.998199
_cell_angle_gamma	83.556434
loop_
_atom_site_label
_atom_site_type_symbol
_atom_site_fract_x
_atom_site_fract_y
_atom_site_fract_z
O1	O	1.186829	0.109463	-0.082580
O2	O	0.926415	0.122572	-0.082607
O3	O	1.063733	-0.006250	-0.082584
O4	O	1.049511	0.238286	-0.082603
O5	O	1.063716	-0.006258	0.082800
O6	O	0.926398	0.122564	0.082777
O7	O	1.186812	0.109456	0.082804
Cu8	Cu	1.056603	0.116009	0.097891
Cu9	Cu	1.056624	0.116018	-0.097694
O10	O	1.049494	0.238278	0.082781
C11	C	0.893082	0.121982	0.000081
C12	C	0.793787	0.120225	0.000071
C13	C	0.736480	0.195904	0.000067
C14	C	0.643182	0.194249	0.000082
C15	C	0.607194	0.116913	0.000094
C16	C	0.664508	0.041227	0.000102
C17	C	0.757804	0.042884	0.000094
C18	C	0.470049	0.037780	0.000116
C19	C	0.376747	0.036123	0.000122
C20	C	0.355428	0.189145	0.000104
C21	C	0.448724	0.190801	0.000096
C22	C	0.506032	0.115116	0.000101
C23	C	1.063134	-0.037549	0.000108
C24	C	1.061364	-0.130797	0.000109
C25	C	0.972017	-0.345738	0.000086
C26	C	1.013498	-0.406720	0.081634
C27	C	1.058162	-0.301526	0.000101
C28	C	1.013536	-0.406696	-0.081421
C29	C	1.055062	-0.466441	0.000089
C30	C	1.099667	-0.361279	0.081717
C31	C	1.099692	-0.361248	-0.081412
C32	C	1.141236	-0.422212	0.000156
C33	C	1.059945	-0.206522	0.000109
C34	C	1.053286	-0.561444	0.000088
C35	C	1.220145	0.110046	0.000113
C36	C	1.319440	0.111802	0.000117
C37	C	1.050093	0.269576	0.000087
C38	C	1.051863	0.362824	0.000080
N39	N	1.056595	0.116002	0.235456
N40	N	1.056639	0.116019	-0.235258
C41	C	1.117419	0.058983	0.287506
C42	C	1.117425	0.058982	0.391610
C43	C	1.056610	0.116005	0.443660
C44	C	0.995780	0.173027	0.391602
C45	C	0.995771	0.173023	0.287501
C46	C	0.995805	0.173033	0.608582
C47	C	0.995815	0.173038	0.712691
C48	C	1.117459	0.058992	0.712691
C49	C	1.117449	0.058988	0.608590
C50	C	1.056620	0.116011	0.556539
H51	H	0.308763	0.250771	0.000103
H52	H	0.765774	0.258881	0.000056
H53	H	0.977096	-0.426804	-0.150369
O54	O	1.176529	0.003509	0.237103
C55	C	1.297215	-0.109578	0.248103
C56	C	1.230308	-0.046809	0.305304
H57	H	1.340725	-0.150265	0.303218
H58	H	1.258642	-0.151661	0.199407
H59	H	1.341853	-0.073230	0.199324
H60	H	1.185653	-0.083089	0.354137
H61	H	1.268937	-0.004727	0.353936
O62	O	0.341934	-0.039073	0.000180
C63	C	0.372919	-0.190675	0.000144
C64	C	0.412464	-0.105576	0.000104
H65	H	0.429924	-0.244465	0.000061
H66	H	0.329804	-0.195330	0.069374
H67	H	0.329744	-0.195227	-0.069052
H68	H	0.455680	-0.100966	0.069252
H69	H	0.455528	-0.100957	-0.069172
O70	O	0.813511	-0.030609	0.000270
C71	C	0.931260	-0.117527	0.085922
C72	C	0.868211	-0.034272	0.085853
H73	H	0.975514	-0.120508	0.155098
H74	H	0.889557	-0.173119	0.085994
H75	H	0.975428	-0.120565	0.016675
H76	H	0.824029	-0.031153	0.155088
H77	H	0.909966	0.021280	0.085729
H78	H	0.596526	0.255875	0.000077
H79	H	0.478022	0.253775	0.000076
H80	H	0.900512	-0.312499	0.000160
O81	O	0.936684	0.228507	0.558173
C82	C	0.816005	0.341600	0.569153
C83	C	0.882917	0.278833	0.626365
H84	H	0.772504	0.382293	0.624261
H85	H	0.854574	0.383677	0.520429
H86	H	0.771359	0.305250	0.520400
H87	H	0.927581	0.315114	0.675171
H88	H	0.844293	0.236756	0.675026
O89	O	1.226627	-0.461660	0.000392
C90	C	1.368469	-0.483208	0.086552
C91	C	1.271784	-0.438495	0.086416
H92	H	1.405012	-0.464482	0.156085
H93	H	1.366556	-0.554483	0.085957
H94	H	1.405436	-0.463715	0.017666
H95	H	1.234760	-0.457919	0.155290
H96	H	1.273761	-0.367229	0.086959
H97	H	0.977055	-0.426866	0.150570
H98	H	1.136104	-0.341080	-0.150351
O99	O	1.176392	0.003512	0.442210
C100	C	1.195464	-0.111146	0.559798
C101	C	1.128581	-0.048384	0.502541
H102	H	1.156836	-0.153108	0.608605
H103	H	1.238917	-0.151956	0.504753
H104	H	1.240164	-0.074791	0.608477
H105	H	1.083823	-0.084671	0.453861
H106	H	1.085191	-0.007575	0.557640
H107	H	0.516708	-0.023852	0.000122
O108	O	1.143003	-0.337491	0.164162
C109	C	1.146927	-0.334092	0.343233
C110	C	1.097780	-0.361098	0.249948
H111	H	1.110374	-0.353151	0.412613
H112	H	1.218843	-0.366363	0.343604
H113	H	1.147917	-0.262705	0.342533
H114	H	1.096722	-0.432473	0.250586
H115	H	1.025891	-0.328765	0.249612
O116	O	1.176513	0.003482	0.763135
C117	C	1.228910	-0.142490	0.795044
C118	C	1.161993	-0.079726	0.737835
H119	H	1.217182	-0.209777	0.774626
H120	H	1.300561	-0.131494	0.774541
H121	H	1.218487	-0.132656	0.878385
H122	H	1.172334	-0.089522	0.654481
H123	H	1.090366	-0.090738	0.758421
O124	O	0.629656	-0.033949	-0.000020
C125	C	0.619289	-0.165215	-0.085722
C126	C	0.658833	-0.080115	-0.085691
H127	H	0.642848	-0.202556	-0.154989
H128	H	0.642916	-0.202681	-0.016554
H129	H	0.542766	-0.153378	-0.085673
H130	H	0.735358	-0.091874	-0.085775
H131	H	0.635136	-0.042675	-0.154852
H132	H	1.166973	0.012560	0.566210
H133	H	0.946293	0.219471	0.755065
H134	H	0.946260	0.219453	0.433988
H135	H	0.946241	0.219452	0.245122
