data_functionalizedCrystal
_audit_creation_method	'MofGen! by Chris Wilmer'
_symmetry_space_group_name_H-M	'P1'
_symmetry_Int_Tables_number	1
_symmetry_cell_setting	triclinic
loop_
_symmetry_equiv_pos_as_xyz
  x,y,z
_cell_length_a	6.817900
_cell_length_b	16.015009
_cell_length_c	10.992410
_cell_angle_alpha	76.706577
_cell_angle_beta	108.764651
_cell_angle_gamma	104.487874
loop_
_atom_site_label
_atom_site_type_symbol
_atom_site_fract_x
_atom_site_fract_y
_atom_site_fract_z
V1	V	-4.063321	-0.119551	-0.344685
O2	O	-4.074823	0.005745	-0.395654
O3	O	-3.990846	-0.237050	-0.286996
O4	O	-4.041696	-0.117712	-0.520257
O5	O	-4.023621	-0.114419	-0.160779
V6	V	-4.546598	-0.104564	-0.329410
O7	O	-4.325116	-0.152426	-0.378192
O8	O	-4.735000	-0.071689	-0.295902
O9	O	-4.395866	0.012934	-0.387098
O10	O	-4.652493	-0.229860	-0.278440
O11	O	-4.703695	-0.109697	-0.513316
O12	O	-4.345016	-0.106403	-0.153837
C13	C	-3.829124	-0.265693	-0.267282
C14	C	-3.851333	-0.361750	-0.221285
C15	C	-3.827088	-0.484801	-0.044574
C16	C	-3.806225	-0.394543	-0.087807
C17	C	-3.917335	-0.419211	-0.311582
C18	C	-3.938218	-0.509474	-0.268367
C19	C	-3.893088	-0.542261	-0.134861
C20	C	-4.004219	-0.566934	-0.358655
C21	C	-4.025089	-0.657189	-0.315443
C22	C	-3.979959	-0.689983	-0.181943
C23	C	-3.913959	-0.632516	-0.091649
C24	C	-4.049333	-0.534145	-0.492160
C25	C	-4.115334	-0.591605	-0.582447
C26	C	-4.136219	-0.681862	-0.539236
C27	C	-4.091089	-0.714656	-0.405736
C28	C	-4.202219	-0.739329	-0.629529
C29	C	-4.223089	-0.829584	-0.586317
C30	C	-4.111959	-0.804910	-0.362524
C31	C	-3.893987	-0.113465	-0.564828
C32	C	-3.957431	-0.112739	-0.707996
C33	C	-3.827372	-0.106124	-0.906213
C34	C	-3.761348	-0.107237	-0.757209
C35	C	-4.119153	-0.197937	-0.745257
C36	C	-4.183788	-0.197183	-0.894176
C37	C	-4.131831	-0.032210	-0.933294
C38	C	-4.061294	-0.031806	-0.784470
C39	C	-4.220929	0.041573	-0.406807
C40	C	-4.177960	0.137629	-0.452812
C41	C	-4.156066	-0.110653	-0.109259
C42	C	-4.071861	-0.111375	0.033909
H43	H	-3.638989	-0.045976	-0.732517
H44	H	-3.877224	-0.659213	0.017064
H45	H	-3.996942	-0.763474	-0.146761
H46	H	-3.944888	0.031219	-0.761586
H47	H	-4.032277	-0.460652	-0.527337
Cl48	Cl	-3.686975	-0.010806	-0.979641
H49	H	-4.075224	-0.831607	-0.253811
H50	H	-3.790353	-0.511498	0.064139
Cl51	Cl	-3.723238	-0.322308	0.025714
H52	H	-3.954067	-0.392503	-0.420283
Cl53	Cl	-4.172046	-0.550378	-0.750277
H54	H	-3.778204	-0.163004	-0.927605
Cl55	Cl	-3.635153	-0.196281	-0.677248
Cl56	Cl	-4.306147	-0.901826	-0.699825
Cl57	Cl	-4.258907	-0.698098	-0.797357
H58	H	-4.142691	-0.257125	-0.912414
H59	H	-4.362634	-0.204592	-0.933343
H60	H	-4.203833	-0.030806	-0.752426
Cl61	Cl	-4.015496	0.067678	-1.011440
Cl62	Cl	-4.346659	-0.208907	-0.695665
Cl63	Cl	-4.008991	-0.290713	-0.662342
Cl64	Cl	-4.406127	-0.036986	-0.994119
