data_functionalizedCrystal
_audit_creation_method	'MofGen! by Chris Wilmer'
_symmetry_space_group_name_H-M	'P1'
_symmetry_Int_Tables_number	1
_symmetry_cell_setting	triclinic
loop_
_symmetry_equiv_pos_as_xyz
  x,y,z
_cell_length_a	6.817900
_cell_length_b	17.982959
_cell_length_c	9.170709
_cell_angle_alpha	86.138807
_cell_angle_beta	112.460645
_cell_angle_gamma	102.451857
loop_
_atom_site_label
_atom_site_type_symbol
_atom_site_fract_x
_atom_site_fract_y
_atom_site_fract_z
V1	V	-4.105802	-0.072687	-0.486807
O2	O	-4.096943	0.037123	-0.476870
O3	O	-4.051843	-0.176470	-0.484122
O4	O	-4.094126	-0.056813	-0.698827
O5	O	-4.054367	-0.083363	-0.260680
V6	V	-4.585392	-0.061296	-0.459682
O7	O	-4.375688	-0.097674	-0.546308
O8	O	-4.765703	-0.036309	-0.400182
O9	O	-4.416145	0.042487	-0.462367
O10	O	-4.711648	-0.171106	-0.469619
O11	O	-4.754224	-0.050620	-0.685810
O12	O	-4.373862	-0.077171	-0.247663
C13	C	-3.894303	-0.202232	-0.476609
C14	C	-3.931716	-0.286981	-0.475827
C15	C	-4.132561	-0.330152	-0.483261
C16	C	-4.167707	-0.409783	-0.482535
C17	C	-4.002000	-0.446241	-0.474364
C18	C	-3.801141	-0.403064	-0.466935
C19	C	-3.766003	-0.323434	-0.467671
C20	C	-3.942847	-0.724199	-0.463964
C21	C	-3.978000	-0.803834	-0.463223
C22	C	-4.344551	-0.810547	-0.478828
C23	C	-4.309413	-0.730918	-0.479565
C24	C	-4.108562	-0.687748	-0.472144
C25	C	-4.070456	-0.601404	-0.472934
C26	C	-4.040099	-0.532584	-0.473563
C27	C	-3.948238	-0.049596	-0.750484
C28	C	-4.019938	-0.037303	-0.923815
C29	C	-4.237026	0.068244	-0.469876
C30	C	-4.178852	0.152993	-0.470669
C31	C	-4.183090	-0.084391	-0.195998
C32	C	-4.090629	-0.096679	-0.022665
H33	H	-4.267497	-0.300474	-0.489899
O34	O	-4.012351	0.042504	-0.987338
H35	H	-4.116952	0.070606	-0.951236
H36	H	-3.843054	-0.833515	-0.456580
H37	H	-4.444348	-0.701239	-0.486211
O38	O	-4.384322	-0.456349	-0.490530
H39	H	-4.493631	-0.417620	-0.496308
O40	O	-4.098151	-0.176479	-0.959132
H41	H	-3.993545	-0.204569	-0.995254
O42	O	-3.549368	-0.276872	-0.459653
H43	H	-3.572762	-0.241396	-0.566446
H44	H	-4.508099	-0.845706	-0.484874
H45	H	-3.666227	-0.432754	-0.460291
O46	O	-3.726224	-0.677640	-0.455954
H47	H	-3.616902	-0.716372	-0.450132
