data_functionalizedCrystal
_audit_creation_method	'MofGen! by Chris Wilmer'
_symmetry_space_group_name_H-M	'P1'
_symmetry_Int_Tables_number	1
_symmetry_cell_setting	triclinic
loop_
_symmetry_equiv_pos_as_xyz
  x,y,z
_cell_length_a	16.959455
_cell_length_b	16.625545
_cell_length_c	16.959447
_cell_angle_alpha	90.029927
_cell_angle_beta	90.014322
_cell_angle_gamma	90.022505
loop_
_atom_site_label
_atom_site_type_symbol
_atom_site_fract_x
_atom_site_fract_y
_atom_site_fract_z
Zn1	Zn	1.208354	-0.321051	0.446911
Zn2	Zn	1.208263	-0.455899	0.314733
Zn3	Zn	1.076182	-0.321077	0.314748
Zn4	Zn	1.076134	-0.455839	0.446872
O5	O	1.142233	-0.388466	0.380816
O6	O	1.318953	-0.338954	0.429387
O7	O	1.190725	-0.438050	0.204124
O8	O	1.093773	-0.208241	0.332303
O9	O	1.318886	-0.438026	0.332277
O10	O	1.190879	-0.208222	0.429402
O11	O	1.093685	-0.338997	0.204135
O12	O	0.965565	-0.338939	0.332265
O13	O	1.093691	-0.437923	0.557488
O14	O	0.965530	-0.437947	0.429335
O15	O	1.190832	-0.338895	0.557517
O16	O	1.190678	-0.568723	0.332239
O17	O	1.093604	-0.568679	0.429321
C18	C	0.936867	-0.388440	0.380798
C19	C	0.849010	-0.388448	0.380809
C20	C	0.477529	-0.336870	0.330377
C21	C	0.477541	-0.440129	0.431300
C22	C	0.560087	-0.440117	0.431295
C23	C	0.601358	-0.388482	0.380830
C24	C	0.560082	-0.336859	0.330369
C25	C	0.601368	-0.491746	0.481750
C26	C	0.683919	-0.491737	0.481746
C27	C	0.725191	-0.440097	0.431284
C28	C	0.683911	-0.388471	0.380822
C29	C	0.725182	-0.336836	0.330356
C30	C	0.683903	-0.285205	0.279897
C31	C	0.601355	-0.285219	0.279907
C32	C	0.807740	-0.440083	0.431275
C33	C	0.807735	-0.336824	0.330348
C34	C	1.142147	-0.597957	0.380791
C35	C	1.142183	-0.687578	0.380807
C36	C	1.142214	-0.760361	0.380823
C37	C	1.142260	-0.851669	0.380840
C38	C	1.142301	-0.924446	0.380850
C39	C	1.142346	-1.015760	0.380866
C40	C	1.348402	-0.388494	0.380835
C41	C	1.436258	-0.388505	0.380843
C42	C	1.142266	-0.388400	0.586984
C43	C	1.142280	-0.388371	0.674841
C44	C	1.142341	-0.178157	0.380858
C45	C	1.142387	-0.088536	0.380876
C46	C	1.142246	-0.388475	0.175450
C47	C	1.142385	-0.388276	0.087594
C48	C	1.091798	-0.439845	1.046304
C49	C	1.192952	-0.336727	1.046329
C50	C	1.192931	-0.336744	0.963783
C51	C	1.142343	-0.388313	0.922494
C52	C	1.091777	-0.439866	0.963751
C53	C	1.243502	-0.285199	0.922521
C54	C	1.243483	-0.285214	0.839970
C55	C	1.192891	-0.336780	0.798679
C56	C	1.142322	-0.388334	0.839941
C57	C	1.091735	-0.439903	0.798651
C58	C	1.041161	-0.491453	0.839911
C59	C	1.041185	-0.491431	0.922460
C60	C	1.192868	-0.336802	0.716130
C61	C	1.091714	-0.439923	0.716098
H62	H	0.717521	-0.533777	0.522834
O63	O	0.986587	-0.547063	0.795377
H64	H	1.000104	-0.610347	0.811195
O65	O	0.433027	-0.495833	0.485711
H66	H	0.475599	-0.531736	0.520790
O67	O	0.433009	-0.281184	0.275958
H68	H	0.475579	-0.245275	0.240871
O69	O	0.852250	-0.281130	0.275918
H70	H	0.889838	-0.317166	0.235642
H71	H	0.717516	-0.243167	0.238805
O72	O	1.037131	-0.495532	0.671573
H73	H	1.050646	-0.558817	0.687394
O74	O	0.556865	-0.547419	0.536200
H75	H	0.572673	-0.610688	0.522545
O76	O	0.852265	-0.495760	0.485692
H77	H	0.809698	-0.531665	0.520787
H78	H	1.000013	-0.533403	0.956061
H79	H	1.284692	-0.243219	0.956144
H80	H	1.050620	-0.481814	1.079902
O81	O	0.556821	-0.229565	0.225468
H82	H	0.519214	-0.188598	0.260905
H83	H	1.234142	-0.294746	1.079952
H84	H	1.284663	-0.243239	0.806382
O85	O	1.247407	-0.281209	0.671625
H86	H	1.282586	-0.245346	0.714205
