data_functionalizedCrystal
_audit_creation_method	'MofGen! by Chris Wilmer'
_symmetry_space_group_name_H-M	'P1'
_symmetry_Int_Tables_number	1
_symmetry_cell_setting	triclinic
loop_
_symmetry_equiv_pos_as_xyz
  x,y,z
_cell_length_a	16.109302
_cell_length_b	16.109304
_cell_length_c	15.186229
_cell_angle_alpha	89.999066
_cell_angle_beta	89.994701
_cell_angle_gamma	83.462209
loop_
_atom_site_label
_atom_site_type_symbol
_atom_site_fract_x
_atom_site_fract_y
_atom_site_fract_z
O1	O	1.103131	0.106869	-0.073263
O2	O	1.603131	0.606869	0.426737
O3	O	0.861070	0.120167	-0.073255
O4	O	1.361070	0.620167	0.426745
O5	O	0.988749	-0.007513	-0.073259
O6	O	1.488749	0.492487	0.426741
O7	O	0.975452	0.234549	-0.073258
O8	O	1.475452	0.734549	0.426742
O9	O	0.988740	-0.007514	0.073198
O10	O	1.488740	0.492486	0.573198
O11	O	0.861061	0.120166	0.073202
O12	O	1.361061	0.620166	0.573202
O13	O	1.103123	0.106867	0.073195
O14	O	1.603123	0.606867	0.573195
Zn15	Zn	0.982091	0.113516	0.096452
Zn16	Zn	1.482091	0.613516	0.596452
Zn17	Zn	0.982102	0.113518	-0.096512
Zn18	Zn	1.482102	0.613518	0.403488
O19	O	0.975444	0.234547	0.073199
O20	O	1.475444	0.734547	0.573199
C21	C	0.830090	0.119628	-0.000025
C22	C	1.330090	0.619628	0.499975
C23	C	0.737795	0.118012	-0.000023
C24	C	1.237795	0.618012	0.499977
C25	C	0.525450	0.114276	0.079802
C26	C	1.025450	0.614276	0.579802
C27	C	0.438729	0.112750	0.079799
C28	C	0.938729	0.612750	0.579799
C29	C	0.438749	0.112756	-0.079876
C30	C	0.938749	0.612756	0.420124
C31	C	0.525468	0.114277	-0.079872
C32	C	1.025468	0.614277	0.420128
C33	C	0.568816	0.115041	-0.000030
C34	C	1.068816	0.615041	0.499970
C35	C	0.395377	0.111994	-0.000038
C36	C	0.895377	0.611994	0.499962
C37	C	0.301351	0.110338	-0.000041
C38	C	0.801351	0.610338	0.499959
C39	C	0.662848	0.116695	-0.000026
C40	C	1.162848	0.616695	0.499974
C41	C	0.988206	-0.038488	-0.000033
C42	C	1.488206	0.461512	0.499967
C43	C	0.986590	-0.130784	-0.000039
C44	C	1.486590	0.369216	0.499961
C45	C	0.982861	-0.343120	-0.079869
C46	C	1.482861	0.156880	0.420131
C47	C	0.981334	-0.429840	-0.079868
C48	C	1.481334	0.070160	0.420132
C49	C	0.981329	-0.429839	0.079807
C50	C	1.481329	0.070161	0.579807
C51	C	0.982849	-0.343120	0.079806
C52	C	1.482849	0.156880	0.579806
C53	C	0.983619	-0.299763	-0.000035
C54	C	1.483619	0.200237	0.499965
C55	C	0.980573	-0.473202	-0.000033
C56	C	1.480573	0.026798	0.499967
C57	C	0.978918	-0.567228	-0.000031
C58	C	1.478918	-0.067228	0.499969
C59	C	0.985272	-0.205731	-0.000037
C60	C	1.485272	0.294269	0.499963
C61	C	1.134102	0.107407	-0.000037
C62	C	1.634102	0.607407	0.499963
C63	C	1.226397	0.109022	-0.000045
C64	C	1.726397	0.609022	0.499955
C65	C	0.975987	0.265523	-0.000029
C66	C	1.475987	0.765523	0.499971
C67	C	0.977603	0.357818	-0.000029
C68	C	1.477603	0.857818	0.499971
N69	N	0.982089	0.113514	0.228144
N70	N	1.482089	0.613514	0.728144
N71	N	0.982110	0.113514	-0.228205
N72	N	1.482110	0.613514	0.271795
C73	C	1.038645	0.056996	0.453865
C74	C	1.538645	0.556996	0.953865
C75	C	1.038647	0.056994	0.546055
C76	C	1.538647	0.556994	1.046055
C77	C	0.925548	0.170034	0.546068
C78	C	1.425548	0.670034	1.046068
C79	C	0.925542	0.170032	0.453880
C80	C	1.425542	0.670032	0.953880
C81	C	0.982095	0.113514	0.407781
C82	C	1.482095	0.613514	0.907781
C83	C	0.982104	0.113514	0.592159
C84	C	1.482104	0.613514	1.092159
C85	C	0.982106	0.113513	0.692115
C86	C	1.482106	0.613513	1.192115
C87	C	0.982092	0.113514	0.307819
C88	C	1.482092	0.613514	0.807819
H89	H	0.983485	-0.307821	-0.144881
H90	H	1.483485	0.192179	0.355119
N91	N	0.391956	0.111921	0.165905
N92	N	0.891956	0.611921	0.665905
H93	H	0.432653	0.112050	0.216479
H94	H	0.932653	0.612050	0.716479
H95	H	0.349616	0.163095	0.169652
H96	H	0.849616	0.663095	0.669652
H97	H	0.879489	0.216055	0.416356
H98	H	1.379489	0.716055	0.916356
H99	H	0.879505	0.216051	0.583611
H100	H	1.379505	0.716051	1.083611
N101	N	0.391991	0.111948	-0.165986
N102	N	0.891991	0.611948	0.334014
H103	H	0.432625	0.112663	-0.216560
H104	H	0.932625	0.612663	0.283440
H105	H	0.362762	0.059810	-0.169472
H106	H	0.862762	0.559810	0.330528
N107	N	1.099651	-0.003956	0.595756
N108	N	1.599651	0.496044	1.095756
H109	H	1.067904	-0.040785	0.634012
H110	H	1.567904	0.459215	1.134012
H111	H	1.135457	-0.039696	0.552501
H112	H	1.635457	0.460304	1.052501
H113	H	0.560740	0.114899	0.144815
H114	H	1.060740	0.614899	0.644815
N115	N	0.572251	0.115091	-0.165982
N116	N	1.072251	0.615091	0.334018
H117	H	0.531633	0.114381	-0.216562
H118	H	1.031633	0.614381	0.283438
H119	H	0.601482	0.167229	-0.169458
H120	H	1.101482	0.667229	0.330542
N121	N	0.980569	-0.476612	-0.165974
N122	N	1.480569	0.023388	0.334026
H123	H	0.981306	-0.435986	-0.216550
H124	H	1.481306	0.064014	0.283450
H125	H	1.031465	-0.519329	-0.169413
H126	H	1.531465	-0.019329	0.330587
H127	H	0.983463	-0.307817	0.144820
H128	H	1.483463	0.192183	0.644820
N129	N	0.980517	-0.476605	0.165918
N130	N	1.480517	0.023395	0.665918
H131	H	0.979446	-0.538122	0.153807
H132	H	1.479446	-0.038122	0.653807
H133	H	1.032296	-0.468194	0.200766
H134	H	1.532296	0.031806	0.700766
N135	N	1.099636	-0.003961	0.404142
N136	N	1.599636	0.496039	0.904142
H137	H	1.135459	-0.039765	0.447329
H138	H	1.635459	0.460235	0.947329
H139	H	1.067817	-0.040726	0.365899
H140	H	1.567817	0.459274	0.865899
