data_functionalizedCrystal
_audit_creation_method	'MofGen! by Chris Wilmer'
_symmetry_space_group_name_H-M	'P1'
_symmetry_Int_Tables_number	1
_symmetry_cell_setting	triclinic
loop_
_symmetry_equiv_pos_as_xyz
  x,y,z
_cell_length_a	19.188930
_cell_length_b	19.188930
_cell_length_c	18.266242
_cell_angle_alpha	89.988525
_cell_angle_beta	89.977082
_cell_angle_gamma	83.144779
loop_
_atom_site_label
_atom_site_type_symbol
_atom_site_fract_x
_atom_site_fract_y
_atom_site_fract_z
O1	O	0.926149	0.087169	-0.061124
O2	O	1.426149	0.587169	0.438876
O3	O	0.722838	0.098903	-0.061075
O4	O	1.222838	0.598903	0.438925
O5	O	0.830361	-0.008620	-0.061087
O6	O	1.330361	0.491380	0.438913
O7	O	0.818627	0.194691	-0.061113
O8	O	1.318627	0.694691	0.438887
O9	O	0.830343	-0.008625	0.060675
O10	O	1.330343	0.491375	0.560675
O11	O	0.722820	0.098897	0.060687
O12	O	1.222820	0.598897	0.560687
O13	O	0.926131	0.087163	0.060638
O14	O	1.426131	0.587163	0.560638
Zn15	Zn	0.824473	0.093029	0.079994
Zn16	Zn	1.324473	0.593029	0.579994
Zn17	Zn	0.824497	0.093037	-0.080432
Zn18	Zn	1.324497	0.593037	0.419568
O19	O	0.818608	0.194686	0.060649
O20	O	1.318608	0.694686	0.560649
C21	C	0.696818	0.098520	-0.000188
C22	C	1.196818	0.598520	0.499812
C23	C	0.619313	0.097380	-0.000169
C24	C	1.119313	0.597380	0.499831
C25	C	0.574389	0.160470	-0.000188
C26	C	1.074389	0.660470	0.499812
C27	C	0.501566	0.159399	-0.000196
C28	C	1.001566	0.659399	0.499804
C29	C	0.473669	0.095233	-0.000199
C30	C	0.973669	0.595233	0.499801
C31	C	0.518603	0.032133	-0.000175
C32	C	1.018603	0.532133	0.499825
C33	C	0.591425	0.033207	-0.000160
C34	C	1.091425	0.533207	0.499840
N35	N	0.365695	0.046188	-0.041663
N36	N	0.865695	0.546188	0.458337
N37	N	0.296516	0.045172	-0.041679
N38	N	0.796516	0.545172	0.458321
C39	C	0.254260	0.091994	-0.000243
C40	C	0.754260	0.591994	0.499757
N41	N	0.283795	0.139881	0.041200
N42	N	0.783795	0.639881	0.541200
N43	N	0.352980	0.140899	0.041213
N44	N	0.852980	0.640899	0.541213
C45	C	0.394707	0.094062	-0.000215
C46	C	0.894707	0.594062	0.499785
C47	C	0.130372	0.153928	-0.000270
C48	C	0.630372	0.653928	0.499730
C49	C	0.057547	0.152853	-0.000274
C50	C	0.557547	0.652853	0.499726
C51	C	0.074586	0.025586	-0.000261
C52	C	0.574586	0.525586	0.499739
C53	C	0.147409	0.026662	-0.000250
C54	C	0.647409	0.526662	0.499750
C55	C	0.175298	0.090835	-0.000258
C56	C	0.675298	0.590835	0.499742
C57	C	0.829972	-0.034634	-0.000204
C58	C	1.329972	0.465366	0.499796
C59	C	0.828831	-0.112138	-0.000197
C60	C	1.328831	0.387862	0.499803
C61	C	0.891922	-0.157062	-0.000209
C62	C	1.391922	0.342938	0.499791
C63	C	0.890850	-0.229886	-0.000220
C64	C	1.390850	0.270114	0.499780
C65	C	0.826684	-0.257782	-0.000206
C66	C	1.326684	0.242218	0.499794
C67	C	0.763585	-0.212849	-0.000198
C68	C	1.263585	0.287151	0.499802
C69	C	0.764658	-0.140026	-0.000194
C70	C	1.264658	0.359974	0.499806
N71	N	0.777631	-0.365789	0.041244
N72	N	1.277631	0.134211	0.541244
N73	N	0.776615	-0.434968	0.041242
N74	N	1.276615	0.065032	0.541242
C75	C	0.823446	-0.477191	-0.000220
C76	C	1.323446	0.022809	0.499780
N77	N	0.871341	-0.447624	-0.041669
N78	N	1.371341	0.052376	0.458331
N79	N	0.872359	-0.378439	-0.041664
N80	N	1.372359	0.121561	0.458336
C81	C	0.825513	-0.336745	-0.000210
C82	C	1.325513	0.163255	0.499790
C83	C	0.885379	-0.601079	-0.000245
C84	C	1.385379	-0.101079	0.499755
C85	C	0.884305	-0.673904	-0.000261
C86	C	1.384305	-0.173904	0.499739
C87	C	0.757038	-0.656865	-0.000231
C88	C	1.257038	-0.156865	0.499769
C89	C	0.758114	-0.584042	-0.000222
C90	C	1.258114	-0.084042	0.499778
C91	C	0.822287	-0.556154	-0.000226
C92	C	1.322287	-0.056154	0.499774
C93	C	0.952151	0.087546	-0.000252
C94	C	1.452151	0.587546	0.499748
C95	C	1.029656	0.088687	-0.000276
C96	C	1.529656	0.588687	0.499724
C97	C	0.818997	0.220700	-0.000236
C98	C	1.318997	0.720700	0.499764
C99	C	0.820138	0.298204	-0.000247
C100	C	1.320138	0.798204	0.499753
N101	N	0.824461	0.093024	0.189481
N102	N	1.324461	0.593024	0.689481
N103	N	0.824513	0.093037	-0.189919
N104	N	1.324513	0.593037	0.310081
C105	C	0.872088	0.045436	0.227785
C106	C	1.372088	0.545436	0.727785
C107	C	0.872092	0.045433	0.304430
C108	C	1.372092	0.545433	0.804430
C109	C	0.824477	0.093030	0.342768
C110	C	1.324477	0.593030	0.842768
C111	C	0.776841	0.140621	0.304455
C112	C	1.276841	0.640621	0.804455
C113	C	0.776834	0.140618	0.227812
C114	C	1.276834	0.640618	0.727812
N115	N	0.815401	0.154837	0.463094
N116	N	1.315401	0.654837	0.963094
N117	N	0.815413	0.154838	0.535902
N118	N	1.315413	0.654838	1.035902
C119	C	0.824496	0.093040	0.573691
C120	C	1.324496	0.593040	1.073691
N121	N	0.833582	0.031239	0.535920
N122	N	1.333582	0.531239	1.035920
N123	N	0.833574	0.031240	0.463106
N124	N	1.333574	0.531240	0.963106
C125	C	0.824480	0.093038	0.425875
C126	C	1.324480	0.593038	0.925875
C127	C	0.872131	0.045444	0.695101
C128	C	1.372131	0.545444	1.195101
C129	C	0.872130	0.045440	0.771748
C130	C	1.372130	0.545440	1.271748
C131	C	0.776882	0.140634	0.771772
C132	C	1.276882	0.640634	1.271772
C133	C	0.776879	0.140632	0.695127
C134	C	1.276879	0.640632	1.195127
C135	C	0.824507	0.093038	0.656796
C136	C	1.324507	0.593038	1.156796
H137	H	0.628003	-0.018171	-0.000145
H138	H	1.128003	0.481829	0.499855
C139	C	0.966942	0.029754	0.141262
C140	C	1.466942	0.529754	0.641262
C141	C	0.924209	-0.006998	0.185521
C142	C	1.424209	0.493002	0.685521
H143	H	0.999054	-0.002653	0.115133
H144	H	1.499054	0.497347	0.615133
H145	H	0.938564	0.058207	0.107586
H146	H	1.438564	0.558207	0.607586
H147	H	0.992200	0.058626	0.171054
H148	H	1.492200	0.558626	0.671054
H149	H	0.898948	-0.035866	0.155728
H150	H	1.398948	0.464134	0.655728
H151	H	0.952591	-0.035463	0.219200
H152	H	1.452591	0.464537	0.719200
C153	C	0.966244	-0.048658	0.296716
C154	C	1.466244	0.451342	0.796716
C155	C	0.924445	-0.006881	0.346545
C156	C	1.424445	0.493119	0.846545
H157	H	0.998565	-0.080953	0.322716
H158	H	1.498565	0.419047	0.822716
H159	H	0.937260	-0.073703	0.266844
H160	H	1.437260	0.426297	0.766844
H161	H	0.991265	-0.019651	0.266801
H162	H	1.491265	0.480349	0.766801
H163	H	0.899420	-0.035889	0.376457
H164	H	1.399420	0.464111	0.876457
H165	H	0.953433	0.018165	0.376429
H166	H	1.453433	0.518165	0.876429
H167	H	0.020970	0.204232	-0.000285
H168	H	0.520970	0.704232	0.499715
C169	C	0.735513	0.261607	0.671521
C170	C	1.235513	0.761607	1.171521
C171	C	0.724534	0.192952	0.653019
C172	C	1.224534	0.692952	1.153019
H173	H	0.703197	0.293906	0.645522
H174	H	1.203197	0.793906	1.145522
H175	H	0.728700	0.268413	0.722648
H176	H	1.228700	0.768413	1.222648
H177	H	0.782086	0.269063	0.658930
H178	H	1.282086	0.769063	1.158930
H179	H	0.677962	0.185494	0.665615
H180	H	1.177962	0.685494	1.165615
H181	H	0.731341	0.186142	0.601881
H182	H	1.231341	0.686142	1.101881
H183	H	0.910910	0.006688	0.663892
H184	H	1.410910	0.506688	1.163892
H185	H	0.711340	-0.235567	-0.000187
H186	H	1.211340	0.264433	0.499813
H187	H	0.935683	-0.710481	-0.000274
H188	H	1.435683	-0.210481	0.499726
C189	C	0.963451	-0.321682	0.062363
C190	C	1.463451	0.178318	0.562363
C191	C	0.960204	-0.279279	-0.000228
C192	C	1.460204	0.220721	0.499772
H193	H	1.006265	-0.352176	0.062355
H194	H	1.506265	0.147824	0.562355
H195	H	0.961217	-0.292926	0.104816
H196	H	1.461217	0.207074	0.604816
H197	H	0.925077	-0.348711	0.062358
H198	H	1.425077	0.151289	0.562358
H199	H	0.998575	-0.252246	-0.000220
H200	H	1.498575	0.247754	0.499780
H201	H	0.962444	-0.308038	-0.042692
H202	H	1.462444	0.191962	0.457308
H203	H	0.153080	0.206181	-0.000267
H204	H	0.653080	0.706181	0.499733
C205	C	0.966291	-0.048639	0.764021
C206	C	1.466291	0.451361	1.264021
C207	C	0.924489	-0.006870	0.813854
C208	C	1.424489	0.493130	1.313854
H209	H	0.998619	-0.080929	0.790018
H210	H	1.498619	0.419071	1.290018
H211	H	0.937310	-0.073687	0.734150
H212	H	1.437310	0.426313	1.234150
H213	H	0.991304	-0.019625	0.734105
H214	H	1.491304	0.480375	1.234105
H215	H	0.899471	-0.035883	0.843767
H216	H	1.399471	0.464117	1.343767
H217	H	0.953473	0.018181	0.843737
H218	H	1.453473	0.518181	1.343737
C219	C	0.409817	0.232009	-0.062826
C220	C	0.909817	0.732009	0.437174
C221	C	0.452170	0.228751	-0.000222
C222	C	0.952170	0.728751	0.499778
H223	H	0.379321	0.274821	-0.062839
H224	H	0.879321	0.774821	0.437161
H225	H	0.438606	0.229785	-0.105271
H226	H	0.938606	0.729785	0.394729
H227	H	0.382790	0.193633	-0.062816
H228	H	0.882790	0.693633	0.437184
H229	H	0.479200	0.267124	-0.000234
H230	H	0.979200	0.767124	0.499766
H231	H	0.423377	0.230981	0.042234
H232	H	0.923377	0.730981	0.542234
H233	H	0.704792	-0.679578	-0.000222
H234	H	1.204792	-0.179578	0.499778
C235	C	0.681764	0.156006	0.141664
C236	C	1.181764	0.656006	0.641664
C237	C	0.724483	0.192935	0.185703
C238	C	1.224483	0.692935	0.685703
H239	H	0.649444	0.188307	0.115671
H240	H	1.149444	0.688307	0.615671
H241	H	0.710124	0.127667	0.107869
H242	H	1.210124	0.627667	0.607869
H243	H	0.656742	0.127008	0.171589
H244	H	1.156742	0.627008	0.671589
H245	H	0.749509	0.221930	0.155777
H246	H	1.249509	0.721930	0.655777
H247	H	0.696119	0.221286	0.219502
H248	H	1.196119	0.721286	0.719502
H249	H	0.738071	0.179374	0.335674
H250	H	1.238071	0.679374	0.835674
H251	H	0.183988	-0.024713	-0.000238
H252	H	0.683988	0.475287	0.499762
C253	C	0.550227	0.286159	-0.000200
C254	C	1.050227	0.786159	0.499800
C255	C	0.605043	0.231008	-0.000185
C256	C	1.105043	0.731008	0.499815
H257	H	0.569154	0.329705	-0.000192
H258	H	1.069154	0.829705	0.499808
H259	H	0.522206	0.283096	-0.042666
H260	H	1.022206	0.783096	0.457334
H261	H	0.522151	0.283084	0.042257
H262	H	1.022151	0.783084	0.542257
H263	H	0.633116	0.234080	-0.042645
H264	H	1.133116	0.734080	0.457355
H265	H	0.633076	0.234073	0.042285
H266	H	1.133076	0.734073	0.542285
C267	C	0.414536	-0.026019	-0.000206
C268	C	0.914536	0.473981	0.499794
C269	C	0.487942	-0.038399	-0.000183
C270	C	0.987942	0.461601	0.499817
H271	H	0.395609	-0.069566	-0.000213
H272	H	0.895609	0.430434	0.499787
H273	H	0.399080	-0.000058	0.042247
H274	H	0.899080	0.499942	0.542247
H275	H	0.399135	-0.000047	-0.042676
H276	H	0.899135	0.499953	0.457324
H277	H	0.503343	-0.064368	0.042290
H278	H	1.003343	0.435632	0.542290
H279	H	0.503404	-0.064372	-0.042640
H280	H	1.003404	0.435628	0.457360
H281	H	0.051874	-0.026659	-0.000309
H282	H	0.551874	0.473341	0.499691
H283	H	0.944176	-0.134360	-0.000214
H284	H	1.444176	0.365640	0.499786
H285	H	0.713281	-0.103448	-0.000184
H286	H	1.213281	0.396552	0.499816
H287	H	0.937632	-0.578372	-0.000251
H288	H	1.437632	-0.078372	0.499749
H289	H	0.706738	-0.547464	-0.000208
H290	H	1.206738	-0.047464	0.499792
H291	H	0.738110	0.179386	0.802986
H292	H	1.238110	0.679386	1.302986
