data_functionalizedCrystal
_audit_creation_method	'MofGen! by Chris Wilmer'
_symmetry_space_group_name_H-M	'P1'
_symmetry_Int_Tables_number	1
_symmetry_cell_setting	triclinic
loop_
_symmetry_equiv_pos_as_xyz
  x,y,z
_cell_length_a	16.109301
_cell_length_b	14.853567
_cell_length_c	15.186229
_cell_angle_alpha	90.000050
_cell_angle_beta	89.999362
_cell_angle_gamma	83.548205
loop_
_atom_site_label
_atom_site_type_symbol
_atom_site_fract_x
_atom_site_fract_y
_atom_site_fract_z
O1	O	1.103293	0.115881	-0.073165
O2	O	0.861252	0.130302	-0.073178
O3	O	0.988738	-0.008149	-0.073174
O4	O	0.975807	0.254332	-0.073170
O5	O	0.988729	-0.008151	0.073283
O6	O	0.861243	0.130300	0.073279
O7	O	1.103285	0.115879	0.073292
Zn8	Zn	0.982263	0.123089	0.096539
Zn9	Zn	0.982274	0.123092	-0.096425
O10	O	0.975799	0.254330	0.073288
C11	C	0.830272	0.129717	0.000048
C12	C	0.737974	0.127965	0.000043
C13	C	0.515811	0.206047	0.000055
C14	C	0.429089	0.204395	0.000060
C15	C	0.448732	0.040127	0.000054
C16	C	0.535453	0.041781	0.000054
C17	C	0.568990	0.124743	0.000050
C18	C	0.395546	0.121437	0.000055
C19	C	0.301518	0.119645	0.000061
C20	C	0.663025	0.126536	0.000046
C21	C	0.988148	-0.041738	0.000052
C22	C	0.986392	-0.141819	0.000044
C23	C	0.903241	-0.554215	0.000056
C24	C	1.054697	-0.575746	0.000064
C25	C	1.056348	-0.481715	0.000059
C26	C	0.981444	-0.423930	0.000054
C27	C	0.904889	-0.460175	0.000054
C28	C	1.132901	-0.445463	0.000068
C29	C	1.134555	-0.351426	0.000064
C30	C	1.059650	-0.293639	0.000053
C31	C	0.983093	-0.329890	0.000052
C32	C	0.908189	-0.272104	0.000046
C33	C	0.831630	-0.308353	0.000039
C34	C	0.829984	-0.402388	0.000042
C35	C	1.061296	-0.199604	0.000049
C36	C	0.909837	-0.178064	0.000044
C37	C	1.134265	0.116464	0.000063
C38	C	1.226563	0.118215	0.000063
C39	C	0.976389	0.287918	0.000060
C40	C	0.978145	0.387999	0.000062
N41	N	0.982261	0.123087	0.228231
N42	N	0.982282	0.123087	-0.228118
C43	C	1.038731	0.061801	0.453956
C44	C	1.038734	0.061799	0.546146
C45	C	0.925806	0.184375	0.546151
C46	C	0.925800	0.184372	0.453963
C47	C	0.982267	0.123086	0.407868
C48	C	0.982276	0.123087	0.592246
C49	C	0.982278	0.123085	0.692202
C50	C	0.982264	0.123087	0.307905
H51	H	0.385793	0.270600	0.000066
H52	H	0.421415	-0.027418	0.000062
C53	C	1.100840	-0.005622	0.403255
N54	N	1.147620	-0.056410	0.365069
C55	C	1.215290	-0.509031	0.000080
N56	N	1.277348	-0.556916	0.000088
C57	C	0.593954	-0.047665	0.000050
N58	N	0.638017	-0.115032	0.000049
H59	H	0.848840	-0.131020	0.000036
C60	C	1.218771	-0.311561	0.000066
N61	N	1.282202	-0.281534	0.000063
C62	C	1.100842	-0.005627	0.596838
N63	N	1.147622	-0.056418	0.635020
C64	C	0.749238	-0.244777	0.000033
N65	N	0.687183	-0.196888	0.000027
H66	H	0.767654	-0.431911	0.000037
H67	H	0.543114	0.273601	0.000058
C68	C	0.819030	-0.594090	0.000056
N69	N	0.755602	-0.624124	0.000060
C70	C	1.137087	-0.639313	0.000075
N71	N	1.199146	-0.687196	0.000081
H72	H	1.123629	-0.170094	0.000061
H73	H	0.879833	0.234274	0.583691
C74	C	0.863720	0.251835	0.403263
N75	N	0.816975	0.302659	0.365076
