data_functionalizedCrystal
_audit_creation_method	'MofGen! by Chris Wilmer'
_symmetry_space_group_name_H-M	'P1'
_symmetry_Int_Tables_number	1
_symmetry_cell_setting	triclinic
loop_
_symmetry_equiv_pos_as_xyz
  x,y,z
_cell_length_a	12.759401
_cell_length_b	12.759400
_cell_length_c	12.759393
_cell_angle_alpha	89.968436
_cell_angle_beta	89.981504
_cell_angle_gamma	90.014845
loop_
_atom_site_label
_atom_site_type_symbol
_atom_site_fract_x
_atom_site_fract_y
_atom_site_fract_z
Zn1	Zn	1.606255	-0.418200	-0.593981
Zn2	Zn	1.606150	-0.593919	-0.418301
Zn3	Zn	1.430557	-0.418255	-0.418321
Zn4	Zn	1.430546	-0.593838	-0.593943
O5	O	1.518377	-0.506053	-0.506137
O6	O	1.753262	-0.441520	-0.570685
O7	O	1.582818	-0.570673	-0.271283
O8	O	1.453913	-0.271226	-0.441647
O9	O	1.753185	-0.570620	-0.441614
O10	O	1.582998	-0.271186	-0.570704
O11	O	1.453811	-0.441614	-0.271297
O12	O	1.283535	-0.441535	-0.441609
O13	O	1.453894	-0.570482	-0.740969
O14	O	1.283527	-0.570536	-0.570638
O15	O	1.582987	-0.441442	-0.740997
O16	O	1.582807	-0.740929	-0.441577
O17	O	1.453791	-0.740870	-0.570620
C18	C	1.245410	-0.506033	-0.506122
C19	C	1.128633	-0.506050	-0.506141
C20	C	1.073794	-0.573328	-0.573215
C21	C	0.964070	-0.573342	-0.573227
C22	C	0.964034	-0.438796	-0.439081
C23	C	1.073756	-0.438778	-0.439075
C24	C	1.073815	-0.651010	-0.650660
C25	C	0.964091	-0.651024	-0.650672
C26	C	1.518315	-0.779020	-0.506115
C27	C	1.518384	-0.895797	-0.506140
C28	C	1.585637	-0.950655	-0.439022
C29	C	1.585702	-1.060379	-0.439054
C30	C	1.451252	-1.060377	-0.573327
C31	C	1.451193	-0.950655	-0.573299
C32	C	1.652828	-0.895797	-0.371864
C33	C	1.720086	-0.950655	-0.304739
C34	C	1.720150	-1.060379	-0.304771
C35	C	1.652957	-1.115245	-0.371929
C36	C	1.792410	-0.506073	-0.506152
C37	C	1.909187	-0.506082	-0.506158
C38	C	1.518451	-0.505947	-0.780170
C39	C	1.518482	-0.505902	-0.896947
C40	C	1.518468	-0.232019	-0.506182
C41	C	1.518507	-0.115243	-0.506201
C42	C	1.585710	-0.438704	-0.951825
C43	C	1.585735	-0.438666	-1.061549
C44	C	1.451301	-0.573033	-1.061507
C45	C	1.451272	-0.573064	-0.951785
C46	C	1.663328	-0.361131	-0.951851
C47	C	1.663353	-0.361093	-1.061575
C48	C	1.518364	-0.506083	-0.233169
C49	C	1.518537	-0.505832	-0.116393
H50	H	1.103623	-0.629311	-0.732067
C51	C	1.725940	-0.738618	-0.298714
C52	C	1.652763	-0.775187	-0.371830
H53	H	1.725900	-0.664159	-0.298700
H54	H	1.707812	-0.763507	-0.230919
H55	H	1.793741	-0.763374	-0.316950
H56	H	1.584960	-0.750437	-0.353590
H57	H	1.670885	-0.750287	-0.439640
H58	H	1.740599	-0.390300	-0.917815
H59	H	1.396431	-0.905989	-0.627954
H60	H	1.641559	-0.279767	-0.922095
H61	H	1.634239	-0.283784	-1.095623
H62	H	1.744723	-0.382886	-1.091353
C63	C	1.391525	-0.632765	-0.783572
C64	C	1.377364	-0.646920	-0.891460
H65	H	1.345889	-0.678358	-0.746332
H66	H	1.462094	-0.648164	-0.765595
H67	H	1.376176	-0.562172	-0.765620
H68	H	1.392721	-0.717511	-0.909414
H69	H	1.306779	-0.631528	-0.909444
H70	H	1.118401	-0.383987	-0.384464
C71	C	1.181536	-0.800185	-0.689928
C72	C	1.119744	-0.755297	-0.611138
H73	H	1.209895	-0.864564	-0.665523
H74	H	1.139649	-0.812748	-0.750152
H75	H	1.236981	-0.753691	-0.707531
H76	H	1.064294	-0.801788	-0.593541
H77	H	1.161633	-0.742739	-0.550895
C78	C	1.771335	-0.916985	-0.126867
C79	C	1.793944	-0.890353	-0.230923
H80	H	1.816939	-0.879762	-0.081298
H81	H	1.700751	-0.899071	-0.111436
H82	H	1.781002	-0.990185	-0.117296
H83	H	1.784270	-0.817153	-0.240497
H84	H	1.864545	-0.908260	-0.246360
C85	C	0.999944	-0.586053	-0.823655
C86	C	0.918184	-0.611816	-0.755089
H87	H	0.971599	-0.561851	-0.888115
H88	H	1.041834	-0.532517	-0.793339
H89	H	1.041838	-0.646328	-0.836026
H90	H	0.876294	-0.551539	-0.742712
H91	H	0.876276	-0.665356	-0.785411
H92	H	0.919339	-0.384025	-0.384479
C93	C	1.898114	-1.093964	-0.253781
C94	C	1.794114	-1.120640	-0.230995
H95	H	1.943783	-1.131150	-0.208226
H96	H	1.913450	-1.111894	-0.324378
H97	H	1.907643	-1.020757	-0.244175
H98	H	1.784583	-1.193847	-0.240609
H99	H	1.778773	-1.102718	-0.160381
H100	H	0.934295	-0.732373	-0.628740
C101	C	1.726254	-1.272425	-0.298876
C102	C	1.653031	-1.235856	-0.371968
H103	H	1.726292	-1.346883	-0.298896
H104	H	1.794018	-1.247533	-0.317100
H105	H	1.708100	-1.247670	-0.231059
H106	H	1.671190	-1.260604	-0.439787
H107	H	1.585252	-1.260758	-0.353750
H108	H	1.396545	-1.105058	-0.628002
H109	H	1.396579	-0.627712	-1.106169
