data_functionalizedCrystal
_audit_creation_method	'MofGen! by Chris Wilmer'
_symmetry_space_group_name_H-M	'P1'
_symmetry_Int_Tables_number	1
_symmetry_cell_setting	triclinic
loop_
_symmetry_equiv_pos_as_xyz
  x,y,z
_cell_length_a	18.050590
_cell_length_b	18.050590
_cell_length_c	18.101389
_cell_angle_alpha	90.019149
_cell_angle_beta	90.003324
_cell_angle_gamma	90.007719
loop_
_atom_site_label
_atom_site_type_symbol
_atom_site_fract_x
_atom_site_fract_y
_atom_site_fract_z
Zn1	Zn	1.135372	-0.295952	0.418420
Zn2	Zn	1.135295	-0.420126	0.294577
Zn3	Zn	1.011183	-0.295931	0.294626
Zn4	Zn	1.011160	-0.420081	0.418411
O5	O	1.073253	-0.358023	0.356509
O6	O	1.239287	-0.312452	0.401975
O7	O	1.118808	-0.403662	0.190950
O8	O	1.027698	-0.192009	0.311073
O9	O	1.239230	-0.403682	0.310988
O10	O	1.118940	-0.192025	0.402023
O11	O	1.027623	-0.312416	0.190987
O12	O	0.907255	-0.312372	0.311064
O13	O	1.027660	-0.403605	0.522045
O14	O	0.907239	-0.403585	0.402007
O15	O	1.118918	-0.312408	0.522052
O16	O	1.118787	-0.524045	0.310979
O17	O	1.027586	-0.524012	0.401959
C18	C	0.880301	-0.357972	0.356540
C19	C	0.797755	-0.357968	0.356572
C20	C	0.598317	-0.407712	0.405909
C21	C	0.548914	-0.339998	0.424134
C22	C	0.646624	-0.358010	0.356535
C23	C	0.548946	-0.425762	0.338310
C24	C	0.500639	-0.358056	0.356502
C25	C	0.598308	-0.290260	0.374796
C26	C	0.598345	-0.376070	0.288940
C27	C	0.548964	-0.308309	0.307139
C28	C	0.730723	-0.357984	0.356557
C29	C	0.416543	-0.358074	0.356481
C30	C	1.073196	-0.550975	0.356479
C31	C	1.073239	-0.633521	0.356491
C32	C	1.122937	-0.832962	0.307085
C33	C	1.141078	-0.882309	0.374670
C34	C	1.073281	-0.784651	0.356521
C35	C	1.055216	-0.882386	0.288966
C36	C	1.073323	-0.930636	0.356543
C37	C	1.091456	-0.832911	0.424141
C38	C	1.005564	-0.832983	0.338392
C39	C	1.023678	-0.882307	0.406023
C40	C	1.073259	-0.700553	0.356507
C41	C	1.073346	-1.014733	0.356565
C42	C	1.266958	-0.358074	0.356477
C43	C	1.349504	-0.358096	0.356463
C44	C	1.073296	-0.358004	0.549670
C45	C	1.073314	-0.357996	0.631985
C46	C	1.073330	-0.164317	0.356554
C47	C	1.073363	-0.081771	0.356574
C48	C	1.073253	-0.357988	0.164098
C49	C	1.073378	-0.357787	0.081784
C50	C	1.073357	-0.357857	0.931076
C51	C	1.015742	-0.415053	0.899746
C52	C	1.015898	-0.415318	0.814128
C53	C	1.073335	-0.357926	0.782693
C54	C	1.151585	-0.379184	0.813770
C55	C	1.151264	-0.379560	0.899415
C56	C	1.053402	-0.279275	0.899508
C57	C	1.051662	-0.279728	0.813858
C58	C	1.073327	-0.357964	0.698834
C59	C	1.073370	-0.357821	1.014935
H60	H	0.620074	-0.391351	0.231806
Cl61	Cl	0.962750	-0.254979	0.782510
H62	H	0.957873	-0.402014	0.793117
H63	H	1.090562	-0.234851	0.792460
H64	H	0.948295	-0.811298	0.323023
H65	H	1.106696	-0.811271	0.481330
Cl66	Cl	1.219748	-0.317994	0.931416
Cl67	Cl	1.219646	-0.316890	0.782336
H68	H	0.527259	-0.483040	0.322911
Cl69	Cl	1.036283	-0.505238	0.782491
Cl70	Cl	1.178153	-0.466933	0.780657
H71	H	0.981704	-0.903837	0.447887
Cl72	Cl	1.177376	-0.468250	0.930261
H73	H	0.997334	-0.259910	0.921115
Cl74	Cl	0.515389	-0.316435	0.512368
H75	H	0.619901	-0.232965	0.390261
H76	H	1.095366	-0.236661	0.919769
H77	H	0.619989	-0.449669	0.447710
Cl78	Cl	1.031599	-0.915939	0.200749
H79	H	0.527431	-0.266249	0.265371
Cl80	Cl	1.187789	-0.799506	0.242605
Cl81	Cl	0.925882	-0.394720	0.931555
Cl82	Cl	1.229524	-0.915747	0.398380
Cl83	Cl	1.035837	-0.504424	0.933025
