data_functionalizedCrystal
_audit_creation_method	'MofGen! by Chris Wilmer'
_symmetry_space_group_name_H-M	'P1'
_symmetry_Int_Tables_number	1
_symmetry_cell_setting	triclinic
loop_
_symmetry_equiv_pos_as_xyz
  x,y,z
_cell_length_a	12.645330
_cell_length_b	12.759395
_cell_length_c	12.759387
_cell_angle_alpha	89.980569
_cell_angle_beta	89.970586
_cell_angle_gamma	90.017537
loop_
_atom_site_label
_atom_site_type_symbol
_atom_site_fract_x
_atom_site_fract_y
_atom_site_fract_z
Zn1	Zn	-0.421988	1.606247	-0.593985
Zn2	Zn	-0.599290	1.606128	-0.418310
Zn3	Zn	-0.422040	1.430545	-0.418325
Zn4	Zn	-0.599209	1.430528	-0.593952
O5	O	-0.510632	1.518362	-0.506143
O6	O	-0.445519	1.753252	-0.570689
O7	O	-0.575833	1.582794	-0.271291
O8	O	-0.273686	1.453909	-0.441647
O9	O	-0.575782	1.753165	-0.441621
O10	O	-0.273648	1.582996	-0.570704
O11	O	-0.445609	1.453794	-0.271302
O12	O	-0.445530	1.283522	-0.441615
O13	O	-0.575645	1.453880	-0.740978
O14	O	-0.575696	1.283509	-0.570647
O15	O	-0.445441	1.582980	-0.741002
O16	O	-0.747626	1.582778	-0.441589
O17	O	-0.747567	1.453765	-0.570632
C18	C	-0.510611	1.245395	-0.506130
C19	C	-0.510627	1.128618	-0.506149
C20	C	-0.375204	1.128689	-0.640765
C21	C	-0.307505	1.073864	-0.708081
C22	C	-0.307523	0.964143	-0.708094
C23	C	-0.375246	0.909244	-0.640782
C24	C	-0.442945	0.964069	-0.573465
C25	C	-0.442921	1.073793	-0.573462
C26	C	-0.578362	0.963997	-0.438846
C27	C	-0.578350	1.073719	-0.438837
C28	C	-0.646085	0.909098	-0.371534
C29	C	-0.713791	0.963923	-0.304221
C30	C	-0.713770	1.073652	-0.304212
C31	C	-0.646049	1.128544	-0.371521
C32	C	-0.786062	1.518285	-0.506128
C33	C	-0.903892	1.518349	-0.506157
C34	C	-1.071462	1.437522	-0.587589
C35	C	-0.948903	1.437108	-0.587327
C36	C	-0.948494	1.488373	-0.395436
C37	C	-1.071093	1.487880	-0.395930
C38	C	-1.070979	1.629646	-0.534549
C39	C	-0.948372	1.628964	-0.536970
C40	C	-0.234127	1.518468	-0.506181
C41	C	-0.116296	1.518513	-0.506197
C42	C	-0.510528	1.518441	-0.780177
C43	C	-0.510484	1.518475	-0.896953
C44	C	-0.510654	1.792395	-0.506157
C45	C	-0.510663	1.909172	-0.506162
C46	C	-0.374911	1.652916	-0.896998
C47	C	-0.307109	1.720151	-0.951882
C48	C	-0.307071	1.720176	-1.061603
C49	C	-0.374839	1.652958	-1.116444
C50	C	-0.442641	1.585723	-1.061561
C51	C	-0.442675	1.585707	-0.951837
C52	C	-0.578206	1.451278	-1.061516
C53	C	-0.578252	1.451256	-0.951794
C54	C	-0.645975	1.384059	-1.116357
C55	C	-0.713784	1.316828	-1.061474
C56	C	-0.713821	1.316806	-0.951745
C57	C	-0.646054	1.384021	-0.896911
C58	C	-0.510659	1.518343	-0.233175
C59	C	-0.510404	1.518513	-0.116399
H60	H	-0.646020	1.217885	-0.371514
N61	N	-0.233950	1.792693	-1.120812
H62	H	-0.184805	1.750025	-1.166340
H63	H	-0.191092	1.835258	-1.069364
H64	H	-0.375177	1.218030	-0.640756
N65	N	-0.786956	1.244281	-0.892566
H66	H	-0.836113	1.286938	-0.847041
H67	H	-0.743809	1.195616	-0.847104
H68	H	-0.919215	1.651570	-0.618455
N69	N	-0.909886	1.564028	-0.312904
H70	H	-0.862997	1.618591	-0.346574
H71	H	-0.868401	1.524528	-0.258014
N72	N	-0.645916	1.384061	-1.234699
H73	H	-0.592679	1.436849	-1.261148
H74	H	-0.718666	1.403302	-1.261050
H75	H	-0.646082	1.384014	-0.807570
N76	N	-1.109380	1.709574	-0.456026
H77	H	-1.189194	1.712264	-0.457261
H78	H	-1.079941	1.780771	-0.474681
H79	H	-0.768950	1.262098	-1.106134
H80	H	-0.646093	0.819757	-0.371546
N81	N	-0.786817	0.904715	-0.231616
H82	H	-0.776548	0.826888	-0.241832
H83	H	-0.862549	0.923880	-0.247830
H84	H	-0.917726	1.692484	-0.482005
N85	N	-0.910167	1.327980	-0.562440
H86	H	-0.972733	1.279957	-0.551590
H87	H	-0.866006	1.329851	-0.496535
N88	N	-0.374772	1.652955	-1.234786
H89	H	-0.321528	1.705738	-1.261233
H90	H	-0.447518	1.672201	-1.261145
N91	N	-0.375271	0.790902	-0.640784
H92	H	-0.355700	0.764452	-0.568745
H93	H	-0.322116	0.764579	-0.693683
N94	N	-0.786781	1.132782	-0.231597
H95	H	-0.829679	1.081351	-0.188960
H96	H	-0.835892	1.178318	-0.274267
H97	H	-0.252364	1.118575	-0.762884
H98	H	-0.918742	1.455863	-0.669426
H99	H	-0.252391	0.919504	-0.762903
N100	N	-0.374968	1.652902	-0.778656
H101	H	-0.321754	1.705686	-0.752243
H102	H	-0.355509	1.580801	-0.752296
H103	H	-1.100868	1.456104	-0.669957
N104	N	-1.112381	1.329064	-0.563036
H105	H	-1.192164	1.328928	-0.566710
H106	H	-1.089119	1.308143	-0.490267
N107	N	-1.109100	1.380268	-0.364122
H108	H	-1.152915	1.349149	-0.422508
H109	H	-1.153585	1.386034	-0.298616
N110	N	-1.110395	1.562620	-0.312863
H111	H	-1.048077	1.595737	-0.276084
H112	H	-1.154753	1.522986	-0.260263
H113	H	-1.101817	1.656990	-0.613914
N114	N	-0.907954	1.381887	-0.363033
H115	H	-0.860707	1.352911	-0.419906
H116	H	-0.969697	1.332952	-0.351663
N117	N	-0.234045	1.792675	-0.892734
H118	H	-0.244366	1.782472	-0.814897
H119	H	-0.250584	1.867693	-0.911939
