data_functionalizedCrystal
_audit_creation_method	'MofGen! by Chris Wilmer'
_symmetry_space_group_name_H-M	'P1'
_symmetry_Int_Tables_number	1
_symmetry_cell_setting	triclinic
loop_
_symmetry_equiv_pos_as_xyz
  x,y,z
_cell_length_a	18.101398
_cell_length_b	18.101397
_cell_length_c	18.101389
_cell_angle_alpha	90.022030
_cell_angle_beta	90.008593
_cell_angle_gamma	90.018533
loop_
_atom_site_label
_atom_site_type_symbol
_atom_site_fract_x
_atom_site_fract_y
_atom_site_fract_z
Zn1	Zn	-1.132159	0.295010	-0.418509
Zn2	Zn	-0.632159	0.795010	0.081491
Zn3	Zn	-1.132071	0.418836	-0.294660
Zn4	Zn	-0.632071	0.918836	0.205340
Zn5	Zn	-1.008318	0.295001	-0.294704
Zn6	Zn	-0.508318	0.795001	0.205296
Zn7	Zn	-1.008284	0.418803	-0.418482
Zn8	Zn	-0.508284	0.918803	0.081518
O9	O	-1.070208	0.356912	-0.356589
O10	O	-0.570208	0.856912	0.143411
O11	O	-1.235780	0.311453	-0.402073
O12	O	-0.735780	0.811453	0.097927
O13	O	-1.115632	0.402419	-0.191033
O14	O	-0.615632	0.902419	0.308967
O15	O	-1.024796	0.191370	-0.311157
O16	O	-0.524796	0.691370	0.188843
O17	O	-1.235715	0.402427	-0.311081
O18	O	-0.735715	0.902427	0.188919
O19	O	-1.115782	0.191376	-0.402116
O20	O	-0.615782	0.691376	0.097884
O21	O	-1.024711	0.311438	-0.191066
O22	O	-0.524711	0.811438	0.308934
O23	O	-0.904681	0.311406	-0.311131
O24	O	-0.404681	0.811406	0.188869
O25	O	-1.024740	0.402371	-0.522119
O26	O	-0.524740	0.902371	-0.022119
O27	O	-0.904656	0.402363	-0.402070
O28	O	-0.404656	0.902363	0.097930
O29	O	-1.115750	0.311421	-0.522139
O30	O	-0.615750	0.811421	-0.022139
O31	O	-1.115599	0.522464	-0.311055
O32	O	-0.615599	1.022464	0.188945
O33	O	-1.024654	0.522440	-0.402027
O34	O	-0.524654	1.022440	0.097973
C35	C	-0.877797	0.356881	-0.356603
C36	C	-0.377797	0.856881	0.143397
C37	C	-0.795483	0.356885	-0.356627
C38	C	-0.295483	0.856885	0.143373
C39	C	-0.496392	0.356925	-0.356602
C40	C	0.003608	0.856925	0.143398
C41	C	-0.527727	0.414429	-0.413535
C42	C	-0.027727	0.914429	0.086465
C43	C	-0.613345	0.414250	-0.413768
C44	C	-0.113345	0.914250	0.086232
C45	C	-0.644775	0.356906	-0.356614
C46	C	-0.144775	0.856906	0.143386
C47	C	-0.613710	0.278907	-0.377948
C48	C	-0.113710	0.778907	0.122052
C49	C	-0.528065	0.279251	-0.378354
C50	C	-0.028065	0.779251	0.121646
C51	C	-0.527942	0.376732	-0.278197
C52	C	-0.027942	0.876732	0.221803
C53	C	-0.613593	0.378445	-0.278614
C54	C	-0.113593	0.878445	0.221386
C55	C	-0.728634	0.356890	-0.356620
C56	C	-0.228634	0.856890	0.143380
C57	C	-0.412533	0.356935	-0.356598
C58	C	0.087467	0.856935	0.143402
C59	C	-1.070134	0.549323	-0.356550
C60	C	-0.570134	1.049323	0.143450
C61	C	-1.070170	0.631637	-0.356558
C62	C	-0.570170	1.131637	0.143442
C63	C	-1.070251	0.356894	-0.549751
C64	C	-0.570251	0.856894	-0.049751
C65	C	-1.070269	0.356886	-0.632065
C66	C	-0.570269	0.856886	-0.132065
C67	C	-0.263370	0.356941	-0.356580
C68	C	0.236630	0.856941	0.143420
C69	C	-0.345684	0.356945	-0.356589
C70	C	0.154316	0.856945	0.143411
C71	C	-1.070204	0.782345	-0.356573
C72	C	-0.570204	1.282345	0.143427
C73	C	-1.127479	0.813683	-0.299390
C74	C	-0.627479	1.313683	0.200610
C75	C	-1.127330	0.899302	-0.299174
C76	C	-0.627330	1.399302	0.200826
C77	C	-1.070239	0.930728	-0.356589
C78	C	-0.570239	1.430728	0.143411
C79	C	-0.992140	0.899701	-0.335598
C80	C	-0.492140	1.399701	0.164402
C81	C	-0.992451	0.814056	-0.335174
C82	C	-0.492451	1.314056	0.164826
C83	C	-1.090354	0.813855	-0.434895
C84	C	-0.590354	1.313855	0.065105
C85	C	-1.092097	0.899505	-0.434486
C86	C	-0.592097	1.399505	0.065514
C87	C	-1.070255	1.014588	-0.356598
C88	C	-0.570255	1.514588	0.143402
C89	C	-1.070184	0.698486	-0.356562
C90	C	-0.570184	1.198486	0.143438
C91	C	-1.070285	1.163751	-0.356628
C92	C	-0.570285	1.663751	0.143372
C93	C	-1.070274	1.081436	-0.356604
C94	C	-0.570274	1.581436	0.143396
C95	C	-1.070312	0.356747	-0.931156
C96	C	-0.570312	0.856747	-0.431156
C97	C	-1.012854	0.413788	-0.899819
C98	C	-0.512854	0.913788	-0.399819
C99	C	-1.013009	0.414053	-0.814200
C100	C	-0.513009	0.914053	-0.314200
C101	C	-1.070290	0.356816	-0.782774
C102	C	-0.570290	0.856816	-0.282774
C103	C	-1.148318	0.378007	-0.813857
C104	C	-0.648318	0.878007	-0.313857
C105	C	-1.147998	0.378381	-0.899502
C106	C	-0.647998	0.878381	-0.399502
C107	C	-1.050421	0.278388	-0.899591
C108	C	-0.550421	0.778388	-0.399591
C109	C	-1.048685	0.278840	-0.813940
C110	C	-0.548685	0.778840	-0.313940
C111	C	-1.070282	0.356853	-0.698914
C112	C	-0.570282	0.856853	-0.198914
C113	C	-1.070325	0.356711	-1.015016
C114	C	-0.570325	0.856711	-0.515016
C115	C	-1.070208	0.356878	-0.164179
C116	C	-0.570208	0.856878	0.335821
C117	C	-1.070333	0.356677	-0.081865
C118	C	-0.570333	0.856677	0.418135
H119	H	-0.507119	0.472458	-0.400314
H120	H	-0.007119	0.972458	0.099686
F121	F	-0.934852	0.926308	-0.388368
F122	F	-0.434852	1.426308	0.111632
F123	F	-0.969478	0.927790	-0.261600
F124	F	-0.469478	1.427790	0.238400
F125	F	-0.936995	0.396629	-0.926741
F126	F	-0.436995	0.896629	-0.426741
H127	H	-0.506215	0.401491	-0.471292
H128	H	-0.006215	0.901491	0.028708
F129	F	-0.640145	0.397122	-0.489698
F130	F	-0.140145	0.897122	0.010302
H131	H	-1.146324	0.792208	-0.454033
H132	H	-0.646324	1.292208	0.045967
H133	H	-1.192279	0.337766	-0.793501
H134	H	-0.692279	0.837766	-0.293501
F135	F	-0.501970	0.257292	-0.453272
F136	F	-0.001970	0.757292	0.046728
H137	H	-1.053450	0.920894	-0.479362
H138	H	-0.553450	1.420894	0.020638
F139	F	-1.170741	0.452083	-0.785821
F140	F	-0.670741	0.952083	-0.285821
H141	H	-0.633904	0.435840	-0.262525
H142	H	-0.133904	0.935840	0.237475
H143	H	-0.634988	0.339602	-0.233915
H144	H	-0.134988	0.839602	0.266085
F145	F	-0.640799	0.489858	-0.396315
F146	F	-0.140799	0.989858	0.103685
H147	H	-1.025857	0.471516	-0.921337
H148	H	-0.525857	0.971516	-0.421337
F149	F	-1.030210	0.489963	-0.787415
F150	F	-0.530210	0.989963	-0.287415
H151	H	-0.507338	0.234871	-0.338788
H152	H	-0.007338	0.734871	0.161212
H153	H	-0.991263	0.262860	-0.793625
H154	H	-0.491263	0.762860	-0.293625
F155	F	-1.170036	0.453253	-0.925613
F156	F	-0.670036	0.953253	-0.425613
F157	F	-1.105121	0.222838	-0.926080
F158	F	-0.605121	0.722838	-0.426080
F159	F	-0.977341	0.253154	-0.927824
F160	F	-0.477341	0.753154	-0.427824
H161	H	-1.185237	0.920278	-0.312284
H162	H	-0.685237	1.420278	0.187716
H163	H	-0.955149	0.400791	-0.793185
H164	H	-0.455149	0.900791	-0.293185
H165	H	-1.113987	0.919832	-0.241145
H166	H	-0.613987	1.419832	0.258855
H167	H	-1.087480	0.234085	-0.792548
H168	H	-0.587480	0.734085	-0.292548
H169	H	-1.149572	0.919779	-0.450318
H170	H	-0.649572	1.419779	0.049682
H171	H	-0.634069	0.234901	-0.337773
H172	H	-0.134069	0.734901	0.162227
H173	H	-1.114291	0.792198	-0.241688
H174	H	-0.614291	1.292198	0.258312
H175	H	-0.635173	0.261802	-0.434641
H176	H	-0.135173	0.761802	0.065359
F177	F	-1.035842	0.787353	-0.490584
F178	F	-0.535842	1.287353	0.009416
F179	F	-1.205821	0.326402	-0.926601
F180	F	-0.705821	0.826402	-0.426601
F181	F	-0.499691	0.449795	-0.252853
F182	F	0.000309	0.949795	0.247147
F183	F	-0.934758	0.786960	-0.387257
F184	F	-0.434758	1.286960	0.112743
F185	F	-1.203392	0.786713	-0.316325
F186	F	-0.703392	1.286713	0.183675
F187	F	-0.970161	0.788000	-0.260351
F188	F	-0.470161	1.288000	0.239649
F189	F	-0.501455	0.321986	-0.222749
F190	F	-0.001455	0.821986	0.277251
