data_functionalizedCrystal
_audit_creation_method	'MofGen! by Chris Wilmer'
_symmetry_space_group_name_H-M	'P1'
_symmetry_Int_Tables_number	1
_symmetry_cell_setting	triclinic
loop_
_symmetry_equiv_pos_as_xyz
  x,y,z
_cell_length_a	18.101395
_cell_length_b	18.050591
_cell_length_c	18.101389
_cell_angle_alpha	90.025013
_cell_angle_beta	90.016841
_cell_angle_gamma	90.027110
loop_
_atom_site_label
_atom_site_type_symbol
_atom_site_fract_x
_atom_site_fract_y
_atom_site_fract_z
Zn1	Zn	-0.294986	1.135308	0.418860
Zn2	Zn	0.038347	1.468641	0.752194
Zn3	Zn	0.371681	1.801974	1.085527
Zn4	Zn	-0.418812	1.135203	0.295022
Zn5	Zn	-0.085479	1.468537	0.628356
Zn6	Zn	0.247855	1.801870	0.961689
Zn7	Zn	-0.294980	1.011118	0.295020
Zn8	Zn	0.038353	1.344451	0.628353
Zn9	Zn	0.371687	1.677785	0.961687
Zn10	Zn	-0.418782	1.011069	0.418809
Zn11	Zn	-0.085448	1.344402	0.752143
Zn12	Zn	0.247885	1.677735	1.085476
O13	O	-0.356890	1.073174	0.356928
O14	O	-0.023557	1.406508	0.690261
O15	O	0.309777	1.739841	1.023595
O16	O	-0.311427	1.239218	0.402455
O17	O	0.021906	1.572552	0.735789
O18	O	0.355240	1.905885	1.069122
O19	O	-0.402395	1.118720	0.191389
O20	O	-0.069062	1.452053	0.524722
O21	O	0.264271	1.785387	0.858056
O22	O	-0.191348	1.027656	0.311468
O23	O	0.141985	1.360990	0.644802
O24	O	0.475319	1.694323	0.978135
O25	O	-0.402401	1.239142	0.311472
O26	O	-0.069068	1.572475	0.644805
O27	O	0.264265	1.905808	0.978139
O28	O	-0.191352	1.118898	0.402453
O29	O	0.141981	1.452231	0.735786
O30	O	0.475314	1.785565	1.069120
O31	O	-0.311417	1.027555	0.191387
O32	O	0.021917	1.360888	0.524721
O33	O	0.355250	1.694222	0.858054
O34	O	-0.311387	0.907187	0.311419
O35	O	0.021946	1.240520	0.644752
O36	O	0.355279	1.573853	0.978085
O37	O	-0.402350	1.027572	0.522449
O38	O	-0.069017	1.360905	0.855782
O39	O	0.264317	1.694239	1.189116
O40	O	-0.402344	0.907151	0.402366
O41	O	-0.069011	1.240484	0.735700
O42	O	0.264323	1.573817	1.069033
O43	O	-0.311398	1.118850	0.522487
O44	O	0.021935	1.452183	0.855820
O45	O	0.355269	1.785517	1.189153
O46	O	-0.522441	1.118672	0.311422
O47	O	-0.189107	1.452005	0.644756
O48	O	0.144226	1.785339	0.978089
O49	O	-0.522419	1.027471	0.402368
O50	O	-0.189085	1.360804	0.735702
O51	O	0.144248	1.694138	1.069035
C52	C	-0.356862	0.880222	0.356887
C53	C	-0.023529	1.213556	0.690220
C54	C	0.309804	1.546889	1.023554
C55	C	-0.356868	0.797676	0.356887
C56	C	-0.023535	1.131010	0.690220
C57	C	0.309798	1.464343	1.023554
C58	C	-0.549301	1.073075	0.356906
C59	C	-0.215967	1.406408	0.690240
C60	C	0.117366	1.739742	1.023573
C61	C	-0.631615	1.073100	0.356922
C62	C	-0.298281	1.406434	0.690255
C63	C	0.035052	1.739767	1.023588
C64	C	-0.930706	1.073263	0.356962
C65	C	-0.597372	1.406597	0.690295
C66	C	-0.264039	1.739930	1.023628
C67	C	-0.899397	1.016015	0.414324
C68	C	-0.566064	1.349348	0.747658
C69	C	-0.232731	1.682682	1.080991
C70	C	-0.813779	1.015743	0.414145
C71	C	-0.480446	1.349076	0.747478
C72	C	-0.147113	1.682410	1.080812
C73	C	-0.782323	1.073182	0.356942
C74	C	-0.448990	1.406516	0.690276
C75	C	-0.115656	1.739849	1.023609
C76	C	-0.813459	1.051994	0.278891
C77	C	-0.480125	1.385327	0.612224
C78	C	-0.146792	1.718660	0.945557
C79	C	-0.899104	1.051625	0.279234
C80	C	-0.565771	1.384958	0.612567
C81	C	-0.232437	1.718291	0.945901
C82	C	-0.899058	1.151826	0.376964
C83	C	-0.565725	1.485159	0.710297
C84	C	-0.232392	1.818492	1.043630
C85	C	-0.813408	1.151364	0.378675
C86	C	-0.480074	1.484697	0.712009
C87	C	-0.146741	1.818030	1.045342
C88	C	-0.698464	1.073138	0.356927
C89	C	-0.365130	1.406471	0.690260
C90	C	-0.031797	1.739805	1.023593
C91	C	-1.014565	1.073306	0.356972
C92	C	-0.681232	1.406639	0.690305
C93	C	-0.347898	1.739973	1.023639
C94	C	-0.307349	0.598224	0.307544
C95	C	0.025984	0.931557	0.640877
C96	C	0.359318	1.264891	0.974210
C97	C	-0.374893	0.548800	0.289321
C98	C	-0.041560	0.882133	0.622654
C99	C	0.291773	1.215466	0.955988
C100	C	-0.356891	0.646546	0.356921
C101	C	-0.023558	0.979879	0.690254
C102	C	0.309776	1.313213	1.023587
C103	C	-0.289370	0.548889	0.375142
C104	C	0.043963	0.882222	0.708475
C105	C	0.377297	1.215555	1.041808
C106	C	-0.356907	0.500561	0.356952
C107	C	-0.023573	0.833894	0.690285
C108	C	0.309760	1.167228	1.023618
C109	C	-0.424471	0.598209	0.338662
C110	C	-0.091137	0.931542	0.671996
C111	C	0.242196	1.264876	1.005329
C112	C	-0.338902	0.598302	0.424515
C113	C	-0.005568	0.931636	0.757848
C114	C	0.327765	1.264969	1.091181
C115	C	-0.406493	0.548900	0.406317
C116	C	-0.073160	0.882234	0.739651
C117	C	0.260174	1.215567	1.072984
C118	C	-0.356881	0.730644	0.356901
C119	C	-0.023547	1.063978	0.690234
C120	C	0.309786	1.397311	1.023568
C121	C	-0.356924	0.416464	0.356971
C122	C	-0.023591	0.749798	0.690305
C123	C	0.309742	1.083131	1.023638
C124	C	-0.163728	1.073294	0.356966
C125	C	0.169605	1.406628	0.690299
C126	C	0.502939	1.739961	1.023633
C127	C	-0.081414	1.073345	0.356982
C128	C	0.251919	1.406679	0.690316
C129	C	0.585253	1.740012	1.023649
C130	C	-0.356871	1.073217	0.550090
C131	C	-0.023538	1.406551	0.883423
C132	C	0.309795	1.739884	1.216757
C133	C	-0.356863	1.073236	0.632404
C134	C	-0.023530	1.406569	0.965737
C135	C	0.309803	1.739902	1.299071
C136	C	-0.356918	1.266880	0.356970
C137	C	-0.023585	1.600213	0.690303
C138	C	0.309748	1.933547	1.023636
C139	C	-0.356930	1.349426	0.356987
C140	C	-0.023597	1.682759	0.690321
C141	C	0.309736	2.016092	1.023654
C142	C	-0.356855	1.073174	0.164518
C143	C	-0.023522	1.406508	0.497851
C144	C	0.309811	1.739841	0.831184
C145	C	-0.356655	1.073300	0.082204
C146	C	-0.023321	1.406633	0.415537
C147	C	0.310012	1.739967	0.748871
C148	C	-0.356724	1.073279	0.931495
C149	C	-0.023391	1.406612	1.264829
C150	C	0.309942	1.739945	1.598162
C151	C	-0.413767	1.015652	0.900146
C152	C	-0.080434	1.348985	1.233480
C153	C	0.252900	1.682318	1.566813
C154	C	-0.414032	1.015807	0.814528
C155	C	-0.080698	1.349141	1.147862
C156	C	0.252635	1.682474	1.481195
C157	C	-0.356793	1.073257	0.783113
C158	C	-0.023460	1.406590	1.116446
C159	C	0.309873	1.739923	1.449779
C160	C	-0.377983	1.151502	0.814220
C161	C	-0.044649	1.484835	1.147553
C162	C	0.288684	1.818168	1.480887
C163	C	-0.378357	1.151181	0.899865
C164	C	-0.045024	1.484514	1.233198
C165	C	0.288309	1.817847	1.566532
C166	C	-0.278365	1.053341	0.899917
C167	C	0.054968	1.386675	1.233250
C168	C	0.388301	1.720008	1.566584
C169	C	-0.278818	1.051600	0.814266
C170	C	0.054515	1.384934	1.147600
C171	C	0.387849	1.718267	1.480933
C172	C	-0.356831	1.073249	0.699253
C173	C	-0.023498	1.406582	1.032586
C174	C	0.309836	1.739916	1.365920
C175	C	-0.356689	1.073292	1.015355
C176	C	-0.023355	1.406625	1.348688
C177	C	0.309978	1.739958	1.682022
H178	H	-0.792727	1.029000	0.472019
H179	H	-0.459393	1.362333	0.805352
H180	H	-0.126060	1.695666	1.138686
F181	F	-0.214727	0.520566	0.395268
F182	F	0.118606	0.853899	0.728601
F183	F	0.451940	1.187233	1.061934
F184	F	-0.326377	1.209173	0.926976
F185	F	0.006956	1.542506	1.260309
F186	F	0.340290	1.875839	1.593642
F187	F	-0.499137	0.626405	0.318449
F188	F	-0.165804	0.959739	0.651782
F189	F	0.167529	1.293072	0.985115
H190	H	-0.235866	1.095315	0.920192
H191	H	0.097467	1.428648	1.253526
H192	H	0.430801	1.761981	1.586859
F193	F	-0.396696	0.939969	0.787033
F194	F	-0.063362	1.273303	1.120367
F195	F	0.269971	1.606636	1.453700
H196	H	-0.793083	1.092379	0.234985
H197	H	-0.459750	1.425712	0.568319
H198	H	-0.126416	1.759046	0.901652
F199	F	-0.926271	1.033167	0.490217
F200	F	-0.592938	1.366500	0.823550
F201	F	-0.259604	1.699833	1.156884
F202	F	-0.461324	0.520769	0.460914
F203	F	-0.127990	0.854102	0.794247
F204	F	0.205343	1.187436	1.127581
H205	H	-0.262839	0.994019	0.793933
H206	H	0.070494	1.327352	1.127267
H207	H	0.403828	1.660686	1.460600
H208	H	-0.919304	1.194478	0.335184
H209	H	-0.585970	1.527811	0.668518
H210	H	-0.252637	1.861144	1.001851
H211	H	-0.920618	1.171144	0.432909
H212	H	-0.587285	1.504477	0.766243
H213	H	-0.253951	1.837810	1.099576
F214	F	-0.252646	0.626533	0.252909
F215	F	0.080687	0.959867	0.586242
F216	F	0.414021	1.293200	0.919575
H217	H	-0.435639	1.168082	0.919850
H218	H	-0.102305	1.501416	1.253183
H219	H	0.231028	1.834749	1.586517
F220	F	-0.787073	0.939629	0.396830
F221	F	-0.453739	1.272962	0.730163
F222	F	-0.120406	1.606295	1.063496
F223	F	-0.325385	1.209132	0.787628
F224	F	0.007948	1.542466	1.120961
F225	F	0.341282	1.875799	1.454295
F226	F	-0.489213	1.032650	0.928327
F227	F	-0.155880	1.365983	1.261660
F228	F	0.177453	1.699317	1.594994
F229	F	-0.927617	0.940366	0.397237
F230	F	-0.594283	1.273699	0.730570
F231	F	-0.260950	1.607033	1.063903
H232	H	-0.323654	0.620063	0.481647
H233	H	0.009679	0.953396	0.814980
H234	H	0.343013	1.286730	1.148314
H235	H	-0.434656	1.168696	0.792779
H236	H	-0.101322	1.502029	1.126113
H237	H	0.232011	1.835362	1.459446
F238	F	-0.925294	0.976562	0.257089
F239	F	-0.591961	1.309895	0.590422
F240	F	-0.258628	1.643229	0.923756
F241	F	-0.926178	1.103755	0.221461
F242	F	-0.592845	1.437088	0.554794
F243	F	-0.259512	1.770422	0.888127
F244	F	-0.786808	1.172251	0.453756
F245	F	-0.453474	1.505584	0.787089
F246	F	-0.120141	1.838917	1.120423
F247	F	-0.396609	0.939581	0.927045
F248	F	-0.063276	1.272914	1.260378
F249	F	0.270057	1.606248	1.593712
F250	F	-0.489941	1.033047	0.787755
F251	F	-0.156608	1.366380	1.121088
F252	F	0.176725	1.699713	1.454422
F253	F	-0.253134	0.980060	0.928127
F254	F	0.080200	1.313393	1.261461
F255	F	0.413533	1.646726	1.594794
F256	F	-0.220317	1.102465	0.786323
F257	F	0.113016	1.435798	1.119657
F258	F	0.446349	1.769131	1.452990
H259	H	-0.792067	0.995174	0.261645
H260	H	-0.458733	1.328507	0.594978
H261	H	-0.125400	1.661840	0.928311
F262	F	-0.785410	1.210067	0.328052
F263	F	-0.452077	1.543400	0.661385
F264	F	-0.118744	1.876733	0.994718
F265	F	-0.394797	0.520379	0.214623
F266	F	-0.061464	0.853712	0.547957
F267	F	0.271870	1.187045	0.881290
