data_functionalizedCrystal
_audit_creation_method	'MofGen! by Chris Wilmer'
_symmetry_space_group_name_H-M	'P1'
_symmetry_Int_Tables_number	1
_symmetry_cell_setting	triclinic
loop_
_symmetry_equiv_pos_as_xyz
  x,y,z
_cell_length_a	13.330367
_cell_length_b	16.109301
_cell_length_c	16.109301
_cell_angle_alpha	96.538519
_cell_angle_beta	90.006067
_cell_angle_gamma	89.995166
loop_
_atom_site_label
_atom_site_type_symbol
_atom_site_fract_x
_atom_site_fract_y
_atom_site_fract_z
O1	O	0.083363	-1.103136	0.106867
O2	O	0.083380	-0.861074	0.120166
O3	O	0.083361	-0.988754	-0.007515
O4	O	0.083382	-0.975455	0.234547
O5	O	-0.083486	-0.988736	-0.007518
O6	O	-0.083468	-0.861055	0.120163
O7	O	-0.083484	-1.103117	0.106864
Cu8	Cu	-0.098710	-0.982084	0.113513
Cu9	Cu	0.098606	-0.982106	0.113516
O10	O	-0.083465	-0.975436	0.234544
C11	C	-0.000042	-0.830090	0.119626
C12	C	-0.000036	-0.737794	0.118011
N13	N	-0.237492	-0.982075	0.113510
C14	C	-0.000063	-0.988206	-0.038491
C15	C	-0.000065	-0.986591	-0.130786
C16	C	-0.710106	-0.925567	0.170031
C17	C	-0.710091	-1.038668	0.056995
C18	C	-0.605073	-1.038659	0.056993
C19	C	-0.552566	-0.982103	0.113511
C20	C	-0.605078	-0.925557	0.170032
C21	C	-0.552553	-1.095209	0.000478
C22	C	-0.447528	-1.095203	0.000474
C23	C	-0.395020	-1.038643	0.056989
C24	C	-0.447538	-0.982094	0.113512
C25	C	-0.395032	-0.925539	0.170030
C26	C	-0.447548	-0.868985	0.226550
C27	C	-0.552570	-0.868997	0.226547
C28	C	-0.289998	-1.038630	0.056992
C29	C	-0.290004	-0.925529	0.170031
N30	N	0.237387	-0.982122	0.113513
C31	C	-0.000060	-1.134101	0.107404
C32	C	-0.000059	-1.226397	0.109019
C33	C	-0.000041	-0.515522	0.190018
C34	C	-0.000048	-0.428801	0.188494
C35	C	-0.000057	-0.448676	0.037006
C36	C	-0.000058	-0.535394	0.038530
C37	C	-0.000045	-0.568815	0.115039
C38	C	-0.000051	-0.395376	0.111990
C39	C	-0.000058	-0.301350	0.110337
C40	C	-0.000039	-0.662847	0.116693
C41	C	-0.000054	-1.058599	-0.353059
C42	C	-0.000045	-1.057075	-0.439779
C43	C	-0.000039	-0.905586	-0.419905
C44	C	-0.000040	-0.907111	-0.333186
C45	C	-0.000052	-0.983620	-0.299766
C46	C	-0.000043	-0.980571	-0.473205
C47	C	-0.000034	-0.978918	-0.567231
C48	C	-0.000060	-0.985273	-0.205734
C49	C	-0.000039	-0.975984	0.265521
C50	C	-0.000031	-0.977600	0.357816
H51	H	-0.247259	-0.879472	0.216053
H52	H	-0.000038	-0.542730	0.252317
F53	F	-0.765996	-0.865378	0.230178
H54	H	-0.000047	-0.385413	0.249550
H55	H	-0.000036	-0.846050	-0.289792
F56	F	-0.000066	-1.140026	-0.317493
H57	H	-0.000063	-0.578788	-0.022530
F58	F	-0.391643	-1.155389	-0.059679
H59	H	-0.000044	-1.118130	-0.483168
H60	H	-0.595307	-1.141259	-0.045534
H61	H	-0.000074	-0.421454	-0.025285
F62	F	-0.000025	-0.824164	-0.455481
H63	H	-0.752845	-1.084718	0.010983
H64	H	-0.595335	-0.822954	0.272564
H65	H	-0.404785	-0.822941	0.272571
H66	H	-0.247244	-1.084679	0.010978
