data_functionalizedCrystal
_audit_creation_method	'MofGen! by Chris Wilmer'
_symmetry_space_group_name_H-M	'P1'
_symmetry_Int_Tables_number	1
_symmetry_cell_setting	triclinic
loop_
_symmetry_equiv_pos_as_xyz
  x,y,z
_cell_length_a	19.188905
_cell_length_b	19.188930
_cell_length_c	10.268362
_cell_angle_alpha	89.989600
_cell_angle_beta	89.988290
_cell_angle_gamma	83.139668
loop_
_atom_site_label
_atom_site_type_symbol
_atom_site_fract_x
_atom_site_fract_y
_atom_site_fract_z
O1	O	0.926156	0.087085	-0.108529
O2	O	1.426156	0.587085	0.391471
O3	O	0.722842	0.098837	-0.108487
O4	O	1.222842	0.598837	0.391513
O5	O	0.830366	-0.008695	-0.108484
O6	O	1.330366	0.491305	0.391516
O7	O	0.818632	0.194617	-0.108532
O8	O	1.318632	0.694617	0.391468
O9	O	0.830357	-0.008699	0.108117
O10	O	1.330357	0.491301	0.608117
O11	O	0.722833	0.098833	0.108114
O12	O	1.222833	0.598833	0.608114
O13	O	0.926147	0.087081	0.108071
O14	O	1.426147	0.587081	0.608071
Cu15	Cu	0.824489	0.092956	0.127870
Cu16	Cu	1.324489	0.592956	0.627870
Cu17	Cu	0.824500	0.092962	-0.128285
Cu18	Cu	1.324500	0.592962	0.371715
O19	O	0.818623	0.194613	0.108068
O20	O	1.318623	0.694613	0.608068
C21	C	0.696826	0.098458	-0.000181
C22	C	1.196826	0.598458	0.499819
C23	C	0.619321	0.097324	-0.000163
C24	C	1.119321	0.597324	0.499837
C25	C	0.582934	0.096782	-0.118236
C26	C	1.082934	0.596782	0.381764
C27	C	0.510110	0.095709	-0.118252
C28	C	1.010110	0.595709	0.381748
C29	C	0.473678	0.095164	-0.000188
C30	C	0.973678	0.595164	0.499812
C31	C	0.510073	0.095710	0.117899
C32	C	1.010073	0.595710	0.617899
C33	C	0.582894	0.096790	0.117912
C34	C	1.082894	0.596790	0.617912
N35	N	0.364654	0.053733	0.087684
N36	N	0.864654	0.553733	0.587684
N37	N	0.295477	0.052706	0.087664
N38	N	0.795477	0.552706	0.587664
C39	C	0.254272	0.091911	-0.000219
C40	C	0.754272	0.591911	0.499781
N41	N	0.284857	0.132174	-0.088102
N42	N	0.784857	0.632174	0.411898
N43	N	0.354041	0.133198	-0.088086
N44	N	0.854041	0.633198	0.411914
C45	C	0.394716	0.093993	-0.000189
C46	C	0.894716	0.593993	0.499811
C47	C	0.138921	0.090206	-0.118317
C48	C	0.638921	0.590206	0.381683
C49	C	0.066095	0.089138	-0.118328
C50	C	0.566095	0.589138	0.381672
C51	C	0.066061	0.089132	0.117827
C52	C	0.566061	0.589132	0.617827
C53	C	0.138884	0.090208	0.117834
C54	C	0.638884	0.590208	0.617834
C55	C	0.175310	0.090742	-0.000241
C56	C	0.675310	0.590742	0.499759
C57	C	0.829982	-0.034708	-0.000180
C58	C	1.329982	0.465292	0.499820
C59	C	0.828841	-0.112213	-0.000168
C60	C	1.328841	0.387787	0.499832
C61	C	0.891933	-0.157142	-0.000175
C62	C	1.391933	0.342858	0.499825
C63	C	0.890861	-0.229966	-0.000196
C64	C	1.390861	0.270034	0.499804
C65	C	0.826694	-0.257857	-0.000183
C66	C	1.326694	0.242143	0.499817
C67	C	0.763594	-0.212917	-0.000184
C68	C	1.263594	0.287083	0.499816
C69	C	0.764668	-0.140095	-0.000176
C70	C	1.264668	0.359905	0.499824
N71	N	0.777643	-0.365859	0.073540
N72	N	1.277643	0.134141	0.573540
N73	N	0.776627	-0.435037	0.073536
N74	N	1.276627	0.064963	0.573536
C75	C	0.823456	-0.477265	-0.000209
C76	C	1.323456	0.022735	0.499791
N77	N	0.871349	-0.447702	-0.073933
N78	N	1.371349	0.052298	0.426067
N79	N	0.872366	-0.378518	-0.073923
N80	N	1.372366	0.121482	0.426077
C81	C	0.825523	-0.336819	-0.000192
C82	C	1.325523	0.163181	0.499808
C83	C	0.885390	-0.601159	-0.000240
C84	C	1.385390	-0.101159	0.499760
C85	C	0.884315	-0.673984	-0.000269
C86	C	1.384315	-0.173984	0.499731
C87	C	0.757047	-0.656933	-0.000244
C88	C	1.257047	-0.156933	0.499756
C89	C	0.758123	-0.584110	-0.000228
C90	C	1.258123	-0.084110	0.499772
C91	C	0.822296	-0.556228	-0.000220
C92	C	1.322296	-0.056228	0.499780
C93	C	0.952163	0.087460	-0.000238
C94	C	1.452163	0.587460	0.499762
C95	C	1.029668	0.088594	-0.000264
C96	C	1.529668	0.588594	0.499736
N97	N	0.824486	0.092952	0.308036
N98	N	1.324486	0.592952	0.808036
C99	C	0.819007	0.220626	-0.000239
C100	C	1.319007	0.720626	0.499761
C101	C	0.820148	0.298131	-0.000259
C102	C	1.320148	0.798131	0.499741
N103	N	0.824508	0.092960	-0.308451
N104	N	1.324508	0.592960	0.191549
C105	C	0.824496	0.092960	0.573706
C106	C	1.324496	0.592960	1.073706
C107	C	0.824489	0.092958	0.425868
C108	C	1.324489	0.592958	0.925868
H109	H	0.036398	0.088693	0.213956
H110	H	0.536398	0.588693	0.713956
H111	H	0.711349	-0.235631	-0.000176
H112	H	1.211349	0.264369	0.499824
H113	H	0.944187	-0.134445	-0.000173
H114	H	1.444187	0.365555	0.499827
H115	H	0.168580	0.090649	-0.214461
H116	H	0.668580	0.590649	0.285539
H117	H	0.036470	0.088701	-0.214481
H118	H	0.536470	0.588701	0.285519
C119	C	0.686464	-0.687605	-0.000234
C120	C	1.186464	-0.187605	0.499766
H121	H	0.694860	-0.737410	-0.000234
H122	H	1.194860	-0.237410	0.499766
H123	H	0.660499	-0.672157	-0.075760
H124	H	1.160499	-0.172157	0.424240
H125	H	0.660492	-0.672179	0.075316
H126	H	1.160492	-0.172179	0.575316
C127	C	0.178912	0.090795	0.247715
C128	C	0.678912	0.590795	0.747715
H129	H	0.146788	0.090312	0.318029
H130	H	0.646788	0.590312	0.818029
H131	H	0.201864	0.131922	0.252621
H132	H	0.701864	0.631922	0.752621
H133	H	0.212775	0.050504	0.252635
H134	H	0.712775	0.550504	0.752635
C135	C	0.955976	-0.570485	-0.000246
C136	C	1.455976	-0.070485	0.499754
H137	H	0.993399	-0.607676	-0.000273
H138	H	1.493399	-0.107676	0.499727
H139	H	0.959038	-0.542442	0.075292
H140	H	1.459038	-0.042442	0.575292
H141	H	0.959042	-0.542420	-0.075785
H142	H	1.459042	-0.042420	0.424215
C143	C	0.688721	-0.534686	-0.000198
C144	C	1.188721	-0.034686	0.499802
H145	H	0.650351	-0.561724	-0.000183
H146	H	1.150351	-0.061724	0.499817
H147	H	0.686496	-0.505911	-0.075725
H148	H	1.186496	-0.005911	0.424275
H149	H	0.686495	-0.505936	0.075351
H150	H	1.186495	-0.005936	0.575351
C151	C	0.960262	-0.279400	-0.000195
C152	C	1.460262	0.220600	0.499805
H153	H	0.950430	-0.326764	-0.000207
H154	H	1.450430	0.173236	0.499793
H155	H	0.986576	-0.270977	0.075339
H156	H	1.486576	0.229023	0.575339
H157	H	0.986591	-0.270963	-0.075737
H158	H	1.486591	0.229037	0.424263
C159	C	0.695264	-0.090671	-0.000156
C160	C	1.195264	0.409329	0.499844
H161	H	0.656893	-0.117708	-0.000146
H162	H	1.156893	0.382292	0.499854
H163	H	0.693040	-0.061895	-0.075681
H164	H	1.193040	0.438105	0.424319
H165	H	0.693036	-0.061922	0.075395
H166	H	1.193036	0.438078	0.575395
C167	C	0.953720	-0.723407	-0.000274
C168	C	1.453720	-0.223407	0.499726
H169	H	0.992090	-0.696368	-0.000256
H170	H	1.492090	-0.196368	0.499744
H171	H	0.955956	-0.752160	-0.075811
H172	H	1.455956	-0.252160	0.424189
H173	H	0.955937	-0.752178	0.075265
H174	H	1.455937	-0.252178	0.575265
H175	H	0.612588	0.097216	-0.214382
H176	H	1.112588	0.597216	0.285618
H177	H	0.480478	0.095268	-0.214403
H178	H	0.980478	0.595268	0.285597
H179	H	0.612520	0.097232	0.214064
H180	H	1.112520	0.597232	0.714064
C181	C	0.469994	0.095163	0.247765
C182	C	0.969994	0.595163	0.747765
H183	H	0.421411	0.094452	0.230848
H184	H	0.921411	0.594452	0.730848
H185	H	0.476480	0.136063	0.296208
H186	H	0.976480	0.636063	0.796208
H187	H	0.487357	0.054644	0.296354
H188	H	0.987357	0.554644	0.796354
