data_functionalizedCrystal
_audit_creation_method	'MofGen! by Chris Wilmer'
_symmetry_space_group_name_H-M	'P1'
_symmetry_Int_Tables_number	1
_symmetry_cell_setting	triclinic
loop_
_symmetry_equiv_pos_as_xyz
  x,y,z
_cell_length_a	12.827893
_cell_length_b	16.625546
_cell_length_c	12.827885
_cell_angle_alpha	89.964876
_cell_angle_beta	89.980538
_cell_angle_gamma	90.022439
loop_
_atom_site_label
_atom_site_type_symbol
_atom_site_fract_x
_atom_site_fract_y
_atom_site_fract_z
Zn1	Zn	1.597620	-0.320963	-0.590810
Zn2	Zn	1.930954	0.012370	-0.257477
Zn3	Zn	2.264287	0.345703	0.075857
Zn4	Zn	1.597492	-0.455817	-0.416054
Zn5	Zn	1.930825	-0.122484	-0.082721
Zn6	Zn	2.264159	0.210849	0.250613
Zn7	Zn	1.422861	-0.321002	-0.416084
Zn8	Zn	1.756194	0.012331	-0.082750
Zn9	Zn	2.089528	0.345664	0.250583
Zn10	Zn	1.422825	-0.455757	-0.590754
Zn11	Zn	1.756159	-0.122424	-0.257421
Zn12	Zn	2.089492	0.210909	0.075913
O13	O	1.510200	-0.388385	-0.503425
O14	O	1.843533	-0.055052	-0.170092
O15	O	2.176866	0.278282	0.163241
O16	O	1.743839	-0.338861	-0.567639
O17	O	2.077173	-0.005527	-0.234306
O18	O	2.410506	0.327806	0.099027
O19	O	1.574288	-0.437976	-0.269822
O20	O	1.907622	-0.104642	0.063512
O21	O	2.240955	0.228691	0.396845
O22	O	1.446112	-0.208165	-0.439297
O23	O	1.779445	0.125168	-0.105964
O24	O	2.112778	0.458502	0.227369
O25	O	1.743745	-0.437937	-0.439247
O26	O	2.077078	-0.104604	-0.105913
O27	O	2.410412	0.228729	0.227420
O28	O	1.574507	-0.208136	-0.567668
O29	O	1.907840	0.125197	-0.234335
O30	O	2.241173	0.458531	0.098999
O31	O	1.445988	-0.338928	-0.269843
O32	O	1.779321	-0.005594	0.063490
O33	O	2.112654	0.327739	0.396823
O34	O	1.276620	-0.338869	-0.439243
O35	O	1.609954	-0.005536	-0.105910
O36	O	1.943287	0.327797	0.227424
O37	O	1.446051	-0.437835	-0.736997
O38	O	1.779384	-0.104502	-0.403664
O39	O	2.112717	0.228831	-0.070331
O40	O	1.276594	-0.437873	-0.567572
O41	O	1.609927	-0.104540	-0.234239
O42	O	1.943261	0.228793	0.099094
O43	O	1.574472	-0.338802	-0.737039
O44	O	1.907805	-0.005469	-0.403705
O45	O	2.241139	0.327864	-0.070372
O46	O	1.574254	-0.568642	-0.439192
O47	O	1.907587	-0.235309	-0.105859
O48	O	2.240920	0.098025	0.227474
O49	O	1.445927	-0.568598	-0.567544
O50	O	1.779260	-0.235265	-0.234210
O51	O	2.112593	0.098069	0.099123
C52	C	1.238690	-0.388370	-0.503405
C53	C	1.572023	-0.055036	-0.170072
C54	C	1.905356	0.278297	0.163261
C55	C	1.122537	-0.388382	-0.503422
C56	C	1.455870	-0.055049	-0.170088
C57	C	1.789203	0.278284	0.163245
C58	C	1.070766	-0.437449	-0.566825
C59	C	1.404100	-0.104116	-0.233492
C60	C	1.737433	0.229217	0.099841
C61	C	0.950716	-0.437464	-0.566844
C62	C	1.284049	-0.104130	-0.233510
C63	C	1.617383	0.229203	0.099823
C64	C	1.510101	-0.597876	-0.503382
C65	C	1.843434	-0.264543	-0.170048
C66	C	2.176767	0.068791	0.163285
C67	C	1.510154	-0.687497	-0.503398
C68	C	1.843487	-0.354164	-0.170064
C69	C	2.176821	-0.020830	0.163269
C70	C	1.510336	-1.015673	-0.503507
C71	C	1.843670	-0.682339	-0.170173
C72	C	2.177003	-0.349006	0.163160
C73	C	1.510282	-0.924364	-0.503479
C74	C	1.843616	-0.591031	-0.170146
C75	C	2.176949	-0.257698	0.163187
C76	C	1.510244	-0.851588	-0.503452
C77	C	1.843578	-0.518254	-0.170118
C78	C	2.176911	-0.184921	0.163215
C79	C	1.510192	-0.760274	-0.503425
C80	C	1.843525	-0.426940	-0.170092
C81	C	2.176859	-0.093607	0.163241
C82	C	1.782770	-0.388401	-0.503446
C83	C	2.116103	-0.055068	-0.170113
C84	C	2.449436	0.278265	0.163221
C85	C	1.898923	-0.388408	-0.503455
C86	C	2.232256	-0.055075	-0.170121
C87	C	2.565590	0.278258	0.163212
C88	C	1.510272	-0.388308	-0.775996
C89	C	1.843605	-0.054974	-0.442662
C90	C	2.176938	0.278359	-0.109329
C91	C	1.510302	-0.388275	-0.892149
C92	C	1.843636	-0.054941	-0.558816
C93	C	2.176969	0.278392	-0.225482
C94	C	1.510327	-0.178076	-0.503492
C95	C	1.843661	0.155257	-0.170159
C96	C	2.176994	0.488590	0.163175
C97	C	1.510382	-0.088455	-0.503521
C98	C	1.843715	0.244878	-0.170187
C99	C	2.177048	0.578212	0.163146
C100	C	1.446835	-0.339253	-0.943944
C101	C	1.780169	-0.005920	-0.610611
C102	C	2.113502	0.327414	-0.277278
C103	C	1.446866	-0.339218	-1.063995
C104	C	1.780199	-0.005884	-0.730661
C105	C	2.113532	0.327449	-0.397328
C106	C	1.510188	-0.388404	-0.231915
C107	C	1.843521	-0.055071	0.101418
C108	C	2.176855	0.278263	0.434751
C109	C	1.510360	-0.388210	-0.115763
C110	C	1.843693	-0.054877	0.217571
C111	C	2.177026	0.278457	0.550904
H112	H	0.906195	-0.479474	-0.621123
H113	H	1.239528	-0.146140	-0.287789
H114	H	1.572862	0.187193	0.045544
C115	C	1.373449	-0.282527	-1.124160
C116	C	1.706782	0.050807	-0.790827
C117	C	2.040115	0.384140	-0.457493
H118	H	1.383091	-0.289947	-1.196954
H119	H	1.716424	0.043386	-0.863621
H120	H	2.049758	0.376719	-0.530288
H121	H	1.388742	-0.228342	-1.106346
H122	H	1.722075	0.104991	-0.773013
H123	H	2.055408	0.438324	-0.439680
H124	H	1.303207	-0.294330	-1.106310
H125	H	1.636540	0.039004	-0.772977
H126	H	1.969873	0.372337	-0.439643
H127	H	1.077982	-0.346382	-0.449157
H128	H	1.411316	-0.013049	-0.115824
H129	H	1.744649	0.320285	0.217509
C130	C	0.959047	-0.331652	-0.430118
C131	C	1.292381	0.001681	-0.096785
C132	C	1.625714	0.335015	0.236549
H133	H	0.910979	-0.300881	-0.390347
H134	H	1.244312	0.032453	-0.057014
H135	H	1.577646	0.365786	0.276320
H136	H	1.001658	-0.296583	-0.470207
H137	H	1.334992	0.036750	-0.136873
H138	H	1.668325	0.370084	0.196460
H139	H	1.001592	-0.362483	-0.384540
H140	H	1.334925	-0.029150	-0.051206
H141	H	1.668258	0.304184	0.282127
H142	H	1.564660	-0.430219	-0.936682
H143	H	1.897993	-0.096885	-0.603348
H144	H	2.231327	0.236448	-0.270015
C145	C	1.373400	-0.282588	-0.883795
C146	C	1.706734	0.050746	-0.550461
C147	C	2.040067	0.384079	-0.217128
H148	H	1.383019	-0.290041	-0.810998
H149	H	1.716353	0.043292	-0.477664
H150	H	2.049686	0.376626	-0.144331
H151	H	1.303167	-0.294362	-0.901621
H152	H	1.636501	0.038971	-0.568288
H153	H	1.969834	0.372304	-0.234954
H154	H	1.388726	-0.228393	-0.901648
H155	H	1.722059	0.104940	-0.568315
H156	H	2.055392	0.438273	-0.234981
H157	H	1.564703	-0.430178	-1.071227
H158	H	1.898036	-0.096845	-0.737893
H159	H	2.231370	0.236488	-0.404560
H160	H	1.115321	-0.479444	-0.621098
H161	H	1.448654	-0.146110	-0.287764
H162	H	1.781988	0.187223	0.045569
