data_functionalizedCrystal
_audit_creation_method	'MofGen! by Chris Wilmer'
_symmetry_space_group_name_H-M	'P1'
_symmetry_Int_Tables_number	1
_symmetry_cell_setting	triclinic
loop_
_symmetry_equiv_pos_as_xyz
  x,y,z
_cell_length_a	8.497374
_cell_length_b	13.032831
_cell_length_c	13.032268
_cell_angle_alpha	90.886977
_cell_angle_beta	82.839691
_cell_angle_gamma	97.198504
loop_
_atom_site_label
_atom_site_type_symbol
_atom_site_fract_x
_atom_site_fract_y
_atom_site_fract_z
Zn1	Zn	-1.065478	-1.498738	0.780968
Zn2	Zn	-0.565478	-0.998738	1.280968
Zn3	Zn	-1.300541	-1.520538	0.609018
Zn4	Zn	-0.800541	-1.020538	1.109018
Zn5	Zn	-0.999571	-1.348581	0.587201
Zn6	Zn	-0.499571	-0.848581	1.087201
Zn7	Zn	-1.292011	-1.326784	0.759142
Zn8	Zn	-0.792011	-0.826784	1.259142
O9	O	-1.164400	-1.423660	0.684082
O10	O	-0.664400	-0.923660	1.184082
O11	O	-1.127812	-1.645558	0.776424
O12	O	-0.627812	-1.145558	1.276424
O13	O	-1.236604	-1.515972	0.462204
O14	O	-0.736604	-1.015972	0.962204
O15	O	-0.787552	-1.368498	0.612909
O16	O	-0.287552	-0.868498	1.112909
O17	O	-1.300512	-1.661574	0.650092
O18	O	-0.800512	-1.161574	1.150092
O19	O	-0.835974	-1.478818	0.755269
O20	O	-0.335974	-0.978818	1.255269
O21	O	-1.015483	-1.389636	0.446175
O22	O	-0.515483	-0.889636	0.946175
O23	O	-1.007211	-1.201761	0.591745
O24	O	-0.507211	-0.701761	1.091745
O25	O	-1.285973	-1.331349	0.905957
O26	O	-0.785973	-0.831349	1.405957
O27	O	-1.222066	-1.185747	0.718069
O28	O	-0.722066	-0.685747	1.218069
O29	O	-1.119541	-1.457683	0.921993
O30	O	-0.619541	-0.957683	1.421993
O31	O	-1.520171	-1.494837	0.628928
O32	O	-1.020171	-0.994837	1.128928
O33	O	-1.513904	-1.352487	0.739224
O34	O	-1.013904	-0.852487	1.239224
C35	C	-1.106562	-1.156435	0.650171
C36	C	-0.606562	-0.656435	1.150171
C37	C	-1.081861	-1.042112	0.635689
C38	C	-0.581861	-0.542112	1.135689
C39	C	-1.209157	-1.389653	0.952335
C40	C	-0.709157	-0.889653	1.452335
C41	C	-1.228230	-1.375161	1.066648
C42	C	-0.728230	-0.875161	1.566648
C43	C	-1.222465	-1.691929	0.718126
C44	C	-0.722465	-1.191929	1.218126
C45	C	-1.247209	-1.806249	0.732634
C46	C	-0.747209	-1.306249	1.232634
C47	C	-0.752919	-1.423651	0.684086
C48	C	-0.252919	-0.923651	1.184086
C49	C	-0.574275	-1.423651	0.684089
C50	C	-0.074275	-0.923651	1.184089
C51	C	-1.119716	-1.457594	0.416881
C52	C	-0.619716	-0.957594	0.916881
C53	C	-1.100242	-1.472285	0.302593
C54	C	-0.600242	-0.972285	0.802593
C55	C	-1.177292	-0.983259	0.691641
C56	C	-0.677292	-0.483259	1.191641
C57	C	-1.151765	-0.865100	0.676674
C58	C	-0.651765	-0.365100	1.176674
C59	C	-1.154386	-1.431207	1.125547
C60	C	-0.654386	-0.931207	1.625547
C61	C	-1.174097	-1.416231	1.243696
C62	C	-0.674097	-0.916231	1.743696
H63	H	-1.277888	-1.020349	0.750628
H64	H	-0.777888	-0.520349	1.250628
H65	H	-1.051151	-0.828013	0.617690
H66	H	-0.551151	-0.328013	1.117690
H67	H	-1.347810	-0.843332	0.791628
H68	H	-0.847810	-0.343332	1.291628
H69	H	-1.022413	-1.531355	1.265554
H70	H	-0.522413	-1.031355	1.765554
F71	F	-0.950358	-0.993637	0.558596
F72	F	-0.450358	-0.493637	1.058596
H73	H	-1.076566	-1.490275	1.088503
H74	H	-0.576566	-0.990275	1.588503
H75	H	-1.251904	-1.357149	1.280734
H76	H	-0.751904	-0.857149	1.780734
H77	H	-1.306032	-1.316083	1.103691
H78	H	-0.806032	-0.816083	1.603691
