data_functionalizedCrystal
_audit_creation_method	'MofGen! by Chris Wilmer'
_symmetry_space_group_name_H-M	'P1'
_symmetry_Int_Tables_number	1
_symmetry_cell_setting	triclinic
loop_
_symmetry_equiv_pos_as_xyz
  x,y,z
_cell_length_a	29.839131
_cell_length_b	13.897449
_cell_length_c	13.897441
_cell_angle_alpha	90.026069
_cell_angle_beta	89.964857
_cell_angle_gamma	89.958652
loop_
_atom_site_label
_atom_site_type_symbol
_atom_site_fract_x
_atom_site_fract_y
_atom_site_fract_z
Zn1	Zn	-0.178840	-1.474544	-0.545488
Zn2	Zn	0.071160	-1.224544	-0.295488
Zn3	Zn	0.321160	-0.974544	-0.045488
Zn4	Zn	0.571160	-0.724544	0.204512
Zn5	Zn	-0.253975	-1.474371	-0.384177
Zn6	Zn	-0.003975	-1.224371	-0.134177
Zn7	Zn	0.246025	-0.974371	0.115823
Zn8	Zn	0.496025	-0.724371	0.365823
Zn9	Zn	-0.178859	-1.313233	-0.384191
Zn10	Zn	0.071141	-1.063233	-0.134191
Zn11	Zn	0.321141	-0.813233	0.115809
Zn12	Zn	0.571141	-0.563233	0.365809
Zn13	Zn	-0.253943	-1.313148	-0.545414
Zn14	Zn	-0.003943	-1.063148	-0.295414
Zn15	Zn	0.246057	-0.813148	-0.045414
Zn16	Zn	0.496057	-0.563148	0.204586
O17	O	-0.216404	-1.393824	-0.464817
O18	O	0.033596	-1.143824	-0.214817
O19	O	0.283596	-0.893824	0.035183
O20	O	0.533596	-0.643824	0.285183
O21	O	-0.188812	-1.609502	-0.524114
O22	O	0.061188	-1.359502	-0.274114
O23	O	0.311188	-1.109502	-0.024114
O24	O	0.561188	-0.859502	0.225886
O25	O	-0.244032	-1.452959	-0.249197
O26	O	0.005968	-1.202959	0.000803
O27	O	0.255968	-0.952959	0.250803
O28	O	0.505968	-0.702959	0.500803
O29	O	-0.115990	-1.334739	-0.405625
O30	O	0.134010	-1.084739	-0.155625
O31	O	0.384010	-0.834739	0.094375
O32	O	0.634010	-0.584739	0.344375
O33	O	-0.244013	-1.609375	-0.405600
O34	O	0.005987	-1.359375	-0.155600
O35	O	0.255987	-1.109375	0.094400
O36	O	0.505987	-0.859375	0.344400
O37	O	-0.115975	-1.453253	-0.524129
O38	O	0.134025	-1.203253	-0.274129
O39	O	0.384025	-0.953253	-0.024129
O40	O	0.634025	-0.703253	0.225871
O41	O	-0.188845	-1.334571	-0.249208
O42	O	0.061155	-1.084571	0.000792
O43	O	0.311155	-0.834571	0.250792
O44	O	0.561155	-0.584571	0.500792
O45	O	-0.188815	-1.178240	-0.405553
O46	O	0.061185	-0.928240	-0.155553
O47	O	0.311185	-0.678240	0.094447
O48	O	0.561185	-0.428240	0.344447
O49	O	-0.243960	-1.334594	-0.680406
O50	O	0.006040	-1.084594	-0.430406
O51	O	0.256040	-0.834594	-0.180406
O52	O	0.506040	-0.584594	0.069594
O53	O	-0.243979	-1.178177	-0.524003
O54	O	0.006021	-0.928177	-0.274003
O55	O	0.256021	-0.678177	-0.024003
O56	O	0.506021	-0.428177	0.225997
O57	O	-0.188781	-1.453171	-0.680460
O58	O	0.061219	-1.203171	-0.430460
O59	O	0.311219	-0.953171	-0.180460
O60	O	0.561219	-0.703171	0.069540
O61	O	-0.316838	-1.452876	-0.405528
O62	O	-0.066838	-1.202876	-0.155528
O63	O	0.183162	-0.952876	0.094472
O64	O	0.433162	-0.702876	0.344472
O65	O	-0.316815	-1.334426	-0.523989
O66	O	-0.066815	-1.084426	-0.273989
O67	O	0.183185	-0.834426	-0.023989
O68	O	0.433185	-0.584426	0.226011
C69	C	-0.216396	-1.143209	-0.464772
C70	C	0.033604	-0.893209	-0.214772
C71	C	0.283604	-0.643209	0.035228
C72	C	0.533604	-0.393209	0.285228
C73	C	-0.216403	-1.035995	-0.464776
C74	C	0.033597	-0.785995	-0.214776
C75	C	0.283597	-0.535995	0.035224
C76	C	0.533597	-0.285995	0.285224
C77	C	-0.216404	-0.948926	-0.464788
C78	C	0.033596	-0.698926	-0.214788
C79	C	0.283596	-0.448926	0.035212
C80	C	0.533596	-0.198926	0.285212
C81	C	-0.216406	-0.839693	-0.464812
C82	C	0.033594	-0.589693	-0.214812
C83	C	0.283594	-0.339693	0.035188
C84	C	0.533594	-0.089693	0.285188
C85	C	-0.333127	-1.393650	-0.464770
C86	C	-0.083127	-1.143650	-0.214770
C87	C	0.166873	-0.893650	0.035230
C88	C	0.416873	-0.643650	0.285230
C89	C	-0.383061	-1.393663	-0.464781
C90	C	-0.133061	-1.143663	-0.214781
C91	C	0.116939	-0.893663	0.035219
C92	C	0.366939	-0.643663	0.285219
C93	C	-0.692704	-1.455613	-0.403225
C94	C	-0.442704	-1.205613	-0.153225
C95	C	-0.192704	-0.955613	0.096775
C96	C	0.057296	-0.705613	0.346775
C97	C	-0.880377	-1.455732	-0.403263
C98	C	-0.630377	-1.205732	-0.153263
C99	C	-0.380377	-0.955732	0.096737
C100	C	-0.130377	-0.705732	0.346737
O101	O	-0.904641	-1.508265	-0.350889
O102	O	-0.654641	-1.258265	-0.100889
O103	O	-0.404641	-1.008265	0.149111
O104	O	-0.154641	-0.758265	0.399111
N105	N	-0.903846	-1.394024	-0.464890
N106	N	-0.653846	-1.144024	-0.214890
N107	N	-0.403846	-0.894024	0.035110
N108	N	-0.153846	-0.644024	0.285110
C109	C	-0.880395	-1.332286	-0.526517
C110	C	-0.630395	-1.082286	-0.276517
C111	C	-0.380395	-0.832286	-0.026517
C112	C	-0.130395	-0.582286	0.223483
O113	O	-0.904663	-1.279809	-0.578943
O114	O	-0.654663	-1.029809	-0.328943
O115	O	-0.404663	-0.779809	-0.078943
O116	O	-0.154663	-0.529809	0.171057
C117	C	-0.692722	-1.332172	-0.526484
C118	C	-0.442722	-1.082172	-0.276484
C119	C	-0.192722	-0.832172	-0.026484
C120	C	0.057278	-0.582172	0.223516
C121	C	-0.669256	-1.393878	-0.464846
C122	C	-0.419256	-1.143878	-0.214846
C123	C	-0.169256	-0.893878	0.035154
C124	C	0.080744	-0.643878	0.285154
C125	C	-0.669237	-1.517314	-0.341592
C126	C	-0.419237	-1.267314	-0.091592
C127	C	-0.169237	-1.017314	0.158408
C128	C	0.080763	-0.767314	0.408408
C129	C	-0.622322	-1.517280	-0.341580
C130	C	-0.372322	-1.267280	-0.091580
C131	C	-0.122322	-1.017280	0.158420
C132	C	0.127678	-0.767280	0.408420
C133	C	-0.598873	-1.455545	-0.403200
C134	C	-0.348873	-1.205545	-0.153200
C135	C	-0.098873	-0.955545	0.096800
C136	C	0.151127	-0.705545	0.346800
C137	C	-0.622340	-1.393844	-0.464833
C138	C	-0.372340	-1.143844	-0.214833
C139	C	-0.122340	-0.893844	0.035167
C140	C	0.127660	-0.643844	0.285167
C141	C	-0.669271	-1.270440	-0.588115
C142	C	-0.419271	-1.020440	-0.338115
C143	C	-0.169271	-0.770440	-0.088115
C144	C	0.080729	-0.520440	0.161885
C145	C	-0.622350	-1.270419	-0.588103
C146	C	-0.372350	-1.020419	-0.338103
C147	C	-0.122350	-0.770419	-0.088103
C148	C	0.127650	-0.520419	0.161897
C149	C	-0.598884	-1.332124	-0.526465
C150	C	-0.348884	-1.082124	-0.276465
C151	C	-0.098884	-0.832124	-0.026465
C152	C	0.151116	-0.582124	0.223535
C153	C	-0.551976	-1.332074	-0.526441
C154	C	-0.301976	-1.082074	-0.276441
C155	C	-0.051976	-0.832074	-0.026441
C156	C	0.198024	-0.582074	0.223559
N157	N	-0.528507	-1.393783	-0.464813
N158	N	-0.278507	-1.143783	-0.214813
N159	N	-0.028507	-0.893783	0.035187
N160	N	0.221493	-0.643783	0.285187
C161	C	-0.551955	-1.455518	-0.403193
C162	C	-0.301955	-1.205518	-0.153193
C163	C	-0.051955	-0.955518	0.096807
C164	C	0.198045	-0.705518	0.346807
C165	C	-0.978925	-1.332349	-0.526529
C166	C	-0.728925	-1.082349	-0.276529
C167	C	-0.478925	-0.832349	-0.026529
C168	C	-0.228925	-0.582349	0.223471
C169	C	-1.025843	-1.332376	-0.526536
C170	C	-0.775843	-1.082376	-0.276536
C171	C	-0.525843	-0.832376	-0.026536
C172	C	-0.275843	-0.582376	0.223464
C173	C	-1.025822	-1.455823	-0.403283
C174	C	-0.775822	-1.205823	-0.153283
C175	C	-0.525822	-0.955823	0.096717
C176	C	-0.275822	-0.705823	0.346717
C177	C	-0.978904	-1.455790	-0.403271
C178	C	-0.728904	-1.205790	-0.153271
C179	C	-0.478904	-0.955790	0.096729
C180	C	-0.228904	-0.705790	0.346729
C181	C	-0.955456	-1.394057	-0.464902
C182	C	-0.705456	-1.144057	-0.214902
C183	C	-0.455456	-0.894057	0.035098
C184	C	-0.205456	-0.644057	0.285098
C185	C	-0.453430	-1.455441	-0.403171
C186	C	-0.203430	-1.205441	-0.153171
C187	C	0.046570	-0.955441	0.096829
C188	C	0.296570	-0.705441	0.346829
C189	C	-0.406510	-1.455398	-0.403161
C190	C	-0.156510	-1.205398	-0.153161
C191	C	0.093490	-0.955398	0.096839
C192	C	0.343490	-0.705398	0.346839
C193	C	-0.406535	-1.331955	-0.526418
C194	C	-0.156535	-1.081955	-0.276418
C195	C	0.093465	-0.831955	-0.026418
C196	C	0.343465	-0.581955	0.223582
C197	C	-0.453450	-1.331993	-0.526425
C198	C	-0.203450	-1.081993	-0.276425
C199	C	0.046550	-0.831993	-0.026425
C200	C	0.296550	-0.581993	0.223575
C201	C	-0.476896	-1.393744	-0.464798
C202	C	-0.226896	-1.143744	-0.214798
C203	C	0.023104	-0.893744	0.035202
C204	C	0.273104	-0.643744	0.285202
O205	O	-0.527683	-1.279576	-0.578795
O206	O	-0.277683	-1.029576	-0.328795
O207	O	-0.027683	-0.779576	-0.078795
O208	O	0.222317	-0.529576	0.171205
O209	O	-0.527679	-1.508002	-0.350790
O210	O	-0.277679	-1.258002	-0.100790
O211	O	-0.027679	-1.008002	0.149210
O212	O	0.222321	-0.758002	0.399210
C213	C	-0.739620	-1.455647	-0.403238
C214	C	-0.489620	-1.205647	-0.153238
C215	C	-0.239620	-0.955647	0.096762
C216	C	0.010380	-0.705647	0.346762
C217	C	-0.763086	-1.393946	-0.464870
C218	C	-0.513086	-1.143946	-0.214870
C219	C	-0.263086	-0.893946	0.035130
C220	C	-0.013086	-0.643946	0.285130
C221	C	-0.739638	-1.332211	-0.526491
C222	C	-0.489638	-1.082211	-0.276491
C223	C	-0.239638	-0.832211	-0.026491
C224	C	0.010362	-0.582211	0.223509
C225	C	-0.810004	-1.393973	-0.464878
C226	C	-0.560004	-1.143973	-0.214878
C227	C	-0.310004	-0.893973	0.035122
C228	C	-0.060004	-0.643973	0.285122
C229	C	-0.833453	-1.455708	-0.403257
C230	C	-0.583453	-1.205708	-0.153257
C231	C	-0.333453	-0.955708	0.096743
C232	C	-0.083453	-0.705708	0.346743
C233	C	-0.809983	-1.517416	-0.341630
C234	C	-0.559983	-1.267416	-0.091630
C235	C	-0.309983	-1.017416	0.158370
C236	C	-0.059983	-0.767416	0.408370
C237	C	-0.763068	-1.517382	-0.341617
C238	C	-0.513068	-1.267382	-0.091617
C239	C	-0.263068	-1.017382	0.158383
C240	C	-0.013068	-0.767382	0.408383
C241	C	-0.763107	-1.270503	-0.588118
C242	C	-0.513107	-1.020503	-0.338118
C243	C	-0.263107	-0.770503	-0.088118
C244	C	-0.013107	-0.520503	0.161882
C245	C	-0.810023	-1.270541	-0.588125
C246	C	-0.560023	-1.020541	-0.338125
C247	C	-0.310023	-0.770541	-0.088125
C248	C	-0.060023	-0.520541	0.161875
C249	C	-0.833471	-1.332276	-0.526505
C250	C	-0.583471	-1.082276	-0.276505
C251	C	-0.333471	-0.832276	-0.026505
C252	C	-0.083471	-0.582276	0.223495
C253	C	-0.099226	-1.394025	-0.464887
C254	C	0.150774	-1.144025	-0.214887
C255	C	0.400774	-0.894025	0.035113
C256	C	0.650774	-0.644025	0.285113
C257	C	-0.049292	-1.394111	-0.464916
C258	C	0.200708	-1.144111	-0.214916
C259	C	0.450708	-0.894111	0.035084
C260	C	0.700708	-0.644111	0.285084
C261	C	-0.216365	-1.393892	-0.716411
C262	C	0.033635	-1.143892	-0.466411
C263	C	0.283635	-0.893892	-0.216411
C264	C	0.533635	-0.643892	0.033589
C265	C	-0.216348	-1.393921	-0.823625
C266	C	0.033652	-1.143921	-0.573625
C267	C	0.283652	-0.893921	-0.323625
C268	C	0.533652	-0.643921	-0.073625
C269	C	-0.216412	-0.645417	-0.464852
C270	C	0.033588	-0.395417	-0.214852
C271	C	0.283588	-0.145417	0.035148
C272	C	0.533588	0.104583	0.285148
C273	C	-0.216410	-0.752631	-0.464837
C274	C	0.033590	-0.502631	-0.214837
C275	C	0.283590	-0.252631	0.035163
C276	C	0.533590	-0.002631	0.285163
C277	C	-0.216317	-1.393948	-1.019920
C278	C	0.033683	-1.143948	-0.769920
C279	C	0.283683	-0.893948	-0.519920
C280	C	0.533683	-0.643948	-0.269920
C281	C	-0.216336	-1.393930	-0.910687
C282	C	0.033664	-1.143930	-0.660687
C283	C	0.283664	-0.893930	-0.410687
C284	C	0.533664	-0.643930	-0.160687
C285	C	-0.216412	-1.393811	-0.214203
C286	C	0.033588	-1.143811	0.035797
C287	C	0.283588	-0.893811	0.285797
C288	C	0.533588	-0.643811	0.535797
C289	C	-0.216302	-1.393969	-0.106990
C290	C	0.033698	-1.143969	0.143010
C291	C	0.283698	-0.893969	0.393010
C292	C	0.533698	-0.643969	0.643010
H293	H	-0.387405	-1.505646	-0.352964
H294	H	-0.137405	-1.255646	-0.102964
H295	H	0.112595	-1.005646	0.147036
H296	H	0.362595	-0.755646	0.397036
H297	H	-0.603262	-1.220149	-0.638293
H298	H	-0.353262	-0.970149	-0.388293
H299	H	-0.103262	-0.720149	-0.138293
H300	H	0.146738	-0.470149	0.111707
H301	H	-0.472514	-1.505726	-0.352991
H302	H	-0.222514	-1.255726	-0.102991
H303	H	0.027486	-1.005726	0.147009
H304	H	0.277486	-0.755726	0.397009
Cl305	Cl	-0.839518	-1.192959	-0.665621
Cl306	Cl	-0.589518	-0.942959	-0.415621
Cl307	Cl	-0.339518	-0.692959	-0.165621
Cl308	Cl	-0.089518	-0.442959	0.084379
H309	H	-0.688370	-1.220189	-0.638303
H310	H	-0.438370	-0.970189	-0.388303
H311	H	-0.188370	-0.720189	-0.138303
H312	H	0.061630	-0.470189	0.111697
H313	H	-0.472558	-1.281751	-0.576619
H314	H	-0.222558	-1.031751	-0.326619
H315	H	0.027442	-0.781751	-0.076619
H316	H	0.277442	-0.531751	0.173381
H317	H	-0.829083	-1.567680	-0.291454
H318	H	-0.579083	-1.317680	-0.041454
H319	H	-0.329083	-1.067680	0.208546
H320	H	-0.079083	-0.817680	0.458546
Cl321	Cl	-0.592827	-1.594871	-0.264102
Cl322	Cl	-0.342827	-1.344871	-0.014102
Cl323	Cl	-0.092827	-1.094871	0.235898
Cl324	Cl	0.157173	-0.844871	0.485898
Cl325	Cl	-0.733636	-1.192884	-0.665592
Cl326	Cl	-0.483636	-0.942884	-0.415592
Cl327	Cl	-0.233636	-0.692884	-0.165592
Cl328	Cl	0.016364	-0.442884	0.084408
Cl329	Cl	-0.698707	-1.594935	-0.264116
Cl330	Cl	-0.448707	-1.344935	-0.014116
Cl331	Cl	-0.198707	-1.094935	0.235884
Cl332	Cl	0.051293	-0.844935	0.485884
H333	H	-1.044946	-1.282120	-0.576720
H334	H	-0.794946	-1.032120	-0.326720
H335	H	-0.544946	-0.782120	-0.076720
H336	H	-0.294946	-0.532120	0.173280
H337	H	-1.044922	-1.506090	-0.353109
H338	H	-0.794922	-1.256090	-0.103109
H339	H	-0.544922	-1.006090	0.146891
H340	H	-0.294922	-0.756090	0.396891
Cl341	Cl	-0.949407	-1.533367	-0.325782
Cl342	Cl	-0.699407	-1.283367	-0.075782
Cl343	Cl	-0.449407	-1.033367	0.174218
Cl344	Cl	-0.199407	-0.783367	0.424218
H345	H	-0.387436	-1.281688	-0.576586
H346	H	-0.137436	-1.031688	-0.326586
H347	H	0.112564	-0.781688	-0.076586
H348	H	0.362564	-0.531688	0.173414
H349	H	-0.743965	-1.567628	-0.291426
H350	H	-0.493965	-1.317628	-0.041426
H351	H	-0.243965	-1.067628	0.208574
H352	H	0.006035	-0.817628	0.458574
H353	H	-0.959837	-1.282075	-0.576717
H354	H	-0.709837	-1.032075	-0.326717
H355	H	-0.459837	-0.782075	-0.076717
H356	H	-0.209837	-0.532075	0.173283
