data_functionalizedCrystal
_audit_creation_method	'MofGen! by Chris Wilmer'
_symmetry_space_group_name_H-M	'P1'
_symmetry_Int_Tables_number	1
_symmetry_cell_setting	triclinic
loop_
_symmetry_equiv_pos_as_xyz
  x,y,z
_cell_length_a	10.540510
_cell_length_b	10.540539
_cell_length_c	9.730223
_cell_angle_alpha	89.997733
_cell_angle_beta	89.996468
_cell_angle_gamma	84.519401
loop_
_atom_site_label
_atom_site_type_symbol
_atom_site_fract_x
_atom_site_fract_y
_atom_site_fract_z
O1	O	1.685907	0.178720	-0.114291
O2	O	1.316489	0.195615	-0.114292
O3	O	1.509626	0.002460	-0.114290
O4	O	1.492770	0.371875	-0.114293
O5	O	1.509614	0.002455	0.114290
O6	O	1.316477	0.195610	0.114288
O7	O	1.685895	0.178715	0.114288
Zn8	Zn	1.501184	0.187161	0.150580
Zn9	Zn	1.501200	0.187169	-0.150584
O10	O	1.492758	0.371870	0.114287
C11	C	1.269179	0.194354	-0.000002
C12	C	1.128229	0.190587	-0.000002
C13	C	0.910774	0.324771	-0.000528
C14	C	1.057370	0.328789	-0.000005
C15	C	1.083462	0.119838	0.130526
C16	C	0.936701	0.116798	0.130627
C17	C	0.936910	0.113926	-0.129311
C18	C	1.083251	0.120482	-0.131028
C19	C	1.508356	-0.044845	-0.000002
C20	C	1.504574	-0.185793	-0.000010
C21	C	1.359655	-0.369204	-0.000523
C22	C	1.363489	-0.222587	-0.000008
C23	C	1.572463	-0.247461	0.130521
C24	C	1.567648	-0.394005	0.130631
C25	C	1.570532	-0.394517	-0.129307
C26	C	1.571831	-0.247536	-0.131033
C27	C	1.733204	0.179976	-0.000004
C28	C	1.874154	0.183743	-0.000013
C29	C	1.494028	0.419175	-0.000004
C30	C	1.497810	0.560123	-0.000005
N31	N	1.501182	0.187156	0.356117
N32	N	1.501212	0.187164	-0.356120
C33	C	1.586732	0.101663	0.428044
C34	C	1.586745	0.101664	0.571926
C35	C	1.415652	0.272661	0.571943
C36	C	1.415635	0.272653	0.428063
H37	H	0.913706	0.013432	0.136557
H38	H	0.894367	0.157511	-0.228245
H39	H	1.111874	0.171958	-0.227592
Br40	Br	1.266861	-0.420152	0.154143
H41	H	1.517464	-0.422201	0.228205
H42	H	1.525293	-0.204859	0.227657
Br43	Br	1.702829	-0.014371	0.330407
Br44	Br	1.299513	0.388677	0.330437
H45	H	1.656406	0.032047	0.630485
H46	H	1.303928	-0.397796	-0.094128
H47	H	1.310069	-0.179975	-0.093578
Br48	Br	1.273803	-0.152971	0.156202
Br49	Br	1.299560	0.388691	0.669589
H50	H	1.086721	0.384137	-0.093576
H51	H	0.868826	0.378615	-0.094138
Br52	Br	0.838248	0.414002	0.154599
Br53	Br	1.745154	-0.210229	0.138618
Br54	Br	0.869655	0.197381	0.293248
Br55	Br	1.162427	-0.049748	0.138617
Br56	Br	1.104715	0.421586	0.156214
Br57	Br	1.165023	-0.047697	-0.144165
Br58	Br	0.899998	-0.059019	-0.130776
Br59	Br	1.736758	-0.473981	0.140518
Br60	Br	1.134875	0.201718	0.292435
H61	H	1.524875	-0.426063	-0.228241
H62	H	1.522157	-0.206670	-0.227596
Br63	Br	1.743276	-0.207176	-0.144186
Br64	Br	1.740379	-0.473247	-0.130774
