data_functionalizedCrystal
_audit_creation_method	'MofGen! by Chris Wilmer'
_symmetry_space_group_name_H-M	'P1'
_symmetry_Int_Tables_number	1
_symmetry_cell_setting	triclinic
loop_
_symmetry_equiv_pos_as_xyz
  x,y,z
_cell_length_a	19.288856
_cell_length_b	9.730223
_cell_length_c	19.288865
_cell_angle_alpha	89.993453
_cell_angle_beta	83.134504
_cell_angle_gamma	89.997815
loop_
_atom_site_label
_atom_site_type_symbol
_atom_site_fract_x
_atom_site_fract_y
_atom_site_fract_z
O1	O	-0.921348	0.114368	-0.086616
O2	O	-0.719087	0.114359	-0.098311
O3	O	-0.826062	0.114337	0.008667
O4	O	-0.814373	0.114391	-0.193594
O5	O	-0.826060	-0.114243	0.008664
O6	O	-0.719085	-0.114221	-0.098314
O7	O	-0.921347	-0.114212	-0.086619
Zn8	Zn	-0.820216	-0.150508	-0.092467
Zn9	Zn	-0.820218	0.150656	-0.092464
O10	O	-0.814372	-0.114189	-0.193597
C11	C	-0.693209	0.000068	-0.097937
C12	C	-0.616105	0.000063	-0.096811
C13	C	-0.052064	0.000058	-0.151959
C14	C	-0.124511	0.000069	-0.153024
C15	C	-0.169218	0.000051	-0.090254
C16	C	-0.141472	0.000058	-0.026415
C17	C	-0.069027	0.000062	-0.025352
C18	C	-0.290488	-0.080044	-0.043441
C19	C	-0.362931	-0.080056	-0.044506
C20	C	-0.392664	0.000046	-0.093530
C21	C	-0.349942	0.080143	-0.141499
C22	C	-0.277496	0.080146	-0.140436
C23	C	-0.247773	0.000048	-0.091399
C24	C	-0.498955	0.000060	-0.158519
C25	C	-0.571404	0.000079	-0.159581
C26	C	-0.588364	0.000054	-0.032971
C27	C	-0.515917	0.000049	-0.031910
C28	C	-0.471217	0.000046	-0.094687
N29	N	-0.820220	-0.356044	-0.092469
C30	C	-0.867600	-0.427980	-0.045115
C31	C	-0.867599	-0.571863	-0.045107
C32	C	-0.772833	-0.571862	-0.139812
C33	C	-0.772832	-0.427981	-0.139817
C34	C	-0.914988	-0.356044	0.002233
C35	C	-0.962373	-0.427980	0.049590
C36	C	-0.962371	-0.571863	0.049599
C37	C	-0.914984	-0.643809	0.002250
C38	C	0.052776	0.000073	-0.086995
C39	C	-0.024327	0.000058	-0.088128
C40	C	-0.825685	0.000043	0.034542
C41	C	-0.824556	0.000031	0.111645
N42	N	-0.820219	0.356192	-0.092456
C43	C	-0.814748	0.000108	-0.219472
C44	C	-0.815877	0.000129	-0.296576
C45	C	-0.887324	0.000027	0.156343
C46	C	-0.886263	0.000048	0.228790
C47	C	-0.822431	0.000046	0.256536
C48	C	-0.759655	0.000058	0.211828
C49	C	-0.760717	0.000050	0.139383
C50	C	-0.772251	-0.080022	0.364821
C51	C	-0.771191	-0.080023	0.437265
C52	C	-0.819151	0.000077	0.479982
C53	C	-0.868183	0.080160	0.450246
C54	C	-0.869246	0.080152	0.377800
C55	C	-0.821272	0.000056	0.335090
C56	C	-0.880774	0.000099	0.603236
C57	C	-0.879710	0.000129	0.675684
C58	C	-0.753100	0.000125	0.658720
C59	C	-0.754165	0.000108	0.586273
C60	C	-0.818004	0.000089	0.558536
H61	H	-0.015673	0.000062	-0.203076
Br62	Br	-0.708528	-0.669502	-0.204068
H63	H	-0.242715	0.145366	-0.179493
H64	H	-1.000950	-0.369393	0.088144
Br65	Br	-0.704653	-0.188714	0.477614
H66	H	-0.939307	0.000015	0.133765
Br67	Br	-0.914996	-0.160775	0.002219
H68	H	-0.734250	-0.369410	-0.178376
Br69	Br	-0.967410	0.000058	0.565588
Br70	Br	-0.707156	-0.188740	0.306856
H71	H	-0.937378	0.000051	0.265191
H72	H	-0.909168	0.145361	0.353593
Br73	Br	-0.390281	0.188839	-0.208045
Br74	Br	-0.438287	0.000056	-0.243713
H75	H	-0.930826	0.000133	0.712077
Br76	Br	-0.933278	0.188874	0.508209
H77	H	-1.000949	-0.630432	0.088163
Br78	Br	-0.666468	0.000136	0.696366
Br79	Br	-0.250150	-0.188670	0.023137
H80	H	-0.593985	0.000091	-0.211562
H81	H	-0.624764	0.000051	0.018138
Br82	Br	-0.668975	0.000112	0.525607
Br83	Br	-0.673024	0.000073	0.249480
H84	H	-0.709602	0.000053	0.102988
H85	H	-0.147099	0.000056	-0.205004
H86	H	-0.046445	0.000061	0.026628
Br87	Br	-0.478270	0.000060	0.054722
H88	H	-0.397710	-0.145282	-0.005450
H89	H	-0.177877	0.000048	0.024693
Br90	Br	-0.914977	-0.839081	0.002272
