data_functionalizedCrystal
_audit_creation_method	'MofGen! by Chris Wilmer'
_symmetry_space_group_name_H-M	'P1'
_symmetry_Int_Tables_number	1
_symmetry_cell_setting	triclinic
loop_
_symmetry_equiv_pos_as_xyz
  x,y,z
_cell_length_a	14.853567
_cell_length_b	13.330367
_cell_length_c	19.288865
_cell_angle_alpha	90.009672
_cell_angle_beta	96.614411
_cell_angle_gamma	89.994774
loop_
_atom_site_label
_atom_site_type_symbol
_atom_site_fract_x
_atom_site_fract_y
_atom_site_fract_z
O1	O	1.195854	-0.083366	-0.090683
O2	O	0.933333	-0.083385	-0.101486
O3	O	1.072179	-0.083355	0.005020
O4	O	1.057008	-0.083396	-0.197189
O5	O	1.072157	0.083492	0.005022
O6	O	0.933311	0.083462	-0.101484
O7	O	1.195832	0.083481	-0.090682
Cu8	Cu	1.064570	0.098706	-0.096083
Cu9	Cu	1.064596	-0.098610	-0.096085
O10	O	1.056986	0.083451	-0.197188
C11	C	0.899736	0.000037	-0.100996
C12	C	0.799661	0.000030	-0.099529
N13	N	1.064558	0.237487	-0.096081
C14	C	0.387522	0.000067	-0.030061
C15	C	0.365522	0.000040	-0.156593
C16	C	0.459547	0.000037	-0.157972
C17	C	0.517565	0.000047	-0.095395
C18	C	0.481557	0.000060	-0.031439
C19	C	0.495563	0.000013	-0.221927
C20	C	0.589594	0.000008	-0.223309
C21	C	0.647614	0.000026	-0.160731
C22	C	0.611600	0.000040	-0.096772
C23	C	0.669618	0.000050	-0.034195
C24	C	0.633606	0.000072	0.029764
C25	C	0.539577	0.000077	0.031139
C26	C	0.741643	0.000020	-0.162106
C27	C	0.763653	0.000044	-0.035572
C28	C	1.003103	0.710097	-0.143230
C29	C	1.126095	0.710092	-0.048940
C30	C	1.126086	0.605073	-0.048937
C31	C	1.064586	0.552562	-0.096083
C32	C	1.003094	0.605069	-0.143230
C33	C	1.187582	0.552558	-0.001795
C34	C	1.187576	0.447533	-0.001791
C35	C	1.126071	0.395020	-0.048934
C36	C	1.064576	0.447534	-0.096083
C37	C	1.003076	0.395023	-0.143228
C38	C	0.941577	0.447534	-0.190374
C39	C	0.941589	0.552556	-0.190373
C40	C	1.126059	0.289999	-0.048936
C41	C	1.003067	0.289995	-0.143228
C42	C	1.229429	0.000057	-0.091172
C43	C	1.329504	0.000057	-0.092639
N44	N	1.064604	0.762608	-0.096085
C45	C	1.071680	0.000071	0.030899
C46	C	1.070215	0.000080	0.108008
C47	C	1.057485	0.000022	-0.223067
C48	C	1.058951	0.000007	-0.300175
C49	C	1.151683	0.000091	0.152429
C50	C	1.150307	0.000075	0.224881
C51	C	1.067457	0.000068	0.252908
C52	C	0.985977	0.000052	0.208477
C53	C	0.987356	0.000058	0.136027
C54	C	1.002319	0.058507	0.361416
C55	C	1.000944	0.058507	0.433865
C56	C	1.063200	0.000045	0.476368
C57	C	1.126847	-0.058403	0.446414
C58	C	1.128226	-0.058397	0.373964
C59	C	1.065952	0.000061	0.331467
C60	C	1.143181	0.000037	0.599350
C61	C	1.141801	0.000015	0.671803
C62	C	0.977470	0.000002	0.655397
C63	C	0.978852	0.000015	0.582946
C64	C	1.061710	0.000037	0.554927
H65	H	0.810886	0.000056	0.015386
O66	O	1.241047	0.000087	0.122206
H67	H	1.297467	0.000077	0.165272
O68	O	0.888110	0.000002	0.685620
H69	H	0.848985	-0.068007	0.667776
O70	O	1.192427	0.766720	0.001908
H71	H	1.182100	0.848571	-0.006011
O72	O	0.899484	0.000064	0.088108
H73	H	0.841639	0.000064	0.119765
H74	H	1.237658	0.595316	0.036586
O75	O	1.253893	0.390897	0.049063
H76	H	1.296653	0.445056	0.081849
H77	H	1.177542	-0.106009	0.481019
O78	O	0.500738	0.000096	0.100120
H79	H	0.425607	0.000087	0.090563
H80	H	0.318279	0.000024	-0.207540
H81	H	0.680856	0.000073	0.080715
O82	O	1.192360	0.233366	0.001928
H83	H	1.182016	0.151515	-0.005986
H84	H	1.216650	0.000079	0.261055
H85	H	0.448319	-0.000005	-0.272874
H86	H	1.210650	0.000051	0.576536
H87	H	0.358197	0.000088	0.022013
H88	H	0.891519	0.595318	-0.228758
H89	H	0.949115	0.106093	0.458247
H90	H	0.952982	0.247246	-0.181618
O91	O	0.875229	0.390896	-0.241213
H92	H	0.885554	0.309047	-0.233284
H93	H	1.180048	-0.105990	0.349579
O94	O	1.229675	0.000035	0.719721
H95	H	1.287518	0.000064	0.688062
H96	H	0.912511	0.000012	0.546777
H97	H	0.618906	-0.000009	-0.275389
H98	H	0.770960	0.000004	-0.214181
H99	H	0.953029	0.752855	-0.181614
O100	O	0.935172	0.121570	0.315574
H101	H	0.890695	0.162224	0.348574
H102	H	0.918520	0.000044	0.231301
