data_functionalizedCrystal
_audit_creation_method	'MofGen! by Chris Wilmer'
_symmetry_space_group_name_H-M	'P1'
_symmetry_Int_Tables_number	1
_symmetry_cell_setting	triclinic
loop_
_symmetry_equiv_pos_as_xyz
  x,y,z
_cell_length_a	15.698487
_cell_length_b	12.970454
_cell_length_c	15.698487
_cell_angle_alpha	120.000415
_cell_angle_beta	89.999091
_cell_angle_gamma	60.000777
loop_
_atom_site_label
_atom_site_type_symbol
_atom_site_fract_x
_atom_site_fract_y
_atom_site_fract_z
Zr1	Zr	0.820607	1.128548	0.111806
O2	O	0.684588	1.343639	0.247823
O3	O	0.862304	0.913457	0.070109
O4	O	0.862299	1.128553	0.247825
O5	O	0.684598	1.128539	-0.070077
O6	O	1.002480	1.128557	0.247827
O7	O	0.684594	1.128543	0.070108
O8	O	1.002490	0.743790	-0.070074
O9	O	0.684588	1.513306	0.247824
O10	O	0.984703	1.001930	0.052328
O11	O	0.880091	1.001924	-0.052291
O12	O	0.880084	1.255172	0.156946
O13	O	0.775472	1.255166	0.052326
Zr14	Zr	1.044187	1.128548	-0.111768
Zr15	Zr	1.044180	1.128555	0.111810
Zr16	Zr	0.820614	1.128542	-0.111772
Zr17	Zr	0.820607	1.399148	0.111808
Zr18	Zr	1.044187	0.857948	-0.111769
O19	O	1.002490	1.343639	-0.070071
O20	O	1.002480	1.343648	0.247828
O21	O	0.684598	1.343630	-0.070076
O22	O	1.180206	0.913457	-0.247785
O23	O	1.180196	0.913466	0.070114
O24	O	0.862314	0.913448	-0.247790
O25	O	1.180196	1.128557	0.070115
O26	O	1.002495	1.128543	-0.247787
O27	O	0.862314	1.128539	-0.247789
O28	O	1.180200	1.128553	-0.070069
O29	O	0.862299	1.513311	0.247827
O30	O	1.002495	0.743785	-0.247788
O31	O	1.180206	0.743790	-0.247786
O32	O	1.180200	0.743795	-0.070071
O33	O	0.684594	1.513301	0.070109
O34	O	0.862304	1.513306	0.070112
O35	O	0.984710	1.001924	-0.156908
O36	O	1.089322	1.001930	-0.052288
O37	O	0.984703	1.255172	0.052330
O38	O	0.880091	1.255166	-0.052290
C39	C	0.932397	0.790069	0.000018
C40	C	0.932397	0.675192	0.000017
C41	C	0.652742	1.128540	0.000015
C42	C	0.557829	1.128537	0.000013
C43	C	0.384044	1.128563	0.000023
C44	C	0.480748	1.128554	0.000020
C45	C	1.212052	1.128556	0.000023
C46	C	1.306965	1.128559	0.000025
C47	C	0.932388	1.128556	0.279681
C48	C	0.932385	1.128559	0.374596
C49	C	0.932397	1.467027	0.000021
C50	C	0.932397	1.581904	0.000021
C51	C	0.932409	1.128533	0.548360
C52	C	0.932398	1.128542	0.451663
C53	C	0.932406	1.128540	0.720357
C54	C	0.932410	1.128537	0.625442
C55	C	1.212052	0.790077	0.000022
C56	C	1.306965	0.675203	0.000023
C57	C	0.932406	0.790061	-0.279644
C58	C	0.932409	0.675181	-0.374560
C59	C	1.212061	0.790069	-0.279640
C60	C	1.306976	0.675192	-0.374554
C61	C	0.652733	1.467027	0.279678
C62	C	0.557817	1.581904	0.374592
C63	C	0.652742	1.467019	0.000016
C64	C	0.557829	1.581893	0.000015
C65	C	0.932388	1.467035	0.279683
C66	C	0.932385	1.581915	0.374598
C67	C	1.296927	0.621257	0.054642
C68	C	1.386098	0.513335	0.054663
C69	C	1.485307	0.459355	0.000060
C70	C	1.495343	0.513312	-0.054560
C71	C	1.406172	0.621238	-0.054575
C72	C	0.987020	0.621233	-0.473751
C73	C	0.987019	0.513306	-0.562942
C74	C	0.932412	0.459323	-0.552940
C75	C	0.877794	0.513282	-0.453739
C76	C	0.877789	0.621214	-0.364549
C77	C	1.406166	0.621248	-0.364516
C78	C	1.495357	0.513324	-0.453689
C79	C	1.485357	0.459339	-0.552899
C80	C	1.386158	0.513294	-0.562935
C81	C	1.296968	0.621223	-0.473763
C82	C	0.458628	1.635861	0.364554
C83	C	0.369437	1.743819	0.453727
C84	C	0.379436	1.797810	0.552937
C85	C	0.478636	1.743848	0.562973
C86	C	0.567825	1.635900	0.473801
C87	C	0.567867	1.635850	-0.054594
C88	C	0.478695	1.743802	-0.054591
C89	C	0.379487	1.797786	0.000015
C90	C	0.369451	1.743824	0.054631
C91	C	0.458621	1.635883	0.054634
C92	C	0.987003	1.635864	0.364562
C93	C	0.987021	1.743791	0.453737
C94	C	0.932414	1.797775	0.552946
C95	C	0.877794	1.743815	0.562979
C96	C	0.877784	1.635882	0.473806
H97	H	1.377906	0.469417	0.099141
N98	N	1.045947	0.455114	-0.669925
H99	H	1.100900	0.346764	-0.709363
H100	H	0.995806	0.474006	-0.709286
N101	N	0.283228	1.914226	0.649104
H102	H	0.283175	1.876666	0.692029
H103	H	0.283225	2.003766	0.691956
H104	H	0.486887	1.787719	-0.099070
N105	N	0.447782	1.577672	0.113519
H106	H	0.519319	1.501094	0.105240
H107	H	0.408341	1.660107	0.189889
N108	N	0.932423	0.342908	-0.649142
H109	H	0.975311	0.316927	-0.713494
H110	H	0.963482	0.253413	-0.649097
N111	N	1.045918	1.801993	0.442897
H112	H	1.037649	1.878556	0.514436
H113	H	1.122285	1.719552	0.403445
N114	N	0.489414	1.802086	0.669981
H115	H	0.417856	1.878651	0.724939
H116	H	0.528836	1.719661	0.678251
H117	H	0.306886	1.885679	0.000005
H118	H	0.288673	1.787736	0.445535
N119	N	1.416971	0.679474	-0.257520
H120	H	1.345425	0.756036	-0.202542
H121	H	1.456414	0.597043	-0.249257
N122	N	1.045911	0.679454	-0.484559
H123	H	1.037630	0.756018	-0.413013
H124	H	1.122280	0.597022	-0.524003
N125	N	0.818905	0.455043	-0.442959
H126	H	0.827208	0.378477	-0.514516
H127	H	0.847589	0.410326	-0.403534
H128	H	1.031470	1.591927	0.283789
N129	N	0.818821	0.679472	-0.257566
H130	H	0.784213	0.628912	-0.264773
H131	H	0.868908	0.660734	-0.218127
N132	N	1.375377	0.455048	-0.669941
H133	H	1.335985	0.537379	-0.678317
H134	H	1.446968	0.378465	-0.724835
H135	H	0.648640	1.591904	-0.099068
N136	N	0.932442	1.914174	0.649121
H137	H	0.975332	1.940150	0.627700
H138	H	0.858458	2.003676	0.692016
N139	N	0.262443	1.802035	0.113505
H140	H	0.222996	1.910388	0.168455
H141	H	0.223122	1.783133	0.063319
H142	H	0.833335	1.787785	0.643767
H143	H	0.833303	1.591969	0.481991
H144	H	1.576122	0.469405	-0.445499
N145	N	1.581553	0.342920	-0.649079
H146	H	1.624475	0.380491	-0.649114
H147	H	1.624389	0.253405	-0.649052
N148	N	1.189930	0.679463	0.113537
H149	H	1.197118	0.628903	0.148140
H150	H	1.150549	0.787817	0.168434
N151	N	0.447823	1.577662	0.257558
H152	H	0.519369	1.501087	0.202580
H153	H	0.408378	1.532972	0.249297
N154	N	1.581480	0.342950	0.000083
H155	H	1.560057	0.316972	0.042970
H156	H	1.624369	0.253451	-0.073905
H157	H	1.576131	0.469345	-0.099016
N158	N	1.189984	0.679381	-0.484591
H159	H	1.150528	0.787732	-0.450030
H160	H	1.197276	0.628691	-0.560991
N161	N	1.417007	0.679413	-0.113493
H162	H	1.493388	0.628829	-0.148080
H163	H	1.382398	0.660610	-0.168404
N164	N	0.674807	1.577702	0.484635
H165	H	0.667598	1.628290	0.561017
H166	H	0.714182	1.469354	0.450025
