data_functionalizedCrystal
_audit_creation_method	'MofGen! by Chris Wilmer'
_symmetry_space_group_name_H-M	'P1'
_symmetry_Int_Tables_number	1
_symmetry_cell_setting	triclinic
loop_
_symmetry_equiv_pos_as_xyz
  x,y,z
_cell_length_a	6.817900
_cell_length_b	16.306198
_cell_length_c	16.255661
_cell_angle_alpha	95.358115
_cell_angle_beta	103.488922
_cell_angle_gamma	103.467075
loop_
_atom_site_label
_atom_site_type_symbol
_atom_site_fract_x
_atom_site_fract_y
_atom_site_fract_z
V1	V	-4.026607	-0.117401	-0.264172
O2	O	-4.014195	0.004940	-0.258835
O3	O	-3.978057	-0.232112	-0.262662
O4	O	-3.978170	-0.115903	-0.379252
O5	O	-4.014080	-0.112073	-0.141438
V6	V	-4.510259	-0.102731	-0.249456
O7	O	-4.287582	-0.149580	-0.296453
O8	O	-4.699482	-0.070552	-0.217176
O9	O	-4.335603	0.011980	-0.250967
O10	O	-4.640069	-0.225073	-0.254793
O11	O	-4.640183	-0.108059	-0.372190
O12	O	-4.335490	-0.104229	-0.134377
C13	C	-3.823022	-0.260067	-0.258571
C14	C	-3.864613	-0.353846	-0.258103
C15	C	-4.015564	-0.694593	-0.256392
C16	C	-4.219655	-0.664059	-0.261369
C17	C	-4.176720	-0.566570	-0.262183
C18	C	-3.940676	-0.525545	-0.257240
C19	C	-3.889203	-0.571192	-0.335744
C20	C	-3.933898	-0.668809	-0.335355
C21	C	-3.845531	-0.643261	-0.173498
C22	C	-3.805855	-0.545609	-0.173011
C23	C	-3.898343	-0.430006	-0.257722
C24	C	-4.057894	-0.790133	-0.255915
C25	C	-3.823166	-0.111829	-0.407292
C26	C	-3.864846	-0.111363	-0.501372
C27	C	-3.775408	-0.105798	-0.724176
C28	C	-3.931760	-0.177626	-0.793836
C29	C	-3.941232	-0.110490	-0.673618
C30	C	-3.859171	-0.037839	-0.771593
C31	C	-4.015000	-0.109642	-0.839999
C32	C	-4.097065	-0.182382	-0.742049
C33	C	-4.024415	-0.042532	-0.719789
C34	C	-4.180903	-0.114380	-0.789430
C35	C	-3.898730	-0.110979	-0.577770
C36	C	-4.057519	-0.109159	-0.935847
C37	C	-4.153980	0.039930	-0.255055
C38	C	-4.091627	0.133709	-0.255529
C39	C	-4.153836	-0.108306	-0.106332
C40	C	-4.091394	-0.108768	-0.012251
H41	H	-4.282904	-0.554483	-0.322634
N42	N	-4.091854	-0.714103	-0.418019
H43	H	-4.131853	-0.670593	-0.454368
H44	H	-4.220363	-0.749377	-0.404855
N45	N	-3.575394	-0.507237	-0.161688
H46	H	-3.500961	-0.554096	-0.159904
H47	H	-3.516006	-0.465730	-0.106347
N48	N	-4.236266	-0.525353	-0.187873
H49	H	-4.110154	-0.481103	-0.149997
H50	H	-4.288001	-0.570376	-0.153653
N51	N	-4.016929	-0.553866	-0.418320
H52	H	-3.920287	-0.523872	-0.451118
H53	H	-4.108200	-0.516509	-0.404995
H54	H	-4.352772	-0.118028	-0.817786
H55	H	-3.693350	-0.662418	-0.169065
N56	N	-3.547904	-0.101104	-0.686435
H57	H	-3.512837	-0.152198	-0.713635
H58	H	-3.520993	-0.100890	-0.622620
H59	H	-3.758991	0.023231	-0.785046
H60	H	-3.893036	-0.234742	-0.826069
N61	N	-3.736430	-0.695804	-0.335112
H62	H	-3.620763	-0.644297	-0.335262
H63	H	-3.762197	-0.739039	-0.387768
H64	H	-4.063060	0.014587	-0.687534
N65	N	-4.307844	-0.685652	-0.186715
H66	H	-4.216368	-0.715442	-0.148943
H67	H	-4.454040	-0.724485	-0.208816
N68	N	-4.387706	-0.711340	-0.340580
H69	H	-4.332210	-0.752453	-0.373254
H70	H	-4.430375	-0.669093	-0.378089
H71	H	-4.197227	-0.243535	-0.728739
H72	H	-3.718604	-0.544638	-0.335114
H73	H	-3.894943	-0.659821	-0.113449
H74	H	-3.844125	-0.514865	-0.114892
