data_functionalizedCrystal
_audit_creation_method	'MofGen! by Chris Wilmer'
_symmetry_space_group_name_H-M	'P1'
_symmetry_Int_Tables_number	1
_symmetry_cell_setting	triclinic
loop_
_symmetry_equiv_pos_as_xyz
  x,y,z
_cell_length_a	12.811457
_cell_length_b	17.019294
_cell_length_c	11.295483
_cell_angle_alpha	90.223525
_cell_angle_beta	91.289320
_cell_angle_gamma	84.088711
loop_
_atom_site_label
_atom_site_type_symbol
_atom_site_fract_x
_atom_site_fract_y
_atom_site_fract_z
O1	O	1.389645	0.108374	0.039936
O2	O	1.086459	0.118127	0.006192
O3	O	1.245681	-0.000885	0.035597
O4	O	1.230423	0.227386	0.010530
O5	O	1.231696	0.009552	0.231067
O6	O	1.072474	0.128564	0.201661
O7	O	1.375660	0.118811	0.235405
Cu8	Cu	1.222790	0.124640	0.236381
Cu9	Cu	1.239329	0.112298	0.005216
O10	O	1.216438	0.237823	0.206000
C11	C	1.040657	0.122479	0.099824
C12	C	0.925017	0.119888	0.087600
C13	C	0.692470	0.126385	0.277758
C14	C	0.583816	0.123950	0.266279
C15	C	0.599053	0.112580	0.053165
C16	C	0.707707	0.115014	0.064644
C17	C	0.754411	0.121918	0.176944
C18	C	0.863067	0.124358	0.188421
C19	C	0.878303	0.112982	-0.024691
C20	C	0.769648	0.110548	-0.036170
C21	C	1.237834	-0.024902	0.136236
C22	C	1.235276	-0.112017	0.144890
C23	C	1.241700	-0.158628	0.042405
C24	C	1.239290	-0.240481	0.050539
C25	C	1.230463	-0.275721	0.161159
C26	C	1.224036	-0.229104	0.263650
C27	C	1.226439	-0.147252	0.255515
C28	C	1.222819	-0.522576	0.191053
C29	C	1.220419	-0.604434	0.199181
C30	C	1.235672	-0.615805	-0.013931
C31	C	1.238080	-0.533952	-0.022056
C32	C	1.231647	-0.487341	0.080434
C33	C	1.228002	-0.359388	0.169476
C34	C	1.234101	-0.403675	0.072116
C35	C	1.421462	0.114459	0.141771
C36	C	1.537103	0.117049	0.153986
C37	C	1.224285	0.261841	0.105358
C38	C	1.226843	0.348955	0.096697
N39	N	1.211165	0.133321	0.398972
N40	N	1.250962	0.103611	-0.157373
C41	C	1.334644	0.041078	0.671060
C42	C	1.325867	0.047644	0.794102
C43	C	1.184828	0.153014	0.768100
C44	C	1.193606	0.146448	0.645058
C45	C	1.268517	0.090479	0.596543
C46	C	1.277299	0.083918	0.473498
C47	C	1.136256	0.189284	0.447499
C48	C	1.127478	0.195850	0.570541
H49	H	0.730495	0.132016	0.369196
N50	N	1.353763	0.026701	0.423955
N51	N	1.412755	-0.017434	0.490507
H52	H	1.466735	-0.057865	0.455521
N53	N	1.211377	-0.640421	0.312187
N54	N	1.133195	-0.620907	0.374014
H55	H	1.126806	-0.646324	0.453820
H56	H	1.240907	-0.653764	-0.097373
N57	N	1.411073	-0.016164	0.621511
N58	N	1.470048	-0.060316	0.688057
H59	H	1.523989	-0.100774	0.653066
H60	H	0.928747	0.109349	-0.106781
N61	N	1.216250	-0.474983	0.295753
N62	N	1.208375	-0.506461	0.394511
H63	H	1.203738	-0.472847	0.468462
N64	N	1.215008	-0.265110	0.376636
N65	N	1.212864	-0.338192	0.383888
H66	H	1.206489	-0.363621	0.463686
N67	N	1.393417	-0.002828	0.870203
N68	N	1.460290	-0.052797	0.826864
H69	H	1.508000	-0.088447	0.880610
H70	H	1.123830	0.198578	0.807618
H71	H	1.244525	-0.278429	-0.032914
H72	H	1.082414	0.229512	0.386812
N73	N	0.910758	0.131425	0.303134
N74	N	0.855434	0.135419	0.393135
H75	H	0.889112	0.140413	0.474155
N76	N	0.520560	0.128508	0.369270
N77	N	0.562279	0.134668	0.469526
H78	H	0.517605	0.137886	0.542269
H79	H	1.245270	-0.505265	-0.112134
N80	N	1.218978	-0.395377	0.282475
N81	N	1.140806	-0.375859	0.344319
H82	H	1.134427	-0.401278	0.424124
N83	N	0.551320	0.105517	-0.061527
N84	N	0.454308	0.103338	-0.071752
H85	H	0.420594	0.098349	-0.152754
N86	N	0.721938	0.103481	-0.150872
N87	N	0.672295	0.045669	-0.174395
H88	H	0.638600	0.040678	-0.255407
N89	N	1.250731	-0.122649	-0.070600
N90	N	1.256466	-0.164279	-0.162093
H91	H	1.262843	-0.138872	-0.241908
H92	H	1.221193	-0.109300	0.338967
H93	H	1.066484	0.241417	0.610056
H94	H	1.241280	-0.374978	-0.017951
