data_functionalizedCrystal
_audit_creation_method	'MofGen! by Chris Wilmer'
_symmetry_space_group_name_H-M	'P1'
_symmetry_Int_Tables_number	1
_symmetry_cell_setting	triclinic
loop_
_symmetry_equiv_pos_as_xyz
  x,y,z
_cell_length_a	14.044191
_cell_length_b	12.503572
_cell_length_c	10.654550
_cell_angle_alpha	86.441476
_cell_angle_beta	88.838340
_cell_angle_gamma	93.837835
loop_
_atom_site_label
_atom_site_type_symbol
_atom_site_fract_x
_atom_site_fract_y
_atom_site_fract_z
O1	O	1.265119	0.089263	0.296375
O2	O	1.765119	0.589263	0.796375
O3	O	0.989079	0.089277	0.285432
O4	O	1.489079	0.589277	0.785432
O5	O	1.133445	0.089266	0.108802
O6	O	1.633445	0.589266	0.608802
O7	O	1.120752	0.089274	0.473004
O8	O	1.620752	0.589274	0.973004
O9	O	1.122588	-0.089375	0.122110
O10	O	1.622588	0.410625	0.622110
O11	O	0.978221	-0.089364	0.298739
O12	O	1.478221	0.410636	0.798739
O13	O	1.254262	-0.089378	0.309683
O14	O	1.754262	0.410622	0.809683
Cu15	Cu	1.115250	-0.105682	0.305426
Cu16	Cu	1.615250	0.394318	0.805426
Cu17	Cu	1.128090	0.105581	0.289688
Cu18	Cu	1.628090	0.605581	0.789688
O19	O	1.109895	-0.089367	0.486312
O20	O	1.609895	0.410633	0.986312
C21	C	0.948304	-0.000042	0.287298
C22	C	1.448304	0.499958	0.787298
C23	C	0.842985	-0.000037	0.273019
C24	C	1.342985	0.499963	0.773019
C25	C	0.593192	-0.000046	0.348185
C26	C	1.093192	0.499954	0.848185
C27	C	0.650155	-0.000046	0.246934
C28	C	1.150155	0.499954	0.746934
C29	C	0.757455	-0.000041	0.261451
C30	C	1.257455	0.499959	0.761451
C31	C	0.485882	-0.000051	0.333670
C32	C	0.985882	0.499949	0.833670
N33	N	1.106227	-0.254274	0.316495
N34	N	1.606227	0.245726	0.816495
C35	C	1.092952	-0.473388	0.332789
C36	C	1.592952	0.026612	0.832789
C37	C	1.150393	-0.526720	0.262320
C38	C	1.650393	-0.026720	0.762320
C39	C	1.143007	-0.648642	0.271386
C40	C	1.643007	-0.148642	0.771386
C41	C	1.100337	-0.351455	0.323724
C42	C	1.600337	0.148545	0.823724
C43	C	1.295037	-0.000057	0.307816
C44	C	1.795037	0.499943	0.807816
C45	C	1.400357	-0.000055	0.322095
C46	C	1.900357	0.499945	0.822095
C47	C	1.127085	-0.000053	0.068564
C48	C	1.627085	0.499947	0.568564
C49	C	1.124297	-0.000050	-0.071159
C50	C	1.624297	0.499950	0.428841
N51	N	1.137122	0.254173	0.278610
N52	N	1.637122	0.754173	0.778610
C53	C	1.209297	-0.000057	-0.142100
C54	C	1.709297	0.499943	0.357900
C55	C	1.206672	-0.000049	-0.273385
C56	C	1.706672	0.499951	0.226615
C57	C	1.034037	-0.000031	-0.262777
C58	C	1.534037	0.499969	0.237223
C59	C	1.036664	-0.000031	-0.131495
C60	C	1.536664	0.499969	0.368505
C61	C	1.308967	-0.000072	-0.148225
C62	C	1.808967	0.499928	0.351775
C63	C	1.306341	-0.000065	-0.279511
C64	C	1.806341	0.499935	0.220489
C65	C	1.116256	-0.000045	0.526550
C66	C	1.616256	0.499955	1.026550
C67	C	1.119045	-0.000042	0.666273
C68	C	1.619045	0.499958	1.166273
H69	H	1.038233	-0.519291	0.399924
H70	H	1.538233	-0.019291	0.899924
H71	H	0.962690	-0.000016	-0.311918
H72	H	1.462690	0.499984	0.188082
H73	H	0.618343	0.000027	0.149343
H74	H	1.118343	0.500027	0.649343
H75	H	0.967449	-0.000010	-0.073741
H76	H	1.467449	0.499990	0.426259
H77	H	1.205117	-0.480811	0.195182
H78	H	1.705117	0.019189	0.695182
H79	H	0.625007	-0.000040	0.445762
H80	H	1.125007	0.499960	0.945762
N81	N	1.366623	0.098940	-0.111506
N82	N	1.866623	0.598940	0.388494
H83	H	1.390452	0.143131	-0.189813
H84	H	1.890452	0.643131	0.310187
H85	H	1.325152	0.143052	-0.059361
H86	H	1.825152	0.643052	0.440639
N87	N	1.344780	-0.102229	-0.089125
N88	N	1.844780	0.397771	0.410875
H89	H	1.293931	-0.139023	-0.030014
H90	H	1.793931	0.360977	0.469986
H91	H	1.360177	-0.151550	-0.157191
H92	H	1.860177	0.348450	0.342809
N93	N	1.350017	-0.099119	-0.322455
N94	N	1.850017	0.400881	0.177545
H95	H	1.348133	-0.099158	-0.417164
H96	H	1.848133	0.400842	0.082836
H97	H	1.418425	-0.099148	-0.294996
H98	H	1.918425	0.400852	0.205004
N99	N	1.352471	0.102089	-0.343575
N100	N	1.852471	0.602089	0.156425
H101	H	1.317919	0.165489	-0.316676
H102	H	1.817919	0.665489	0.183324
H103	H	1.421537	0.110746	-0.319142
H104	H	1.921537	0.610746	0.180858
