data_functionalizedCrystal
_audit_creation_method	'MofGen! by Chris Wilmer'
_symmetry_space_group_name_H-M	'P1'
_symmetry_Int_Tables_number	1
_symmetry_cell_setting	triclinic
loop_
_symmetry_equiv_pos_as_xyz
  x,y,z
_cell_length_a	15.995350
_cell_length_b	18.366186
_cell_length_c	19.288865
_cell_angle_alpha	89.988521
_cell_angle_beta	83.314311
_cell_angle_gamma	89.994601
loop_
_atom_site_label
_atom_site_type_symbol
_atom_site_fract_x
_atom_site_fract_y
_atom_site_fract_z
O1	O	1.110653	-0.060497	0.089532
O2	O	1.610653	0.439503	0.589532
O3	O	0.866836	-0.060513	0.100587
O4	O	1.366836	0.439487	0.600587
O5	O	0.995790	-0.060490	-0.006052
O6	O	1.495790	0.439510	0.493948
O7	O	0.981700	-0.060519	0.196172
O8	O	1.481700	0.439481	0.696172
O9	O	0.995768	0.060610	-0.006058
O10	O	1.495768	0.560610	0.493942
O11	O	0.866814	0.060587	0.100582
O12	O	1.366814	0.560587	0.600582
O13	O	1.110631	0.060603	0.089526
O14	O	1.610631	0.560603	0.589526
Zn15	Zn	0.988719	0.079822	0.095053
Zn16	Zn	1.488719	0.579822	0.595053
Zn17	Zn	0.988748	-0.079732	0.095060
Zn18	Zn	1.488748	0.420268	0.595060
O19	O	0.981678	0.060580	0.196166
O20	O	1.481678	0.560580	0.696166
C21	C	0.835632	0.000035	0.100128
C22	C	1.335632	0.500035	0.600128
C23	C	0.742687	0.000030	0.098757
C24	C	1.242687	0.500030	0.598757
N25	N	0.988706	0.188713	0.095048
N26	N	1.488706	0.688713	0.595048
N27	N	0.988768	-0.188623	0.095060
N28	N	1.488768	0.311377	0.595060
C29	C	0.404958	0.000046	0.093836
C30	C	0.904958	0.500046	0.593836
C31	C	0.452679	0.000327	0.017889
C32	C	0.952679	0.500327	0.517889
C33	C	0.549364	0.000049	0.019260
C34	C	1.049364	0.500049	0.519260
C35	C	0.572509	0.000038	0.096277
C36	C	1.072509	0.500038	0.596277
C37	C	0.531294	-0.069118	0.133740
C38	C	1.031294	0.430882	0.633740
C39	C	0.434665	-0.069171	0.131832
C40	C	0.934665	0.430829	0.631832
C41	C	0.434295	0.068542	0.133395
C42	C	0.934295	0.568542	0.633395
C43	C	0.531241	0.069451	0.133377
C44	C	1.031241	0.569451	0.633377
C45	C	0.667202	0.000032	0.097661
C46	C	1.167202	0.500032	0.597661
C47	C	0.310266	0.000047	0.092455
C48	C	0.810266	0.500047	0.592455
C49	C	1.141835	0.000053	0.089986
C50	C	1.641835	0.500053	0.589986
C51	C	1.234781	0.000054	0.091356
C52	C	1.734781	0.500054	0.591356
C53	C	0.995326	0.000062	-0.031933
C54	C	1.495326	0.500062	0.468067
C55	C	0.993965	0.000068	-0.109040
C56	C	1.493965	0.500068	0.390960
C57	C	1.045825	0.226824	0.047851
C58	C	1.545825	0.726824	0.547851
C59	C	1.045830	0.303051	0.047848
C60	C	1.545830	0.803051	0.547848
C61	C	0.988724	0.341166	0.095054
C62	C	1.488724	0.841166	0.595054
C63	C	0.931594	0.303046	0.142255
C64	C	1.431594	0.803046	0.642255
C65	C	0.931585	0.226820	0.142252
C66	C	1.431585	0.726820	0.642252
C67	C	0.977516	0.461916	0.158313
C68	C	1.477516	0.961916	0.658313
C69	C	0.977531	0.538141	0.158317
C70	C	1.477531	1.038141	0.658317
C71	C	0.988748	0.576273	0.095063
C72	C	1.488748	1.076273	0.595063
C73	C	0.999968	0.538171	0.031802
C74	C	1.499968	1.038171	0.531802
C75	C	0.999959	0.461945	0.031800
C76	C	1.499959	0.961945	0.531800
C77	C	0.988728	0.423821	0.095062
C78	C	1.488728	0.923821	0.595062
C79	C	1.045876	0.697039	0.047859
C80	C	1.545876	1.197039	0.547859
C81	C	1.045876	0.773268	0.047855
C82	C	1.545876	1.273268	0.547855
C83	C	0.931644	0.773261	0.142267
C84	C	1.431644	1.273261	0.642267
C85	C	0.931640	0.697033	0.142265
C86	C	1.431640	1.197033	0.642265
C87	C	0.988761	0.658927	0.095062
C88	C	1.488761	1.158927	0.595062
C89	C	1.069629	0.000077	-0.153540
C90	C	1.569629	0.500077	0.346460
C91	C	1.068350	0.000065	-0.225990
C92	C	1.568350	0.500065	0.274010
C93	C	0.991403	0.000060	-0.253937
C94	C	1.491403	0.500060	0.246063
C95	C	0.915729	0.000047	-0.209428
C96	C	1.415729	0.500047	0.290572
C97	C	0.917010	0.000052	-0.136979
C98	C	1.417010	0.500052	0.363021
C99	C	0.930906	0.042474	-0.362384
C100	C	1.430906	0.542474	0.137616
C101	C	0.929628	0.042475	-0.434831
C102	C	1.429628	0.542475	0.065169
C103	C	0.987450	0.000043	-0.477393
C104	C	1.487450	0.500043	0.022607
C105	C	1.046563	-0.042379	-0.447500
C106	C	1.546563	0.457621	0.052500
C107	C	1.047843	-0.042374	-0.375051
C108	C	1.547843	0.457626	0.124949
C109	C	0.990006	0.000055	-0.332495
C110	C	1.490006	0.500055	0.167505
C111	C	1.061733	0.000038	-0.600453
C112	C	1.561733	0.500038	-0.100453
C113	C	1.060451	0.000022	-0.672904
C114	C	1.560451	0.500022	-0.172904
C115	C	0.907827	0.000011	-0.656340
C116	C	1.407827	0.500011	-0.156340
C117	C	0.909111	0.000020	-0.583890
C118	C	1.409111	0.500020	-0.083890
C119	C	0.986066	0.000037	-0.555951
C120	C	1.486066	0.500037	-0.055951
C121	C	0.982142	0.000027	0.222047
C122	C	1.482142	0.500027	0.722047
C123	C	0.983503	0.000015	0.299154
C124	C	1.483503	0.500015	0.799154
H125	H	0.577895	0.049623	-0.010187
H126	H	1.077895	0.549623	0.489813
C127	C	0.550092	-0.072608	0.210180
C128	C	1.050092	0.427392	0.710180
N129	N	0.564253	-0.075235	0.267755
N130	N	1.064253	0.424765	0.767755
C131	C	0.406675	0.139357	0.099844
C132	C	0.906675	0.639357	0.599844
N133	N	0.385874	0.192692	0.074566
N134	N	0.885874	0.692692	0.574566
C135	C	0.868783	0.184897	0.194205
C136	C	1.368783	0.684897	0.694205
N137	N	0.821493	0.153319	0.233348
N138	N	1.321493	0.653319	0.733348
C139	C	0.587165	-0.067032	-0.020782
C140	C	1.087165	0.432968	0.479218
N141	N	0.615636	-0.117560	-0.050943
N142	N	1.115636	0.382440	0.449057
C143	C	1.108701	0.815189	-0.004080
C144	C	1.608701	1.315189	0.495920
N145	N	1.156018	0.846765	-0.043202
N146	N	1.656018	1.346765	0.456798
H147	H	0.968400	0.569158	0.209827
H148	H	1.468400	1.069158	0.709827
C149	C	1.012306	0.580110	-0.037783
C150	C	1.512306	1.080110	0.462217
N151	N	1.021599	0.611702	-0.090192
N152	N	1.521599	1.111702	0.409808
H153	H	1.124394	0.000049	-0.577704
H154	H	1.624394	0.500049	-0.077704
H155	H	0.853078	0.000041	-0.232187
H156	H	1.353078	0.500041	0.267813
H157	H	0.968367	0.430876	0.209825
H158	H	1.468367	0.930876	0.709825
H159	H	0.885097	0.334083	0.180689
H160	H	1.385097	0.834083	0.680689
C161	C	0.868864	0.655110	0.194236
C162	C	1.368864	1.155110	0.694236
N163	N	0.821597	0.623534	0.233399
N164	N	1.321597	1.123534	0.733399
C165	C	1.154282	0.000089	-0.122811
C166	C	1.654282	0.500089	0.377189
N167	N	1.218043	0.000097	-0.099665
N168	N	1.718043	0.500097	0.400335
C169	C	0.833769	0.000044	-0.088027
C170	C	1.333769	0.500044	0.411973
N171	N	0.771072	0.000040	-0.051155
N172	N	1.271072	0.500040	0.448845
H173	H	1.122068	0.000025	-0.709136
H174	H	1.622068	0.500025	-0.209136
H175	H	0.546393	0.073620	0.189541
H176	H	1.046393	0.573620	0.689541
H177	H	1.129967	0.000069	-0.262229
H178	H	1.629967	0.500069	0.237771
H179	H	1.095974	-0.076917	-0.350715
H180	H	1.595974	0.423083	0.149285
H181	H	0.885144	0.804293	0.180700
H182	H	1.385144	1.304293	0.680700
C183	C	0.825874	0.000015	-0.534938
C184	C	1.325874	0.500015	-0.034938
N185	N	0.763175	0.000008	-0.498067
N186	N	1.263175	0.500008	0.001933
C187	C	1.012289	0.420035	-0.037785
C188	C	1.512289	0.920035	0.462215
N189	N	1.021572	0.388469	-0.090198
N190	N	1.521572	0.888469	0.409802
C191	C	0.427790	0.067326	-0.023127
C192	C	0.927790	0.567326	0.476873
N193	N	0.409037	0.117792	-0.054022
N194	N	0.909037	0.617792	0.445978
C195	C	1.110169	-0.089060	-0.494313
C196	C	1.610169	0.410940	0.005687
N197	N	1.158075	-0.124219	-0.529575
N198	N	1.658075	0.375781	-0.029575
C199	C	1.108702	0.655119	-0.004072
C200	C	1.608702	1.155119	0.495928
N201	N	1.156021	0.623547	-0.043188
N202	N	1.656021	1.123547	0.456812
H203	H	0.845176	0.000003	-0.679094
H204	H	1.345176	0.500003	-0.179094
C205	C	0.410082	-0.138995	0.094924
C206	C	0.910082	0.361005	0.594924
N207	N	0.391571	-0.191587	0.067120
N208	N	0.891571	0.308413	0.567120
C209	C	0.864604	0.089139	-0.467707
C210	C	1.364604	0.589139	0.032293
N211	N	0.815624	0.124287	-0.492467
N212	N	1.315624	0.624287	0.007533
H213	H	1.092345	0.334087	0.009413
H214	H	1.592345	0.834087	0.509413
H215	H	1.092334	0.195799	0.009414
H216	H	1.592334	0.695799	0.509414
C217	C	0.867297	0.089159	-0.315572
C218	C	1.367297	0.589159	0.184428
N219	N	0.819389	0.124321	-0.280315
N220	N	1.319389	0.624321	0.219685
H221	H	0.433208	-0.048986	-0.012327
H222	H	0.933208	0.451014	0.487673
H223	H	0.402207	-0.072317	0.187591
H224	H	0.902207	0.427683	0.687591
H225	H	0.559775	-0.120578	0.107724
H226	H	1.059775	0.379422	0.607724
H227	H	0.558651	0.120612	0.106030
H228	H	1.058651	0.620612	0.606030
H229	H	0.402323	0.069002	0.189390
H230	H	0.902323	0.569002	0.689390
