data_functionalizedCrystal
_audit_creation_method	'MofGen! by Chris Wilmer'
_symmetry_space_group_name_H-M	'P1'
_symmetry_Int_Tables_number	1
_symmetry_cell_setting	triclinic
loop_
_symmetry_equiv_pos_as_xyz
  x,y,z
_cell_length_a	12.594517
_cell_length_b	21.295417
_cell_length_c	12.594509
_cell_angle_alpha	90.035198
_cell_angle_beta	90.011478
_cell_angle_gamma	90.025589
loop_
_atom_site_label
_atom_site_type_symbol
_atom_site_fract_x
_atom_site_fract_y
_atom_site_fract_z
Zn1	Zn	1.627166	-0.250659	0.601529
Zn2	Zn	1.627014	-0.355938	0.423529
Zn3	Zn	1.449170	-0.250679	0.423588
Zn4	Zn	1.449110	-0.355887	0.601489
O5	O	1.538115	-0.303291	0.512534
O6	O	1.776092	-0.264638	0.577908
O7	O	1.603385	-0.342005	0.274591
O8	O	1.472870	-0.162587	0.447234
O9	O	1.775980	-0.341986	0.447132
O10	O	1.603643	-0.162573	0.577966
O11	O	1.472723	-0.264672	0.274634
O12	O	1.300216	-0.264622	0.447196
O13	O	1.472767	-0.341899	0.750440
O14	O	1.300172	-0.341918	0.577899
O15	O	1.603585	-0.264589	0.750469
O16	O	1.603326	-0.444021	0.447094
O17	O	1.472620	-0.443983	0.577841
C18	C	1.261574	-0.303267	0.512550
C19	C	1.143269	-0.303272	0.512582
C20	C	1.074022	-0.345396	0.583534
C21	C	1.003237	-0.288001	0.609724
C22	C	1.003255	-0.360714	0.486368
C23	C	1.074041	-0.245847	0.538823
C24	C	1.074066	-0.318599	0.415422
C25	C	1.003312	-0.261164	0.441575
C26	C	1.537979	-0.466843	0.512480
C27	C	1.538019	-0.536811	0.512492
C28	C	1.606073	-0.569613	0.580613
C29	C	1.606111	-0.635355	0.580639
C30	C	1.538105	-0.668293	0.512526
C31	C	1.470037	-0.635483	0.444400
C32	C	1.469994	-0.569742	0.444383
N33	N	1.530063	-0.771559	0.419377
N34	N	1.530110	-0.834011	0.419396
C35	C	1.538229	-0.866368	0.512574
N36	N	1.546320	-0.833914	0.605735
N37	N	1.546278	-0.771457	0.605714
C38	C	1.538144	-0.739579	0.512537
C39	C	1.606328	-0.970455	0.580729
C40	C	1.606358	-1.036199	0.580757
C41	C	1.470290	-1.036326	0.444508
C42	C	1.470255	-0.970583	0.444490
C43	C	1.538279	-0.937652	0.512599
C44	C	1.815736	-0.303315	0.512518
C45	C	1.934041	-0.303326	0.512511
C46	C	1.538186	-0.303236	0.790155
C47	C	1.538217	-0.303212	0.908460
C48	C	1.538280	-0.139101	0.512611
C49	C	1.538350	-0.069133	0.512644
C50	C	1.538105	-0.303300	0.235993
C51	C	1.538281	-0.303147	0.117688
C52	C	1.467087	-0.345238	0.977698
C53	C	1.564202	-0.360622	1.048468
C54	C	1.441178	-0.287790	1.048489
C55	C	1.635382	-0.318627	0.977673
C56	C	1.512292	-0.245768	0.977687
C57	C	1.609474	-0.261131	1.048426
H58	H	0.972460	-0.225524	0.381543
Cl59	Cl	1.478341	-0.170829	0.929643
H60	H	1.669722	-0.225563	1.079285
H61	H	1.586164	-0.409174	1.079559
H62	H	1.661520	-0.662068	0.636124
H63	H	1.105005	-0.197277	0.561057
H64	H	1.661776	-1.062905	0.636234
H65	H	1.414843	-0.943874	0.389015
H66	H	1.414912	-1.063143	0.389055
H67	H	1.717497	-0.331699	0.946697
Cl68	Cl	1.314438	-0.267691	1.096516
Cl69	Cl	1.384538	-0.676890	0.358778
H70	H	1.105073	-0.380949	0.643613
H71	H	0.972125	-0.275056	0.691860
Cl72	Cl	1.374291	-0.400190	0.929745
H73	H	0.972156	-0.409270	0.464229
Cl74	Cl	1.122102	-0.338600	0.288626
H75	H	1.661460	-0.542802	0.636074
Cl76	Cl	1.384432	-0.528503	0.358739
H77	H	1.661715	-0.943641	0.636191
