data_functionalizedCrystal
_audit_creation_method	'MofGen! by Chris Wilmer'
_symmetry_space_group_name_H-M	'P1'
_symmetry_Int_Tables_number	1
_symmetry_cell_setting	triclinic
loop_
_symmetry_equiv_pos_as_xyz
  x,y,z
_cell_length_a	18.050589
_cell_length_b	21.395362
_cell_length_c	21.395355
_cell_angle_alpha	90.043940
_cell_angle_beta	90.012902
_cell_angle_gamma	90.044101
loop_
_atom_site_label
_atom_site_type_symbol
_atom_site_fract_x
_atom_site_fract_y
_atom_site_fract_z
Zn1	Zn	-0.295431	0.957870	0.354610
Zn2	Zn	0.037903	1.291204	0.687943
Zn3	Zn	0.371236	1.624537	1.021277
Zn4	Zn	-0.419603	0.957777	0.249843
Zn5	Zn	-0.086269	1.291111	0.583176
Zn6	Zn	0.247064	1.624444	0.916509
Zn7	Zn	-0.295465	0.853085	0.249811
Zn8	Zn	0.037868	1.186419	0.583145
Zn9	Zn	0.371201	1.519752	0.916478
Zn10	Zn	-0.419618	0.853059	0.354548
Zn11	Zn	-0.086285	1.186392	0.687881
Zn12	Zn	0.247049	1.519726	1.021214
O13	O	-0.357529	0.905448	0.302203
O14	O	-0.024196	1.238781	0.635536
O15	O	0.309138	1.572115	0.968870
O16	O	-0.311882	1.045536	0.340752
O17	O	0.021452	1.378869	0.674085
O18	O	0.354785	1.712203	1.007418
O19	O	-0.403144	0.943862	0.162161
O20	O	-0.069810	1.277195	0.495494
O21	O	0.263523	1.610528	0.828827
O22	O	-0.191536	0.867035	0.263726
O23	O	0.141797	1.200368	0.597059
O24	O	0.475131	1.533702	0.930393
O25	O	-0.403110	1.045468	0.263780
O26	O	-0.069777	1.378801	0.597113
O27	O	0.263557	1.712134	0.930446
O28	O	-0.191511	0.944020	0.340721
O29	O	0.141823	1.277354	0.674055
O30	O	0.475156	1.610687	1.007388
O31	O	-0.311940	0.866945	0.162138
O32	O	0.021393	1.200278	0.495471
O33	O	0.354726	1.533612	0.828804
O34	O	-0.311955	0.765404	0.263665
O35	O	0.021378	1.098737	0.596999
O36	O	0.354711	1.432071	0.930332
O37	O	-0.403136	0.866990	0.442234
O38	O	-0.069803	1.200324	0.775567
O39	O	0.263531	1.533657	1.108900
O40	O	-0.403170	0.765385	0.340615
O41	O	-0.069836	1.098718	0.673948
O42	O	0.263497	1.432051	1.007281
O43	O	-0.311896	0.943995	0.442280
O44	O	0.021437	1.277328	0.775613
O45	O	0.354770	1.610661	1.108946
O46	O	-0.523529	0.943836	0.263719
O47	O	-0.190196	1.277170	0.597052
O48	O	0.143137	1.610503	0.930386
O49	O	-0.523540	0.866900	0.340645
O50	O	-0.190207	1.200234	0.673979
O51	O	0.143126	1.533567	1.007312
C52	C	-0.357568	0.742660	0.302130
C53	C	-0.024235	1.075994	0.635464
C54	C	0.309098	1.409327	0.968797
C55	C	-0.357603	0.673019	0.302114
C56	C	-0.024270	1.006352	0.635447
C57	C	0.309064	1.339686	0.968781
C58	C	-0.405161	0.640312	0.342121
C59	C	-0.071828	0.973646	0.675455
C60	C	0.261505	1.306979	1.008788
C61	C	-0.405143	0.574877	0.342149
C62	C	-0.071810	0.908210	0.675483
C63	C	0.261524	1.241544	1.008816
C64	C	-0.357574	0.542151	0.302159
C65	C	-0.024241	0.875484	0.635492
C66	C	0.309092	1.208817	0.968825
C67	C	-0.310007	0.574865	0.262148
C68	C	0.023326	0.908199	0.595482
C69	C	0.356660	1.241532	0.928815
C70	C	-0.310021	0.640300	0.262126
C71	C	0.023312	0.973633	0.595459
C72	C	0.356645	1.306966	0.928793
C73	C	-0.351592	0.438426	0.245753
C74	C	-0.018258	0.771759	0.579086
C75	C	0.315075	1.105092	0.912420
C76	C	-0.351583	0.372993	0.245774
C77	C	-0.018249	0.706326	0.579107
C78	C	0.315084	1.039660	0.912441
C79	C	-0.357526	0.340330	0.302228
C80	C	-0.024193	0.673663	0.635561
C81	C	0.309141	1.006997	0.968894
C82	C	-0.363494	0.373108	0.358662
C83	C	-0.030161	0.706442	0.691995
C84	C	0.303173	1.039775	1.025329
C85	C	-0.363508	0.438542	0.358640
C86	C	-0.030175	0.771876	0.691973
C87	C	0.303158	1.105209	1.025306
C88	C	-0.357553	0.471198	0.302179
C89	C	-0.024220	0.804532	0.635512
C90	C	0.309113	1.137865	0.968845
C91	C	-0.405067	0.236671	0.342269
C92	C	-0.071734	0.570004	0.675602
C93	C	0.261600	0.903337	1.008936
C94	C	-0.405044	0.171234	0.342298
C95	C	-0.071710	0.504568	0.675631
C96	C	0.261623	0.837901	1.008965
C97	C	-0.309911	0.171224	0.262291
C98	C	0.023422	0.504557	0.595625
C99	C	0.356755	0.837891	0.928958
C100	C	-0.309931	0.236659	0.262268
C101	C	0.023402	0.569993	0.595601
C102	C	0.356736	0.903326	0.928935
C103	C	-0.357513	0.269379	0.302256
C104	C	-0.024179	0.602712	0.635589
C105	C	0.309154	0.936045	0.968923
C106	C	-0.550481	0.905372	0.302192
C107	C	-0.217148	1.238706	0.635526
C108	C	0.116185	1.572039	0.968859
C109	C	-0.633027	0.905397	0.302209
C110	C	-0.299694	1.238731	0.635542
C111	C	0.033640	1.572064	0.968876
C112	C	-0.832511	0.863601	0.344027
C113	C	-0.499177	1.196934	0.677360
C114	C	-0.165844	1.530267	1.010693
C115	C	-0.881943	0.848322	0.286848
C116	C	-0.548610	1.181656	0.620182
C117	C	-0.215277	1.514989	0.953515
C118	C	-0.784157	0.905459	0.302217
C119	C	-0.450824	1.238792	0.635551
C120	C	-0.117491	1.572126	0.968884
C121	C	-0.881806	0.920768	0.359402
C122	C	-0.548473	1.254101	0.692735
C123	C	-0.215140	1.587435	1.026069
C124	C	-0.930142	0.905517	0.302230
C125	C	-0.596809	1.238850	0.635563
C126	C	-0.263476	1.572184	0.968897
C127	C	-0.832503	0.890151	0.245009
C128	C	-0.499170	1.223484	0.578342
C129	C	-0.165836	1.556817	0.911675
C130	C	-0.832361	0.962623	0.317601
C131	C	-0.499028	1.295956	0.650934
C132	C	-0.165695	1.629289	0.984267
C133	C	-0.881772	0.947366	0.260383
C134	C	-0.548438	1.280700	0.593716
C135	C	-0.215105	1.614033	0.927050
C136	C	-0.700059	0.905424	0.302211
C137	C	-0.366726	1.238757	0.635544
C138	C	-0.033392	1.572090	0.968877
C139	C	-1.014239	0.905552	0.302230
C140	C	-0.680906	1.238886	0.635564
C141	C	-0.347572	1.572219	0.968897
C142	C	-0.163823	0.905541	0.302227
C143	C	0.169510	1.238874	0.635560
C144	C	0.502843	1.572208	0.968894
C145	C	-0.081278	0.905581	0.302237
C146	C	0.252056	1.238914	0.635571
C147	C	0.585389	1.572247	0.968904
C148	C	-0.357514	0.905500	0.465626
C149	C	-0.024181	1.238833	0.798960
C150	C	0.309153	1.572167	1.132293
C151	C	-0.357508	0.905522	0.535268
C152	C	-0.024174	1.238856	0.868601
C153	C	0.309159	1.572189	1.201934
C154	C	-0.357490	1.068871	0.302276
C155	C	-0.024157	1.402205	0.635610
C156	C	0.309176	1.735538	0.968943
C157	C	-0.357474	1.138513	0.302307
C158	C	-0.024140	1.471846	0.635641
C159	C	0.309193	1.805179	0.968974
C160	C	-0.357490	0.905432	0.139415
C161	C	-0.024157	1.238766	0.472749
C162	C	0.309176	1.572099	0.806082
C163	C	-0.357288	0.905531	0.069774
C164	C	-0.023954	1.238865	0.403108
C165	C	0.309379	1.572198	0.736441
C166	C	-0.309997	0.945617	0.568006
C167	C	0.023336	1.278950	0.901339
C168	C	0.356670	1.612283	1.234672
C169	C	-0.309965	0.945616	0.633441
C170	C	0.023368	1.278949	0.966774
C171	C	0.356701	1.612282	1.300108
C172	C	-0.357457	0.905527	0.666136
C173	C	-0.024124	1.238860	0.999469
C174	C	0.309210	1.572194	1.332803
C175	C	-0.404971	0.865425	0.633390
C176	C	-0.071638	1.198758	0.966723
C177	C	0.261696	1.532091	1.300057
C178	C	-0.404996	0.865422	0.567956
C179	C	-0.071663	1.198756	0.901289
C180	C	0.261670	1.532089	1.234622
C181	C	-0.424328	0.900554	0.769805
C182	C	-0.090994	1.233887	1.103139
C183	C	0.242339	1.567220	1.436472
C184	C	-0.424304	0.900560	0.835238
C185	C	-0.090970	1.233894	1.168572
C186	C	0.242363	1.567227	1.501905
C187	C	-0.357379	0.905531	0.867957
C188	C	-0.024045	1.238864	1.201290
C189	C	0.309288	1.572198	1.534623
C190	C	-0.290475	0.910508	0.835234
C191	C	0.042858	1.243841	1.168568
C192	C	0.376191	1.577174	1.501901
C193	C	-0.290501	0.910505	0.769800
C194	C	0.042833	1.243839	1.103133
C195	C	0.376166	1.577172	1.436467
C196	C	-0.357435	0.905525	0.737088
C197	C	-0.024101	1.238858	1.070422
C198	C	0.309232	1.572192	1.403755
C199	C	-0.309829	0.945627	0.971647
C200	C	0.023504	1.278960	1.304981
C201	C	0.356837	1.612293	1.638314
C202	C	-0.309796	0.945621	1.037084
C203	C	0.023537	1.278955	1.370417
C204	C	0.356870	1.612288	1.703751
C205	C	-0.404809	0.865434	1.037032
C206	C	-0.071475	1.198767	1.370365
C207	C	0.261858	1.532100	1.703698
C208	C	-0.404835	0.865436	0.971596
C209	C	-0.071502	1.198769	1.304930
C210	C	0.261832	1.532102	1.638263
C211	C	-0.357347	0.905535	0.938908
C212	C	-0.024013	1.238869	1.272241
C213	C	0.309320	1.572202	1.605575
H214	H	-0.443870	0.548242	0.374731
H215	H	-0.110537	0.881575	0.708064
H216	H	0.222796	1.214908	1.041397
Br217	Br	-0.469587	0.126845	0.396604
Br218	Br	-0.136253	0.460178	0.729938
Br219	Br	0.197080	0.793511	1.063271
H220	H	-0.236026	0.914556	0.743160
H221	H	0.097307	1.247889	1.076493
H222	H	0.430641	1.581223	1.409827
Br223	Br	-0.917598	1.006411	0.201398
Br224	Br	-0.584264	1.339744	0.534731
Br225	Br	-0.250931	1.673077	0.868064
H226	H	-0.271291	0.666929	0.229547
H227	H	0.062042	1.000262	0.562880
H228	H	0.395375	1.333596	0.896214
Br229	Br	-0.796562	0.868518	0.164389
Br230	Br	-0.463229	1.201851	0.497722
Br231	Br	-0.129895	1.535184	0.831055
H232	H	-0.443637	0.832782	0.660014
H233	H	-0.110303	1.166116	0.993348
H234	H	0.223030	1.499449	1.326681
H235	H	-0.271177	0.144579	0.229733
H236	H	0.062157	0.477912	0.563066
H237	H	0.395490	0.811246	0.896400
H238	H	-0.368366	0.465228	0.404590
H239	H	-0.035032	0.798561	0.737924
H240	H	0.298301	1.131894	1.071257
Br241	Br	-0.796036	1.043133	0.339313
Br242	Br	-0.462703	1.376466	0.672646
Br243	Br	-0.129369	1.709800	1.005979
Br244	Br	-0.796455	0.804519	0.402876
Br245	Br	-0.463122	1.137852	0.736210
Br246	Br	-0.129788	1.471186	1.069543
H247	H	-0.903463	0.933693	0.407758
H248	H	-0.570130	1.267026	0.741091
H249	H	-0.236797	1.600360	1.074424
H250	H	-0.271327	0.978268	0.541395
H251	H	0.062006	1.311602	0.874728
H252	H	0.395339	1.644935	1.208062
H253	H	-0.478780	0.896512	0.861876
H254	H	-0.145447	1.229845	1.195209
H255	H	0.187886	1.563178	1.528543
H256	H	-0.271272	0.978264	0.660102
H257	H	0.062061	1.311598	0.993435
H258	H	0.395394	1.644931	1.326768
Br259	Br	-0.199642	0.917259	0.879629
Br260	Br	0.133691	1.250593	1.212962
Br261	Br	0.467025	1.583926	1.546296
Br262	Br	-0.245380	1.000044	0.927281
Br263	Br	0.087953	1.333377	1.260614
Br264	Br	0.421287	1.666711	1.593948
Br265	Br	-0.371558	0.328789	0.435284
Br266	Br	-0.038225	0.662122	0.768617
Br267	Br	0.295108	0.995456	1.101950
Br268	Br	-0.245323	1.000050	1.081516
Br269	Br	0.088010	1.333383	1.414849
Br270	Br	0.421344	1.666717	1.748183
H271	H	-0.443470	0.832786	1.063651
H272	H	-0.110137	1.166120	1.396985
H273	H	0.223197	1.499453	1.730318
H274	H	-0.346749	0.465014	0.199778
H275	H	-0.013415	0.798348	0.533112
H276	H	0.319918	1.131681	0.866445
H277	H	-0.443528	0.832790	0.944941
H278	H	-0.110195	1.166123	1.278274
H279	H	0.223139	1.499457	1.611607
H280	H	-0.271208	0.263290	0.229686
H281	H	0.062126	0.596623	0.563020
H282	H	0.395459	0.929956	0.896353
Br283	Br	-0.515165	0.893826	0.725408
Br284	Br	-0.181832	1.227159	1.058742
Br285	Br	0.151502	1.560493	1.392075
H286	H	-0.443684	0.832770	0.541301
H287	H	-0.110351	1.166103	0.874634
H288	H	0.222983	1.499436	1.207967
H289	H	-0.443905	0.666948	0.374684
H290	H	-0.110572	1.000282	0.708017
H291	H	0.222762	1.333615	1.041350
Br292	Br	-0.469637	0.281080	0.396539
Br293	Br	-0.136304	0.614413	0.729873
Br294	Br	0.197029	0.947746	1.063206
H295	H	-0.346728	0.346310	0.199822
H296	H	-0.013394	0.679643	0.533155
H297	H	0.319939	1.012977	0.866489
H298	H	-0.271275	0.548216	0.229589
H299	H	0.062058	0.881549	0.562922
H300	H	0.395392	1.214882	0.896255
H301	H	-0.903738	0.800008	0.273849
H302	H	-0.570405	1.133341	0.607182
H303	H	-0.237071	1.466675	0.940515
