data_functionalizedCrystal
_audit_creation_method	'MofGen! by Chris Wilmer'
_symmetry_space_group_name_H-M	'P1'
_symmetry_Int_Tables_number	1
_symmetry_cell_setting	triclinic
loop_
_symmetry_equiv_pos_as_xyz
  x,y,z
_cell_length_a	17.699083
_cell_length_b	22.610064
_cell_length_c	17.699083
_cell_angle_alpha	89.996827
_cell_angle_beta	83.283015
_cell_angle_gamma	90.002185
loop_
_atom_site_label
_atom_site_type_symbol
_atom_site_fract_x
_atom_site_fract_y
_atom_site_fract_z
O1	O	1.004081	0.049103	0.095701
O2	O	0.783703	0.049122	0.108153
O3	O	0.900118	0.049107	-0.008262
O4	O	0.887666	0.049118	0.212116
O5	O	0.900098	-0.049262	-0.008245
O6	O	0.783682	-0.049247	0.108170
O7	O	1.004060	-0.049266	0.095718
Zn8	Zn	0.893868	-0.064875	0.101947
Zn9	Zn	0.893895	0.064731	0.101924
O10	O	0.887645	-0.049251	0.212133
C11	C	0.755495	-0.000060	0.107716
C12	C	0.671477	-0.000053	0.106377
N13	N	0.893855	-0.153327	0.101962
C14	C	0.622856	-0.000049	0.174711
C15	C	0.543913	-0.000057	0.173448
C16	C	0.513592	-0.000064	0.103852
C17	C	0.562219	-0.000069	0.035513
C18	C	0.641161	-0.000065	0.036776
C19	C	0.243856	-0.000084	0.030418
C20	C	0.164908	-0.000085	0.029160
C21	C	0.146608	-0.000075	0.167090
C22	C	0.225550	-0.000072	0.168353
C23	C	0.274170	-0.000080	0.100015
C24	C	0.359769	-0.000073	0.101384
C25	C	0.427995	-0.000067	0.102481
C26	C	0.945446	-0.561976	0.050384
C27	C	0.945450	-0.623895	0.050378
O28	O	0.989282	-0.655920	0.006536
N29	N	0.893895	-0.654864	0.101909
C30	C	0.842327	-0.623910	0.153443
O31	O	0.798475	-0.655938	0.197273
C32	C	0.842320	-0.561992	0.153444
C33	C	0.893884	-0.531026	0.101916
C34	C	0.997005	-0.531010	-0.001142
C35	C	0.997002	-0.469094	-0.001135
C36	C	0.945440	-0.438144	0.050397
C37	C	0.893881	-0.469110	0.101922
C38	C	0.790749	-0.531038	0.204975
C39	C	0.790746	-0.469115	0.204971
C40	C	0.842310	-0.438150	0.153442
C41	C	0.842315	-0.376245	0.153461
N42	N	0.893871	-0.345276	0.101930
C43	C	0.945433	-0.376226	0.050398
C44	C	0.842344	-0.753944	0.153436
C45	C	0.842354	-0.815862	0.153439
C46	C	0.945477	-0.815842	0.050372
C47	C	0.945470	-0.753924	0.050374
C48	C	0.893900	-0.722975	0.101905
C49	C	0.945423	-0.246198	0.050416
C50	C	0.945417	-0.184277	0.050430
C51	C	0.842292	-0.184302	0.153493
C52	C	0.842300	-0.246217	0.153483
C53	C	0.893869	-0.277164	0.101938
O54	O	0.798503	-0.344181	0.197279
O55	O	0.989271	-0.344191	0.006569
C56	C	1.032268	-0.000083	0.096156
C57	C	1.116286	-0.000086	0.097494
C58	C	0.899662	-0.000078	-0.036451
C59	C	0.898323	-0.000078	-0.120469
N60	N	0.893914	0.153183	0.101904
C61	C	0.966656	-0.000085	-0.169090
C62	C	0.965394	-0.000079	-0.248033
C63	C	0.895798	-0.000071	-0.278354
C64	C	0.827459	-0.000063	-0.229727
C65	C	0.828722	-0.000064	-0.150785
C66	C	0.822364	-0.000058	-0.548090
C67	C	0.821106	-0.000058	-0.627038
C68	C	0.959036	-0.000073	-0.645338
C69	C	0.960299	-0.000074	-0.566396
C70	C	0.891961	-0.000062	-0.517776
C71	C	0.893330	-0.000067	-0.432177
C72	C	0.894427	-0.000071	-0.363951
C73	C	0.888102	-0.000065	0.240322
C74	C	0.889440	-0.000061	0.324340
H75	H	0.647537	-0.000043	0.231384
C76	C	1.102871	-0.000090	-0.195117
C77	C	1.043160	-0.000089	-0.135765
H78	H	1.150102	-0.000087	-0.174543
H79	H	1.099506	-0.034391	-0.225520
H80	H	1.099507	0.034216	-0.225530
H81	H	1.046522	-0.034398	-0.105355
H82	H	1.046527	0.034216	-0.105349
C83	C	1.098941	-0.524755	-0.103004
C84	C	1.053694	-0.565023	-0.057788
H85	H	1.133947	-0.545751	-0.137971
H86	H	1.067484	-0.500611	-0.130189
H87	H	1.126089	-0.500600	-0.071516
H88	H	1.026542	-0.589175	-0.089276
H89	H	1.085155	-0.589177	-0.030601
H90	H	0.773078	-0.000058	-0.111198
H91	H	0.680748	-0.000068	-0.018868
H92	H	0.987457	-0.728715	0.008414
C93	C	1.044014	0.050487	-0.347419
C94	C	1.040511	-0.000085	-0.301473
H95	H	1.090394	0.050486	-0.380405
H96	H	1.002394	0.050489	-0.376775
H97	H	1.041643	0.084784	-0.316232
H98	H	1.042877	-0.034382	-0.332659
H99	H	1.082143	-0.000092	-0.272114
H100	H	0.987414	-0.271388	0.008443
H101	H	0.748749	-0.443920	0.246933
C102	C	1.096515	-0.000082	-0.592417
C103	C	1.036801	-0.000080	-0.533068
H104	H	1.143744	-0.000080	-0.571841
H105	H	1.093150	-0.034383	-0.622821
H106	H	1.093154	0.034224	-0.622831
H107	H	1.040160	-0.034388	-0.502658
H108	H	1.040168	0.034225	-0.502652
C109	C	0.303723	-0.050619	0.249798
C110	C	0.258885	-0.000057	0.244851
H111	H	0.324307	-0.050606	0.297023
H112	H	0.273308	-0.084919	0.246457
H113	H	0.343972	-0.050615	0.209273
H114	H	0.218633	-0.000064	0.285373
H115	H	0.289302	0.034252	0.248199
C116	C	0.825732	-0.885497	0.256473
C117	C	0.785679	-0.849894	0.210087
H118	H	0.790738	-0.906502	0.291447
H119	H	0.856429	-0.912794	0.225785
H120	H	0.857183	-0.861337	0.283657
H121	H	0.754232	-0.874055	0.182900
H122	H	0.754969	-0.822594	0.240780
H123	H	1.014680	-0.000080	-0.684934
H124	H	0.107012	-0.000072	0.222734
C125	C	0.743762	0.050523	-0.448717
C126	C	0.747245	-0.000048	-0.494657
H127	H	0.697381	0.050530	-0.415733
H128	H	0.785381	0.050515	-0.419358
H129	H	0.746150	0.084821	-0.479908
H130	H	0.744863	-0.034346	-0.463467
H131	H	0.705614	-0.000045	-0.524019
H132	H	0.800351	-0.728748	0.195405
H133	H	0.140225	-0.000092	-0.027517
C134	C	0.740357	-0.190525	0.255368
C135	C	0.785616	-0.150274	0.210136
H136	H	0.705369	-0.169515	0.290337
H137	H	0.713196	-0.214674	0.223896
H138	H	0.771813	-0.214676	0.282557
H139	H	0.754161	-0.126125	0.182943
H140	H	0.812779	-0.126115	0.241612
C141	C	0.764276	-0.000061	-0.342611
C142	C	0.750956	-0.000056	-0.263053
H143	H	0.717044	-0.000062	-0.363182
H144	H	0.792407	0.034238	-0.359309
H145	H	0.792401	-0.034370	-0.359297
H146	H	0.722836	0.034255	-0.246367
H147	H	0.722814	-0.034359	-0.246349
H148	H	0.283434	-0.000091	-0.025228
H149	H	0.504328	-0.000053	0.229092
H150	H	0.537526	-0.000083	-0.021154
C151	C	0.739278	-0.315860	0.170025
C152	C	0.785628	-0.280263	0.210124
H153	H	0.704291	-0.336879	0.204991
H154	H	0.712116	-0.291699	0.138566
H155	H	0.769995	-0.343151	0.139333
H156	H	0.754911	-0.252969	0.240812
H157	H	0.812792	-0.304426	0.241596
C158	C	0.688807	-0.524811	0.306833
C159	C	0.734063	-0.565065	0.261614
H160	H	0.653806	-0.545818	0.341799
H161	H	0.720258	-0.500664	0.334020
H162	H	0.661653	-0.500658	0.275347
H163	H	0.761222	-0.589215	0.293101
H164	H	0.702608	-0.589223	0.234426
C165	C	1.047350	-0.190487	-0.051453
C166	C	1.002097	-0.150240	-0.006218
H167	H	1.082335	-0.169475	-0.086427
H168	H	1.074513	-0.214637	-0.019983
H169	H	1.015888	-0.214638	-0.078636
H170	H	1.033558	-0.126092	0.020969
H171	H	0.974931	-0.126080	-0.037692
C172	C	1.013327	-0.399677	-0.104370
C173	C	1.053560	-0.435160	-0.058009
H174	H	1.048211	-0.378758	-0.139549
H175	H	0.981750	-0.423903	-0.131315
H176	H	0.982744	-0.372299	-0.073688
H177	H	1.084140	-0.462541	-0.088691
H178	H	1.085150	-0.410932	-0.031063
C179	C	0.757927	-0.000051	-0.739926
C180	C	0.744600	-0.000045	-0.660369
H181	H	0.710698	-0.000046	-0.760502
H182	H	0.786065	0.034245	-0.756621
H183	H	0.786047	-0.034362	-0.756609
H184	H	0.716485	0.034269	-0.643685
H185	H	0.716450	-0.034344	-0.643666
C186	C	0.962089	-0.885467	-0.052662
C187	C	1.002151	-0.849869	-0.006281
H188	H	0.997077	-0.906471	-0.087637
H189	H	0.931390	-0.912766	-0.021969
H190	H	0.930639	-0.861304	-0.079843
H191	H	1.033597	-0.874033	0.020904
H192	H	1.032863	-0.822568	-0.036978
