data_functionalizedCrystal
_audit_creation_method	'MofGen! by Chris Wilmer'
_symmetry_space_group_name_H-M	'P1'
_symmetry_Int_Tables_number	1
_symmetry_cell_setting	triclinic
loop_
_symmetry_equiv_pos_as_xyz
  x,y,z
_cell_length_a	29.839131
_cell_length_b	18.215407
_cell_length_c	18.215399
_cell_angle_alpha	90.017777
_cell_angle_beta	89.969127
_cell_angle_gamma	89.962959
loop_
_atom_site_label
_atom_site_type_symbol
_atom_site_fract_x
_atom_site_fract_y
_atom_site_fract_z
Zn1	Zn	-0.178910	-1.124987	-0.416060
Zn2	Zn	-0.254040	-1.124860	-0.292988
Zn3	Zn	-0.178919	-1.001920	-0.293012
Zn4	Zn	-0.254008	-1.001850	-0.416017
O5	O	-0.216469	-1.063404	-0.354519
O6	O	-0.188886	-1.227955	-0.399743
O7	O	-0.244091	-1.108528	-0.190007
O8	O	-0.116051	-1.018327	-0.309363
O9	O	-0.244083	-1.227861	-0.309322
O10	O	-0.116044	-1.108744	-0.399766
O11	O	-0.188900	-1.018204	-0.190025
O12	O	-0.188870	-0.898926	-0.309321
O13	O	-0.244030	-1.018209	-0.519007
O14	O	-0.244038	-0.898875	-0.399692
O15	O	-0.188856	-1.108677	-0.519039
O16	O	-0.316903	-1.108460	-0.309280
O17	O	-0.316880	-1.018085	-0.399669
C18	C	-0.216452	-0.872198	-0.354505
C19	C	-0.216455	-0.790399	-0.354517
C20	C	-0.187770	-0.602253	-0.401672
C21	C	-0.187772	-0.525394	-0.401674
C22	C	-0.245162	-0.525308	-0.307373
C23	C	-0.245157	-0.602165	-0.307368
C24	C	-0.216462	-0.640636	-0.354521
C25	C	-0.216469	-0.486920	-0.354528
C26	C	-0.216472	-0.403586	-0.354530
C27	C	-0.216458	-0.723975	-0.354519
C28	C	-0.333192	-1.063272	-0.354483
C29	C	-0.383126	-1.063282	-0.354492
C30	C	-0.692769	-1.110548	-0.307523
C31	C	-0.880442	-1.110639	-0.307551
O32	O	-0.904706	-1.150721	-0.267588
N33	N	-0.903911	-1.063557	-0.354575
C34	C	-0.880460	-1.016452	-0.401598
O35	O	-0.904728	-0.976414	-0.441601
C36	C	-0.692787	-1.016366	-0.401573
C37	C	-0.669321	-1.063446	-0.354541
C38	C	-0.669302	-1.157625	-0.260495
C39	C	-0.622387	-1.157599	-0.260485
C40	C	-0.598938	-1.110496	-0.307504
C41	C	-0.622405	-1.063420	-0.354531
C42	C	-0.669336	-0.969265	-0.448600
C43	C	-0.622415	-0.969249	-0.448590
C44	C	-0.598949	-1.016329	-0.401558
C45	C	-0.552041	-1.016291	-0.401540
N46	N	-0.528572	-1.063373	-0.354516
C47	C	-0.552020	-1.110476	-0.307498
C48	C	-0.978990	-1.016500	-0.401607
C49	C	-1.025908	-1.016521	-0.401613
C50	C	-1.025887	-1.110709	-0.307566
C51	C	-0.978969	-1.110684	-0.307558
C52	C	-0.955521	-1.063582	-0.354584
C53	C	-0.453495	-1.110417	-0.307481
C54	C	-0.406575	-1.110385	-0.307474
C55	C	-0.406600	-1.016200	-0.401523
C56	C	-0.453515	-1.016229	-0.401528
C57	C	-0.476961	-1.063344	-0.354505
O58	O	-0.527748	-0.976236	-0.441488
O59	O	-0.527744	-1.150520	-0.267513
C60	C	-0.739685	-1.110574	-0.307532
C61	C	-0.763151	-1.063498	-0.354560
C62	C	-0.739703	-1.016395	-0.401578
C63	C	-0.810069	-1.063518	-0.354565
C64	C	-0.833518	-1.110621	-0.307547
C65	C	-0.810049	-1.157703	-0.260523
C66	C	-0.763133	-1.157677	-0.260514
C67	C	-0.763172	-0.969313	-0.448602
C68	C	-0.810088	-0.969342	-0.448607
C69	C	-0.833536	-1.016445	-0.401589
C70	C	-0.099291	-1.063558	-0.354572
C71	C	-0.049357	-1.063623	-0.354595
C72	C	-0.216438	-1.063449	-0.546472
C73	C	-0.216425	-1.063468	-0.628271
C74	C	-0.216482	-0.255357	-0.354532
C75	C	-0.216475	-0.337156	-0.354533
C76	C	-0.187669	-1.110592	-0.816483
C77	C	-0.187656	-1.110601	-0.893342
C78	C	-0.245112	-1.016397	-0.893298
C79	C	-0.245122	-1.016385	-0.816440
C80	C	-0.216402	-1.063487	-0.778035
C81	C	-0.216378	-1.063507	-0.931751
C82	C	-0.216364	-1.063517	-1.015085
C83	C	-0.216415	-1.063477	-0.694696
C84	C	-0.216468	-1.063402	-0.163313
C85	C	-0.216354	-1.063526	-0.081515
H86	H	-0.472579	-1.148784	-0.269192
C87	C	-0.156213	-0.483176	-0.453543
H88	H	-0.139126	-0.517098	-0.481627
H89	H	-0.136617	-0.453201	-0.425454
H90	H	-0.173428	-0.453191	-0.485561
H91	H	-0.164402	-0.633573	-0.440065
C92	C	-0.156056	-1.162424	-0.935635
H93	H	-0.160160	-1.155684	-0.986910
H94	H	-0.162641	-1.211858	-0.923042
H95	H	-0.125869	-1.151692	-0.923054
H96	H	-0.603283	-1.195937	-0.222190
C97	C	-0.276730	-0.482992	-0.255513
H98	H	-0.293814	-0.516861	-0.227427
H99	H	-0.296327	-0.453003	-0.283610
H100	H	-0.259520	-0.453013	-0.223497
H101	H	-0.268523	-0.633417	-0.268969
C102	C	-0.156076	-1.162395	-0.774236
H103	H	-0.160199	-1.155648	-0.722956
H104	H	-0.125889	-1.151664	-0.786846
H105	H	-0.162655	-1.211838	-0.786838
C106	C	-0.380764	-1.162178	-0.255740
H107	H	-0.401451	-1.190239	-0.227746
H108	H	-0.362490	-1.134039	-0.223644
H109	H	-0.362432	-1.194221	-0.283922
C110	C	-0.695089	-1.209438	-0.208766
H111	H	-0.674387	-1.237463	-0.180758
H112	H	-0.713365	-1.241502	-0.236937
H113	H	-0.713416	-1.181307	-0.176672
C114	C	-0.953159	-1.162477	-0.255829
H115	H	-0.973848	-1.190532	-0.227833
H116	H	-0.934882	-1.134341	-0.223735
H117	H	-0.934831	-1.194524	-0.284012
C118	C	-0.276706	-0.964593	-0.935542
H119	H	-0.293817	-0.936533	-0.901634
H120	H	-0.296278	-0.992726	-0.965518
H121	H	-0.259512	-0.932551	-0.965528
H122	H	-1.044987	-1.149062	-0.269283
C123	C	-1.051717	-0.964729	-0.453344
H124	H	-1.031028	-0.936681	-0.481348
H125	H	-1.070049	-0.932685	-0.425172
H126	H	-1.069989	-0.992875	-0.485441
H127	H	-0.268519	-0.978021	-0.785135
C128	C	-0.380800	-0.964395	-0.453242
H129	H	-0.349498	-0.971133	-0.446503
H130	H	-0.388519	-0.914955	-0.442438
H131	H	-0.388463	-0.975151	-0.502701
H132	H	-0.959902	-0.978143	-0.439902
C133	C	-0.695140	-0.917482	-0.500341
H134	H	-0.674449	-0.889438	-0.528345
H135	H	-0.713474	-0.885434	-0.472176
H136	H	-0.713411	-0.945631	-0.532439
H137	H	-0.472623	-0.977895	-0.439827
C138	C	-0.596623	-0.917437	-0.500318
H139	H	-0.565319	-0.924165	-0.493585
H140	H	-0.604347	-0.868000	-0.489509
H141	H	-0.604288	-0.928192	-0.549777
C142	C	-0.835846	-1.209516	-0.208803
H143	H	-0.815153	-1.237552	-0.180787
H144	H	-0.854119	-1.241569	-0.236991
H145	H	-0.854177	-1.181385	-0.176716
C146	C	-0.835896	-0.917552	-0.500347
H147	H	-0.815207	-0.889504	-0.528351
H148	H	-0.854232	-0.885509	-0.472181
H149	H	-0.854166	-0.945704	-0.532445
H150	H	-0.744084	-0.930957	-0.486891
H151	H	-0.744030	-1.196014	-0.222216
