data_functionalizedCrystal
_audit_creation_method	'MofGen! by Chris Wilmer'
_symmetry_space_group_name_H-M	'P1'
_symmetry_Int_Tables_number	1
_symmetry_cell_setting	triclinic
loop_
_symmetry_equiv_pos_as_xyz
  x,y,z
_cell_length_a	6.817900
_cell_length_b	14.125469
_cell_length_c	10.992743
_cell_angle_alpha	94.591961
_cell_angle_beta	108.770538
_cell_angle_gamma	100.398878
loop_
_atom_site_label
_atom_site_type_symbol
_atom_site_fract_x
_atom_site_fract_y
_atom_site_fract_z
V1	V	-4.071641	-0.133085	-0.400093
O2	O	-4.074481	0.006426	-0.392987
O3	O	-4.007288	-0.263913	-0.396865
O4	O	-4.049914	-0.131024	-0.574811
O5	O	-4.031561	-0.127384	-0.213810
V6	V	-4.553880	-0.116399	-0.377872
O7	O	-4.335716	-0.169685	-0.448837
O8	O	-4.740002	-0.079798	-0.329127
O9	O	-4.395026	0.014430	-0.381099
O10	O	-4.668436	-0.255909	-0.384977
O11	O	-4.711357	-0.122100	-0.564155
O12	O	-4.352400	-0.118460	-0.203153
C13	C	-3.847545	-0.295807	-0.390427
C14	C	-3.876394	-0.402761	-0.388953
C15	C	-3.901917	-0.126292	-0.617413
C16	C	-3.965331	-0.125473	-0.760243
C17	C	-3.929283	-0.598587	-0.386273
C18	C	-4.115605	-0.650909	-0.391696
C19	C	-4.145035	-0.759873	-0.390205
C20	C	-3.899845	-0.489613	-0.387764
C21	C	-4.276163	-0.130484	-0.971318
C22	C	-4.210224	-0.130967	-0.822684
C23	C	-3.845601	-0.029987	-0.791373
C24	C	-3.912947	-0.029103	-0.940019
C25	C	-3.976420	-0.212788	-0.977606
C26	C	-3.915049	-0.214960	-0.829383
C27	C	-4.218109	0.046318	-0.387534
C28	C	-4.168500	0.153272	-0.389016
C29	C	-4.163738	-0.123194	-0.160545
C30	C	-4.079563	-0.124008	-0.017713
H31	H	-4.253016	-0.613867	-0.397457
H32	H	-3.791881	-0.635625	-0.380508
H33	H	-4.304451	-0.199597	-0.802830
H34	H	-3.739627	-0.216513	-0.787631
C35	C	-4.447641	-0.222700	-1.042091
N36	N	-4.576807	-0.292158	-1.095410
C37	C	-4.382076	-0.044336	-1.007737
N38	N	-4.461841	0.020554	-1.035167
H39	H	-4.256444	-0.067168	-0.776674
C40	C	-4.004471	0.061602	-0.971553
N41	N	-4.073411	0.129922	-0.995299
H42	H	-3.765510	-0.020445	-0.969332
C43	C	-3.603492	-0.019849	-0.734844
N44	N	-3.421134	-0.012215	-0.692261
C45	C	-3.891767	0.059819	-0.725794
N46	N	-3.926548	0.127458	-0.676399
H47	H	-4.089513	-0.284389	-1.031928
C48	C	-4.035916	-0.310317	-0.804494
N49	N	-4.126954	-0.382139	-0.785740
C50	C	-3.778283	-0.207589	-1.017429
N51	N	-3.629056	-0.203667	-1.047432
