data_functionalizedCrystal
_audit_creation_method	'MofGen! by Chris Wilmer'
_symmetry_space_group_name_H-M	'P1'
_symmetry_Int_Tables_number	1
_symmetry_cell_setting	triclinic
loop_
_symmetry_equiv_pos_as_xyz
  x,y,z
_cell_length_a	14.971486
_cell_length_b	11.892095
_cell_length_c	14.971486
_cell_angle_alpha	93.893650
_cell_angle_beta	96.385871
_cell_angle_gamma	93.898778
loop_
_atom_site_label
_atom_site_type_symbol
_atom_site_fract_x
_atom_site_fract_y
_atom_site_fract_z
O1	O	1.192650	0.093873	-0.110858
O2	O	1.692650	0.593873	0.389142
O3	O	0.932251	0.093904	-0.124815
O4	O	1.432251	0.593904	0.375185
O5	O	1.069429	0.093880	0.012363
O6	O	1.569429	0.593880	0.512363
O7	O	1.055472	0.093898	-0.248036
O8	O	1.555472	0.593898	0.251964
O9	O	1.057992	-0.094126	0.000943
O10	O	1.557992	0.405874	0.500943
O11	O	0.920814	-0.094101	-0.136235
O12	O	1.420814	0.405899	0.363765
O13	O	1.181212	-0.094132	-0.122278
O14	O	1.681212	0.405868	0.377722
Zn15	Zn	1.049197	-0.123967	-0.131070
Zn16	Zn	1.549197	0.376033	0.368930
Zn17	Zn	1.064267	0.123739	-0.116024
Zn18	Zn	1.564267	0.623739	0.383976
O19	O	1.044034	-0.094108	-0.259456
O20	O	1.544034	0.405892	0.240544
C21	C	0.893208	-0.000095	-0.129901
C22	C	1.393208	0.499905	0.370099
C23	C	0.793912	-0.000083	-0.128029
C24	C	1.293912	0.499917	0.371971
N25	N	1.038919	-0.293019	-0.141338
N26	N	1.538919	0.206981	0.358662
C27	C	0.736687	-0.000079	-0.208618
C28	C	1.236687	0.499921	0.291382
C29	C	0.643386	-0.000096	-0.206856
C30	C	1.143386	0.499904	0.293144
C31	C	0.607313	-0.000109	-0.124504
C32	C	1.107313	0.499891	0.375496
C33	C	0.664545	-0.000116	-0.043909
C34	C	1.164545	0.499884	0.456091
C35	C	0.757843	-0.000107	-0.045672
C36	C	1.257843	0.499893	0.454328
C37	C	0.470082	-0.000132	-0.040239
C38	C	0.970082	0.499868	0.459761
C39	C	0.376777	-0.000139	-0.038475
C40	C	0.876777	0.499861	0.461525
C41	C	0.355625	-0.000121	-0.201423
C42	C	0.855625	0.499879	0.298577
C43	C	0.448923	-0.000112	-0.203186
C44	C	0.948923	0.499888	0.296814
C45	C	0.506149	-0.000117	-0.122591
C46	C	1.006149	0.499883	0.377409
C47	C	1.146071	-0.529686	-0.034246
C48	C	1.646071	-0.029686	0.465754
C49	C	1.138893	-0.648026	-0.041430
C50	C	1.638893	-0.148026	0.458570
C51	C	1.017382	-0.648043	-0.162885
C52	C	1.517382	-0.148043	0.337115
C53	C	1.024560	-0.529702	-0.155701
C54	C	1.524560	-0.029702	0.344299
C55	C	1.088907	-0.470528	-0.091381
C56	C	1.588907	0.029472	0.408619
C57	C	1.096089	-0.352185	-0.084202
C58	C	1.596089	0.147815	0.415798
C59	C	0.974573	-0.352204	-0.205652
C60	C	1.474573	0.147796	0.294348
C61	C	0.967396	-0.470544	-0.212835
C62	C	1.467396	0.029456	0.287165
C63	C	1.220256	-0.000131	-0.117193
C64	C	1.720256	0.499869	0.382807
C65	C	1.319552	-0.000135	-0.119064
C66	C	1.819552	0.499865	0.380936
C67	C	1.063086	-0.000123	0.039977
C68	C	1.563086	0.499877	0.539977
C69	C	1.061216	-0.000121	0.139275
C70	C	1.561216	0.499879	0.639275
N71	N	1.074552	0.292791	-0.105748
N72	N	1.574552	0.792791	0.394252
C73	C	1.050377	-0.000103	-0.287071
C74	C	1.550377	0.499897	0.212929
C75	C	1.052248	-0.000097	-0.386368
C76	C	1.552248	0.499903	0.113632
C77	C	1.141804	-0.000132	0.196499
C78	C	1.641804	0.499868	0.696499
C79	C	1.140042	-0.000120	0.289799
C80	C	1.640042	0.499880	0.789799
C81	C	1.057690	-0.000106	0.325873
C82	C	1.557690	0.499894	0.825873
C83	C	0.977095	-0.000092	0.268641
C84	C	1.477095	0.499908	0.768641
C85	C	0.978859	-0.000096	0.175343
C86	C	1.478859	0.499904	0.675343
C87	C	0.973424	-0.000088	0.463103
C88	C	1.473424	0.499912	0.963103
C89	C	0.971660	-0.000087	0.556408
C90	C	1.471660	0.499913	1.056408
C91	C	1.134607	-0.000112	0.577560
C92	C	1.634607	0.499888	1.077560
C93	C	1.136371	-0.000116	0.484262
C94	C	1.636371	0.499884	0.984262
C95	C	1.055776	-0.000104	0.427037
C96	C	1.555776	0.499896	0.927037
H97	H	0.766050	-0.000068	-0.275679
H98	H	1.266050	0.499932	0.224321
Br99	Br	1.216472	-0.728310	0.036117
Br100	Br	1.716472	-0.228310	0.536117
Br101	Br	0.896999	-0.271908	-0.283202
Br102	Br	1.396999	0.228092	0.216798
Br103	Br	1.253574	-0.000167	0.147552
Br104	Br	1.753574	0.499833	0.647552
Br105	Br	0.880066	-0.550859	-0.300120
Br106	Br	1.380066	-0.050859	0.199880
H107	H	0.907795	-0.000076	0.416512
H108	H	1.407795	0.499924	0.916512
Br109	Br	0.869485	-0.000073	0.097679
Br110	Br	1.369485	0.499927	0.597679
H111	H	0.804436	-0.000110	0.019952
H112	H	1.304436	0.499890	0.519952
H113	H	0.478291	-0.000091	-0.270244
H114	H	0.978291	0.499909	0.229756
Br115	Br	1.249417	-0.000134	0.367459
Br116	Br	1.749417	0.499866	0.867459
H117	H	1.203429	-0.000135	0.454894
H118	H	1.703429	0.499865	0.954894
H119	H	0.516673	-0.000138	0.025391
H120	H	1.016673	0.499862	0.525391
Br121	Br	1.243987	-0.000126	0.655222
Br122	Br	1.743987	0.499874	1.155222
Br123	Br	0.565726	-0.000087	-0.316232
Br124	Br	1.065726	0.499913	0.183768
H125	H	0.904600	-0.000093	0.585774
H126	H	1.404600	0.499907	1.085774
H127	H	1.198472	-0.481505	0.018120
H128	H	1.698472	0.018495	0.518120
H129	H	0.309026	-0.000122	-0.267047
H130	H	0.809026	0.499878	0.232953
H131	H	0.347410	-0.000151	0.028584
H132	H	0.847410	0.499849	0.528584
Br133	Br	0.615590	-0.000145	0.067856
Br134	Br	1.115590	0.499855	0.567856
Br135	Br	0.865330	-0.000055	0.317597
Br136	Br	1.365330	0.499945	0.817597
H137	H	0.964986	-0.696238	-0.215247
H138	H	1.464986	-0.196238	0.284753
Br139	Br	1.183421	-0.271878	0.003085
Br140	Br	1.683421	0.228122	0.503085
