data_functionalizedCrystal
_audit_creation_method	'MofGen! by Chris Wilmer'
_symmetry_space_group_name_H-M	'P1'
_symmetry_Int_Tables_number	1
_symmetry_cell_setting	triclinic
loop_
_symmetry_equiv_pos_as_xyz
  x,y,z
_cell_length_a	13.033409
_cell_length_b	15.299816
_cell_length_c	13.032268
_cell_angle_alpha	72.095154
_cell_angle_beta	74.837427
_cell_angle_gamma	72.104737
loop_
_atom_site_label
_atom_site_type_symbol
_atom_site_fract_x
_atom_site_fract_y
_atom_site_fract_z
Zn1	Zn	1.653143	-0.594814	0.499830
Zn2	Zn	2.153143	-0.094814	0.999830
Zn3	Zn	1.700343	-0.734072	0.347029
Zn4	Zn	2.200343	-0.234072	0.847029
Zn5	Zn	1.491823	-0.559515	0.338552
Zn6	Zn	1.991823	-0.059515	0.838552
Zn7	Zn	1.500254	-0.734037	0.547173
Zn8	Zn	2.000254	-0.234037	1.047173
O9	O	1.586391	-0.655609	0.433146
O10	O	2.086391	-0.155609	0.933146
O11	O	1.810655	-0.628074	0.463294
O12	O	2.310655	-0.128074	0.963294
O13	O	1.688907	-0.696159	0.194648
O14	O	2.188907	-0.196159	0.694648
O15	O	1.489941	-0.432878	0.336585
O16	O	1.989941	0.067122	0.836585
O17	O	1.845333	-0.730387	0.351032
O18	O	2.345333	-0.230387	0.851032
O19	O	1.608462	-0.458813	0.455075
O20	O	2.108462	0.041187	0.955075
O21	O	1.535708	-0.567912	0.188420
O22	O	2.035708	-0.067912	0.688420
O23	O	1.341690	-0.567878	0.382493
O24	O	1.841690	-0.067878	0.882493
O25	O	1.504311	-0.730327	0.692150
O26	O	2.004311	-0.230327	1.192150
O27	O	1.347885	-0.696099	0.535766
O28	O	1.847885	-0.196099	1.035766
O29	O	1.616637	-0.628040	0.657367
O30	O	2.116637	-0.128040	1.157367
O31	O	1.697083	-0.865386	0.396939
O32	O	2.197083	-0.365386	0.896939
O33	O	1.550078	-0.865361	0.543985
O34	O	2.050078	-0.365361	1.043985
C35	C	1.305570	-0.628155	0.463347
C36	C	1.805570	-0.128155	0.963347
C37	C	1.185435	-0.616435	0.476297
C38	C	1.685435	-0.116435	0.976297
C39	C	1.629644	-0.899428	0.476539
C40	C	2.129644	-0.399428	0.976539
C41	C	1.648243	-1.003748	0.495129
C42	C	2.148243	-0.503748	0.995129
C43	C	1.024859	-0.649621	0.439794
C44	C	1.524859	-0.149621	0.939794
C45	C	1.149026	-0.661737	0.426404
C46	C	1.649026	-0.161737	0.926404
C47	C	1.454131	-1.244108	0.300576
C48	C	1.954131	-0.744108	0.800576
C49	C	1.436651	-1.146094	0.283114
C50	C	1.936651	-0.646094	0.783114
C51	C	1.489547	-1.110502	0.336116
C52	C	1.989547	-0.610502	0.836116
C53	C	1.559927	-1.172935	0.406584
C54	C	2.059927	-0.672935	0.906584
C55	C	1.577403	-1.270958	0.424054
C56	C	2.077403	-0.770958	0.924054
C57	C	1.612819	-1.137353	0.459594
C58	C	2.112819	-0.637353	0.959594
C59	C	1.683199	-1.199785	0.530062
C60	C	2.183199	-0.699785	1.030062
C61	C	1.700672	-1.297799	0.547529
C62	C	2.200672	-0.797799	1.047529
C63	C	1.647775	-1.333390	0.494527
C64	C	2.147775	-0.833390	0.994527
C65	C	1.595344	-1.039329	0.442123
C66	C	2.095344	-0.539329	0.942123
C67	C	1.718615	-1.066180	0.565601
C68	C	2.218615	-0.566180	1.065601
C69	C	1.736096	-1.164194	0.583064
C70	C	2.236096	-0.664194	1.083064
C71	C	1.868308	-0.683172	0.402828
C72	C	2.368308	-0.183172	0.902828
C73	C	1.988445	-0.694918	0.389908
C74	C	2.488445	-0.194918	0.889908
C75	C	1.556150	-0.683117	0.715074
C76	C	2.056150	-0.183117	1.215074
C77	C	1.543262	-0.694840	0.835215
C78	C	2.043262	-0.194840	1.335215
C79	C	1.542996	-0.410844	0.389604
C80	C	2.042996	0.089156	0.889604
C81	C	1.524503	-0.306540	0.371049
C82	C	2.024503	0.193460	0.871049
C83	C	1.616565	-0.628147	0.152296
C84	C	2.116565	-0.128147	0.652296
C85	C	1.629614	-0.616181	0.032086
C86	C	2.129614	-0.116181	0.532086
C87	C	1.593094	-0.649456	0.871567
C88	C	2.093094	-0.149456	1.371567
C89	C	1.579776	-0.661571	0.995739
C90	C	2.079776	-0.161571	1.495739
H91	H	0.964110	-0.601876	0.492420
H92	H	1.464110	-0.101876	0.992420
H93	H	1.124690	-0.568684	0.528926
H94	H	1.624690	-0.068684	1.028926
Cl95	Cl	1.082229	-0.768648	0.308668
Cl96	Cl	1.582229	-0.268648	0.808668
Cl97	Cl	1.506871	-0.960855	0.353536
Cl98	Cl	2.006871	-0.460855	0.853536
H99	H	1.793399	-1.215040	0.640440
H100	H	2.293399	-0.715040	1.140440
Cl101	Cl	1.467152	-0.987284	0.314580
Cl102	Cl	1.967152	-0.487284	0.814580
Cl103	Cl	1.348165	-1.067615	0.194542
Cl104	Cl	1.848165	-0.567615	0.694542
Cl105	Cl	1.387623	-1.288857	0.233973
Cl106	Cl	1.887623	-0.788857	0.733973
H107	H	1.490732	-0.742656	0.896019
H108	H	1.990732	-0.242656	1.396019
Cl109	Cl	1.498672	-0.735406	1.089606
Cl110	Cl	1.998672	-0.235406	1.589606
Cl111	Cl	1.669998	-1.456612	0.516227
Cl112	Cl	2.169998	-0.956612	1.016227
H113	H	1.757975	-1.348630	0.604914
H114	H	2.257975	-0.848630	1.104914
H115	H	1.682134	-0.568349	0.971285
H116	H	2.182134	-0.068349	1.471285
H117	H	1.761686	-1.037203	0.608762
H118	H	2.261686	-0.537203	1.108762
Cl119	Cl	1.242807	-0.735471	0.345161
Cl120	Cl	1.742807	-0.235471	0.845161
H121	H	1.645612	-0.601630	0.810762
H122	H	2.145612	-0.101630	1.310762
