data_functionalizedCrystal
_audit_creation_method	'MofGen! by Chris Wilmer'
_symmetry_space_group_name_H-M	'P1'
_symmetry_Int_Tables_number	1
_symmetry_cell_setting	triclinic
loop_
_symmetry_equiv_pos_as_xyz
  x,y,z
_cell_length_a	20.919151
_cell_length_b	14.809436
_cell_length_c	14.809374
_cell_angle_alpha	88.612904
_cell_angle_beta	65.375353
_cell_angle_gamma	65.385220
loop_
_atom_site_label
_atom_site_type_symbol
_atom_site_fract_x
_atom_site_fract_y
_atom_site_fract_z
Zr1	Zr	0.826860	0.758098	-0.242658
O2	O	0.926679	0.632306	-0.368475
O3	O	0.700270	0.802839	-0.197887
O4	O	0.813474	0.812925	-0.378533
O5	O	0.833369	0.607236	-0.052387
O6	O	0.833367	0.948372	-0.393520
O7	O	0.813475	0.622220	-0.187830
O8	O	0.630866	0.930331	-0.070379
O9	O	1.035871	0.625278	-0.375528
O10	O	0.777099	0.915538	-0.197470
O11	O	0.777099	0.803273	-0.085206
O12	O	0.910383	0.815148	-0.297892
O13	O	0.910383	0.702883	-0.185628
Zr14	Zr	0.890315	0.950223	-0.050546
Zr15	Zr	0.858587	0.974121	-0.266561
Zr16	Zr	0.858588	0.734200	-0.026642
Zr17	Zr	1.001007	0.746889	-0.253907
Zr18	Zr	0.716168	0.961432	-0.039296
O19	O	1.016905	0.905482	-0.095316
O20	O	0.971791	0.939462	-0.402462
O21	O	0.971793	0.598326	-0.061329
O22	O	0.790495	1.076015	0.075271
O23	O	0.745382	1.109995	-0.231874
O24	O	0.745384	0.768859	0.109258
O25	O	0.883806	1.101085	-0.240816
O26	O	0.903701	0.895396	0.085329
O27	O	0.883808	0.759949	0.100317
O28	O	0.903699	1.086101	-0.105374
O29	O	1.061089	0.796987	-0.394528
O30	O	0.656085	0.911335	0.101325
O31	O	0.681304	1.083044	0.082325
O32	O	0.656084	1.102040	-0.089378
O33	O	1.061090	0.606282	-0.203825
O34	O	1.086309	0.777991	-0.222825
O35	O	0.806792	0.893173	0.004689
O36	O	0.806791	1.005439	-0.107575
O37	O	0.940075	0.905048	-0.207998
O38	O	0.940076	0.792783	-0.095734
C39	C	0.640755	0.868182	-0.132530
C40	C	0.566825	0.872941	-0.127754
C41	C	0.570347	0.804938	-0.195773
C42	C	0.500890	0.809415	-0.191323
C43	C	0.427912	0.881892	-0.118848
C44	C	0.424393	0.949902	-0.050826
C45	C	0.493849	0.945428	-0.055282
C46	C	0.216286	0.898917	-0.101883
C47	C	0.146828	0.903384	-0.097430
C48	C	0.223330	0.762898	-0.237929
C49	C	0.292784	0.758427	-0.242375
C50	C	0.289259	0.826440	-0.174356
C51	C	0.356915	0.886468	-0.114294
C52	C	0.360255	0.821868	-0.178915
C53	C	0.818902	0.583950	-0.116703
C54	C	0.805433	0.492242	-0.106555
C55	C	0.818900	0.884054	-0.416804
C56	C	0.805430	0.894199	-0.508508
C57	C	1.076419	0.840139	-0.160673
C58	C	1.150349	0.835381	-0.165449
C59	C	0.851630	0.306767	-0.141359
C60	C	0.865552	0.401551	-0.151851
C61	C	0.898273	1.124372	-0.176501
C62	C	0.911742	1.216079	-0.186648
C63	C	0.865543	0.848921	-0.599209
C64	C	0.851623	0.859406	-0.693991
C65	C	0.898275	0.824268	0.123600
C66	C	0.911744	0.814123	0.215305
C67	C	0.680441	1.138393	-0.162429
C68	C	0.619980	1.234859	-0.167801
C69	C	0.680443	0.838289	0.137672
C70	C	0.619982	0.832903	0.234152
C71	C	0.720128	1.108500	0.107773
C72	C	0.673137	1.194821	0.194105
C73	C	0.997046	0.599821	-0.400976
C74	C	1.044038	0.513500	-0.487308
C75	C	1.036733	0.569928	-0.130774
C76	C	1.097195	0.473462	-0.125402
C77	C	1.036732	0.870032	-0.430875
C78	C	1.097192	0.875419	-0.527355
C79	C	0.576086	1.233235	-0.217257
C80	C	0.519282	1.323868	-0.222324
C81	C	0.506369	1.416124	-0.177929
C82	C	0.550269	1.417746	-0.128472
C83	C	0.607076	1.327114	-0.123411
C84	C	0.607090	0.877299	0.326393
C85	C	0.550291	0.872232	0.417054
C86	C	0.506382	0.822775	0.415471
C87	C	0.519278	0.778373	0.323221
C88	C	0.576080	0.783434	0.232562
C89	C	0.651070	1.293968	0.176046
C90	C	0.606926	1.375084	0.257155
C91	C	0.584845	1.357051	0.356322
C92	C	0.606917	1.257893	0.374380
C93	C	0.651065	1.176779	0.293272
C94	C	1.066113	0.414353	-0.469250
C95	C	1.110279	0.333235	-0.550360
C96	C	1.132363	0.351268	-0.649527
C97	C	1.110287	0.450426	-0.667585
C98	C	1.066127	0.531541	-0.586476
C99	C	1.141094	0.475087	-0.075956
C100	C	1.197914	0.384455	-0.070914
C101	C	1.210829	0.292199	-0.115312
C102	C	1.166926	0.290577	-0.164765
C103	C	1.110111	0.381208	-0.169813
C104	C	1.141086	0.924884	-0.525740
C105	C	1.197890	0.929965	-0.616386
C106	C	1.210803	0.885573	-0.708646
C107	C	1.166903	0.836107	-0.710259
C108	C	1.110096	0.831033	-0.619614
H109	H	0.629764	0.745908	-0.254779
Br110	Br	0.459680	0.711256	0.321090
Br111	Br	0.524929	1.467147	0.466388
H112	H	1.233653	0.385796	-0.030641
Br113	Br	1.050534	0.378984	-0.236919
H114	H	0.226191	0.707527	-0.293307
Br115	Br	0.459712	1.321642	-0.289445
Br116	Br	0.702466	0.504718	-0.028986
Br117	Br	0.047783	1.001752	0.000935
H118	H	0.642809	1.328451	-0.083133
Br119	Br	1.184462	0.165363	-0.225012
H120	H	0.490977	1.000803	0.000107
Br121	Br	1.123577	0.985138	-0.400543
H122	H	1.257094	0.218409	-0.111195
H123	H	0.352202	0.699424	-0.301407
Br124	Br	1.257462	0.997097	-0.614174
Br125	Br	0.459295	0.723514	-0.277275
Br126	Br	1.192296	0.241171	-0.759594
H127	H	0.642837	0.917572	0.327700
H128	H	0.973519	0.767596	-0.792186
Br129	Br	1.014700	0.203616	-0.264234
Br130	Br	0.429269	1.539117	-0.184806
Br131	Br	0.702473	0.971758	-0.496024
Br132	Br	0.968503	0.771381	-0.611694
Br133	Br	1.287903	0.892467	-0.831657
Br134	Br	1.036168	0.666098	-0.611002
H135	H	0.503764	0.754040	-0.246710
H136	H	0.789849	0.905938	-0.686502
Br137	Br	0.593565	0.723179	0.107382
Br138	Br	0.576943	1.233436	0.508971
Br139	Br	1.184444	0.775856	-0.835477
Br140	Br	1.140264	0.474883	-0.802176
H141	H	0.586597	1.158124	-0.253422
H142	H	1.074362	0.790749	-0.620942
H143	H	0.213405	0.954299	-0.046498
Br144	Br	0.325352	1.048269	0.047530
Br145	Br	0.532732	1.542960	-0.068222
Br146	Br	0.748670	0.319233	-0.063790
Br147	Br	0.532801	0.932500	0.542236
H148	H	0.669042	1.308671	0.095306
H149	H	1.128245	0.252504	-0.535637
H150	H	0.297489	0.945479	-0.055285
H151	H	0.588959	1.455816	0.242434
Br152	Br	0.968515	0.389080	-0.229440
H153	H	1.048132	0.399651	-0.388509
Br154	Br	0.681003	1.042224	0.317799
Br155	Br	0.429296	0.815915	0.538519
Br156	Br	1.123584	0.600280	-0.015696
