data_functionalizedCrystal
_audit_creation_method	'MofGen! by Chris Wilmer'
_symmetry_space_group_name_H-M	'P1'
_symmetry_Int_Tables_number	1
_symmetry_cell_setting	triclinic
loop_
_symmetry_equiv_pos_as_xyz
  x,y,z
_cell_length_a	17.640112
_cell_length_b	17.638032
_cell_length_c	19.076919
_cell_angle_alpha	80.565462
_cell_angle_beta	77.038285
_cell_angle_gamma	65.665633
loop_
_atom_site_label
_atom_site_type_symbol
_atom_site_fract_x
_atom_site_fract_y
_atom_site_fract_z
Zn1	Zn	1.183910	0.082790	0.170252
Zn2	Zn	1.683910	0.582790	0.670252
Zn3	Zn	1.163737	0.212884	0.032740
Zn4	Zn	1.663737	0.712884	0.532740
Zn5	Zn	1.051638	0.105169	0.072311
Zn6	Zn	1.551638	0.605169	0.572311
Zn7	Zn	1.018222	0.248500	0.170130
Zn8	Zn	1.518222	0.748500	0.670130
O9	O	1.104377	0.162336	0.111358
O10	O	1.604377	0.662336	0.611358
O11	O	1.297490	0.075776	0.135501
O12	O	1.797490	0.575776	0.635501
O13	O	1.154410	0.193055	-0.060497
O14	O	1.654410	0.693055	0.439503
O15	O	1.091612	-0.012229	0.101915
O16	O	1.591612	0.487771	0.601915
O17	O	1.282669	0.171355	0.034472
O18	O	1.782669	0.671355	0.534472
O19	O	1.188792	-0.028671	0.173872
O20	O	1.688792	0.471329	0.673872
O21	O	1.072051	0.113918	-0.031425
O22	O	1.572051	0.613918	0.468575
O23	O	0.930950	0.148454	0.101796
O24	O	1.430950	0.648454	0.601796
O25	O	1.034658	0.232058	0.268633
O26	O	1.534658	0.732058	0.768633
O27	O	0.906399	0.253758	0.173664
O28	O	1.406399	0.753758	0.673664
O29	O	1.156389	0.110311	0.268723
O30	O	1.656389	0.610311	0.768723
O31	O	1.122007	0.332037	0.034354
O32	O	1.622007	0.832037	0.534354
O33	O	1.015097	0.358205	0.135293
O34	O	1.515097	0.858205	0.635293
C35	C	0.888531	0.207400	0.142011
C36	C	1.388531	0.707400	0.642011
C37	C	0.796186	0.226699	0.155138
C38	C	1.296186	0.726699	0.655138
C39	C	0.556326	0.015707	0.011641
C40	C	1.056326	0.515707	0.511641
C41	C	0.469551	0.033859	0.023983
C42	C	0.969551	0.533859	0.523983
C43	C	0.444021	0.143648	0.098642
C44	C	0.944021	0.643648	0.598642
C45	C	0.530797	0.125502	0.086309
C46	C	1.030797	0.625502	0.586309
C47	C	0.586943	0.061532	0.042807
C48	C	1.086943	0.561532	0.542807
C49	C	0.561413	0.171327	0.117475
C50	C	1.061413	0.671327	0.617475
C51	C	0.648181	0.153186	0.105140
C52	C	1.148181	0.653186	0.605140
C53	C	0.704332	0.089220	0.061639
C54	C	1.204332	0.589220	0.561639
C55	C	0.673711	0.043391	0.030472
C56	C	1.173711	0.543391	0.530472
C57	C	0.505265	0.235301	0.160973
C58	C	1.005265	0.735301	0.660973
C59	C	0.535881	0.281126	0.192139
C60	C	1.035881	0.781126	0.692139
C61	C	0.622651	0.262981	0.179809
C62	C	1.122651	0.762981	0.679809
C63	C	0.678802	0.199015	0.136307
C64	C	1.178802	0.699015	0.636307
C65	C	0.653272	0.308811	0.210975
C66	C	1.153272	0.808811	0.710975
C67	C	0.740040	0.290670	0.198640
C68	C	1.240040	0.790670	0.698640
C69	C	0.765570	0.180874	0.123972
C70	C	1.265570	0.680874	0.623972
C71	C	1.062759	0.374787	0.080529
C72	C	1.562759	0.874787	0.580529
C73	C	1.045029	0.465660	0.067352
C74	C	1.545029	0.965660	0.567352
C75	C	1.239470	0.721493	0.211600
C76	C	1.739470	1.221493	0.711600
C77	C	1.222784	0.806887	0.199210
C78	C	1.722784	1.306887	0.699210
C79	C	1.121666	0.824095	0.124184
C80	C	1.621666	1.324095	0.624184
C81	C	1.138347	0.738700	0.136565
C82	C	1.638347	1.238700	0.636565
C83	C	1.197248	0.687405	0.180274
C84	C	1.697248	1.187405	0.680274
C85	C	1.096125	0.704613	0.105239
C86	C	1.596125	1.204613	0.605239
C87	C	1.112801	0.619226	0.117621
C88	C	1.612801	1.119226	0.617621
C89	C	1.171698	0.567927	0.161330
C90	C	1.671698	1.067927	0.661330
C91	C	1.213924	0.602019	0.192656
C92	C	1.713924	1.102019	0.692656
C93	C	1.037219	0.755910	0.061534
C94	C	1.537219	1.255910	0.561534
C95	C	0.994998	0.721823	0.030208
C96	C	1.494998	1.221823	0.530208
C97	C	1.011678	0.636434	0.042587
C98	C	1.511678	1.136434	0.542587
C99	C	1.070575	0.585134	0.086295
C100	C	1.570575	1.085134	0.586295
C101	C	0.969452	0.602342	0.011260
C102	C	1.469452	1.102342	0.511260
C103	C	0.986127	0.516955	0.023643
C104	C	1.486127	1.016955	0.523643
C105	C	1.087251	0.499748	0.098678
C106	C	1.587251	0.999748	0.598678
C107	C	1.321066	0.117096	0.080586
C108	C	1.821066	0.617096	0.580586
C109	C	1.413406	0.097818	0.067473
C110	C	1.913406	0.597818	0.567473
C111	C	1.094046	0.172661	0.294928
C112	C	1.594046	0.672661	0.794928
C113	C	1.089644	0.177061	0.373155
C114	C	1.589644	0.677061	0.873155
C115	C	1.146154	0.949056	0.142320
C116	C	1.646154	1.449056	0.642320
C117	C	1.163893	0.858181	0.155512
C118	C	1.663893	1.358181	0.655512
C119	C	1.114727	0.151981	-0.071496
C120	C	1.614727	0.651981	0.428504
C121	C	1.119335	0.147317	-0.149712
C122	C	1.619335	0.647317	0.350288
C123	C	1.150952	0.115745	0.409954
C124	C	1.650952	0.615745	0.909954
C125	C	1.146806	0.119878	0.483458
C126	C	1.646806	0.619878	0.983458
C127	C	1.081355	0.185332	0.520161
C128	C	1.581355	0.685332	1.020161
C129	C	1.020042	0.246652	0.483357
C130	C	1.520042	0.746652	0.983357
C131	C	1.024185	0.242515	0.409856
C132	C	1.524185	0.742515	0.909856
C133	C	1.062165	0.204500	0.739983
C134	C	1.562165	0.704500	1.239983
C135	C	1.058027	0.208634	0.813490
C136	C	1.558027	0.708634	1.313490
C137	C	1.184791	0.081859	0.813586
C138	C	1.684791	0.581859	1.313586
C139	C	1.188931	0.077730	0.740082
C140	C	1.688931	0.577730	1.240082
C141	C	1.127615	0.139047	0.703285
C142	C	1.627615	0.639047	1.203285
N143	N	1.077117	0.189560	0.595293
N144	N	1.577117	0.689560	1.095293
N145	N	1.131851	0.134815	0.628155
N146	N	1.631851	0.634815	1.128155
H147	H	0.398295	0.195735	0.134059
H148	H	0.898295	0.695735	0.634059
Cl149	Cl	0.813413	0.066416	0.046126
Cl150	Cl	1.313413	0.566416	0.546126
Cl151	Cl	0.431065	-0.023752	-0.015209
Cl152	Cl	0.931065	0.476248	0.484791
Cl153	Cl	1.016386	0.863223	0.045844
Cl154	Cl	1.516386	1.363223	0.545844
Cl155	Cl	0.744302	-0.037036	-0.024212
Cl156	Cl	1.244302	0.462964	0.475788
Cl157	Cl	0.778533	0.348280	0.237819
Cl158	Cl	1.278533	0.848280	0.737819
H159	H	0.947038	0.763599	-0.005378
H160	H	1.447038	1.263599	0.494622
Cl161	Cl	0.396182	0.258117	0.176470
Cl162	Cl	0.896182	0.758117	0.676470
H163	H	1.261894	0.560250	0.228243
H164	H	1.761894	1.060250	0.728243
Cl165	Cl	0.895394	0.666839	-0.043673
Cl166	Cl	1.395394	1.166839	0.456327
Cl167	Cl	0.465289	0.361552	0.246816
Cl168	Cl	0.965289	0.861552	0.746816
H169	H	1.234710	0.031937	0.843553
H170	H	1.734710	0.531937	1.343553
Cl171	Cl	0.933051	0.474098	-0.015741
Cl172	Cl	1.433051	0.974098	0.484259
Cl173	Cl	0.937758	0.328936	0.529499
Cl174	Cl	1.437758	0.828936	1.029499
H175	H	1.287440	0.679724	0.247186
H176	H	1.787440	1.179724	0.747186
H177	H	0.811290	0.128772	0.088560
H178	H	1.311290	0.628772	0.588560
Cl179	Cl	0.626918	-0.064720	-0.043043
Cl180	Cl	1.126918	0.435280	0.456957
Cl181	Cl	1.161311	0.435253	0.153618
Cl182	Cl	1.661311	0.935253	0.653618
H183	H	0.607545	0.360901	0.246389
H184	H	1.107545	0.860901	0.746389
Cl185	Cl	1.047615	0.888589	0.069244
Cl186	Cl	1.547615	1.388589	0.569244
Cl187	Cl	1.192389	0.460650	0.177157
Cl188	Cl	1.692389	0.960650	0.677157
H189	H	1.257158	0.834639	0.224734
H190	H	1.757158	1.334639	0.724734
H191	H	1.204251	0.062447	0.380075
H192	H	1.704251	0.562447	0.880075
Cl193	Cl	1.223911	0.042819	0.529706
Cl194	Cl	1.723911	0.542819	1.029706
H195	H	0.974255	0.292439	0.379897
H196	H	1.474255	0.792439	0.879897
Cl197	Cl	0.985082	0.281586	0.693735
Cl198	Cl	1.485082	0.781586	1.193735
H199	H	1.242230	0.024432	0.710203
H200	H	1.742230	0.524432	1.210203
H201	H	1.004727	0.261937	0.843371
H202	H	1.504727	0.761937	1.343371
