data_functionalizedCrystal
_audit_creation_method	'MofGen! by Chris Wilmer'
_symmetry_space_group_name_H-M	'P1'
_symmetry_Int_Tables_number	1
_symmetry_cell_setting	triclinic
loop_
_symmetry_equiv_pos_as_xyz
  x,y,z
_cell_length_a	13.262533
_cell_length_b	11.792254
_cell_length_c	12.376457
_cell_angle_alpha	101.355083
_cell_angle_beta	94.179852
_cell_angle_gamma	84.323251
loop_
_atom_site_label
_atom_site_type_symbol
_atom_site_fract_x
_atom_site_fract_y
_atom_site_fract_z
O1	O	1.326701	0.225216	0.313893
O2	O	1.039983	0.221524	0.225738
O3	O	1.190292	0.058680	0.271960
O4	O	1.176392	0.388060	0.267671
O5	O	1.152728	0.099333	0.448421
O6	O	1.002419	0.262176	0.402199
O7	O	1.289137	0.265869	0.490354
Zn8	Zn	1.139814	0.270477	0.474293
Zn9	Zn	1.189306	0.216915	0.241799
O10	O	1.138828	0.428712	0.444131
C11	C	0.984495	0.238318	0.302683
C12	C	0.875121	0.227779	0.269055
C13	C	0.484902	0.286726	0.559019
C14	C	0.587662	0.296634	0.590619
C15	C	0.659532	0.279421	0.510231
C16	C	0.628632	0.252298	0.398237
C17	C	0.525861	0.242397	0.366634
C18	C	0.700490	0.235092	0.317845
C19	C	0.669590	0.207970	0.205851
C20	C	0.566829	0.198070	0.174253
C21	C	0.494959	0.215283	0.254642
C22	C	0.803261	0.244993	0.349449
C23	C	0.844220	0.200665	0.157063
C24	C	0.741460	0.190756	0.125463
C25	C	1.170634	0.036655	0.359921
C26	C	1.168013	-0.089538	0.359114
C27	C	1.165884	-0.192022	0.358456
C28	C	1.163223	-0.320594	0.357627
C29	C	1.344626	0.249074	0.413407
C30	C	1.454001	0.259612	0.447027
C31	C	1.158487	0.450736	0.356168
C32	C	1.161109	0.576928	0.356968
N33	N	1.106044	0.307031	0.632967
N34	N	1.223084	0.180353	0.083127
C35	C	1.301475	0.095477	1.048049
C36	C	1.325105	0.069892	0.936976
C37	C	1.270341	0.129174	0.860969
C38	C	1.191944	0.214046	0.896045
C39	C	1.168317	0.239640	1.007130
C40	C	1.137184	0.273338	0.820049
C41	C	1.058787	0.358210	0.855126
C42	C	1.035163	0.383799	0.966201
C43	C	1.089926	0.324516	1.042208
C44	C	1.160811	0.247744	0.708964
C45	C	1.027653	0.391907	0.668045
C46	C	1.004023	0.417492	0.779118
H47	H	0.411283	0.207206	0.228919
H48	H	0.940191	0.486597	0.807691
C49	C	0.405841	0.305663	0.647432
N50	N	0.346289	0.319929	0.714031
H51	H	0.983062	0.440183	0.606159
C52	C	1.247040	0.154380	0.670392
N53	N	1.311990	0.084050	0.641341
C54	C	0.837240	0.274818	0.472640
N55	N	0.862831	0.297280	0.565434
H56	H	0.716286	0.168673	0.034276
H57	H	0.541673	0.175997	0.083060
C58	C	0.621646	0.326461	0.713809
N59	N	0.647242	0.348925	0.806602
H60	H	1.346061	0.047223	1.109942
H61	H	0.902737	0.186652	0.091604
C62	C	1.411334	-0.023470	0.898399
N63	N	1.476283	-0.093799	0.869342
H64	H	1.070684	0.345343	1.132653
H65	H	0.743203	0.287490	0.535967
C66	C	0.948928	0.477165	1.004782
N67	N	0.883974	0.547488	1.033839
H68	H	1.289585	0.108339	0.770528
