data_functionalizedCrystal
_audit_creation_method	'MofGen! by Chris Wilmer'
_symmetry_space_group_name_H-M	'P1'
_symmetry_Int_Tables_number	1
_symmetry_cell_setting	triclinic
loop_
_symmetry_equiv_pos_as_xyz
  x,y,z
_cell_length_a	15.944551
_cell_length_b	17.699083
_cell_length_c	16.776229
_cell_angle_alpha	89.991718
_cell_angle_beta	89.996710
_cell_angle_gamma	96.609124
loop_
_atom_site_label
_atom_site_type_symbol
_atom_site_fract_x
_atom_site_fract_y
_atom_site_fract_z
O1	O	1.114314	-0.097617	0.066207
O2	O	1.614314	0.402383	0.566207
O3	O	0.869739	-0.109652	0.066227
O4	O	1.369739	0.390348	0.566227
O5	O	0.998937	0.006543	0.066209
O6	O	1.498937	0.506543	0.566209
O7	O	0.985117	-0.213812	0.066224
O8	O	1.485117	0.286188	0.566224
O9	O	0.998935	0.006553	-0.066367
O10	O	1.498935	0.506553	0.433633
O11	O	0.869737	-0.109642	-0.066350
O12	O	1.369737	0.390358	0.433650
O13	O	1.114312	-0.097607	-0.066370
O14	O	1.614312	0.402393	0.433630
Zn15	Zn	0.992024	-0.103623	-0.087409
Zn16	Zn	1.492024	0.396377	0.412591
Zn17	Zn	0.992027	-0.103636	0.087266
Zn18	Zn	1.492027	0.396364	0.587266
O19	O	0.985115	-0.213802	-0.066352
O20	O	1.485115	0.286198	0.433648
C21	C	0.838445	-0.109147	-0.000059
C22	C	1.338445	0.390853	0.499941
C23	C	0.745203	-0.107650	-0.000052
C24	C	1.245203	0.392350	0.499948
C25	C	0.998440	0.034746	-0.000079
C26	C	1.498440	0.534746	0.499921
C27	C	0.996955	0.118766	-0.000079
C28	C	1.496955	0.618766	0.499921
N29	N	0.992030	-0.103640	0.206477
N30	N	1.492030	0.396360	0.706477
C31	C	0.530505	-0.032046	-0.000072
C32	C	1.030505	0.467954	0.499928
C33	C	0.469412	-0.067159	0.065297
C34	C	0.969412	0.432841	0.565297
C35	C	0.574482	-0.104940	-0.000061
C36	C	1.074482	0.395060	0.499939
C37	C	0.469432	-0.067166	-0.065413
C38	C	0.969432	0.432834	0.434587
C39	C	0.409575	-0.102317	-0.000074
C40	C	0.909575	0.397683	0.499926
C41	C	0.514618	-0.140073	0.065362
C42	C	1.014618	0.359927	0.565362
C43	C	0.514644	-0.140069	-0.065406
C44	C	1.014644	0.359931	0.434594
C45	C	0.453569	-0.175235	-0.000021
C46	C	0.953569	0.324765	0.499979
C47	C	0.669481	-0.106449	-0.000053
C48	C	1.169481	0.393551	0.499947
C49	C	0.314577	-0.100814	-0.000076
C50	C	0.814577	0.399186	0.499924
C51	C	1.145606	-0.098112	-0.000082
C52	C	1.645606	0.401888	0.499918
C53	C	1.238849	-0.099610	-0.000084
C54	C	1.738849	0.400390	0.499916
C55	C	0.985611	-0.242005	-0.000062
C56	C	1.485611	0.257995	0.499938
C57	C	0.987097	-0.326026	-0.000057
C58	C	1.487097	0.173974	0.499943
C59	C	1.072791	0.167258	-0.000087
C60	C	1.572791	0.667258	0.499913
C61	C	1.071390	0.246203	-0.000080
C62	C	1.571390	0.746203	0.499920
C63	C	0.994152	0.276656	-0.000071
C64	C	1.494152	0.776656	0.499929
C65	C	0.918310	0.228158	-0.000061
C66	C	1.418310	0.728158	0.499939
C67	C	0.919712	0.149214	-0.000063
C68	C	1.419712	0.649214	0.499937
C69	C	0.912656	0.546531	-0.000054
C70	C	1.412656	1.046531	0.499946
C71	C	0.911260	0.625481	-0.000055
C72	C	1.411260	1.125481	0.499945
C73	C	1.064334	0.643520	-0.000071
C74	C	1.564334	1.143520	0.499929
C75	C	1.065735	0.564576	-0.000073
C76	C	1.565735	1.064576	0.499927
C77	C	0.989894	0.516085	-0.000059
C78	C	1.489894	1.016085	0.499941
C79	C	0.991414	0.430484	-0.000065
C80	C	1.491414	0.930484	0.499935
C81	C	0.992632	0.362256	-0.000070
C82	C	1.492632	0.862256	0.499930
N83	N	0.992028	-0.103613	-0.206620
N84	N	1.492028	0.396387	0.293380
C85	C	1.049344	-0.052291	0.248187
C86	C	1.549344	0.447709	0.748187
C87	C	1.049348	-0.052289	0.331639
C88	C	1.549348	0.447711	0.831639
C89	C	0.992032	-0.103633	0.373380
C90	C	1.492032	0.396367	0.873380
C91	C	0.934714	-0.154988	0.331665
C92	C	1.434714	0.345012	0.831665
C93	C	0.934716	-0.154993	0.248214
C94	C	1.434716	0.345007	0.748214
C95	C	0.934708	-0.154970	0.668212
C96	C	1.434708	0.345030	1.168212
C97	C	0.934709	-0.154960	0.751669
C98	C	1.434709	0.345040	1.251669
C99	C	1.049340	-0.052265	0.751637
C100	C	1.549340	0.447735	1.251637
C101	C	1.049341	-0.052270	0.668186
C102	C	1.549341	0.447730	1.168186
C103	C	0.992027	-0.103628	0.626478
C104	C	1.492027	0.396372	1.126478
C105	C	0.992026	-0.103630	0.535990
C106	C	1.492026	0.396370	1.035990
C107	C	0.992029	-0.103628	0.463867
C108	C	1.492029	0.396372	0.963867
H109	H	0.563965	0.028449	0.000004
H110	H	1.063965	0.528449	0.500004
C111	C	1.150696	0.531082	-0.000079
C112	C	1.650696	1.031082	0.499921
H113	H	1.195663	0.571269	-0.000074
H114	H	1.695663	1.071269	0.499926
H115	H	1.154427	0.500666	-0.046310
H116	H	1.654427	1.000666	0.453690
H117	H	1.154421	0.500656	0.046161
H118	H	1.654421	1.000656	0.546161
H119	H	0.449368	-0.036332	0.120559
H120	H	0.949368	0.463668	0.620559
H121	H	0.534710	-0.170871	-0.120670
H122	H	1.034710	0.329129	0.379330
H123	H	0.857958	0.109733	-0.000056
H124	H	1.357958	0.609733	0.499944
H125	H	0.888045	-0.196808	0.214255
H126	H	1.388045	0.303192	0.714255
H127	H	1.126087	0.683011	-0.000078
H128	H	1.626087	1.183011	0.499922
C129	C	0.442386	-0.025498	-0.140070
C130	C	0.942386	0.474502	0.359930
H131	H	0.469008	0.025363	-0.139987
H132	H	0.969008	0.525363	0.360013
H133	H	0.382842	-0.025248	-0.139795
H134	H	0.882842	0.474752	0.360205
H135	H	0.458640	-0.050894	-0.186488
H136	H	0.958640	0.449106	0.313512
H137	H	0.848360	0.650272	-0.000049
H138	H	1.348360	1.150272	0.499951
H139	H	0.850901	0.507059	-0.000043
H140	H	1.350901	1.007059	0.499957
C141	C	0.408593	-0.257038	0.000028
C142	C	0.908593	0.242962	0.500028
H143	H	0.374640	-0.264906	-0.046427
H144	H	0.874640	0.235094	0.453573
H145	H	0.373920	-0.264607	0.046043
H146	H	0.873920	0.235393	0.546043
H147	H	0.449478	-0.292070	0.000486
H148	H	0.949478	0.207930	0.500486
H149	H	0.855422	0.252959	-0.000049
H150	H	1.355422	0.752959	0.499951
H151	H	1.096011	-0.010449	0.785604
H152	H	1.596011	0.489551	1.285604
H153	H	1.135687	0.142470	-0.000099
H154	H	1.635687	0.642470	0.499901
C155	C	1.112390	0.004189	0.202275
C156	C	1.612390	0.504189	0.702275
H157	H	1.104179	-0.003161	0.146600
H158	H	1.604179	0.496839	0.646600
H159	H	1.168399	-0.004158	0.215951
H160	H	1.668399	0.495842	0.715951
H161	H	1.103475	0.054737	0.215942
H162	H	1.603475	0.554737	0.715942
C163	C	0.541524	-0.181712	0.140093
C164	C	1.041524	0.318288	0.640093
H165	H	0.601014	-0.182390	0.139652
H166	H	1.101014	0.317610	0.639652
H167	H	0.514480	-0.232421	0.140265
H168	H	1.014480	0.267579	0.640265
H169	H	0.525688	-0.156006	0.186466
H170	H	1.025688	0.343994	0.686466
C171	C	1.112389	0.004200	0.377516
C172	C	1.612389	0.504200	0.877516
H173	H	1.146516	0.034785	0.340704
H174	H	1.646516	0.534785	0.840704
H175	H	1.147234	-0.023105	0.410075
H176	H	1.647234	0.476895	0.910075
H177	H	1.082304	0.035784	0.410063
H178	H	1.582304	0.535784	0.910063
H179	H	1.133144	0.285683	-0.000087
H180	H	1.633144	0.785683	0.499913
C181	C	0.871661	-0.211454	0.622340
C182	C	1.371661	0.288546	1.122340
H183	H	0.879873	-0.204113	0.566661
H184	H	1.379873	0.295887	1.066661
H185	H	0.815653	-0.203103	0.636017
H186	H	1.315653	0.296897	1.136017
H187	H	0.880574	-0.262000	0.636031
H188	H	1.380574	0.238000	1.136031
C189	C	1.112391	0.004206	0.622275
C190	C	1.612391	0.504206	1.122275
H191	H	1.146532	0.034785	0.659068
H192	H	1.646532	0.534785	1.159068
H193	H	1.082320	0.035787	0.589712
H194	H	1.582320	0.535787	1.089712
H195	H	1.147234	-0.023117	0.589729
H196	H	1.647234	0.476883	1.089729
C197	C	0.871665	-0.211447	0.797583
C198	C	1.371665	0.288553	1.297583
H199	H	0.837537	-0.242041	0.760792
H200	H	1.337537	0.257959	1.260792
H201	H	0.836820	-0.184137	0.830133
H202	H	1.336820	0.315863	1.330133
H203	H	0.901753	-0.243024	0.830143
H204	H	1.401753	0.256976	1.330143
H205	H	0.888049	-0.196798	0.365656
H206	H	1.388049	0.303202	0.865656
