data_functionalizedCrystal
_audit_creation_method	'MofGen! by Chris Wilmer'
_symmetry_space_group_name_H-M	'P1'
_symmetry_Int_Tables_number	1
_symmetry_cell_setting	triclinic
loop_
_symmetry_equiv_pos_as_xyz
  x,y,z
_cell_length_a	14.519709
_cell_length_b	10.654562
_cell_length_c	9.730223
_cell_angle_alpha	89.996961
_cell_angle_beta	89.995143
_cell_angle_gamma	95.914876
loop_
_atom_site_label
_atom_site_type_symbol
_atom_site_fract_x
_atom_site_fract_y
_atom_site_fract_z
O1	O	-0.129584	1.666579	-0.114359
O2	O	-0.141913	1.300984	-0.114340
O3	O	-0.001560	1.493474	-0.114363
O4	O	-0.269936	1.474088	-0.114337
O5	O	-0.001564	1.493472	0.114217
O6	O	-0.141916	1.300982	0.114240
O7	O	-0.129588	1.666576	0.114220
Zn8	Zn	-0.135752	1.483779	0.150522
Zn9	Zn	-0.135748	1.483782	-0.150642
O10	O	-0.269940	1.474086	0.114243
C11	C	-0.141007	1.254194	-0.000048
C12	C	-0.138291	1.114777	-0.000042
C13	C	-0.137026	1.049258	0.124546
C14	C	-0.134482	0.918260	0.124523
C15	C	-0.134471	0.918312	-0.124688
C16	C	-0.137009	1.049309	-0.124663
C17	C	-0.138309	1.114726	0.249167
C18	C	-0.137045	1.049206	0.373765
C19	C	-0.134501	0.918208	0.373742
C20	C	-0.133220	0.852730	0.249120
C21	C	-0.304302	1.474990	-0.000044
C22	C	-0.406698	1.477698	-0.000035
C23	C	-0.781646	1.487665	-0.000090
C24	C	-0.677323	1.484897	-0.000074
C25	C	-0.594175	1.482682	-0.000061
C26	C	-0.489846	1.479913	-0.000048
C27	C	0.032802	1.492570	-0.000079
C28	C	0.135198	1.489862	-0.000097
C29	C	-0.130493	1.713367	-0.000075
C30	C	-0.133209	1.852783	-0.000090
N31	N	-0.135755	1.483786	0.356058
N32	N	-0.135738	1.483784	-0.356178
C33	C	-0.073628	1.569042	0.427974
C34	C	-0.073617	1.569039	0.571857
C35	C	-0.197868	1.398519	0.571896
C36	C	-0.197874	1.398517	0.428015
C37	C	-0.011510	1.654311	0.356018
C38	C	0.050621	1.739576	0.427934
C39	C	0.050632	1.739573	0.571817
C40	C	-0.011488	1.654305	0.643784
H41	H	-0.138043	1.102656	-0.226114
O42	O	-0.011369	1.654445	0.216252
C43	C	0.056761	1.748007	0.168158
H44	H	0.111557	1.769798	0.251054
H45	H	0.023221	1.837313	0.142638
C46	C	0.035171	1.673373	-0.063699
C47	C	0.102476	1.700129	0.038112
H48	H	0.063368	1.643843	-0.143921
H49	H	-0.010732	1.610341	-0.031300
H50	H	0.007226	1.747800	-0.084949
H51	H	0.130411	1.625699	0.059372
H52	H	0.148385	1.763147	0.005712
H53	H	-0.133431	0.864990	-0.226148
H54	H	0.101202	1.808991	0.369331
O55	O	-0.138164	1.112966	0.494728
C56	C	-0.059893	1.202749	0.502207
H57	H	-0.033690	1.227075	0.394024
H58	H	-0.003084	1.162079	0.563684
C59	C	-0.118713	1.293028	0.706343
C60	C	-0.086535	1.322912	0.573470
H61	H	-0.135144	1.367148	0.750306
H62	H	-0.171444	1.232536	0.701308
H63	H	-0.071366	1.259134	0.757556
H64	H	-0.133885	1.356791	0.522255
H65	H	-0.033812	1.383413	0.578498
O66	O	0.111020	1.822510	0.641465
C67	C	0.165858	1.897741	0.547095
H68	H	0.128029	1.899238	0.444543
H69	H	0.234651	1.856824	0.531774
C70	C	0.230399	2.031331	0.729192
C71	C	0.183932	2.033178	0.603240
H72	H	0.241552	2.114874	0.763826
H73	H	0.193456	1.980644	0.792773
H74	H	0.287721	1.997228	0.716408
H75	H	0.126607	2.067266	0.616029
H76	H	0.220866	2.083874	0.539662
H77	H	-0.133464	0.864866	0.475195
O78	O	-0.258178	1.315823	0.642013
C79	C	-0.244835	1.334088	0.784427
H80	H	-0.211050	1.433853	0.804060
H81	H	-0.198090	1.262912	0.825254
C82	C	-0.380541	1.192890	0.834206
C83	C	-0.339052	1.315427	0.858320
H84	H	-0.438657	1.181374	0.879790
H85	H	-0.389529	1.180580	0.738259
H86	H	-0.341577	1.133590	0.868229
H87	H	-0.378011	1.374724	0.824282
H88	H	-0.330073	1.327746	0.954263
O89	O	-0.258352	1.315829	0.358206
C90	C	-0.349789	1.336415	0.393401
H91	H	-0.350932	1.436954	0.432953
H92	H	-0.376398	1.266865	0.476921
C93	C	-0.410774	1.193556	0.217016
C94	C	-0.412180	1.317044	0.265584
H95	H	-0.449262	1.181602	0.138176
H96	H	-0.349172	1.179683	0.193308
H97	H	-0.432947	1.135612	0.286628
H98	H	-0.389997	1.374985	0.195979
H99	H	-0.473780	1.330926	0.289278
H100	H	-0.140383	1.221390	0.249200
H101	H	-0.131146	0.746063	0.249112
H102	H	-0.011467	1.654301	0.760943
