data_functionalizedCrystal
_audit_creation_method	'MofGen! by Chris Wilmer'
_symmetry_space_group_name_H-M	'P1'
_symmetry_Int_Tables_number	1
_symmetry_cell_setting	triclinic
loop_
_symmetry_equiv_pos_as_xyz
  x,y,z
_cell_length_a	29.839134
_cell_length_b	12.827892
_cell_length_c	12.827885
_cell_angle_alpha	90.029786
_cell_angle_beta	89.969016
_cell_angle_gamma	89.989746
loop_
_atom_site_label
_atom_site_type_symbol
_atom_site_fract_x
_atom_site_fract_y
_atom_site_fract_z
Zn1	Zn	0.686841	0.416126	-0.591175
Zn2	Zn	0.686795	0.590903	-0.416435
Zn3	Zn	0.611712	0.416161	-0.416413
Zn4	Zn	0.611706	0.590810	-0.591100
O5	O	0.649263	0.503500	-0.503781
O6	O	0.749702	0.439334	-0.568037
O7	O	0.676819	0.567777	-0.270196
O8	O	0.621700	0.269920	-0.439618
O9	O	0.749668	0.567743	-0.439656
O10	O	0.676897	0.269894	-0.568015
O11	O	0.621655	0.439395	-0.270180
O12	O	0.548844	0.439304	-0.439545
O13	O	0.621689	0.567584	-0.737346
O14	O	0.548839	0.567618	-0.567886
O15	O	0.676890	0.439244	-0.737401
O16	O	0.676813	0.737127	-0.439583
O17	O	0.621645	0.737058	-0.567908
C18	C	0.532541	0.503455	-0.503705
C19	C	0.482606	0.503462	-0.503698
C20	C	0.172970	0.570411	-0.570526
C21	C	-0.014703	0.570441	-0.570573
O22	O	-0.038962	0.627315	-0.627348
N23	N	-0.038179	0.503538	-0.503860
C24	C	-0.014733	0.436618	-0.437135
O25	O	-0.039007	0.379706	-0.380400
C26	C	0.172939	0.436584	-0.437094
C27	C	0.196412	0.503499	-0.503804
C28	C	0.196443	0.637320	-0.637232
C29	C	0.243359	0.637316	-0.637216
C30	C	0.266801	0.570403	-0.570494
C31	C	0.243328	0.503495	-0.503788
C32	C	0.196384	0.369660	-0.370376
C33	C	0.243305	0.369655	-0.370373
C34	C	0.266778	0.436570	-0.437083
C35	C	0.313685	0.436578	-0.437050
N36	N	0.337161	0.503481	-0.503763
C37	C	0.313719	0.570394	-0.570485
C38	C	-0.113264	0.436642	-0.437159
C39	C	-0.160182	0.436652	-0.437168
C40	C	-0.160148	0.570473	-0.570608
C41	C	-0.113230	0.570468	-0.570593
C42	C	-0.089788	0.503545	-0.503873
C43	C	0.412245	0.570381	-0.570445
C44	C	0.459164	0.570374	-0.570420
C45	C	0.459127	0.436549	-0.436984
C46	C	0.412211	0.436559	-0.437005
C47	C	0.388771	0.503479	-0.503744
O48	O	0.337973	0.379726	-0.380313
O49	O	0.338001	0.627281	-0.627228
C50	C	0.126055	0.570416	-0.570543
C51	C	0.102581	0.503507	-0.503837
C52	C	0.126023	0.436595	-0.437115
C53	C	0.055663	0.503517	-0.503846
C54	C	0.032221	0.570429	-0.570568
C55	C	0.055697	0.637332	-0.637281
C56	C	0.102612	0.637328	-0.637265
C57	C	0.102548	0.369692	-0.370402
C58	C	0.055632	0.369702	-0.370423
C59	C	0.032190	0.436614	-0.437145
C60	C	0.649235	0.775010	-0.503762
C61	C	0.649264	0.891163	-0.503789
C62	C	0.649294	0.503399	-0.776351
C63	C	0.649307	0.503357	-0.892504
C64	C	0.766442	0.503545	-0.503857
C65	C	0.816376	0.503564	-0.503890
C66	C	0.649304	0.230930	-0.503822
C67	C	0.649321	0.114776	-0.503840
C68	C	0.676596	0.942947	-0.440361
C69	C	0.676626	1.062997	-0.440387
C70	C	0.676625	0.439838	-0.944317
C71	C	0.676640	0.439792	-1.064367
C72	C	0.649259	0.503524	-0.232271
C73	C	0.649333	0.503273	-0.116118
H74	H	-0.094121	0.624955	-0.624916
H75	H	0.262467	0.691803	-0.691540
H76	H	0.625890	0.935705	-0.558117
N77	N	0.619989	0.571513	-1.060254
N78	N	0.622950	0.667948	-1.072354
H79	H	0.602226	0.716144	-1.032894
N80	N	0.705948	0.371654	-0.888463
N81	N	0.705894	0.371784	-0.791021
H82	H	0.726604	0.323627	-0.751575
N83	N	-0.184100	0.638803	-0.638782
N84	N	-0.178838	0.631969	-0.735221
H85	H	-0.195756	0.680218	-0.783372
H86	H	0.121720	0.691817	-0.691587
N87	N	0.705982	0.371582	-1.120270
N88	N	0.705954	0.371644	-1.217712
H89	H	0.726678	0.323470	-1.257197
N90	N	0.619971	0.571520	-0.948345
N91	N	0.591380	0.534653	-1.009253
H92	H	0.570659	0.582793	-1.048690
N93	N	0.705981	1.118839	-0.372243
N94	N	0.703025	1.106802	-0.275795
H95	H	0.723757	1.146241	-0.227664
H96	H	0.478274	0.624868	-0.624744
H97	H	0.625919	1.070251	-0.558143
N98	N	0.705930	0.887100	-0.372208
N99	N	0.747391	0.899137	-0.379238
H100	H	0.768110	0.859699	-0.331103
H101	H	0.036602	0.691818	-0.691605
N102	N	0.388313	0.638756	-0.638610
N103	N	0.393553	0.735172	-0.631502
H104	H	0.376653	0.783468	-0.679639
N105	N	0.172511	0.705695	-0.705389
N106	N	0.177756	0.802109	-0.698279
H107	H	0.160857	0.850411	-0.746415
N108	N	-0.184149	0.368310	-0.369002
N109	N	-0.163207	0.308575	-0.309437
H110	H	-0.180133	0.260302	-0.261294
H111	H	-0.094182	0.382144	-0.382822
N112	N	0.172421	0.301304	-0.302221
N113	N	0.193366	0.241569	-0.242663
H114	H	0.176444	0.193287	-0.194524
H115	H	0.262388	0.315151	-0.316046
H116	H	0.393098	0.382074	-0.382682
H117	H	0.478222	0.382074	-0.382658
H118	H	0.036524	0.315213	-0.316090
H119	H	0.121630	0.315202	-0.316068
