data_functionalizedCrystal
_audit_creation_method	'MofGen! by Chris Wilmer'
_symmetry_space_group_name_H-M	'P1'
_symmetry_Int_Tables_number	1
_symmetry_cell_setting	triclinic
loop_
_symmetry_equiv_pos_as_xyz
  x,y,z
_cell_length_a	10.489716
_cell_length_b	10.489741
_cell_length_c	9.730223
_cell_angle_alpha	89.998920
_cell_angle_beta	90.000146
_cell_angle_gamma	84.534155
loop_
_atom_site_label
_atom_site_type_symbol
_atom_site_fract_x
_atom_site_fract_y
_atom_site_fract_z
O1	O	1.694065	0.179813	-0.114278
O2	O	1.322865	0.196739	-0.114283
O3	O	1.516911	0.002677	-0.114272
O4	O	1.500018	0.373875	-0.114289
O5	O	1.516909	0.002682	0.114308
O6	O	1.322863	0.196744	0.114297
O7	O	1.694062	0.179818	0.114302
Zn8	Zn	1.508462	0.188282	0.150591
Zn9	Zn	1.508465	0.188275	-0.150573
O10	O	1.500016	0.373880	0.114291
C11	C	1.275332	0.195470	0.000006
C12	C	1.133701	0.191665	0.000004
C13	C	1.036027	0.310669	-0.000004
C14	C	0.958680	0.247787	0.112707
C15	C	0.958688	0.247754	-0.112655
C16	C	1.058219	0.128833	0.112808
C17	C	1.058233	0.128817	-0.112655
C18	C	0.980935	0.065848	0.000084
C19	C	1.515634	-0.044852	0.000017
C20	C	1.511817	-0.186481	0.000014
C21	C	1.388351	-0.254610	0.000003
C22	C	1.446674	-0.346735	0.112705
C23	C	1.446705	-0.346715	-0.112657
C24	C	1.570191	-0.276741	0.112810
C25	C	1.570205	-0.276711	-0.112653
C26	C	1.628618	-0.368808	0.000077
C27	C	1.741596	0.181087	0.000009
C28	C	1.883227	0.184892	0.000002
C29	C	1.501293	0.421409	-0.000001
C30	C	1.505110	0.563038	-0.000008
N31	N	1.508469	0.188285	0.356128
N32	N	1.508468	0.188262	-0.356109
C33	C	1.594415	0.102384	0.428059
C34	C	1.594412	0.102369	0.571942
C35	C	1.422512	0.274167	0.571950
C36	C	1.422511	0.274175	0.428070
C37	C	1.680374	0.016495	0.356117
C38	C	1.766328	-0.069412	0.428047
C39	C	1.766325	-0.069428	0.571930
C40	C	1.680367	0.016464	0.643882
H41	H	1.101534	0.078627	0.208191
H42	H	1.836303	-0.139385	0.630495
O43	O	1.338901	0.357647	0.641627
C44	C	1.263061	0.433491	0.547284
H45	H	1.261141	0.381186	0.444718
H46	H	1.161373	0.451958	0.588860
H47	H	1.305339	0.528657	0.531988
O48	O	1.632665	-0.239631	-0.226179
C49	C	1.740896	-0.178848	-0.185778
H50	H	1.771118	-0.211590	-0.077898
H51	H	1.822832	-0.205183	-0.260584
H52	H	1.716260	-0.070624	-0.186184
H53	H	1.394450	-0.377676	-0.207947
O54	O	1.632581	-0.239835	0.226469
C55	C	1.740251	-0.178067	0.186257
H56	H	1.725265	-0.139093	0.077494
H57	H	1.753303	-0.095708	0.259792
H58	H	1.829247	-0.249447	0.188971
O59	O	1.110016	0.068760	-0.226289
C60	C	1.080535	-0.059597	-0.227247
H61	H	0.991480	-0.068807	-0.162216
H62	H	1.061825	-0.090080	-0.337309
H63	H	1.164457	-0.123697	-0.182994
O64	O	0.906744	0.307510	0.226467
C65	C	0.843476	0.219788	0.305035
H66	H	0.884919	0.118047	0.279869
H67	H	0.857475	0.239346	0.419025
H68	H	0.736877	0.231036	0.279744
H69	H	1.286838	-0.204950	0.000115
O70	O	0.951839	-0.057751	0.000404
C71	C	1.003019	-0.120016	0.119368
H72	H	1.017704	-0.045813	0.202041
H73	H	0.933882	-0.189211	0.158711
H74	H	1.098854	-0.175375	0.093552
H75	H	0.915206	0.298013	-0.207929
O76	O	1.339202	0.357673	0.358033
C77	C	1.408230	0.437056	0.274833
H78	H	1.507582	0.387223	0.253284
H79	H	1.355176	0.456715	0.173653
H80	H	1.417749	0.531420	0.330280
H81	H	1.394432	-0.377740	0.207986
O82	O	1.849691	-0.153044	0.358248
C83	C	1.827798	-0.279508	0.393457
H84	H	1.725658	-0.281098	0.432987
H85	H	1.841897	-0.343405	0.298854
H86	H	1.898135	-0.316282	0.476998
H87	H	1.060696	0.414185	0.000096
O88	O	1.749848	-0.427736	0.000390
C89	C	1.814453	-0.392025	0.119356
H90	H	1.741523	-0.359419	0.202033
H91	H	1.879488	-0.477521	0.158691
H92	H	1.874590	-0.310261	0.093545
H93	H	1.680387	0.016502	0.238960
H94	H	1.680363	0.016435	0.761042
