data_functionalizedCrystal
_audit_creation_method	'MofGen! by Chris Wilmer'
_symmetry_space_group_name_H-M	'P1'
_symmetry_Int_Tables_number	1
_symmetry_cell_setting	triclinic
loop_
_symmetry_equiv_pos_as_xyz
  x,y,z
_cell_length_a	27.732048
_cell_length_b	27.732048
_cell_length_c	16.776229
_cell_angle_alpha	89.988391
_cell_angle_beta	89.998347
_cell_angle_gamma	82.642655
loop_
_atom_site_label
_atom_site_type_symbol
_atom_site_fract_x
_atom_site_fract_y
_atom_site_fract_z
O1	O	0.640929	0.057518	-0.066194
O2	O	0.974262	0.390851	0.267139
O3	O	1.307596	0.724185	0.600473
O4	O	0.500135	0.066264	-0.066219
O5	O	0.833469	0.399597	0.267114
O6	O	1.166802	0.732930	0.600447
O7	O	0.574905	-0.008506	-0.066191
O8	O	0.908238	0.324827	0.267143
O9	O	1.241572	0.658161	0.600476
O10	O	0.566159	0.132288	-0.066223
O11	O	0.899493	0.465621	0.267111
O12	O	1.232826	0.798954	0.600444
O13	O	0.574895	-0.008510	0.066386
O14	O	0.908228	0.324823	0.399719
O15	O	1.241562	0.658156	0.733052
O16	O	0.500126	0.066259	0.066357
O17	O	0.833459	0.399592	0.399691
O18	O	1.166792	0.732926	0.733024
O19	O	0.640919	0.057514	0.066383
O20	O	0.974252	0.390847	0.399716
O21	O	1.307586	0.724180	0.733049
Zn22	Zn	0.570521	0.061886	0.087419
Zn23	Zn	0.903854	0.395219	0.420753
Zn24	Zn	1.237187	0.728552	0.754086
Zn25	Zn	0.570534	0.061892	-0.087256
Zn26	Zn	0.903867	0.395225	0.246077
Zn27	Zn	1.237200	0.728558	0.579411
O28	O	0.566150	0.132283	0.066354
O29	O	0.899483	0.465616	0.399687
O30	O	1.232816	0.798950	0.733021
C31	C	0.482124	0.066078	0.000066
C32	C	0.815457	0.399411	0.333399
C33	C	1.148790	0.732744	0.666733
C34	C	0.428469	0.065525	0.000057
C35	C	0.761802	0.398858	0.333390
C36	C	1.095135	0.732192	0.666724
C37	C	0.089654	0.106229	0.000082
C38	C	0.422987	0.439562	0.333416
C39	C	0.756320	0.772895	0.666749
C40	C	-0.112006	0.104178	0.000090
C41	C	0.221327	0.437511	0.333423
C42	C	0.554661	0.770844	0.666756
O43	O	-0.143262	0.141398	0.000116
O44	O	0.190072	0.474732	0.333449
O45	O	0.523405	0.808065	0.666783
N46	N	-0.131130	0.059843	0.000098
N47	N	0.202204	0.393176	0.333432
N48	N	0.535537	0.726509	0.666765
C49	C	-0.099835	0.016017	0.000110
C50	C	0.233498	0.349350	0.333444
C51	C	0.566832	0.682684	0.666777
O52	O	-0.120728	-0.021740	0.000126
O53	O	0.212605	0.311593	0.333459
O54	O	0.545938	0.644927	0.666793
C55	C	0.101824	0.018068	0.000109
C56	C	0.435157	0.351402	0.333442
C57	C	0.768490	0.684735	0.666775
C58	C	0.120944	0.062407	0.000092
C59	C	0.454278	0.395740	0.333425
C60	C	0.787611	0.729073	0.666758
C61	C	0.108775	0.150563	0.000066
C62	C	0.442108	0.483897	0.333400
C63	C	0.775442	0.817230	0.666733
C64	C	0.159187	0.151075	0.000060
C65	C	0.492520	0.484409	0.333393
C66	C	0.825853	0.817742	0.666727
C67	C	0.190477	0.107253	0.000070
C68	C	0.523811	0.440587	0.333403
C69	C	0.857144	0.773920	0.666736
C70	C	0.171356	0.062919	0.000086
C71	C	0.504690	0.396252	0.333419
C72	C	0.838023	0.729585	0.666752
C73	C	0.133117	-0.025757	0.000126
C74	C	0.466451	0.307577	0.333460
C75	C	0.799784	0.640910	0.666793
C76	C	0.183535	-0.025240	0.000128
C77	C	0.516868	0.308094	0.333461
C78	C	0.850201	0.641427	0.666794
C79	C	0.202655	0.019098	0.000111
C80	C	0.535989	0.352432	0.333444
C81	C	0.869322	0.685765	0.666778
C82	C	0.253059	0.019609	0.000089
C83	C	0.586392	0.352942	0.333422
C84	C	0.919725	0.686276	0.666756
N85	N	0.272183	0.063944	0.000080
N86	N	0.605516	0.397277	0.333414
N87	N	0.938849	0.730611	0.666747
C88	C	0.240892	0.107766	0.000071
C89	C	0.574225	0.441100	0.333404
C90	C	0.907559	0.774433	0.666737
C91	C	-0.205709	0.014943	0.000110
C92	C	0.127624	0.348276	0.333443
C93	C	0.460957	0.681610	0.666777
C94	C	-0.256124	0.014430	0.000109
C95	C	0.077210	0.347763	0.333442
C96	C	0.410543	0.681097	0.666776
C97	C	-0.268291	0.102591	0.000090
C98	C	0.065042	0.435924	0.333423
C99	C	0.398376	0.769258	0.666756
C100	C	-0.217876	0.103104	0.000085
C101	C	0.115458	0.436437	0.333418
C102	C	0.448791	0.769770	0.666752
C103	C	-0.186585	0.059278	0.000101
C104	C	0.146748	0.392612	0.333435
C105	C	0.480081	0.725945	0.666768
C106	C	0.346761	0.108839	0.000057
C107	C	0.680094	0.442172	0.333390
C108	C	1.013428	0.775505	0.666724
C109	C	0.397178	0.109347	0.000047
C110	C	0.730511	0.442681	0.333381
C111	C	1.063845	0.776014	0.666714
C112	C	0.409341	0.021186	0.000071
C113	C	0.742674	0.354520	0.333404
C114	C	1.076008	0.687853	0.666737
C115	C	0.358929	0.020678	0.000076
C116	C	0.692262	0.354011	0.333409
C117	C	1.025595	0.687344	0.666743
C118	C	0.327639	0.064508	0.000072
C119	C	0.660973	0.397841	0.333405
C120	C	0.994306	0.731175	0.666738
O121	O	0.284343	-0.017592	0.000072
O122	O	0.617676	0.315741	0.333405
O123	O	0.951009	0.649075	0.666738
O124	O	0.261794	0.145518	0.000073
O125	O	0.595128	0.478851	0.333406
O126	O	0.928461	0.812184	0.666739
C127	C	0.039242	0.105716	0.000088
C128	C	0.372575	0.439050	0.333422
C129	C	0.705908	0.772383	0.666755
C130	C	0.020120	0.061382	0.000104
C131	C	0.353454	0.394715	0.333438
C132	C	0.686787	0.728049	0.666771
C133	C	0.051411	0.017560	0.000114
C134	C	0.384744	0.350893	0.333447
C135	C	0.718078	0.684226	0.666781
C136	C	-0.030294	0.060869	0.000103
C137	C	0.303039	0.394202	0.333437
C138	C	0.636373	0.727536	0.666770
C139	C	-0.061585	0.104691	0.000094
C140	C	0.271749	0.438025	0.333427
C141	C	0.605082	0.771358	0.666760
C142	C	-0.042461	0.149026	0.000085
C143	C	0.290872	0.482360	0.333418
C144	C	0.624206	0.815693	0.666752
C145	C	0.007951	0.149539	0.000079
C146	C	0.341284	0.482872	0.333412
C147	C	0.674618	0.816205	0.666746
C148	C	0.032287	-0.026775	0.000123
C149	C	0.365621	0.306558	0.333456
C150	C	0.698954	0.639891	0.666789
C151	C	-0.018125	-0.027284	0.000128
C152	C	0.315208	0.306049	0.333461
C153	C	0.648541	0.639383	0.666795
C154	C	-0.049416	0.016538	0.000118
C155	C	0.283917	0.349871	0.333452
C156	C	0.617251	0.683205	0.666785
C157	C	0.574716	-0.026515	0.000100
C158	C	0.908050	0.306818	0.333433
C159	C	1.241383	0.640152	0.666766
C160	C	0.574164	-0.080170	0.000106
C161	C	0.907497	0.253163	0.333440
C162	C	1.240830	0.586497	0.666773
C163	C	0.614867	-0.418985	0.000073
C164	C	0.948201	-0.085652	0.333406
C165	C	1.281534	0.247682	0.666739
C166	C	0.612816	-0.620645	0.000061
C167	C	0.946150	-0.287311	0.333394
C168	C	1.279483	0.046022	0.666728
O169	O	0.650037	-0.651900	0.000033
O170	O	0.983370	-0.318567	0.333366
O171	O	1.316704	0.014766	0.666700
N172	N	0.568481	-0.639768	0.000054
N173	N	0.901814	-0.306435	0.333387
N174	N	1.235148	0.026898	0.666721
C175	C	0.524656	-0.608474	0.000044
C176	C	0.857989	-0.275140	0.333378
C177	C	1.191322	0.058193	0.666711
O178	O	0.486899	-0.629367	0.000030
O179	O	0.820232	-0.296033	0.333363
O180	O	1.153565	0.037300	0.666696
C181	C	0.526707	-0.406815	0.000050
C182	C	0.860040	-0.073482	0.333383
C183	C	1.193374	0.259852	0.666717
C184	C	0.571045	-0.387694	0.000065
C185	C	0.904378	-0.054361	0.333399
C186	C	1.237712	0.278972	0.666732
C187	C	0.659202	-0.399864	0.000087
C188	C	0.992535	-0.066530	0.333420
C189	C	1.325868	0.266803	0.666754
C190	C	0.659714	-0.349452	0.000094
C191	C	0.993047	-0.016118	0.333428
C192	C	1.326381	0.317215	0.666761
C193	C	0.615892	-0.318161	0.000087
C194	C	0.949225	0.015172	0.333420
C195	C	1.282559	0.348506	0.666754
C196	C	0.571557	-0.337282	0.000073
C197	C	0.904891	-0.003949	0.333406
C198	C	1.238224	0.329384	0.666739
C199	C	0.482882	-0.375521	0.000035
C200	C	0.816215	-0.042188	0.333368
C201	C	1.149549	0.291145	0.666701
C202	C	0.483399	-0.325104	0.000034
C203	C	0.816732	0.008229	0.333368
C204	C	1.150066	0.341563	0.666701
C205	C	0.527737	-0.305983	0.000050
C206	C	0.861070	0.027350	0.333383
C207	C	1.194404	0.360683	0.666716
C208	C	0.528247	-0.255580	0.000073
C209	C	0.861581	0.077754	0.333406
C210	C	1.194914	0.411087	0.666739
N211	N	0.572583	-0.236456	0.000080
N212	N	0.905916	0.096877	0.333413
N213	N	1.239249	0.430211	0.666747
C214	C	0.616405	-0.267747	0.000087
C215	C	0.949738	0.065587	0.333420
C216	C	1.283072	0.398920	0.666754
C217	C	0.523582	-0.714348	0.000043
C218	C	0.856915	-0.381014	0.333376
C219	C	1.190248	-0.047681	0.666710
C220	C	0.523069	-0.764762	0.000043
C221	C	0.856402	-0.431429	0.333376
C222	C	1.189735	-0.098096	0.666709
C223	C	0.611230	-0.776930	0.000058
C224	C	0.944563	-0.443596	0.333391
C225	C	1.277896	-0.110263	0.666725
C226	C	0.611742	-0.726514	0.000064
C227	C	0.945075	-0.393181	0.333397
C228	C	1.278409	-0.059848	0.666731
C229	C	0.567917	-0.695224	0.000050
C230	C	0.901250	-0.361891	0.333383
C231	C	1.234583	-0.028557	0.666717
C232	C	0.617477	-0.161878	0.000103
C233	C	0.950811	0.171456	0.333436
C234	C	1.284144	0.504789	0.666770
C235	C	0.617986	-0.111461	0.000113
C236	C	0.951319	0.221873	0.333447
C237	C	1.284652	0.555206	0.666780
C238	C	0.529825	-0.099298	0.000094
C239	C	0.863158	0.234036	0.333427
C240	C	1.196492	0.567369	0.666761
C241	C	0.529316	-0.149710	0.000088
C242	C	0.862650	0.183623	0.333421
C243	C	1.195983	0.516957	0.666754
C244	C	0.573147	-0.180999	0.000089
C245	C	0.906480	0.152334	0.333423
C246	C	1.239813	0.485667	0.666756
O247	O	0.491047	-0.224296	0.000092
O248	O	0.824380	0.109038	0.333425
O249	O	1.157713	0.442371	0.666758
O250	O	0.654156	-0.246844	0.000084
O251	O	0.987490	0.086489	0.333417
O252	O	1.320823	0.419823	0.666751
C253	C	0.614355	-0.469397	0.000065
C254	C	0.947688	-0.136064	0.333399
C255	C	1.281022	0.197270	0.666732
C256	C	0.570021	-0.488518	0.000051
C257	C	0.903354	-0.155185	0.333384
C258	C	1.236687	0.178148	0.666718
C259	C	0.526198	-0.457228	0.000044
C260	C	0.859532	-0.123894	0.333377
C261	C	1.192865	0.209439	0.666710
C262	C	0.569508	-0.538933	0.000051
C263	C	0.902841	-0.205599	0.333384
C264	C	1.236174	0.127734	0.666718
C265	C	0.613330	-0.570223	0.000058
C266	C	0.946663	-0.236890	0.333391
C267	C	1.279996	0.096443	0.666725
C268	C	0.657665	-0.551100	0.000065
C269	C	0.990998	-0.217766	0.333399
C270	C	1.324332	0.115567	0.666732
C271	C	0.658177	-0.500688	0.000073
C272	C	0.991511	-0.167354	0.333406
C273	C	1.324844	0.165979	0.666739
C274	C	0.481863	-0.476351	0.000037
C275	C	0.815197	-0.143018	0.333370
C276	C	1.148530	0.190315	0.666703
C277	C	0.481355	-0.526764	0.000030
C278	C	0.814688	-0.193430	0.333364
C279	C	1.148021	0.139903	0.666697
C280	C	0.525177	-0.558054	0.000037
C281	C	0.858510	-0.224721	0.333371
C282	C	1.191843	0.108612	0.666704
C283	C	0.658931	0.057699	0.000096
C284	C	0.992264	0.391033	0.333429
C285	C	1.325598	0.724366	0.666762
C286	C	0.712586	0.058252	0.000099
C287	C	1.045919	0.391586	0.333433
C288	C	1.379252	0.724919	0.666766
C289	C	0.566338	0.150292	0.000062
C290	C	0.899671	0.483626	0.333395
C291	C	1.233005	0.816959	0.666728
C292	C	0.566891	0.203947	0.000050
C293	C	0.900224	0.537280	0.333383
C294	C	1.233557	0.870614	0.666717
N295	N	0.570515	0.061881	0.206630
N296	N	0.903849	0.395215	0.539964
N297	N	1.237182	0.728548	0.873297
N298	N	0.570543	0.061892	-0.206467
N299	N	0.903876	0.395225	0.126866
N300	N	1.237209	0.728559	0.460199
C301	C	0.603633	0.028787	0.248360
C302	C	0.936967	0.362120	0.581694
C303	C	1.270300	0.695453	0.915027
C304	C	0.603636	0.028786	0.331812
C305	C	0.936969	0.362120	0.665146
C306	C	1.270303	0.695453	0.998479
C307	C	0.570523	0.061883	0.373533
C308	C	0.903856	0.395216	0.706867
C309	C	1.237189	0.728550	1.040200
C310	C	0.537401	0.094979	0.331798
C311	C	0.870735	0.428313	0.665131
C312	C	1.204068	0.761646	0.998464
C313	C	0.537397	0.094977	0.248347
C314	C	0.870730	0.428310	0.581680
C315	C	1.204063	0.761644	0.915014
C316	C	0.537419	0.094989	0.668345
C317	C	0.870752	0.428322	1.001678
C318	C	1.204085	0.761655	1.335012
C319	C	0.537427	0.094989	0.751801
C320	C	0.870760	0.428323	1.085135
C321	C	1.204094	0.761656	1.418468
C322	C	0.603658	0.028798	0.751810
C323	C	0.936991	0.362131	1.085144
C324	C	1.270325	0.695465	1.418477
C325	C	0.603653	0.028796	0.668360
C326	C	0.936987	0.362129	1.001693
C327	C	1.270320	0.695462	1.335026
C328	C	0.570531	0.061890	0.626631
C329	C	0.903864	0.395223	0.959965
C330	C	1.237197	0.728557	1.293298
C331	C	0.570527	0.061889	0.536143
C332	C	0.903861	0.395223	0.869476
C333	C	1.237194	0.728556	1.202810
C334	C	0.570528	0.061886	0.464020
C335	C	0.903861	0.395220	0.797354
C336	C	1.237194	0.728553	1.130687
H337	H	0.117558	-0.061861	0.000140
H338	H	0.450892	0.271472	0.333474
H339	H	0.784225	0.604805	0.666807
F340	F	0.216833	-0.071886	0.000147
F341	F	0.550167	0.261447	0.333480
F342	F	0.883500	0.594781	0.666814
F343	F	0.502181	0.130217	0.796203
F344	F	0.835514	0.463550	1.129536
F345	F	1.168848	0.796883	1.462869
H346	H	0.446177	-0.450879	0.000029
H347	H	0.779510	-0.117545	0.333362
H348	H	1.112844	0.215788	0.666696
F349	F	0.664126	-0.195171	0.000104
F350	F	0.997460	0.138162	0.333438
F351	F	1.330793	0.471496	0.666771
F352	F	0.502169	0.130211	0.623941
F353	F	0.835502	0.463544	0.957274
F354	F	1.168836	0.796877	1.290608
F355	F	0.436752	-0.291805	0.000018
F356	F	0.770086	0.041528	0.333351
F357	F	1.103419	0.374862	0.666684
H358	H	0.343360	-0.015426	0.000078
H359	H	0.676693	0.317907	0.333411
H360	H	1.010027	0.651241	0.666745
H361	H	0.412743	0.145454	0.000033
H362	H	0.746076	0.478787	0.333367
H363	H	1.079410	0.812121	0.666700
H364	H	0.174750	0.187180	0.000046
H365	H	0.508083	0.520513	0.333380
H366	H	0.841417	0.853847	0.666713
H367	H	0.510428	0.121925	0.214371
H368	H	0.843762	0.455259	0.547705
H369	H	1.177095	0.788592	0.881038
F370	F	0.476933	-0.681052	0.000028
F371	F	0.810267	-0.347718	0.333361
F372	F	1.143600	-0.014385	0.666695
F373	F	0.442651	-0.025450	0.000082
F374	F	0.775985	0.307884	0.333415
F375	F	1.109318	0.641217	0.666749
H376	H	-0.293777	0.138273	0.000082
H377	H	0.039557	0.471606	0.333415
H378	H	0.372890	0.804939	0.666749
F379	F	0.704304	-0.584410	0.000077
F380	F	1.037637	-0.251077	0.333411
F381	F	1.370970	0.082256	0.666744
F382	F	0.638880	-0.006438	0.203966
F383	F	0.972213	0.326895	0.537299
F384	F	1.305547	0.660229	0.870632
F385	F	0.638898	-0.006428	0.623960
F386	F	0.972232	0.326905	0.957294
F387	F	1.305565	0.660238	1.290627
F388	F	0.502157	0.130202	0.376201
F389	F	0.835490	0.463535	0.709534
F390	F	1.168824	0.796868	1.042868
F391	F	0.638883	-0.006437	0.376225
F392	F	0.972216	0.326896	0.709558
F393	F	1.305550	0.660230	1.042891
F394	F	0.638909	-0.006426	0.796227
F395	F	0.972243	0.326908	1.129560
F396	F	1.305576	0.660241	1.462893
F397	F	0.075480	0.197209	0.000056
F398	F	0.408813	0.530542	0.333390
F399	F	0.742146	0.863876	0.666723
F400	F	0.482127	-0.170060	0.000086
F401	F	0.815461	0.163273	0.333419
F402	F	1.148794	0.496606	0.666752
F403	F	0.435691	-0.395860	0.000015
F404	F	0.769024	-0.062526	0.333348
F405	F	1.102357	0.270807	0.666682
F406	F	0.313468	0.155488	0.000053
F407	F	0.646801	0.488821	0.333386
F408	F	0.980134	0.822154	0.666720
H409	H	0.694282	-0.485125	0.000085
H410	H	1.027615	-0.151791	0.333418
H411	H	1.360949	0.181542	0.666751
F412	F	-0.197531	0.150294	0.000069
F413	F	0.135803	0.483627	0.333402
F414	F	0.469136	0.816960	0.666735
F415	F	-0.038469	-0.074478	0.000136
F416	F	0.294865	0.258855	0.333469
F417	F	0.628198	0.592188	0.666802
H418	H	0.494146	-0.073812	0.000091
H419	H	0.827480	0.259522	0.333424
H420	H	1.160813	0.592855	0.666758
H421	H	-0.180236	-0.020747	0.000123
H422	H	0.153097	0.312586	0.333456
H423	H	0.486430	0.645920	0.666790
F424	F	0.028294	0.196730	0.000061
F425	F	0.361627	0.530063	0.333395
F426	F	0.694961	0.863396	0.666728
F427	F	-0.276468	-0.032761	0.000109
F428	F	0.056866	0.300573	0.333442
F429	F	0.390199	0.633906	0.666775
H430	H	-0.067947	0.184708	0.000074
H431	H	0.265386	0.518041	0.333407
H432	H	0.598720	0.851375	0.666741
F433	F	0.065583	-0.073420	0.000134
F434	F	0.398917	0.259914	0.333468
F435	F	0.732250	0.593247	0.666801
H436	H	0.647846	-0.710950	0.000076
H437	H	0.981179	-0.377617	0.333409
H438	H	1.314513	-0.044283	0.666742
H439	H	0.695819	-0.333889	0.000103
H440	H	1.029152	-0.000555	0.333437
H441	H	1.362485	0.332778	0.666770
H442	H	0.654093	-0.095896	0.000128
H443	H	0.987426	0.237438	0.333461
H444	H	1.320759	0.570771	0.666795
H445	H	0.694889	-0.425336	0.000090
H446	H	1.028223	-0.092003	0.333423
H447	H	1.361556	0.241330	0.666757
F448	F	0.475878	-0.785106	0.000041
F449	F	0.809211	-0.451773	0.333374
F450	F	1.142545	-0.118439	0.666708
F451	F	0.657869	-0.810240	0.000064
F452	F	0.991202	-0.476907	0.333398
F453	F	1.324535	-0.143573	0.666731
F454	F	0.434160	-0.547107	0.000019
F455	F	0.767494	-0.213774	0.333352
F456	F	1.100827	0.119559	0.666686
