data_functionalizedCrystal
_audit_creation_method	'MofGen! by Chris Wilmer'
_symmetry_space_group_name_H-M	'P1'
_symmetry_Int_Tables_number	1
_symmetry_cell_setting	triclinic
loop_
_symmetry_equiv_pos_as_xyz
  x,y,z
_cell_length_a	19.188930
_cell_length_b	19.188930
_cell_length_c	10.065918
_cell_angle_alpha	99.900945
_cell_angle_beta	99.848379
_cell_angle_gamma	83.144779
loop_
_atom_site_label
_atom_site_type_symbol
_atom_site_fract_x
_atom_site_fract_y
_atom_site_fract_z
O1	O	0.096287	0.935316	0.113955
O2	O	0.596287	1.435316	0.613955
O3	O	0.108014	0.731997	0.113863
O4	O	0.608014	1.231997	0.613863
O5	O	0.000493	0.839522	0.113885
O6	O	0.500493	1.339522	0.613885
O7	O	0.203808	0.827792	0.113933
O8	O	0.703808	1.327792	0.613933
O9	O	-0.017677	0.821243	-0.113117
O10	O	0.482323	1.321243	0.386883
O11	O	0.089844	0.713719	-0.113138
O12	O	0.589844	1.213719	0.386862
O13	O	0.078117	0.917037	-0.113047
O14	O	0.578117	1.417037	0.386953
Zn15	Zn	0.081096	0.812476	-0.149134
Zn16	Zn	0.581096	1.312476	0.350866
Zn17	Zn	0.105036	0.836559	0.149950
Zn18	Zn	0.605036	1.336559	0.649950
O19	O	0.185638	0.809513	-0.113069
O20	O	0.685638	1.309513	0.386931
C21	C	-0.034603	0.830002	0.000380
C22	C	0.465397	1.330002	0.500380
C23	C	-0.112109	0.828861	0.000368
C24	C	0.387891	1.328861	0.500368
C25	C	0.098548	0.696846	0.000350
C26	C	0.598548	1.196846	0.500350
C27	C	0.097405	0.619339	0.000314
C28	C	0.597405	1.119339	0.500314
C29	C	0.160498	0.574418	0.000351
C30	C	0.660498	1.074418	0.500351
C31	C	0.159428	0.501595	0.000365
C32	C	0.659428	1.001595	0.500365
C33	C	0.095262	0.473699	0.000371
C34	C	0.595262	0.973699	0.500371
C35	C	0.032160	0.518629	0.000327
C36	C	0.532160	1.018629	0.500327
C37	C	0.033231	0.591449	0.000299
C38	C	0.533231	1.091449	0.500299
N39	N	0.052403	0.371943	0.077673
N40	N	0.552403	0.871943	0.577673
N41	N	0.051390	0.302767	0.077703
N42	N	0.551390	0.802767	0.577703
C43	C	0.092031	0.254297	0.000454
C44	C	0.592031	0.754297	0.500454
N45	N	0.133735	0.277616	-0.076809
N46	N	0.633735	0.777616	0.423191
N47	N	0.134751	0.346799	-0.076833
N48	N	0.634751	0.846799	0.423167
C49	C	0.094094	0.394739	0.000401
C50	C	0.594094	0.894739	0.500401
C51	C	0.153968	0.130413	0.000504
C52	C	0.653968	0.630413	0.500504
C53	C	0.152894	0.057588	0.000511
C54	C	0.652894	0.557588	0.500511
C55	C	0.025625	0.074625	0.000486
C56	C	0.525625	0.574625	0.500486
C57	C	0.026700	0.147447	0.000466
C58	C	0.526700	0.647447	0.500466
C59	C	0.090874	0.175336	0.000482
C60	C	0.590874	0.675336	0.500482
C61	C	-0.157031	0.891953	0.000390
C62	C	0.342969	1.391953	0.500390
C63	C	-0.229853	0.890883	0.000411
C64	C	0.270147	1.390883	0.500411
C65	C	-0.257752	0.826715	0.000383
C66	C	0.242248	1.326715	0.500383
C67	C	-0.212819	0.763615	0.000369
C68	C	0.287181	1.263615	0.500369
C69	C	-0.139998	0.764687	0.000361
C70	C	0.360002	1.264687	0.500361
N71	N	-0.371942	0.771445	-0.076892
N72	N	0.128058	1.271445	0.423108
N73	N	-0.441120	0.770430	-0.076888
N74	N	0.058880	1.270430	0.423112
C75	C	-0.477158	0.823479	0.000409
C76	C	0.022842	1.323479	0.500409
N77	N	-0.441407	0.877590	0.077684
N78	N	0.058593	1.377590	0.577684
N79	N	-0.372224	0.878607	0.077674
N80	N	0.127776	1.378607	0.577674
C81	C	-0.336714	0.825545	0.000392
C82	C	0.163286	1.325545	0.500392
C83	C	-0.601043	0.885416	0.000456
C84	C	-0.101043	1.385416	0.500456
C85	C	-0.673865	0.884344	0.000486
C86	C	-0.173865	1.384344	0.500486
C87	C	-0.656831	0.757072	0.000430
C88	C	-0.156831	1.257072	0.500430
C89	C	-0.584009	0.758147	0.000414
C90	C	-0.084009	1.258147	0.500414
C91	C	-0.556120	0.822320	0.000421
C92	C	-0.056120	1.322320	0.500421
C93	C	0.220735	0.819033	0.000439
C94	C	0.720735	1.319033	0.500439
C95	C	0.298241	0.820175	0.000460
C96	C	0.798241	1.320175	0.500460
C97	C	0.087584	0.952189	0.000469
C98	C	0.587584	1.452189	0.500469
C99	C	0.088728	1.029697	0.000514
C100	C	0.588728	1.529697	0.500514
N101	N	0.064757	0.796045	-0.353251
N102	N	0.564757	1.296045	0.146749
C103	C	0.099351	0.830837	-0.421006
C104	C	0.599351	1.330837	0.078994
C105	C	0.086770	0.818198	-0.578182
C106	C	0.586770	1.318198	-0.078182
N107	N	0.121369	0.852995	0.354068
N108	N	0.621369	1.352995	0.854068
H109	H	0.212754	0.597120	0.000366
H110	H	0.712754	1.097120	0.500366
H111	H	0.138280	0.869985	-0.362650
H112	H	0.638280	1.369985	0.137350
H113	H	0.047834	0.779053	-0.636532
H114	H	0.547834	1.279053	-0.136532
H115	H	-0.134328	0.944208	0.000400
H116	H	0.365672	1.444208	0.500400
H117	H	-0.103421	0.713308	0.000343
H118	H	0.396579	1.213308	0.500343
H119	H	0.210808	0.465013	0.000391
H120	H	0.710808	0.965013	0.500391
H121	H	-0.020083	0.495913	0.000351
H122	H	0.479917	0.995913	0.500351
H123	H	-0.266435	0.942263	0.000434
H124	H	0.233565	1.442263	0.500434
H125	H	0.204274	0.021013	0.000532
H126	H	0.704274	0.521013	0.500532
H127	H	0.160301	0.892144	-0.587584
H128	H	0.660301	1.392144	-0.087584
H129	H	-0.024678	0.184023	0.000444
H130	H	0.475322	0.684023	0.500444
H131	H	-0.235539	0.711368	0.000349
H132	H	0.264461	1.211368	0.500349
H133	H	0.025824	0.756903	-0.411606
H134	H	0.525824	1.256903	0.088394
H135	H	-0.018149	0.628025	0.000270
H136	H	0.481851	1.128025	0.500270
H137	H	-0.026613	0.051920	0.000575
H138	H	0.473387	0.551920	0.500575
H139	H	0.206221	0.153120	0.000497
H140	H	0.706221	0.653120	0.500497
H141	H	-0.578334	0.937670	0.000468
H142	H	-0.078334	1.437670	0.500468
H143	H	-0.710440	0.935724	0.000511
H144	H	-0.210440	1.435724	0.500511
H145	H	-0.679545	0.704826	0.000414
H146	H	-0.179545	1.204826	0.500414
H147	H	-0.547433	0.706770	0.000389
H148	H	-0.047433	1.206770	0.500389
