data_functionalizedCrystal
_audit_creation_method	'MofGen! by Chris Wilmer'
_symmetry_space_group_name_H-M	'P1'
_symmetry_Int_Tables_number	1
_symmetry_cell_setting	triclinic
loop_
_symmetry_equiv_pos_as_xyz
  x,y,z
_cell_length_a	13.032831
_cell_length_b	16.959454
_cell_length_c	13.032268
_cell_angle_alpha	82.849649
_cell_angle_beta	89.113023
_cell_angle_gamma	82.825094
loop_
_atom_site_label
_atom_site_type_symbol
_atom_site_fract_x
_atom_site_fract_y
_atom_site_fract_z
Zn1	Zn	1.498450	-0.533808	0.780847
Zn2	Zn	1.520186	-0.651576	0.608869
Zn3	Zn	1.348310	-0.500789	0.587087
Zn4	Zn	1.326434	-0.647302	0.758994
O5	O	1.423345	-0.583369	0.683949
O6	O	1.645253	-0.565038	0.776295
O7	O	1.515638	-0.619543	0.462063
O8	O	1.368285	-0.394566	0.612819
O9	O	1.661222	-0.651561	0.649944
O10	O	1.478592	-0.418826	0.755173
O11	O	1.389361	-0.508760	0.446059
O12	O	1.201488	-0.504616	0.591629
O13	O	1.331000	-0.644277	0.905810
O14	O	1.185416	-0.612259	0.717929
O15	O	1.457380	-0.560894	0.921865
O16	O	1.494425	-0.761611	0.628754
O17	O	1.352077	-0.758471	0.739051
C18	C	1.156135	-0.554392	0.650045
C19	C	1.041819	-0.542016	0.635565
C20	C	1.423261	-0.788724	0.683921
C21	C	1.423315	-0.876589	0.683955
C22	C	0.982940	-0.589828	0.691506
C23	C	0.864788	-0.577038	0.676542
C24	C	1.349320	-1.246472	0.741386
C25	C	1.497643	-1.249702	0.626654
C26	C	1.497608	-1.167152	0.626640
C27	C	1.423427	-1.124257	0.683998
C28	C	1.349281	-1.163913	0.741371
C29	C	1.571746	-1.127488	0.569260
C30	C	1.571713	-1.044932	0.569243
C31	C	1.497536	-1.002037	0.626608
C32	C	1.423388	-1.041698	0.683984
C33	C	1.349208	-0.998804	0.741342
C34	C	1.275063	-1.038465	0.798724
C35	C	1.275104	-1.121018	0.798736
C36	C	1.497495	-0.919484	0.626597
C37	C	1.349169	-0.916245	0.741327
C38	C	1.691598	-0.612460	0.717986
C39	C	1.805911	-0.624856	0.732491
C40	C	1.389325	-0.605792	0.952197
C41	C	1.374828	-0.615348	1.066508
C42	C	1.423454	-0.377216	0.684004
C43	C	1.423501	-0.289366	0.684027
C44	C	1.457291	-0.560982	0.416753
C45	C	1.471987	-0.551225	0.302467
C46	C	1.430895	-0.578351	1.125415
C47	C	1.415913	-0.588227	1.243562
H48	H	1.020003	-0.640227	0.750482
H49	H	0.827729	-0.526630	0.617570
C50	C	1.460471	-0.463557	1.006305
C51	C	1.510674	-0.525725	1.075426
H52	H	1.509728	-0.431072	0.975442
H53	H	1.410417	-0.431942	1.042540
H54	H	1.427237	-0.485497	0.954046
H55	H	1.543902	-0.503785	1.127691
H56	H	1.560747	-0.557345	1.039191
H57	H	1.356810	-0.627208	1.280591
C58	C	0.963291	-0.692403	0.811528
C59	C	0.855927	-0.692902	0.812111
H60	H	0.994167	-0.734414	0.860678
H61	H	0.978932	-0.642474	0.828907
H62	H	0.989588	-0.699997	0.744605
H63	H	0.829629	-0.685303	0.879033
H64	H	0.840277	-0.742843	0.794739
C65	C	1.711858	-1.234130	0.572516
C66	C	1.653186	-1.174663	0.506144
H67	H	1.762113	-1.263260	0.533527
H68	H	1.667700	-1.269527	0.606733
H69	H	1.745565	-1.209926	0.622290
H70	H	1.619472	-1.198867	0.456374
H71	H	1.697350	-1.139260	0.471910
C72	C	1.295662	-0.667582	1.223860
C73	C	1.295059	-0.667984	1.116493
H74	H	1.246420	-0.700084	1.254715
H75	H	1.278420	-0.614308	1.239513
H76	H	1.362554	-0.688096	1.250167
H77	H	1.228168	-0.647465	1.090185
H78	H	1.312294	-0.721268	1.100832
C79	C	0.884435	-0.474489	0.556515
C80	C	0.991798	-0.473983	0.555936
H81	H	0.853560	-0.432493	0.507345
H82	H	0.858133	-0.466883	0.623423
H83	H	0.868802	-0.524433	0.539152
H84	H	1.007432	-0.424042	0.573307
H85	H	1.018109	-0.481583	0.489014
H86	H	1.214739	-1.153317	0.845452
H87	H	1.531079	-0.512233	1.265438
C88	C	1.637519	-0.919822	0.518274
C89	C	1.653213	-1.001341	0.506175
H90	H	1.687831	-0.892911	0.479334
H91	H	1.643747	-0.913681	0.589279
H92	H	1.570337	-0.897588	0.494396
H93	H	1.720392	-1.023576	0.530060
H94	H	1.646994	-1.007487	0.435155
H95	H	1.288765	-0.881326	0.788040
H96	H	1.558032	-1.284630	0.579948
C97	C	1.209154	-0.910475	0.849633
C98	C	1.193526	-0.991309	0.861773
H99	H	1.158821	-0.881364	0.888561
H100	H	1.202912	-0.889576	0.778621
H101	H	1.276326	-0.905665	0.873501
H102	H	1.126356	-0.996120	0.837897
H103	H	1.199759	-1.012214	0.932800
H104	H	1.288956	-1.278768	0.788108
H105	H	1.557858	-0.887195	0.579871
