data_functionalizedCrystal
_audit_creation_method	'MofGen! by Chris Wilmer'
_symmetry_space_group_name_H-M	'P1'
_symmetry_Int_Tables_number	1
_symmetry_cell_setting	triclinic
loop_
_symmetry_equiv_pos_as_xyz
  x,y,z
_cell_length_a	14.853567
_cell_length_b	27.732048
_cell_length_c	13.330367
_cell_angle_alpha	89.990394
_cell_angle_beta	89.995418
_cell_angle_gamma	83.138793
loop_
_atom_site_label
_atom_site_type_symbol
_atom_site_fract_x
_atom_site_fract_y
_atom_site_fract_z
O1	O	1.195342	0.063107	-0.083366
O2	O	1.695342	0.563107	0.416634
O3	O	0.932760	0.070624	-0.083384
O4	O	1.432760	0.570624	0.416616
O5	O	1.072207	-0.003493	-0.083355
O6	O	1.572207	0.496507	0.416645
O7	O	1.055896	0.137224	-0.083395
O8	O	1.555896	0.637224	0.416605
O9	O	1.072187	-0.003495	0.083492
O10	O	1.572187	0.496505	0.583492
O11	O	0.932740	0.070622	0.083463
O12	O	1.432740	0.570622	0.583463
O13	O	1.195322	0.063105	0.083481
O14	O	1.695322	0.563105	0.583481
Cu15	Cu	1.064029	0.066864	0.098707
Cu16	Cu	1.564029	0.566864	0.598707
Cu17	Cu	1.064053	0.066865	-0.098609
Cu18	Cu	1.564053	0.566865	0.401391
O19	O	1.055876	0.137222	0.083453
O20	O	1.555876	0.637222	0.583453
C21	C	0.899167	0.070283	0.000037
C22	C	1.399167	0.570283	0.500037
C23	C	0.799100	0.069262	0.000031
C24	C	1.299100	0.569262	0.500031
C25	C	0.387353	0.020920	0.000067
C26	C	0.887353	0.520920	0.500067
C27	C	0.364639	0.108973	0.000041
C28	C	0.864639	0.608973	0.500041
C29	C	0.458657	0.109933	0.000038
C30	C	0.958657	0.609933	0.500038
C31	C	0.517028	0.066385	0.000047
C32	C	1.017028	0.566385	0.500047
C33	C	0.481380	0.021878	0.000061
C34	C	0.981380	0.521878	0.500061
C35	C	0.494313	0.154439	0.000015
C36	C	0.994313	0.654439	0.500015
C37	C	0.588336	0.155401	0.000010
C38	C	1.088336	0.655401	0.500010
C39	C	0.646708	0.111853	0.000027
C40	C	1.146708	0.611853	0.500027
C41	C	0.611055	0.067344	0.000041
C42	C	1.111055	0.567344	0.500041
C43	C	0.669425	0.023796	0.000051
C44	C	1.169425	0.523796	0.500051
C45	C	0.633774	-0.020713	0.000072
C46	C	1.133774	0.479287	0.500072
C47	C	0.539752	-0.021670	0.000077
C48	C	1.039752	0.478330	0.500077
C49	C	0.740730	0.112809	0.000021
C50	C	1.240730	0.612809	0.500021
C51	C	0.763452	0.024755	0.000044
C52	C	1.263452	0.524755	0.500044
C53	C	1.071854	-0.021503	0.000071
C54	C	1.571854	0.478497	0.500071
C55	C	1.070823	-0.075162	0.000079
C56	C	1.570823	0.424838	0.500079
C57	C	1.146736	-0.413622	0.000033
C58	C	1.646736	0.086378	0.500033
C59	C	1.142911	-0.615300	0.000019
C60	C	1.642911	-0.115300	0.500019
O61	O	1.212328	-0.646231	-0.000020
O62	O	1.712328	-0.146231	0.499980
N63	N	1.060225	-0.634810	0.000014
N64	N	1.560225	-0.134810	0.500014
C65	C	0.978490	-0.603898	0.000006
C66	C	1.478490	-0.103898	0.500006
O67	O	0.908073	-0.625120	-0.000009
O68	O	1.408073	-0.125120	0.499991
C69	C	0.982316	-0.402221	0.000013
C70	C	1.482316	0.097779	0.500013
C71	C	1.065007	-0.382714	0.000028
C72	C	1.565007	0.117286	0.500028
C73	C	1.229421	-0.394114	0.000047
C74	C	1.729421	0.105886	0.500047
C75	C	1.230376	-0.343698	0.000056
C76	C	1.730376	0.156302	0.500056
C77	C	1.148647	-0.312790	0.000051
C78	C	1.648647	0.187210	0.500051
C79	C	1.065963	-0.332298	0.000037
C80	C	1.565963	0.167702	0.500037
C81	C	0.900582	-0.371310	-0.000002
C82	C	1.400582	0.128690	0.499998
C83	C	0.901546	-0.320888	-0.000003
C84	C	1.401546	0.179112	0.499997
C85	C	0.984237	-0.301381	0.000012
C86	C	1.484237	0.198619	0.500012
C87	C	0.985189	-0.250973	0.000041
C88	C	1.485189	0.249027	0.500041
N89	N	1.067875	-0.231462	0.000046
N90	N	1.567875	0.268538	0.500046
C91	C	1.149604	-0.262371	0.000051
C92	C	1.649604	0.237629	0.500051
C93	C	0.976487	-0.709781	0.000004
C94	C	1.476487	-0.209781	0.500004
C95	C	0.975530	-0.760200	0.000004
C96	C	1.475530	-0.260200	0.500004
C97	C	1.139952	-0.771599	0.000015
C98	C	1.639952	-0.271599	0.500015
C99	C	1.140908	-0.721179	0.000022
C100	C	1.640908	-0.221179	0.500022
C101	C	1.059173	-0.690271	0.000009
C102	C	1.559173	-0.190271	0.500009
C103	C	1.151604	-0.156492	0.000071
C104	C	1.651604	0.343508	0.500071
C105	C	1.152552	-0.106071	0.000084
C106	C	1.652552	0.393929	0.500084
C107	C	0.988131	-0.094677	0.000068
C108	C	1.488131	0.405323	0.500068
C109	C	0.987183	-0.145094	0.000060
C110	C	1.487183	0.354906	0.500060
C111	C	1.068926	-0.176001	0.000058
C112	C	1.568926	0.323999	0.500058
O113	O	0.915809	-0.220013	0.000069
O114	O	1.415809	0.279987	0.500069
O115	O	1.220011	-0.241139	0.000044
O116	O	1.720011	0.258861	0.500044
C117	C	1.145781	-0.464039	0.000024
C118	C	1.645781	0.035961	0.500024
C119	C	1.063097	-0.483547	0.000010
C120	C	1.563097	0.016453	0.500010
C121	C	0.981367	-0.452638	0.000005
C122	C	1.481367	0.047362	0.500005
C123	C	1.062140	-0.533966	0.000010
C124	C	1.562140	-0.033966	0.500010
C125	C	1.143869	-0.564874	0.000015
C126	C	1.643869	-0.064874	0.500015
C127	C	1.226555	-0.545364	0.000020
C128	C	1.726555	-0.045364	0.500020
C129	C	1.227510	-0.494947	0.000029
C130	C	1.727510	0.005053	0.500029
C131	C	0.898682	-0.472149	0.000000
C132	C	1.398682	0.027851	0.500000
C133	C	0.897733	-0.522566	-0.000008
C134	C	1.397733	-0.022566	0.499992
C135	C	0.979462	-0.553474	-0.000003
C136	C	1.479462	-0.053474	0.499997
C137	C	1.228915	0.063446	0.000058
C138	C	1.728915	0.563446	0.500058
C139	C	1.328982	0.064467	0.000057
C140	C	1.828982	0.564467	0.500057
C141	C	1.056228	0.155232	0.000024
C142	C	1.556228	0.655232	0.500024
C143	C	1.057259	0.208891	0.000009
C144	C	1.557259	0.708891	0.500009
N145	N	1.064019	0.066862	0.237488
N146	N	1.564019	0.566862	0.737488
N147	N	1.064070	0.066863	-0.237391
N148	N	1.564070	0.566863	0.262609
C149	C	1.002304	0.099672	0.710098
C150	C	1.502304	0.599672	1.210098
C151	C	1.125827	0.034055	0.710092
C152	C	1.625827	0.534055	1.210092
C153	C	1.125817	0.034054	0.605074
C154	C	1.625817	0.534054	1.105074
C155	C	1.064050	0.066862	0.552563
C156	C	1.564050	0.566862	1.052563
C157	C	1.002294	0.099672	0.605070
C158	C	1.502294	0.599672	1.105070
C159	C	1.187578	0.001248	0.552558
C160	C	1.687578	0.501248	1.052558
C161	C	1.187571	0.001246	0.447533
C162	C	1.687571	0.501246	0.947533
C163	C	1.125799	0.034052	0.395021
C164	C	1.625799	0.534052	0.895021
C165	C	1.064040	0.066863	0.447535
C166	C	1.564040	0.566863	0.947535
C167	C	1.002273	0.099671	0.395024
C168	C	1.502273	0.599671	0.895024
C169	C	0.940509	0.132480	0.447536
C170	C	1.440509	0.632480	0.947536
C171	C	0.940522	0.132479	0.552557
C172	C	1.440522	0.632479	1.052557
C173	C	1.125786	0.034053	0.289999
C174	C	1.625786	0.534053	0.789999
C175	C	1.002263	0.099672	0.289996
C176	C	1.502263	0.599672	0.789996
H177	H	0.446781	0.189893	-0.000003
H178	H	0.946781	0.689893	0.499997
F179	F	0.936569	0.134586	0.765983
F180	F	1.436569	0.634586	1.265983
F181	F	0.501802	-0.069035	0.000096
F182	F	1.001802	0.430965	0.500096
H183	H	0.919849	-0.160977	0.000076
H184	H	1.419849	0.339023	0.500076
F185	F	0.626270	0.202771	-0.000011
F186	F	1.126270	0.702771	0.499989
F187	F	1.313537	-0.578268	0.000031
F188	F	1.813537	-0.078268	0.500031
H189	H	1.237862	-0.025469	0.404785
H190	H	1.737862	0.474531	0.904785
F191	F	0.778669	0.160176	-0.000009
F192	F	1.278669	0.660176	0.499991
H193	H	1.176078	0.007343	0.247249
H194	H	1.676078	0.507343	0.747249
F195	F	0.889488	-0.676892	-0.000010
F196	F	1.389488	-0.176892	0.499990
F197	F	0.825568	-0.021596	0.000061
F198	F	1.325568	0.478404	0.500061
H199	H	0.681311	-0.056169	0.000073
H200	H	1.181311	0.443831	0.500073
F201	F	0.812569	-0.392060	-0.000022
F202	F	1.312569	0.107940	0.499978
F203	F	0.349410	-0.026448	0.000094
F204	F	0.849410	0.473552	0.500094
F205	F	0.302516	0.155316	0.000019
F206	F	0.802516	0.655316	0.500019
H207	H	1.237871	-0.025461	0.595316
H208	H	1.737871	0.474539	1.095316
H209	H	1.219892	-0.090191	0.000099
H210	H	1.719892	0.409809	0.500099
H211	H	1.218168	-0.181651	0.000066
H212	H	1.718168	0.318349	0.500066
F213	F	1.318388	-0.322943	0.000050
F214	F	1.818388	0.177057	0.500050
H215	H	1.295978	-0.419276	0.000047
H216	H	1.795978	0.080724	0.500047
F217	F	0.874795	0.167395	0.608448
F218	F	1.374795	0.667395	1.108448
F219	F	1.228918	-0.700422	0.000038
F220	F	1.728918	-0.200422	0.500038
H221	H	1.206499	-0.796773	0.000020
H222	H	1.706499	-0.296773	0.500020
H223	H	0.890222	0.159195	0.404769
H224	H	1.390222	0.659195	0.904769
F225	F	0.887519	-0.780956	0.000006
F226	F	1.387519	-0.280956	0.500006
H227	H	1.176120	0.007346	0.752850
H228	H	1.676120	0.507346	1.252850
H229	H	0.830391	-0.538443	-0.000011
H230	H	1.330391	-0.038443	0.499989
F231	F	0.811689	-0.439260	-0.000008
F232	F	1.311689	0.060740	0.499992
F233	F	0.814550	-0.287996	-0.000019
F234	F	1.314550	0.212004	0.499981
F235	F	0.901154	-0.061773	0.000063
F236	F	1.401154	0.438227	0.500063
H237	H	1.294846	-0.479069	0.000041
H238	H	1.794846	0.020931	0.500041
H239	H	0.951962	0.126387	0.247248
H240	H	1.451962	0.626387	0.747248
