data_functionalizedCrystal
_audit_creation_method	'MofGen! by Chris Wilmer'
_symmetry_space_group_name_H-M	'P1'
_symmetry_Int_Tables_number	1
_symmetry_cell_setting	triclinic
loop_
_symmetry_equiv_pos_as_xyz
  x,y,z
_cell_length_a	16.992694
_cell_length_b	17.038272
_cell_length_c	15.455313
_cell_angle_alpha	92.858370
_cell_angle_beta	87.142206
_cell_angle_gamma	90.889890
loop_
_atom_site_label
_atom_site_type_symbol
_atom_site_fract_x
_atom_site_fract_y
_atom_site_fract_z
O1	O	1.054714	0.163265	-0.072022
O2	O	0.826308	0.161438	-0.072048
O3	O	0.939153	0.048451	-0.072029
O4	O	0.941869	0.276252	-0.072042
O5	O	0.932698	0.054884	0.072232
O6	O	0.819853	0.167870	0.072213
O7	O	1.048259	0.169698	0.072239
Cu8	Cu	0.933466	0.169371	0.085398
Cu9	Cu	0.941100	0.161764	-0.085207
O10	O	0.935414	0.282684	0.072219
C11	C	0.793711	0.162304	0.000079
C12	C	0.706200	0.155293	0.000070
C13	C	0.660471	0.222933	0.000066
C14	C	0.578245	0.216342	0.000079
C15	C	0.541748	0.142110	0.000088
C16	C	0.587482	0.074465	0.000094
C17	C	0.669707	0.081058	0.000088
C18	C	0.296326	0.114789	0.000113
C19	C	0.214095	0.108202	0.000117
C20	C	0.204863	0.250079	0.000103
C21	C	0.287091	0.256665	0.000091
C22	C	0.332818	0.189020	0.000102
N23	N	0.457699	0.135371	0.000098
N24	N	0.416865	0.195760	0.000098
C25	C	0.933456	0.022384	0.000102
C26	C	0.926089	-0.064871	0.000101
C27	C	0.993729	-0.110741	0.000109
C28	C	0.986802	-0.192726	0.000100
C29	C	0.912235	-0.228840	0.000089
C30	C	0.844590	-0.182964	0.000078
C31	C	0.851518	-0.100981	0.000080
C32	C	0.887761	-0.476134	0.000074
C33	C	0.880838	-0.558124	0.000074
C34	C	1.023051	-0.567881	0.000095
C35	C	1.029972	-0.485895	0.000103
C36	C	0.962327	-0.440026	0.000087
C37	C	0.905153	-0.312642	0.000082
C38	C	0.969410	-0.356226	0.000087
C39	C	1.080856	0.168831	0.000109
C40	C	1.168367	0.175842	0.000113
C41	C	0.941110	0.308751	0.000087
C42	C	0.948478	0.396006	0.000082
N43	N	0.928103	0.174722	0.205393
N44	N	0.946469	0.156408	-0.205202
C45	C	0.976063	0.126741	0.250795
C46	C	0.972014	0.130795	0.341602
C47	C	0.920010	0.182835	0.387005
C48	C	0.872045	0.230817	0.341597
C49	C	0.876090	0.226759	0.250791
C50	C	0.902549	0.200332	0.658584
C51	C	0.898510	0.204388	0.749396
C52	C	0.998479	0.104365	0.749395
C53	C	1.002522	0.100314	0.658588
C54	C	0.954554	0.148294	0.613187
N55	N	0.915872	0.186981	0.479825
N56	N	0.958688	0.144143	0.520369
H57	H	0.541016	0.271422	0.000075
Br58	Br	1.070606	-0.307213	0.000095
Br59	Br	0.803957	-0.361661	0.000059
H60	H	0.167624	0.305152	0.000096
H61	H	1.090692	-0.456497	0.000112
Br62	Br	0.164564	0.007452	0.000148
H63	H	0.316801	0.317112	0.000074
H64	H	1.037531	0.065301	0.786369
H65	H	0.333548	0.059707	0.000122
H66	H	0.829697	0.273186	0.378569
Br67	Br	0.537952	-0.026279	0.000116
H68	H	0.783876	-0.212375	0.000063
H69	H	1.041882	-0.230070	0.000109
Br70	Br	1.037100	0.065675	0.403223
H71	H	0.863493	0.239400	0.621625
H72	H	0.706939	0.025978	0.000090
H73	H	1.054449	-0.081343	0.000124
H74	H	0.832680	-0.438798	0.000062
H75	H	0.690181	0.283381	0.000058
Br76	Br	1.114849	-0.630134	0.000116
H77	H	0.820113	-0.587524	0.000079
H78	H	0.796438	-0.063634	0.000073
H79	H	0.837035	0.265828	0.213825
H80	H	1.018414	0.084369	0.213834
H81	H	1.044869	0.057940	0.621622
H82	H	0.856159	0.246768	0.786359
