data_functionalizedCrystal
_audit_creation_method	'MofGen! by Chris Wilmer'
_symmetry_space_group_name_H-M	'P1'
_symmetry_Int_Tables_number	1
_symmetry_cell_setting	triclinic
loop_
_symmetry_equiv_pos_as_xyz
  x,y,z
_cell_length_a	15.995350
_cell_length_b	9.730223
_cell_length_c	10.654550
_cell_angle_alpha	90.006075
_cell_angle_beta	83.988653
_cell_angle_gamma	90.000637
loop_
_atom_site_label
_atom_site_type_symbol
_atom_site_fract_x
_atom_site_fract_y
_atom_site_fract_z
O1	O	1.111925	0.114173	0.161876
O2	O	0.868266	0.114201	0.181865
O3	O	0.995698	0.114178	-0.010942
O4	O	0.984493	0.114196	0.354683
O5	O	0.995687	-0.114402	-0.010954
O6	O	0.868256	-0.114379	0.181853
O7	O	1.111915	-0.114407	0.161864
Zn8	Zn	0.990084	-0.150685	0.171857
Zn9	Zn	0.990097	0.150479	0.171872
O10	O	0.984483	-0.114384	0.354671
C11	C	0.837061	-0.000085	0.181033
C12	C	0.744096	-0.000075	0.178555
N13	N	0.990081	-0.356221	0.171846
C14	C	0.938881	-0.572082	0.095655
C15	C	0.938870	-0.428199	0.095638
C16	C	1.041312	-0.428134	0.248067
C17	C	1.041327	-0.572014	0.248077
C18	C	0.406297	-0.000104	0.169658
C19	C	0.452934	-0.000621	0.032344
C20	C	0.549639	-0.000096	0.034822
C21	C	0.573883	-0.000090	0.174071
C22	C	0.533195	0.130438	0.241806
C23	C	0.436540	0.130538	0.238356
C24	C	0.436206	-0.129400	0.241180
C25	C	0.533151	-0.131116	0.241147
C26	C	0.668595	-0.000078	0.176573
C27	C	0.311585	-0.000107	0.167161
C28	C	1.143119	-0.000118	0.162696
C29	C	1.236084	-0.000119	0.165174
C30	C	0.994870	-0.000111	-0.057735
C31	C	0.992409	-0.000109	-0.197146
N32	N	0.990107	0.356015	0.171873
C33	C	1.067438	-0.000117	-0.277612
C34	C	1.065121	-0.000100	-0.408602
C35	C	0.912737	-0.000072	-0.378649
C36	C	0.915055	-0.000080	-0.247661
C37	C	0.985311	-0.000091	0.401464
C38	C	0.987772	-0.000085	0.540875
H39	H	0.897174	-0.630676	0.033604
F40	F	0.884345	-0.351681	0.014521
H41	H	1.083013	-0.369518	0.310111
F42	F	0.553999	-0.141415	0.373878
H43	H	1.083046	-0.630559	0.310144
F44	F	0.586390	-0.122395	-0.034771
F45	F	1.144978	-0.000106	-0.494235
H46	H	0.433027	0.092465	-0.022286
H47	H	0.547915	0.135296	0.344109
F48	F	0.428298	-0.122973	-0.039404
F49	F	0.830416	-0.000041	-0.432421
F50	F	0.395461	-0.130550	0.373508
F51	F	0.585630	0.122606	-0.034943
H52	H	1.130424	-0.000138	-0.236488
F53	F	0.412238	0.258066	0.173806
H54	H	0.561301	0.227576	0.194770
H55	H	0.560176	-0.227680	0.191702
H56	H	0.404877	0.136465	0.339170
F57	F	0.835194	-0.000061	-0.162017
F58	F	0.409022	-0.258720	0.182495
