data_functionalizedCrystal
_audit_creation_method	'MofGen! by Chris Wilmer'
_symmetry_space_group_name_H-M	'P1'
_symmetry_Int_Tables_number	1
_symmetry_cell_setting	triclinic
loop_
_symmetry_equiv_pos_as_xyz
  x,y,z
_cell_length_a	13.033293
_cell_length_b	17.637651
_cell_length_c	13.032268
_cell_angle_alpha	84.482255
_cell_angle_beta	89.079182
_cell_angle_gamma	106.685376
loop_
_atom_site_label
_atom_site_type_symbol
_atom_site_fract_x
_atom_site_fract_y
_atom_site_fract_z
Zn1	Zn	1.442373	-0.244398	-0.708953
Zn2	Zn	1.438207	-0.357287	-0.503479
Zn3	Zn	1.293185	-0.240249	-0.516360
Zn4	Zn	1.236942	-0.390034	-0.643800
O5	O	1.352677	-0.307992	-0.593148
O6	O	1.588486	-0.247404	-0.703572
O7	O	1.440764	-0.326320	-0.365861
O8	O	1.338256	-0.130870	-0.574566
O9	O	1.585425	-0.330343	-0.552611
O10	O	1.447863	-0.133917	-0.716063
O11	O	1.334217	-0.240334	-0.375325
O12	O	1.139059	-0.272087	-0.511389
O13	O	1.242399	-0.386156	-0.791769
O14	O	1.097738	-0.382133	-0.605019
O15	O	1.393327	-0.279157	-0.839637
O16	O	1.386228	-0.471560	-0.489435
O17	O	1.238360	-0.495620	-0.592529
C18	C	1.080369	-0.330214	-0.552533
C19	C	0.963867	-0.339743	-0.535175
C20	C	0.913408	-0.303039	-0.602201
C21	C	0.792997	-0.312886	-0.584263
C22	C	1.305764	-0.512094	-0.532540
C23	C	1.285785	-0.599405	-0.506659
C24	C	1.505086	-0.894260	-0.790177
C25	C	1.486282	-0.976303	-0.765836
C26	C	1.372256	-0.973216	-0.618385
C27	C	1.391055	-0.891170	-0.642711
C28	C	1.457469	-0.851699	-0.728609
C29	C	1.343438	-0.848609	-0.581143
C30	C	1.362231	-0.766571	-0.605470
C31	C	1.428640	-0.727094	-0.691366
C32	C	1.476262	-0.769661	-0.752936
C33	C	1.277018	-0.888083	-0.495249
C34	C	1.229401	-0.845522	-0.433681
C35	C	1.248200	-0.763481	-0.458004
C36	C	1.314609	-0.724004	-0.543900
C37	C	1.200578	-0.720915	-0.396433
C38	C	1.219370	-0.638877	-0.420761
C39	C	1.333402	-0.641966	-0.568227
C40	C	1.626048	-0.285683	-0.633922
C41	C	1.742542	-0.276177	-0.651298
C42	C	1.312054	-0.336772	-0.852839
C43	C	1.294743	-0.349037	-0.963503
C44	C	1.399798	-0.103093	-0.654019
C45	C	1.419878	-0.015777	-0.679958
C46	C	1.361702	-0.301564	-1.036525
C47	C	1.343812	-0.314239	-1.150903
C48	C	1.393215	-0.279262	-0.334493
C49	C	1.410780	-0.266759	-0.223925
H50	H	0.788483	-0.237455	-0.721963
H51	H	1.530353	-0.737521	-0.822877
H52	H	1.432269	-0.251535	-1.014364
H53	H	1.525045	-1.010957	-0.815991
Cl54	Cl	1.234843	-0.391479	-1.185103
Cl55	Cl	0.892942	-0.399511	-0.426068
H56	H	1.481351	-0.216725	-1.201772
H57	H	0.959355	-0.264322	-0.672862
Cl58	Cl	1.117070	-0.770548	-0.288465
H59	H	1.224167	-0.399059	-0.985665
Cl60	Cl	0.722076	-0.372657	-0.475151
H61	H	1.443940	-0.660294	-0.711171
H62	H	1.175323	-0.877671	-0.363745
Cl63	Cl	1.416911	-0.592337	-0.676205
Cl64	Cl	1.588595	-0.844630	-0.898155
Cl65	Cl	1.288758	-1.022846	-0.510409
H66	H	1.261708	-0.954885	-0.475453
H67	H	1.180595	-0.604223	-0.370626
