data_functionalizedCrystal
_audit_creation_method	'MofGen! by Chris Wilmer'
_symmetry_space_group_name_H-M	'P1'
_symmetry_Int_Tables_number	1
_symmetry_cell_setting	triclinic
loop_
_symmetry_equiv_pos_as_xyz
  x,y,z
_cell_length_a	10.489741
_cell_length_b	10.540539
_cell_length_c	9.616153
_cell_angle_alpha	89.999906
_cell_angle_beta	89.995808
_cell_angle_gamma	84.532333
loop_
_atom_site_label
_atom_site_type_symbol
_atom_site_fract_x
_atom_site_fract_y
_atom_site_fract_z
O1	O	1.694037	0.179098	-0.115552
O2	O	1.322839	0.195909	-0.115573
O3	O	1.516907	0.002798	-0.115561
O4	O	1.499970	0.372209	-0.115565
O5	O	1.516880	0.002802	0.115731
O6	O	1.322813	0.195913	0.115718
O7	O	1.694010	0.179102	0.115739
Zn8	Zn	1.508407	0.187508	0.152451
Zn9	Zn	1.508442	0.187503	-0.152285
O10	O	1.499943	0.372213	0.115726
C11	C	1.515623	-0.044503	0.000082
C12	C	1.511823	-0.185452	0.000075
C13	C	1.275294	0.194641	0.000070
C14	C	1.133665	0.190843	0.000061
C15	C	1.366206	-0.368896	-0.000453
C16	C	1.370058	-0.222277	0.000068
C17	C	1.580031	-0.247099	0.132157
C18	C	1.575193	-0.393644	0.132268
C19	C	1.578107	-0.394167	-0.130753
C20	C	1.579413	-0.247185	-0.132499
C21	C	1.065540	0.067971	0.000076
C22	C	0.973419	0.126013	-0.113961
C23	C	0.973427	0.126046	0.114075
C24	C	1.043410	0.248934	-0.114069
C25	C	1.043427	0.248950	0.114068
C26	C	0.951334	0.307081	0.000004
C27	C	1.741555	0.180369	0.000093
C28	C	1.883184	0.184168	0.000092
C29	C	1.501226	0.419514	0.000080
C30	C	1.505026	0.560463	0.000079
N31	N	1.508392	0.187511	0.360426
N32	N	1.508467	0.187490	-0.360260
C33	C	1.404262	0.290466	0.580789
C34	C	1.404491	0.290852	0.419621
C35	C	1.641757	0.217660	0.418882
C36	C	1.641190	0.218389	0.580100
C37	C	1.480486	0.054069	0.580337
C38	C	1.477425	0.054933	0.419110
H39	H	1.316387	-0.179682	-0.094614
Cl40	Cl	1.279835	-0.416085	0.144527
H41	H	1.666775	0.313901	0.378492
H42	H	1.115242	-0.033036	-0.000066
Cl43	Cl	1.333486	0.009796	0.643174
Cl44	Cl	1.432209	0.443693	0.360047
H45	H	0.942444	0.074036	0.210484
Cl46	Cl	0.925564	0.045748	-0.262813
H47	H	1.556463	-0.022577	0.618458
H48	H	1.074243	0.300881	-0.210587
Cl49	Cl	1.736196	-0.467063	-0.132121
Cl50	Cl	0.875001	0.463190	-0.000089
H51	H	1.074456	0.300899	0.210483
Cl52	Cl	1.678970	0.368675	0.638140
Cl53	Cl	1.764482	0.106970	0.640311
H54	H	1.379315	0.032081	0.380904
Cl55	Cl	1.507273	-0.442873	-0.285317
Cl56	Cl	1.251476	0.262924	0.358599
H57	H	1.304859	0.272601	0.619594
H58	H	1.532628	-0.204503	0.230443
H59	H	1.422015	0.388891	0.621287
H60	H	1.548292	-0.025379	0.378820
H61	H	1.721194	0.144706	0.380535
H62	H	1.310216	-0.397504	-0.095172
H63	H	1.315989	-0.180526	0.094902
H64	H	1.524761	-0.421848	0.230997
Cl65	Cl	1.503005	-0.183366	-0.283383
H66	H	1.682771	-0.222951	-0.140469
H67	H	1.677148	-0.441600	0.138266
H68	H	1.684139	-0.224732	0.137074
