data_functionalizedCrystal
_audit_creation_method	'MofGen! by Chris Wilmer'
_symmetry_space_group_name_H-M	'P1'
_symmetry_Int_Tables_number	1
_symmetry_cell_setting	triclinic
loop_
_symmetry_equiv_pos_as_xyz
  x,y,z
_cell_length_a	10.489741
_cell_length_b	12.503572
_cell_length_c	14.044191
_cell_angle_alpha	93.847901
_cell_angle_beta	88.865475
_cell_angle_gamma	86.448361
loop_
_atom_site_label
_atom_site_type_symbol
_atom_site_fract_x
_atom_site_fract_y
_atom_site_fract_z
O1	O	1.714363	-0.089245	0.128403
O2	O	1.344443	-0.089261	0.140965
O3	O	1.523846	-0.089255	-0.003339
O4	O	1.534960	-0.089251	0.272707
O5	O	1.510356	0.089386	0.007532
O6	O	1.330953	0.089381	0.151835
O7	O	1.700873	0.089397	0.139274
Cu8	Cu	1.514681	0.105700	0.146547
Cu9	Cu	1.530635	-0.105564	0.133691
O10	O	1.521470	0.089391	0.283577
C11	C	1.290070	0.000058	0.145451
C12	C	1.148153	0.000051	0.142612
N13	N	1.503470	0.254292	0.155589
N14	N	1.541856	-0.254156	0.124642
C15	C	1.070697	0.000060	0.050796
C16	C	0.989622	-0.088017	0.088809
C17	C	0.976358	0.088110	0.099549
C18	C	1.068953	-0.088098	0.180659
C19	C	1.055691	0.088108	0.191390
C20	C	0.974652	0.000010	0.229469
C21	C	1.755246	0.000076	0.134787
C22	C	1.897164	0.000075	0.137626
C23	C	1.512239	0.000063	-0.033252
C24	C	1.497737	0.000054	-0.138577
C25	C	1.486978	0.473407	0.168897
C26	C	1.558344	0.526736	0.111337
C27	C	1.549168	0.648659	0.118742
C28	C	1.496153	0.351473	0.161493
C29	C	1.533077	0.000071	0.313490
C30	C	1.547580	0.000073	0.418815
C31	C	1.471236	0.000060	0.668579
C32	C	1.574075	0.000066	0.611653
C33	C	1.559330	0.000070	0.504348
C34	C	1.485979	0.000057	0.775894
H35	H	0.960289	-0.162482	0.045429
O36	O	1.648411	0.465936	0.038692
H37	H	1.641587	0.378326	0.044204
O38	O	1.396933	0.534206	0.241548
H39	H	1.403782	0.621815	0.236043
H40	H	0.935814	0.162572	0.065214
O41	O	1.339950	0.000065	0.626392
H42	H	1.266881	0.000057	0.684644
O43	O	1.705374	0.000084	0.653833
H44	H	1.696505	0.000093	0.732719
H45	H	1.112737	-0.000051	-0.024690
H46	H	1.109349	-0.162644	0.214942
H47	H	0.932898	-0.000037	0.305025
H48	H	1.085052	0.162576	0.234740
