data_functionalizedCrystal
_audit_creation_method	'MofGen! by Chris Wilmer'
_symmetry_space_group_name_H-M	'P1'
_symmetry_Int_Tables_number	1
_symmetry_cell_setting	triclinic
loop_
_symmetry_equiv_pos_as_xyz
  x,y,z
_cell_length_a	21.395364
_cell_length_b	12.645330
_cell_length_c	12.645331
_cell_angle_alpha	90.012816
_cell_angle_beta	90.009812
_cell_angle_gamma	90.027597
loop_
_atom_site_label
_atom_site_type_symbol
_atom_site_fract_x
_atom_site_fract_y
_atom_site_fract_z
Zn1	Zn	0.957847	-0.421757	0.599425
Zn2	Zn	0.957809	-0.599001	0.422159
Zn3	Zn	0.853089	-0.421798	0.422170
Zn4	Zn	0.853064	-0.599025	0.599374
O5	O	0.905452	-0.510395	0.510782
O6	O	1.045520	-0.445241	0.575927
O7	O	0.943912	-0.575501	0.273813
O8	O	0.867011	-0.273445	0.445709
O9	O	1.045492	-0.575461	0.445690
O10	O	0.943976	-0.273415	0.575938
O11	O	0.866975	-0.445311	0.273821
O12	O	0.765407	-0.445335	0.445660
O13	O	0.866969	-0.575502	0.747728
O14	O	0.765389	-0.575542	0.575851
O15	O	0.943952	-0.445264	0.747765
O16	O	0.943888	-0.747351	0.445641
O17	O	0.866932	-0.747369	0.575840
C18	C	0.742664	-0.510446	0.510752
C19	C	0.673023	-0.510494	0.510765
C20	C	0.640347	-0.442799	0.578684
C21	C	0.574911	-0.442771	0.578688
C22	C	0.542155	-0.510457	0.510784
C23	C	0.574839	-0.578156	0.442852
C24	C	0.640273	-0.578175	0.442842
C25	C	0.438450	-0.605924	0.502267
C26	C	0.373017	-0.605908	0.502284
C27	C	0.340334	-0.510398	0.510808
C28	C	0.373093	-0.414903	0.519336
C29	C	0.438527	-0.414922	0.519326
C30	C	0.471202	-0.510443	0.510786
C31	C	0.236705	-0.442667	0.578735
C32	C	0.171269	-0.442637	0.578731
C33	C	0.171198	-0.578032	0.442901
C34	C	0.236633	-0.578052	0.442898
C35	C	0.269383	-0.510371	0.510821
C36	C	0.905421	-0.785825	0.510757
C37	C	0.905465	-0.903655	0.510782
C38	C	0.953800	-1.071163	0.428707
C39	C	0.953957	-0.948603	0.428908
C40	C	0.923358	-0.948057	0.622526
C41	C	0.923742	-1.070654	0.622091
C42	C	0.839217	-1.071004	0.482213
C43	C	0.839534	-0.948399	0.479707
C44	C	1.068875	-0.510344	0.510812
C45	C	1.138517	-0.510322	0.510825
C46	C	0.905462	-0.510381	0.787287
C47	C	0.905466	-0.510376	0.905117
C48	C	0.905501	-0.233890	0.510830
C49	C	0.905521	-0.116060	0.510851
C50	C	0.954063	-0.428742	1.072705
C51	C	0.953923	-0.428402	0.950145
C52	C	0.839451	-0.480063	0.949597
C53	C	0.839730	-0.479488	1.072195
C54	C	0.922299	-0.622581	1.072311
C55	C	0.923759	-0.621971	0.949705
C56	C	0.905445	-0.510424	1.235352
C57	C	0.905461	-0.510407	1.117522
H58	H	0.346484	-0.337130	0.526276
H59	H	0.822942	-1.102001	0.402148
H60	H	0.886903	-0.683429	1.101301
H61	H	0.824927	-0.398958	0.918905
H62	H	0.465054	-0.683705	0.495326
Br63	Br	1.003224	-0.896720	0.663638
H64	H	0.972207	-1.099152	0.646349
Br65	Br	0.328565	-0.735508	0.490733
H66	H	0.890117	-1.100352	0.685403
Br67	Br	0.817040	-0.900041	0.342646
H68	H	0.667008	-0.387687	0.633991
Br69	Br	0.866528	-0.899550	0.727273
H70	H	0.803245	-1.100043	0.542042
H71	H	0.548301	-0.387641	0.633994
H72	H	0.890942	-0.686066	0.919051
Br73	Br	1.004734	-0.660072	0.901264
H74	H	0.263238	-0.633181	0.387596
Br75	Br	0.482983	-0.285329	0.530896
H76	H	0.263372	-0.387551	0.634035
H77	H	1.002874	-0.447381	0.920073
H78	H	0.801624	-0.917815	0.535150
Br79	Br	0.530386	-0.670008	0.350687
H80	H	0.802286	-0.536383	1.101841
H81	H	0.144665	-0.387506	0.634038
Br82	Br	0.126750	-0.669881	0.350732
H83	H	1.003168	-0.447504	1.102197
H84	H	0.943057	-0.346103	1.103531
H85	H	0.802262	-0.537696	0.920428
Br86	Br	0.935356	-0.289862	0.901283
H87	H	0.942763	-0.918584	0.346051
H88	H	0.969587	-0.650209	1.103295
Br89	Br	0.684623	-0.670048	0.350653
Br90	Br	0.935382	-1.120397	0.290196
H91	H	1.003067	-0.919178	0.447850
Br92	Br	1.035216	-1.122348	0.459920
Br93	Br	0.815911	-0.342836	1.119891
