data_functionalizedCrystal
_audit_creation_method	'MofGen! by Chris Wilmer'
_symmetry_space_group_name_H-M	'P1'
_symmetry_Int_Tables_number	1
_symmetry_cell_setting	triclinic
loop_
_symmetry_equiv_pos_as_xyz
  x,y,z
_cell_length_a	18.215407
_cell_length_b	18.101397
_cell_length_c	18.215407
_cell_angle_alpha	90.014899
_cell_angle_beta	90.007301
_cell_angle_gamma	90.017925
loop_
_atom_site_label
_atom_site_type_symbol
_atom_site_fract_x
_atom_site_fract_y
_atom_site_fract_z
Zn1	Zn	1.125025	-0.295002	0.416044
Zn2	Zn	1.375025	-0.045002	0.666044
Zn3	Zn	1.625025	0.204998	0.916044
Zn4	Zn	1.875025	0.454998	1.166044
Zn5	Zn	1.124963	-0.418815	0.292972
Zn6	Zn	1.374963	-0.168815	0.542972
Zn7	Zn	1.624963	0.081185	0.792972
Zn8	Zn	1.874963	0.331185	1.042972
Zn9	Zn	1.001978	-0.294986	0.292998
Zn10	Zn	1.251978	-0.044986	0.542998
Zn11	Zn	1.501978	0.205014	0.792998
Zn12	Zn	1.751978	0.455014	1.042998
Zn13	Zn	1.001933	-0.418801	0.416003
Zn14	Zn	1.251933	-0.168801	0.666003
Zn15	Zn	1.501933	0.081199	0.916003
Zn16	Zn	1.751933	0.331199	1.166003
O17	O	1.063475	-0.356901	0.354504
O18	O	1.313475	-0.106901	0.604504
O19	O	1.563475	0.143099	0.854504
O20	O	1.813475	0.393099	1.104504
O21	O	1.228001	-0.311439	0.399725
O22	O	1.478001	-0.061439	0.649725
O23	O	1.728001	0.188561	0.899725
O24	O	1.978001	0.438561	1.149725
O25	O	1.108642	-0.402388	0.189991
O26	O	1.358642	-0.152388	0.439991
O27	O	1.608642	0.097612	0.689991
O28	O	1.858642	0.347612	0.939991
O29	O	1.018345	-0.191355	0.309348
O30	O	1.268345	0.058645	0.559348
O31	O	1.518345	0.308645	0.809348
O32	O	1.768345	0.558645	1.059348
O33	O	1.227956	-0.402403	0.309304
O34	O	1.477956	-0.152403	0.559304
O35	O	1.727956	0.097597	0.809304
O36	O	1.977956	0.347597	1.059304
O37	O	1.108747	-0.191367	0.399750
O38	O	1.358747	0.058633	0.649750
O39	O	1.608747	0.308633	0.899750
O40	O	1.858747	0.558633	1.149750
O41	O	1.018285	-0.311411	0.190010
O42	O	1.268285	-0.061411	0.440010
O43	O	1.518285	0.188589	0.690010
O44	O	1.768285	0.438589	0.940010
O45	O	0.898988	-0.311398	0.309309
O46	O	1.148988	-0.061398	0.559309
O47	O	1.398988	0.188602	0.809309
O48	O	1.648988	0.438602	1.059309
O49	O	1.018268	-0.402380	0.518993
O50	O	1.268268	-0.152380	0.768993
O51	O	1.518268	0.097620	1.018993
O52	O	1.768268	0.347620	1.268993
O53	O	0.898954	-0.402364	0.399680
O54	O	1.148954	-0.152364	0.649680
O55	O	1.398954	0.097636	0.899680
O56	O	1.648954	0.347636	1.149680
O57	O	1.108703	-0.311426	0.519023
O58	O	1.358703	-0.061426	0.769023
O59	O	1.608703	0.188574	1.019023
O60	O	1.858703	0.438574	1.269023
O61	O	1.108598	-0.522446	0.309265
O62	O	1.358598	-0.272446	0.559265
O63	O	1.608598	-0.022446	0.809265
O64	O	1.858598	0.227554	1.059265
O65	O	1.018208	-0.522436	0.399655
O66	O	1.268208	-0.272436	0.649655
O67	O	1.518208	-0.022436	0.899655
O68	O	1.768208	0.227564	1.149655
C69	C	0.872268	-0.356878	0.354493
C70	C	1.122268	-0.106878	0.604493
C71	C	1.372268	0.143122	0.854493
C72	C	1.622268	0.393122	1.104493
C73	C	0.790470	-0.356887	0.354506
C74	C	1.040470	-0.106887	0.604506
C75	C	1.290470	0.143113	0.854506
C76	C	1.540470	0.393113	1.104506
C77	C	1.063412	-0.549312	0.354469
C78	C	1.313412	-0.299312	0.604469
C79	C	1.563412	-0.049312	0.854469
C80	C	1.813412	0.200688	1.104469
C81	C	1.063452	-0.631626	0.354478
C82	C	1.313452	-0.381626	0.604478
C83	C	1.563452	-0.131626	0.854478
C84	C	1.813452	0.118374	1.104478
C85	C	0.525414	-0.404345	0.401496
C86	C	0.775414	-0.154345	0.651496
C87	C	1.025414	0.095655	0.901496
C88	C	1.275414	0.345655	1.151496
C89	C	0.602273	-0.404339	0.401493
C90	C	0.852273	-0.154339	0.651493
C91	C	1.102273	0.095661	0.901493
C92	C	1.352273	0.345661	1.151493
C93	C	0.602277	-0.309474	0.307526
C94	C	0.852277	-0.059474	0.557526
C95	C	1.102277	0.190526	0.807526
C96	C	1.352277	0.440526	1.057526
C97	C	0.525419	-0.309484	0.307526
C98	C	0.775419	-0.059484	0.557526
C99	C	1.025419	0.190516	0.807526
C100	C	1.275419	0.440516	1.057526
C101	C	0.486990	-0.356919	0.354516
C102	C	0.736990	-0.106919	0.604516
C103	C	0.986990	0.143081	0.854516
C104	C	1.236990	0.393081	1.104516
C105	C	0.640706	-0.356902	0.354512
C106	C	0.890706	-0.106902	0.604512
C107	C	1.140706	0.143098	0.854512
C108	C	1.390706	0.393098	1.104512
C109	C	0.724040	-0.356895	0.354507
C110	C	0.974040	-0.106895	0.604507
C111	C	1.224040	0.143105	0.854507
C112	C	1.474040	0.393105	1.104507
C113	C	0.403651	-0.356927	0.354519
C114	C	0.653651	-0.106927	0.604519
C115	C	0.903651	0.143073	0.854519
C116	C	1.153651	0.393073	1.104519
C117	C	1.063546	-0.930717	0.354545
C118	C	1.313546	-0.680717	0.604545
C119	C	1.563546	-0.430717	0.854545
C120	C	1.813546	-0.180717	1.104545
C121	C	1.120258	-0.899367	0.297522
C122	C	1.370258	-0.649367	0.547522
C123	C	1.620258	-0.399367	0.797522
C124	C	1.870258	-0.149367	1.047522
C125	C	1.120455	-0.813748	0.297669
C126	C	1.370455	-0.563748	0.547669
C127	C	1.620455	-0.313748	0.797669
C128	C	1.870455	-0.063748	1.047669
C129	C	1.063499	-0.782334	0.354511
C130	C	1.313499	-0.532334	0.604511
C131	C	1.563499	-0.282334	0.854511
C132	C	1.813499	-0.032334	1.104511
C133	C	1.084511	-0.813364	0.432082
C134	C	1.334511	-0.563364	0.682082
C135	C	1.584511	-0.313364	0.932082
C136	C	1.834511	-0.063364	1.182082
C137	C	1.084950	-0.899009	0.431772
C138	C	1.334950	-0.649009	0.681772
C139	C	1.584950	-0.399009	0.931772
C140	C	1.834950	-0.149009	1.181772
C141	C	0.985671	-0.899217	0.334669
C142	C	1.235671	-0.649217	0.584669
C143	C	1.485671	-0.399217	0.834669
C144	C	1.735671	-0.149217	1.084669
C145	C	0.986056	-0.813567	0.332938
C146	C	1.236056	-0.563567	0.582938
C147	C	1.486056	-0.313567	0.832938
C148	C	1.736056	-0.063567	1.082938
C149	C	1.063472	-0.698475	0.354497
C150	C	1.313472	-0.448475	0.604497
C151	C	1.563472	-0.198475	0.854497
C152	C	1.813472	0.051525	1.104497
C153	C	1.063575	-1.014576	0.354565
C154	C	1.313575	-0.764576	0.604565
C155	C	1.563575	-0.514576	0.854565
C156	C	1.813575	-0.264576	1.104565
C157	C	1.255428	-0.356924	0.354516
C158	C	1.505428	-0.106924	0.604516
C159	C	1.755428	0.143076	0.854516
C160	C	2.005428	0.393076	1.104516
C161	C	1.337226	-0.356934	0.354521
C162	C	1.587226	-0.106934	0.604521
C163	C	1.837226	0.143066	0.854521
C164	C	2.087226	0.393066	1.104521
C165	C	1.063487	-0.356903	0.546457
C166	C	1.313487	-0.106903	0.796457
C167	C	1.563487	0.143097	1.046457
C168	C	1.813487	0.393097	1.296457
C169	C	1.063493	-0.356904	0.628256
C170	C	1.313493	-0.106904	0.878256
C171	C	1.563493	0.143096	1.128256
C172	C	1.813493	0.393096	1.378256
C173	C	1.063558	-0.163739	0.354556
C174	C	1.313558	0.086261	0.604556
C175	C	1.563558	0.336261	0.854556
C176	C	1.813558	0.586261	1.104556
C177	C	1.063593	-0.081425	0.354579
C178	C	1.313593	0.168575	0.604579
C179	C	1.563593	0.418575	0.854579
C180	C	1.813593	0.668575	1.104579
C181	C	1.110568	-0.309552	0.816467
C182	C	1.360568	-0.059552	1.066467
C183	C	1.610568	0.190448	1.316467
C184	C	1.860568	0.440448	1.566467
C185	C	1.110564	-0.309551	0.893326
C186	C	1.360564	-0.059551	1.143326
C187	C	1.610564	0.190449	1.393326
C188	C	1.860564	0.440449	1.643326
C189	C	1.016394	-0.404267	0.893283
C190	C	1.266394	-0.154267	1.143283
C191	C	1.516394	0.095733	1.393283
C192	C	1.766394	0.345733	1.643283
C193	C	1.016395	-0.404263	0.816426
C194	C	1.266395	-0.154263	1.066426
C195	C	1.516395	0.095737	1.316426
C196	C	1.766395	0.345737	1.566426
C197	C	1.063486	-0.356906	0.778020
C198	C	1.313486	-0.106906	1.028020
C199	C	1.563486	0.143094	1.278020
C200	C	1.813486	0.393094	1.528020
C201	C	1.063481	-0.356910	0.931736
C202	C	1.313481	-0.106910	1.181736
C203	C	1.563481	0.143090	1.431736
C204	C	1.813481	0.393090	1.681736
C205	C	1.063476	-0.356910	1.015070
C206	C	1.313476	-0.106910	1.265070
C207	C	1.563476	0.143090	1.515070
C208	C	1.813476	0.393090	1.765070
C209	C	1.063490	-0.356905	0.694681
C210	C	1.313490	-0.106905	0.944681
C211	C	1.563490	0.143095	1.194681
C212	C	1.813490	0.393095	1.444681
C213	C	1.063462	-0.356915	1.163298
C214	C	1.313462	-0.106915	1.413298
C215	C	1.563462	0.143085	1.663298
C216	C	1.813462	0.393085	1.913298
C217	C	1.063474	-0.356913	1.081499
C218	C	1.313474	-0.106913	1.331499
C219	C	1.563474	0.143087	1.581499
C220	C	1.813474	0.393087	1.831499
H221	H	0.494127	-0.442970	0.439758
H222	H	0.744127	-0.192970	0.689758
H223	H	0.994127	0.057030	0.939758
H224	H	1.244127	0.307030	1.189758
N225	N	1.196256	-0.927796	0.314746
N226	N	1.446256	-0.677796	0.564746
N227	N	1.696256	-0.427796	0.814746
N228	N	1.946256	-0.177796	1.064746
H229	H	1.232350	-0.907394	0.277863
H230	H	1.482350	-0.657394	0.527863
H231	H	1.732350	-0.407394	0.777863
H232	H	1.982350	-0.157394	1.027863
H233	H	1.196349	-0.983533	0.312209
H234	H	1.446349	-0.733533	0.562209
H235	H	1.696349	-0.483533	0.812209
H236	H	1.946349	-0.233533	1.062209
H237	H	1.148901	-0.270989	0.924626
H238	H	1.398901	-0.020989	1.174626
H239	H	1.648901	0.229011	1.424626
H240	H	1.898901	0.479011	1.674626
N241	N	0.965594	-0.455331	0.934707
N242	N	1.215594	-0.205331	1.184707
N243	N	1.465594	0.044669	1.434707
N244	N	1.715594	0.294669	1.684707
H245	H	0.972734	-0.448146	0.989230
H246	H	1.222734	-0.198146	1.239230
H247	H	1.472734	0.051854	1.489230
H248	H	1.722734	0.301854	1.739230
H249	H	0.977015	-0.508226	0.921264
H250	H	1.227015	-0.258226	1.171264
H251	H	1.477015	-0.008226	1.421264
H252	H	1.727015	0.241774	1.671264
H253	H	0.633575	-0.270853	0.269269
H254	H	0.883575	-0.020853	0.519269
H255	H	1.133575	0.229147	0.769269
H256	H	1.383575	0.479147	1.019269
N257	N	1.161359	-0.258477	0.775046
N258	N	1.411359	-0.008477	1.025046
N259	N	1.661359	0.241523	1.275046
N260	N	1.911359	0.491523	1.525046
H261	H	1.195453	-0.288579	0.743159
H262	H	1.445453	-0.038579	0.993159
H263	H	1.695453	0.211421	1.243159
H264	H	1.945453	0.461421	1.493159
H265	H	1.191133	-0.228492	0.811118
H266	H	1.441133	0.021508	1.061118
H267	H	1.691133	0.271508	1.311118
H268	H	1.941133	0.521508	1.561118
N269	N	0.643717	-0.455494	0.452161
N270	N	0.893717	-0.205494	0.702161
N271	N	1.143717	0.044506	0.952161
N272	N	1.393717	0.294506	1.202161
H273	H	0.607707	-0.485544	0.481926
H274	H	0.857707	-0.235544	0.731926
H275	H	1.107707	0.014456	0.981926
H276	H	1.357707	0.264456	1.231926
H277	H	0.675618	-0.425398	0.486270
H278	H	0.925618	-0.175398	0.736270
H279	H	1.175618	0.074602	0.986270
H280	H	1.425618	0.324602	1.236270
H281	H	0.494134	-0.270863	0.269265
H282	H	0.744134	-0.020863	0.519265
H283	H	0.994134	0.229137	0.769265
H284	H	1.244134	0.479137	1.019265
N285	N	0.965596	-0.455335	0.774962
N286	N	1.215596	-0.205335	1.024962
N287	N	1.465596	0.044665	1.274962
N288	N	1.715596	0.294665	1.524962
H289	H	0.976996	-0.508252	0.788319
H290	H	1.226996	-0.258252	1.038319
H291	H	1.476996	-0.008252	1.288319
H292	H	1.726996	0.241748	1.538319
H293	H	0.972755	-0.448083	0.720458
H294	H	1.222755	-0.198083	0.970458
H295	H	1.472755	0.051917	1.220458
H296	H	1.722755	0.301917	1.470458
N297	N	1.103054	-0.785953	0.221481
N298	N	1.353054	-0.535953	0.471481
N299	N	1.603054	-0.285953	0.721481
N300	N	1.853054	-0.035953	0.971481
H301	H	1.095186	-0.829337	0.187498
H302	H	1.345186	-0.579337	0.437498
H303	H	1.595186	-0.329337	0.687498
H304	H	1.845186	-0.079337	0.937498
H305	H	1.145302	-0.755019	0.202916
H306	H	1.395302	-0.505019	0.452916
H307	H	1.645302	-0.255019	0.702916
H308	H	1.895302	-0.005019	0.952916
H309	H	0.966554	-0.920861	0.279086
H310	H	1.216554	-0.670861	0.529086
H311	H	1.466554	-0.420861	0.779086
H312	H	1.716554	-0.170861	1.029086
H313	H	1.107274	-0.919994	0.239832
H314	H	1.357274	-0.669994	0.489832
H315	H	1.607274	-0.419994	0.739832
H316	H	1.857274	-0.169994	0.989832
N317	N	0.927080	-0.785247	0.383929
N318	N	1.177080	-0.535247	0.633929
N319	N	1.427080	-0.285247	0.883929
N320	N	1.677080	-0.035247	1.133929
H321	H	0.902577	-0.828302	0.409294
H322	H	1.152577	-0.578302	0.659294
H323	H	1.402577	-0.328302	0.909294
H324	H	1.652577	-0.078302	1.159294
H325	H	0.889365	-0.756829	0.354715
H326	H	1.139365	-0.506829	0.604715
H327	H	1.389365	-0.256829	0.854715
H328	H	1.639365	-0.006829	1.104715
H329	H	1.141873	-0.918935	0.448609
H330	H	1.391873	-0.668935	0.698609
H331	H	1.641873	-0.418935	0.948609
H332	H	1.891873	-0.168935	1.198609
N333	N	1.196863	-0.786535	0.315089
N334	N	1.446863	-0.536535	0.565089
N335	N	1.696863	-0.286535	0.815089
N336	N	1.946863	-0.036535	1.065089
H337	H	1.230548	-0.830176	0.322706
H338	H	1.480548	-0.580176	0.572706
H339	H	1.730548	-0.330176	0.822706
H340	H	1.980548	-0.080176	1.072706
H341	H	1.195512	-0.755631	0.361240
H342	H	1.445512	-0.505631	0.611240
H343	H	1.695512	-0.255631	0.861240
H344	H	1.945512	-0.005631	1.111240
H345	H	1.044467	-0.793015	0.475712
H346	H	1.294467	-0.543015	0.725712
H347	H	1.544467	-0.293015	0.975712
H348	H	1.794467	-0.043015	1.225712
N349	N	1.032614	-0.926485	0.489969
N350	N	1.282614	-0.676485	0.739969
N351	N	1.532614	-0.426485	0.989969
N352	N	1.782614	-0.176485	1.239969
H353	H	1.009363	-0.882960	0.515714
H354	H	1.259363	-0.632960	0.765714
H355	H	1.509363	-0.382960	1.015714
H356	H	1.759363	-0.132960	1.265714
H357	H	1.060403	-0.957380	0.526828
H358	H	1.310403	-0.707380	0.776828
H359	H	1.560403	-0.457380	1.026828
H360	H	1.810403	-0.207380	1.276828
N361	N	1.159072	-0.784899	0.454764
N362	N	1.409072	-0.534899	0.704764
N363	N	1.659072	-0.284899	0.954764
N364	N	1.909072	-0.034899	1.204764
H365	H	1.179345	-0.751911	0.414911
H366	H	1.429345	-0.501911	0.664911
H367	H	1.679345	-0.251911	0.914911
H368	H	1.929345	-0.001911	1.164911
H369	H	1.193385	-0.827972	0.462742
H370	H	1.443385	-0.577972	0.712742
H371	H	1.693385	-0.327972	0.962742
H372	H	1.943385	-0.077972	1.212742
H373	H	0.970212	-0.793292	0.275852
H374	H	1.220212	-0.543292	0.525852
H375	H	1.470212	-0.293292	0.775852
H376	H	1.720212	-0.043292	1.025852
H377	H	0.943416	-0.919492	0.376202
H378	H	1.193416	-0.669492	0.626202
H379	H	1.443416	-0.419492	0.876202
H380	H	1.693416	-0.169492	1.126202
