data_functionalizedCrystal
_audit_creation_method	'MofGen! by Chris Wilmer'
_symmetry_space_group_name_H-M	'P1'
_symmetry_Int_Tables_number	1
_symmetry_cell_setting	triclinic
loop_
_symmetry_equiv_pos_as_xyz
  x,y,z
_cell_length_a	12.759401
_cell_length_b	12.759400
_cell_length_c	15.298259
_cell_angle_alpha	99.709100
_cell_angle_beta	80.339241
_cell_angle_gamma	90.012598
loop_
_atom_site_label
_atom_site_type_symbol
_atom_site_fract_x
_atom_site_fract_y
_atom_site_fract_z
Zn1	Zn	-1.503449	0.315475	-0.510067
Zn2	Zn	-1.003449	0.815475	-0.010067
Zn3	Zn	-1.533749	0.521594	-0.359212
Zn4	Zn	-1.033749	1.021594	0.140788
Zn5	Zn	-1.358154	0.345921	-0.359227
Zn6	Zn	-0.858154	0.845921	0.140773
Zn7	Zn	-1.327747	0.491114	-0.510032
Zn8	Zn	-0.827747	0.991114	-0.010032
O9	O	-1.430775	0.418526	-0.434635
O10	O	-0.930775	0.918526	0.065365
O11	O	-1.654488	0.342832	-0.490065
O12	O	-1.154488	0.842832	0.009935
O13	O	-1.535862	0.523788	-0.232968
O14	O	-1.035862	1.023788	0.267032
O15	O	-1.377472	0.194857	-0.379257
O16	O	-0.877472	0.694857	0.120743
O17	O	-1.676749	0.494267	-0.379232
O18	O	-1.176749	0.994267	0.120768
O19	O	-1.484220	0.172489	-0.490079
O20	O	-0.984220	0.672489	0.009921
O21	O	-1.406853	0.394722	-0.232979
O22	O	-0.906853	0.894722	0.267021
O23	O	-1.207101	0.365166	-0.379223
O24	O	-0.707101	0.865166	0.120777
O25	O	-1.325648	0.442317	-0.636283
O26	O	-0.825648	0.942317	-0.136283
O27	O	-1.184761	0.471839	-0.490019
O28	O	-0.684761	0.971839	0.009981
O29	O	-1.454736	0.313277	-0.636309
O30	O	-0.954736	0.813277	-0.136309
O31	O	-1.506378	0.664576	-0.379198
O32	O	-1.006378	1.164576	0.120802
O33	O	-1.355029	0.642182	-0.490005
O34	O	-0.855029	1.142182	0.009995
C35	C	-1.157811	0.418499	-0.434619
C36	C	-0.657811	0.918499	0.065381
C37	C	-1.041031	0.418509	-0.434634
C38	C	-0.541031	0.918509	0.065366
C39	C	-1.430716	0.691497	-0.434616
C40	C	-0.930716	1.191497	0.065384
C41	C	-1.430781	0.808269	-0.434638
C42	C	-0.930781	1.308269	0.065362
C43	C	-1.383421	0.371001	-0.669945
C44	C	-0.883421	0.871001	-0.169945
C45	C	-1.363241	0.350749	-0.770221
C46	C	-0.863241	0.850749	-0.270221
C47	C	-0.974584	0.474178	-0.492229
C48	C	-0.474584	0.974178	0.007771
C49	C	-0.864858	0.474185	-0.492238
C50	C	-0.364858	0.974185	0.007762
C51	C	-0.888038	0.362853	-0.377047
C52	C	-0.388038	0.862853	0.122953
C53	C	-0.997761	0.362840	-0.377044
C54	C	-0.497761	0.862840	0.122956
C55	C	-1.017854	0.529847	-0.549819
C56	C	-0.517854	1.029847	-0.049819
C57	C	-0.951405	0.585521	-0.607418
C58	C	-0.451405	1.085521	-0.107418
C59	C	-0.841680	0.585529	-0.607427
C60	C	-0.341680	1.085529	-0.107427
C61	C	-0.798402	0.529861	-0.549836
C62	C	-0.298402	1.029861	-0.049836
C63	C	-0.704805	0.418544	-0.434648
C64	C	-0.204805	0.918544	0.065352
C65	C	-0.821583	0.418529	-0.434645
C66	C	-0.321583	0.918529	0.065355
C67	C	-1.430858	0.144485	-0.434673
C68	C	-0.930858	0.644485	0.065327
C69	C	-1.430894	0.027705	-0.434690
C70	C	-0.930894	0.527705	0.065310
C71	C	-1.509650	0.874744	-0.377005
C72	C	-1.009650	1.374744	0.122995
C73	C	-1.509709	0.984463	-0.377033
C74	C	-1.009709	1.484463	0.122967
C75	C	-1.352020	0.961221	-0.492329
C76	C	-0.852020	1.461221	0.007671
C77	C	-1.351967	0.851504	-0.492305
C78	C	-0.851967	1.351504	0.007695
C79	C	-1.588465	0.831509	-0.319337
C80	C	-1.088465	1.331509	0.180663
C81	C	-1.667339	0.897985	-0.261698
C82	C	-1.167339	1.397985	0.238302
C83	C	-1.667398	1.007704	-0.261726
C84	C	-1.167398	1.507704	0.238274
C85	C	-1.588582	1.050946	-0.319393
C86	C	-1.088582	1.550946	0.180607
C87	C	-1.575035	0.562463	-1.052851
C88	C	-1.075035	1.062463	-0.552851
C89	C	-1.593990	0.581498	-0.958637
C90	C	-1.093990	1.081498	-0.458637
C91	C	-1.536304	0.523812	-0.911528
C92	C	-1.036304	1.023812	-0.411528
C93	C	-1.459661	0.447089	-0.958642
C94	C	-0.959661	0.947089	-0.458642
C95	C	-1.440699	0.428058	-1.052865
C96	C	-0.940699	0.928058	-0.552865
C97	C	-1.401968	0.389407	-0.911543
C98	C	-0.901968	0.889407	-0.411543
C99	C	-1.325325	0.312683	-0.958657
C100	C	-0.825325	0.812683	-0.458657
C101	C	-1.306367	0.293655	-1.052871
C102	C	-0.806367	0.793655	-0.552871
C103	C	-1.364052	0.351341	-1.099979
C104	C	-0.864052	0.851341	-0.599979
C105	C	-1.420930	0.408437	-0.817320
C106	C	-0.920930	0.908437	-0.317320
C107	C	-1.286594	0.274032	-0.817335
C108	C	-0.786594	0.774032	-0.317335
C109	C	-1.267640	0.254997	-0.911548
C110	C	-0.767640	0.754997	-0.411548
C111	C	-1.478005	0.465790	-0.200240
C112	C	-0.978005	0.965790	0.299760
C113	C	-1.498388	0.485747	-0.099965
C114	C	-0.998388	0.985747	0.400035
H115	H	-1.107197	0.529849	-0.549817
H116	H	-0.607197	1.029849	-0.049817
Br117	Br	-1.698001	0.685618	-0.894702
Br118	Br	-1.198001	1.185618	-0.394702
H119	H	-1.731514	0.862770	-0.214753
H120	H	-1.231514	1.362770	0.285247
Br121	Br	-1.244933	0.761280	-0.570528
Br122	Br	-0.744933	1.261280	-0.070528
Br123	Br	-1.010134	0.661055	-0.685581
Br124	Br	-0.510134	1.161055	-0.185581
Br125	Br	-1.245062	1.019908	-0.570585
Br126	Br	-0.745062	1.519908	-0.070585
H127	H	-1.621987	0.609430	-1.091215
H128	H	-1.121987	1.109430	-0.591215
H129	H	-0.787578	0.630853	-0.654333
H130	H	-0.287578	1.130853	-0.154333
H131	H	-1.588644	1.140286	-0.319418
H132	H	-1.088644	1.640286	0.180582
H133	H	-1.051863	0.317500	-0.330152
H134	H	-0.551863	0.817500	0.169848
H135	H	-1.483340	0.470900	-0.778969
H136	H	-0.983340	0.970900	-0.278969
H137	H	-1.551741	0.539316	-0.834815
H138	H	-1.051741	1.039316	-0.334815
Br139	Br	-0.649485	0.529859	-0.549858
Br140	Br	-0.149485	1.029859	-0.049858
H141	H	-0.852793	0.317532	-0.330159
H142	H	-0.352793	0.817532	0.169841
Br143	Br	-1.202302	0.189580	-1.116810
Br144	Br	-0.702302	0.689580	-0.616810
Br145	Br	-1.774450	1.097917	-0.183515
Br146	Br	-1.274450	1.597917	0.316485
H147	H	-1.348626	0.335845	-1.176696
H148	H	-0.848626	0.835845	-0.676696
H149	H	-1.239621	0.227060	-0.778979
H150	H	-0.739621	0.727060	-0.278979
Br151	Br	-1.588657	0.682551	-0.319574
Br152	Br	-1.088657	1.182551	0.180426
Br153	Br	-1.163628	0.150874	-0.975499
Br154	Br	-0.663628	0.650874	-0.475499
