data_functionalizedCrystal
_audit_creation_method	'MofGen! by Chris Wilmer'
_symmetry_space_group_name_H-M	'P1'
_symmetry_Int_Tables_number	1
_symmetry_cell_setting	triclinic
loop_
_symmetry_equiv_pos_as_xyz
  x,y,z
_cell_length_a	15.944551
_cell_length_b	14.421503
_cell_length_c	15.944551
_cell_angle_alpha	90.003340
_cell_angle_beta	96.501262
_cell_angle_gamma	90.003141
loop_
_atom_site_label
_atom_site_type_symbol
_atom_site_fract_x
_atom_site_fract_y
_atom_site_fract_z
O1	O	1.114529	0.077017	-0.108320
O2	O	1.614529	0.577017	0.391680
O3	O	0.869980	0.077040	-0.121677
O4	O	1.369980	0.577040	0.378323
O5	O	0.998933	0.077020	0.007276
O6	O	1.498933	0.577020	0.507276
O7	O	0.985576	0.077038	-0.237273
O8	O	1.485576	0.577038	0.262727
O9	O	0.998911	-0.077204	0.007257
O10	O	1.498911	0.422796	0.507257
O11	O	0.869958	-0.077183	-0.121696
O12	O	1.369958	0.422817	0.378304
O13	O	1.114508	-0.077206	-0.108340
O14	O	1.614508	0.422794	0.391660
Cu15	Cu	0.992231	-0.091277	-0.115020
Cu16	Cu	1.492231	0.408723	0.384980
Cu17	Cu	0.992256	0.091110	-0.114997
Cu18	Cu	1.492256	0.591110	0.385003
O19	O	0.985555	-0.077186	-0.237293
O20	O	1.485555	0.422814	0.262707
C21	C	0.838675	-0.000069	-0.121132
C22	C	1.338675	0.499931	0.378868
C23	C	0.745429	-0.000060	-0.119470
C24	C	1.245429	0.499940	0.380530
C25	C	0.530572	-0.000084	-0.035565
C26	C	1.030572	0.499916	0.464435
C27	C	0.469563	0.075959	-0.074518
C28	C	0.969563	0.575959	0.425482
C29	C	0.574703	-0.000071	-0.116462
C30	C	1.074703	0.499929	0.383538
C31	C	0.469564	-0.076093	-0.074556
C32	C	0.969564	0.423907	0.425444
C33	C	0.409790	-0.000086	-0.113551
C34	C	0.909790	0.499914	0.386449
C35	C	0.514922	0.076035	-0.155437
C36	C	1.014922	0.576035	0.344563
C37	C	0.514929	-0.076086	-0.155464
C38	C	1.014929	0.423914	0.344536
C39	C	0.453937	-0.000024	-0.194476
C40	C	0.953937	0.499976	0.305524
C41	C	0.669705	-0.000062	-0.118137
C42	C	1.169705	0.499938	0.381863
C43	C	0.314789	-0.000089	-0.111883
C44	C	0.814789	0.499911	0.388117
N45	N	0.992219	-0.219558	-0.115035
N46	N	1.492219	0.280442	0.384965
C47	C	0.932581	-0.469202	-0.174636
C48	C	1.432581	0.030798	0.325364
C49	C	1.008481	-0.531011	-0.190943
C50	C	1.508481	-0.031011	0.309057
C51	C	0.992240	-0.408719	-0.115015
C52	C	1.492240	0.091281	0.384985
C53	C	0.916359	-0.531005	-0.098727
C54	C	1.416359	-0.031005	0.401273
C55	C	0.992253	-0.591441	-0.114997
C56	C	1.492253	-0.091441	0.385003
C57	C	1.068178	-0.469167	-0.131360
C58	C	1.568178	0.030833	0.368640
C59	C	0.976007	-0.469156	-0.039111
C60	C	1.476007	0.030844	0.460889
C61	C	1.051961	-0.530936	-0.055386
C62	C	1.551961	-0.030936	0.444614
C63	C	0.992231	-0.303458	-0.115027
C64	C	1.492231	0.196542	0.384973
C65	C	0.992270	-0.696700	-0.114985
C66	C	1.492270	-0.196700	0.385015
C67	C	1.145813	-0.000096	-0.108885
C68	C	1.645813	0.499904	0.391115
C69	C	1.239059	-0.000098	-0.110547
C70	C	1.739059	0.499902	0.389453
C71	C	0.998367	-0.000092	0.038561
C72	C	1.498367	0.499908	0.538561
C73	C	0.996705	-0.000093	0.131807
C74	C	1.496705	0.499907	0.631807
N75	N	0.992275	0.219392	-0.114975
N76	N	1.492275	0.719392	0.385025
C77	C	0.986120	-0.000072	-0.268577
C78	C	1.486120	0.499928	0.231423
C79	C	0.987782	-0.000066	-0.361823
C80	C	1.487782	0.499934	0.138177
C81	C	0.912801	-0.000072	0.346663
C82	C	1.412801	0.499928	0.846663
C83	C	0.951753	-0.076117	0.407671
C84	C	1.451753	0.423883	0.907671
C85	C	0.993698	-0.000085	0.302533
C86	C	1.493698	0.499915	0.802533
C87	C	0.951793	0.075935	0.407674
C88	C	1.451793	0.575935	0.907674
C89	C	0.990787	-0.000074	0.467445
C90	C	1.490787	0.499926	0.967445
C91	C	1.032672	-0.076193	0.362312
C92	C	1.532672	0.423807	0.862312
C93	C	1.032701	0.075927	0.362308
C94	C	1.532701	0.575927	0.862308
C95	C	1.071711	-0.000136	0.423298
C96	C	1.571711	0.499864	0.923298
C97	C	0.995372	-0.000092	0.207530
C98	C	1.495372	0.499908	0.707530
C99	C	0.989119	-0.000073	0.562446
C100	C	1.489119	0.499927	1.062446
H101	H	0.563905	0.000005	0.031573
H102	H	1.063905	0.500005	0.531573
H103	H	1.066897	0.140214	0.342186
H104	H	1.566897	0.640214	0.842186
H105	H	0.917575	0.140230	0.427758
H106	H	1.417575	0.640230	0.927758
Br107	Br	1.183726	-0.000212	0.478568
Br108	Br	1.683726	0.499788	0.978568
Br109	Br	0.548244	0.183305	-0.212412
Br110	Br	1.048244	0.683305	0.287588
Br111	Br	0.436062	0.183108	-0.017481
Br112	Br	0.936062	0.683108	0.482519
H113	H	1.022224	-0.558180	-0.255126
H114	H	1.522224	-0.058180	0.244874
Br115	Br	0.548471	-0.183236	-0.212462
Br116	Br	1.048471	0.316764	0.287538
H117	H	0.420779	0.000023	-0.261683
H118	H	0.920779	0.500023	0.238317
H119	H	0.845652	-0.000141	0.313356
H120	H	1.345652	0.499859	0.813356
H121	H	0.449469	-0.140379	-0.040333
H122	H	0.949469	0.359621	0.459667
Br123	Br	0.953064	-0.423832	0.067833
Br124	Br	1.453064	0.076168	0.567833
H125	H	0.882181	-0.442096	-0.225096
H126	H	1.382181	0.057904	0.274904
Br127	Br	1.175170	-0.424092	-0.154432
Br128	Br	1.675170	0.075908	0.345568
Br129	Br	1.136147	-0.575839	0.028668
Br130	Br	1.636147	-0.075839	0.528668
H131	H	0.917527	-0.140401	0.427771
H132	H	1.417527	0.359599	0.927771
Br133	Br	0.809397	-0.576283	-0.075777
Br134	Br	1.309397	-0.076283	0.424223
H135	H	1.066850	-0.140554	0.342314
H136	H	1.566850	0.359446	0.842314
