data_functionalizedCrystal
_audit_creation_method	'MofGen! by Chris Wilmer'
_symmetry_space_group_name_H-M	'P1'
_symmetry_Int_Tables_number	1
_symmetry_cell_setting	triclinic
loop_
_symmetry_equiv_pos_as_xyz
  x,y,z
_cell_length_a	16.625539
_cell_length_b	12.759401
_cell_length_c	12.759400
_cell_angle_alpha	90.012209
_cell_angle_beta	89.975351
_cell_angle_gamma	89.982532
loop_
_atom_site_label
_atom_site_type_symbol
_atom_site_fract_x
_atom_site_fract_y
_atom_site_fract_z
Zn1	Zn	-0.455863	1.606255	-0.418291
Zn2	Zn	0.044137	2.106255	0.081709
Zn3	Zn	-0.321039	1.606158	-0.593992
Zn4	Zn	0.178961	2.106158	-0.093992
Zn5	Zn	-0.321051	1.430561	-0.418325
Zn6	Zn	0.178949	1.930561	0.081675
Zn7	Zn	-0.455836	1.430550	-0.593926
Zn8	Zn	0.044164	1.930550	-0.093926
O9	O	-0.388447	1.518381	-0.506134
O10	O	0.111553	2.018381	-0.006134
O11	O	-0.437985	1.753263	-0.441612
O12	O	0.062015	2.253263	0.058388
O13	O	-0.208208	1.582828	-0.570732
O14	O	0.291792	2.082828	-0.070732
O15	O	-0.338950	1.453912	-0.271300
O16	O	0.161050	1.953912	0.228700
O17	O	-0.338930	1.753192	-0.570699
O18	O	0.161070	2.253192	-0.070699
O19	O	-0.437996	1.582994	-0.271275
O20	O	0.062004	2.082994	0.228725
O21	O	-0.208217	1.453817	-0.441670
O22	O	0.291783	1.953817	0.058330
O23	O	-0.338924	1.283538	-0.441605
O24	O	0.161076	1.783538	0.058395
O25	O	-0.568672	1.453895	-0.570585
O26	O	-0.068672	1.953895	-0.070585
O27	O	-0.437950	1.283531	-0.570618
O28	O	0.062050	1.783531	-0.070618
O29	O	-0.568692	1.582984	-0.441548
O30	O	-0.068692	2.082984	0.058452
O31	O	-0.338904	1.582818	-0.741005
O32	O	0.161096	2.082818	-0.241005
O33	O	-0.437939	1.453800	-0.740956
O34	O	0.062061	1.953800	-0.240956
C35	C	-0.388436	1.245414	-0.506109
C36	C	0.111564	1.745414	-0.006109
C37	C	-0.388450	1.128637	-0.506124
C38	C	0.111550	1.628637	-0.006124
C39	C	-0.440108	1.073805	-0.439035
C40	C	0.059892	1.573805	0.060965
C41	C	-0.440113	0.964081	-0.439055
C42	C	0.059887	1.464081	0.060945
C43	C	-0.336801	0.964030	-0.573262
C44	C	0.163199	1.464030	-0.073262
C45	C	-0.336792	1.073752	-0.573235
C46	C	0.163208	1.573752	-0.073235
C47	C	-0.499757	1.073834	-0.361555
C48	C	0.000243	1.573834	0.138445
C49	C	-0.499762	0.964110	-0.361575
C50	C	0.000238	1.464110	0.138425
C51	C	-0.598756	1.518449	-0.506055
C52	C	-0.098756	2.018449	-0.006055
C53	C	-0.688377	1.518478	-0.506022
C54	C	-0.188377	2.018478	-0.006022
C55	C	-1.016553	1.518527	-0.505904
C56	C	-0.516553	2.018527	-0.005904
C57	C	-0.925245	1.518510	-0.505940
C58	C	-0.425245	2.018510	-0.005940
C59	C	-0.852468	1.518503	-0.505964
C60	C	-0.352468	2.018503	-0.005964
C61	C	-0.761154	1.518486	-0.505998
C62	C	-0.261154	2.018486	-0.005998
C63	C	-0.178956	1.518373	-0.506136
C64	C	0.321044	2.018373	-0.006136
C65	C	-0.089336	1.518548	-0.505873
C66	C	0.410664	2.018548	-0.005873
C67	C	-0.388435	1.518326	-0.779101
C68	C	0.111565	2.018326	-0.279101
C69	C	-0.388456	1.518398	-0.895878
C70	C	0.111544	2.018398	-0.395878
C71	C	-0.388459	1.792414	-0.506159
C72	C	0.111541	2.292414	-0.006159
C73	C	-0.388464	1.909191	-0.506170
C74	C	0.111536	2.409191	-0.006170
C75	C	-0.440072	1.585578	-0.950647
C76	C	0.059928	2.085578	-0.450647
C77	C	-0.440091	1.585627	-1.060371
C78	C	0.059909	2.085627	-0.560371
C79	C	-0.336873	1.451314	-1.060547
C80	C	0.163127	1.951314	-0.560547
C81	C	-0.336858	1.451260	-0.950825
C82	C	0.163142	1.951260	-0.450825
C83	C	-0.499661	1.663126	-0.950546
C84	C	0.000339	2.163126	-0.450546
C85	C	-0.499681	1.663175	-1.060270
C86	C	0.000319	2.163175	-0.560270
C87	C	-0.388478	1.518465	-0.232100
C88	C	0.111522	2.018465	0.267900
C89	C	-0.388491	1.518501	-0.115324
C90	C	0.111509	2.018501	0.384676
H91	H	-0.562185	0.934364	-0.383479
H92	H	-0.062185	1.434364	0.116521
H93	H	-0.294836	1.396548	-0.906232
H94	H	0.205164	1.896548	-0.406232
C95	C	-0.291067	1.391754	-1.228822
C96	C	0.208933	1.891754	-0.728822
C97	C	-0.280154	1.377524	-1.120948
C98	C	0.219846	1.877524	-0.620948
H99	H	-0.256046	1.346202	-1.266107
H100	H	0.243954	1.846202	-0.766107
H101	H	-0.345229	1.376346	-1.246762
H102	H	0.154771	1.876346	-0.746762
H103	H	-0.279313	1.462364	-1.246756
H104	H	0.220687	1.962364	-0.746756
H105	H	-0.291914	1.306915	-1.103013
H106	H	0.208086	1.806915	-0.603013
H107	H	-0.225980	1.392924	-1.103001
H108	H	0.274020	1.892924	-0.603001
C109	C	-0.540209	1.812871	-1.161310
C110	C	-0.040209	2.312871	-0.661310
C111	C	-0.477169	1.773047	-1.100427
C112	C	0.022831	2.273047	-0.600427
H113	H	-0.526310	1.880699	-1.186095
H114	H	-0.026310	2.380699	-0.686095
H115	H	-0.549483	1.767687	-1.219223
H116	H	-0.049483	2.267687	-0.719223
H117	H	-0.587585	1.817250	-1.119892
H118	H	-0.087585	2.317250	-0.619892
H119	H	-0.429795	1.768660	-1.141847
H120	H	0.070205	2.268660	-0.641847
H121	H	-0.467886	1.818242	-1.042504
H122	H	0.032114	2.318242	-0.542504
H123	H	-0.294720	1.118392	-0.627855
H124	H	0.205280	1.618392	-0.127855
C125	C	-0.640126	1.706773	-0.946789
C126	C	-0.140126	2.206773	-0.446789
C127	C	-0.583935	1.633626	-0.910294
C128	C	-0.083935	2.133626	-0.410294
H129	H	-0.692151	1.688556	-0.921943
H130	H	-0.192151	2.188556	-0.421943
H131	H	-0.626215	1.774559	-0.921938
H132	H	-0.126215	2.274559	-0.421938
H133	H	-0.640126	1.706798	-1.021240
H134	H	-0.140126	2.206798	-0.521240
H135	H	-0.583930	1.633606	-0.835843
H136	H	-0.083930	2.133606	-0.335843
H137	H	-0.597849	1.565822	-0.935140
H138	H	-0.097849	2.065822	-0.435140
C139	C	-0.290940	0.795810	-0.632893
C140	C	0.209060	1.295810	-0.132893
C141	C	-0.280025	0.903697	-0.647036
C142	C	0.219975	1.403697	-0.147036
H143	H	-0.255892	0.758567	-0.678446
H144	H	0.244108	1.258567	-0.178446
H145	H	-0.279231	0.777829	-0.562295
H146	H	0.220769	1.277829	-0.062295
H147	H	-0.345099	0.777866	-0.648364
H148	H	0.154901	1.277866	-0.148364
H149	H	-0.225868	0.921642	-0.631557
H150	H	0.274132	1.421642	-0.131557
H151	H	-0.291729	0.921686	-0.717650
H152	H	0.208271	1.421686	-0.217650
C153	C	-0.463699	1.028658	-0.185049
C154	C	0.036301	1.528658	0.314951
C155	C	-0.477310	1.114026	-0.251670
C156	C	0.022690	1.614026	0.248330
H157	H	-0.449834	1.053474	-0.117216
H158	H	0.050166	1.553474	0.382784
H159	H	-0.511092	0.987333	-0.180705
H160	H	-0.011092	1.487333	0.319295
H161	H	-0.420930	0.987281	-0.212037
H162	H	0.079070	1.487281	0.287963
H163	H	-0.520083	1.155400	-0.224686
H164	H	-0.020083	1.655400	0.275314
H165	H	-0.429911	1.155369	-0.256010
H166	H	0.070089	1.655369	0.243990
H167	H	-0.559035	1.107899	-0.390795
H168	H	-0.059035	1.607899	0.109205
C169	C	-0.390710	1.786006	-0.938499
C170	C	0.109290	2.286006	-0.438499
C171	C	-0.469532	1.767468	-0.904548
C172	C	0.030468	2.267468	-0.404548
H173	H	-0.372111	1.850426	-0.910106
H174	H	0.127889	2.350426	-0.410106
H175	H	-0.356861	1.730595	-0.915568
H176	H	0.143139	2.230595	-0.415568
H177	H	-0.389704	1.789588	-1.012852
H178	H	0.110296	2.289588	-0.512852
H179	H	-0.470536	1.763878	-0.830195
H180	H	0.029464	2.263878	-0.330195
H181	H	-0.503389	1.822893	-0.927474
H182	H	-0.003389	2.322893	-0.427474
C183	C	-0.565561	1.535024	-1.168023
C184	C	-0.065561	2.035024	-0.668023
C185	C	-0.579744	1.623807	-1.106187
C186	C	-0.079744	2.123807	-0.606187
H187	H	-0.614987	1.510718	-1.196366
H188	H	-0.114987	2.010718	-0.696366
H189	H	-0.529899	1.552610	-1.223469
H190	H	-0.029899	2.052610	-0.723469
H191	H	-0.542188	1.481527	-1.126162
H192	H	-0.042188	1.981527	-0.626162
H193	H	-0.603111	1.677308	-1.148050
H194	H	-0.103111	2.177308	-0.648050
H195	H	-0.615418	1.606225	-1.050733
H196	H	-0.115418	2.106225	-0.550733
H197	H	-0.477505	0.930067	-0.284245
H198	H	0.022495	1.430067	0.215755
