data_functionalizedCrystal
_audit_creation_method	'MofGen! by Chris Wilmer'
_symmetry_space_group_name_H-M	'P1'
_symmetry_Int_Tables_number	1
_symmetry_cell_setting	triclinic
loop_
_symmetry_equiv_pos_as_xyz
  x,y,z
_cell_length_a	16.974885
_cell_length_b	11.792254
_cell_length_c	15.455313
_cell_angle_alpha	92.683372
_cell_angle_beta	90.969048
_cell_angle_gamma	83.794934
loop_
_atom_site_label
_atom_site_type_symbol
_atom_site_fract_x
_atom_site_fract_y
_atom_site_fract_z
O1	O	1.049688	0.144716	0.001485
O2	O	0.820332	0.162041	-0.014602
O3	O	0.940570	-0.011822	-0.006162
O4	O	0.929450	0.318579	-0.006954
O5	O	0.933694	-0.001921	0.137617
O6	O	0.813456	0.171942	0.129178
O7	O	1.042812	0.154617	0.145265
Cu8	Cu	0.927506	0.164184	0.150350
Cu9	Cu	0.935638	0.152474	-0.019686
O10	O	0.922574	0.328480	0.136825
C11	C	0.787531	0.166150	0.055229
C12	C	0.700040	0.163629	0.049092
C13	C	0.207963	0.148816	0.006078
C14	C	0.290170	0.151186	0.011856
C15	C	0.327517	0.157776	0.093119
C16	C	0.282653	0.161986	0.168610
C17	C	0.200448	0.159608	0.162832
C18	C	0.572971	0.165460	0.118805
C19	C	0.655181	0.167842	0.124578
C20	C	0.662693	0.157039	-0.032178
C21	C	0.580486	0.154669	-0.037949
C22	C	0.535630	0.158872	0.037542
N23	N	0.411545	0.160203	0.099027
N24	N	0.451603	0.156438	0.031634
C25	C	0.936432	-0.049158	0.065678
C26	C	0.934335	-0.175159	0.065530
C27	C	0.932631	-0.277487	0.065408
C28	C	0.930501	-0.405862	0.065251
C29	C	1.075613	0.150508	0.075433
C30	C	1.163105	0.153029	0.081563
C31	C	0.926712	0.365816	0.064983
C32	C	0.928809	0.491817	0.065125
N33	N	0.921793	0.172419	0.269944
N34	N	0.941358	0.144230	-0.139280
C35	C	0.972892	0.098583	0.318925
C36	C	0.968578	0.104821	0.409430
C37	C	0.913169	0.184902	0.450953
C38	C	0.862064	0.258741	0.401965
C39	C	0.866374	0.252496	0.311462
C40	C	0.894563	0.211825	0.721228
C41	C	0.890258	0.218066	0.811739
C42	C	0.996772	0.064144	0.819197
C43	C	1.001081	0.057911	0.728692
C44	C	0.949974	0.131747	0.679712
N45	N	0.908760	0.191283	0.543464
N46	N	0.954379	0.125360	0.587202
H47	H	0.685586	0.173216	0.190756
O48	O	1.054810	-0.020246	0.688586
C49	C	1.040263	-0.130934	0.710066
H50	H	0.975927	-0.129732	0.730409
H51	H	1.051951	-0.192261	0.651346
H52	H	1.081146	-0.160315	0.765812
H53	H	0.845134	0.283282	0.845542
O54	O	0.544130	0.148111	-0.116837
C55	C	0.505325	0.048193	-0.124269
H56	H	0.492589	0.019786	-0.056883
H57	H	0.447192	0.066323	-0.161632
H58	H	0.544813	-0.022324	-0.160301
H59	H	0.699224	0.153616	-0.093638
O60	O	0.333691	0.147293	-0.061499
C61	C	0.307371	0.241619	-0.111204
H62	H	0.276636	0.312768	-0.067352
H63	H	0.360281	0.273690	-0.143163
H64	H	0.263915	0.214672	-0.163286
H65	H	0.536460	0.168866	0.180276
H66	H	1.018016	0.033378	0.285124
O67	O	0.318826	0.168538	0.247599
C68	C	0.287958	0.269461	0.293256
H69	H	0.226505	0.298939	0.266573
H70	H	0.283618	0.252232	0.364894
H71	H	0.328788	0.338819	0.285223
O72	O	1.046519	-0.007478	0.866742
C73	C	1.125660	0.009732	0.850066
H74	H	1.127626	0.098890	0.825237
H75	H	1.162318	0.000927	0.912345
H76	H	1.151032	-0.056705	0.799133
O77	O	0.156967	0.163557	0.236221
C78	C	0.183263	0.069203	0.285905
H79	H	0.246854	0.036656	0.268016
H80	H	0.180723	0.096311	0.357668
H81	H	0.143476	-0.001654	0.272209
O82	O	0.816703	0.324342	0.264011
C83	C	0.766859	0.396345	0.320064
H84	H	0.796100	0.402213	0.386836
H85	H	0.756468	0.485133	0.293088
H86	H	0.707705	0.359917	0.325593
O87	O	1.018308	0.033058	0.456882
C88	C	1.068132	-0.038970	0.400825
H89	H	1.072282	0.003116	0.336379
H90	H	1.129747	-0.054203	0.431366
H91	H	1.042658	-0.124064	0.389402
O92	O	0.171633	0.142618	-0.072844
C93	C	0.115788	0.239110	-0.081474
H94	H	0.132483	0.311534	-0.035680
H95	H	0.115325	0.267267	-0.151062
H96	H	0.054400	0.216558	-0.064660
O97	O	0.808200	0.336381	0.442393
C98	C	0.756823	0.279009	0.491321
H99	H	0.787184	0.191258	0.507057
H100	H	0.741531	0.330722	0.554102
H101	H	0.700210	0.268654	0.452373
H102	H	0.852951	0.271947	0.681356
