data_functionalizedCrystal
_audit_creation_method	'MofGen! by Chris Wilmer'
_symmetry_space_group_name_H-M	'P1'
_symmetry_Int_Tables_number	1
_symmetry_cell_setting	triclinic
loop_
_symmetry_equiv_pos_as_xyz
  x,y,z
_cell_length_a	14.971486
_cell_length_b	15.944551
_cell_length_c	14.048226
_cell_angle_alpha	89.992615
_cell_angle_beta	89.998499
_cell_angle_gamma	83.556434
loop_
_atom_site_label
_atom_site_type_symbol
_atom_site_fract_x
_atom_site_fract_y
_atom_site_fract_z
O1	O	1.186829	0.109463	-0.079053
O2	O	1.686829	0.609463	0.420947
O3	O	0.926415	0.122572	-0.079079
O4	O	1.426415	0.622572	0.420921
O5	O	1.063733	-0.006251	-0.079057
O6	O	1.563733	0.493749	0.420943
O7	O	1.049510	0.238286	-0.079076
O8	O	1.549510	0.738286	0.420924
O9	O	1.063717	-0.006258	0.079264
O10	O	1.563717	0.493742	0.579264
O11	O	0.926398	0.122564	0.079242
O12	O	1.426398	0.622564	0.579242
O13	O	1.186812	0.109456	0.079268
O14	O	1.686812	0.609456	0.579268
Zn15	Zn	1.056603	0.116009	0.104392
Zn16	Zn	1.556603	0.616009	0.604392
Zn17	Zn	1.056624	0.116019	-0.104203
Zn18	Zn	1.556624	0.616019	0.395797
O19	O	1.049494	0.238278	0.079246
O20	O	1.549494	0.738278	0.579246
C21	C	0.893082	0.121982	0.000078
C22	C	1.393082	0.621982	0.500078
C23	C	0.793787	0.120225	0.000068
C24	C	1.293787	0.620225	0.500068
C25	C	1.063134	-0.037549	0.000104
C26	C	1.563134	0.462451	0.500104
C27	C	1.061364	-0.130797	0.000104
C28	C	1.561364	0.369203	0.500104
C29	C	0.736480	0.195904	0.000064
C30	C	1.236480	0.695904	0.500064
C31	C	0.643182	0.194249	0.000078
C32	C	1.143182	0.694249	0.500078
C33	C	0.607194	0.116913	0.000090
C34	C	1.107194	0.616913	0.500090
C35	C	0.664508	0.041227	0.000097
C36	C	1.164508	0.541227	0.500097
C37	C	0.757804	0.042884	0.000090
C38	C	1.257804	0.542884	0.500090
C39	C	0.470049	0.037780	0.000111
C40	C	0.970049	0.537780	0.500111
C41	C	0.376747	0.036123	0.000116
C42	C	0.876747	0.536123	0.500116
C43	C	0.355428	0.189145	0.000099
C44	C	0.855428	0.689145	0.500099
C45	C	0.448724	0.190801	0.000092
C46	C	0.948724	0.690801	0.500092
C47	C	0.506032	0.115116	0.000097
C48	C	1.006032	0.615116	0.500097
C49	C	0.972017	-0.345738	0.000082
C50	C	1.472017	0.154262	0.500082
C51	C	1.013499	-0.406720	0.078148
C52	C	1.513499	0.093280	0.578148
C53	C	1.058162	-0.301526	0.000096
C54	C	1.558162	0.198474	0.500096
C55	C	1.013535	-0.406696	-0.077944
C56	C	1.513535	0.093304	0.422056
C57	C	1.055062	-0.466441	0.000085
C58	C	1.555062	0.033559	0.500085
C59	C	1.099667	-0.361279	0.078227
C60	C	1.599667	0.138721	0.578227
C61	C	1.099692	-0.361248	-0.077935
C62	C	1.599692	0.138752	0.422065
C63	C	1.141236	-0.422212	0.000150
C64	C	1.641236	0.077788	0.500150
C65	C	1.059945	-0.206522	0.000104
C66	C	1.559945	0.293478	0.500104
C67	C	1.053286	-0.561444	0.000084
C68	C	1.553286	-0.061444	0.500084
C69	C	1.220145	0.110046	0.000109
C70	C	1.720145	0.610046	0.500109
C71	C	1.319440	0.111802	0.000112
C72	C	1.819440	0.611802	0.500112
C73	C	1.050093	0.269576	0.000083
C74	C	1.550093	0.769576	0.500083
C75	C	1.051863	0.362824	0.000076
C76	C	1.551863	0.862824	0.500076
N77	N	1.056594	0.116001	0.246753
N78	N	1.556594	0.616001	0.746753
N79	N	1.056640	0.116019	-0.246564
N80	N	1.556640	0.616019	0.253436
C81	C	1.117418	0.058982	0.296581
C82	C	1.617418	0.558982	0.796581
C83	C	1.117424	0.058982	0.396238
C84	C	1.617424	0.558982	0.896238
C85	C	1.056610	0.116005	0.446066
C86	C	1.556610	0.616005	0.946066
C87	C	0.995780	0.173027	0.396231
C88	C	1.495780	0.673027	0.896231
C89	C	0.995770	0.173022	0.296575
C90	C	1.495770	0.673022	0.796575
C91	C	0.995806	0.173033	0.603945
C92	C	1.495806	0.673033	1.103945
C93	C	0.995816	0.173038	0.703608
C94	C	1.495816	0.673038	1.203608
C95	C	1.117459	0.058992	0.703608
C96	C	1.617459	0.558992	1.203608
C97	C	1.117450	0.058988	0.603952
C98	C	1.617450	0.558988	1.103952
C99	C	1.056621	0.116011	0.554124
C100	C	1.556621	0.616011	1.054124
H101	H	0.765774	0.258881	0.000053
H102	H	1.265774	0.758881	0.500053
N103	N	1.231011	-0.463734	0.000188
N104	N	1.731011	0.036266	0.500188
N105	N	1.283470	-0.451110	-0.066196
N106	N	1.783470	0.048890	0.433804
H107	H	1.346873	-0.480437	-0.066167
H108	H	1.846873	0.019563	0.433833
H109	H	0.635199	-0.021741	0.000121
H110	H	1.135199	0.478259	0.500121
N111	N	0.967835	-0.431952	-0.160739
N112	N	1.467835	0.068048	0.339261
N113	N	0.959746	-0.508202	-0.174350
N114	N	1.459746	-0.008202	0.325650
H115	H	0.927467	-0.526038	-0.232820
H116	H	1.427467	-0.026038	0.267180
N117	N	0.933655	0.231269	0.245659
N118	N	1.433655	0.731269	0.745659
N119	N	0.933655	0.231258	0.156682
N120	N	1.433655	0.731258	0.656682
H121	H	0.889783	0.272395	0.120721
H122	H	1.389783	0.772395	0.620721
H123	H	0.308763	0.250771	0.000099
H124	H	0.808763	0.750771	0.500099
N125	N	1.145366	-0.335953	-0.160731
N126	N	1.645366	0.164047	0.339269
N127	N	1.116014	-0.350254	-0.241729
N128	N	1.616014	0.149746	0.258271
H129	H	1.148265	-0.332388	-0.300212
H130	H	1.648265	0.167612	0.199788
N131	N	1.179498	0.000683	0.245702
N132	N	1.679498	0.500683	0.745702
N133	N	1.233763	-0.050257	0.290208
N134	N	1.733763	0.449743	0.790208
H135	H	1.277588	-0.091454	0.254278
H136	H	1.777588	0.408546	0.754278
N137	N	0.584653	0.271559	0.000095
N138	N	1.084653	0.771559	0.500095
N139	N	0.587953	0.322965	0.066828
N140	N	1.087953	0.822965	0.566828
H141	H	0.546619	0.377571	0.066845
H142	H	1.046619	0.877571	0.566845
N143	N	0.485505	0.269788	0.000071
N144	N	0.985505	0.769788	0.500071
N145	N	0.535188	0.287779	-0.066671
N146	N	1.035188	0.787779	0.433329
H147	H	0.561167	0.343564	-0.066684
H148	H	1.061167	0.843564	0.433316
N149	N	0.339998	-0.042880	0.000131
N150	N	0.839998	0.457120	0.500131
N151	N	0.391172	-0.110449	0.000145
N152	N	0.891172	0.389551	0.500145
H153	H	0.365219	-0.166247	0.000157
H154	H	0.865219	0.333753	0.500157
H155	H	0.977056	-0.426866	0.144140
H156	H	1.477056	0.073134	0.644140
H157	H	1.136066	-0.341257	0.144298
H158	H	1.636066	0.158743	0.644298
N159	N	1.179557	0.000729	0.447121
N160	N	1.679557	0.500729	0.947121
N161	N	1.233853	-0.050177	0.402621
N162	N	1.733853	0.449823	0.902621
H163	H	1.277736	-0.091322	0.438556
H164	H	1.777736	0.408678	0.938556
N165	N	1.179590	0.000740	0.754504
N166	N	1.679590	0.500740	1.254504
N167	N	1.262263	0.002010	0.743385
N168	N	1.762263	0.502010	1.243385
H169	H	1.306139	-0.039127	0.779340
H170	H	1.806139	0.460873	1.279340
H171	H	0.804463	-0.018742	0.000093
H172	H	1.304463	0.481258	0.500093
H173	H	0.516708	-0.023852	0.000117
H174	H	1.016708	0.476148	0.500117
N175	N	1.179621	0.000780	0.553067
N176	N	1.679621	0.500780	1.053067
N177	N	1.233955	-0.050103	0.597565
N178	N	1.733955	0.449897	1.097565
H179	H	1.277879	-0.091200	0.561628
H180	H	1.777879	0.408800	1.061628
N181	N	0.882313	-0.304047	0.000173
N182	N	1.382313	0.195953	0.500173
N183	N	0.830171	-0.315956	0.067092
N184	N	1.330171	0.184044	0.567092
H185	H	0.766819	-0.286512	0.067160
H186	H	1.266819	0.213488	0.567160
N187	N	0.933681	0.231281	0.754493
N188	N	1.433681	0.731281	1.254493
N189	N	0.879363	0.282178	0.709996
N190	N	1.379363	0.782178	1.209996
H191	H	0.835475	0.323310	0.745933
H192	H	1.335475	0.823310	1.245933
H193	H	0.946269	0.219464	0.563379
H194	H	1.446269	0.719464	1.063379
N195	N	0.933646	0.231261	0.447128
N196	N	1.433646	0.731261	0.947128
N197	N	0.878136	0.204521	0.502750
N198	N	1.378136	0.704521	1.002750
H199	H	0.834252	0.245650	0.538696
H200	H	1.334252	0.745650	1.038696
