data_functionalizedCrystal
_audit_creation_method	'MofGen! by Chris Wilmer'
_symmetry_space_group_name_H-M	'P1'
_symmetry_Int_Tables_number	1
_symmetry_cell_setting	triclinic
loop_
_symmetry_equiv_pos_as_xyz
  x,y,z
_cell_length_a	12.759395
_cell_length_b	18.101395
_cell_length_c	12.759387
_cell_angle_alpha	89.967189
_cell_angle_beta	89.979491
_cell_angle_gamma	90.032641
loop_
_atom_site_label
_atom_site_type_symbol
_atom_site_fract_x
_atom_site_fract_y
_atom_site_fract_z
Zn1	Zn	1.606149	-0.294760	-0.593990
Zn2	Zn	1.605989	-0.418620	-0.418305
Zn3	Zn	1.430447	-0.294801	-0.418327
Zn4	Zn	1.430389	-0.418568	-0.593944
O5	O	1.518244	-0.356687	-0.506141
O6	O	1.753149	-0.311196	-0.570695
O7	O	1.582661	-0.402234	-0.271286
O8	O	1.453845	-0.191162	-0.441658
O9	O	1.753032	-0.402195	-0.441620
O10	O	1.582933	-0.191133	-0.570717
O11	O	1.453691	-0.311264	-0.271303
O12	O	1.283418	-0.311213	-0.441613
O13	O	1.453747	-0.402105	-0.740971
O14	O	1.283376	-0.402145	-0.570638
O15	O	1.582877	-0.311145	-0.741005
O16	O	1.582604	-0.522246	-0.441575
O17	O	1.453592	-0.522208	-0.570616
C18	C	1.245276	-0.356678	-0.506123
C19	C	1.128499	-0.356692	-0.506141
C20	C	1.128494	-0.451532	-0.640277
C21	C	1.073630	-0.498958	-0.707348
C22	C	0.963908	-0.498967	-0.707361
C23	C	0.909048	-0.451543	-0.640297
C24	C	0.963912	-0.404118	-0.573226
C25	C	1.073636	-0.404115	-0.573219
C26	C	0.963917	-0.309275	-0.439097
C27	C	1.073639	-0.309269	-0.439077
C28	C	0.909057	-0.261852	-0.372034
C29	C	0.963921	-0.214429	-0.304956
C30	C	1.073649	-0.214422	-0.304945
C31	C	1.128503	-0.261843	-0.372006
C32	C	1.518103	-0.549098	-0.506111
C33	C	1.518139	-0.631412	-0.506133
C34	C	1.518370	-0.930503	-0.506189
C35	C	1.437387	-0.899184	-0.587580
C36	C	1.437002	-0.813566	-0.587325
C37	C	1.518255	-0.782120	-0.506162
C38	C	1.488272	-0.813280	-0.395437
C39	C	1.487750	-0.898925	-0.395924
C40	C	1.629513	-0.898842	-0.534549
C41	C	1.628859	-0.813191	-0.536977
C42	C	1.518192	-0.698261	-0.506140
C43	C	1.518430	-1.014362	-0.506204
C44	C	1.792277	-0.356697	-0.506160
C45	C	1.909054	-0.356701	-0.506168
C46	C	1.518323	-0.356615	-0.780175
C47	C	1.518357	-0.356584	-0.896952
C48	C	1.518413	-0.163525	-0.506196
C49	C	1.518486	-0.081211	-0.506219
C50	C	1.652829	-0.261872	-0.897007
C51	C	1.720080	-0.214506	-0.951896
C52	C	1.720105	-0.214479	-1.061618
C53	C	1.652871	-0.261822	-1.116453
C54	C	1.585620	-0.309189	-1.061565
C55	C	1.585604	-0.309212	-0.951840
C56	C	1.451144	-0.403895	-1.061509
C57	C	1.451122	-0.403927	-0.951788
C58	C	1.383910	-0.451238	-1.116345
C59	C	1.316662	-0.498610	-1.061456
C60	C	1.316641	-0.498636	-0.951728
C61	C	1.383872	-0.451294	-0.896899
C62	C	1.518225	-0.356706	-0.233174
C63	C	1.518395	-0.356528	-0.116398
H64	H	0.919238	-0.537581	-0.761981
C65	C	1.249190	-0.451527	-0.640268
N66	N	1.340101	-0.451523	-0.640265
C67	C	1.133984	-0.551124	-0.781109
N68	N	1.179441	-0.590417	-0.836666
C69	C	1.379670	-0.784402	-0.362402
N70	N	1.297868	-0.762654	-0.337526
C71	C	1.666437	-0.927940	-0.641772
N72	N	1.694236	-0.949856	-0.722537
H73	H	0.819707	-0.451549	-0.640323
H74	H	1.774860	-0.175904	-1.106308
H75	H	1.651469	-0.792822	-0.618465
C76	C	0.788360	-0.261856	-0.372061
N77	N	0.697450	-0.261858	-0.372079
H78	H	1.354620	-0.793146	-0.568540
C79	C	1.249200	-0.261845	-0.371994
N80	N	1.340110	-0.261849	-0.371988
C81	C	0.903568	-0.162267	-0.231198
N82	N	0.858106	-0.122979	-0.175640
H83	H	1.544176	-0.919645	-0.333213
C84	C	1.133990	-0.162249	-0.231160
N85	N	1.179436	-0.122951	-0.175583
C86	C	1.383948	-0.451213	-1.237042
N87	N	1.383983	-0.451200	-1.327952
H88	H	1.692388	-0.791781	-0.482017
H89	H	1.689848	-0.919095	-0.475269
C90	C	1.462341	-0.785100	-0.698243
N91	N	1.481422	-0.763662	-0.781792
H92	H	1.261865	-0.537200	-0.907044
H93	H	1.383865	-0.451313	-0.807558
H94	H	1.455960	-0.919726	-0.669948
C95	C	1.377989	-0.926008	-0.363475
N96	N	1.295314	-0.946404	-0.339038
H97	H	1.652825	-0.261897	-0.807666
C98	C	1.326765	-0.928340	-0.562514
N99	N	1.243444	-0.950298	-0.543628
C100	C	1.565442	-0.785760	-0.311273
N101	N	1.623567	-0.765029	-0.247882
C102	C	1.794033	-0.162430	-0.891569
N103	N	1.849734	-0.123205	-0.846133
H104	H	1.261920	-0.537149	-1.106112
H105	H	1.652889	-0.261789	-1.205794
