data_functionalizedCrystal
_audit_creation_method	'MofGen! by Chris Wilmer'
_symmetry_space_group_name_H-M	'P1'
_symmetry_Int_Tables_number	1
_symmetry_cell_setting	triclinic
loop_
_symmetry_equiv_pos_as_xyz
  x,y,z
_cell_length_a	23.532407
_cell_length_b	13.262533
_cell_length_c	12.376457
_cell_angle_alpha	94.179852
_cell_angle_beta	78.788322
_cell_angle_gamma	96.327681
loop_
_atom_site_label
_atom_site_type_symbol
_atom_site_fract_x
_atom_site_fract_y
_atom_site_fract_z
O1	O	-0.112924	1.324379	0.313209
O2	O	-0.111072	1.037699	0.225066
O3	O	-0.029422	1.189687	0.271782
O4	O	-0.194574	1.172391	0.266493
O5	O	-0.049806	1.151704	0.448120
O6	O	-0.131456	0.999716	0.401403
O7	O	-0.133307	1.286396	0.489547
Zn8	Zn	-0.135618	1.137025	0.473472
Zn9	Zn	-0.108762	1.187070	0.241140
O10	O	-0.214957	1.134408	0.442830
C11	C	-0.119493	0.982038	0.301960
C12	C	-0.114209	0.872773	0.268364
C13	C	-0.143765	0.481946	0.558149
C14	C	-0.148733	0.584604	0.589719
C15	C	-0.140102	0.656651	0.509383
C16	C	-0.126503	0.626031	0.397471
C17	C	-0.121539	0.523362	0.365898
C18	C	-0.117876	0.698066	0.317132
C19	C	-0.104276	0.667446	0.205220
C20	C	-0.099313	0.564787	0.173652
C21	C	-0.107943	0.492740	0.253988
C22	C	-0.122840	0.800735	0.348705
C23	C	-0.100614	0.842151	0.156454
C24	C	-0.095646	0.739493	0.124884
C25	C	-0.226000	1.153839	0.354800
C26	C	-0.289273	1.155161	0.355217
C27	C	-0.684994	1.073534	0.330062
C28	C	-0.744444	1.074765	0.330433
O29	O	-0.778055	0.999094	0.307125
N30	N	-0.770807	1.165120	0.358215
C31	C	-0.737715	1.254251	0.385618
O32	O	-0.765597	1.331218	0.409282
C33	C	-0.678265	1.253020	0.385239
C34	C	-0.651907	1.162658	0.357466
C35	C	-0.658636	0.983179	0.302290
C36	C	-0.599190	0.981947	0.301922
C37	C	-0.566102	1.071071	0.329325
C38	C	-0.592461	1.161426	0.357097
C39	C	-0.645173	1.342153	0.412634
C40	C	-0.585719	1.340914	0.412252
C41	C	-0.559361	1.250551	0.384479
C42	C	-0.499928	1.249319	0.384132
N43	N	-0.473565	1.158964	0.356350
C44	C	-0.506652	1.069841	0.328947
C45	C	-0.862564	1.256829	0.386409
C46	C	-0.922013	1.258059	0.386795
C47	C	-0.928739	1.078573	0.331608
C48	C	-0.869289	1.077343	0.331230
C49	C	-0.836201	1.166475	0.358627
C50	C	-0.381811	1.067261	0.328176
C51	C	-0.322360	1.066037	0.327814
C52	C	-0.315640	1.245524	0.382995
C53	C	-0.375086	1.246747	0.383362
C54	C	-0.408170	1.157609	0.355947
O55	O	-0.466280	1.324952	0.407424
O56	O	-0.478761	0.992889	0.305273
C57	C	-0.018379	1.170256	0.359810
C58	C	0.044895	1.168936	0.359386
C59	C	-0.124886	1.342058	0.412651
C60	C	-0.130170	1.451324	0.446240
N61	N	-0.153946	1.102878	0.632035
N62	N	-0.090429	1.221224	0.082580
C63	C	-0.047872	1.300490	1.047760
C64	C	-0.035044	1.324384	0.936764
C65	C	-0.064768	1.269010	0.860577
C66	C	-0.107323	1.189737	0.895395
C67	C	-0.120156	1.165846	1.006403
C68	C	-0.137052	1.134365	0.819220
C69	C	-0.179607	1.055093	0.854039
C70	C	-0.192437	1.031206	0.965036
C71	C	-0.162713	1.086580	1.041224
C72	C	-0.124219	1.158257	0.708212
C73	C	-0.196503	1.023613	0.666855
C74	C	-0.209331	0.999719	0.777851
H75	H	-0.150795	0.423277	0.623546
H76	H	-0.220709	0.978523	0.604823
O77	O	-0.145012	0.756364	0.539980
C78	C	-0.189409	0.790417	0.494205
H79	H	-0.220894	0.722772	0.475213
H80	H	-0.213908	0.846284	0.555540
H81	H	-0.169325	0.829733	0.414848
H82	H	-0.943471	1.331638	0.409427
H83	H	-0.159805	0.609528	0.680837
H84	H	-0.103894	0.409147	0.228290
O85	O	-0.233778	0.954265	0.999055
C86	C	-0.238719	0.945036	1.113358
H87	H	-0.222201	1.020246	1.152627
H88	H	-0.286288	0.924573	1.152054
H89	H	-0.211664	0.882829	1.127824
O90	O	0.006430	1.401234	0.903131
C91	C	0.060179	1.379729	0.925717
H92	H	0.059861	1.294318	0.931888
H93	H	0.096846	1.407055	0.856445
H94	H	0.067292	1.420424	1.007078
O95	O	-0.296752	0.978240	0.301023
C96	C	-0.273117	0.952492	0.390471
H97	H	-0.296505	0.990037	0.470075
H98	H	-0.278966	0.866502	0.396714
H99	H	-0.224769	0.980112	0.376955
O100	O	-0.250604	0.922655	0.811788
C101	C	-0.225198	0.848405	0.857402
H102	H	-0.184076	0.884478	0.886199
H103	H	-0.257382	0.815801	0.930611
H104	H	-0.213593	0.784897	0.792284
H105	H	-0.054321	1.288468	0.770200
H106	H	-0.666623	1.415736	0.435249
H107	H	-0.089571	1.222800	0.679873
H108	H	-0.088245	0.539859	0.082526
H109	H	-0.023678	1.345574	1.109799
H110	H	-0.577733	0.908367	0.279297
O111	O	-0.283446	1.332109	0.409415
C112	C	-0.238286	1.356406	0.319525
H113	H	-0.250734	1.319597	0.240155
H114	H	-0.231082	1.442365	0.313258
H115	H	-0.196525	1.326904	0.332474
O116	O	-0.830516	1.343496	0.413114
C117	C	-0.866536	1.423505	0.437688
H118	H	-0.913759	1.390870	0.463245
H119	H	-0.852933	1.474888	0.508077
H120	H	-0.862042	1.469454	0.361616
O121	O	-0.092316	0.912203	0.078502
C122	C	-0.143377	0.961181	0.087428
H123	H	-0.170054	0.954701	0.174426
H124	H	-0.131178	1.044755	0.069752
H125	H	-0.170187	0.923694	0.025326
H126	H	-0.084573	0.714547	0.033764
O127	O	-0.413865	0.980573	0.301567
C128	C	-0.377839	0.900575	0.276953
H129	H	-0.338339	0.918830	0.318164
H130	H	-0.403285	0.827134	0.308961
H131	H	-0.362763	0.891070	0.183832
O132	O	-0.960805	0.991897	0.304997
C133	C	-0.924794	0.911879	0.280366
H134	H	-0.885290	0.930106	0.321573
H135	H	-0.950250	0.838445	0.312366
H136	H	-0.909722	0.902382	0.187244
H137	H	-0.685569	0.910600	0.279970
H138	H	-0.847833	1.003760	0.308619
H139	H	-0.558781	1.413499	0.434556
H140	H	-0.173156	1.067124	1.131605
O141	O	-0.135946	0.830450	0.457429
C142	C	-0.092650	0.804366	0.511762
H143	H	-0.050641	0.796391	0.449333
H144	H	-0.084557	0.866387	0.577327
H145	H	-0.107742	0.729230	0.552560
O146	O	-0.400597	1.334620	0.410321
C147	C	-0.358646	1.413011	0.434458
H148	H	-0.313392	1.393006	0.392736
H149	H	-0.367540	1.487157	0.402651
H150	H	-0.361081	1.422262	0.527501
