data_functionalizedCrystal
_audit_creation_method	'MofGen! by Chris Wilmer'
_symmetry_space_group_name_H-M	'P1'
_symmetry_Int_Tables_number	1
_symmetry_cell_setting	triclinic
loop_
_symmetry_equiv_pos_as_xyz
  x,y,z
_cell_length_a	11.169417
_cell_length_b	16.625546
_cell_length_c	11.169409
_cell_angle_alpha	89.961635
_cell_angle_beta	89.979436
_cell_angle_gamma	90.023347
loop_
_atom_site_label
_atom_site_type_symbol
_atom_site_fract_x
_atom_site_fract_y
_atom_site_fract_z
Zn1	Zn	1.834870	-0.320918	-0.678492
Zn2	Zn	1.834714	-0.455780	-0.477788
Zn3	Zn	1.634153	-0.320967	-0.477826
Zn4	Zn	1.634121	-0.455714	-0.678432
O5	O	1.734465	-0.388345	-0.578135
O6	O	2.002799	-0.338815	-0.651877
O7	O	1.808058	-0.437944	-0.309843
O8	O	1.660857	-0.208128	-0.504486
O9	O	2.002685	-0.437897	-0.504420
O10	O	1.808323	-0.208092	-0.651914
O11	O	1.660706	-0.338898	-0.309871
O12	O	1.466199	-0.338835	-0.504428
O13	O	1.660802	-0.437785	-0.846390
O14	O	1.466175	-0.437833	-0.651813
O15	O	1.808292	-0.338751	-0.846434
O16	O	1.808026	-0.568604	-0.504362
O17	O	1.660651	-0.568555	-0.651775
C18	C	1.422640	-0.388333	-0.578119
C19	C	1.289240	-0.388347	-0.578141
C20	C	1.734351	-0.597836	-0.578084
C21	C	1.734412	-0.687457	-0.578103
C22	C	1.734622	-1.015632	-0.578228
C23	C	1.734559	-0.924324	-0.578197
C24	C	1.734516	-0.851547	-0.578165
C25	C	1.734456	-0.760233	-0.578135
C26	C	2.047507	-0.388358	-0.578151
C27	C	2.180907	-0.388363	-0.578158
C28	C	1.734561	-0.388255	-0.891177
C29	C	1.734602	-0.388217	-1.024577
C30	C	1.734611	-0.178036	-0.578211
C31	C	1.734674	-0.088415	-0.578244
C32	C	1.734438	-0.388376	-0.266310
C33	C	1.734629	-0.388186	-0.132910
