data_functionalizedCrystal
_audit_creation_method	'MofGen! by Chris Wilmer'
_symmetry_space_group_name_H-M	'P1'
_symmetry_Int_Tables_number	1
_symmetry_cell_setting	triclinic
loop_
_symmetry_equiv_pos_as_xyz
  x,y,z
_cell_length_a	14.519731
_cell_length_b	14.519709
_cell_length_c	9.198806
_cell_angle_alpha	89.995869
_cell_angle_beta	89.995963
_cell_angle_gamma	83.684499
loop_
_atom_site_label
_atom_site_type_symbol
_atom_site_fract_x
_atom_site_fract_y
_atom_site_fract_z
O1	O	1.223855	0.120983	-0.120899
O2	O	1.473855	0.370983	0.129101
O3	O	1.723855	0.620983	0.379101
O4	O	1.973855	0.870983	0.629101
O5	O	0.955381	0.135199	-0.120901
O6	O	1.205381	0.385199	0.129099
O7	O	1.455381	0.635199	0.379099
O8	O	1.705381	0.885199	0.629099
O9	O	1.096736	-0.006147	-0.120887
O10	O	1.346736	0.243853	0.129113
O11	O	1.596736	0.493853	0.379113
O12	O	1.846736	0.743853	0.629113
O13	O	1.082500	0.262329	-0.120913
O14	O	1.332500	0.512329	0.129087
O15	O	1.582500	0.762329	0.379087
O16	O	1.832500	1.012329	0.629087
O17	O	1.096725	-0.006147	0.120898
O18	O	1.346725	0.243853	0.370898
O19	O	1.596725	0.493853	0.620898
O20	O	1.846725	0.743853	0.870898
O21	O	0.955369	0.135198	0.120884
O22	O	1.205369	0.385198	0.370884
O23	O	1.455369	0.635198	0.620884
O24	O	1.705369	0.885198	0.870884
O25	O	1.223844	0.120982	0.120886
O26	O	1.473844	0.370982	0.370886
O27	O	1.723844	0.620982	0.620886
O28	O	1.973844	0.870982	0.870886
Cu29	Cu	1.089606	0.128090	0.142962
Cu30	Cu	1.339606	0.378090	0.392962
Cu31	Cu	1.589606	0.628090	0.642962
Cu32	Cu	1.839606	0.878090	0.892962
Cu33	Cu	1.089619	0.128091	-0.142977
Cu34	Cu	1.339619	0.378091	0.107023
Cu35	Cu	1.589619	0.628091	0.357023
Cu36	Cu	1.839619	0.878091	0.607023
O37	O	1.082488	0.262328	0.120872
O38	O	1.332488	0.512328	0.370872
O39	O	1.582488	0.762328	0.620872
O40	O	1.832488	1.012328	0.870872
C41	C	0.921016	0.134532	-0.000009
C42	C	1.171016	0.384532	0.249991
C43	C	1.421016	0.634532	0.499991
C44	C	1.671016	0.884532	0.749991
C45	C	0.818635	0.132536	-0.000010
C46	C	1.068635	0.382536	0.249990
C47	C	1.318635	0.632536	0.499990
C48	C	1.568635	0.882536	0.749990
C49	C	1.096067	-0.040507	0.000006
C50	C	1.346067	0.209493	0.250006
C51	C	1.596067	0.459493	0.500006
C52	C	1.846067	0.709493	0.750006
C53	C	1.094079	-0.142889	0.000007
C54	C	1.344079	0.107111	0.250007
C55	C	1.594079	0.357111	0.500007
C56	C	1.844079	0.607111	0.750007
C57	C	0.735491	0.130915	-0.000015
C58	C	0.985491	0.380915	0.249985
C59	C	1.235491	0.630915	0.499985
C60	C	1.485491	0.880915	0.749985
C61	C	0.631182	0.128888	-0.000016
C62	C	0.881182	0.378888	0.249984
C63	C	1.131182	0.628888	0.499984
C64	C	1.381182	0.878888	0.749984
C65	C	0.548043	0.127280	-0.000015
C66	C	0.798043	0.377280	0.249985
C67	C	1.048043	0.627280	0.499985
C68	C	1.298043	0.877280	0.749985
C69	C	0.443728	0.125253	-0.000018
C70	C	0.693728	0.375253	0.249982
C71	C	0.943728	0.625253	0.499982
C72	C	1.193728	0.875253	0.749982
C73	C	1.086759	-0.517785	-0.000031
C74	C	1.336759	-0.267785	0.249969
C75	C	1.586759	-0.017785	0.499969
C76	C	1.836759	0.232215	0.749969
C77	C	1.088792	-0.413477	-0.000020
C78	C	1.338792	-0.163477	0.249980
C79	C	1.588792	0.086523	0.499980
C80	C	1.838792	0.336523	0.749980
C81	C	1.090419	-0.330340	-0.000011
C82	C	1.340419	-0.080340	0.249989
C83	C	1.590419	0.169660	0.499989
C84	C	1.840419	0.419660	0.749989
C85	C	1.092452	-0.226025	-0.000003
C86	C	1.342452	0.023975	0.249997
C87	C	1.592452	0.273975	0.499997
C88	C	1.842452	0.523975	0.749997
C89	C	1.258209	0.121649	-0.000009
C90	C	1.508209	0.371649	0.249991
C91	C	1.758209	0.621649	0.499991
C92	C	2.008209	0.871649	0.749991
C93	C	1.360589	0.123645	-0.000018
C94	C	1.610589	0.373645	0.249982
C95	C	1.860589	0.623645	0.499982
C96	C	2.110589	0.873645	0.749982
C97	C	1.083157	0.296688	-0.000024
C98	C	1.333157	0.546688	0.249976
C99	C	1.583157	0.796688	0.499976
C100	C	1.833157	1.046688	0.749976
C101	C	1.085146	0.399070	-0.000034
C102	C	1.335146	0.649070	0.249966
C103	C	1.585146	0.899070	0.499966
C104	C	1.835146	1.149070	0.749966
N105	N	1.089603	0.128090	0.344076
N106	N	1.339603	0.378090	0.594076
N107	N	1.589603	0.628090	0.844076
N108	N	1.839603	0.878090	1.094076
N109	N	1.089629	0.128084	-0.344091
N110	N	1.339629	0.378084	-0.094091
N111	N	1.589629	0.628084	0.155909
N112	N	1.839629	0.878084	0.405909
C113	C	1.148956	0.068483	0.416279
C114	C	1.398956	0.318483	0.666279
C115	C	1.648956	0.568483	0.916279
C116	C	1.898956	0.818483	1.166279
C117	C	1.148970	0.068479	0.583691
C118	C	1.398970	0.318479	0.833691
C119	C	1.648970	0.568479	1.083691
C120	C	1.898970	0.818479	1.333691
H121	H	1.199757	0.017449	0.354158
H122	H	1.449757	0.267449	0.604158
H123	H	1.699757	0.517449	0.854158
H124	H	1.949757	0.767449	1.104158
H125	H	1.038815	0.179122	0.593827
H126	H	1.288815	0.429122	0.843827
H127	H	1.538815	0.679122	1.093827
H128	H	1.788815	0.929122	1.343827
H129	H	1.038796	0.179116	0.406199
H130	H	1.288796	0.429116	0.656199
H131	H	1.538796	0.679116	0.906199
H132	H	1.788796	0.929116	1.156199
F133	F	1.215395	0.001779	0.664846
F134	F	1.465395	0.251779	0.914846
F135	F	1.715395	0.501779	1.164846
F136	F	1.965395	0.751779	1.414846
