data_functionalizedCrystal
_audit_creation_method	'MofGen! by Chris Wilmer'
_symmetry_space_group_name_H-M	'P1'
_symmetry_Int_Tables_number	1
_symmetry_cell_setting	triclinic
loop_
_symmetry_equiv_pos_as_xyz
  x,y,z
_cell_length_a	27.440280
_cell_length_b	27.440280
_cell_length_c	27.440280
_cell_angle_alpha	59.999523
_cell_angle_beta	90.008003
_cell_angle_gamma	60.007024
loop_
_atom_site_label
_atom_site_type_symbol
_atom_site_fract_x
_atom_site_fract_y
_atom_site_fract_z
Zr1	Zr	0.469578	0.533349	-0.063938
O2	O	0.391773	0.635015	-0.141766
O3	O	0.493420	0.431683	-0.040073
O4	O	0.493433	0.533337	-0.141744
O5	O	0.391761	0.533371	0.040099
O6	O	0.573636	0.533328	-0.141734
O7	O	0.391760	0.533361	-0.040094
O8	O	0.573612	0.351488	0.040138
O9	O	0.391785	0.715211	-0.141773
O10	O	0.563454	0.473493	-0.029895
O11	O	0.503601	0.473507	0.029945
O12	O	0.503617	0.593191	-0.089760
O13	O	0.443763	0.593205	-0.029920
Zr14	Zr	0.597494	0.533349	0.063978
Zr15	Zr	0.597493	0.533334	-0.063922
Zr16	Zr	0.469580	0.533364	0.063962
Zr17	Zr	0.469597	0.661252	-0.063949
Zr18	Zr	0.597476	0.405446	0.063989
O19	O	0.573653	0.635015	0.040113
O20	O	0.573651	0.634994	-0.141743
O21	O	0.391776	0.635036	0.040090
O22	O	0.675300	0.431683	0.141806
O23	O	0.675297	0.431662	-0.040050
O24	O	0.493422	0.431705	0.141783
O25	O	0.675312	0.533328	-0.040059
O26	O	0.573640	0.533361	0.141785
O27	O	0.493437	0.533371	0.141775
O28	O	0.675313	0.533337	0.040134
O29	O	0.493459	0.715199	-0.141760
O30	O	0.573613	0.351500	0.141801
O31	O	0.675288	0.351488	0.141813
O32	O	0.675286	0.351476	0.040150
O33	O	0.391786	0.715223	-0.040110
O34	O	0.493461	0.715211	-0.040098
O35	O	0.563456	0.473507	0.089800
O36	O	0.623310	0.473493	0.029960
O37	O	0.563472	0.593191	-0.029905
O38	O	0.503618	0.593205	0.029935
C39	C	0.533513	0.373362	0.000034
C40	C	0.533505	0.319064	0.000039
C41	C	0.373535	0.533368	-0.000000
C42	C	0.319232	0.533374	-0.000007
C43	C	0.577721	0.040181	0.044211
C44	C	0.577715	0.091203	0.044214
O45	O	0.615296	0.080026	0.081782
N46	N	0.533531	0.160894	0.000027
C47	C	0.489352	0.179563	-0.044168
O48	O	0.451769	0.243525	-0.081753
C49	C	0.489360	0.128541	-0.044173
C50	C	0.533544	0.058850	0.000020
C51	C	0.621902	-0.029507	0.088400
C52	C	0.621906	-0.080525	0.088398
C53	C	0.577730	-0.061856	0.044208
C54	C	0.533549	0.007832	0.000019
C55	C	0.445185	0.147211	-0.088370
C56	C	0.445197	0.096182	-0.088371
C57	C	0.489381	0.026491	-0.044178
C58	C	0.489377	-0.024517	-0.044174
N59	N	0.533562	-0.094208	0.000012
C60	C	0.577739	-0.112877	0.044203
C61	C	0.489338	0.286708	-0.044157
C62	C	0.489327	0.337729	-0.044151
C63	C	0.577691	0.249365	0.044231
C64	C	0.577699	0.198344	0.044227
C65	C	0.533523	0.217017	0.000030
C66	C	0.577745	-0.220016	0.044196
C67	C	0.577744	-0.271035	0.044192
C68	C	0.489382	-0.182667	-0.044191
C69	C	0.489380	-0.131652	-0.044185
C70	C	0.533567	-0.150332	0.000011
O71	O	0.451818	-0.013392	-0.081725
O72	O	0.615320	-0.176840	0.081777
C73	C	0.013769	0.470857	0.031286
C74	C	-0.037249	0.470853	0.031291
O75	O	-0.037073	0.417715	0.057885
N76	N	-0.094001	0.533333	0.000041
C77	C	-0.099733	0.595822	-0.031211
O78	O	-0.152689	0.648966	-0.057790
C79	C	-0.048715	0.595825	-0.031212
C80	C	0.008036	0.533340	0.000034
C81	C	0.070518	0.408377	0.062530
C82	C	0.121532	0.408381	0.062524
C83	C	0.115799	0.470865	0.031273
C84	C	0.059051	0.533344	0.000028
C85	C	-0.054448	0.658313	-0.062461
C86	C	-0.003424	0.658310	-0.062459
C87	C	0.053327	0.595826	-0.031212
C88	C	0.104332	0.595832	-0.031229
N89	N	0.161083	0.533351	0.000020
C90	C	0.166817	0.470868	0.031272
C91	C	-0.206872	0.595811	-0.031205
C92	C	-0.257889	0.595808	-0.031207
C93	C	-0.195401	0.470839	0.031296
C94	C	-0.144384	0.470842	0.031294
C95	C	-0.150120	0.533330	0.000045
C96	C	0.273949	0.470881	0.031255
C97	C	0.324966	0.470891	0.031244
C98	C	0.262474	0.595860	-0.031256
C99	C	0.211462	0.595850	-0.031247
C100	C	0.217203	0.533356	0.000013
O101	O	0.104202	0.648943	-0.057808
O102	O	0.219775	0.417732	0.057853
C103	C	0.693537	0.533330	0.000040
C104	C	0.747840	0.533324	0.000047
C105	C	0.533534	0.533330	-0.159962
C106	C	0.533533	0.533324	-0.214259
C107	C	0.533560	0.693336	0.000006
C108	C	0.533568	0.747634	0.000001
C109	C	0.502307	0.595842	-0.582242
C110	C	0.502309	0.595846	-0.633265
O111	O	0.475763	0.648984	-0.686229
N112	N	0.533542	0.533365	-0.627533
C113	C	0.564781	0.470877	-0.570774
O114	O	0.591348	0.417732	-0.570584
C115	C	0.564782	0.470873	-0.519753
C116	C	0.533542	0.533358	-0.525490
C117	C	0.471069	0.658322	-0.587976
C118	C	0.471067	0.658317	-0.536957
C119	C	0.502302	0.595834	-0.480204
C120	C	0.533539	0.533354	-0.474471
C121	C	0.596024	0.408386	-0.462996
C122	C	0.596024	0.408388	-0.411974
C123	C	0.564783	0.470873	-0.417710
C124	C	0.564772	0.470866	-0.366699
N125	N	0.533538	0.533347	-0.372431
C126	C	0.502303	0.595831	-0.429184
C127	C	0.564777	0.470888	-0.677924
C128	C	0.564772	0.470890	-0.728944
C129	C	0.502300	0.595860	-0.791431
C130	C	0.502302	0.595857	-0.740410
C131	C	0.533543	0.533368	-0.683656
C132	C	0.502300	0.595817	-0.322038
C133	C	0.502298	0.595808	-0.271012
C134	C	0.564772	0.470839	-0.208529
C135	C	0.564772	0.470848	-0.259551
C136	C	0.533534	0.533343	-0.316307
O137	O	0.591306	0.417756	-0.313716
O138	O	0.475747	0.648966	-0.429363
C139	C	0.533539	0.533368	0.160002
C140	C	0.533539	0.533374	0.214299
C141	C	0.693514	0.373343	0.000054
C142	C	0.747809	0.319039	0.000066
C143	C	0.533515	0.373381	0.160016
C144	C	0.533508	0.319089	0.214318
C145	C	0.693516	0.373362	0.160037
C146	C	0.747812	0.319064	0.214345
C147	C	0.373556	0.693336	-0.159996
C148	C	0.319260	0.747634	-0.214305
C149	C	0.373559	0.693355	-0.000014
C150	C	0.319264	0.747660	-0.000026
C151	C	0.533557	0.693318	-0.159976
C152	C	0.533565	0.747609	-0.214278
C153	C	0.742063	0.293537	-0.031178
C154	C	0.793074	0.242519	-0.031179
C155	C	0.849831	0.217001	0.000067
C156	C	0.855576	0.242508	0.031312
C157	C	0.804565	0.293528	0.031309
C158	C	0.564749	0.293593	0.271067
C159	C	0.564740	0.242587	0.322094
C160	C	0.533493	0.217075	0.316370
C161	C	0.502249	0.242576	0.259614
C162	C	0.502255	0.293584	0.208589
C163	C	0.804558	0.293558	0.208612
C164	C	0.855580	0.242546	0.259636
C165	C	0.849854	0.217038	0.316391
C166	C	0.793102	0.242549	0.322122
C167	C	0.742082	0.293564	0.271099
C168	C	0.262514	0.773147	-0.208572
C169	C	0.211493	0.824175	-0.259596
C170	C	0.217219	0.849685	-0.316351
C171	C	0.273971	0.824171	-0.322082
C172	C	0.324991	0.773147	-0.271059
C173	C	0.325010	0.773167	0.031213
C174	C	0.273999	0.824199	0.031200
C175	C	0.217242	0.849719	-0.000048
C176	C	0.211497	0.824210	-0.031291
C177	C	0.262507	0.773182	-0.031281
C178	C	0.564817	0.773106	-0.208535
C179	C	0.564835	0.824112	-0.259551
C180	C	0.533597	0.849624	-0.316311
C181	C	0.502344	0.824123	-0.322053
C182	C	0.502330	0.773114	-0.271037
H183	H	0.613725	-0.327782	0.080182
H184	H	0.476878	0.752361	-0.275721
Cl185	Cl	0.914000	0.152903	0.380529
Cl186	Cl	0.604040	0.392295	-0.252340
H187	H	0.476911	0.844903	-0.368274
H188	H	0.590214	0.419999	-0.631713
Cl189	Cl	0.281235	0.856254	0.070482
Cl190	Cl	0.153120	0.913867	-0.000053
Cl191	Cl	0.396327	0.741076	-0.278276
Cl192	Cl	0.255278	0.674406	-0.070531
Cl193	Cl	0.604036	0.392292	-0.137176
H194	H	0.371220	0.752392	0.056663
Cl195	Cl	0.140141	0.856296	-0.070568
H196	H	0.809252	0.314285	0.056755
H197	H	0.453341	0.394472	-0.080130
H198	H	0.590185	0.221830	0.368302
H199	H	0.590193	0.314360	0.275739
H200	H	0.453387	-0.074905	-0.080156
Cl201	Cl	0.926918	0.210482	0.252417
H202	H	0.445630	0.709199	-0.541636
Cl203	Cl	0.255273	0.741117	-0.070551
Cl204	Cl	0.140155	0.856237	-0.252377
Cl205	Cl	0.433791	0.310194	-0.099720
H206	H	-0.190741	0.419961	0.056740
Cl207	Cl	0.633294	-0.243508	0.099759
H208	H	0.590255	0.752341	-0.162323
Cl209	Cl	0.533493	0.152948	0.380523
Cl210	Cl	0.604124	0.856164	-0.252319
H211	H	0.657879	-0.044720	0.124387
Cl212	Cl	0.677457	-0.168133	0.143957
Cl213	Cl	0.633248	0.110735	0.099784
Cl214	Cl	-0.214092	0.674375	-0.070499
H215	H	0.278626	0.844948	-0.368298
Cl216	Cl	0.633229	0.225904	0.099784
Cl217	Cl	0.389634	0.234814	-0.143930
H218	H	0.165252	0.646731	-0.056699
H219	H	0.476809	0.221796	0.254963
Cl220	Cl	-0.329228	0.674364	-0.070499
H221	H	0.533614	0.891159	-0.357847
Cl222	Cl	-0.073044	0.392287	0.070579
H223	H	-0.100649	0.709195	-0.087905
H224	H	0.175670	0.891231	-0.357892
Cl225	Cl	0.462981	0.325626	0.137249
H226	H	0.409224	0.111395	-0.124363
H227	H	0.453413	-0.167477	-0.080168
Cl228	Cl	0.785914	0.210473	0.393476
Cl229	Cl	0.670745	0.325618	0.278316
Cl230	Cl	0.604038	0.392335	-0.721724
H231	H	0.809232	0.314319	0.162404
Cl232	Cl	-0.010641	0.736872	-0.101745
Cl233	Cl	0.281176	0.392315	0.070552
Cl234	Cl	0.396309	0.392332	0.070528
Cl235	Cl	0.077740	0.329815	0.101824
Cl236	Cl	0.192871	0.329824	0.101813
Cl237	Cl	0.463017	0.674366	-0.278229
H238	H	0.445634	0.709206	-0.634184
Cl239	Cl	0.463029	0.674383	-0.393381
Cl240	Cl	0.463030	0.674411	-0.747628
H241	H	0.476866	0.646737	-0.837650
H242	H	0.621465	0.357504	-0.458313
H243	H	0.621465	0.357501	-0.365763
Cl244	Cl	0.670717	0.325609	-0.070467
Cl245	Cl	0.785838	0.210461	-0.070458
H246	H	0.891362	0.175456	0.000065
H247	H	0.257841	0.752379	-0.162364
Cl248	Cl	0.926932	0.210417	0.070593
