data_functionalizedCrystal
_audit_creation_method	'MofGen! by Chris Wilmer'
_symmetry_space_group_name_H-M	'P1'
_symmetry_Int_Tables_number	1
_symmetry_cell_setting	triclinic
loop_
_symmetry_equiv_pos_as_xyz
  x,y,z
_cell_length_a	14.519709
_cell_length_b	12.996460
_cell_length_c	14.519709
_cell_angle_alpha	89.998766
_cell_angle_beta	96.319855
_cell_angle_gamma	90.000602
loop_
_atom_site_label
_atom_site_type_symbol
_atom_site_fract_x
_atom_site_fract_y
_atom_site_fract_z
O1	O	1.223870	0.085435	-0.120885
O2	O	1.473870	0.335435	0.129115
O3	O	1.723870	0.585435	0.379115
O4	O	1.973870	0.835435	0.629115
O5	O	0.955394	0.085467	-0.135121
O6	O	1.205394	0.335467	0.114879
O7	O	1.455394	0.585467	0.364879
O8	O	1.705394	0.835467	0.614879
O9	O	1.096750	0.085441	0.006235
O10	O	1.346750	0.335441	0.256235
O11	O	1.596750	0.585441	0.506235
O12	O	1.846750	0.835441	0.756235
O13	O	1.082514	0.085461	-0.262242
O14	O	1.332514	0.335461	-0.012242
O15	O	1.582514	0.585461	0.237758
O16	O	1.832514	0.835461	0.487758
O17	O	1.096732	-0.085693	0.006227
O18	O	1.346732	0.164307	0.256227
O19	O	1.596732	0.414307	0.506227
O20	O	1.846732	0.664307	0.756227
O21	O	0.955375	-0.085667	-0.135130
O22	O	1.205375	0.164333	0.114870
O23	O	1.455375	0.414333	0.364870
O24	O	1.705375	0.664333	0.614870
O25	O	1.223852	-0.085699	-0.120893
O26	O	1.473852	0.164301	0.129107
O27	O	1.723852	0.414301	0.379107
O28	O	1.973852	0.664301	0.629107
Cu29	Cu	1.089612	-0.101309	-0.128012
Cu30	Cu	1.339612	0.148691	0.121988
Cu31	Cu	1.589612	0.398691	0.371988
Cu32	Cu	1.839612	0.648691	0.621988
Cu33	Cu	1.089634	0.101077	-0.128002
Cu34	Cu	1.339634	0.351077	0.121998
Cu35	Cu	1.589634	0.601077	0.371998
Cu36	Cu	1.839634	0.851077	0.621998
O37	O	1.082496	-0.085673	-0.262250
O38	O	1.332496	0.164327	-0.012250
O39	O	1.582496	0.414327	0.237750
O40	O	1.832496	0.664327	0.487750
C41	C	0.921025	-0.000096	-0.134462
C42	C	1.171025	0.249904	0.115538
C43	C	1.421025	0.499904	0.365538
C44	C	1.671025	0.749904	0.615538
C45	C	0.818643	-0.000084	-0.132474
C46	C	1.068643	0.249916	0.117526
C47	C	1.318643	0.499916	0.367526
C48	C	1.568643	0.749916	0.617526
C49	C	0.443748	-0.000132	-0.125154
C50	C	0.693748	0.249868	0.124846
C51	C	0.943748	0.499868	0.374846
C52	C	1.193748	0.749868	0.624846
C53	C	0.548056	-0.000118	-0.127187
C54	C	0.798056	0.249882	0.122813
C55	C	1.048056	0.499882	0.372813
C56	C	1.298056	0.749882	0.622813
C57	C	0.631192	-0.000107	-0.128814
C58	C	0.881192	0.249893	0.121186
C59	C	1.131192	0.499893	0.371186
C60	C	1.381192	0.749893	0.621186
C61	C	0.735507	-0.000095	-0.130847
C62	C	0.985507	0.249905	0.119153
C63	C	1.235507	0.499905	0.369153
C64	C	1.485507	0.749905	0.619153
N65	N	1.089604	-0.243656	-0.128018
N66	N	1.339604	0.006344	0.121982
N67	N	1.589604	0.256344	0.371982
N68	N	1.839604	0.506344	0.621982
C69	C	1.089608	-0.336762	-0.128021
C70	C	1.339608	-0.086762	0.121979
C71	C	1.589608	0.163238	0.371979
C72	C	1.839608	0.413238	0.621979
C73	C	1.089616	-0.453567	-0.128015
C74	C	1.339616	-0.203567	0.121985
C75	C	1.589616	0.046433	0.371985
C76	C	1.839616	0.296433	0.621985
C77	C	1.089628	-0.546665	-0.128004
C78	C	1.339628	-0.296665	0.121996
C79	C	1.589628	-0.046665	0.371996
C80	C	1.839628	0.203335	0.621996
C81	C	1.089638	-0.663478	-0.127999
C82	C	1.339638	-0.413478	0.122001
C83	C	1.589638	-0.163478	0.372001
C84	C	1.839638	0.086522	0.622001
C85	C	1.258221	-0.000134	-0.121553
C86	C	1.508221	0.249866	0.128447
C87	C	1.758221	0.499866	0.378447
C88	C	2.008221	0.749866	0.628447
C89	C	1.360602	-0.000139	-0.123541
C90	C	1.610602	0.249861	0.126459
C91	C	1.860602	0.499861	0.376459
C92	C	2.110602	0.749861	0.626459
C93	C	1.096078	-0.000126	0.040591
C94	C	1.346078	0.249874	0.290591
C95	C	1.596078	0.499874	0.540591
C96	C	1.846078	0.749874	0.790591
C97	C	1.094090	-0.000126	0.142972
C98	C	1.344090	0.249874	0.392972
C99	C	1.594090	0.499874	0.642972
C100	C	1.844090	0.749874	0.892972
N101	N	1.089649	0.243424	-0.127989
N102	N	1.339649	0.493424	0.122011
N103	N	1.589649	0.743424	0.372011
N104	N	1.839649	0.993424	0.622011
C105	C	1.083168	-0.000103	-0.296606
C106	C	1.333168	0.249897	-0.046606
C107	C	1.583168	0.499897	0.203394
C108	C	1.833168	0.749897	0.453394
C109	C	1.085156	-0.000096	-0.398987
C110	C	1.335156	0.249904	-0.148987
C111	C	1.585156	0.499904	0.101013
C112	C	1.835156	0.749904	0.351013
C113	C	1.086770	-0.000099	0.517868
C114	C	1.336770	0.249901	0.767868
C115	C	1.586770	0.499901	1.017868
C116	C	1.836770	0.749901	1.267868
C117	C	1.088803	-0.000107	0.413560
C118	C	1.338803	0.249893	0.663560
C119	C	1.588803	0.499893	0.913560
C120	C	1.838803	0.749893	1.163560
C121	C	1.090430	-0.000114	0.330423
C122	C	1.340430	0.249886	0.580423
C123	C	1.590430	0.499886	0.830423
C124	C	1.840430	0.749886	1.080423
C125	C	1.092463	-0.000120	0.226109
C126	C	1.342463	0.249880	0.476109
C127	C	1.592463	0.499880	0.726109
C128	C	1.842463	0.749880	0.976109
