data_functionalizedCrystal
_audit_creation_method	'MofGen! by Chris Wilmer'
_symmetry_space_group_name_H-M	'P1'
_symmetry_Int_Tables_number	1
_symmetry_cell_setting	triclinic
loop_
_symmetry_equiv_pos_as_xyz
  x,y,z
_cell_length_a	16.120530
_cell_length_b	16.120484
_cell_length_c	12.827885
_cell_angle_alpha	87.136072
_cell_angle_beta	92.918515
_cell_angle_gamma	90.167327
loop_
_atom_site_label
_atom_site_type_symbol
_atom_site_fract_x
_atom_site_fract_y
_atom_site_fract_z
Zn1	Zn	1.254490	-0.395557	0.695632
Zn2	Zn	1.754490	0.104443	1.195632
Zn3	Zn	1.247329	-0.534629	0.529257
Zn4	Zn	1.747329	-0.034629	1.029257
Zn5	Zn	1.115425	-0.388537	0.511626
Zn6	Zn	1.615425	0.111463	1.011626
Zn7	Zn	1.108342	-0.527510	0.694676
Zn8	Zn	1.608342	-0.027510	1.194676
O9	O	1.181397	-0.461558	0.607798
O10	O	1.681397	0.038442	1.107798
O11	O	1.369906	-0.419922	0.681341
O12	O	1.869906	0.080078	1.181341
O13	O	1.229800	-0.515291	0.380683
O14	O	1.729800	-0.015291	0.880683
O15	O	1.139834	-0.273106	0.529056
O16	O	1.639834	0.226894	1.029056
O17	O	1.364645	-0.522098	0.559106
O18	O	1.864645	-0.022098	1.059106
O19	O	1.242004	-0.278263	0.664245
O20	O	1.742004	0.221737	1.164245
O21	O	1.132890	-0.407958	0.367729
O22	O	1.632890	0.092042	0.867729
O23	O	0.998120	-0.401055	0.528129
O24	O	1.498120	0.098945	1.028129
O25	O	1.127762	-0.509965	0.841038
O26	O	1.627762	-0.009965	1.341038
O27	O	0.992916	-0.503158	0.662615
O28	O	1.492916	-0.003158	1.162615
O29	O	1.235136	-0.413020	0.841741
O30	O	1.735136	0.086980	1.341741
O31	O	1.222931	-0.650047	0.558179
O32	O	1.722931	-0.150047	1.058179
O33	O	1.120818	-0.644817	0.679712
O34	O	1.620818	-0.144817	1.179712
C35	C	1.170352	-0.677605	0.620779
C36	C	1.670352	-0.177605	1.120779
C37	C	1.165703	-0.770034	0.626373
C38	C	1.665703	-0.270034	1.126373
C39	C	0.965346	-0.450573	0.593356
C40	C	1.465346	0.049427	1.093356
C41	C	0.872917	-0.445894	0.587203
C42	C	1.372917	0.054106	1.087203
C43	C	0.703690	-0.437331	0.575978
C44	C	1.203690	0.062669	1.075978
C45	C	0.659941	-0.485847	0.639698
C46	C	1.159941	0.014153	1.139698
C47	C	0.565777	-0.481083	0.633452
C48	C	1.065777	0.018917	1.133452
C49	C	0.797862	-0.442094	0.582222
C50	C	1.297862	0.057906	1.082222
C51	C	1.157220	-0.939265	0.636607
C52	C	1.657220	-0.439265	1.136607
C53	C	1.205723	-0.983019	0.579016
C54	C	1.705723	-0.483019	1.079016
C55	C	1.201003	-1.077185	0.584710
C56	C	1.701003	-0.577185	1.084710
C57	C	1.161939	-0.845090	0.630914
C58	C	1.661939	-0.345090	1.130914
C59	C	1.398291	-0.472587	0.622297
C60	C	1.898291	0.027413	1.122297
C61	C	1.490719	-0.477287	0.628476
C62	C	1.990719	0.022713	1.128476
C63	C	1.181458	-0.461481	0.880367
C64	C	1.681458	0.038519	1.380367
C65	C	1.181483	-0.461449	0.996520
C66	C	1.681483	0.038551	1.496520
C67	C	1.192508	-0.244669	0.594790
C68	C	1.692508	0.255331	1.094790
C69	C	1.197243	-0.152244	0.589247
C70	C	1.697243	0.347756	1.089247
C71	C	1.181387	-0.461577	0.336289
C72	C	1.681387	0.038423	0.836289
C73	C	1.181535	-0.461384	0.220133
C74	C	1.681535	0.038616	0.720133
C75	C	1.234622	-0.413467	1.048652
C76	C	1.734622	0.086533	1.548652
C77	C	1.234649	-0.413432	1.168702
C78	C	1.734649	0.086568	1.668702
H79	H	0.693206	-0.530960	0.698941
H80	H	1.193206	-0.030960	1.198941
H81	H	0.670427	-0.392221	0.516740
H82	H	1.170427	0.107779	1.016740
C83	C	1.296053	-0.358002	0.988885
C84	C	1.796053	0.141998	1.488885
N85	N	1.342326	-0.316224	0.943869
N86	N	1.842326	0.183776	1.443869
H87	H	1.250793	-0.949758	0.525434
H88	H	1.750793	-0.449758	1.025434
C89	C	1.096327	-0.984196	0.708977
C90	C	1.596327	-0.484196	1.208977
N91	N	1.050460	-1.018048	0.763480
N92	N	1.550460	-0.518048	1.263480
H93	H	1.136042	-0.502468	1.175309
H94	H	1.636042	-0.002468	1.675309
C95	C	1.296110	-0.357932	1.229263
C96	C	1.796110	0.142068	1.729263
N97	N	1.342402	-0.316126	1.274881
N98	N	1.842402	0.183874	1.774881
C99	C	1.120046	-0.516908	1.056286
C100	C	1.620046	-0.016908	1.556286
N101	N	1.073770	-0.558681	1.101301
N102	N	1.573770	-0.058681	1.601301
