data_functionalizedCrystal
_audit_creation_method	'MofGen! by Chris Wilmer'
_symmetry_space_group_name_H-M	'P1'
_symmetry_Int_Tables_number	1
_symmetry_cell_setting	triclinic
loop_
_symmetry_equiv_pos_as_xyz
  x,y,z
_cell_length_a	10.723024
_cell_length_b	13.330367
_cell_length_c	10.723024
_cell_angle_alpha	90.006168
_cell_angle_beta	95.532131
_cell_angle_gamma	90.006682
loop_
_atom_site_label
_atom_site_type_symbol
_atom_site_fract_x
_atom_site_fract_y
_atom_site_fract_z
O1	O	1.657195	0.083414	-0.175009
O2	O	1.294042	0.083417	-0.191762
O3	O	1.483995	0.083412	-0.001809
O4	O	1.467242	0.083420	-0.364962
O5	O	1.483966	-0.083435	-0.001840
O6	O	1.294013	-0.083430	-0.191793
O7	O	1.657166	-0.083433	-0.175039
Cu8	Cu	1.475587	-0.098666	-0.183419
Cu9	Cu	1.475621	0.098650	-0.183383
O10	O	1.467213	-0.083428	-0.364992
C11	C	1.247528	-0.000006	-0.190558
C12	C	1.108974	-0.000005	-0.186911
N13	N	1.475572	-0.237447	-0.183443
C14	C	1.033991	-0.000002	-0.293198
C15	C	0.890788	-0.000000	-0.289431
C16	C	1.551967	-0.710059	-0.259740
C17	C	1.399312	-0.710050	-0.106976
C18	C	1.399294	-0.605031	-0.106995
C19	C	1.475615	-0.552522	-0.183387
C20	C	1.551954	-0.605031	-0.259758
C21	C	1.322966	-0.552515	-0.030616
C22	C	1.322946	-0.447490	-0.030631
C23	C	1.399262	-0.394978	-0.107029
C24	C	1.475603	-0.447494	-0.183405
C25	C	1.551923	-0.394984	-0.259796
C26	C	1.628259	-0.447497	-0.336180
C27	C	1.628270	-0.552519	-0.336157
C28	C	1.399251	-0.289957	-0.107052
C29	C	1.551911	-0.289956	-0.259815
C30	C	1.703680	-0.000008	-0.176243
C31	C	1.842234	-0.000002	-0.179891
C32	C	1.482762	-0.000010	0.044675
C33	C	1.479114	-0.000007	0.183229
N34	N	1.475646	0.237432	-0.183348
C35	C	1.468447	-0.000003	-0.411477
C36	C	1.472094	0.000000	-0.550031
C37	C	1.585401	-0.000006	0.258212
C38	C	1.581634	-0.000003	0.401415
H39	H	1.075814	-0.000005	-0.386984
Br40	Br	1.219330	-0.376231	0.073008
H41	H	0.906659	0.000002	-0.088896
Br42	Br	1.733301	-0.000014	0.508799
Br43	Br	1.219394	-0.623781	0.073051
H44	H	1.067152	0.000019	-0.093125
H45	H	1.385328	0.000001	0.225051
H46	H	1.381099	-0.000007	0.385544
Br47	Br	1.731853	-0.623792	-0.439816
H48	H	1.337103	-0.247205	-0.044859
Br49	Br	1.655483	-0.218701	-0.363506
H50	H	1.679187	-0.000013	0.216390
H51	H	0.826355	0.000006	-0.380421
Br52	Br	1.655548	-0.781321	-0.363411
Br53	Br	1.731846	-0.376222	-0.439837
H54	H	1.337184	-0.752809	-0.044774
