data_functionalizedCrystal
_audit_creation_method	'MofGen! by Chris Wilmer'
_symmetry_space_group_name_H-M	'P1'
_symmetry_Int_Tables_number	1
_symmetry_cell_setting	triclinic
loop_
_symmetry_equiv_pos_as_xyz
  x,y,z
_cell_length_a	16.992694
_cell_length_b	13.339070
_cell_length_c	15.455313
_cell_angle_alpha	93.394339
_cell_angle_beta	87.142206
_cell_angle_gamma	103.148759
loop_
_atom_site_label
_atom_site_type_symbol
_atom_site_fract_x
_atom_site_fract_y
_atom_site_fract_z
O1	O	1.090408	0.214131	-0.072012
O2	O	0.861603	0.211734	-0.072038
O3	O	0.949746	0.063546	-0.072026
O4	O	1.002265	0.362319	-0.072025
O5	O	0.944697	0.071983	0.072236
O6	O	0.856554	0.220171	0.072223
O7	O	1.085360	0.222568	0.072249
Cu8	Cu	0.970496	0.222140	0.085408
Cu9	Cu	0.976466	0.212163	-0.085197
O10	O	0.997216	0.370756	0.072237
C11	C	0.829195	0.212871	0.000089
C12	C	0.740151	0.203676	0.000079
C13	C	0.709211	0.292390	0.000080
C14	C	0.625543	0.283745	0.000092
C15	C	0.572817	0.186386	0.000097
C16	C	0.603762	0.097666	0.000099
C17	C	0.687429	0.106311	0.000093
C18	C	0.321423	0.150552	0.000120
C19	C	0.237751	0.141912	0.000123
C20	C	0.259538	0.327993	0.000118
C21	C	0.343205	0.336630	0.000107
C22	C	0.374143	0.247910	0.000114
N23	N	0.487295	0.177547	0.000107
N24	N	0.459663	0.256750	0.000110
C25	C	0.938350	0.029358	0.000103
C26	C	0.911906	-0.085082	0.000097
C27	C	1.117519	-0.433251	0.000120
C28	C	1.142367	-0.325728	0.000131
C29	C	1.084754	-0.265562	0.000122
C30	C	1.002289	-0.312927	0.000103
C31	C	0.977439	-0.420460	0.000099
C32	C	0.944673	-0.252771	0.000101
C33	C	0.862209	-0.300136	0.000081
C34	C	0.837363	-0.407658	0.000077
C35	C	0.894976	-0.467825	0.000086
C36	C	0.969524	-0.145238	0.000105
C37	C	0.829443	-0.132447	0.000083
C38	C	0.804596	-0.239969	0.000072
C39	C	1.117767	0.221431	0.000120
C40	C	1.206811	0.230626	0.000124
C41	C	1.008612	0.404944	0.000106
C42	C	1.035056	0.519384	0.000107
N43	N	0.966302	0.229157	0.205403
N44	N	0.980664	0.205137	-0.205192
C45	C	1.003772	0.166228	0.250803
C46	C	1.000610	0.171545	0.341610
C47	C	0.959983	0.239798	0.387017
C48	C	0.922508	0.302729	0.341611
C49	C	0.925665	0.297406	0.250805
C50	C	0.946347	0.262746	0.658596
C51	C	0.943195	0.268067	0.749408
C52	C	1.021296	0.136880	0.749401
C53	C	1.024454	0.131568	0.658594
C54	C	0.986976	0.194496	0.613196
N55	N	0.956752	0.245237	0.479836
N56	N	0.990202	0.189051	0.520378
H57	H	0.712618	0.034071	0.000092
H58	H	1.057536	0.075991	0.621626
C59	C	0.688478	-0.130602	0.000067
C60	C	0.766106	-0.066323	0.000074
H61	H	0.649381	-0.089773	0.000069
H62	H	0.683459	-0.175745	-0.050238
H63	H	0.679943	-0.169870	0.050377
H64	H	0.774644	-0.027061	-0.050240
H65	H	0.771127	-0.021163	0.050384
H66	H	1.036667	-0.106684	0.000121
C67	C	0.390080	0.493551	-0.074062
C68	C	0.401145	0.443661	0.000098
H69	H	0.425844	0.559632	-0.074068
H70	H	0.401078	0.453797	-0.124358
H71	H	0.335816	0.501072	-0.074046
H72	H	0.455408	0.436132	0.000079
H73	H	0.390153	0.483424	0.050407
H74	H	0.234339	0.400223	0.000115
H75	H	0.600356	0.355985	0.000092
C76	C	0.866282	0.397182	0.740299
C77	C	0.898519	0.343080	0.799321
H78	H	0.838697	0.443482	0.771115
H79	H	0.908790	0.434871	0.704877
H80	H	0.829483	0.349882	0.704886
H81	H	0.935323	0.390379	0.834731
H82	H	0.856005	0.305389	0.834758
H83	H	0.737451	-0.278550	0.000057
H84	H	1.036859	0.110654	0.213839
C85	C	0.128433	0.028583	0.074293
C86	C	0.179792	0.034887	0.000134
H87	H	0.092650	-0.037485	0.074294
H88	H	0.159771	0.038765	0.124590
H89	H	0.098037	0.080188	0.074279
H90	H	0.210193	-0.016713	0.000151
H91	H	0.148451	0.024694	-0.050176
H92	H	0.915833	0.313987	0.621640
C93	C	1.278329	-0.349180	0.000153
C94	C	1.233007	-0.273667	0.000149
H95	H	1.334289	-0.317037	0.000159
H96	H	1.263960	-0.387913	0.050453
H97	H	1.267482	-0.393793	-0.050162
H98	H	1.243849	-0.229059	0.050468
H99	H	1.247381	-0.234917	-0.050156
C100	C	1.084805	-0.112383	-0.074029
C101	C	1.112058	-0.147370	0.000134
H102	H	1.101660	-0.039413	-0.074018
H103	H	1.106823	-0.142002	-0.124323
H104	H	1.027448	-0.131994	-0.074033
H105	H	1.169416	-0.127766	0.000135
H106	H	1.090044	-0.117741	0.050441
C107	C	0.562026	-0.067939	-0.074056
C108	C	0.545809	-0.009356	0.000102
H109	H	0.526251	-0.134012	-0.074051
H110	H	0.554540	-0.034071	-0.124353
H111	H	0.616285	-0.075478	-0.074047
H112	H	0.491551	-0.001810	0.000091
H113	H	0.553288	-0.043232	0.050412
C114	C	1.173427	-0.565937	-0.074028
C115	C	1.180840	-0.499386	0.000132
H116	H	1.212526	-0.606762	-0.074020
H117	H	1.120764	-0.609525	-0.074029
H118	H	1.181978	-0.526656	-0.124329
H119	H	1.172283	-0.538668	0.050434
H120	H	1.233516	-0.455793	0.000141
C121	C	1.028413	-0.035921	0.777362
C122	C	1.062477	0.067700	0.799305
H123	H	1.053839	-0.078634	0.808168
H124	H	0.972197	-0.050564	0.792254
H125	H	1.036114	-0.048844	0.716782
H126	H	1.054771	0.080625	0.859885
H127	H	1.118707	0.082348	0.784420
C128	C	0.818642	-0.614049	0.074218
C129	C	0.867656	-0.586019	0.000070
H130	H	0.801773	-0.687017	0.074202
H131	H	0.848371	-0.589161	0.124522
H132	H	0.772531	-0.584988	0.074208
H133	H	0.913770	-0.615074	0.000083
H134	H	0.837926	-0.610918	-0.050247
C135	C	0.291472	-0.034246	0.000119
C136	C	0.355423	0.053031	0.000120
H137	H	0.312467	-0.094453	0.000114
H138	H	0.257540	-0.030802	0.050424
H139	H	0.261048	-0.036681	-0.050191
H140	H	0.385844	0.055470	0.050434
H141	H	0.389368	0.049586	-0.050190
H142	H	0.770215	-0.446220	0.000068
H143	H	1.031120	0.120303	0.378574
H144	H	0.889423	0.358298	0.378586
C145	C	0.918543	0.470210	0.222828
C146	C	0.884483	0.366584	0.200896
H147	H	0.893118	0.512914	0.192012
H148	H	0.910844	0.483142	0.283399
H149	H	0.974766	0.484853	0.207933
H150	H	0.828260	0.351938	0.215797
H151	H	0.892174	0.353646	0.140312
H152	H	0.752136	0.371670	0.000076
