data_functionalizedCrystal
_audit_creation_method	'MofGen! by Chris Wilmer'
_symmetry_space_group_name_H-M	'P1'
_symmetry_Int_Tables_number	1
_symmetry_cell_setting	triclinic
loop_
_symmetry_equiv_pos_as_xyz
  x,y,z
_cell_length_a	17.699083
_cell_length_b	19.188930
_cell_length_c	16.776229
_cell_angle_alpha	89.988225
_cell_angle_beta	89.998886
_cell_angle_gamma	83.213899
loop_
_atom_site_label
_atom_site_type_symbol
_atom_site_fract_x
_atom_site_fract_y
_atom_site_fract_z
O1	O	1.003962	0.088294	-0.066185
O2	O	1.337296	0.421628	0.267148
O3	O	1.670629	0.754961	0.600481
O4	O	0.783569	0.099782	-0.066213
O5	O	1.116902	0.433115	0.267121
O6	O	1.450235	0.766448	0.600454
O7	O	0.900126	-0.007611	-0.066183
O8	O	1.233459	0.325723	0.267151
O9	O	1.566792	0.659056	0.600484
O10	O	0.887405	0.195686	-0.066215
O11	O	1.220739	0.529020	0.267118
O12	O	1.554072	0.862353	0.600451
O13	O	0.900110	-0.007617	0.066394
O14	O	1.233443	0.325716	0.399727
O15	O	1.566777	0.659050	0.733060
O16	O	0.783553	0.099775	0.066364
O17	O	1.116887	0.433108	0.399697
O18	O	1.450220	0.766442	0.733030
O19	O	1.003947	0.088288	0.066391
O20	O	1.337280	0.421621	0.399724
O21	O	1.670613	0.754954	0.733058
Zn22	Zn	0.893748	0.094030	0.087427
Zn23	Zn	1.227081	0.427364	0.420760
Zn24	Zn	1.560414	0.760697	0.754093
Zn25	Zn	0.893768	0.094039	-0.087249
Zn26	Zn	1.227101	0.427372	0.246085
Zn27	Zn	1.560435	0.760706	0.579418
O28	O	0.887390	0.195680	0.066361
O29	O	1.220723	0.529013	0.399694
O30	O	1.554057	0.862347	0.733028
C31	C	0.755365	0.099367	0.000072
C32	C	1.088698	0.432700	0.333406
C33	C	1.422031	0.766033	0.666739
C34	C	0.671348	0.098132	0.000062
C35	C	1.004681	0.431465	0.333396
C36	C	1.338015	0.764799	0.666729
C37	C	0.622644	0.161169	0.000053
C38	C	0.955977	0.494502	0.333386
C39	C	1.289311	0.827835	0.666719
C40	C	0.543702	0.160004	0.000063
C41	C	0.877036	0.493338	0.333396
C42	C	1.210369	0.826671	0.666730
C43	C	0.513466	0.095802	0.000078
C44	C	0.846799	0.429136	0.333411
C45	C	1.180133	0.762469	0.666744
C46	C	0.562176	0.032761	0.000090
C47	C	0.895510	0.366094	0.333423
C48	C	1.228843	0.699427	0.666757
C49	C	0.641117	0.033926	0.000085
C50	C	0.974450	0.367259	0.333419
C51	C	1.307783	0.700592	0.666752
C52	C	0.243819	0.028060	0.000111
C53	C	0.577153	0.361394	0.333444
C54	C	0.910486	0.694727	0.666777
C55	C	0.164873	0.026900	0.000113
C56	C	0.498206	0.360233	0.333446
C57	C	0.831540	0.693567	0.666780
C58	C	0.146405	0.154139	0.000088
C59	C	0.479739	0.487472	0.333422
C60	C	0.813072	0.820806	0.666755
C61	C	0.225345	0.155304	0.000084
C62	C	0.558679	0.488637	0.333417
C63	C	0.892012	0.821971	0.666750
C64	C	0.274049	0.092263	0.000100
C65	C	0.607382	0.425596	0.333433
C66	C	0.940715	0.758929	0.666767
C67	C	0.359646	0.093526	0.000090
C68	C	0.692980	0.426859	0.333423
C69	C	1.026313	0.760193	0.666757
C70	C	0.427870	0.094538	0.000082
C71	C	0.761203	0.427872	0.333415
C72	C	1.094537	0.761205	0.666749
C73	C	0.899706	-0.033625	0.000108
C74	C	1.233039	0.299708	0.333441
C75	C	1.566373	0.633041	0.666774
C76	C	0.898469	-0.111131	0.000114
C77	C	1.231803	0.222202	0.333448
C78	C	1.565136	0.555535	0.666781
C79	C	0.966861	-0.155978	0.000127
C80	C	1.300194	0.177355	0.333460
C81	C	1.633528	0.510688	0.666793
C82	C	0.965699	-0.228804	0.000114
C83	C	1.299033	0.104530	0.333447
C84	C	1.632366	0.437863	0.666780
C85	C	0.896142	-0.256778	0.000105
C86	C	1.229475	0.076555	0.333438
C87	C	1.562809	0.409889	0.666771
C88	C	0.827741	-0.211921	0.000088
C89	C	1.161075	0.121412	0.333421
C90	C	1.494408	0.454746	0.666754
C91	C	0.828905	-0.139098	0.000093
C92	C	1.162238	0.194236	0.333426
C93	C	1.495572	0.527569	0.666759
N94	N	0.842969	-0.364845	0.045216
N95	N	1.176302	-0.031512	0.378550
N96	N	1.509635	0.301822	0.711883
N97	N	0.841868	-0.434025	0.045213
N98	N	1.175201	-0.100691	0.378547
N99	N	1.508534	0.232642	0.711880
C100	C	0.892632	-0.476191	0.000088
C101	C	1.225965	-0.142857	0.333421
C102	C	1.559299	0.190476	0.666755
N103	N	0.944550	-0.446565	-0.045024
N104	N	1.277883	-0.113231	0.288309
N105	N	1.611217	0.220102	0.621642
N106	N	0.945653	-0.377379	-0.045018
N107	N	1.278986	-0.044046	0.288316
N108	N	1.612320	0.289288	0.621649
C109	C	0.894873	-0.335742	0.000099
C110	C	1.228206	-0.002409	0.333432
C111	C	1.561539	0.330925	0.666765
C112	C	0.959769	-0.600004	0.000085
C113	C	1.293102	-0.266671	0.333419
C114	C	1.626435	0.066663	0.666752
C115	C	0.958604	-0.672830	0.000067
C116	C	1.291937	-0.339497	0.333401
C117	C	1.625271	-0.006163	0.666734
C118	C	0.820644	-0.655946	0.000049
C119	C	1.153977	-0.322612	0.333383
C120	C	1.487311	0.010721	0.666716
C121	C	0.821811	-0.583121	0.000059
C122	C	1.155144	-0.249788	0.333393
C123	C	1.488477	0.083545	0.666726
C124	C	0.891375	-0.555155	0.000081
C125	C	1.224708	-0.221822	0.333414
C126	C	1.558042	0.111512	0.666748
C127	C	1.032151	0.088703	0.000104
C128	C	1.365484	0.422036	0.333438
C129	C	1.698818	0.755369	0.666771
C130	C	1.116167	0.089938	0.000109
C131	C	1.449501	0.423271	0.333442
C132	C	1.782834	0.756604	0.666775
C133	C	0.887810	0.221695	0.000069
C134	C	1.221143	0.555028	0.333402
C135	C	1.554476	0.888361	0.666735
C136	C	0.889046	0.299201	0.000057
C137	C	1.222379	0.632534	0.333390
C138	C	1.555713	0.965867	0.666723
N139	N	0.893739	0.094024	0.206638
N140	N	1.227073	0.427357	0.539971
N141	N	1.560406	0.760691	0.873305
N142	N	0.893782	0.094040	-0.206460
N143	N	1.227116	0.427373	0.126874
N144	N	1.560449	0.760706	0.460207
C145	C	0.945366	0.046490	0.248368
C146	C	1.278700	0.379824	0.581702
C147	C	1.612033	0.713157	0.915035
C148	C	0.945370	0.046490	0.331821
C149	C	1.278704	0.379823	0.665154
C150	C	1.612037	0.713156	0.998487
C151	C	0.893751	0.094027	0.373541
C152	C	1.227084	0.427360	0.706874
C153	C	1.560417	0.760693	1.040208
C154	C	0.842118	0.141563	0.331805
C155	C	1.175452	0.474896	0.665138
C156	C	1.508785	0.808229	0.998471
C157	C	0.842111	0.141559	0.248354
C158	C	1.175444	0.474893	0.581687
C159	C	1.508778	0.808226	0.915021
C160	C	0.842146	0.141576	0.668352
C161	C	1.175479	0.474910	1.001685
C162	C	1.508812	0.808243	1.335019
C163	C	0.842158	0.141578	0.751808
C164	C	1.175492	0.474911	1.085142
C165	C	1.508825	0.808244	1.418475
C166	C	0.945405	0.046507	0.751818
C167	C	1.278738	0.379840	1.085152
C168	C	1.612072	0.713173	1.418485
C169	C	0.945398	0.046503	0.668368
C170	C	1.278731	0.379837	1.001701
C171	C	1.612064	0.713170	1.335034
C172	C	0.893763	0.094037	0.626639
C173	C	1.227096	0.427370	0.959972
C174	C	1.560430	0.760703	1.293305
C175	C	0.893758	0.094036	0.536150
C176	C	1.227091	0.427369	0.869484
C177	C	1.560425	0.760702	1.202817
C178	C	0.893759	0.094031	0.464028
C179	C	1.227092	0.427365	0.797361
C180	C	1.560425	0.760698	1.130694
H181	H	0.140258	-0.025384	0.000126
H182	H	0.473592	0.307949	0.333459
H183	H	0.806925	0.641282	0.666793
H184	H	0.773210	-0.102582	0.000083
H185	H	1.106544	0.230751	0.333416
H186	H	1.439877	0.564085	0.666750
Cl187	Cl	0.777203	0.201317	0.195894
Cl188	Cl	1.110536	0.534650	0.529227
Cl189	Cl	1.443869	0.867983	0.862560
H190	H	0.283465	-0.023272	0.000125
H191	H	0.616798	0.310061	0.333458
H192	H	0.950131	0.643394	0.666791
H193	H	0.537552	-0.019514	0.000113
H194	H	0.870885	0.313819	0.333447
H195	H	1.204218	0.647153	0.666780
Cl196	Cl	1.047219	-0.564843	0.000117
Cl197	Cl	1.380552	-0.231509	0.333450
Cl198	Cl	1.713886	0.101824	0.666784
Cl199	Cl	0.777220	0.201322	0.384251
Cl200	Cl	1.110553	0.534655	0.717585
Cl201	Cl	1.443887	0.867988	1.050918
Cl202	Cl	1.054313	-0.120825	0.000131
Cl203	Cl	1.387647	0.212509	0.333465
Cl204	Cl	1.720980	0.545842	0.666798
Cl205	Cl	0.660647	0.241885	0.000029
Cl206	Cl	0.993980	0.575218	0.333362
Cl207	Cl	1.327314	0.908552	0.666696
H208	H	1.014299	-0.709345	0.000073
H209	H	1.347633	-0.376011	0.333406
H210	H	1.680966	-0.042678	0.666740
Cl211	Cl	0.702345	-0.045324	0.000101
Cl212	Cl	1.035678	0.288009	0.333435
Cl213	Cl	1.369012	0.621342	0.666768
H214	H	0.106741	0.205470	0.000079
H215	H	0.440074	0.538804	0.333413
H216	H	0.773408	0.872137	0.666746
H217	H	0.800120	0.180289	0.785776
H218	H	1.133454	0.513623	1.119109
H219	H	1.466787	0.846956	1.452442
Cl220	Cl	0.733199	-0.691107	0.000033
Cl221	Cl	1.066533	-0.357773	0.333367
Cl222	Cl	1.399866	-0.024440	0.666700
Cl223	Cl	1.010268	-0.013271	0.195929
Cl224	Cl	1.343601	0.320062	0.529262
Cl225	Cl	1.676934	0.653395	0.862595
H226	H	1.021394	-0.265325	0.000121
H227	H	1.354727	0.068008	0.333454
H228	H	1.688061	0.401341	0.666787
H229	H	0.249959	0.207584	0.000068
H230	H	0.583292	0.540917	0.333401
H231	H	0.916626	0.874251	0.666735
H232	H	0.766119	-0.546605	0.000054
H233	H	1.099452	-0.213272	0.333387
H234	H	1.432785	0.120061	0.666720
Cl235	Cl	1.010273	-0.013269	0.384283
Cl236	Cl	1.343607	0.320065	0.717616
Cl237	Cl	1.676940	0.653398	1.050950
Cl238	Cl	1.010295	-0.013257	0.615922
Cl239	Cl	1.343629	0.320076	0.949256
Cl240	Cl	1.676962	0.653409	1.282589
Cl241	Cl	0.740298	-0.247088	0.000070
Cl242	Cl	1.073631	0.086245	0.333403
Cl243	Cl	1.406964	0.419579	0.666736
Cl244	Cl	0.777238	0.201333	0.615898
Cl245	Cl	1.110571	0.534667	0.949231
Cl246	Cl	1.443905	0.868000	1.282565
Cl247	Cl	0.482477	0.239255	0.000046
Cl248	Cl	0.815811	0.572588	0.333379
Cl249	Cl	1.149144	0.905921	0.666712
Cl250	Cl	1.010316	-0.013253	0.804282
Cl251	Cl	1.343649	0.320080	1.137615
Cl252	Cl	1.676983	0.653413	1.470949
