data_functionalizedCrystal
_audit_creation_method	'MofGen! by Chris Wilmer'
_symmetry_space_group_name_H-M	'P1'
_symmetry_Int_Tables_number	1
_symmetry_cell_setting	triclinic
loop_
_symmetry_equiv_pos_as_xyz
  x,y,z
_cell_length_a	18.215405
_cell_length_b	25.639242
_cell_length_c	25.639234
_cell_angle_alpha	89.969217
_cell_angle_beta	90.024291
_cell_angle_gamma	89.981154
loop_
_atom_site_label
_atom_site_type_symbol
_atom_site_fract_x
_atom_site_fract_y
_atom_site_fract_z
Zn1	Zn	-0.293127	-0.799316	0.295764
Zn2	Zn	0.206873	-0.299316	0.795764
Zn3	Zn	-0.416187	-0.799251	0.208330
Zn4	Zn	0.083813	-0.299251	0.708330
Zn5	Zn	-0.293128	-0.711882	0.208326
Zn6	Zn	0.206872	-0.211882	0.708326
Zn7	Zn	-0.416145	-0.711860	0.295717
Zn8	Zn	0.083855	-0.211860	0.795717
O9	O	-0.354647	-0.755577	0.252035
O10	O	0.145353	-0.255577	0.752035
O11	O	-0.309468	-0.872473	0.284187
O12	O	0.190532	-0.372473	0.784187
O13	O	-0.399881	-0.787643	0.135164
O14	O	0.100119	-0.287643	0.635164
O15	O	-0.190144	-0.723516	0.219943
O16	O	0.309856	-0.223516	0.719943
O17	O	-0.399879	-0.872425	0.219949
O18	O	0.100121	-0.372425	0.719949
O19	O	-0.190143	-0.787754	0.284184
O20	O	0.309857	-0.287754	0.784184
O21	O	-0.309470	-0.723453	0.135162
O22	O	0.190530	-0.223453	0.635162
O23	O	-0.309430	-0.638714	0.219898
O24	O	0.190570	-0.138714	0.719898
O25	O	-0.399809	-0.723480	0.368889
O26	O	0.100191	-0.223480	0.868889
O27	O	-0.399810	-0.638698	0.284104
O28	O	0.100190	-0.138698	0.784104
O29	O	-0.309427	-0.787733	0.368923
O30	O	0.190573	-0.287733	0.868923
O31	O	-0.519166	-0.787623	0.219904
O32	O	-0.019166	-0.287623	0.719904
O33	O	-0.519135	-0.723417	0.284107
O34	O	-0.019135	-0.223417	0.784107
C35	C	-0.354616	-0.619735	0.251996
C36	C	0.145384	-0.119735	0.751996
C37	C	-0.354621	-0.561621	0.251991
C38	C	0.145379	-0.061621	0.751991
C39	C	-0.545853	-0.755525	0.252012
C40	C	-0.045853	-0.255525	0.752012
C41	C	-0.627652	-0.755550	0.252020
C42	C	-0.127652	-0.255550	0.752020
C43	C	-0.892701	-0.789080	0.218660
C44	C	-0.392701	-0.289080	0.718660
C45	C	-0.815842	-0.789058	0.218648
C46	C	-0.315842	-0.289058	0.718648
C47	C	-0.815851	-0.722140	0.285445
C48	C	-0.315851	-0.222140	0.785445
C49	C	-0.892709	-0.722159	0.285454
C50	C	-0.392709	-0.222159	0.785454
C51	C	-0.931131	-0.755632	0.252062
C52	C	-0.431131	-0.255632	0.752062
C53	C	-0.777415	-0.755591	0.252041
C54	C	-0.277415	-0.255591	0.752041
C55	C	-0.694082	-0.755568	0.252028
C56	C	-0.194082	-0.255568	0.752028
C57	C	-1.014470	-0.755655	0.252074
C58	C	-0.514470	-0.255655	0.752074
C59	C	-0.354613	-0.755611	0.388408
C60	C	0.145387	-0.255611	0.888408
C61	C	-0.354599	-0.755626	0.446522
C62	C	0.145401	-0.255626	0.946522
C63	C	-0.162694	-0.755644	0.252069
C64	C	0.337306	-0.255644	0.752069
C65	C	-0.080895	-0.755673	0.252083
C66	C	0.419105	-0.255673	0.752083
C67	C	-0.401780	-0.201258	0.285421
C68	C	0.098220	0.298742	0.785421
C69	C	-0.401783	-0.146654	0.285428
C70	C	0.098217	0.353346	0.785428
O71	O	-0.441847	-0.118418	0.313828
O72	O	0.058153	0.381582	0.813828
N73	N	-0.354659	-0.119338	0.252053
N74	N	0.145341	0.380662	0.752053
C75	C	-0.307523	-0.146630	0.218672
C76	C	0.192477	0.353370	0.718672
O77	O	-0.267440	-0.118381	0.190285
O78	O	0.232560	0.381619	0.690285
C79	C	-0.307516	-0.201233	0.218668
C80	C	0.192484	0.298767	0.718668
C81	C	-0.354648	-0.228546	0.252042
C82	C	0.145352	0.271454	0.752042
C83	C	-0.448908	-0.228572	0.318792
C84	C	0.051092	0.271428	0.818792
C85	C	-0.448905	-0.283172	0.318785
C86	C	0.051095	0.216828	0.818785
C87	C	-0.401773	-0.310460	0.285406
C88	C	0.098227	0.189540	0.785406
C89	C	-0.354645	-0.283146	0.252034
C90	C	0.145355	0.216854	0.752034
C91	C	-0.260376	-0.228523	0.185291
C92	C	0.239624	0.271477	0.685291
C93	C	-0.260373	-0.283130	0.185290
C94	C	0.239627	0.216870	0.685290
C95	C	-0.307506	-0.310443	0.218664
C96	C	0.192494	0.189557	0.718664
C97	C	-0.307511	-0.365034	0.218648
C98	C	0.192489	0.134966	0.718648
N99	N	-0.354635	-0.392350	0.252023
N100	N	0.145365	0.107650	0.752023
C101	C	-0.401766	-0.365063	0.285402
C102	C	0.098234	0.134937	0.785402
C103	C	-0.307540	-0.031959	0.218684
C104	C	0.192460	0.468041	0.718684
C105	C	-0.307550	0.022643	0.218684
C106	C	0.192450	0.522643	0.718684
C107	C	-0.401810	0.022615	0.285441
C108	C	0.098190	0.522615	0.785441
C109	C	-0.401803	-0.031988	0.285437
C110	C	0.098197	0.468012	0.785437
C111	C	-0.354664	-0.059275	0.252059
C112	C	0.145336	0.440725	0.752059
C113	C	-0.401757	-0.479728	0.285383
C114	C	0.098243	0.020272	0.785383
C115	C	-0.401752	-0.534333	0.285370
C116	C	0.098248	-0.034333	0.785370
C117	C	-0.307490	-0.534300	0.218616
C118	C	0.192510	-0.034300	0.718616
C119	C	-0.307497	-0.479700	0.218626
C120	C	0.192503	0.020300	0.718626
C121	C	-0.354633	-0.452415	0.252014
C122	C	0.145367	0.047585	0.752014
O123	O	-0.267466	-0.393305	0.190264
O124	O	0.232534	0.106695	0.690264
O125	O	-0.441836	-0.393318	0.313789
O126	O	0.058164	0.106682	0.813789
C127	C	-0.354675	0.108050	0.252068
C128	C	0.145325	0.608050	0.752068
C129	C	-0.354679	0.049936	0.252066
C130	C	0.145321	0.549936	0.752066
C131	C	-0.354627	-0.755574	0.116192
C132	C	0.145373	-0.255574	0.616192
C133	C	-0.354434	-0.755660	0.058078
C134	C	0.145566	-0.255660	0.558078
C135	C	-0.307434	-0.722217	0.806889
C136	C	0.192566	-0.222217	1.306889
C137	C	-0.307421	-0.722219	0.861493
C138	C	0.192579	-0.222219	1.361493
O139	O	-0.267401	-0.693787	0.889734
O140	O	0.232599	-0.193787	1.389734
N141	N	-0.354483	-0.755643	0.888804
N142	N	0.145517	-0.255643	1.388804
C143	C	-0.401568	-0.789063	0.861508
C144	C	0.098432	-0.289063	1.361508
O145	O	-0.441597	-0.817492	0.889752
O146	O	0.058403	-0.317492	1.389752
C147	C	-0.401584	-0.789057	0.806905
C148	C	0.098416	-0.289057	1.306905
C149	C	-0.354513	-0.755634	0.779597
C150	C	0.145487	-0.255634	1.279597
C151	C	-0.260368	-0.688797	0.779581
C152	C	0.239632	-0.188797	1.279581
C153	C	-0.260380	-0.688795	0.724980
C154	C	0.239620	-0.188795	1.224980
C155	C	-0.307459	-0.722213	0.697688
C156	C	0.192541	-0.222213	1.197688
C157	C	-0.354526	-0.755632	0.724996
C158	C	0.145474	-0.255632	1.224996
C159	C	-0.448671	-0.822473	0.779609
C160	C	0.051329	-0.322473	1.279609
C161	C	-0.448684	-0.822464	0.725002
C162	C	0.051316	-0.322464	1.225002
C163	C	-0.401613	-0.789042	0.697694
C164	C	0.098387	-0.289042	1.197694
C165	C	-0.401617	-0.789048	0.643103
C166	C	0.098383	-0.289048	1.143103
N167	N	-0.354555	-0.755625	0.615792
N168	N	0.145445	-0.255625	1.115792
C169	C	-0.307476	-0.722207	0.643085
C170	C	0.192524	-0.222207	1.143085
C171	C	-0.401530	-0.789072	0.976179
C172	C	0.098470	-0.289072	1.476179
C173	C	-0.401511	-0.789080	1.030781
C174	C	0.098489	-0.289080	1.530781
C175	C	-0.307365	-0.722237	1.030763
C176	C	0.192635	-0.222237	1.530763
C177	C	-0.307381	-0.722231	0.976159
C178	C	0.192619	-0.222231	1.476159
C179	C	-0.354468	-0.755648	0.948868
C180	C	0.145532	-0.255648	1.448868
C181	C	-0.307505	-0.722205	0.528419
C182	C	0.192495	-0.222205	1.028419
C183	C	-0.307520	-0.722208	0.473814
C184	C	0.192480	-0.222208	0.973814
C185	C	-0.401668	-0.789050	0.473837
C186	C	0.098332	-0.289050	0.973837
C187	C	-0.401651	-0.789049	0.528438
C188	C	0.098349	-0.289049	1.028438
C189	C	-0.354567	-0.755623	0.555728
C190	C	0.145433	-0.255623	1.055728
O191	O	-0.441619	-0.817464	0.614828
O192	O	0.058381	-0.317464	1.114828
O193	O	-0.267460	-0.693777	0.614834
O194	O	0.232540	-0.193777	1.114834
H195	H	-0.923983	-0.816336	0.191470
H196	H	-0.423983	-0.316336	0.691470
H197	H	-0.924000	-0.694919	0.312655
H198	H	-0.424000	-0.194919	0.812655
H199	H	-0.269155	-0.054172	0.191499
H200	H	0.230845	0.445828	0.691499
H201	H	-0.222030	-0.661581	0.801797
H202	H	0.277970	-0.161581	1.301797
H203	H	-0.439869	-0.816290	0.953961
H204	H	0.060131	-0.316290	1.453961
H205	H	-0.269119	-0.556527	0.191438
H206	H	0.230881	-0.056527	0.691438
Cl207	Cl	-0.460847	-0.831061	0.439517
Cl208	Cl	0.039153	-0.331061	0.939517
H209	H	-0.221998	-0.206294	0.158113
H210	H	0.278002	0.293706	0.658113
Cl211	Cl	-0.461056	-0.066319	0.327395
Cl212	Cl	0.038944	0.433681	0.827395
H213	H	-0.784560	-0.694887	0.312632
H214	H	-0.284560	-0.194887	0.812632
H215	H	-0.269178	0.044877	0.191503
H216	H	0.230822	0.544877	0.691503
Cl217	Cl	-0.767533	-0.831110	0.176655
Cl218	Cl	-0.267533	-0.331110	0.676655
Cl219	Cl	-0.461010	-0.568666	0.327328
Cl220	Cl	0.038990	-0.068666	0.827328
Cl221	Cl	-0.460814	-0.831075	0.562769
Cl222	Cl	0.039186	-0.331075	1.062769
H223	H	-0.269052	-0.695016	0.953929
H224	H	0.230948	-0.195016	1.453929
Cl225	Cl	-0.201108	-0.317430	0.143327
Cl226	Cl	0.298892	0.182570	0.643327
H227	H	-0.269119	-0.457460	0.191450
H228	H	0.230881	0.042540	0.691450
Cl229	Cl	-0.461016	-0.445436	0.327355
Cl230	Cl	0.038984	0.054564	0.827355
Cl231	Cl	-0.508156	-0.317500	0.360746
Cl232	Cl	-0.008156	0.182500	0.860746
Cl233	Cl	-0.508167	-0.194277	0.360760
Cl234	Cl	-0.008167	0.305723	0.860760
H235	H	-0.440185	0.044842	0.312622
H236	H	0.059815	0.544842	0.812622
Cl237	Cl	-0.248339	-0.680189	0.439487
Cl238	Cl	0.251661	-0.180189	0.939487
Cl239	Cl	-0.507856	-0.864488	0.813926
Cl240	Cl	-0.007856	-0.364488	1.313926
Cl241	Cl	-0.248308	-0.680187	0.562718
Cl242	Cl	0.251692	-0.180187	1.062718
Cl243	Cl	-0.507884	-0.864476	0.690697
Cl244	Cl	-0.007884	-0.364476	1.190697
H245	H	-0.222053	-0.661577	0.702751
H246	H	0.277947	-0.161577	1.202751
H247	H	-0.269031	-0.695026	1.052994
H248	H	0.230969	-0.195026	1.552994
Cl249	Cl	-0.460679	-0.831105	1.065105
Cl250	Cl	0.039321	-0.331105	1.565105
