data_functionalizedCrystal
_audit_creation_method	'MofGen! by Chris Wilmer'
_symmetry_space_group_name_H-M	'P1'
_symmetry_Int_Tables_number	1
_symmetry_cell_setting	triclinic
loop_
_symmetry_equiv_pos_as_xyz
  x,y,z
_cell_length_a	12.645331
_cell_length_b	12.645330
_cell_length_c	12.645323
_cell_angle_alpha	90.024870
_cell_angle_beta	90.022676
_cell_angle_gamma	90.016671
loop_
_atom_site_label
_atom_site_type_symbol
_atom_site_fract_x
_atom_site_fract_y
_atom_site_fract_z
Zn1	Zn	1.620731	-0.422060	0.599446
Zn2	Zn	1.620613	-0.599348	0.422186
Zn3	Zn	1.443446	-0.422096	0.422191
Zn4	Zn	1.443428	-0.599279	0.599402
O5	O	1.532054	-0.510695	0.510806
O6	O	1.769063	-0.445591	0.575949
O7	O	1.597069	-0.575879	0.273840
O8	O	1.467020	-0.273744	0.445724
O9	O	1.768976	-0.575844	0.445717
O10	O	1.597271	-0.273717	0.575953
O11	O	1.466906	-0.445653	0.273843
O12	O	1.295096	-0.445585	0.445681
O13	O	1.466989	-0.575726	0.747755
O14	O	1.295083	-0.575761	0.575877
O15	O	1.597253	-0.445524	0.747788
O16	O	1.597052	-0.747686	0.445674
O17	O	1.466874	-0.747635	0.575873
C18	C	1.256625	-0.510670	0.510776
C19	C	1.138795	-0.510685	0.510788
C20	C	1.531977	-0.786125	0.510791
C21	C	1.532041	-0.903955	0.510821
C22	C	0.971204	-0.428415	0.429333
C23	C	1.093763	-0.428628	0.428974
C24	C	1.094274	-0.622359	0.480273
C25	C	0.971676	-0.621910	0.479717
C26	C	0.971645	-0.482344	0.623072
C27	C	1.094251	-0.479849	0.622448
C28	C	1.450484	-1.071531	0.592982
C29	C	1.450067	-0.948972	0.592717
C30	C	1.501796	-0.948549	0.399099
C31	C	1.501298	-1.071147	0.399597
C32	C	1.644342	-1.071047	0.539475
C33	C	1.643654	-0.948440	0.541918
C34	C	1.808560	-0.510722	0.510838
C35	C	1.926390	-0.510733	0.510851
C36	C	1.532132	-0.510614	0.787312
C37	C	1.532166	-0.510579	0.905142
C38	C	1.532161	-0.234190	0.510844
C39	C	1.532206	-0.116360	0.510861
C40	C	1.532038	-0.510701	0.235377
C41	C	1.532210	-0.510437	0.117547
C42	C	1.449964	-0.592103	1.072685
C43	C	1.450179	-0.592506	0.950125
C44	C	1.643865	-0.540899	0.949662
C45	C	1.643414	-0.541410	1.072260
C46	C	1.503724	-0.398278	1.072340
C47	C	1.501232	-0.398951	0.949733
H48	H	0.941740	-0.345355	0.448254
N49	N	1.722824	-0.468667	0.913112
N50	N	1.817062	-0.480362	0.940582
H51	H	1.872828	-0.429348	0.914767
H52	H	0.942031	-0.685319	0.536502
N53	N	1.473296	-0.695771	1.111331
N54	N	1.406300	-0.744741	1.165009
H55	H	1.422779	-0.817959	1.192301
N56	N	1.398135	-0.370247	0.913178
N57	N	1.385934	-0.288557	0.858910
H58	H	1.313126	-0.268286	0.833073
N59	N	1.403309	-0.363617	1.111079
N60	N	1.329976	-0.344032	1.047742
H61	H	1.259052	-0.319564	1.075101
H62	H	1.367871	-1.102431	0.574266
H63	H	1.668424	-0.622030	0.918973
N64	N	1.400021	-0.910176	0.368147
N65	N	1.326612	-0.973848	0.349900
H66	H	1.254730	-0.946750	0.328046
H67	H	1.558238	-1.100805	0.336324
N68	N	1.570894	-0.318591	0.911312
N69	N	1.644808	-0.342390	0.850171
H70	H	1.694015	-0.285638	0.823035
N71	N	0.932486	-0.451687	0.325630
N72	N	0.872032	-0.528635	0.311499
H73	H	0.844685	-0.545075	0.238259
N74	N	1.578880	-0.321959	1.108739
N75	N	1.653128	-0.349904	1.167715
H76	H	1.706210	-0.296012	1.193427
N77	N	1.345785	-0.912254	0.568966
N78	N	1.330180	-0.855827	0.489341
H79	H	1.256526	-0.829882	0.472584
H80	H	0.940749	-0.402333	0.650823
N81	N	1.473971	-1.108430	0.697254
N82	N	1.417246	-1.080910	0.773369
H83	H	1.433832	-1.106976	0.847015
N84	N	0.935311	-0.557580	0.699253
N85	N	0.876343	-0.631814	0.671165
H86	H	0.850685	-0.684960	0.724959
N87	N	1.130485	-0.452167	0.324647
N88	N	1.065568	-0.468498	0.251876
H89	H	1.091501	-0.485127	0.178191
H90	H	1.123864	-0.345817	0.448100
H91	H	1.124930	-0.646847	0.399115
H92	H	1.468983	-0.675654	0.920811
N93	N	0.935749	-0.652115	0.376799
N94	N	1.001220	-0.673378	0.305880
H95	H	0.975852	-0.694710	0.233190
N96	N	1.398474	-1.107149	0.369172
N97	N	1.361673	-1.082703	0.280745
H98	H	1.289051	-1.108126	0.259256
H99	H	1.123444	-0.685331	0.537783
H100	H	1.559431	-0.919391	0.336240
N101	N	1.473808	-0.911153	0.696643
N102	N	1.490800	-0.975304	0.769878
H103	H	1.507564	-0.948600	0.843282
N104	N	1.678947	-1.109751	0.639936
N105	N	1.621375	-1.171212	0.691667
H106	H	1.645804	-1.198550	0.762620
N107	N	1.672259	-0.911867	0.645065
N108	N	1.610732	-0.853255	0.695544
H109	H	1.630930	-0.827421	0.768394
H110	H	1.707747	-0.917790	0.486462
H111	H	1.705227	-1.100036	0.479663
H112	H	1.123355	-0.397670	0.645458
N113	N	1.673682	-0.644263	1.108179
N114	N	1.678816	-0.663239	1.205047
H115	H	1.700190	-0.735881	1.230412
N116	N	1.722895	-0.470029	1.109483
N117	N	1.778526	-0.419998	1.044913
H118	H	1.834661	-0.369587	1.071196
N119	N	1.346269	-0.568699	0.912372
N120	N	1.273081	-0.551670	0.976568
H121	H	1.199688	-0.534861	0.949911
H122	H	1.366889	-0.573311	1.102159
N123	N	1.132641	-0.549639	0.702697
N124	N	1.193728	-0.623571	0.678793
H125	H	1.220812	-0.672891	0.735461
