data_functionalizedCrystal
_audit_creation_method	'MofGen! by Chris Wilmer'
_symmetry_space_group_name_H-M	'P1'
_symmetry_Int_Tables_number	1
_symmetry_cell_setting	triclinic
loop_
_symmetry_equiv_pos_as_xyz
  x,y,z
_cell_length_a	15.538191
_cell_length_b	15.625429
_cell_length_c	16.053802
_cell_angle_alpha	74.515382
_cell_angle_beta	88.440717
_cell_angle_gamma	66.736792
loop_
_atom_site_label
_atom_site_type_symbol
_atom_site_fract_x
_atom_site_fract_y
_atom_site_fract_z
O1	O	1.248461	-0.291305	0.018742
O2	O	0.976098	-0.189514	-0.012071
O3	O	1.117341	-0.371139	0.042914
O4	O	1.107218	-0.109680	-0.036243
O5	O	1.109566	-0.361173	0.178756
O6	O	0.968323	-0.179548	0.123771
O7	O	1.240686	-0.281339	0.154584
Zn8	Zn	1.103270	-0.228861	0.160745
Zn9	Zn	1.113514	-0.241992	-0.018232
O10	O	1.099443	-0.099714	0.099599
C11	C	0.937313	-0.173881	0.052626
C12	C	0.833330	-0.142158	0.043024
C13	C	0.539670	-0.457316	0.138425
C14	C	0.441960	-0.427486	0.129393
C15	C	0.422642	-0.259696	0.078595
C16	C	0.520353	-0.289512	0.087626
C17	C	0.578859	-0.388323	0.117541
C18	C	0.559542	-0.220519	0.066742
C19	C	0.657244	-0.250334	0.075769
C20	C	0.715757	-0.349141	0.105680
C21	C	0.676561	-0.418138	0.126567
C22	C	0.501034	-0.121708	0.036822
C23	C	0.540223	-0.052716	0.015938
C24	C	0.637926	-0.082529	0.024971
C25	C	0.696439	-0.181337	0.054881
C26	C	0.677122	-0.013532	0.004083
C27	C	0.774824	-0.043347	0.013110
C28	C	0.794141	-0.211151	0.063908
C29	C	1.112226	-0.398802	0.120716
C30	C	1.108556	-0.496071	0.150159
C31	C	1.117649	-0.843133	-0.123215
C32	C	1.114194	-0.934529	-0.095524
C33	C	1.105719	-0.923650	0.052561
C34	C	1.109177	-0.832254	0.024883
C35	C	1.115141	-0.792002	-0.063006
C36	C	1.106669	-0.781123	0.085092
C37	C	1.110122	-0.689732	0.057415
C38	C	1.116083	-0.649472	-0.030471
C39	C	1.118593	-0.700611	-0.090683
C40	C	1.100699	-0.821373	0.172980
C41	C	1.098191	-0.770242	0.233189
C42	C	1.101650	-0.678853	0.205513
C43	C	1.107611	-0.638593	0.117627
C44	C	1.099140	-0.627714	0.265726
C45	C	1.102592	-0.536323	0.238049
C46	C	1.111064	-0.547202	0.089951
C47	C	1.279471	-0.296972	0.089885
C48	C	1.383454	-0.328695	0.099482
C49	C	1.104558	-0.072051	0.021795
C50	C	1.108228	0.025218	-0.007654
N51	N	1.096286	-0.219902	0.282893
N52	N	1.120506	-0.250961	-0.140377
C53	C	1.156408	-0.297170	0.349979
C54	C	1.151531	-0.290898	0.435487
C55	C	1.086536	-0.207353	0.453906
C56	C	1.026408	-0.130080	0.386813
C57	C	1.031280	-0.136356	0.301308
C58	C	1.065250	-0.179964	0.707024
C59	C	1.060384	-0.173692	0.792537
C60	C	1.185506	-0.334511	0.841205
C61	C	1.190377	-0.340778	0.755695
C62	C	1.130245	-0.263507	0.688610
N63	N	1.081552	-0.200939	0.541308
N64	N	1.135226	-0.269925	0.601211
H65	H	0.374994	-0.179243	0.054235
Br66	Br	0.972172	-0.060297	0.817525
H67	H	0.982322	-0.073437	0.246685
Br68	Br	1.278588	-0.454158	0.730696
H69	H	0.410057	-0.483676	0.146400
Br70	Br	1.096007	-0.945403	0.210542
H71	H	1.094274	-0.660497	0.337284
H72	H	0.841781	-0.291613	0.088272
H73	H	1.118884	-0.575051	-0.053005
Br74	Br	0.983647	-0.075098	0.615985
Br75	Br	1.117589	-1.003915	-0.177248
Br76	Br	0.828016	0.050286	-0.015238
H77	H	1.115929	-0.514431	0.018384
H78	H	1.123458	-0.667840	-0.162250
Br79	Br	1.244627	-0.410554	0.324991
H80	H	0.421479	-0.097437	0.029471
H81	H	0.973483	-0.062058	0.401815
Br82	Br	0.597711	0.120563	-0.036532
Br83	Br	0.848355	-0.389609	0.117923
H84	H	1.122513	-0.810361	-0.194782
Br85	Br	0.460815	0.081381	-0.024666
Br86	Br	1.090086	-0.824873	0.352462
Br87	Br	0.755971	-0.552240	0.167180
H88	H	1.100530	-0.494682	0.287074
Br89	Br	0.619080	-0.591419	0.179037
Br90	Br	1.233123	-0.395766	0.526536
H91	H	1.100860	-0.956435	0.124120
H92	H	1.234462	-0.397422	0.895833
