data_functionalizedCrystal
_audit_creation_method	'MofGen! by Chris Wilmer'
_symmetry_space_group_name_H-M	'P1'
_symmetry_Int_Tables_number	1
_symmetry_cell_setting	triclinic
loop_
_symmetry_equiv_pos_as_xyz
  x,y,z
_cell_length_a	11.169416
_cell_length_b	11.169417
_cell_length_c	11.169409
_cell_angle_alpha	89.978351
_cell_angle_beta	90.030874
_cell_angle_gamma	89.991438
loop_
_atom_site_label
_atom_site_type_symbol
_atom_site_fract_x
_atom_site_fract_y
_atom_site_fract_z
Zn1	Zn	-0.477767	-1.834962	0.678613
Zn2	Zn	-0.227767	-1.584962	0.928613
Zn3	Zn	0.022233	-1.334962	1.178613
Zn4	Zn	0.272233	-1.084962	1.428613
Zn5	Zn	-0.678507	-1.834852	0.477935
Zn6	Zn	-0.428507	-1.584852	0.727935
Zn7	Zn	-0.178507	-1.334852	0.977935
Zn8	Zn	0.071493	-1.084852	1.227935
Zn9	Zn	-0.477831	-1.634248	0.477941
Zn10	Zn	-0.227831	-1.384248	0.727941
Zn11	Zn	0.022169	-1.134248	0.977941
Zn12	Zn	0.272169	-0.884248	1.227941
Zn13	Zn	-0.678400	-1.634256	0.678574
Zn14	Zn	-0.428400	-1.384256	0.928574
Zn15	Zn	-0.178400	-1.134256	1.178574
Zn16	Zn	0.071600	-0.884256	1.428574
O17	O	-0.578126	-1.734579	0.578266
O18	O	-0.328126	-1.484579	0.828266
O19	O	-0.078126	-1.234579	1.078266
O20	O	0.171874	-0.984579	1.328266
O21	O	-0.504414	-2.002897	0.652007
O22	O	-0.254414	-1.752897	0.902007
O23	O	-0.004414	-1.502897	1.152007
O24	O	0.245586	-1.252897	1.402007
O25	O	-0.651959	-1.808192	0.309986
O26	O	-0.401959	-1.558192	0.559986
O27	O	-0.151959	-1.308192	0.809986
O28	O	0.098041	-1.058192	1.059986
O29	O	-0.309873	-1.660917	0.504580
O30	O	-0.059873	-1.410917	0.754580
O31	O	0.190127	-1.160917	1.004580
O32	O	0.440127	-0.910917	1.254580
O33	O	-0.651897	-2.002816	0.504570
O34	O	-0.401897	-1.752816	0.754570
O35	O	-0.151897	-1.502816	1.004570
O36	O	0.098103	-1.252816	1.254570
O37	O	-0.309826	-1.808380	0.652013
O38	O	-0.059826	-1.558380	0.902013
O39	O	0.190174	-1.308380	1.152013
O40	O	0.440174	-1.058380	1.402013
O41	O	-0.504522	-1.660809	0.309991
O42	O	-0.254522	-1.410809	0.559991
O43	O	-0.004522	-1.160809	0.809991
O44	O	0.245478	-0.910809	1.059991
O45	O	-0.504419	-1.466300	0.504542
O46	O	-0.254419	-1.216300	0.754542
O47	O	-0.004419	-0.966300	1.004542
O48	O	0.245581	-0.716300	1.254542
O49	O	-0.651714	-1.660929	0.846529
O50	O	-0.401714	-1.410929	1.096529
O51	O	-0.151714	-1.160929	1.346529
O52	O	0.098286	-0.910929	1.596529
O53	O	-0.651776	-1.466305	0.651945
O54	O	-0.401776	-1.216305	0.901945
O55	O	-0.151776	-0.966305	1.151945
O56	O	0.098224	-0.716305	1.401945
O57	O	-0.504310	-1.808388	0.846558
O58	O	-0.254310	-1.558388	1.096558
O59	O	-0.004310	-1.308388	1.346558
O60	O	0.245690	-1.058388	1.596558
O61	O	-0.846443	-1.808199	0.504531
O62	O	-0.596443	-1.558199	0.754531
O63	O	-0.346443	-1.308199	1.004531
O64	O	-0.096443	-1.058199	1.254531
O65	O	-0.846364	-1.660822	0.651940
O66	O	-0.596364	-1.410822	0.901940
O67	O	-0.346364	-1.160822	1.151940
O68	O	-0.096364	-0.910822	1.401940
C69	C	-0.578094	-1.422755	0.578241
C70	C	-0.328094	-1.172755	0.828241
C71	C	-0.078094	-0.922755	1.078241
C72	C	0.171906	-0.672755	1.328241
C73	C	-0.578109	-1.289355	0.578258
C74	C	-0.328109	-1.039355	0.828258
C75	C	-0.078109	-0.789355	1.078258
C76	C	0.171891	-0.539355	1.328258
C77	C	-0.889951	-1.734532	0.578257
C78	C	-0.639951	-1.484532	0.828257
C79	C	-0.389951	-1.234532	1.078257
C80	C	-0.139951	-0.984532	1.328257
C81	C	-1.023351	-1.734621	0.578293
C82	C	-0.773351	-1.484621	0.828293
C83	C	-0.523351	-1.234621	1.078293
C84	C	-0.273351	-0.984621	1.328293
C85	C	-0.265084	-1.734660	0.578301
C86	C	-0.015084	-1.484660	0.828301
C87	C	0.234916	-1.234660	1.078301
C88	C	0.484916	-0.984660	1.328301
C89	C	-0.131684	-1.734694	0.578316
C90	C	0.118316	-1.484694	0.828316
C91	C	0.368316	-1.234694	1.078316
C92	C	0.618316	-0.984694	1.328316
C93	C	-0.577993	-1.734672	0.891309
C94	C	-0.327993	-1.484672	1.141309
C95	C	-0.077993	-1.234672	1.391309
C96	C	0.172007	-0.984672	1.641309
C97	C	-0.577936	-1.734711	1.024709
C98	C	-0.327936	-1.484711	1.274709
C99	C	-0.077936	-1.234711	1.524709
C100	C	0.172064	-0.984711	1.774709
C101	C	-0.578148	-1.047622	0.578284
C102	C	-0.328148	-0.797622	0.828284
C103	C	-0.078148	-0.547622	1.078284
C104	C	0.171852	-0.297622	1.328284
C105	C	-0.578128	-1.181022	0.578271
C106	C	-0.328128	-0.931022	0.828271
C107	C	-0.078128	-0.681022	1.078271
C108	C	0.171872	-0.431022	1.328271
C109	C	-0.578172	-1.734557	0.266441
C110	C	-0.328172	-1.484557	0.516441
C111	C	-0.078172	-1.234557	0.766441
C112	C	0.171828	-0.984557	1.016441
C113	C	-0.577891	-1.734750	0.133042
C114	C	-0.327891	-1.484750	0.383042
C115	C	-0.077891	-1.234750	0.633042
C116	C	0.172109	-0.984750	0.883042
