data_functionalizedCrystal
_audit_creation_method	'MofGen! by Chris Wilmer'
_symmetry_space_group_name_H-M	'P1'
_symmetry_Int_Tables_number	1
_symmetry_cell_setting	triclinic
loop_
_symmetry_equiv_pos_as_xyz
  x,y,z
_cell_length_a	12.827893
_cell_length_b	12.827892
_cell_length_c	12.827885
_cell_angle_alpha	90.029976
_cell_angle_beta	90.019272
_cell_angle_gamma	90.015362
loop_
_atom_site_label
_atom_site_type_symbol
_atom_site_fract_x
_atom_site_fract_y
_atom_site_fract_z
Zn1	Zn	1.597670	-0.415983	0.590847
Zn2	Zn	2.097670	0.084017	1.090847
Zn3	Zn	1.597564	-0.590761	0.416107
Zn4	Zn	2.097564	-0.090761	0.916107
Zn5	Zn	1.422911	-0.416034	0.416121
Zn6	Zn	1.922911	0.083966	0.916121
Zn7	Zn	1.422896	-0.590683	0.590807
Zn8	Zn	1.922896	-0.090683	1.090807
O9	O	1.510260	-0.503365	0.503471
O10	O	2.010260	-0.003365	1.003471
O11	O	1.743892	-0.439179	0.567679
O12	O	2.243892	0.060821	1.067679
O13	O	1.574357	-0.567637	0.269873
O14	O	2.074357	-0.067637	0.769873
O15	O	1.446144	-0.269791	0.439321
O16	O	1.946144	0.230209	0.939321
O17	O	1.743814	-0.567587	0.439298
O18	O	2.243814	-0.067587	0.939298
O19	O	1.574538	-0.269754	0.567692
O20	O	2.074538	0.230246	1.067692
O21	O	1.446041	-0.439266	0.269883
O22	O	1.946041	0.060734	0.769883
O23	O	1.276673	-0.439190	0.439282
O24	O	1.776673	0.060810	0.939282
O25	O	1.446118	-0.567455	0.737048
O26	O	1.946118	-0.067455	1.237048
O27	O	1.276662	-0.567504	0.567623
O28	O	1.776662	-0.067504	1.067623
O29	O	1.574524	-0.439104	0.737078
O30	O	2.074524	0.060896	1.237078
O31	O	1.574343	-0.736986	0.439259
O32	O	2.074343	-0.236986	0.939259
O33	O	1.446016	-0.736929	0.567610
O34	O	1.946016	-0.236929	1.067610
C35	C	1.238750	-0.503345	0.503451
C36	C	1.738750	-0.003345	1.003451
C37	C	1.122597	-0.503362	0.503467
C38	C	1.622597	-0.003362	1.003467
C39	C	1.070835	-0.566954	0.566876
C40	C	1.570835	-0.066954	1.066876
C41	C	0.950784	-0.566973	0.566895
C42	C	1.450784	-0.066973	1.066895
C43	C	1.510195	-0.774875	0.503451
C44	C	2.010195	-0.274875	1.003451
C45	C	1.510262	-0.891028	0.503478
C46	C	2.010262	-0.391028	1.003478
C47	C	1.573768	-0.942711	0.567057
C48	C	2.073768	-0.442711	1.067057
C49	C	1.573839	-1.062761	0.567086
C50	C	2.073839	-0.562761	1.067086
C51	C	1.782830	-0.503386	0.503491
C52	C	2.282830	-0.003386	1.003491
C53	C	1.898983	-0.503395	0.503500
C54	C	2.398983	-0.003395	1.003500
C55	C	1.510331	-0.503265	0.776041
C56	C	2.010331	-0.003265	1.276041
C57	C	1.510362	-0.503222	0.892194
C58	C	2.010362	-0.003222	1.392194
C59	C	1.510354	-0.230795	0.503513
C60	C	2.010354	0.269205	1.003513
C61	C	1.510394	-0.114642	0.503531
C62	C	2.010394	0.385358	1.003531
C63	C	1.510249	-0.503390	0.231961
C64	C	2.010249	-0.003390	0.731961
C65	C	1.510422	-0.503138	0.115808
C66	C	2.010422	-0.003138	0.615808
C67	C	1.573907	-0.439697	0.943993
C68	C	2.073907	0.060303	1.443993
C69	C	1.573940	-0.439652	1.064044
C70	C	2.073940	0.060348	1.564044
H71	H	0.943491	-0.448952	0.449206
H72	H	1.443491	0.051048	0.949206
C73	C	1.646231	-0.883403	0.639733
C74	C	2.146231	-0.383403	1.139733
C75	C	1.704812	-0.954349	0.698416
C76	C	2.204812	-0.454349	1.198416
C77	C	1.771565	-0.899756	0.765391
C78	C	2.271565	-0.399756	1.265391
H79	H	1.691815	-0.840806	0.599873
H80	H	2.191815	-0.340806	1.099873
H81	H	1.606183	-0.840851	0.685236
H82	H	2.106183	-0.340851	1.185236
H83	H	1.744858	-0.996883	0.652918
H84	H	2.244858	-0.496883	1.152918
H85	H	1.659256	-0.996949	0.738297
H86	H	2.159256	-0.496949	1.238297
H87	H	1.731517	-0.857204	0.810894
H88	H	2.231517	-0.357204	1.310894
H89	H	1.817143	-0.857161	0.725522
H90	H	2.317143	-0.357161	1.225522
H91	H	1.811314	-0.947884	0.805221
H92	H	2.311314	-0.447884	1.305221
C93	C	1.063143	-0.430961	0.430952
C94	C	1.563143	0.069039	0.930952
C95	C	1.000469	-0.490128	0.363922
C96	C	1.500469	0.009872	0.863922
C97	C	0.945702	-0.423470	0.297090
C98	C	1.445702	0.076530	0.797090
H99	H	1.020499	-0.385493	0.470916
H100	H	1.520499	0.114507	0.970916
H101	H	1.111159	-0.391086	0.391106
H102	H	1.611159	0.108914	0.891106
H103	H	0.952459	-0.529986	0.403764
H104	H	1.452459	-0.029986	0.903764
H105	H	1.043086	-0.535594	0.323935
H106	H	1.543086	-0.035594	0.823935
H107	H	0.993717	-0.383595	0.257244
H108	H	1.493717	0.116405	0.757244
H109	H	0.903064	-0.378006	0.337063
H110	H	1.403064	0.121994	0.837063
H111	H	0.903178	-0.463606	0.251596
H112	H	1.403178	0.036394	0.751596
H113	H	1.456026	-1.070203	0.449091
H114	H	1.956026	-0.570203	0.949091
C115	C	1.646162	-1.122074	0.639800
C116	C	2.146162	-0.622074	1.139800
C117	C	1.586930	-1.184717	0.706699
C118	C	2.086930	-0.684717	1.206699
C119	C	1.653518	-1.239363	0.773709
C120	C	2.153518	-0.739363	1.273709
H121	H	1.691725	-1.164730	0.599959
H122	H	2.191725	-0.664730	1.099959
H123	H	1.685939	-1.073987	0.679733
H124	H	2.185939	-0.573987	1.179733
H125	H	1.547171	-1.232798	0.666770
H126	H	2.047171	-0.732798	1.166770
H127	H	1.541371	-1.142087	0.746563
H128	H	2.041371	-0.642087	1.246563
H129	H	1.693296	-1.191276	0.813642
H130	H	2.193296	-0.691276	1.313642
H131	H	1.699078	-1.282013	0.733859
H132	H	2.199078	-0.782013	1.233859
H133	H	1.613339	-1.281865	0.819114
H134	H	2.113339	-0.781865	1.319114
H135	H	1.455941	-0.935657	0.449072
H136	H	1.955941	-0.435657	0.949072
C137	C	1.646593	-0.367280	0.884766
C138	C	2.146593	0.132720	1.384766
C139	C	1.750009	-0.389994	0.911265
C140	C	2.250009	0.110006	1.411265
C141	C	1.816997	-0.323293	0.856740
C142	C	2.316997	0.176707	1.356740
H143	H	1.637077	-0.376874	0.811952
H144	H	2.137077	0.123126	1.311952
H145	H	1.631408	-0.297025	0.902636
H146	H	2.131408	0.202975	1.402636
H147	H	1.765189	-0.460232	0.893387
H148	H	2.265189	0.039768	1.393387
H149	H	1.759558	-0.380393	0.984069
H150	H	2.259558	0.119607	1.484069
H151	H	1.801812	-0.253038	0.874610
H152	H	2.301812	0.246962	1.374610
H153	H	1.807473	-0.332893	0.783928
H154	H	2.307473	0.167107	1.283928
H155	H	1.887172	-0.338689	0.874718
H156	H	2.387172	0.161311	1.374718
H157	H	0.906270	-0.621420	0.621179
H158	H	1.406270	-0.121420	1.121179
H159	H	1.455975	-0.557567	0.936724
H160	H	1.955975	-0.057567	1.436724
H161	H	1.115396	-0.621381	0.621153
H162	H	1.615396	-0.121381	1.121153
H163	H	1.628348	-0.385270	1.108590
H164	H	2.128348	0.114730	1.608590
H165	H	1.456019	-0.557531	1.071269
H166	H	1.956019	-0.057531	1.571269
