data_functionalizedCrystal
_audit_creation_method	'MofGen! by Chris Wilmer'
_symmetry_space_group_name_H-M	'P1'
_symmetry_Int_Tables_number	1
_symmetry_cell_setting	triclinic
loop_
_symmetry_equiv_pos_as_xyz
  x,y,z
_cell_length_a	14.971486
_cell_length_b	14.971486
_cell_length_c	13.448316
_cell_angle_alpha	89.997108
_cell_angle_beta	90.000041
_cell_angle_gamma	83.614129
loop_
_atom_site_label
_atom_site_type_symbol
_atom_site_fract_x
_atom_site_fract_y
_atom_site_fract_z
O1	O	-1.186946	-0.116560	0.082578
O2	O	-0.926545	-0.130519	0.082605
O3	O	-1.063725	0.006661	0.082584
O4	O	-1.049766	-0.253739	0.082599
O5	O	-1.063711	0.006659	-0.082800
O6	O	-0.926532	-0.130520	-0.082779
O7	O	-1.186932	-0.116561	-0.082806
Cu8	Cu	-1.056731	-0.123541	-0.097893
Cu9	Cu	-1.056747	-0.123539	0.097692
O10	O	-1.049753	-0.253741	-0.082784
C11	C	-0.893214	-0.129895	-0.000083
C12	C	-0.793917	-0.128024	-0.000073
C13	C	-1.063094	0.039985	-0.000108
C14	C	-1.061223	0.139282	-0.000107
N15	N	-1.056726	-0.123541	-0.235457
C16	C	-1.220263	-0.117185	-0.000115
C17	C	-1.319561	-0.119056	-0.000119
C18	C	-0.736692	-0.208614	-0.000070
C19	C	-0.643392	-0.206850	-0.000085
C20	C	-0.607320	-0.124497	-0.000096
C21	C	-0.664552	-0.043902	-0.000102
C22	C	-0.757850	-0.045666	-0.000095
C23	C	-0.470090	-0.040231	-0.000116
C24	C	-0.376786	-0.038466	-0.000122
C25	C	-0.355632	-0.201415	-0.000106
C26	C	-0.448930	-0.203179	-0.000099
C27	C	-0.506156	-0.122584	-0.000103
C28	C	-1.050384	-0.287065	-0.000091
C29	C	-1.052254	-0.386362	-0.000085
C30	C	-1.141812	0.196507	-0.000116
C31	C	-1.140049	0.289807	-0.000106
C32	C	-1.057696	0.325879	-0.000093
C33	C	-0.977101	0.268646	-0.000081
C34	C	-0.978865	0.175349	-0.000084
C35	C	-0.973430	0.463109	-0.000077
C36	C	-0.971665	0.556413	-0.000076
C37	C	-1.134614	0.577567	-0.000099
C38	C	-1.136378	0.484269	-0.000102
C39	C	-1.055782	0.427043	-0.000091
C40	C	-1.002456	-0.069191	-0.712702
C41	C	-1.002453	-0.069188	-0.608599
C42	C	-1.056748	-0.123532	-0.556539
C43	C	-1.111057	-0.177874	-0.608587
C44	C	-1.111064	-0.177871	-0.712688
C45	C	-1.111036	-0.177878	-0.391607
C46	C	-1.111028	-0.177882	-0.287498
C47	C	-1.002426	-0.069194	-0.287518
C48	C	-1.002433	-0.069192	-0.391619
C49	C	-1.056740	-0.123536	-0.443660
N50	N	-1.056759	-0.123532	0.235257
H51	H	-0.766054	-0.275675	-0.000060
O52	O	-0.813569	0.032536	-0.000138
C53	C	-0.903651	0.013321	-0.000106
H54	H	-0.907302	-0.056940	-0.031409
H55	H	-0.945868	0.064681	-0.048124
H56	H	-0.930625	0.016684	0.079238
O57	O	-0.949724	-0.016280	-0.237071
C58	C	-0.974420	0.074477	-0.262482
H59	H	-1.009104	0.078272	-0.338068
H60	H	-0.911757	0.111207	-0.266038
H61	H	-1.022367	0.107339	-0.203891
H62	H	-0.596802	-0.272474	-0.000081
O63	O	-0.949618	-0.016381	-0.558201
C64	C	-0.901710	0.031596	-0.626474
H65	H	-0.896533	-0.005425	-0.700678
H66	H	-0.831371	0.037261	-0.596401
H67	H	-0.938485	0.101746	-0.637549
O68	O	-0.897046	0.303577	-0.000199
C69	C	-0.847912	0.274363	-0.085858
H70	H	-0.872358	0.209633	-0.114419
H71	H	-0.773442	0.261489	-0.066582
H72	H	-0.858204	0.328342	-0.145836
H73	H	-0.913240	0.128756	-0.000077
H74	H	-1.205673	0.336396	-0.000115
H75	H	-1.155261	-0.222128	-0.433975
H76	H	-1.155237	-0.222136	-0.245113
H77	H	-0.309033	-0.267039	-0.000107
O78	O	-0.525645	0.038082	0.000060
C79	C	-0.509260	0.088083	0.085699
H80	H	-0.477414	0.040895	0.145562
H81	H	-0.575414	0.123875	0.114459
H82	H	-0.461706	0.139911	0.066329
H83	H	-0.958238	-0.024943	-0.755083
O84	O	-0.949818	-0.016355	-0.442304
C85	C	-1.004304	0.044599	-0.502500
H86	H	-1.070697	0.016650	-0.518081
H87	H	-0.968350	0.054620	-0.575712
H88	H	-1.017925	0.111815	-0.462387
H89	H	-0.478296	-0.270239	-0.000080
H90	H	-1.155269	-0.222117	-0.566191
H91	H	-1.203437	0.454903	-0.000119
H92	H	-1.155283	-0.222121	-0.755059
O93	O	-0.341595	0.041452	-0.000103
C94	C	-0.246977	0.025722	-0.000132
H95	H	-0.225146	-0.044051	0.031198
H96	H	-0.218268	0.078432	0.047863
H97	H	-0.221007	0.030066	-0.079480
O98	O	-0.629559	0.036120	-0.000287
C99	C	-0.658815	0.085264	-0.085930
H100	H	-0.678271	0.037109	-0.145795
H101	H	-0.602259	0.123382	-0.114683
H102	H	-0.719568	0.135039	-0.066565
O103	O	-1.221890	0.161619	-0.000081
C104	C	-1.292640	0.232139	-0.000108
H105	H	-1.267498	0.295541	0.031204
H106	H	-1.350134	0.212581	0.047904
H107	H	-1.317501	0.245319	-0.079453
H108	H	-1.200238	0.624165	-0.000104
H109	H	-0.907800	0.416517	-0.000066
O110	O	-0.891591	0.591307	-0.000005
C111	C	-0.820833	0.520794	-0.000007
H112	H	-0.845979	0.457385	0.031290
H113	H	-0.763358	0.540353	0.048031
H114	H	-0.795945	0.507626	-0.079342
