data_functionalizedCrystal
_audit_creation_method	'MofGen! by Chris Wilmer'
_symmetry_space_group_name_H-M	'P1'
_symmetry_Int_Tables_number	1
_symmetry_cell_setting	triclinic
loop_
_symmetry_equiv_pos_as_xyz
  x,y,z
_cell_length_a	18.101395
_cell_length_b	12.827893
_cell_length_c	12.827885
_cell_angle_alpha	89.980728
_cell_angle_beta	90.032375
_cell_angle_gamma	89.968925
loop_
_atom_site_label
_atom_site_type_symbol
_atom_site_fract_x
_atom_site_fract_y
_atom_site_fract_z
Zn1	Zn	-0.294794	-1.597556	0.590830
Zn2	Zn	-0.418654	-1.597402	0.416082
Zn3	Zn	-0.294830	-1.422797	0.416103
Zn4	Zn	-0.418598	-1.422734	0.590782
O5	O	-0.356719	-1.510122	0.503449
O6	O	-0.311233	-1.743771	0.567660
O7	O	-0.402266	-1.574202	0.269849
O8	O	-0.191193	-1.446070	0.439310
O9	O	-0.402231	-1.743658	0.439274
O10	O	-0.191166	-1.574464	0.567681
O11	O	-0.311294	-1.445920	0.269865
O12	O	-0.311241	-1.276553	0.439264
O13	O	-0.402137	-1.445963	0.737025
O14	O	-0.402172	-1.276507	0.567600
O15	O	-0.311179	-1.574403	0.737060
O16	O	-0.522279	-1.574141	0.439228
O17	O	-0.522239	-1.445814	0.567579
C18	C	-0.356705	-1.238612	0.503430
C19	C	-0.356717	-1.122459	0.503446
C20	C	-0.356648	-1.510193	0.776020
C21	C	-0.356618	-1.510224	0.892173
C22	C	-0.549130	-1.509982	0.503419
C23	C	-0.631444	-1.510018	0.503440
C24	C	-0.930535	-1.510247	0.503497
C25	C	-0.899215	-1.429695	0.584452
C26	C	-0.813597	-1.429312	0.584199
C27	C	-0.782152	-1.510134	0.503470
C28	C	-0.813311	-1.480314	0.393335
C29	C	-0.898956	-1.479795	0.393820
C30	C	-0.898877	-1.620796	0.531706
C31	C	-0.813226	-1.620146	0.534121
C32	C	-0.698293	-1.510071	0.503448
C33	C	-1.014394	-1.510307	0.503511
C34	C	-0.163557	-1.510291	0.503503
C35	C	-0.081243	-1.510363	0.503526
C36	C	-0.356734	-1.782692	0.503470
C37	C	-0.356740	-1.898845	0.503479
C38	C	-0.401783	-1.070679	0.566852
C39	C	-0.401796	-0.950629	0.566871
C40	C	-0.356737	-1.510111	0.231940
C41	C	-0.356558	-1.510284	0.115787
C42	C	-0.311600	-1.573787	0.943975
C43	C	-0.311568	-1.573820	1.064025
H44	H	-0.792528	-1.447969	0.665863
O45	O	-0.452879	-1.129665	0.638756
H46	H	-0.440250	-1.108815	0.720820
O47	O	-0.452906	-0.891658	0.638788
H48	H	-0.444891	-0.806621	0.627523
H49	H	-0.395105	-1.455866	1.071245
O50	O	-0.260573	-1.645842	0.885008
H51	H	-0.273257	-1.727871	0.905906
O52	O	-0.925516	-1.372757	0.362162
H53	H	-0.959148	-1.338828	0.426038
O54	O	-0.305634	-0.957808	0.431550
H55	H	-0.247514	-0.936955	0.449588
O56	O	-0.260509	-1.645913	1.123016
H57	H	-0.202380	-1.628054	1.102128
O58	O	-0.784990	-1.374405	0.361107
H59	H	-0.832404	-1.320907	0.348712
H60	H	-0.318141	-1.077913	0.449179
O61	O	-0.927399	-1.656808	0.636280
H62	H	-0.988606	-1.661373	0.633794
O63	O	-0.926781	-1.453775	0.692885
H64	H	-0.963053	-1.523462	0.690254
O65	O	-0.927804	-1.321812	0.560007
H66	H	-0.959629	-1.291885	0.627616
O67	O	-0.786535	-1.320781	0.559422
H68	H	-0.834620	-1.268367	0.547565
O69	O	-0.926413	-1.554119	0.311187
H70	H	-0.878517	-1.590267	0.271052
O71	O	-0.407638	-1.438159	0.951139
H72	H	-0.445279	-1.484952	1.000858
H73	H	-0.792944	-1.537139	0.331373
H74	H	-0.792857	-1.642633	0.615174
H75	H	-0.919130	-1.680811	0.472743
O76	O	-0.784902	-1.703853	0.461684
H77	H	-0.748071	-1.668193	0.402439
