data_functionalizedCrystal
_audit_creation_method	'MofGen! by Chris Wilmer'
_symmetry_space_group_name_H-M	'P1'
_symmetry_Int_Tables_number	1
_symmetry_cell_setting	triclinic
loop_
_symmetry_equiv_pos_as_xyz
  x,y,z
_cell_length_a	17.666332
_cell_length_b	17.699083
_cell_length_c	17.699083
_cell_angle_alpha	83.283015
_cell_angle_beta	89.992629
_cell_angle_gamma	89.996676
loop_
_atom_site_label
_atom_site_type_symbol
_atom_site_fract_x
_atom_site_fract_y
_atom_site_fract_z
O1	O	0.062844	-1.004081	-0.095712
O2	O	0.562844	-0.504081	0.404288
O3	O	0.062869	-0.783703	-0.108165
O4	O	0.562869	-0.283703	0.391835
O5	O	0.062849	-0.900118	0.008250
O6	O	0.562849	-0.400118	0.508250
O7	O	0.062864	-0.887666	-0.212128
O8	O	0.562864	-0.387666	0.287872
O9	O	-0.063048	-0.900098	0.008257
O10	O	0.436952	-0.400098	0.508257
O11	O	-0.063028	-0.783682	-0.108159
O12	O	0.436972	-0.283682	0.391841
O13	O	-0.063053	-1.004061	-0.095706
O14	O	0.436947	-0.504061	0.404294
Cu15	Cu	-0.074536	-0.893870	-0.101932
Cu16	Cu	0.425464	-0.393870	0.398068
Cu17	Cu	0.074352	-0.893894	-0.101939
Cu18	Cu	0.574352	-0.393894	0.398061
O19	O	-0.063033	-0.887645	-0.212122
O20	O	0.436967	-0.387645	0.287878
C21	C	-0.000077	-0.755495	-0.107716
C22	C	0.499923	-0.255495	0.392284
C23	C	-0.000067	-0.671477	-0.106377
C24	C	0.499933	-0.171477	0.393623
C25	C	-0.000100	-0.899662	0.036451
C26	C	0.499900	-0.399662	0.536451
C27	C	-0.000100	-0.898323	0.120469
C28	C	0.499900	-0.398323	0.620469
N29	N	-0.179255	-0.893858	-0.101926
N30	N	0.320745	-0.393858	0.398074
C31	C	-0.218874	-0.945424	-0.050403
C32	C	0.281126	-0.445424	0.449597
C33	C	-0.298121	-0.945428	-0.050399
C34	C	0.201879	-0.445428	0.449601
C35	C	-0.337748	-0.893874	-0.101932
C36	C	0.162252	-0.393874	0.398068
C37	C	-0.298119	-0.842299	-0.153460
C38	C	0.201881	-0.342299	0.346540
C39	C	-0.218873	-0.842291	-0.153457
C40	C	0.281127	-0.342291	0.346543
N41	N	-0.462161	-0.884117	-0.168921
N42	N	0.037839	-0.384117	0.331079
N43	N	-0.537441	-0.884129	-0.168921
N44	N	-0.037441	-0.384129	0.331079
C45	C	-0.576512	-0.893894	-0.101943
C46	C	-0.076512	-0.393894	0.398057
N47	N	-0.537457	-0.903662	-0.034962
N48	N	-0.037457	-0.403662	0.465038
N49	N	-0.462170	-0.903653	-0.034962
N50	N	0.037830	-0.403653	0.465038
C51	C	-0.423677	-0.893877	-0.101941
C52	C	0.076323	-0.393877	0.398059
C53	C	-0.702059	-0.945467	-0.050411
C54	C	-0.202059	-0.445467	0.449589
C55	C	-0.781308	-0.945466	-0.050406
C56	C	-0.281308	-0.445466	0.449594
C57	C	-0.781305	-0.842341	-0.153473
C58	C	-0.281305	-0.342341	0.346527
C59	C	-0.702057	-0.842338	-0.153471
C60	C	-0.202057	-0.342338	0.346529
C61	C	-0.662439	-0.893905	-0.101941
C62	C	-0.162439	-0.393905	0.398059
N63	N	0.179071	-0.893911	-0.101939
N64	N	0.679071	-0.393911	0.398061
C65	C	-0.000106	-1.032268	-0.096156
C66	C	0.499894	-0.532268	0.403844
C67	C	-0.000110	-1.116286	-0.097494
C68	C	0.499890	-0.616286	0.402506
C69	C	-0.000063	-0.622856	-0.174710
C70	C	0.499937	-0.122856	0.325290
C71	C	-0.000073	-0.543913	-0.173448
C72	C	0.499927	-0.043913	0.326552
C73	C	-0.000082	-0.513592	-0.103852
C74	C	0.499918	-0.013592	0.396148
C75	C	-0.000088	-0.562219	-0.035513
C76	C	0.499912	-0.062219	0.464487
C77	C	-0.000084	-0.641161	-0.036776
C78	C	0.499916	-0.141161	0.463224
C79	C	-0.000107	-0.243856	-0.030418
C80	C	0.499893	0.256144	0.469582
C81	C	-0.000109	-0.164908	-0.029160
C82	C	0.499891	0.335092	0.470840
C83	C	-0.000096	-0.146608	-0.167090
C84	C	0.499904	0.353392	0.332910
C85	C	-0.000092	-0.225550	-0.168353
C86	C	0.499908	0.274450	0.331647
C87	C	-0.000102	-0.274170	-0.100015
C88	C	0.499898	0.225830	0.399985
C89	C	-0.000093	-0.359769	-0.101384
C90	C	0.499907	0.140231	0.398616
C91	C	-0.000085	-0.427995	-0.102481
C92	C	0.499915	0.072005	0.397519
C93	C	-0.000083	-0.888102	-0.240322
C94	C	0.499917	-0.388102	0.259678
C95	C	-0.000078	-0.889440	-0.324340
C96	C	0.499922	-0.389440	0.175660
C97	C	-0.000109	-0.966656	0.169090
C98	C	0.499891	-0.466656	0.669090
C99	C	-0.000102	-0.965394	0.248033
C100	C	0.499898	-0.465394	0.748033
C101	C	-0.000092	-0.895798	0.278354
C102	C	0.499908	-0.395798	0.778354
C103	C	-0.000080	-0.827459	0.229727
C104	C	0.499920	-0.327459	0.729727
C105	C	-0.000082	-0.828722	0.150785
C106	C	0.499918	-0.328722	0.650785
C107	C	-0.000074	-0.822364	0.548090
C108	C	0.499926	-0.322364	1.048090
C109	C	-0.000075	-0.821106	0.627038
C110	C	0.499925	-0.321106	1.127038
C111	C	-0.000094	-0.959036	0.645338
C112	C	0.499906	-0.459036	1.145338
C113	C	-0.000095	-0.960299	0.566396
C114	C	0.499905	-0.460299	1.066396
C115	C	-0.000080	-0.891961	0.517776
C116	C	0.499920	-0.391961	1.017776
C117	C	-0.000086	-0.893330	0.432177
C118	C	0.499914	-0.393330	0.932177
C119	C	-0.000091	-0.894427	0.363951
C120	C	0.499909	-0.394427	0.863951
H121	H	-0.186619	-0.987411	-0.008442
H122	H	0.313381	-0.487411	0.491558
Br123	Br	-0.648283	-0.772356	-0.223402
Br124	Br	-0.148283	-0.272356	0.276598
Br125	Br	-0.648290	-1.015447	0.019525
Br126	Br	-0.148290	-0.515447	0.519525
Br127	Br	-0.000073	-0.266696	-0.262808
Br128	Br	0.499927	0.233304	0.237192
H129	H	-0.000111	-1.021038	0.287618
H130	H	0.499889	-0.521038	0.787618
H131	H	-0.000068	-0.504328	-0.229092
H132	H	0.499932	-0.004328	0.270908
H133	H	-0.000055	-0.647537	-0.231384
H134	H	0.499945	-0.147537	0.268616
Br135	Br	-0.000083	-0.080619	-0.259837
Br136	Br	0.499917	0.419381	0.240163
Br137	Br	-0.000108	-1.054754	0.525250
Br138	Br	0.499892	-0.554754	1.025250
Br139	Br	-0.000108	-0.521071	0.058941
Br140	Br	0.499892	-0.021071	0.558941
H141	H	-0.000074	-0.773078	0.111198
H142	H	0.499926	-0.273078	0.611198
H143	H	-0.000118	-0.140225	0.027517
H144	H	0.499882	0.359775	0.527517
H145	H	-0.000116	-0.283434	0.025228
H146	H	0.499884	0.216566	0.525228
H147	H	-0.000087	-0.680748	0.018868
H148	H	0.499913	-0.180748	0.518868
H149	H	-0.000068	-0.764429	0.651721
H150	H	0.499932	-0.264429	1.151721
H151	H	-0.000122	-1.023330	0.144409
H152	H	0.499878	-0.523330	0.644409
H153	H	-0.813568	-0.800362	-0.195430
H154	H	-0.313568	-0.300362	0.304570
H155	H	-0.000102	-1.014680	0.684934
H156	H	0.499898	-0.514680	1.184934
H157	H	-0.000062	-0.766718	0.508512
H158	H	0.499938	-0.266718	1.008512
H159	H	-0.000067	-0.770792	0.254420
H160	H	0.499933	-0.270792	0.754420
Br161	Br	-0.351899	-1.015415	0.019533
Br162	Br	0.148101	-0.515415	0.519533
Br163	Br	-0.165100	-0.772303	-0.223386
Br164	Br	0.334900	-0.272303	0.276614
Br165	Br	-0.351894	-0.772327	-0.223393
Br166	Br	0.148106	-0.272327	0.276607
Br167	Br	-0.835081	-1.015447	0.019531
Br168	Br	-0.335081	-0.515447	0.519531
