data_functionalizedCrystal
_audit_creation_method	'MofGen! by Chris Wilmer'
_symmetry_space_group_name_H-M	'P1'
_symmetry_Int_Tables_number	1
_symmetry_cell_setting	triclinic
loop_
_symmetry_equiv_pos_as_xyz
  x,y,z
_cell_length_a	19.805407
_cell_length_b	19.805404
_cell_length_c	19.805399
_cell_angle_alpha	90.026554
_cell_angle_beta	90.016886
_cell_angle_gamma	90.030762
loop_
_atom_site_label
_atom_site_type_symbol
_atom_site_fract_x
_atom_site_fract_y
_atom_site_fract_z
Zn1	Zn	-1.034697	0.269469	-0.382731
Zn2	Zn	-1.034609	0.382661	-0.269548
Zn3	Zn	-0.921517	0.269491	-0.269556
Zn4	Zn	-0.921467	0.382622	-0.382694
O5	O	-0.978073	0.326061	-0.326132
O6	O	-1.129402	0.284492	-0.367729
O7	O	-1.019591	0.367674	-0.174832
O8	O	-0.936589	0.174771	-0.284587
O9	O	-1.129337	0.367653	-0.284574
O10	O	-1.019742	0.174756	-0.367737
O11	O	-0.936503	0.284528	-0.174838
O12	O	-0.826794	0.284491	-0.284552
O13	O	-0.936503	0.367587	-0.477416
O14	O	-0.826757	0.367608	-0.367674
O15	O	-1.019693	0.284454	-0.477443
O16	O	-1.019542	0.477372	-0.284538
O17	O	-0.936417	0.477344	-0.367667
C18	C	-0.977983	0.501917	-0.326112
C19	C	-0.978007	0.577149	-0.326126
C20	C	-0.802217	0.326048	-0.326110
C21	C	-0.726985	0.326059	-0.326117
C22	C	-0.978102	0.326014	-0.502675
C23	C	-0.978115	0.325994	-0.577907
C24	C	-1.154615	0.326074	-0.326155
C25	C	-1.229847	0.326080	-0.326164
C26	C	-0.691639	0.369403	-0.369329
C27	C	-0.620950	0.369404	-0.369338
C28	C	-0.585609	0.326064	-0.326132
C29	C	-0.620960	0.282715	-0.282918
C30	C	-0.691647	0.282711	-0.282913
C31	C	-0.335886	0.282730	-0.282941
C32	C	-0.265194	0.282739	-0.282948
C33	C	-0.265190	0.369423	-0.369366
C34	C	-0.335877	0.369419	-0.369361
C35	C	-0.371222	0.326068	-0.326150
C36	C	-0.447870	0.326066	-0.326141
C37	C	-0.508962	0.326068	-0.326137
C38	C	-1.021507	1.038932	-0.282966
C39	C	-1.021477	0.968244	-0.282951
C40	C	-0.978149	0.932910	-0.326189
C41	C	-0.934843	0.968269	-0.369441
C42	C	-0.934871	1.038956	-0.369452
C43	C	-0.934731	0.683196	-0.369394
C44	C	-0.934709	0.612504	-0.369380
C45	C	-1.021338	0.612483	-0.282892
C46	C	-1.021365	0.683170	-0.282904
C47	C	-0.978057	0.718523	-0.326153
C48	C	-0.978090	0.795171	-0.326168
C49	C	-0.978119	0.856263	-0.326177
C50	C	-0.978176	1.149518	-0.326176
C51	C	-0.978207	1.074286	-0.326216
C52	C	-0.934863	0.282696	-0.613254
C53	C	-0.934873	0.282683	-0.683942
C54	C	-0.978137	0.325964	-0.719283
C55	C	-1.021391	0.369267	-0.683931
C56	C	-1.021378	0.369283	-0.613244
C57	C	-1.021445	0.369204	-0.969004
C58	C	-1.021456	0.369183	-1.039697
C59	C	-0.934940	0.282603	-1.039703
C60	C	-0.934926	0.282619	-0.969016
C61	C	-0.978177	0.325924	-0.933670
C62	C	-0.978165	0.325939	-0.857022
C63	C	-0.978153	0.325947	-0.795930
C64	C	-0.978082	0.326059	-0.150276
C65	C	-0.978200	0.325888	-0.075045
H66	H	-0.592175	0.404700	-0.404525
N67	N	-1.068044	0.574355	-0.236235
H68	H	-1.116402	0.586606	-0.246800
H69	H	-1.061396	0.524226	-0.242804
H70	H	-0.364655	0.247436	-0.247751
H71	H	-1.056650	0.711935	-0.247697
H72	H	-1.056794	1.067695	-0.247761
N73	N	-1.068188	0.930111	-0.236311
H74	H	-1.095646	0.963220	-0.208928
H75	H	-1.099476	0.900740	-0.263898
H76	H	-0.899650	0.247428	-0.712718
N77	N	-0.888167	1.077086	-0.416104
H78	H	-0.915662	1.106371	-0.447501
H79	H	-0.856838	1.106419	-0.388523
H80	H	-0.899698	0.247373	-0.940245
H81	H	-0.899636	0.247447	-0.584485
N82	N	-0.888115	0.930161	-0.416080
H83	H	-0.860688	0.963286	-0.443480
H84	H	-0.856799	0.900877	-0.388496
N85	N	-0.729751	0.416154	-0.415928
H86	H	-0.717474	0.405705	-0.464308
H87	H	-0.779883	0.409557	-0.409310
H88	H	-0.592179	0.247424	-0.247742
N89	N	-0.888276	0.235906	-1.077825
H90	H	-0.894841	0.242466	-1.127968
H91	H	-0.839931	0.246448	-1.065453
H92	H	-0.899423	0.583737	-0.404591
H93	H	-1.056614	0.404511	-0.712711
H94	H	-0.364649	0.404713	-0.404541
H95	H	-1.056603	0.404536	-0.584465
H96	H	-0.899462	0.711972	-0.404604
H97	H	-0.236404	0.404719	-0.404553
H98	H	-1.056689	0.404431	-1.068469
H99	H	-0.720424	0.247412	-0.247729
H100	H	-1.056655	0.404473	-0.940235
H101	H	-0.236421	0.247442	-0.247765
