data_functionalizedCrystal
_audit_creation_method	'MofGen! by Chris Wilmer'
_symmetry_space_group_name_H-M	'P1'
_symmetry_Int_Tables_number	1
_symmetry_cell_setting	triclinic
loop_
_symmetry_equiv_pos_as_xyz
  x,y,z
_cell_length_a	10.686285
_cell_length_b	10.685969
_cell_length_c	10.686551
_cell_angle_alpha	89.648066
_cell_angle_beta	99.084519
_cell_angle_gamma	98.371884
loop_
_atom_site_label
_atom_site_type_symbol
_atom_site_fract_x
_atom_site_fract_y
_atom_site_fract_z
Zn1	Zn	-0.617473	-2.015779	0.511373
Zn2	Zn	-0.284140	-1.682446	0.844706
Zn3	Zn	0.049193	-1.349113	1.178040
Zn4	Zn	-0.846045	-2.015677	0.282879
Zn5	Zn	-0.512711	-1.682344	0.616212
Zn6	Zn	-0.179378	-1.349011	0.949546
Zn7	Zn	-0.615066	-1.789736	0.317933
Zn8	Zn	-0.281732	-1.456403	0.651266
Zn9	Zn	0.051601	-1.123070	0.984599
Zn10	Zn	-0.813405	-1.819812	0.511371
Zn11	Zn	-0.480072	-1.486478	0.844704
Zn12	Zn	-0.146739	-1.153145	1.178038
O13	O	-0.722997	-1.910251	0.405889
O14	O	-0.389664	-1.576918	0.739222
O15	O	-0.056331	-1.243584	1.072556
O16	O	-0.662461	-2.192336	0.466394
O17	O	-0.329128	-1.859003	0.799727
O18	O	0.004205	-1.525669	1.133060
O19	O	-0.828057	-1.973076	0.110949
O20	O	-0.494724	-1.639743	0.444282
O21	O	-0.161390	-1.306410	0.777616
O22	O	-0.436721	-1.807177	0.358264
O23	O	-0.103388	-1.473844	0.691597
O24	O	0.229945	-1.140511	1.024931
O25	O	-0.830392	-2.192261	0.298520
O26	O	-0.497058	-1.858928	0.631853
O27	O	-0.163725	-1.525594	0.965187
O28	O	-0.438490	-1.973250	0.500384
O29	O	-0.105157	-1.639917	0.833717
O30	O	0.228177	-1.306584	1.167050
O31	O	-0.658358	-1.807078	0.136703
O32	O	-0.325024	-1.473745	0.470036
O33	O	0.008309	-1.140412	0.803369
O34	O	-0.626708	-1.617156	0.358262
O35	O	-0.293375	-1.283822	0.691595
O36	O	0.039958	-0.950489	1.024929
O37	O	-0.774762	-1.858437	0.687951
O38	O	-0.441429	-1.525103	1.021285
O39	O	-0.108096	-1.191770	1.354618
O40	O	-0.772428	-1.639252	0.500380
O41	O	-0.439094	-1.305919	0.833714
O42	O	-0.105761	-0.972585	1.167047
O43	O	-0.630812	-2.002413	0.687953
O44	O	-0.297479	-1.669080	1.021286
O45	O	0.035855	-1.335746	1.354619
O46	O	-1.020379	-2.002239	0.298518
O47	O	-0.687045	-1.668906	0.631851
O48	O	-0.353712	-1.335573	0.965185
O49	O	-0.996399	-1.858338	0.466390
O50	O	-0.663065	-1.525004	0.799723
O51	O	-0.329732	-1.191671	1.133057
C52	C	-0.695766	-1.582421	0.433125
C53	C	-0.362432	-1.249088	0.766459
C54	C	-0.029099	-0.915755	1.099792
C55	C	-0.684145	-1.442179	0.444805
C56	C	-0.350811	-1.108845	0.778138
C57	C	-0.017478	-0.775512	1.111471
C58	C	-1.054715	-1.933577	0.378675
C59	C	-0.721382	-1.600244	0.712008
C60	C	-0.388048	-1.266911	1.045341
C61	C	-1.196632	-1.943675	0.367065
C62	C	-0.863299	-1.610341	0.700398
C63	C	-0.529965	-1.277008	1.033732
C64	C	-0.389985	-1.886870	0.433234
C65	C	-0.056652	-1.553537	0.766567
C66	C	0.276682	-1.220204	1.099901
C67	C	-0.248075	-1.876907	0.444887
C68	C	0.085259	-1.543573	0.778220
C69	C	0.418592	-1.210240	1.111554
C70	C	-0.699415	-1.933791	0.735017
C71	C	-0.366082	-1.600458	1.068351
C72	C	-0.032748	-1.267124	1.401684
C73	C	-0.689365	-1.943822	0.875272
C74	C	-0.356032	-1.610489	1.208606
C75	C	-0.022699	-1.277156	1.541939
C76	C	-0.750325	-1.239359	0.378534
C77	C	-0.416991	-0.906026	0.711867
C78	C	-0.083658	-0.572693	1.045200
C79	C	-0.761941	-1.379601	0.366842
C80	C	-0.428608	-1.046267	0.700175
C81	C	-0.095274	-0.712934	1.033509
C82	C	-0.746402	-1.886869	0.078042
C83	C	-0.413068	-1.553536	0.411376
C84	C	-0.079735	-1.220202	0.744709
C85	C	-0.756112	-1.877057	-0.062203
C86	C	-0.422778	-1.543723	0.271131
C87	C	-0.089445	-1.210390	0.604464
H88	H	-0.608651	-1.388465	0.520494
H89	H	-0.275317	-1.055132	0.853827
H90	H	0.058016	-0.721798	1.187161
Br91	Br	-0.581311	-2.051909	0.964889
Br92	Br	-0.247978	-1.718576	1.298222
Br93	Br	0.085356	-1.385242	1.631555
H94	H	-0.820948	-1.812225	0.884028
H95	H	-0.487615	-1.478892	1.217361
H96	H	-0.154281	-1.145558	1.550694
H97	H	-0.837450	-1.433322	0.291158
H98	H	-0.504117	-1.099989	0.624491
H99	H	-0.170784	-0.766656	0.957825
Br100	Br	-1.140527	-1.768751	0.570745
Br101	Br	-0.807194	-1.435418	0.904079
Br102	Br	-0.473861	-1.102084	1.237412
Br103	Br	-1.304184	-2.051813	0.241182
Br104	Br	-0.970851	-1.718479	0.574515
Br105	Br	-0.637518	-1.385146	0.907848
