data_functionalizedCrystal
_audit_creation_method	'MofGen! by Chris Wilmer'
_symmetry_space_group_name_H-M	'P1'
_symmetry_Int_Tables_number	1
_symmetry_cell_setting	triclinic
loop_
_symmetry_equiv_pos_as_xyz
  x,y,z
_cell_length_a	10.685661
_cell_length_b	10.685194
_cell_length_c	21.395355
_cell_angle_alpha	85.614463
_cell_angle_beta	85.613059
_cell_angle_gamma	89.666250
loop_
_atom_site_label
_atom_site_type_symbol
_atom_site_fract_x
_atom_site_fract_y
_atom_site_fract_z
Zn1	Zn	1.879760	-0.646876	-0.401040
Zn2	Zn	1.863568	-0.856633	-0.287668
Zn3	Zn	1.669956	-0.630768	-0.288922
Zn4	Zn	1.653900	-0.840502	-0.385059
O5	O	1.766796	-0.743695	-0.340672
O6	O	2.053163	-0.688193	-0.392165
O7	O	1.837828	-0.826681	-0.200154
O8	O	1.711283	-0.457346	-0.311008
O9	O	2.041267	-0.842301	-0.308870
O10	O	1.865425	-0.469181	-0.393381
O11	O	1.695582	-0.660738	-0.201075
O12	O	1.492275	-0.645097	-0.295511
O13	O	1.683917	-0.814808	-0.474859
O14	O	1.480479	-0.799188	-0.366143
O15	O	1.849856	-0.672552	-0.486601
O16	O	1.822259	-1.030052	-0.293374
O17	O	1.668217	-1.018200	-0.364927
C18	C	1.440858	-0.718645	-0.329229
C19	C	1.301419	-0.707959	-0.324348
C20	C	1.741772	-1.069649	-0.327295
C21	C	1.731182	-1.209102	-0.321597
C22	C	2.094006	-0.768843	-0.352160
C23	C	2.233443	-0.779560	-0.357056
C24	C	1.766902	-0.743677	-0.504100
C25	C	1.766947	-0.743670	-0.573744
C26	C	1.791951	-0.416470	-0.354117
C27	C	1.802671	-0.277027	-0.359846
C28	C	1.853348	-0.669593	-0.612571
C29	C	1.853351	-0.669539	-0.678009
C30	C	1.766963	-0.743585	-0.704616
C31	C	1.680546	-0.817666	-0.665779
C32	C	1.680538	-0.817708	-0.600343
C33	C	1.748386	-0.855787	-0.803307
C34	C	1.748403	-0.855747	-0.868742
C35	C	1.766981	-0.743453	-0.906442
C36	C	1.785570	-0.631197	-0.878700
C37	C	1.785562	-0.631240	-0.813264
C38	C	1.766962	-0.743547	-0.775570
C39	C	1.853390	-0.669312	-1.016226
C40	C	1.853384	-0.669255	-1.081664
C41	C	1.680585	-0.817393	-1.069433
C42	C	1.680585	-0.817438	-1.003996
C43	C	1.766994	-0.743400	-0.977396
C44	C	1.766769	-0.743627	-0.177886
C45	C	1.766994	-0.743300	-0.108266
H46	H	1.281923	-0.849028	-0.388798
C47	C	1.235931	-0.614094	-0.281466
C48	C	1.264764	-0.472844	-0.293167
C49	C	1.199277	-0.378981	-0.250287
C50	C	1.104956	-0.426369	-0.195706
C51	C	1.076118	-0.567627	-0.184002
C52	C	1.141605	-0.661490	-0.226883
H53	H	1.334590	-0.437758	-0.333574
H54	H	1.220625	-0.274413	-0.258951
H55	H	1.056478	-0.356887	-0.163963
H56	H	1.006292	-0.602713	-0.143596
H57	H	1.120257	-0.766058	-0.218219
C58	C	1.896313	-1.211472	-0.409978
C59	C	1.907142	-1.067337	-0.415801
C60	C	2.000785	-1.001773	-0.465934
C61	C	2.083599	-1.080345	-0.510243
C62	C	2.072773	-1.224488	-0.504421
C63	C	1.979129	-1.290052	-0.454289
H64	H	1.845836	-1.009166	-0.383000
H65	H	2.008799	-0.895068	-0.470244
H66	H	2.152920	-1.031811	-0.547354
H67	H	2.134079	-1.282659	-0.537223
H68	H	1.971115	-1.396757	-0.449979
H69	H	1.732923	-0.947180	-0.772606
H70	H	1.661859	-1.257641	-0.284490
H71	H	1.610235	-0.877669	-1.091095
C72	C	1.948388	-0.588139	-0.583315
C73	C	1.949114	-0.444729	-0.597798
C74	C	2.044151	-0.363271	-0.568542
C75	C	2.138463	-0.425224	-0.524802
C76	C	2.137740	-0.568642	-0.510316
C77	C	2.042703	-0.650100	-0.539573
H78	H	1.879295	-0.398861	-0.630179
H79	H	2.044686	-0.257103	-0.579265
H80	H	2.208816	-0.364924	-0.503144
H81	H	2.207559	-0.614510	-0.477935
H82	H	2.042168	-0.756268	-0.528850
H83	H	1.923707	-0.609210	-0.709629
H84	H	1.800694	-0.539837	-0.790679
C85	C	1.948423	-0.587861	-0.986959
C86	C	1.949143	-0.444448	-1.001431
C87	C	2.044174	-0.362997	-0.972166
C88	C	2.138485	-0.424959	-0.928429
C89	C	2.137769	-0.568380	-0.913954
C90	C	2.042737	-0.649831	-0.943220
H91	H	1.879325	-0.398573	-1.033810
H92	H	2.044704	-0.256827	-0.982881
H93	H	2.208833	-0.364664	-0.906765
H94	H	2.207586	-0.614255	-0.881575
H95	H	2.042207	-0.756001	-0.932504
C96	C	1.585527	-0.899127	-0.695043
C97	C	1.490488	-0.980621	-0.652329
C98	C	1.395463	-1.062084	-0.681592
C99	C	1.395478	-1.062053	-0.753569
C100	C	1.490521	-0.980557	-0.796287
C101	C	1.585545	-0.899094	-0.767024
H102	H	1.490474	-0.980646	-0.599044
H103	H	1.325107	-1.122413	-0.649969
H104	H	1.325135	-1.122357	-0.775231
H105	H	1.490535	-0.980532	-0.849572
H106	H	1.655902	-0.838765	-0.798647
C107	C	1.727957	-0.979223	-0.899255
C108	C	1.727973	-0.979185	-0.971232
C109	C	1.707526	-1.102664	-1.001744
C110	C	1.687064	-1.226181	-0.960278
C111	C	1.687047	-1.226224	-0.888297
C112	C	1.707494	-1.102745	-0.857785
H113	H	1.743121	-0.887746	-1.001932
H114	H	1.707539	-1.102632	-1.055029
H115	H	1.671928	-1.317588	-0.982864
H116	H	1.671899	-1.317663	-0.857598
H117	H	1.707481	-1.102777	-0.804500
C118	C	1.585494	-0.899205	-0.557630
C119	C	1.443669	-0.877998	-0.562018
C120	C	1.348626	-0.959497	-0.519304
C121	C	1.395406	-1.062203	-0.472201
C122	C	1.537238	-1.083415	-0.467811
C123	C	1.632282	-1.001915	-0.510525
H124	H	1.409033	-0.801965	-0.596888
H125	H	1.243632	-0.943795	-0.522554
H126	H	1.325049	-1.122534	-0.440582
H127	H	1.571874	-1.159448	-0.432941
H128	H	1.737276	-1.017618	-0.507275
H129	H	1.800701	-0.539757	-0.909395
H130	H	1.923740	-0.608925	-1.113278
H131	H	1.610235	-0.877767	-0.972381
