data_functionalizedCrystal
_audit_creation_method	'MofGen! by Chris Wilmer'
_symmetry_space_group_name_H-M	'P1'
_symmetry_Int_Tables_number	1
_symmetry_cell_setting	triclinic
loop_
_symmetry_equiv_pos_as_xyz
  x,y,z
_cell_length_a	11.169417
_cell_length_b	18.101397
_cell_length_c	11.169409
_cell_angle_alpha	89.959136
_cell_angle_beta	90.019824
_cell_angle_gamma	89.975395
loop_
_atom_site_label
_atom_site_type_symbol
_atom_site_fract_x
_atom_site_fract_y
_atom_site_fract_z
Zn1	Zn	1.834851	0.294752	0.678472
Zn2	Zn	1.834693	0.418619	0.477759
Zn3	Zn	1.634137	0.294797	0.477806
Zn4	Zn	1.634097	0.418558	0.678404
O5	O	1.734444	0.356682	0.578110
O6	O	2.002779	0.311190	0.651855
O7	O	1.808039	0.402238	0.309815
O8	O	1.660844	0.191159	0.504473
O9	O	2.002664	0.402194	0.504392
O10	O	1.808308	0.191125	0.651901
O11	O	1.660691	0.311267	0.309850
O12	O	1.466182	0.311208	0.504407
O13	O	1.660777	0.402091	0.846362
O14	O	1.466153	0.402135	0.651785
O15	O	1.808270	0.311131	0.846412
O16	O	1.808001	0.522244	0.504326
O17	O	1.660624	0.522199	0.651739
C18	C	1.422620	0.356670	0.578095
C19	C	1.289220	0.356683	0.578116
C20	C	1.734324	0.549092	0.578046
C21	C	1.734382	0.631406	0.578059
C22	C	1.734438	0.782115	0.578085
C23	C	1.827252	0.813465	0.485423
C24	C	1.827011	0.899084	0.485073
C25	C	1.734495	0.930497	0.578109
C26	C	1.607923	0.899485	0.544075
C27	C	1.608427	0.813841	0.543388
C28	C	1.767103	0.813596	0.705018
C29	C	1.769927	0.899246	0.704356
C30	C	1.734520	1.014357	0.578125
C31	C	1.734405	0.698255	0.578066
C32	C	2.047487	0.356693	0.578126
C33	C	2.180887	0.356699	0.578133
C34	C	1.734537	0.356599	0.891153
C35	C	1.734576	0.356564	1.024553
C36	C	1.734570	1.163520	0.578174
C37	C	1.734551	1.081206	0.578134
C38	C	1.734422	0.356710	0.266285
C39	C	1.734615	0.356537	0.132886
H40	H	1.921375	0.792823	0.506438
C41	C	1.511810	0.785822	0.630621
H42	H	1.472418	0.826785	0.666313
H43	H	1.548262	0.756615	0.691209
H44	H	1.455127	0.756793	0.588143
C45	C	1.889648	0.784350	0.746927
H46	H	1.922039	0.752663	0.687395
H47	H	1.880060	0.757637	0.819527
H48	H	1.942460	0.824711	0.759684
C49	C	1.569949	0.928540	0.420129
H50	H	1.493232	0.909468	0.400331
H51	H	1.626524	0.913111	0.361786
H52	H	1.566645	0.980973	0.421812
H53	H	1.580787	0.793928	0.450611
C54	C	1.675803	0.786202	0.798289
H55	H	1.696005	0.805410	0.874804
H56	H	1.677133	0.733756	0.801067
H57	H	1.597938	0.802549	0.776536
C58	C	1.511972	0.926971	0.632451
H59	H	1.548338	0.957681	0.691025
H60	H	1.475465	0.885840	0.670631
H61	H	1.452925	0.954362	0.590216
H62	H	1.805380	0.919634	0.391028
C63	C	1.895522	0.926906	0.739292
H64	H	1.926271	0.957344	0.677183
H65	H	1.947303	0.885891	0.751039
H66	H	1.890398	0.954649	0.811277
H67	H	1.707301	0.920625	0.777075
H68	H	1.805872	0.792001	0.391907
C69	C	1.953784	0.927410	0.513791
H70	H	2.005898	0.886574	0.525771
H71	H	1.951474	0.956629	0.584366
H72	H	1.982206	0.956493	0.448930
