data_functionalizedCrystal
_audit_creation_method	'MofGen! by Chris Wilmer'
_symmetry_space_group_name_H-M	'P1'
_symmetry_Int_Tables_number	1
_symmetry_cell_setting	triclinic
loop_
_symmetry_equiv_pos_as_xyz
  x,y,z
_cell_length_a	17.000371
_cell_length_b	16.109301
_cell_length_c	14.586319
_cell_angle_alpha	89.994786
_cell_angle_beta	89.996083
_cell_angle_gamma	79.530364
loop_
_atom_site_label
_atom_site_type_symbol
_atom_site_fract_x
_atom_site_fract_y
_atom_site_fract_z
O1	O	1.056094	0.029958	-0.076245
O2	O	0.824353	0.060134	-0.076247
O3	O	0.946590	-0.076449	-0.076237
O4	O	0.933857	0.166540	-0.076255
O5	O	0.946581	-0.076450	0.076244
O6	O	0.824345	0.060132	0.076234
O7	O	1.056085	0.029957	0.076236
Cu8	Cu	0.940214	0.045045	0.090158
Cu9	Cu	0.940224	0.045046	-0.090169
O10	O	0.933849	0.166539	0.076225
C11	C	0.794695	0.061754	-0.000007
C12	C	0.706335	0.066573	-0.000007
C13	C	0.946070	-0.107387	0.000004
C14	C	0.944523	-0.199569	0.000006
C15	C	1.013461	-0.426862	-0.000008
C16	C	1.012002	-0.513476	-0.000016
C17	C	0.866972	-0.483040	-0.000013
C18	C	0.868432	-0.396428	-0.000012
C19	C	0.941679	-0.368341	-0.000005
C20	C	0.938760	-0.541568	-0.000014
C21	C	0.937177	-0.635479	-0.000022
C22	C	0.943262	-0.274425	0.000001
C23	C	0.674329	-0.007593	0.000000
C24	C	0.591305	-0.003060	-0.000007
C25	C	0.540288	0.075641	-0.000014
C26	C	0.572300	0.149813	-0.000024
C27	C	0.655322	0.145279	-0.000024
C28	C	0.289138	0.093155	-0.000022
C29	C	0.206110	0.097684	-0.000020
C30	C	0.225121	-0.055190	-0.000003
C31	C	0.308144	-0.059717	0.000003
C32	C	0.340148	0.014455	-0.000012
C33	C	0.455424	0.080277	-0.000019
C34	C	0.425011	0.009818	-0.000015
C35	C	1.085744	0.028337	-0.000006
C36	C	1.174104	0.023517	-0.000012
C37	C	0.934369	0.197477	-0.000017
C38	C	0.935915	0.289660	-0.000025
N39	N	0.940213	0.045043	0.216989
N40	N	0.940232	0.045041	-0.217000
C41	C	0.994357	-0.015418	0.452000
C42	C	0.994359	-0.015421	0.547982
C43	C	0.886082	0.105505	0.547982
C44	C	0.886076	0.105503	0.452002
C45	C	0.940219	0.045042	0.404014
C46	C	0.940226	0.045042	0.595975
C47	C	0.940228	0.045040	0.700042
C48	C	0.940216	0.045042	0.299940
H49	H	1.073103	-0.403998	-0.000004
C50	C	1.090962	-0.577845	-0.000014
H51	H	1.134790	-0.548710	-0.000002
H52	H	1.093413	-0.612261	-0.053187
H53	H	1.093402	-0.612269	0.053166
H54	H	0.807337	-0.505919	-0.000018
C55	C	0.364257	-0.146288	0.000012
H56	H	0.333303	-0.189811	0.000009
H57	H	0.397034	-0.151231	0.053187
H58	H	0.397042	-0.151236	-0.053167
H59	H	0.715861	-0.071680	0.000011
C60	C	0.189914	-0.136771	0.000000
H61	H	0.133162	-0.122803	-0.000010
H62	H	0.207421	-0.168925	0.053173
H63	H	0.207429	-0.168914	-0.053180
H64	H	0.413877	0.144355	-0.000024
H65	H	0.809975	-0.348777	-0.000013
H66	H	0.842002	0.154732	0.587064
C67	C	0.149992	0.184259	-0.000043
H68	H	0.180943	0.227784	-0.000063
H69	H	0.117205	0.189212	0.053129
H70	H	0.117217	0.189192	-0.053225
H71	H	0.565250	-0.063454	-0.000001
C72	C	0.324332	0.174741	-0.000021
H73	H	0.282056	0.222259	-0.000012
H74	H	0.356329	0.176160	-0.053192
H75	H	0.356319	0.176146	0.053162
C76	C	0.516184	0.236382	-0.000030
H77	H	0.462154	0.228462	-0.000019
H78	H	0.525886	0.267048	-0.053205
H79	H	0.525886	0.267041	0.053148
H80	H	0.681380	0.205673	-0.000026
C81	C	1.053915	-0.081924	0.600763
H82	H	1.086161	-0.117926	0.558433
H83	H	1.025299	-0.114460	0.638213
H84	H	1.087042	-0.054411	0.638195
C85	C	0.481122	-0.076749	-0.000011
H86	H	0.450174	-0.120276	-0.000011
H87	H	0.513905	-0.081692	0.053161
H88	H	0.513903	-0.081691	-0.053193
C89	C	1.053903	-0.081929	0.399216
H90	H	1.086141	-0.117942	0.441545
H91	H	1.087027	-0.054429	0.361763
H92	H	1.025272	-0.114465	0.361786
C93	C	0.826523	0.172014	0.399214
H94	H	0.794287	0.208030	0.441539
H95	H	0.793399	0.144507	0.361780
H96	H	0.855149	0.204548	0.361764
