data_functionalizedCrystal
_audit_creation_method	'MofGen! by Chris Wilmer'
_symmetry_space_group_name_H-M	'P1'
_symmetry_Int_Tables_number	1
_symmetry_cell_setting	triclinic
loop_
_symmetry_equiv_pos_as_xyz
  x,y,z
_cell_length_a	9.065218
_cell_length_b	12.837942
_cell_length_c	8.140239
_cell_angle_alpha	89.996939
_cell_angle_beta	89.997198
_cell_angle_gamma	89.922413
loop_
_atom_site_label
_atom_site_type_symbol
_atom_site_fract_x
_atom_site_fract_y
_atom_site_fract_z
O1	O	1.978903	0.152196	-0.136617
O2	O	1.551136	0.164680	-0.136619
O3	O	1.755534	0.007446	-0.136608
O4	O	1.774505	0.309430	-0.136628
O5	O	1.755521	0.007444	0.136619
O6	O	1.551123	0.164678	0.136608
O7	O	1.978890	0.152194	0.136610
Zn8	Zn	1.765005	0.158436	0.179990
Zn9	Zn	1.765021	0.158439	-0.179999
O10	O	1.774492	0.309428	0.136599
C11	C	1.495997	0.163479	-0.000006
C12	C	1.331718	0.159892	-0.000007
C13	C	1.749119	-0.031235	0.000004
C14	C	1.730006	-0.146492	0.000002
C15	C	1.959783	-0.385293	-0.000031
C16	C	1.941831	-0.493587	-0.000034
C17	C	1.676152	-0.471377	-0.000019
C18	C	1.694104	-0.363083	-0.000016
C19	C	1.835924	-0.320045	-0.000020
C20	C	1.853874	-0.211748	-0.000005
C21	C	1.588196	-0.189540	-0.000001
C22	C	1.570245	-0.297835	-0.000004
C23	C	2.034029	0.153395	-0.000007
C24	C	2.198308	0.156983	-0.000017
C25	C	1.780907	0.348110	-0.000017
C26	C	1.800020	0.463366	-0.000025
N27	N	1.765004	0.158434	0.425672
N28	N	1.765033	0.158433	-0.425681
H29	H	2.075258	-0.350251	-0.000019
C30	C	1.453760	-0.118649	-0.000332
C31	C	1.456280	-0.055836	-0.140915
C32	C	1.332454	0.009470	-0.141280
H33	H	1.455109	-0.075852	0.094841
H34	H	1.366696	-0.159761	-0.000418
H35	H	1.543320	-0.014728	-0.140813
H36	H	1.454909	-0.098605	-0.236111
H37	H	1.245391	-0.031642	-0.141367
H38	H	1.333814	0.052260	-0.046101
H39	H	1.334140	0.052089	-0.236671
H40	H	1.969351	-0.176709	-0.000002
C41	C	2.076492	-0.564255	0.000041
C42	C	2.204526	-0.503380	0.000077
C43	C	2.328608	-0.568443	0.000165
H44	H	2.075219	-0.606980	-0.095214
H45	H	2.075096	-0.606951	0.095359
H46	H	2.205922	-0.460702	-0.095231
H47	H	2.205848	-0.460657	0.095325
H48	H	2.327212	-0.611139	0.095483
H49	H	2.327320	-0.611164	-0.095092
H50	H	2.415493	-0.527149	0.000205
H51	H	1.560688	-0.506438	-0.000033
H52	H	1.454779	-0.332891	-0.000007
