data_functionalizedCrystal
_audit_creation_method	'MofGen! by Chris Wilmer'
_symmetry_space_group_name_H-M	'P1'
_symmetry_Int_Tables_number	1
_symmetry_cell_setting	triclinic
loop_
_symmetry_equiv_pos_as_xyz
  x,y,z
_cell_length_a	17.699083
_cell_length_b	16.176319
_cell_length_c	17.699092
_cell_angle_alpha	90.001763
_cell_angle_beta	83.284691
_cell_angle_gamma	90.004302
loop_
_atom_site_label
_atom_site_type_symbol
_atom_site_fract_x
_atom_site_fract_y
_atom_site_fract_z
O1	O	1.004080	0.068711	0.095709
O2	O	1.337414	0.402044	0.429043
O3	O	1.670747	0.735378	0.762376
O4	O	0.783702	0.068719	0.108162
O5	O	1.117036	0.402053	0.441495
O6	O	1.450369	0.735386	0.774828
O7	O	0.900114	0.068713	-0.008253
O8	O	1.233448	0.402046	0.325080
O9	O	1.566781	0.735380	0.658413
O10	O	0.887668	0.068717	0.212124
O11	O	1.221002	0.402051	0.545457
O12	O	1.554335	0.735384	0.878791
O13	O	0.900101	-0.068780	-0.008254
O14	O	1.233434	0.264553	0.325080
O15	O	1.566767	0.597887	0.658413
O16	O	0.783689	-0.068774	0.108161
O17	O	1.117022	0.264560	0.441495
O18	O	1.450355	0.597893	0.774828
O19	O	1.004067	-0.068782	0.095709
O20	O	1.337400	0.264551	0.429042
O21	O	1.670733	0.597884	0.762376
Cu22	Cu	0.893877	-0.081332	0.101935
Cu23	Cu	1.227210	0.252001	0.435268
Cu24	Cu	1.560543	0.585334	0.768602
Cu25	Cu	0.893893	0.081269	0.101935
Cu26	Cu	1.227226	0.414603	0.435269
Cu27	Cu	1.560559	0.747936	0.768602
O28	O	0.887655	-0.068776	0.212124
O29	O	1.220988	0.264557	0.545457
O30	O	1.554321	0.597891	0.878791
C31	C	0.755499	-0.000026	0.107715
C32	C	1.088832	0.333307	0.441049
C33	C	1.422165	0.666641	0.774382
C34	C	0.671480	-0.000023	0.106377
C35	C	1.004814	0.333311	0.439710
C36	C	1.338147	0.666644	0.773043
N37	N	0.893871	-0.195697	0.101934
N38	N	1.227204	0.137636	0.435268
N39	N	1.560537	0.470969	0.768601
C40	C	0.899661	-0.000032	-0.036450
C41	C	1.232994	0.333301	0.296883
C42	C	1.566327	0.666634	0.630216
C43	C	0.898319	-0.000028	-0.120468
C44	C	1.231653	0.333305	0.212865
C45	C	1.564986	0.666638	0.546199
C46	C	1.032271	-0.000035	0.096155
C47	C	1.365604	0.333298	0.429489
C48	C	1.698937	0.666632	0.762822
C49	C	1.116289	-0.000033	0.097494
C50	C	1.449622	0.333301	0.430827
C51	C	1.782955	0.666634	0.764160
C52	C	1.164908	-0.000031	0.029161
C53	C	1.498241	0.333302	0.362494
C54	C	1.831574	0.666636	0.695827
C55	C	1.243851	-0.000034	0.030423
C56	C	1.577184	0.333300	0.363756
C57	C	1.910518	0.666633	0.697090
C58	C	1.274174	-0.000032	0.100019
C59	C	1.607507	0.333301	0.433352
C60	C	1.940841	0.666635	0.766686
C61	C	1.225549	-0.000036	0.168358
C62	C	1.558882	0.333297	0.501691
C63	C	1.892215	0.666630	0.835024
C64	C	1.146607	-0.000039	0.167094
C65	C	1.479940	0.333294	0.500428
C66	C	1.813274	0.666627	0.833761
C67	C	1.543912	-0.000024	0.173453
C68	C	1.877245	0.333309	0.506786
C69	C	2.210579	0.666642	0.840119
C70	C	1.622860	-0.000019	0.174711
C71	C	1.956193	0.333315	0.508044
C72	C	2.289527	0.666648	0.841377
C73	C	1.641156	-0.000019	0.036781
C74	C	1.974489	0.333315	0.370115
C75	C	2.307823	0.666648	0.703448
C76	C	1.562214	-0.000022	0.035518
C77	C	1.895548	0.333312	0.368852
C78	C	2.228881	0.666645	0.702185
C79	C	1.513596	-0.000030	0.103856
C80	C	1.846929	0.333303	0.437190
C81	C	2.180263	0.666636	0.770523
C82	C	1.427997	-0.000029	0.102487
C83	C	1.761330	0.333304	0.435820
C84	C	2.094663	0.666638	0.769153
C85	C	1.359772	-0.000028	0.101389
C86	C	1.693105	0.333306	0.434723
C87	C	2.026438	0.666639	0.768056
C88	C	0.939687	-0.238959	0.147783
C89	C	1.273020	0.094374	0.481116
C90	C	1.606354	0.427708	0.814449
C91	C	0.939695	-0.325506	0.147780
C92	C	1.273028	0.007827	0.481113
C93	C	1.606362	0.341161	0.814447
C94	C	0.893882	-0.368790	0.101932
C95	C	1.227216	-0.035457	0.435265
C96	C	1.560549	0.297877	0.768599
C97	C	0.848064	-0.325522	0.056078
C98	C	1.181398	0.007811	0.389412
C99	C	1.514731	0.341144	0.722745
C100	C	0.848061	-0.238977	0.056078
C101	C	1.181394	0.094356	0.389411
C102	C	1.514727	0.427690	0.722744
C103	C	0.848078	-0.674551	0.056079
C104	C	1.181412	-0.341217	0.389413
C105	C	1.514745	-0.007884	0.722746
C106	C	0.848084	-0.761102	0.056085
C107	C	1.181417	-0.427769	0.389419
C108	C	1.514750	-0.094436	0.722752
C109	C	0.939713	-0.761080	0.147782
C110	C	1.273046	-0.427746	0.481115
C111	C	1.606379	-0.094413	0.814448
C112	C	0.939709	-0.674534	0.147781
C113	C	1.273042	-0.341201	0.481114
C114	C	1.606376	-0.007868	0.814448
C115	C	0.893894	-0.631274	0.101924
C116	C	1.227228	-0.297941	0.435258
C117	C	1.560561	0.035392	0.768591
C118	C	0.893887	-0.537430	0.101927
C119	C	1.227220	-0.204097	0.435260
C120	C	1.560554	0.129237	0.768594
C121	C	0.893885	-0.462633	0.101933
C122	C	1.227218	-0.129299	0.435266
C123	C	1.560552	0.204034	0.768600
N124	N	0.893905	0.195635	0.101930
N125	N	1.227238	0.528968	0.435263
N126	N	1.560571	0.862301	0.768597
C127	C	0.897699	0.074920	-0.159935
C128	C	1.231032	0.408253	0.173398
C129	C	1.564365	0.741587	0.506731
C130	C	0.896434	0.074921	-0.238878
C131	C	1.229767	0.408254	0.094455
C132	C	1.563100	0.741588	0.427788
C133	C	0.895795	-0.000027	-0.278353
C134	C	1.229128	0.333306	0.054980
C135	C	1.562462	0.666639	0.388313
C136	C	0.896414	-0.074981	-0.238880
C137	C	1.229747	0.258352	0.094453
C138	C	1.563080	0.591685	0.427786
C139	C	0.897673	-0.074982	-0.159938
C140	C	1.231007	0.258352	0.173395
C141	C	1.564340	0.591685	0.506729
C142	C	0.891333	-0.074982	-0.557245
C143	C	1.224667	0.258351	-0.223912
C144	C	1.558000	0.591684	0.109421
C145	C	0.890076	-0.074977	-0.636193
C146	C	1.223409	0.258357	-0.302860
C147	C	1.556743	0.591690	0.030473
C148	C	0.890094	0.074920	-0.636186
C149	C	1.223427	0.408254	-0.302852
C150	C	1.556760	0.741587	0.030481
C151	C	0.891353	0.074920	-0.557243
C152	C	1.224687	0.408253	-0.223910
C153	C	1.558020	0.741587	0.109423
C154	C	0.891968	-0.000034	-0.517777
C155	C	1.225301	0.333300	-0.184443
C156	C	1.558634	0.666633	0.148890
C157	C	0.893338	-0.000034	-0.432178
C158	C	1.226671	0.333300	-0.098844
C159	C	1.560005	0.666633	0.234489
C160	C	0.894430	-0.000028	-0.363952
C161	C	1.227764	0.333305	-0.030618
C162	C	1.561097	0.666639	0.302715
C163	C	0.888109	-0.000029	0.240321
C164	C	1.221442	0.333305	0.573654
C165	C	1.554775	0.666638	0.906988
C166	C	0.889450	-0.000027	0.324339
C167	C	1.222783	0.333306	0.657672
C168	C	1.556116	0.666640	0.991005
H169	H	1.140226	-0.000027	-0.027513
H170	H	1.473559	0.333306	0.305821
H171	H	1.806892	0.666639	0.639154
H172	H	1.107021	-0.000044	0.222738
H173	H	1.440355	0.333290	0.556072
H174	H	1.773688	0.666623	0.889405
C175	C	0.797687	-0.808713	0.005643
C176	C	1.131021	-0.475380	0.338976
C177	C	1.464354	-0.142046	0.672310
N178	N	0.759730	-0.844573	-0.032348
N179	N	1.093064	-0.511240	0.300986
N180	N	1.426397	-0.177907	0.634319
H181	H	0.810752	-0.203755	0.018743
H182	H	1.144086	0.129579	0.352077
H183	H	1.477419	0.462912	0.685410
H184	H	1.283434	-0.000036	-0.025221
H185	H	1.616767	0.333297	0.308112
H186	H	1.950101	0.666631	0.641446
C187	C	1.656212	-0.000026	0.251275
C188	C	1.989546	0.333307	0.584609
C189	C	2.322879	0.666641	0.917942
N190	N	1.681334	-0.000033	0.308941
N191	N	2.014667	0.333300	0.642274
N192	N	2.348000	0.666634	0.975608
H193	H	0.810767	-0.360771	0.018744
H194	H	1.144100	-0.027438	0.352078
H195	H	1.477433	0.305895	0.685411
C196	C	0.895820	0.157371	-0.282298
C197	C	1.229154	0.490704	0.051035
C198	C	1.562487	0.824037	0.384369
N199	N	0.895383	0.219475	-0.315004
N200	N	1.228716	0.552808	0.018329
N201	N	1.562050	0.886142	0.351662
H202	H	1.537530	-0.000019	-0.021154
H203	H	1.870864	0.333314	0.312179
H204	H	2.204197	0.666648	0.645513
H205	H	0.977005	-0.360726	0.185113
H206	H	1.310338	-0.027392	0.518446
H207	H	1.643671	0.305941	0.851780
H208	H	1.504336	-0.000027	0.229098
H209	H	1.837669	0.333306	0.562431
H210	H	2.171003	0.666640	0.895765
H211	H	1.680751	-0.000015	-0.018863
H212	H	2.014084	0.333318	0.314471
H213	H	2.347418	0.666652	0.647804
H214	H	1.250244	-0.000040	0.225024
H215	H	1.583577	0.333293	0.558357
H216	H	1.916910	0.666627	0.891691
C217	C	0.898358	-0.157431	-0.116525
C218	C	1.231692	0.175902	0.216809
C219	C	1.565025	0.509236	0.550142
N220	N	0.898872	-0.219534	-0.083827
N221	N	1.232206	0.113799	0.249507
N222	N	1.565539	0.447132	0.582840
H223	H	0.976988	-0.203723	0.185122
H224	H	1.310322	0.129610	0.518455
H225	H	1.643655	0.462943	0.851789
H226	H	0.977012	-0.639297	0.185118
H227	H	1.310345	-0.305963	0.518451
H228	H	1.643678	0.027370	0.851784
H229	H	0.977019	-0.796312	0.185118
H230	H	1.310352	-0.462979	0.518451
H231	H	1.643686	-0.129646	0.851785
H232	H	0.810773	-0.639339	0.018740
H233	H	1.144107	-0.306005	0.352073
H234	H	1.477440	0.027328	0.685407
C235	C	0.898401	0.157371	-0.116520
C236	C	1.231734	0.490704	0.216813
C237	C	1.565068	0.824037	0.550146
N238	N	0.898927	0.219475	-0.083822
N239	N	1.232260	0.552809	0.249512
N240	N	1.565593	0.886142	0.582845
H241	H	0.891877	0.135951	-0.525107
H242	H	1.225210	0.469284	-0.191774
H243	H	1.558544	0.802618	0.141559
C244	C	0.889408	0.157372	-0.679605
C245	C	1.222742	0.490705	-0.346271
C246	C	1.556075	0.824039	-0.012938
N247	N	0.888893	0.219473	-0.712307
N248	N	1.222226	0.552806	-0.378974
N249	N	1.555560	0.886139	-0.045640
C250	C	0.889366	-0.157430	-0.679613
C251	C	1.222699	0.175904	-0.346280
C252	C	1.556033	0.509237	-0.012947
N253	N	0.888830	-0.219530	-0.712317
N254	N	1.222163	0.113803	-0.378984
N255	N	1.555497	0.447137	-0.045650
H256	H	0.895889	-0.136006	-0.271026
H257	H	1.229222	0.197328	0.062307
H258	H	1.562556	0.530661	0.395640
H259	H	0.891849	-0.136014	-0.525123
H260	H	1.225182	0.197319	-0.191790
H261	H	1.558516	0.530652	0.141544
