data_functionalizedCrystal
_audit_creation_method	'MofGen! by Chris Wilmer'
_symmetry_space_group_name_H-M	'P1'
_symmetry_Int_Tables_number	1
_symmetry_cell_setting	triclinic
loop_
_symmetry_equiv_pos_as_xyz
  x,y,z
_cell_length_a	11.169417
_cell_length_b	19.805405
_cell_length_c	11.169409
_cell_angle_alpha	89.960143
_cell_angle_beta	89.980176
_cell_angle_gamma	90.027289
loop_
_atom_site_label
_atom_site_type_symbol
_atom_site_fract_x
_atom_site_fract_y
_atom_site_fract_z
Zn1	Zn	1.834828	-0.269393	-0.678480
Zn2	Zn	2.334828	0.230607	-0.178480
Zn3	Zn	1.834661	-0.382602	-0.477771
Zn4	Zn	2.334661	0.117398	0.022229
Zn5	Zn	1.634114	-0.269434	-0.477814
Zn6	Zn	2.134114	0.230566	0.022186
Zn7	Zn	1.634065	-0.382547	-0.678415
Zn8	Zn	2.134065	0.117453	-0.178415
O9	O	1.734417	-0.325994	-0.578120
O10	O	2.234417	0.174006	-0.078120
O11	O	2.002756	-0.284416	-0.651864
O12	O	2.502756	0.215584	-0.151864
O13	O	1.808009	-0.367630	-0.309827
O14	O	2.308009	0.132370	0.190173
O15	O	1.660830	-0.174712	-0.504478
O16	O	2.160830	0.325288	-0.004478
O17	O	2.002633	-0.367590	-0.504404
O18	O	2.502633	0.132410	-0.004404
O19	O	1.808293	-0.174681	-0.651907
O20	O	2.308293	0.325319	-0.151907
O21	O	1.660668	-0.284486	-0.309859
O22	O	2.160668	0.215514	0.190141
O23	O	1.466158	-0.284433	-0.504416
O24	O	1.966158	0.215567	-0.004416
O25	O	1.660746	-0.367496	-0.846374
O26	O	2.160746	0.132504	-0.346374
O27	O	1.466122	-0.367536	-0.651797
O28	O	1.966122	0.132464	-0.151797
O29	O	1.808246	-0.284362	-0.846421
O30	O	2.308246	0.215638	-0.346421
O31	O	1.807962	-0.477311	-0.504341
O32	O	2.307962	0.022689	-0.004341
O33	O	1.660585	-0.477271	-0.651754
O34	O	2.160585	0.022729	-0.151754
C35	C	1.422593	-0.325983	-0.578105
C36	C	1.922593	0.174017	-0.078105
C37	C	1.289193	-0.325995	-0.578127
C38	C	1.789193	0.174005	-0.078127
C39	C	1.734282	-0.501850	-0.578062
C40	C	2.234282	-0.001850	-0.078062
C41	C	1.734334	-0.577082	-0.578077
C42	C	2.234334	-0.077082	-0.078077
C43	C	1.811148	-0.612424	-0.501400
C44	C	2.311148	-0.112424	-0.001400
C45	C	1.811199	-0.683113	-0.501426
C46	C	2.311199	-0.183113	-0.001426
C47	C	1.734429	-0.718457	-0.578125
C48	C	2.234429	-0.218457	-0.078125
C49	C	1.657612	-0.683110	-0.654811
C50	C	2.157612	-0.183110	-0.154811
C51	C	1.657568	-0.612422	-0.654790
C52	C	2.157568	-0.112422	-0.154790
C53	C	1.657789	-0.968183	-0.654900
C54	C	2.157789	-0.468183	-0.154900
C55	C	1.657837	-1.038875	-0.654913
C56	C	2.157837	-0.538875	-0.154913
C57	C	1.811420	-1.038873	-0.501537
C58	C	2.311420	-0.538873	-0.001537
C59	C	1.811376	-0.968186	-0.501515
C60	C	2.311376	-0.468186	-0.001515
C61	C	1.734564	-0.932845	-0.578205
C62	C	2.234564	-0.432845	-0.078205
C63	C	1.734511	-0.856196	-0.578177
C64	C	2.234511	-0.356196	-0.078177
C65	C	1.734475	-0.795104	-0.578148
C66	C	2.234475	-0.295104	-0.078148
C67	C	2.047460	-0.326004	-0.578136
C68	C	2.547460	0.173996	-0.078136
C69	C	2.180860	-0.326009	-0.578143
C70	C	2.680860	0.173991	-0.078143
C71	C	1.734509	-0.325919	-0.891163
C72	C	2.234509	0.174081	-0.391163
C73	C	1.734549	-0.325886	-1.024563
C74	C	2.234549	0.174114	-0.524563
C75	C	1.734586	-0.149451	-0.578205
C76	C	2.234586	0.350549	-0.078205
C77	C	1.734657	-0.074219	-0.578241
C78	C	2.234657	0.425781	-0.078241
C79	C	1.734395	-0.326020	-0.266295
C80	C	2.234395	0.173980	0.233705
C81	C	1.734588	-0.325861	-0.132896
C82	C	2.234588	0.174139	0.367104
H83	H	1.873657	-0.583652	-0.438938
H84	H	2.373657	-0.083652	0.061062
O85	O	1.583112	-0.933780	-0.729215
O86	O	2.083112	-0.433780	-0.229215
C87	C	1.505589	-0.892974	-0.660800
C88	C	2.005589	-0.392974	-0.160800
H89	H	1.547964	-0.882409	-0.569882
H90	H	2.047964	-0.382409	-0.069882
H91	H	1.489448	-0.843250	-0.709657
H92	H	1.989448	-0.343250	-0.209657
H93	H	1.416671	-0.920263	-0.647540
H94	H	1.916671	-0.420263	-0.147540
O95	O	1.886223	-1.073125	-0.427106
O96	O	2.386223	-0.573125	0.072894
C97	C	2.005811	-1.055783	-0.453460
C98	C	2.505811	-0.555783	0.046540
H99	H	2.008223	-1.004438	-0.499592
H100	H	2.508223	-0.504438	0.000408
H101	H	2.059672	-1.053371	-0.366890
H102	H	2.559672	-0.553371	0.133110
H103	H	2.046240	-1.095517	-0.515206
H104	H	2.546240	-0.595517	-0.015206
H105	H	1.873885	-0.939411	-0.439056
H106	H	2.373885	-0.439411	0.060944
H107	H	1.595323	-1.067650	-0.717380
H108	H	2.095323	-0.567650	-0.217380
H109	H	1.595110	-0.711893	-0.717266
H110	H	2.095110	-0.211893	-0.217266
O111	O	1.885942	-0.717549	-0.427220
O112	O	2.385942	-0.217549	0.072780
C113	C	1.869598	-0.787518	-0.443756
C114	C	2.369598	-0.287518	0.056244
H115	H	1.830027	-0.797113	-0.536263
H116	H	2.330027	-0.297113	-0.036263
H117	H	1.959592	-0.814292	-0.435988
H118	H	2.459592	-0.314292	0.064012
H119	H	1.805961	-0.807727	-0.372391
H120	H	2.305961	-0.307727	0.127609
O121	O	1.582842	-0.578193	-0.729316
O122	O	2.082842	-0.078193	-0.229316
C123	C	1.515115	-0.624545	-0.797042
C124	C	2.015115	-0.124545	-0.297042
H125	H	1.511004	-0.674957	-0.747891
H126	H	2.011004	-0.174957	-0.247891
H127	H	1.420538	-0.604156	-0.809771
H128	H	1.920538	-0.104156	-0.309771
H129	H	1.559033	-0.632002	-0.888227
H130	H	2.059033	-0.132002	-0.388227
