data_functionalizedCrystal
_audit_creation_method	'MofGen! by Chris Wilmer'
_symmetry_space_group_name_H-M	'P1'
_symmetry_Int_Tables_number	1
_symmetry_cell_setting	triclinic
loop_
_symmetry_equiv_pos_as_xyz
  x,y,z
_cell_length_a	16.992694
_cell_length_b	23.532357
_cell_length_c	22.610064
_cell_angle_alpha	90.005049
_cell_angle_beta	90.002954
_cell_angle_gamma	86.748258
loop_
_atom_site_label
_atom_site_type_symbol
_atom_site_fract_x
_atom_site_fract_y
_atom_site_fract_z
O1	O	1.039420	0.120704	-0.049123
O2	O	0.811146	0.119380	-0.049140
O3	O	0.932187	0.037451	-0.049119
O4	O	0.918379	0.202633	-0.049144
O5	O	0.932179	0.037473	0.049250
O6	O	0.811137	0.119402	0.049229
O7	O	1.039412	0.120726	0.049246
Zn8	Zn	0.925273	0.120067	0.064856
Zn9	Zn	0.925284	0.120038	-0.064750
O10	O	0.918371	0.202655	0.049225
C11	C	0.781943	0.117687	0.000043
C12	C	0.694939	0.112604	0.000036
C13	C	0.644305	0.161650	0.000029
C14	C	0.562556	0.156871	0.000038
C15	C	0.531444	0.103044	0.000050
C16	C	0.582086	0.053993	0.000059
C17	C	0.663832	0.058773	0.000054
C18	C	0.288006	0.083232	0.000069
C19	C	0.206253	0.078455	0.000072
C20	C	0.186729	0.181333	0.000052
C21	C	0.268478	0.186109	0.000044
C22	C	0.319112	0.137058	0.000056
N23	N	0.447885	0.098157	0.000057
N24	N	0.402670	0.141946	0.000053
C25	C	0.931837	0.016228	0.000068
C26	C	0.930799	-0.047042	0.000073
C27	C	0.924285	-0.439389	-0.053580
C28	C	0.923297	-0.498837	-0.053584
O29	O	0.922764	-0.529591	-0.099186
N30	N	0.922803	-0.528561	0.000037
C31	C	0.923289	-0.498832	0.053664
O32	O	0.922777	-0.529573	0.099272
C33	C	0.924270	-0.439385	0.053667
C34	C	0.924772	-0.409665	0.000043
C35	C	0.924786	-0.409669	-0.107200
C36	C	0.925774	-0.350225	-0.107196
C37	C	0.926262	-0.320500	-0.053573
C38	C	0.925760	-0.350221	0.000046
C39	C	0.924749	-0.409657	0.107293
C40	C	0.925730	-0.350206	0.107291
C41	C	0.926232	-0.320486	0.053668
C42	C	0.927236	-0.261052	0.053673
N43	N	0.927730	-0.231329	0.000053
C44	C	0.927243	-0.261053	-0.053570
C45	C	0.921226	-0.623676	0.053654
C46	C	0.920250	-0.683123	0.053652
C47	C	0.920258	-0.683124	-0.053596
C48	C	0.921239	-0.623676	-0.053593
C49	C	0.921720	-0.593953	0.000033
C50	C	0.929320	-0.136216	-0.053558
C51	C	0.930312	-0.076766	-0.053550
C52	C	0.930300	-0.076771	0.053697
C53	C	0.929312	-0.136215	0.053689
C54	C	0.928820	-0.165936	0.000057
O55	O	0.927767	-0.230261	0.099253
O56	O	0.927744	-0.230304	-0.099170
C57	C	1.068615	0.122419	0.000063
C58	C	1.155618	0.127502	0.000065
C59	C	0.918720	0.223878	0.000037
C60	C	0.919759	0.287148	0.000028
N61	N	0.925272	0.120087	0.153308
N62	N	0.925292	0.120014	-0.153202
C63	C	0.871657	0.156317	0.438147
C64	C	0.871655	0.156323	0.376227
O65	O	0.826046	0.187151	0.344200
N66	N	0.925266	0.120064	0.345261
C67	C	0.978877	0.083793	0.376217
O68	O	1.024477	0.052953	0.344192
C69	C	0.978875	0.083785	0.438136
C70	C	0.925266	0.120051	0.469099
C71	C	0.818052	0.192579	0.469110
C72	C	0.818055	0.192574	0.531026
C73	C	0.871664	0.156308	0.561978
C74	C	0.925269	0.120046	0.531015
C75	C	1.032482	0.047512	0.469092
C76	C	1.032475	0.047507	0.531015
C77	C	0.978866	0.083772	0.561978
C78	C	0.978881	0.083774	0.623883
N79	N	0.925270	0.120033	0.654850
C80	C	0.871662	0.156300	0.623897
C81	C	0.978877	0.083812	0.246184
C82	C	0.978884	0.083822	0.184266
C83	C	0.871660	0.156351	0.184280
C84	C	0.871658	0.156343	0.246199
C85	C	0.925266	0.120071	0.277150
C86	C	0.871673	0.156287	0.753925
C87	C	0.871683	0.156281	0.815846
C88	C	0.978904	0.083750	0.815826
C89	C	0.978897	0.083759	0.753910
C90	C	0.925275	0.120029	0.722961
O91	O	1.024465	0.052960	0.655949
O92	O	0.826063	0.187130	0.655930
H93	H	0.521332	0.196810	0.000032
C94	C	0.926123	-0.317998	0.165559
C95	C	0.858442	-0.329128	0.197902
C96	C	0.858779	-0.299475	0.251582
H97	H	0.926739	-0.278326	0.157966
H98	H	0.971645	-0.330016	0.187633
H99	H	0.812931	-0.317108	0.175833
H100	H	0.857811	-0.368794	0.205511
H101	H	0.904302	-0.311492	0.273656
H102	H	0.859398	-0.259804	0.243983
H103	H	0.812863	-0.307026	0.273536
H104	H	0.293803	0.229940	0.000028
C105	C	0.131663	0.234537	-0.000047
C106	C	0.084139	0.234782	-0.050645
C107	C	0.033395	0.283783	-0.050750
H108	H	0.161801	0.267322	-0.000084
H109	H	0.099326	0.234821	0.034241
H110	H	0.116472	0.234504	-0.084924
H111	H	0.053985	0.202009	-0.050619
H112	H	0.001059	0.284066	-0.016462
H113	H	0.063540	0.316563	-0.050786
H114	H	0.001140	0.283953	-0.085077
C115	C	1.037183	0.044347	0.849332
C116	C	1.084144	0.012594	0.808968
C117	C	1.137838	-0.023711	0.839813
H118	H	1.009257	0.019306	0.873479
H119	H	1.069690	0.066304	0.873484
H120	H	1.051641	-0.009362	0.784826
H121	H	1.112087	0.037619	0.784820
H122	H	1.170345	-0.001754	0.863965
H123	H	1.109905	-0.048748	0.863959
H124	H	1.169712	-0.045257	0.812431
C125	C	0.759803	0.231851	0.564712
C126	C	0.712080	0.199316	0.600259
C127	C	0.658410	0.235478	0.631300
H128	H	0.727802	0.253458	0.537470
H129	H	0.787773	0.256839	0.588909
H130	H	0.684111	0.174338	0.576065
H131	H	0.744058	0.177710	0.627513
H132	H	0.686381	0.260466	0.655496
H133	H	0.626415	0.257084	0.604053
H134	H	0.626028	0.213410	0.655426
H135	H	1.076135	0.017982	0.443890
H136	H	0.926180	-0.326032	-0.150862
H137	H	0.919858	-0.707336	-0.097259
C138	C	0.930659	-0.044448	0.111893
C139	C	0.863767	-0.006989	0.115010
C140	C	0.864057	0.022795	0.168613
H141	H	0.976701	-0.023470	0.114185
H142	H	0.930175	-0.070634	0.143853
H143	H	0.864258	0.019194	0.083059
H144	H	0.817714	-0.027951	0.112728
H145	H	0.863573	-0.003392	0.200572
H146	H	0.910102	0.043769	0.170900
H147	H	0.818669	0.048210	0.170737
H148	H	0.828028	0.185814	0.841054
C149	C	0.677970	0.220130	-0.000076
C150	C	0.652168	0.249993	-0.050681
C151	C	0.683153	0.303870	-0.050792
H152	H	0.733904	0.216036	-0.000109
H153	H	0.660542	0.240518	0.034207
H154	H	0.669601	0.229609	-0.084955
H155	H	0.596238	0.254102	-0.050658
H156	H	0.665725	0.324258	-0.016509
H157	H	0.739086	0.299770	-0.050824
H158	H	0.665645	0.324140	-0.085124
C159	C	0.342932	0.029956	-0.000045
C160	C	0.328941	-0.002242	-0.050656
C161	C	0.379533	-0.051322	-0.050785
H162	H	0.333591	0.007981	0.034222
H163	H	0.396087	0.040482	-0.000079
H164	H	0.275798	-0.012769	-0.050616
H165	H	0.338287	0.019716	-0.084931
H166	H	0.432689	-0.040796	-0.050819
H167	H	0.370189	-0.073292	-0.016516
H168	H	0.370053	-0.073172	-0.085126
H169	H	0.180925	0.034620	0.000081
H170	H	0.924386	-0.433864	-0.150868
C171	C	0.928623	-0.168506	-0.111766
C172	C	0.860603	-0.199278	-0.114916
C173	C	0.859933	-0.229027	-0.168529
H174	H	0.973897	-0.194007	-0.114051
H175	H	0.929020	-0.142305	-0.143717
H176	H	0.860213	-0.225476	-0.082974
H177	H	0.815318	-0.173790	-0.112642
H178	H	0.860330	-0.202826	-0.200479
H179	H	0.905210	-0.254525	-0.170809
H180	H	0.813779	-0.249905	-0.170675
H181	H	0.921647	-0.599482	-0.097259
H182	H	0.556748	0.010166	0.000077
C183	C	0.928735	-0.168382	0.111970
C184	C	0.929358	-0.129623	0.158931
C185	C	0.928808	-0.159228	0.212628
H186	H	0.974047	-0.193844	0.114288
H187	H	0.882614	-0.189288	0.114226
H188	H	0.975475	-0.108726	0.156676
H189	H	0.884050	-0.104159	0.156633
H190	H	0.882687	-0.180134	0.214884
H191	H	0.974121	-0.184689	0.214940
H192	H	0.929224	-0.132934	0.244498
H193	H	0.828008	0.185821	0.728733
C194	C	0.718680	0.005454	0.000028
C195	C	0.673939	-0.042709	0.000022
C196	C	0.724437	-0.091838	-0.000007
H197	H	0.750999	0.005108	0.034321
H198	H	0.750960	0.005141	-0.034291
H199	H	0.641674	-0.042396	0.034338
H200	H	0.641623	-0.042382	-0.034268
H201	H	0.756717	-0.092151	-0.034326
H202	H	0.756753	-0.092178	0.034286
H203	H	0.694088	-0.124522	-0.000017
H204	H	0.774393	0.222111	0.443914
C205	C	0.919676	-0.715283	0.111934
C206	C	0.920296	-0.676519	0.158891
C207	C	0.919752	-0.706120	0.212592
H208	H	0.964992	-0.740741	0.114253
H209	H	0.873558	-0.736192	0.114193
H210	H	0.966409	-0.655619	0.156633
H211	H	0.874984	-0.651059	0.156592
H212	H	0.873634	-0.727030	0.214851
H213	H	0.965068	-0.731578	0.214904
H214	H	0.920165	-0.679824	0.244458
H215	H	0.930722	-0.052571	-0.097219
H216	H	0.828004	0.185873	0.271406
H217	H	0.921620	-0.599479	0.097326
H218	H	0.924342	-0.433845	0.150959
C219	C	0.813413	0.195786	0.150774
C220	C	0.766470	0.227553	0.191138
C221	C	0.712816	0.263889	0.160293
H222	H	0.780883	0.173868	0.126612
H223	H	0.841395	0.220812	0.126637
H224	H	0.738490	0.202529	0.215265
H225	H	0.798978	0.249482	0.215302
H226	H	0.740798	0.288916	0.136156
H227	H	0.680292	0.241967	0.136132
H228	H	0.680964	0.285451	0.187675
C229	C	1.037130	0.044391	0.150760
C230	C	1.084062	0.012622	0.191127
C231	C	1.137719	-0.023717	0.160286
H232	H	1.069667	0.066306	0.126608
H233	H	1.009150	0.019365	0.126614
H234	H	1.112040	0.037644	0.215263
H235	H	1.051547	-0.009305	0.215281
H236	H	1.109739	-0.048743	0.136140
H237	H	1.170250	-0.001797	0.136134
H238	H	1.169564	-0.045280	0.187670
H239	H	1.022538	0.054276	0.271381
H240	H	1.076129	0.017968	0.556212
C241	C	1.037037	0.044441	0.720165
C242	C	0.995656	0.007678	0.684545
C243	C	1.049210	-0.028509	0.653428
H244	H	1.069051	0.022787	0.747362
H245	H	1.069416	0.066489	0.696012
H246	H	0.963290	-0.014367	0.708696
H247	H	0.963646	0.029317	0.657338
H248	H	1.081589	-0.006462	0.629274
H249	H	1.081220	-0.050160	0.680628
H250	H	1.021140	-0.053454	0.629252
