data_functionalizedCrystal
_audit_creation_method	'MofGen! by Chris Wilmer'
_symmetry_space_group_name_H-M	'P1'
_symmetry_Int_Tables_number	1
_symmetry_cell_setting	triclinic
loop_
_symmetry_equiv_pos_as_xyz
  x,y,z
_cell_length_a	14.044220
_cell_length_b	13.596369
_cell_length_c	14.519709
_cell_angle_alpha	90.006934
_cell_angle_beta	88.434511
_cell_angle_gamma	90.000253
loop_
_atom_site_label
_atom_site_type_symbol
_atom_site_fract_x
_atom_site_fract_y
_atom_site_fract_z
O1	O	1.258085	0.081691	0.222370
O2	O	1.508085	0.331691	0.472370
O3	O	1.758085	0.581691	0.722370
O4	O	2.008085	0.831691	0.972370
O5	O	0.982102	0.081716	0.214346
O6	O	1.232102	0.331716	0.464346
O7	O	1.482102	0.581716	0.714346
O8	O	1.732102	0.831716	0.964346
O9	O	1.127410	0.081694	0.084710
O10	O	1.377410	0.331694	0.334710
O11	O	1.627410	0.581694	0.584710
O12	O	1.877410	0.831694	0.834710
O13	O	1.112776	0.081713	0.352006
O14	O	1.362776	0.331713	0.602006
O15	O	1.612776	0.581713	0.852006
O16	O	1.862776	0.831713	1.102006
O17	O	1.127396	-0.081889	0.084701
O18	O	1.377396	0.168111	0.334701
O19	O	1.627396	0.418111	0.584701
O20	O	1.877396	0.668111	0.834701
O21	O	0.982087	-0.081867	0.214337
O22	O	1.232087	0.168133	0.464337
O23	O	1.482087	0.418133	0.714337
O24	O	1.732087	0.668133	0.964337
O25	O	1.258070	-0.081892	0.222361
O26	O	1.508070	0.168108	0.472361
O27	O	1.758070	0.418108	0.722361
O28	O	2.008070	0.668108	0.972361
Zn29	Zn	1.120076	-0.107852	0.218348
Zn30	Zn	1.370076	0.142148	0.468348
Zn31	Zn	1.620076	0.392148	0.718348
Zn32	Zn	1.870076	0.642148	0.968348
Zn33	Zn	1.120095	0.107676	0.218359
Zn34	Zn	1.370095	0.357676	0.468359
Zn35	Zn	1.620095	0.607676	0.718359
Zn36	Zn	1.870095	0.857676	0.968359
O37	O	1.112761	-0.081870	0.351997
O38	O	1.362761	0.168130	0.601997
O39	O	1.612761	0.418130	0.851997
O40	O	1.862761	0.668130	1.101997
C41	C	0.946774	-0.000073	0.210829
C42	C	1.196774	0.249927	0.460829
C43	C	1.446774	0.499927	0.710829
C44	C	1.696774	0.749927	0.960829
C45	C	0.841531	-0.000064	0.200352
C46	C	1.091531	0.249936	0.450352
C47	C	1.341531	0.499936	0.700352
C48	C	1.591531	0.749936	0.950352
N49	N	1.120070	-0.254944	0.218340
N50	N	1.370070	-0.004944	0.468340
N51	N	1.620070	0.245056	0.718340
N52	N	1.870070	0.495056	0.968340
C53	C	0.648837	-0.000084	0.181197
C54	C	0.898837	0.249916	0.431197
C55	C	1.148837	0.499916	0.681197
C56	C	1.398837	0.749916	0.931197
C57	C	0.591329	-0.000083	0.255505
C58	C	0.841329	0.249917	0.505505
C59	C	1.091329	0.499917	0.755505
C60	C	1.341329	0.749917	1.005505
C61	C	0.484108	-0.000095	0.244848
C62	C	0.734108	0.249905	0.494848
C63	C	0.984108	0.499905	0.744848
C64	C	1.234108	0.749905	0.994848
C65	C	0.756068	-0.000073	0.191854
C66	C	1.006068	0.249927	0.441854
C67	C	1.256068	0.499927	0.691854
C68	C	1.506068	0.749927	0.941854
C69	C	1.120094	-0.656235	0.218360
C70	C	1.370094	-0.406235	0.468360
C71	C	1.620094	-0.156235	0.718360
C72	C	1.870094	0.093765	0.968360
C73	C	1.120085	-0.544583	0.218357
C74	C	1.370085	-0.294583	0.468357
C75	C	1.620085	-0.044583	0.718357
C76	C	1.870085	0.205417	0.968357
C77	C	1.120083	-0.455593	0.218351
C78	C	1.370083	-0.205593	0.468351
C79	C	1.620083	0.044407	0.718351
C80	C	1.870083	0.294407	0.968351
C81	C	1.120072	-0.343934	0.218347
C82	C	1.370072	-0.093934	0.468347
C83	C	1.620072	0.156066	0.718347
C84	C	1.870072	0.406066	0.968347
C85	C	1.293398	-0.000101	0.225878
C86	C	1.543398	0.249899	0.475878
C87	C	1.793398	0.499899	0.725878
C88	C	2.043398	0.749899	0.975878
C89	C	1.398641	-0.000104	0.236355
C90	C	1.648641	0.249896	0.486355
C91	C	1.898641	0.499896	0.736355
C92	C	2.148641	0.749896	0.986355
N93	N	1.120109	0.254767	0.218360
N94	N	1.370109	0.504767	0.468360
N95	N	1.620109	0.754767	0.718360
N96	N	1.870109	1.004767	0.968360
C97	C	1.126721	-0.000098	0.050290
C98	C	1.376721	0.249902	0.300290
C99	C	1.626721	0.499902	0.550290
C100	C	1.876721	0.749902	0.800290
C101	C	1.124677	-0.000098	-0.052256
C102	C	1.374677	0.249902	0.197744
C103	C	1.624677	0.499902	0.447744
C104	C	1.874677	0.749902	0.697744
C105	C	1.117153	-0.000072	-0.427758
C106	C	1.367153	0.249928	-0.177758
C107	C	1.617153	0.499928	0.072242
C108	C	1.867153	0.749928	0.322242
C109	C	1.119243	-0.000079	-0.323282
C110	C	1.369243	0.249921	-0.073282
C111	C	1.619243	0.499921	0.176718
C112	C	1.869243	0.749921	0.426718
C113	C	1.120915	-0.000086	-0.240010
C114	C	1.370915	0.249914	0.009990
C115	C	1.620915	0.499914	0.259990
C116	C	1.870915	0.749914	0.509990
C117	C	1.123005	-0.000092	-0.135527
C118	C	1.373005	0.249908	0.114473
C119	C	1.623005	0.499908	0.364473
C120	C	1.873005	0.749908	0.614473
C121	C	1.113451	-0.000076	0.386416
C122	C	1.363451	0.249924	0.636416
C123	C	1.613451	0.499924	0.886416
C124	C	1.863451	0.749924	1.136416
C125	C	1.115494	-0.000070	0.488963
C126	C	1.365494	0.249930	0.738963
C127	C	1.615494	0.499930	0.988963
C128	C	1.865494	0.749930	1.238963
H129	H	0.617546	-0.000095	0.109582
H130	H	0.867546	0.249905	0.359582
H131	H	1.117546	0.499905	0.609582
H132	H	1.367546	0.749905	0.859582
H133	H	0.622622	-0.000073	0.327127
H134	H	0.872622	0.249927	0.577127
H135	H	1.122622	0.499927	0.827127
H136	H	1.372622	0.749927	1.077127
