data_functionalizedCrystal
_audit_creation_method	'MofGen! by Chris Wilmer'
_symmetry_space_group_name_H-M	'P1'
_symmetry_Int_Tables_number	1
_symmetry_cell_setting	triclinic
loop_
_symmetry_equiv_pos_as_xyz
  x,y,z
_cell_length_a	19.188930
_cell_length_b	19.188924
_cell_length_c	13.596369
_cell_angle_alpha	89.991944
_cell_angle_beta	89.980792
_cell_angle_gamma	83.143372
loop_
_atom_site_label
_atom_site_type_symbol
_atom_site_fract_x
_atom_site_fract_y
_atom_site_fract_z
O1	O	0.926143	0.087169	-0.082112
O2	O	0.722832	0.098903	-0.082045
O3	O	0.830357	-0.008620	-0.082069
O4	O	0.818618	0.194692	-0.082088
O5	O	0.830347	-0.008625	0.081514
O6	O	0.722821	0.098898	0.081538
O7	O	0.926133	0.087163	0.081471
Zn8	Zn	0.824475	0.093030	0.107477
Zn9	Zn	0.824489	0.093037	-0.108051
O10	O	0.818607	0.194687	0.081495
C11	C	0.696815	0.098521	-0.000245
C12	C	0.619311	0.097380	-0.000219
C13	C	0.574385	0.160471	-0.000241
C14	C	0.501562	0.159399	-0.000251
C15	C	0.473667	0.095233	-0.000260
C16	C	0.518602	0.032134	-0.000233
C17	C	0.591424	0.033207	-0.000213
N18	N	0.365691	0.046188	-0.055970
N19	N	0.296513	0.045172	-0.055991
C20	C	0.254258	0.091995	-0.000320
N21	N	0.283794	0.139882	0.055361
N22	N	0.352979	0.140899	0.055378
C23	C	0.394704	0.094062	-0.000282
C24	C	0.130368	0.153928	-0.000352
C25	C	0.057543	0.152854	-0.000356
C26	C	0.074585	0.025586	-0.000348
C27	C	0.147409	0.026663	-0.000334
C28	C	0.175295	0.090835	-0.000340
C29	C	0.829973	-0.034634	-0.000276
C30	C	0.828834	-0.112138	-0.000273
C31	C	0.828308	-0.148534	-0.089443
C32	C	0.827228	-0.221357	-0.089450
C33	C	0.826688	-0.257783	-0.000283
C34	C	0.827210	-0.221378	0.088898
C35	C	0.828283	-0.148556	0.088903
N36	N	0.864731	-0.377448	0.066070
N37	N	0.863714	-0.446627	0.066059
C38	C	0.823454	-0.477192	-0.000291
N39	N	0.784259	-0.435967	-0.066645
N40	N	0.785280	-0.366783	-0.066638
C41	C	0.825524	-0.336746	-0.000278
C42	C	0.821756	-0.592550	-0.089474
C43	C	0.820672	-0.665374	-0.089477
C44	C	0.820661	-0.665394	0.088873
C45	C	0.821738	-0.592571	0.088874
C46	C	0.822289	-0.556154	-0.000302
C47	C	0.952149	0.087546	-0.000331
C48	C	1.029654	0.088687	-0.000364
C49	C	0.818992	0.220700	-0.000300
C50	C	0.820131	0.298205	-0.000309
N51	N	0.824471	0.093024	0.254568
N52	N	0.824499	0.093037	-0.255143
C53	C	0.824488	0.093038	0.655859
C54	C	0.824481	0.093036	0.544208
C55	C	0.824480	0.093032	0.455218
C56	C	0.824472	0.093029	0.343559
H57	H	0.020965	0.204232	-0.000368
C58	C	0.452690	0.227848	-0.000435
C59	C	0.410409	0.230932	-0.084597
C60	C	0.365376	0.293971	-0.084795
H61	H	0.479640	0.266278	-0.000485
H62	H	0.423863	0.230080	0.056570
H63	H	0.439232	0.228706	-0.141588
H64	H	0.383445	0.192516	-0.084565
H65	H	0.336549	0.296203	-0.027790
H66	H	0.392331	0.332396	-0.084843
H67	H	0.336678	0.296069	-0.141893
H68	H	0.597086	0.212725	-0.000248
C69	C	0.044444	-0.044153	-0.000306
C70	C	0.099380	-0.099178	-0.000264
C71	C	0.071638	-0.163434	-0.000207
H72	H	0.016421	-0.047316	-0.057341
H73	H	0.016391	-0.047257	0.056756
H74	H	0.127422	-0.096076	-0.057320
H75	H	0.127408	-0.096038	0.056767
H76	H	0.043585	-0.166537	0.056855
H77	H	0.043615	-0.166589	-0.057243
H78	H	0.108907	-0.200776	-0.000169
H79	H	0.183988	-0.024713	-0.000322
C80	C	0.828860	-0.109116	-0.186363
C81	C	0.828150	-0.156581	-0.264456
C82	C	0.828646	-0.120292	-0.353752
H83	H	0.869973	-0.086152	-0.190222
H84	H	0.788555	-0.075273	-0.190109
H85	H	0.868451	-0.190412	-0.260711
H86	H	0.787040	-0.179547	-0.260628
H87	H	0.788341	-0.086448	-0.357499
H88	H	0.869760	-0.097328	-0.357602
H89	H	0.828158	-0.152489	-0.406749
H90	H	0.826796	-0.250996	-0.162064
C91	C	0.820000	-0.704786	-0.186372
C92	C	0.760227	-0.679011	-0.240178
C93	C	0.759593	-0.715294	-0.329449
H94	H	0.819245	-0.753379	-0.173750
H95	H	0.860869	-0.698277	-0.223063
H96	H	0.719368	-0.685526	-0.203495
H97	H	0.760970	-0.630423	-0.252826
H98	H	0.800462	-0.708785	-0.366140
H99	H	0.758840	-0.763885	-0.316818
H100	H	0.719042	-0.697807	-0.365971
C101	C	0.826655	-0.261053	0.185607
C102	C	0.825621	-0.332621	0.166519
C103	C	0.825114	-0.369190	0.255586
H104	H	0.786130	-0.243759	0.222329
H105	H	0.867548	-0.254615	0.222247
H106	H	0.784732	-0.339054	0.129895
H107	H	0.866143	-0.349935	0.129812
H108	H	0.866007	-0.362752	0.292225
H109	H	0.784588	-0.351890	0.292301
H110	H	0.824419	-0.417753	0.242647
H111	H	0.495885	-0.020111	-0.000254
C112	C	0.828890	-0.109166	0.185823
C113	C	0.828199	-0.156651	0.263915
C114	C	0.828767	-0.120391	0.353212
H115	H	0.788614	-0.075306	0.189681
H116	H	0.870031	-0.086228	0.189574
H117	H	0.787061	-0.179578	0.260166
H118	H	0.868471	-0.190512	0.260090
H119	H	0.869909	-0.097453	0.356963
H120	H	0.788491	-0.086532	0.357060
H121	H	0.828305	-0.152604	0.406208
H122	H	0.822172	-0.562938	0.161485
C123	C	0.822257	-0.552894	-0.186209
C124	C	0.762839	-0.503020	-0.191397
C125	C	0.763290	-0.466468	-0.280484
H126	H	0.821755	-0.584910	-0.239410
H127	H	0.863369	-0.529903	-0.189911
H128	H	0.721738	-0.526010	-0.187704
H129	H	0.763329	-0.470990	-0.138216
H130	H	0.804402	-0.443477	-0.284186
H131	H	0.762789	-0.498489	-0.333679
H132	H	0.722980	-0.432620	-0.284012
H133	H	0.628003	-0.018171	-0.000196
H134	H	0.153075	0.206181	-0.000343
H135	H	0.820216	-0.695051	0.161475
