data_functionalizedCrystal
_audit_creation_method	'MofGen! by Chris Wilmer'
_symmetry_space_group_name_H-M	'P1'
_symmetry_Int_Tables_number	1
_symmetry_cell_setting	triclinic
loop_
_symmetry_equiv_pos_as_xyz
  x,y,z
_cell_length_a	11.026607
_cell_length_b	14.971486
_cell_length_c	13.448316
_cell_angle_alpha	90.001801
_cell_angle_beta	89.996104
_cell_angle_gamma	83.899927
loop_
_atom_site_label
_atom_site_type_symbol
_atom_site_fract_x
_atom_site_fract_y
_atom_site_fract_z
O1	O	0.158181	-1.212292	-0.082572
O2	O	0.177123	-0.954927	-0.082599
O3	O	-0.009032	-1.062279	-0.082584
O4	O	0.344336	-1.104940	-0.082587
O5	O	-0.009044	-1.062260	0.082800
O6	O	0.177112	-0.954908	0.082785
O7	O	0.158169	-1.212273	0.082812
Cu8	Cu	0.167639	-1.083589	0.097899
Cu9	Cu	0.167653	-1.083611	-0.097686
O10	O	0.344324	-1.104921	0.082797
C11	C	0.176270	-0.921457	0.000090
C12	C	0.173732	-0.821753	0.000079
C13	C	-0.054260	-1.054400	0.000106
C14	C	-0.189008	-1.030939	0.000100
C15	C	0.159022	-1.245743	0.000121
C16	C	0.161561	-1.345447	0.000125
C17	C	-0.262720	-1.095719	0.000105
C18	C	-0.401989	-1.071472	0.000099
C19	C	0.389552	-1.112800	0.000105
C20	C	0.524300	-1.136261	0.000104
N21	N	0.167629	-1.083579	0.235463
C22	C	0.283093	-0.782051	0.000080
C23	C	0.280700	-0.688368	0.000095
C24	C	0.168945	-0.634389	0.000102
C25	C	0.059576	-0.674098	0.000105
C26	C	0.061969	-0.767779	0.000097
C27	C	0.054594	-0.478837	0.000118
C28	C	0.052200	-0.385150	0.000124
C29	C	0.273325	-0.399426	0.000116
C30	C	0.275718	-0.493107	0.000109
C31	C	0.166348	-0.532809	0.000109
N32	N	0.167654	-1.083626	-0.235251
C33	C	0.085233	-1.131139	0.287510
C34	C	0.085232	-1.131145	0.391614
C35	C	0.167634	-1.083595	0.443668
C36	C	0.250033	-1.036029	0.391614
C37	C	0.250028	-1.036019	0.287513
C38	C	0.250042	-1.036055	0.608594
C39	C	0.250049	-1.036066	0.712703
C40	C	0.085246	-1.131181	0.712695
C41	C	0.085241	-1.131171	0.608594
C42	C	0.167642	-1.083606	0.556547
H43	H	-0.222722	-1.169129	0.000119
H44	H	-0.441982	-0.998057	0.000085
H45	H	-0.435709	-1.209677	0.000037
O46	O	0.330205	-0.989839	0.558188
C47	C	0.402921	-0.947857	0.626453
H48	H	0.404374	-0.984766	0.700656
H49	H	0.363365	-0.875046	0.637536
C50	C	0.532037	-0.905164	0.494678
C51	C	0.533830	-0.950501	0.585812
H52	H	0.612787	-0.906791	0.469608
H53	H	0.483045	-0.933445	0.448685
H54	H	0.499068	-0.844492	0.503926
H55	H	0.566785	-1.011174	0.576560
H56	H	0.582831	-0.922231	0.631802
O57	O	0.005161	-1.177436	0.442017
C58	C	-0.067577	-1.219394	0.373750
H59	H	-0.017814	-1.228395	0.299536
H60	H	-0.157826	-1.175840	0.362697
C61	C	-0.153464	-1.300845	0.505511
C62	C	-0.092339	-1.311908	0.414363
H63	H	-0.168744	-1.357911	0.530564
H64	H	-0.104463	-1.272575	0.551505
H65	H	-0.228665	-1.264548	0.496288
H66	H	-0.017134	-1.348195	0.423590
H67	H	-0.141329	-1.340187	0.368371
H68	H	0.317148	-0.997345	0.755080
H69	H	-0.229006	-0.957528	0.000086
H70	H	0.362378	-0.367096	0.000120
H71	H	0.317121	-0.997290	0.245137
H72	H	0.317122	-0.997308	0.434003
O73	O	0.005031	-1.177323	0.763135
C74	C	-0.115163	-1.143429	0.737726
H75	H	-0.115095	-1.108954	0.662148
H76	H	-0.152809	-1.092860	0.796327
C77	C	-0.195779	-1.263628	0.825728
C78	C	-0.195696	-1.221291	0.732898
H79	H	-0.245458	-1.311655	0.822754
H80	H	-0.114802	-1.286461	0.842850
H81	H	-0.227148	-1.221478	0.874552
H82	H	-0.164314	-1.263437	0.684079
H83	H	-0.276670	-1.198466	0.715768
O84	O	0.005088	-1.177174	0.236862
C85	C	-0.069922	-1.117161	0.176712
H86	H	-0.021691	-1.054954	0.161097
H87	H	-0.159605	-1.096607	0.216882
C88	C	-0.155103	-1.239807	0.097012
C89	C	-0.095860	-1.163407	0.077827
H90	H	-0.171108	-1.268334	0.036017
H91	H	-0.104571	-1.280239	0.137539
H92	H	-0.229832	-1.222667	0.130490
H93	H	-0.021127	-1.180549	0.044362
H94	H	-0.146381	-1.122979	0.037292
H95	H	0.374096	-0.825994	0.000073
O96	O	0.387046	-0.649947	0.000050
C97	C	0.486196	-0.717678	0.000061
H98	H	0.455489	-0.782362	-0.031258
H99	H	0.520444	-0.729842	0.079401
C100	C	0.627435	-0.608407	-0.026329
C101	C	0.589722	-0.687851	-0.064804
H102	H	0.691298	-0.590008	-0.066336
H103	H	0.560637	-0.562775	-0.026333
H104	H	0.655967	-0.618555	0.039787
H105	H	0.561178	-0.677700	-0.130913
H106	H	0.656518	-0.733482	-0.064813
H107	H	0.366719	-0.537055	0.000093
H108	H	-0.038801	-0.341202	0.000131
H109	H	-0.034467	-0.511159	0.000120
H110	H	-0.031417	-0.630141	0.000125
H111	H	-0.027084	-0.800103	0.000096
H112	H	0.018149	-1.169895	0.566211
