data_functionalizedCrystal
_audit_creation_method	'MofGen! by Chris Wilmer'
_symmetry_space_group_name_H-M	'P1'
_symmetry_Int_Tables_number	1
_symmetry_cell_setting	triclinic
loop_
_symmetry_equiv_pos_as_xyz
  x,y,z
_cell_length_a	12.759401
_cell_length_b	17.640280
_cell_length_c	12.759393
_cell_angle_alpha	101.231035
_cell_angle_beta	90.019676
_cell_angle_gamma	78.801324
loop_
_atom_site_label
_atom_site_type_symbol
_atom_site_fract_x
_atom_site_fract_y
_atom_site_fract_z
Zn1	Zn	1.690825	-0.314622	0.509518
Zn2	Zn	1.726245	-0.446815	0.298348
Zn3	Zn	1.515134	-0.314661	0.333847
Zn4	Zn	1.550629	-0.446758	0.474005
O5	O	1.620708	-0.380714	0.403929
O6	O	1.842546	-0.332165	0.481512
O7	O	1.698209	-0.429326	0.156025
O8	O	1.508762	-0.204049	0.386869
O9	O	1.868569	-0.429287	0.326367
O10	O	1.637841	-0.204020	0.515934
O11	O	1.543107	-0.332232	0.182106
O12	O	1.372820	-0.332176	0.352433
O13	O	1.569257	-0.429189	0.625748
O14	O	1.398897	-0.429227	0.455406
O15	O	1.672259	-0.332109	0.651839
O16	O	1.732627	-0.557414	0.291931
O17	O	1.603602	-0.557372	0.420985
C18	C	1.347737	-0.380700	0.403918
C19	C	1.230964	-0.380714	0.403933
C20	C	1.162577	-0.330233	0.484797
C21	C	1.052855	-0.330241	0.484802
C22	C	1.079919	-0.431217	0.323075
C23	C	1.189637	-0.431204	0.323067
C24	C	0.877896	-0.237076	0.547582
C25	C	0.809508	-0.186603	0.628460
C26	C	0.841929	-0.174557	0.734233
C27	C	0.942740	-0.212995	0.759145
C28	C	1.011124	-0.263474	0.678271
C29	C	0.978701	-0.275505	0.572488
C30	C	1.364598	-0.524370	0.260297
C31	C	1.432986	-0.574854	0.179426
C32	C	1.400570	-0.586908	0.073649
C33	C	1.299759	-0.548484	0.048737
C34	C	1.231371	-0.498000	0.129608
C35	C	1.263795	-0.485945	0.235384
C36	C	1.675838	-0.586072	0.348775
C37	C	1.699519	-0.673925	0.325215
C38	C	1.441237	-0.962889	0.583296
C39	C	1.463491	-1.045441	0.561124
C40	C	1.597927	-1.045419	0.426876
C41	C	1.575688	-0.962866	0.449040
C42	C	1.497341	-0.921608	0.527250
C43	C	1.631793	-0.921585	0.392994
C44	C	1.609551	-0.839039	0.415153
C45	C	1.531205	-0.797775	0.493357
C46	C	1.475100	-0.839062	0.549409
C47	C	1.710134	-0.962845	0.314779
C48	C	1.766238	-0.921564	0.258733
C49	C	1.744002	-0.839016	0.280897
C50	C	1.665657	-0.797752	0.359102
C51	C	1.800108	-0.797729	0.224846
C52	C	1.777866	-0.715183	0.247005
C53	C	1.643415	-0.715206	0.381260
C54	C	1.894745	-0.380728	0.403941
C55	C	2.011523	-0.380734	0.403946
C56	C	1.620766	-0.380638	0.677983
C57	C	1.620791	-0.380606	0.794769
C58	C	1.565391	-0.174554	0.459322
C59	C	1.541819	-0.086701	0.482927
C60	C	1.620695	-0.380732	0.130957
C61	C	1.620814	-0.380542	0.014232
C62	C	1.674427	-0.330048	0.863220
C63	C	1.674435	-0.330014	0.972954
C64	C	1.567172	-0.431102	0.945772
C65	C	1.567157	-0.431131	0.836042
C66	C	1.686984	-0.236760	1.147967
C67	C	1.740638	-0.186209	1.216420
C68	C	1.839894	-0.174091	1.184080
C69	C	1.885520	-0.212534	1.083285
C70	C	1.831873	-0.263090	1.014836
C71	C	1.732599	-0.275194	1.047178
C72	C	1.554619	-0.524386	0.661027
C73	C	1.500978	-0.574947	0.592574
C74	C	1.401723	-0.587074	0.624910
C75	C	1.356105	-0.548645	0.725704
C76	C	1.409746	-0.498084	0.794157
C77	C	1.509000	-0.485956	0.761814
H78	H	1.273362	-0.558303	-0.037394
O79	O	1.343860	-0.641608	0.551081
H80	H	1.392252	-0.666295	0.475557
O81	O	1.119842	-0.304940	0.705135
H82	H	1.161943	-0.342067	0.631128
O83	O	1.992590	-0.199473	1.048417
H84	H	1.983677	-0.174404	0.974839
H85	H	1.661715	-1.079023	0.363194
O86	O	1.884629	-0.842231	0.140514
H87	H	1.890678	-0.906566	0.134531
O88	O	0.700787	-0.145138	0.601586
H89	H	0.637941	-0.162639	0.646490
O90	O	0.842937	-0.250060	0.433490
H91	H	0.761347	-0.214860	0.429763
O92	O	1.558919	-0.670697	0.465625
H93	H	1.495377	-0.633135	0.428637
H94	H	1.728243	-1.030059	0.296743
H95	H	1.883579	-0.132931	1.239823
O96	O	1.691426	-0.144733	1.325124
H97	H	1.613377	-0.161636	1.336107
H98	H	1.538136	-0.606246	0.510506
H99	H	1.513090	-0.730561	0.511390
H100	H	1.523508	-0.472240	0.979390
O101	O	1.390597	-0.794550	0.633764
H102	H	1.355313	-0.837122	0.669016
H103	H	1.377446	-0.929295	0.646990
O104	O	1.402962	-1.089958	0.621582
H105	H	1.359673	-1.127607	0.564398
O106	O	1.541704	-0.616320	0.206304
H107	H	1.583799	-0.653463	0.132304
O108	O	1.850768	-0.966064	0.174409
H109	H	1.856823	-1.030399	0.168428
H110	H	1.823552	-0.681572	0.201365
H111	H	1.149285	-0.466714	0.109316
H112	H	1.718096	-0.288905	0.829620
O113	O	1.579917	-0.249823	1.182840
H114	H	1.557218	-0.214607	1.264430
H115	H	1.869023	-0.294393	0.932773
O116	O	1.360543	-0.456622	0.902869
H117	H	1.282506	-0.473541	0.913856
H118	H	1.635439	-0.514511	0.634685
O119	O	1.474334	-0.641356	-0.013579
H120	H	1.492633	-0.701485	0.004511
H121	H	1.196221	-0.289118	0.550641
O122	O	1.249044	-0.561713	0.760591
H123	H	1.219402	-0.603319	0.696054
O124	O	1.035347	-0.485677	0.235860
H125	H	0.947565	-0.477211	0.249454
O126	O	0.977710	-0.200005	0.873233
H127	H	0.913226	-0.158441	0.925283
O128	O	0.768177	-0.120112	0.821468
H129	H	0.692638	-0.095405	0.786375
H130	H	1.391006	-0.514552	0.346427
