data_functionalizedCrystal
_audit_creation_method	'MofGen! by Chris Wilmer'
_symmetry_space_group_name_H-M	'P1'
_symmetry_Int_Tables_number	1
_symmetry_cell_setting	triclinic
loop_
_symmetry_equiv_pos_as_xyz
  x,y,z
_cell_length_a	18.215407
_cell_length_b	19.805405
_cell_length_c	18.215399
_cell_angle_alpha	90.031029
_cell_angle_beta	90.019350
_cell_angle_gamma	90.026858
loop_
_atom_site_label
_atom_site_type_symbol
_atom_site_fract_x
_atom_site_fract_y
_atom_site_fract_z
Zn1	Zn	1.125061	-0.269459	0.416102
Zn2	Zn	1.625061	0.230541	0.916102
Zn3	Zn	1.124967	-0.382651	0.293030
Zn4	Zn	1.624967	0.117349	0.793030
Zn5	Zn	1.001994	-0.269482	0.293050
Zn6	Zn	1.501994	0.230518	0.793050
Zn7	Zn	1.001956	-0.382613	0.416055
Zn8	Zn	1.501956	0.117387	0.916055
O9	O	1.063494	-0.326051	0.354559
O10	O	1.563494	0.173949	0.854559
O11	O	1.228032	-0.284481	0.399788
O12	O	1.728032	0.215519	0.899788
O13	O	1.108631	-0.367665	0.190049
O14	O	1.608631	0.132335	0.690049
O15	O	1.018375	-0.174763	0.309401
O16	O	1.518375	0.325237	0.809401
O17	O	1.227964	-0.367642	0.309368
O18	O	1.727964	0.132358	0.809368
O19	O	1.108791	-0.174746	0.399807
O20	O	1.608791	0.325254	0.899807
O21	O	1.018284	-0.284520	0.190063
O22	O	1.518284	0.215480	0.690063
O23	O	0.899005	-0.284483	0.309355
O24	O	1.399005	0.215517	0.809355
O25	O	1.018309	-0.367577	0.519046
O26	O	1.518309	0.132423	1.019046
O27	O	0.898977	-0.367599	0.399727
O28	O	1.398977	0.132401	0.899727
O29	O	1.108754	-0.284444	0.519080
O30	O	1.608754	0.215556	1.019080
O31	O	1.108594	-0.477363	0.309322
O32	O	1.608594	0.022637	0.809322
O33	O	1.018218	-0.477334	0.399708
O34	O	1.518218	0.022666	0.899708
C35	C	0.872288	-0.326040	0.354538
C36	C	1.372288	0.173960	0.854538
C37	C	0.790489	-0.326051	0.354547
C38	C	1.290489	0.173949	0.854547
C39	C	0.602300	-0.369398	0.401544
C40	C	1.102300	0.130602	0.901544
C41	C	0.525441	-0.369400	0.401553
C42	C	1.025441	0.130600	0.901553
C43	C	0.525441	-0.282717	0.307591
C44	C	1.025441	0.217283	0.807591
C45	C	0.602298	-0.282712	0.307586
C46	C	1.102298	0.217288	0.807586
C47	C	0.640726	-0.326056	0.354561
C48	C	1.140726	0.173944	0.854561
C49	C	0.487010	-0.326063	0.354575
C50	C	0.987010	0.173937	0.854575
C51	C	0.403676	-0.326065	0.354585
C52	C	0.903676	0.173935	0.854585
C53	C	0.724065	-0.326054	0.354553
C54	C	1.224065	0.173946	0.854553
C55	C	1.063412	-0.501907	0.354524
C56	C	1.563412	-0.001907	0.854524
C57	C	1.063443	-0.577139	0.354533
C58	C	1.563443	-0.077139	0.854533
C59	C	1.110548	-0.612476	0.307518
C60	C	1.610548	-0.112476	0.807518
C61	C	1.110579	-0.683164	0.307535
C62	C	1.610579	-0.183164	0.807535
C63	C	1.063502	-0.718515	0.354562
C64	C	1.563502	-0.218515	0.854562
C65	C	1.016395	-0.683173	0.401582
C66	C	1.516395	-0.183173	0.901582
C67	C	1.016368	-0.612486	0.401569
C68	C	1.516368	-0.112486	0.901569
C69	C	1.016504	-0.968247	0.401637
C70	C	1.516504	-0.468247	0.901637
C71	C	1.016533	-1.038939	0.401645
C72	C	1.516533	-0.538939	0.901645
C73	C	1.110715	-1.038924	0.307602
C74	C	1.610715	-0.538924	0.807602
C75	C	1.110688	-0.968237	0.307589
C76	C	1.610688	-0.468237	0.807589
C77	C	1.063584	-0.932902	0.354611
C78	C	1.563584	-0.432902	0.854611
C79	C	1.063552	-0.856254	0.354594
C80	C	1.563552	-0.356254	0.854594
C81	C	1.063530	-0.795162	0.354577
C82	C	1.563530	-0.295162	0.854577
C83	C	1.255447	-0.326063	0.354581
C84	C	1.755447	0.173937	0.854581
C85	C	1.337246	-0.326069	0.354590
C86	C	1.837246	0.173931	0.854590
C87	C	1.063538	-0.326003	0.546512
C88	C	1.563538	0.173997	1.046512
C89	C	1.063556	-0.325983	0.628311
C90	C	1.563556	0.174017	1.128311
C91	C	1.063598	-0.149508	0.354611
C92	C	1.563598	0.350492	0.854611
C93	C	1.063642	-0.074276	0.354633
C94	C	1.563642	0.425724	0.854633
C95	C	1.063494	-0.326050	0.163353
C96	C	1.563494	0.173950	0.663353
C97	C	1.063618	-0.325880	0.081555
C98	C	1.563618	0.174120	0.581555
C99	C	1.110678	-0.282637	0.893388
C100	C	1.610678	0.217363	1.393388
C101	C	1.110669	-0.282655	0.816529
C102	C	1.610669	0.217345	1.316529
C103	C	1.016494	-0.369231	0.816483
C104	C	1.516494	0.130769	1.316483
C105	C	1.016507	-0.369215	0.893340
C106	C	1.516507	0.130785	1.393340
C107	C	1.063598	-0.325915	0.931791
C108	C	1.563598	0.174085	1.431791
C109	C	1.063576	-0.325948	0.778075
C110	C	1.563576	0.174052	1.278075
C111	C	1.063566	-0.325968	0.694741
C112	C	1.563566	0.174032	1.194741
C113	C	1.063609	-0.325895	1.015130
C114	C	1.563609	0.174105	1.515130
H115	H	0.494158	-0.404692	0.439812
H116	H	0.994158	0.095308	0.939812
C117	C	0.964714	-0.416874	0.774189
C118	C	1.464714	0.083126	1.274189
H119	H	0.936688	-0.442657	0.808070
H120	H	1.436688	0.057343	1.308070
H121	H	0.932650	-0.391008	0.744199
H122	H	1.432650	0.108992	1.244199
H123	H	0.992871	-0.446367	0.744213
H124	H	1.492871	0.053633	1.244213
C125	C	0.483168	-0.235050	0.255914
C126	C	0.983168	0.264950	0.755914
H127	H	0.431891	-0.241265	0.262639
H128	H	0.931891	0.258735	0.762639
H129	H	0.495786	-0.189583	0.266767
H130	H	0.995786	0.310417	0.766767
H131	H	0.495743	-0.244906	0.206446
H132	H	0.995743	0.255094	0.706446
C133	C	1.162453	-0.235046	0.774289
C134	C	1.662453	0.264954	1.274289
H135	H	1.190494	-0.209254	0.808199
H136	H	1.690494	0.290746	1.308199
H137	H	1.194503	-0.260941	0.744304
H138	H	1.694503	0.239059	1.244304
H139	H	1.134305	-0.205560	0.744314
H140	H	1.634305	0.294440	1.244314
C141	C	1.162335	-0.573596	0.255788
C142	C	1.662335	-0.073596	0.755788
H143	H	1.190397	-0.604768	0.227796
H144	H	1.690397	-0.104768	0.727796
H145	H	1.134195	-0.546062	0.223690
H146	H	1.634195	-0.046062	0.723690
H147	H	1.194376	-0.545980	0.283970
H148	H	1.694376	-0.045980	0.783970
H149	H	0.633585	-0.247414	0.269327
H150	H	1.133585	0.252586	0.769327
C151	C	0.964722	-0.416825	0.935590
C152	C	1.464722	0.083175	1.435590
H153	H	0.971483	-0.410620	0.986870
H154	H	1.471483	0.089380	1.486870
H155	H	0.915276	-0.406929	0.922995
H156	H	1.415276	0.093071	1.422995
H157	H	0.975477	-0.462306	0.922978
H158	H	1.475477	0.037694	1.422978
C159	C	0.644568	-0.417068	0.453222
C160	C	1.144568	0.082932	0.953222
H161	H	0.610672	-0.442876	0.481209
H162	H	1.110672	0.057124	0.981209
H163	H	0.674527	-0.446526	0.425015
H164	H	1.174527	0.053474	0.925015
H165	H	0.674572	-0.391205	0.485337
H166	H	1.174572	0.108795	0.985337
C167	C	0.964680	-0.929387	0.453346
C168	C	1.464680	-0.429387	0.953346
H169	H	0.936639	-0.960566	0.481346
H170	H	1.436639	-0.460566	0.981346
H171	H	0.992792	-0.901766	0.485438
H172	H	1.492792	-0.401766	0.985438
H173	H	0.932619	-0.901859	0.425149
H174	H	1.432619	-0.401859	0.925149
C175	C	1.162390	-0.722031	0.255815
C176	C	1.662390	-0.222031	0.755815
H177	H	1.190416	-0.690854	0.227798
H178	H	1.690416	-0.190854	0.727798
H179	H	1.194453	-0.749564	0.283997
H180	H	1.694453	-0.249564	0.783997
H181	H	1.134261	-0.749648	0.223728
H182	H	1.634261	-0.249648	0.723728
H183	H	1.149020	-0.939457	0.269292
H184	H	1.649020	-0.439457	0.769292
C185	C	1.162533	-1.077795	0.255883
C186	C	1.662533	-0.577795	0.755883
H187	H	1.155815	-1.124957	0.262629
H188	H	1.655815	-0.624957	0.762629
H189	H	1.151785	-1.066250	0.206425
H190	H	1.651785	-0.566250	0.706425
H191	H	1.211972	-1.066164	0.266699
H192	H	1.711972	-0.566164	0.766699
H193	H	0.978198	-1.067719	0.439946
H194	H	1.478198	-0.567719	0.939946
C195	C	1.162481	-0.235017	0.935685
C196	C	1.662481	0.264983	1.435685
H197	H	1.155743	-0.241200	0.986959
H198	H	1.655743	0.258800	1.486959
H199	H	1.211919	-0.244927	0.923093
H200	H	1.711919	0.255073	1.423093
H201	H	1.151730	-0.189539	0.923103
H202	H	1.651730	0.310461	1.423103
C203	C	0.964612	-0.722054	0.453316
C204	C	1.464612	-0.222054	0.953316
H205	H	0.936560	-0.690883	0.481319
H206	H	1.436560	-0.190883	0.981319
H207	H	0.932573	-0.749673	0.425142
H208	H	1.432573	-0.249673	0.925142
H209	H	0.992762	-0.749586	0.485414
H210	H	1.492762	-0.249586	0.985414
C211	C	0.964555	-0.573616	0.453286
C212	C	1.464555	-0.073616	0.953286
H213	H	0.936517	-0.604793	0.481293
H214	H	1.436517	-0.104793	0.981293
H215	H	0.992681	-0.546001	0.485371
H216	H	1.492681	-0.046001	0.985371
H217	H	0.932491	-0.546083	0.425099
H218	H	1.432491	-0.046083	0.925099
