data_functionalizedCrystal
_audit_creation_method	'MofGen! by Chris Wilmer'
_symmetry_space_group_name_H-M	'P1'
_symmetry_Int_Tables_number	1
_symmetry_cell_setting	triclinic
loop_
_symmetry_equiv_pos_as_xyz
  x,y,z
_cell_length_a	33.510554
_cell_length_b	33.509711
_cell_length_c	33.506470
_cell_angle_alpha	60.004186
_cell_angle_beta	60.008358
_cell_angle_gamma	59.994760
loop_
_atom_site_label
_atom_site_type_symbol
_atom_site_fract_x
_atom_site_fract_y
_atom_site_fract_z
O1	O	0.055430	-0.583081	0.487524
O2	O	0.388763	-0.249748	0.820857
O3	O	0.722096	0.083586	1.154191
O4	O	0.020931	-0.453975	0.392819
O5	O	0.354265	-0.120642	0.726153
O6	O	0.687598	0.212691	1.059486
O7	O	0.102693	-0.535652	0.392731
O8	O	0.436026	-0.202319	0.726064
O9	O	0.769359	0.131015	1.059397
O10	O	-0.026332	-0.501404	0.487613
O11	O	0.307002	-0.168071	0.820946
O12	O	0.640335	0.165262	1.154279
O13	O	0.129823	-0.508526	0.419767
O14	O	0.463157	-0.175193	0.753101
O15	O	0.796490	0.158140	1.086434
O16	O	0.048062	-0.426850	0.419856
O17	O	0.381395	-0.093516	0.753189
O18	O	0.714729	0.239817	1.086523
O19	O	0.082561	-0.555956	0.514561
O20	O	0.415894	-0.222622	0.847894
O21	O	0.749227	0.110711	1.181227
Cu22	Cu	0.067789	-0.488926	0.469677
Cu23	Cu	0.401122	-0.155593	0.803010
Cu24	Cu	0.734455	0.177741	1.136344
Cu25	Cu	0.035703	-0.521005	0.437703
Cu26	Cu	0.369037	-0.187672	0.771036
Cu27	Cu	0.702370	0.145662	1.104370
O28	O	0.000799	-0.474279	0.514649
O29	O	0.334133	-0.140946	0.847983
O30	O	0.667466	0.192388	1.181316
N31	N	0.090357	-0.466366	0.492168
N32	N	0.423690	-0.133033	0.825502
N33	N	0.757023	0.200300	1.158835
N34	N	0.013139	-0.543569	0.415212
N35	N	0.346473	-0.210235	0.748545
N36	N	0.679806	0.123098	1.081878
C37	C	0.143028	-0.279707	0.544737
C38	C	0.476361	0.053626	0.878070
C39	C	0.809695	0.386959	1.211403
C40	C	0.143165	-0.413746	0.678712
C41	C	0.476499	-0.080412	1.012045
C42	C	0.809832	0.252921	1.345379
C43	C	0.143043	-0.413725	0.544739
C44	C	0.476377	-0.080392	0.878072
C45	C	0.809710	0.252941	1.211405
C46	C	0.277090	-0.413694	0.544637
C47	C	0.610423	-0.080360	0.877970
C48	C	0.943756	0.252973	1.211303
C49	C	0.157791	-0.323929	0.559462
C50	C	0.491125	0.009404	0.892795
C51	C	0.824458	0.342737	1.226129
C52	C	0.157869	-0.398994	0.634489
C53	C	0.491203	-0.065660	0.967823
C54	C	0.824536	0.267673	1.301156
C55	C	0.232865	-0.398963	0.559407
C56	C	0.566199	-0.065630	0.892741
C57	C	0.899532	0.267704	1.226074
C58	C	0.157801	-0.398982	0.559463
C59	C	0.491135	-0.065648	0.892797
C60	C	0.824468	0.267685	1.226130
C61	C	0.124237	-0.223419	0.525994
C62	C	0.457570	0.109914	0.859327
C63	C	0.790904	0.443248	1.192660
C64	C	0.124262	-0.432490	0.525997
C65	C	0.457595	-0.099156	0.859330
C66	C	0.790928	0.234177	1.192664
C67	C	0.176583	-0.380217	0.578205
C68	C	0.509916	-0.046884	0.911538
C69	C	0.843249	0.286449	1.244872
C70	C	0.358938	-0.399566	0.501510
C71	C	0.692271	-0.066233	0.834843
C72	C	1.025604	0.267101	1.168177
C73	C	0.410104	-0.416609	0.484423
C74	C	0.743438	-0.083275	0.817756
C75	C	1.076771	0.250058	1.151089
C76	C	0.410135	-0.499402	0.515995
C77	C	0.743468	-0.166069	0.849329
C78	C	1.076801	0.167264	1.182662
C79	C	0.358969	-0.482358	0.533084
C80	C	0.692303	-0.149025	0.866417
C81	C	1.025636	0.184308	1.199751
C82	C	0.136554	-0.197822	0.475693
C83	C	0.469887	0.135511	0.809027
C84	C	0.803220	0.468844	1.142360
C85	C	0.119469	-0.146653	0.458657
C86	C	0.452802	0.186681	0.791990
C87	C	0.786135	0.520014	1.125323
C88	C	0.077755	-0.146680	0.542223
C89	C	0.411089	0.186654	0.875556
C90	C	0.744422	0.519987	1.208890
C91	C	0.094840	-0.197850	0.559260
C92	C	0.428173	0.135484	0.892593
C93	C	0.761507	0.468817	1.225926
C94	C	0.073954	-0.420144	0.538396
C95	C	0.407287	-0.086811	0.871729
C96	C	0.740620	0.246522	1.205062
C97	C	0.056884	-0.437203	0.521352
C98	C	0.390218	-0.103869	0.854686
C99	C	0.723551	0.229464	1.188019
C100	C	0.140427	-0.478952	0.479524
C101	C	0.473760	-0.145619	0.812857
C102	C	0.807094	0.187715	1.146190
C103	C	0.157498	-0.461894	0.496561
C104	C	0.490832	-0.128560	0.829894
C105	C	0.824165	0.204773	1.163228
C106	C	0.074158	-0.420182	0.760618
C107	C	0.407491	-0.086849	1.093951
C108	C	0.740825	0.246484	1.427284
C109	C	0.057149	-0.437256	0.811786
C110	C	0.390482	-0.103922	1.145119
C111	C	0.723815	0.229411	1.478453
C112	C	0.140732	-0.479014	0.811717
C113	C	0.474065	-0.145681	1.145050
C114	C	0.807399	0.187652	1.478384
C115	C	0.157740	-0.461942	0.760547
C116	C	0.491073	-0.128609	1.093881
C117	C	0.824407	0.204724	1.427214
C118	C	0.124452	-0.432525	0.734999
C119	C	0.457785	-0.099192	1.068332
C120	C	0.791119	0.234142	1.401666
C121	C	0.333372	-0.432439	0.525839
C122	C	0.666706	-0.099106	0.859172
C123	C	1.000039	0.234227	1.192506
C124	C	-0.020612	-0.577650	0.170305
C125	C	0.312721	-0.244317	0.503639
C126	C	0.646054	0.089017	0.836972
C127	C	-0.020943	-0.788098	0.380897
C128	C	0.312390	-0.454764	0.714231
C129	C	0.645724	-0.121431	1.047564
C130	C	-0.020912	-0.577638	0.380991
C131	C	0.312422	-0.244304	0.714324
C132	C	0.645755	0.089029	1.047657
C133	C	-0.231336	-0.577418	0.380585
C134	C	0.101997	-0.244084	0.713918
C135	C	0.435330	0.089249	1.047252
C136	C	-0.129735	-0.611383	0.346870
C137	C	0.203599	-0.278049	0.680203
C138	C	0.536932	0.055284	1.013537
C139	C	-0.054722	-0.611464	0.347017
C140	C	0.278611	-0.278130	0.680350
C141	C	0.611944	0.055203	1.013684
C142	C	-0.073450	-0.630202	0.328195
C143	C	0.259883	-0.296868	0.661528
C144	C	0.593216	0.036465	0.994862
C145	C	-0.087616	-0.712029	0.371239
C146	C	0.245717	-0.378696	0.704572
C147	C	0.579050	-0.045362	1.037905
C148	C	-0.070599	-0.763199	0.388315
C149	C	0.262735	-0.429866	0.721648
C150	C	0.596068	-0.096532	1.054982
C151	C	0.012191	-0.763282	0.356872
C152	C	0.345525	-0.429948	0.690205
C153	C	0.678858	-0.096615	1.023539
C154	C	-0.004828	-0.712113	0.339795
C155	C	0.328506	-0.378779	0.673128
C156	C	0.661839	-0.045446	1.006461
C157	C	-0.155381	-0.623711	0.397158
C158	C	0.177952	-0.290378	0.730491
C159	C	0.511286	0.042956	1.063825
C160	C	-0.206547	-0.606601	0.414133
C161	C	0.126786	-0.273268	0.747466
C162	C	0.460119	0.060066	1.080800
C163	C	-0.206417	-0.564839	0.330529
C164	C	0.126916	-0.231506	0.663862
C165	C	0.460249	0.101828	0.997196
C166	C	-0.155251	-0.581949	0.313554
C167	C	0.178082	-0.248616	0.646887
C168	C	0.511416	0.084718	0.980221
C169	C	-0.067051	-0.561160	0.334643
C170	C	0.266282	-0.227827	0.667976
C171	C	0.599615	0.105506	1.001309
C172	C	-0.050026	-0.544131	0.351759
C173	C	0.283307	-0.210797	0.685092
C174	C	0.616641	0.122536	1.018426
C175	C	-0.008343	-0.627704	0.393612
C176	C	0.324990	-0.294371	0.726945
C177	C	0.658323	0.038963	1.060279
C178	C	-0.025368	-0.644736	0.376502
C179	C	0.307965	-0.311402	0.709835
C180	C	0.641298	0.021931	1.043168
C181	C	-0.066922	-0.561168	0.246303
C182	C	0.266411	-0.227835	0.579636
C183	C	0.599744	0.105499	0.912969
C184	C	-0.049794	-0.544141	0.195134
C185	C	0.283539	-0.210807	0.528468
C186	C	0.616872	0.122526	0.861801
C187	C	-0.008048	-0.627719	0.195183
C188	C	0.325285	-0.294386	0.528516
C189	C	0.658618	0.038948	0.861849
C190	C	-0.025175	-0.644745	0.246352
C191	C	0.308158	-0.311412	0.579686
C192	C	0.641491	0.021922	0.913019
C193	C	-0.054614	-0.611468	0.271911
C194	C	0.278720	-0.278135	0.605244
C195	C	0.612053	0.055198	0.938578
C196	C	-0.054732	-0.686488	0.346980
C197	C	0.278601	-0.353155	0.680314
C198	C	0.611934	-0.019821	1.013647
C199	C	-0.002117	-0.558258	0.114025
C200	C	0.331217	-0.224925	0.447359
C201	C	0.664550	0.108409	0.780692
C202	C	-0.002879	-0.844379	0.399940
C203	C	0.330454	-0.511046	0.733274
C204	C	0.663788	-0.177712	1.066607
C205	C	-0.002504	-0.558243	0.399473
C206	C	0.330829	-0.224909	0.732806
C207	C	0.664163	0.108424	1.066139
C208	C	-0.287615	-0.558285	0.398601
C209	C	0.045718	-0.224951	0.731935
C210	C	0.379052	0.108382	1.065268
N211	N	0.434975	-0.466279	0.491900
N212	N	0.768308	-0.132945	0.825233
N213	N	1.101642	0.200388	1.158566
O214	O	0.591199	-0.470749	0.375150
O215	O	0.924533	-0.137415	0.708483
O216	O	1.257866	0.195918	1.041816
O217	O	0.591395	-0.565767	0.504116
O218	O	0.924728	-0.232433	0.837450
O219	O	1.258061	0.100900	1.170783
O220	O	0.591311	-0.565550	0.422329
O221	O	0.924644	-0.232217	0.755662
O222	O	1.257977	0.101117	1.088995
O223	O	0.591283	-0.470966	0.456937
O224	O	0.924617	-0.137632	0.790271
O225	O	1.257950	0.195701	1.123604
O226	O	0.510024	-0.538522	0.449509
O227	O	0.843357	-0.205189	0.782842
O228	O	1.176691	0.128144	1.116175
O229	O	0.510108	-0.538739	0.531297
O230	O	0.843442	-0.205406	0.864630
O231	O	1.176775	0.127928	1.197963
O232	O	0.509913	-0.443721	0.402330
O233	O	0.843246	-0.110388	0.735663
O234	O	1.176579	0.222946	1.068996
Cu235	Cu	0.502588	-0.488762	0.469295
Cu236	Cu	0.835922	-0.155429	0.802628
Cu237	Cu	1.169255	0.177904	1.135962
Cu238	Cu	0.598719	-0.520726	0.437151
Cu239	Cu	0.932052	-0.187392	0.770485
Cu240	Cu	1.265386	0.145941	1.103818
O241	O	0.509997	-0.443938	0.484117
O242	O	0.843330	-0.110605	0.817451
O243	O	1.176663	0.222729	1.150784
N244	N	0.666332	-0.543209	0.414541
N245	N	0.999666	-0.209876	0.747875
N246	N	1.332999	0.123457	1.081208
N247	N	0.090323	-0.121809	0.492157
N248	N	0.423656	0.211524	0.825490
N249	N	0.756990	0.544857	1.158824
O250	O	-0.026342	0.034503	0.487582
O251	O	0.306991	0.367837	0.820915
O252	O	0.640324	0.701170	1.154248
O253	O	0.102626	0.034543	0.392540
O254	O	0.435960	0.367876	0.725873
O255	O	0.769293	0.701209	1.059207
O256	O	0.020797	0.034507	0.392812
O257	O	0.354131	0.367840	0.726145
O258	O	0.687464	0.701174	1.059478
O259	O	0.055487	0.034539	0.487310
O260	O	0.388820	0.367872	0.820644
O261	O	0.722153	0.701206	1.153977
O262	O	0.047933	-0.046785	0.419900
O263	O	0.381267	0.286548	0.753233
O264	O	0.714600	0.619882	1.086566
O265	O	0.129763	-0.046749	0.419628
O266	O	0.463096	0.286584	0.752962
O267	O	0.796429	0.619917	1.086295
O268	O	0.000794	-0.046789	0.514670
O269	O	0.334127	0.286545	0.848003
O270	O	0.667460	0.619878	1.181337
Cu271	Cu	0.067756	-0.054192	0.469623
Cu272	Cu	0.401089	0.279142	0.802956
Cu273	Cu	0.734422	0.612475	1.136289
Cu274	Cu	0.035664	0.041946	0.437588
Cu275	Cu	0.368998	0.375279	0.770921
Cu276	Cu	0.702331	0.708612	1.104254
O277	O	0.082623	-0.046753	0.514399
O278	O	0.415956	0.286580	0.847732
O279	O	0.749289	0.619914	1.181065
N280	N	0.013091	0.109564	0.415054
N281	N	0.346424	0.442897	0.748387
N282	N	0.679758	0.776230	1.081721
N283	N	0.090671	-0.466416	0.836606
N284	N	0.424004	-0.133083	1.169939
N285	N	0.757337	0.200251	1.503273
O286	O	0.086120	-0.583065	0.992910
O287	O	0.419453	-0.249731	1.326244
O288	O	0.752786	0.083602	1.659577
O289	O	-0.008880	-0.454051	0.992954
O290	O	0.324453	-0.120718	1.326288
O291	O	0.657787	0.212615	1.659621
O292	O	-0.008658	-0.535864	0.992931
O293	O	0.324675	-0.202531	1.326265
O294	O	0.658009	0.130802	1.659598
O295	O	0.085897	-0.501252	0.992933
O296	O	0.419231	-0.167918	1.326267
O297	O	0.752564	0.165415	1.659600
O298	O	0.018407	-0.508749	0.911642
O299	O	0.351740	-0.175415	1.244976
O300	O	0.685074	0.157918	1.578309
O301	O	0.018185	-0.426936	0.911665
O302	O	0.351518	-0.093602	1.244999
O303	O	0.684852	0.239731	1.578332
O304	O	0.113185	-0.555949	0.911621
O305	O	0.446518	-0.222616	1.244955
O306	O	0.779851	0.110717	1.578288
Cu307	Cu	0.068156	-0.488967	0.904221
Cu308	Cu	0.401489	-0.155633	1.237554
Cu309	Cu	0.734823	0.177700	1.570888
Cu310	Cu	0.036148	-0.521034	1.000355
Cu311	Cu	0.369482	-0.187700	1.333688
Cu312	Cu	0.702815	0.145633	1.667021
O313	O	0.112963	-0.474136	0.911644
O314	O	0.446296	-0.140803	1.244978
O315	O	0.779629	0.192530	1.578311
N316	N	0.013633	-0.543590	1.067970
N317	N	0.346966	-0.210256	1.401303
N318	N	0.680300	0.123077	1.734636
C319	C	0.031262	-0.424144	0.393290
C320	C	0.364596	-0.090811	0.726623
C321	C	0.697929	0.242523	1.059957
C322	C	0.132513	-0.525291	0.393180
C323	C	0.465847	-0.191957	0.726513
C324	C	0.799180	0.141376	1.059846
C325	C	0.072229	-0.585787	0.514090
C326	C	0.405562	-0.252454	0.847423
C327	C	0.738896	0.080879	1.180756
C328	C	-0.029022	-0.484640	0.514200
C329	C	0.304311	-0.151307	0.847533
C330	C	0.637645	0.182026	1.180867
C331	C	0.550775	-0.565338	0.533954
C332	C	0.884108	-0.232004	0.867288
C333	C	1.217442	0.101329	1.200621
C334	C	0.550672	-0.565070	0.432670
C335	C	0.884006	-0.231736	0.766003
C336	C	1.217339	0.101597	1.099337
C337	C	0.550530	-0.444149	0.372492
C338	C	0.883863	-0.110816	0.705826
C339	C	1.217196	0.222517	1.039159
C340	C	0.550635	-0.444418	0.473776
C341	C	0.883969	-0.111085	0.807109
C342	C	1.217302	0.222248	1.140443
C343	C	0.132408	-0.005998	0.392963
C344	C	0.465741	0.327335	0.726297
C345	C	0.799074	0.660668	1.059630
C346	C	0.031106	-0.006142	0.393333
C347	C	0.364439	0.327191	0.726666
C348	C	0.697773	0.660524	1.059999
C349	C	-0.029021	-0.006147	0.514213
C350	C	0.304312	0.327186	0.847547
C351	C	0.637645	0.660520	1.180880
C352	C	0.072314	-0.006104	0.513878
C353	C	0.405648	0.327229	0.847211
C354	C	0.738981	0.660562	1.180544
C355	C	-0.008430	-0.424240	0.952316
C356	C	0.324903	-0.090907	1.285649
C357	C	0.658236	0.242426	1.618982
C358	C	-0.008150	-0.525550	0.952271
C359	C	0.325183	-0.192217	1.285605
C360	C	0.658517	0.141116	1.618938
C361	C	0.112735	-0.585760	0.952260
C362	C	0.446068	-0.252427	1.285593
C363	C	0.779402	0.080906	1.618927
C364	C	0.112461	-0.484444	0.952286
C365	C	0.445794	-0.151111	1.285620
C366	C	0.779127	0.182222	1.618953
H367	H	0.016194	-0.427197	0.832639
H368	H	0.349527	-0.093864	1.165973
H369	H	0.682861	0.239470	1.499306
H370	H	0.142562	-0.622811	0.952240
H371	H	0.475895	-0.289477	1.285573
H372	H	0.809229	0.043856	1.618907
H373	H	0.169570	-0.532590	0.363385
H374	H	0.502903	-0.199257	0.696718
H375	H	0.836237	0.134076	1.030051
F376	F	0.550691	-0.603909	0.422991
F377	F	0.884024	-0.270575	0.756324
F378	F	1.217357	0.062758	1.089657
F379	F	0.021629	-0.375668	0.354410
F380	F	0.354962	-0.042334	0.687744
F381	F	0.688296	0.290999	1.021077
H382	H	-0.038255	-0.387188	0.952329
H383	H	0.295078	-0.053854	1.285663
H384	H	0.628411	0.279479	1.618996
F385	F	0.082023	-0.006092	0.552684
F386	F	0.415357	0.327241	0.886017
F387	F	0.748690	0.660574	1.219351
F388	F	0.081864	-0.634262	0.552970
F389	F	0.415197	-0.300929	0.886304
F390	F	0.748530	0.032404	1.219637
F391	F	-0.098329	-0.525747	0.303301
F392	F	0.235004	-0.192414	0.636635
F393	F	0.568338	0.140920	0.969968
F394	F	0.550448	-0.405155	0.324082
F395	F	0.883782	-0.071821	0.657416
F396	F	1.217115	0.261512	0.990749
H397	H	0.550629	-0.414708	0.481180
H398	H	0.883963	-0.081374	0.814514
H399	H	1.217296	0.251959	1.147847
F400	F	-0.077460	-0.475105	0.553142
F401	F	0.255873	-0.141772	0.886476
F402	F	0.589207	0.191561	1.219809
H403	H	0.023675	-0.006147	0.363643
H404	H	0.357008	0.327187	0.696976
H405	H	0.690341	0.660520	1.030310
F406	F	-0.077431	-0.006163	0.553213
F407	F	0.255902	0.327170	0.886547
F408	F	0.589235	0.660503	1.219880
F409	F	-0.046962	-0.535214	0.952228
F410	F	0.286371	-0.201881	1.285561
F411	F	0.619704	0.131453	1.618895
H412	H	0.142166	-0.477036	0.952281
H413	H	0.475500	-0.143703	1.285614
H414	H	0.808833	0.189631	1.618948
F415	F	0.550842	-0.604327	0.582369
F416	F	0.884175	-0.270994	0.915703
F417	F	1.217509	0.062339	1.249036
F418	F	0.180719	-0.005689	0.353866
F419	F	0.514052	0.327644	0.687200
F420	F	0.847386	0.660978	1.020533
H421	H	0.047048	-0.396226	0.739820
H422	H	0.380381	-0.062892	1.073154
H423	H	0.713715	0.270441	1.406487
H424	H	0.167840	-0.502959	0.832516
H425	H	0.501174	-0.169625	1.165850
H426	H	0.834507	0.163708	1.499183
F427	F	-0.128225	-0.655038	0.432616
F428	F	0.205108	-0.321705	0.765949
F429	F	0.538441	0.011629	1.099282
F430	F	0.211272	-0.475082	0.733286
F431	F	0.544605	-0.141748	1.066619
F432	F	0.877938	0.191585	1.399952
H433	H	0.015920	-0.427139	0.531437
H434	H	0.349253	-0.093806	0.864770
H435	H	0.682586	0.239527	1.198103
F436	F	0.038578	-0.388849	0.569720
F437	F	0.371911	-0.055515	0.903054
F438	F	0.705244	0.277818	1.236387
H439	H	0.167497	-0.502899	0.455559
H440	H	0.500830	-0.169566	0.788893
H441	H	0.834163	0.163767	1.122226
H442	H	0.198463	-0.471942	0.486461
H443	H	0.531797	-0.138609	0.819794
H444	H	0.865130	0.194724	1.153127
H445	H	0.338156	-0.509129	0.552896
H446	H	0.671489	-0.175796	0.886229
H447	H	1.004823	0.157537	1.219563
H448	H	0.430973	-0.540048	0.521891
H449	H	0.764307	-0.206715	0.855224
H450	H	1.097640	0.126618	1.188557
H451	H	0.430920	-0.389838	0.464614
H452	H	0.764254	-0.056505	0.797947
H453	H	1.097587	0.276828	1.131280
H454	H	0.338097	-0.358917	0.495611
H455	H	0.671431	-0.025584	0.828944
H456	H	1.004764	0.307750	1.162277
H457	H	0.129496	-0.125810	0.417697
H458	H	0.462830	0.207523	0.751030
H459	H	0.796163	0.540856	1.084364
F460	F	0.046475	-0.119466	0.577629
F461	F	0.379808	0.213867	0.910962
F462	F	0.713142	0.547200	1.244296
F463	F	0.081727	-0.225088	0.612795
F464	F	0.415061	0.108245	0.946129
F465	F	0.748394	0.441579	1.279462
F466	F	0.167841	-0.225032	0.440286
F467	F	0.501174	0.108301	0.773619
F468	F	0.834507	0.441635	1.106953
H469	H	-0.090896	-0.534066	0.267110
H470	H	0.242438	-0.200733	0.600444
H471	H	0.575771	0.132600	0.933777
F472	F	-0.062904	-0.490602	0.167887
F473	F	0.270430	-0.157268	0.501221
F474	F	0.603763	0.176065	0.834554
H475	H	0.015913	-0.654818	0.174378
H476	H	0.349246	-0.321485	0.507711
H477	H	0.682579	0.011848	0.841045
H478	H	-0.015148	-0.685706	0.267200
H479	H	0.318186	-0.352373	0.600533
H480	H	0.651519	-0.019040	0.933866
H481	H	0.015562	-0.654800	0.417614
H482	H	0.348895	-0.321467	0.750947
H483	H	0.682228	0.011867	1.084280
F484	F	-0.012244	-0.698274	0.389665
F485	F	0.321089	-0.364941	0.722998
F486	F	0.654423	-0.031607	1.056332
F487	F	-0.063148	-0.490592	0.338592
F488	F	0.270186	-0.157259	0.671926
F489	F	0.603519	0.176074	1.005259
H490	H	0.052828	-0.784146	0.351024
H491	H	0.386161	-0.450813	0.684357
H492	H	0.719494	-0.117480	1.017691
F493	F	0.030175	-0.684931	0.313978
F494	F	0.363508	-0.351597	0.647311
F495	F	0.696842	-0.018264	0.980644
H496	H	-0.097376	-0.783993	0.408060
H497	H	0.235957	-0.450660	0.741393
H498	H	0.569290	-0.117326	1.074727
H499	H	-0.227429	-0.616637	0.455084
H500	H	0.105904	-0.283304	0.788417
H501	H	0.439237	0.050030	1.121751
F502	F	-0.140730	-0.684761	0.378890
F503	F	0.192603	-0.351428	0.712223
F504	F	0.525937	-0.018095	1.045556
H505	H	-0.134369	-0.571905	0.272603
H506	H	0.198964	-0.238572	0.605936
H507	H	0.532298	0.094762	0.939270
F508	F	-0.233575	-0.533517	0.295071
F509	F	0.099758	-0.200184	0.628404
F510	F	0.433091	0.133149	0.961738
