data_functionalizedCrystal
_audit_creation_method	'MofGen! by Chris Wilmer'
_symmetry_space_group_name_H-M	'P1'
_symmetry_Int_Tables_number	1
_symmetry_cell_setting	triclinic
loop_
_symmetry_equiv_pos_as_xyz
  x,y,z
_cell_length_a	18.101395
_cell_length_b	17.640112
_cell_length_c	17.637815
_cell_angle_alpha	109.604340
_cell_angle_beta	101.175386
_cell_angle_gamma	101.255692
loop_
_atom_site_label
_atom_site_type_symbol
_atom_site_fract_x
_atom_site_fract_y
_atom_site_fract_z
Zn1	Zn	-0.113925	1.165492	-0.211664
Zn2	Zn	0.386075	1.665492	0.288336
Zn3	Zn	-0.206415	1.193257	-0.073894
Zn4	Zn	0.293585	1.693257	0.426106
Zn5	Zn	-0.113966	1.055566	-0.101697
Zn6	Zn	0.386034	1.555566	0.398303
Zn7	Zn	-0.269130	1.027641	-0.239447
Zn8	Zn	0.230870	1.527641	0.260553
O9	O	-0.175859	1.110489	-0.156676
O10	O	0.324141	1.610489	0.343324
O11	O	-0.099931	1.284489	-0.170126
O12	O	0.400069	1.784489	0.329874
O13	O	-0.167923	1.198298	0.037723
O14	O	0.332077	1.698298	0.537723
O15	O	-0.010317	1.070215	-0.116292
O16	O	0.489683	1.570215	0.383708
O17	O	-0.167883	1.304888	-0.068908
O18	O	0.332117	1.804888	0.431092
O19	O	-0.010287	1.150977	-0.197085
O20	O	0.489713	1.650977	0.302915
O21	O	-0.100001	1.097137	0.017297
O22	O	0.399999	1.597137	0.517297
O23	O	-0.160812	0.936547	-0.143232
O24	O	0.339188	1.436547	0.356768
O25	O	-0.274771	1.022621	-0.351067
O26	O	0.225229	1.522621	0.148933
O27	O	-0.274810	0.916031	-0.244436
O28	O	0.225190	1.416031	0.255564
O29	O	-0.160742	1.123899	-0.330656
O30	O	0.339258	1.623899	0.169344
O31	O	-0.318379	1.171220	-0.095847
O32	O	0.181621	1.671220	0.404153
O33	O	-0.364455	1.049544	-0.217478
O34	O	0.135545	1.549544	0.282522
C35	C	-0.224622	0.896389	-0.199866
C36	C	0.275378	1.396389	0.300134
C37	C	-0.245505	0.804792	-0.218363
C38	C	0.254495	1.304792	0.281637
C39	C	-0.017201	0.556753	-0.016165
C40	C	0.482799	1.056753	0.483835
C41	C	-0.036841	0.470682	-0.033557
C42	C	0.463159	0.970682	0.466443
C43	C	-0.155636	0.449410	-0.138759
C44	C	0.344364	0.949410	0.361241
C45	C	-0.136004	0.535480	-0.121379
C46	C	0.363996	1.035480	0.378621
C47	C	-0.066786	0.589146	-0.060081
C48	C	0.433214	1.089146	0.439919
C49	C	-0.185589	0.567873	-0.165294
C50	C	0.314411	1.067873	0.334706
C51	C	-0.165960	0.653937	-0.147913
C52	C	0.334040	1.153937	0.352087
C53	C	-0.096746	0.707608	-0.086615
C54	C	0.403254	1.207608	0.413385
C55	C	-0.047156	0.675210	-0.042699
C56	C	0.452844	1.175210	0.457301
C57	C	-0.254810	0.514207	-0.226589
C58	C	0.245190	1.014207	0.273411
C59	C	-0.304394	0.546599	-0.270504
C60	C	0.195606	1.046599	0.229496
C61	C	-0.284763	0.632664	-0.253127
C62	C	0.215237	1.132664	0.246873
C63	C	-0.215549	0.686335	-0.191829
C64	C	0.284451	1.186335	0.308171
C65	C	-0.334352	0.665062	-0.297043
C66	C	0.165648	1.165062	0.202957
C67	C	-0.314723	0.751126	-0.279661
C68	C	0.185277	1.251126	0.220339
C69	C	-0.195920	0.772399	-0.174447
C70	C	0.304080	1.272399	0.325553
C71	C	-0.368289	1.110383	-0.156674
C72	C	0.131711	1.610383	0.343326
C73	C	-0.450601	1.110408	-0.156685
C74	C	0.049399	1.610408	0.343315
C75	C	-0.749661	1.110580	-0.156693
C76	C	-0.249661	1.610580	0.343307
C77	C	-0.747358	1.034140	-0.233348
C78	C	-0.247358	1.534140	0.266652
C79	C	-0.661764	1.033879	-0.233209
C80	C	-0.161764	1.533879	0.266791
C81	C	-0.601294	1.110495	-0.156690
C82	C	-0.101294	1.610495	0.343310
C83	C	-0.618022	1.104555	-0.074590
C84	C	-0.118022	1.604555	0.425410
C85	C	-0.703847	1.104068	-0.075055
C86	C	-0.203847	1.604068	0.424945
C87	C	-0.703209	1.193253	-0.161345
C88	C	-0.203209	1.693253	0.338655
C89	C	-0.618109	1.192355	-0.163353
C90	C	-0.118109	1.692355	0.336647
C91	C	-0.517442	1.110449	-0.156682
C92	C	-0.017442	1.610449	0.343318
C93	C	-0.833512	1.110625	-0.156695
C94	C	-0.333512	1.610625	0.343305
C95	C	0.017324	1.110613	-0.156691
C96	C	0.517324	1.610613	0.343309
C97	C	0.099646	1.110666	-0.156698
C98	C	0.599646	1.610666	0.343302
C99	C	-0.224748	1.067048	-0.371595
C100	C	0.275252	1.567048	0.128405
C101	C	-0.245581	1.048536	-0.463181
C102	C	0.254419	1.548536	0.036819
C103	C	-0.126907	1.325425	-0.113317
C104	C	0.373093	1.825425	0.386683
C105	C	-0.106046	1.417018	-0.094840
C106	C	0.393954	1.917018	0.405160
C107	C	-0.017277	1.251300	-0.711260
C108	C	0.482723	1.751300	-0.211260
C109	C	-0.036872	1.233897	-0.797320
C110	C	0.463128	1.733897	-0.297320
C111	C	-0.155599	1.128445	-0.818563
C112	C	0.344401	1.628445	-0.318563
C113	C	-0.136016	1.145843	-0.732502
C114	C	0.363984	1.645843	-0.232502
C115	C	-0.066854	1.207271	-0.678856
C116	C	0.433146	1.707271	-0.178856
C117	C	-0.185593	1.101813	-0.700098
C118	C	0.314407	1.601813	-0.200098
C119	C	-0.166009	1.119207	-0.614045
C120	C	0.333991	1.619207	-0.114045
C121	C	-0.096849	1.180630	-0.560395
C122	C	0.403151	1.680630	-0.060395
C123	C	-0.047270	1.224664	-0.592803
C124	C	0.452730	1.724664	-0.092803
C125	C	-0.254753	1.040381	-0.753746
C126	C	0.245247	1.540381	-0.253746
C127	C	-0.304329	0.996351	-0.721343
C128	C	0.195671	1.496351	-0.221343
C129	C	-0.284749	1.013749	-0.635287
C130	C	0.215251	1.513749	-0.135287
C131	C	-0.215588	1.075172	-0.581637
C132	C	0.284412	1.575172	-0.081637
C133	C	-0.334327	0.969714	-0.602879
C134	C	0.165673	1.469714	-0.102879
C135	C	-0.314743	0.987108	-0.516826
C136	C	0.185257	1.487108	-0.016826
C137	C	-0.196004	1.092566	-0.495584
C138	C	0.303996	1.592566	0.004416
C139	C	-0.127097	1.153808	0.057417
C140	C	0.372903	1.653808	0.557417
C141	C	-0.106018	1.172479	0.149035
C142	C	0.393982	1.672479	0.649035
H143	H	0.039172	0.600449	0.033738
H144	H	0.539172	1.100449	0.533738
Br145	Br	-0.070108	0.824413	-0.063016
Br146	Br	0.429892	1.324413	0.436984
Br147	Br	-0.102147	1.175946	-0.422769
Br148	Br	0.397853	1.675946	0.077231
H149	H	0.003546	0.444312	0.002204
H150	H	0.503546	0.944312	0.502204
Br151	Br	-0.249581	0.376574	-0.221934
Br152	Br	0.250419	0.876574	0.278066
Br153	Br	-0.599045	1.005937	-0.063824
Br154	Br	-0.099045	1.505937	0.436176
H155	H	-0.390636	0.919694	-0.646570
H156	H	0.109364	1.419694	-0.146570
H157	H	-0.703278	1.158281	-0.016939
H158	H	-0.203278	1.658281	0.483061
H159	H	0.039040	1.301325	-0.667577
H160	H	0.539040	1.801325	-0.167577
H161	H	-0.780263	0.972861	-0.231760
H162	H	-0.280263	1.472861	0.268240
H163	H	0.009047	1.274689	-0.549121
H164	H	0.509047	1.774689	-0.049121
Br165	Br	-0.398339	0.473764	-0.353679
Br166	Br	0.101661	0.973764	0.146321
Br167	Br	-0.428300	0.592225	-0.380211
Br168	Br	0.071700	1.092225	0.119789
H169	H	-0.270789	0.444129	-0.240738
H170	H	0.229211	0.944129	0.259262
H171	H	0.003508	1.269751	-0.823699
H172	H	0.503508	1.769751	-0.323699
H173	H	0.009216	0.718906	0.007204
H174	H	0.509216	1.218906	0.507204
H175	H	-0.270690	1.026213	-0.823817
H176	H	0.229310	1.526213	-0.323817
Br177	Br	-0.382020	0.795094	-0.339256
Br178	Br	0.117980	1.295094	0.160744
Br179	Br	-0.701355	1.287817	-0.067947
Br180	Br	-0.201355	1.787817	0.432053
Br181	Br	-0.645511	1.036677	-0.335590
Br182	Br	-0.145511	1.536677	0.164410
Br183	Br	-0.249458	1.045078	-0.891374
Br184	Br	0.250542	1.545078	-0.391374
Br185	Br	-0.800603	1.036620	-0.336131
Br186	Br	-0.300603	1.536620	0.163869
H187	H	-0.080905	1.194791	-0.490326
H188	H	0.419095	1.694791	0.009674
Br189	Br	-0.398188	0.912985	-0.794153
Br190	Br	0.101812	1.412985	-0.294153
Br191	Br	-0.646663	0.931147	-0.230392
Br192	Br	-0.146663	1.431147	0.269608
H193	H	-0.734117	1.044157	-0.069072
H194	H	-0.234117	1.544157	0.430928
Br195	Br	-0.382024	0.927350	-0.472846
Br196	Br	0.117976	1.427350	0.027154
Br197	Br	-0.548509	1.195722	0.021922
Br198	Br	-0.048509	1.695722	0.521922
H199	H	-0.139547	0.816095	-0.124544
H200	H	0.360453	1.316095	0.375456
H201	H	-0.734051	1.202094	-0.219266
H202	H	-0.234051	1.702094	0.280734
H203	H	-0.608263	1.197153	-0.223687
H204	H	-0.108263	1.697153	0.276313
Br205	Br	-0.547127	1.289955	-0.074752
Br206	Br	-0.047127	1.789955	0.425248
