data_functionalizedCrystal
_audit_creation_method	'MofGen! by Chris Wilmer'
_symmetry_space_group_name_H-M	'P1'
_symmetry_Int_Tables_number	1
_symmetry_cell_setting	triclinic
loop_
_symmetry_equiv_pos_as_xyz
  x,y,z
_cell_length_a	17.699083
_cell_length_b	19.188930
_cell_length_c	16.776229
_cell_angle_alpha	89.988225
_cell_angle_beta	89.998886
_cell_angle_gamma	83.213899
loop_
_atom_site_label
_atom_site_type_symbol
_atom_site_fract_x
_atom_site_fract_y
_atom_site_fract_z
O1	O	1.003962	0.088294	-0.066185
O2	O	1.503962	0.588294	0.433815
O3	O	0.783569	0.099782	-0.066213
O4	O	1.283569	0.599782	0.433787
O5	O	0.900126	-0.007611	-0.066183
O6	O	1.400126	0.492389	0.433817
O7	O	0.887405	0.195686	-0.066215
O8	O	1.387405	0.695686	0.433785
O9	O	0.900110	-0.007617	0.066394
O10	O	1.400110	0.492383	0.566394
O11	O	0.783553	0.099775	0.066364
O12	O	1.283553	0.599775	0.566364
O13	O	1.003947	0.088288	0.066391
O14	O	1.503947	0.588288	0.566391
Zn15	Zn	0.893748	0.094030	0.087427
Zn16	Zn	1.393748	0.594030	0.587427
Zn17	Zn	0.893768	0.094039	-0.087249
Zn18	Zn	1.393768	0.594039	0.412751
O19	O	0.887390	0.195680	0.066361
O20	O	1.387390	0.695680	0.566361
C21	C	0.755365	0.099367	0.000072
C22	C	1.255365	0.599367	0.500072
C23	C	0.671348	0.098132	0.000062
C24	C	1.171348	0.598132	0.500062
C25	C	0.622644	0.161169	0.000053
C26	C	1.122644	0.661169	0.500053
C27	C	0.543702	0.160004	0.000063
C28	C	1.043702	0.660004	0.500063
C29	C	0.513466	0.095802	0.000078
C30	C	1.013466	0.595802	0.500078
C31	C	0.562176	0.032761	0.000090
C32	C	1.062176	0.532761	0.500090
C33	C	0.641117	0.033926	0.000085
C34	C	1.141117	0.533926	0.500085
C35	C	0.243819	0.028060	0.000111
C36	C	0.743819	0.528060	0.500111
C37	C	0.164873	0.026900	0.000113
C38	C	0.664873	0.526900	0.500113
C39	C	0.146405	0.154139	0.000088
C40	C	0.646405	0.654139	0.500088
C41	C	0.225345	0.155304	0.000084
C42	C	0.725345	0.655304	0.500084
C43	C	0.274049	0.092263	0.000100
C44	C	0.774049	0.592263	0.500100
C45	C	0.359646	0.093526	0.000090
C46	C	0.859646	0.593526	0.500090
C47	C	0.427870	0.094538	0.000082
C48	C	0.927870	0.594538	0.500082
C49	C	0.899706	-0.033625	0.000108
C50	C	1.399706	0.466375	0.500108
C51	C	0.898469	-0.111131	0.000114
C52	C	1.398469	0.388869	0.500114
C53	C	0.966861	-0.155978	0.000127
C54	C	1.466861	0.344022	0.500127
C55	C	0.965699	-0.228804	0.000114
C56	C	1.465699	0.271196	0.500114
C57	C	0.896142	-0.256778	0.000105
C58	C	1.396142	0.243222	0.500105
C59	C	0.827741	-0.211921	0.000088
C60	C	1.327741	0.288079	0.500088
C61	C	0.828905	-0.139098	0.000093
C62	C	1.328905	0.360902	0.500093
N63	N	0.842969	-0.364845	0.045216
N64	N	1.342969	0.135155	0.545216
N65	N	0.841868	-0.434025	0.045213
N66	N	1.341868	0.065975	0.545213
C67	C	0.892632	-0.476191	0.000088
C68	C	1.392632	0.023809	0.500088
N69	N	0.944550	-0.446565	-0.045024
N70	N	1.444550	0.053435	0.454976
N71	N	0.945653	-0.377379	-0.045018
N72	N	1.445653	0.122621	0.454982
C73	C	0.894873	-0.335742	0.000099
C74	C	1.394873	0.164258	0.500099
C75	C	0.959769	-0.600004	0.000085
C76	C	1.459769	-0.100004	0.500085
C77	C	0.958604	-0.672830	0.000067
C78	C	1.458604	-0.172830	0.500067
C79	C	0.820644	-0.655946	0.000049
C80	C	1.320644	-0.155946	0.500049
C81	C	0.821811	-0.583121	0.000059
C82	C	1.321811	-0.083121	0.500059
C83	C	0.891375	-0.555155	0.000081
C84	C	1.391375	-0.055155	0.500081
C85	C	1.032151	0.088703	0.000104
C86	C	1.532151	0.588703	0.500104
C87	C	1.116167	0.089938	0.000109
C88	C	1.616167	0.589938	0.500109
C89	C	0.887810	0.221695	0.000069
C90	C	1.387810	0.721695	0.500069
C91	C	0.889046	0.299201	0.000057
C92	C	1.389046	0.799201	0.500057
N93	N	0.893739	0.094024	0.206638
N94	N	1.393739	0.594024	0.706638
N95	N	0.893782	0.094040	-0.206460
N96	N	1.393782	0.594040	0.293540
C97	C	0.945366	0.046490	0.248368
C98	C	1.445366	0.546490	0.748368
C99	C	0.945370	0.046490	0.331821
C100	C	1.445370	0.546490	0.831821
C101	C	0.893751	0.094027	0.373541
C102	C	1.393751	0.594027	0.873541
C103	C	0.842118	0.141563	0.331805
C104	C	1.342118	0.641563	0.831805
C105	C	0.842111	0.141559	0.248354
C106	C	1.342111	0.641559	0.748354
C107	C	0.842146	0.141576	0.668352
C108	C	1.342146	0.641576	1.168352
C109	C	0.842158	0.141578	0.751808
C110	C	1.342158	0.641578	1.251808
C111	C	0.945405	0.046507	0.751818
C112	C	1.445405	0.546507	1.251818
C113	C	0.945398	0.046503	0.668368
C114	C	1.445398	0.546503	1.168368
C115	C	0.893763	0.094037	0.626639
C116	C	1.393763	0.594037	1.126639
C117	C	0.893758	0.094036	0.536150
C118	C	1.393758	0.594036	1.036150
C119	C	0.893759	0.094031	0.464028
C120	C	1.393759	0.594031	0.964028
H121	H	0.106741	0.205470	0.000079
H122	H	0.606741	0.705470	0.500079
C123	C	1.002198	-0.005788	0.797728
C124	C	1.502198	0.494212	1.297728
N125	N	1.044974	-0.045174	0.832305
N126	N	1.544974	0.454826	1.332305
H127	H	0.773210	-0.102582	0.000083
H128	H	1.273210	0.397418	0.500083
H129	H	0.140258	-0.025384	0.000126
H130	H	0.640258	0.474616	0.500126
H131	H	0.764009	-0.678722	0.000038
H132	H	1.264009	-0.178722	0.500038
C133	C	1.002153	-0.005806	0.202484
C134	C	1.502153	0.494194	0.702484
N135	N	1.044924	-0.045199	0.167926
N136	N	1.544924	0.454801	0.667926
C137	C	0.746573	-0.533787	0.000050
C138	C	1.246573	-0.033787	0.500050
N139	N	0.689901	-0.496628	0.000040
N140	N	1.189901	0.003372	0.500040
H141	H	0.987409	0.007784	0.365797
H142	H	1.487409	0.507784	0.865797
C143	C	1.040939	-0.278145	0.000132
C144	C	1.540939	0.221855	0.500132
N145	N	1.097609	-0.315306	0.000149
N146	N	1.597609	0.184694	0.500149
H147	H	0.987434	0.007797	0.634402
H148	H	1.487434	0.507797	1.134402
H149	H	0.800104	0.180281	0.634383
H150	H	1.300104	0.680281	1.134383
C151	C	0.785365	0.193870	0.797699
C152	C	1.285365	0.693870	1.297699
N153	N	0.742590	0.233254	0.832264
N154	N	1.242590	0.733254	1.332264
H155	H	0.504050	0.211335	0.000054
H156	H	1.004050	0.711335	0.500054
C157	C	0.297383	-0.041288	0.000123
C158	C	0.797383	0.458712	0.500123
N159	N	0.337730	-0.093524	0.000132
N160	N	0.837730	0.406476	0.500132
H161	H	0.800085	0.180266	0.365778
H162	H	1.300085	0.680266	0.865778
H163	H	0.800070	0.180265	0.214378
H164	H	1.300070	0.680265	0.714378
C165	C	1.043384	-0.125220	0.000144
C166	C	1.543384	0.374780	0.500144
N167	N	1.101022	-0.102052	0.000155
N168	N	1.601022	0.397948	0.500155
C169	C	0.655896	0.231797	0.000038
C170	C	1.155896	0.731797	0.500038
N171	N	0.680939	0.284997	0.000030
N172	N	1.180939	0.784997	0.500030
H173	H	0.771107	-0.234702	0.000079
H174	H	1.271107	0.265298	0.500079
H175	H	0.537552	-0.019514	0.000113
H176	H	1.037552	0.480486	0.500113
H177	H	0.249959	0.207584	0.000068
H178	H	0.749959	0.707584	0.500068
H179	H	0.680771	-0.017406	0.000093
H180	H	1.180771	0.482594	0.500093
C181	C	1.036290	-0.569239	0.000097
C182	C	1.536290	-0.069239	0.500097
N183	N	1.093927	-0.546068	0.000103
N184	N	1.593927	-0.046068	0.500103
H185	H	1.014299	-0.709345	0.000073
H186	H	1.514299	-0.209345	0.500073
