data_functionalizedCrystal
_audit_creation_method	'MofGen! by Chris Wilmer'
_symmetry_space_group_name_H-M	'P1'
_symmetry_Int_Tables_number	1
_symmetry_cell_setting	triclinic
loop_
_symmetry_equiv_pos_as_xyz
  x,y,z
_cell_length_a	14.809374
_cell_length_b	23.196402
_cell_length_c	23.196401
_cell_angle_alpha	60.008822
_cell_angle_beta	90.013004
_cell_angle_gamma	52.847629
loop_
_atom_site_label
_atom_site_type_symbol
_atom_site_fract_x
_atom_site_fract_y
_atom_site_fract_z
Zr1	Zr	0.991025	0.491766	-0.006014
O2	O	0.826731	0.635115	-0.109601
O3	O	1.041386	0.364425	0.025737
O4	O	1.041340	0.484698	-0.094532
O5	O	0.826817	0.514834	0.105541
O6	O	1.210633	0.460913	-0.082640
O7	O	0.826776	0.514841	0.010667
O8	O	1.210714	0.245766	0.132498
O9	O	0.826735	0.729981	-0.109597
O10	O	1.189210	0.393123	0.048158
O11	O	1.062899	0.410868	0.110087
O12	O	1.062846	0.552474	-0.031514
O13	O	0.936535	0.570219	0.030415
Zr14	Zr	1.261091	0.453820	0.164265
Zr15	Zr	1.261027	0.453832	0.012952
Zr16	Zr	0.991089	0.491754	0.145299
Zr17	Zr	0.991032	0.643067	-0.006007
Zr18	Zr	1.261084	0.302519	0.164258
O19	O	1.210731	0.581162	0.132514
O20	O	1.210639	0.581178	-0.082634
O21	O	0.826823	0.635098	0.105547
O22	O	1.425386	0.310471	0.267852
O23	O	1.425294	0.310488	0.052704
O24	O	1.041478	0.364408	0.240885
O25	O	1.425300	0.430752	0.052710
O26	O	1.210776	0.460888	0.252782
O27	O	1.041484	0.484673	0.240891
O28	O	1.425340	0.430745	0.147584
O29	O	1.041351	0.699829	-0.094522
O30	O	1.210765	0.245757	0.252772
O31	O	1.425381	0.215605	0.267848
O32	O	1.425330	0.215614	0.147574
O33	O	0.826787	0.729972	0.010677
O34	O	1.041402	0.699820	0.025752
O35	O	1.189271	0.393112	0.189765
O36	O	1.315581	0.375367	0.127836
O37	O	1.189217	0.534719	0.048164
O38	O	1.062906	0.552463	0.110093
C39	C	1.126049	0.283538	0.079117
C40	C	1.126046	0.219307	0.079114
C41	C	1.191970	0.179875	0.046784
C42	C	1.191982	0.119512	0.046791
C43	C	1.126045	0.098599	0.079116
C44	C	1.060118	0.138035	0.111453
C45	C	1.060118	0.198389	0.111452
C46	C	1.015577	0.052089	0.066081
C47	C	1.015574	-0.008259	0.066077
C48	C	1.126047	-0.087556	0.079123
C49	C	1.236523	-0.106490	0.092159
C50	C	1.236523	-0.046135	0.092158
C51	C	1.126039	0.033155	0.079121
C52	C	1.191990	-0.192442	0.046799
C53	C	1.192006	-0.252810	0.046811
C54	C	1.060130	-0.234279	0.111468
C55	C	1.060127	-0.173920	0.111461
C56	C	1.126054	-0.153002	0.079123
C57	C	0.788327	0.520242	0.055402
C58	C	0.673704	0.536346	0.047350
C59	C	0.685287	0.464477	0.083283
C60	C	0.566819	0.481119	0.074963
C61	C	1.463789	0.425344	0.102849
C62	C	1.578412	0.409240	0.110900
C63	C	1.125977	0.472807	-0.110145
C64	C	1.125950	0.472812	-0.174381
C65	C	1.126067	0.662048	0.079134
C66	C	1.126071	0.726279	0.079137
C67	C	1.059995	0.555989	-0.246141
C68	C	1.060027	0.555985	-0.306495
C69	C	1.125997	0.472804	-0.295084
C70	C	1.191966	0.389615	-0.223311
C71	C	1.191943	0.389619	-0.162959
C72	C	1.116626	0.417492	-0.363062
C73	C	1.116640	0.417492	-0.423415
C74	C	1.126077	0.472786	-0.481226
C75	C	1.135473	0.528097	-0.478687
C76	C	1.135449	0.528102	-0.418335
C77	C	1.126030	0.472789	-0.360521
C78	C	1.060153	0.555965	-0.618431
C79	C	1.060194	0.555957	-0.678783
C80	C	1.192125	0.389586	-0.595598
C81	C	1.192092	0.389594	-0.535247
C82	C	1.126100	0.472787	-0.546669
C83	C	1.126139	0.472779	0.268396
C84	C	1.126166	0.472774	0.332632
C85	C	1.463780	0.236089	0.102840
C86	C	1.578400	0.155753	0.110889
C87	C	1.126130	0.283524	0.268387
C88	C	1.126154	0.219288	0.332620
C89	C	1.463861	0.236074	0.292110
C90	C	1.578508	0.155734	0.364395
C91	C	0.788255	0.709512	-0.133859
C92	C	0.673608	0.789852	-0.206144
C93	C	0.788336	0.709497	0.055411
C94	C	0.673716	0.789833	0.047362
C95	C	1.125987	0.662062	-0.110136
C96	C	1.125962	0.726299	-0.174369
C97	C	1.566262	0.127295	0.073071
C98	C	1.673949	0.051822	0.080618
C99	C	1.793773	0.004803	0.125988
C100	C	1.805908	0.033268	0.163807
C101	C	1.698222	0.108744	0.156255
C102	C	1.192130	0.179853	0.404383
C103	C	1.192148	0.119506	0.464742
C104	C	1.126197	0.098588	0.453339
C105	C	1.060213	0.138030	0.381569
C106	C	1.060188	0.198381	0.321210
C107	C	1.698292	0.108742	0.366016
C108	C	1.806026	0.033260	0.433930
C109	C	1.793972	0.004770	0.500223
C110	C	1.674176	0.051770	0.498601
C111	C	1.566445	0.127254	0.430687
C112	C	0.553824	0.836852	-0.207765
C113	C	0.446091	0.912352	-0.275679
C114	C	0.458144	0.940846	-0.341972
C115	C	0.577940	0.893841	-0.340350
C116	C	0.685671	0.818347	-0.272436
C117	C	0.685854	0.818297	0.085174
C118	C	0.578167	0.893787	0.077610
C119	C	0.458343	0.940808	0.032237
C120	C	0.446208	0.912341	-0.005579
C121	C	0.553894	0.836856	0.001982
C122	C	1.191926	0.747195	-0.162942
C123	C	1.191928	0.807540	-0.223289
C124	C	1.125958	0.846993	-0.295063
C125	C	1.059992	0.826091	-0.306489
C126	C	1.059998	0.765742	-0.246142
H127	H	1.326485	-0.171063	0.102791
Cl128	Cl	0.538639	0.801048	-0.124434
Cl129	Cl	1.415639	0.186393	0.016026
Cl130	Cl	1.274904	0.285043	-0.208965
Cl131	Cl	0.977049	0.875707	-0.396725
H132	H	1.664044	0.028657	0.049820
Cl133	Cl	0.522989	0.650371	-0.009654
H134	H	1.708123	0.131905	0.187056
Cl135	Cl	1.929139	-0.090083	0.135476
H136	H	1.006419	0.623705	-0.627732
H137	H	0.676033	0.335383	0.147830
Cl138	Cl	0.295506	0.971425	-0.277702
H139	H	1.903559	-0.005001	0.435238
H140	H	1.903483	-0.005026	0.200747
H141	H	1.245697	-0.284922	0.020488
Cl142	Cl	0.322697	1.035754	-0.427345
Cl143	Cl	1.274984	0.285027	-0.445031
Cl144	Cl	1.275053	0.206133	0.418738
Cl145	Cl	1.274855	0.833810	-0.208909
H146	H	0.543993	0.813684	-0.028808
Cl147	Cl	0.977311	0.111722	0.367245
H148	H	1.245884	0.087398	0.523175
Cl149	Cl	1.274879	-0.166150	0.006153
H150	H	1.245655	0.196901	0.020455
H151	H	1.126227	0.049445	0.502493
H152	H	1.245840	0.321857	-0.586306
Cl153	Cl	0.593071	0.929671	-0.423697
Cl154	Cl	0.836252	0.759263	-0.270412
H155	H	1.245647	0.715081	-0.104505
H156	H	1.006264	0.623730	-0.255448
Cl157	Cl	0.977236	-0.260564	0.152104
Cl158	Cl	1.147264	0.597630	-0.415142
H159	H	1.006467	0.230481	0.262780
Cl160	Cl	0.836477	0.759204	0.142214
Cl161	Cl	0.593452	0.929555	0.125159
H162	H	1.006316	0.623720	-0.364933
Cl163	Cl	1.713478	0.144547	0.282685
H164	H	0.370669	1.002271	0.026088
Cl165	Cl	0.295562	0.971459	-0.062612
Cl166	Cl	1.415864	0.186318	0.428663
H167	H	0.469198	0.554975	0.038038
Cl168	Cl	1.125958	0.922864	-0.370920
H169	H	1.006277	0.748736	-0.255457
H170	H	1.881704	-0.056696	0.555518
H171	H	1.245668	0.087401	0.020464
Cl172	Cl	0.977279	0.660531	-0.769001
Cl173	Cl	0.876690	0.015550	0.049686
Cl174	Cl	1.375402	-0.069939	0.108549
H175	H	1.006439	-0.141809	0.137784
Cl176	Cl	1.104815	0.347966	-0.426605
H177	H	1.143151	0.573126	-0.525760
H178	H	0.925604	0.116667	0.055443
H179	H	1.006433	0.121002	0.137773
H180	H	1.664381	0.028561	0.552586
Cl181	Cl	1.274855	0.285047	-0.072740
H182	H	1.006432	0.230496	0.137778
Cl183	Cl	1.104866	0.347915	-0.290358
H184	H	0.782908	0.390626	0.120210
