data_functionalizedCrystal
_audit_creation_method	'MofGen! by Chris Wilmer'
_symmetry_space_group_name_H-M	'P1'
_symmetry_Int_Tables_number	1
_symmetry_cell_setting	triclinic
loop_
_symmetry_equiv_pos_as_xyz
  x,y,z
_cell_length_a	21.606444
_cell_length_b	14.560438
_cell_length_c	14.560438
_cell_angle_alpha	59.996693
_cell_angle_beta	90.001828
_cell_angle_gamma	60.001889
loop_
_atom_site_label
_atom_site_type_symbol
_atom_site_fract_x
_atom_site_fract_y
_atom_site_fract_z
Zr1	Zr	0.596237	1.005315	-0.120577
O2	O	0.497411	1.196926	-0.267240
O3	O	0.626532	0.813706	-0.075608
O4	O	0.626530	1.005317	-0.267225
O5	O	0.497416	1.005312	0.075517
O6	O	0.728382	1.005317	-0.267223
O7	O	0.497413	1.005314	-0.075624
O8	O	0.728386	0.662559	0.075545
O9	O	0.497412	1.348069	-0.267250
O10	O	0.715464	0.892517	-0.056438
O11	O	0.639455	0.892515	0.056355
O12	O	0.639453	1.118113	-0.169249
O13	O	0.563443	1.118111	-0.056456
Zr14	Zr	0.758683	1.005311	0.120479
Zr15	Zr	0.758679	1.005315	-0.120573
Zr16	Zr	0.596241	1.005311	0.120475
Zr17	Zr	0.596238	1.246372	-0.120593
Zr18	Zr	0.758682	0.764254	0.120494
O19	O	0.728389	1.196919	0.075510
O20	O	0.728383	1.196925	-0.267235
O21	O	0.497417	1.196920	0.075505
O22	O	0.857510	0.813700	0.267142
O23	O	0.857504	0.813706	-0.075603
O24	O	0.626538	0.813700	0.267137
O25	O	0.857505	1.005314	-0.075615
O26	O	0.728391	1.005308	0.267127
O27	O	0.626539	1.005308	0.267124
O28	O	0.857507	1.005311	0.075525
O29	O	0.626532	1.348069	-0.267247
O30	O	0.728389	0.662556	0.267149
O31	O	0.857509	0.662556	0.267152
O32	O	0.857506	0.662559	0.075547
O33	O	0.497415	1.348066	-0.075646
O34	O	0.626535	1.348066	-0.075643
O35	O	0.715468	0.892513	0.169151
O36	O	0.791477	0.892515	0.056358
O37	O	0.715465	1.118111	-0.056453
O38	O	0.639456	1.118109	0.056340
C39	C	0.677459	0.703787	-0.000030
C40	C	0.677458	0.601452	-0.000023
C41	C	0.621344	0.636668	-0.083307
C42	C	0.621348	0.540528	-0.083336
C43	C	0.733582	0.373958	0.083213
C44	C	0.733581	0.470097	0.083236
C45	C	0.474270	1.005313	-0.000054
C46	C	0.405309	1.005313	-0.000055
C47	C	0.372909	1.005318	-0.083323
C48	C	0.308115	1.005312	-0.083319
C49	C	0.275719	1.005309	-0.000051
C50	C	0.308125	1.005300	0.083225
C51	C	0.372921	1.005298	0.083225
C52	C	0.046811	1.005310	0.083229
C53	C	-0.017991	1.005316	0.083221
C54	C	-0.017994	1.005324	-0.083315
C55	C	0.046802	1.005321	-0.083315
C56	C	0.079204	1.005305	-0.000036
C57	C	0.149462	1.005310	-0.000040
C58	C	0.205460	1.005314	-0.000050
C59	C	0.880651	1.005312	-0.000044
C60	C	0.949612	1.005312	-0.000043
C61	C	0.677455	1.005318	-0.301569
C62	C	0.677453	1.005320	-0.403902
C63	C	0.677462	1.306838	-0.000068
C64	C	0.677462	1.409173	-0.000075
C65	C	0.637777	1.123076	-0.510864
C66	C	0.637786	1.123070	-0.607013
C67	C	0.717149	0.887540	-0.489223
C68	C	0.717144	0.887548	-0.393077
C69	C	0.677466	1.005308	0.301470
C70	C	0.677467	1.005306	0.403803
C71	C	0.880649	0.703787	-0.000025
C72	C	0.949610	0.601452	-0.000017
C73	C	0.677464	0.703782	0.301490
C74	C	0.677465	0.601445	0.403829
C75	C	0.880654	0.703782	0.301494
C76	C	0.949617	0.601445	0.403836
C77	C	0.474266	1.306844	-0.301593
C78	C	0.405304	1.409180	-0.403934
C79	C	0.474272	1.306839	-0.000073
C80	C	0.405311	1.409174	-0.000081
C81	C	0.677457	1.306843	-0.301588
C82	C	0.677455	1.409180	-0.403927
C83	C	0.942316	0.553395	-0.058902
C84	C	1.007106	0.457254	-0.058917
C85	C	1.079188	0.409164	-0.000039
C86	C	1.086480	0.457230	0.058847
C87	C	1.021691	0.553377	0.058855
C88	C	1.021685	0.553387	0.393019
C89	C	1.086488	0.457245	0.489170
C90	C	1.079222	0.409154	0.596137
C91	C	1.007146	0.457221	0.606951
C92	C	0.942344	0.553369	0.510801
C93	C	0.333236	1.457250	-0.393117
C94	C	0.268433	1.553422	-0.489269
C95	C	0.275699	1.601518	-0.596235
C96	C	0.347775	1.553445	-0.607049
C97	C	0.412576	1.457280	-0.510899
C98	C	0.412604	1.457240	0.058794
C99	C	0.347815	1.553408	0.058782
C100	C	0.275733	1.601501	-0.000099
C101	C	0.268441	1.553431	-0.058981
C102	C	0.333230	1.457271	-0.058975
C103	C	0.717143	0.553364	0.510787
C104	C	0.717136	0.457217	0.606942
C105	C	0.637771	0.457237	0.489168
C106	C	0.637775	0.553389	0.393015
H107	H	0.779274	0.267000	0.151001
O108	O	0.198465	1.600121	-0.478606
C109	C	0.190167	1.655733	-0.419292
H110	H	0.248500	1.612293	-0.366231
H111	H	0.156100	1.634620	-0.362122
H112	H	0.159191	1.765254	-0.481557
H113	H	1.131994	0.330864	0.674419
O114	O	0.276769	1.005152	-0.164183
C115	C	0.330293	0.893259	-0.158884
H116	H	0.389907	0.855954	-0.116550
H117	H	0.324029	0.918435	-0.247646
H118	H	0.320223	0.814911	-0.108172
H119	H	0.749444	0.418076	0.694029
O120	O	0.599329	0.599895	0.289131
C121	C	0.628485	0.497287	0.276814
H122	H	0.688964	0.415550	0.337706
H123	H	0.628383	0.533973	0.186872
H124	H	0.591687	0.459370	0.295903
H125	H	0.749462	0.791655	-0.480423
H126	H	0.327281	1.418138	-0.106915
O127	O	0.999877	0.410667	-0.116130
C128	C	0.922361	0.473746	-0.168099
H129	H	0.887823	0.513356	-0.121904
H130	H	0.913324	0.401620	-0.164921
H131	H	0.903256	0.557267	-0.259494
O132	O	0.212742	1.694791	-0.000065
C133	C	0.169332	1.647809	0.046781
H134	H	0.183490	1.566027	0.038782
H135	H	0.106479	1.729942	0.000038
H136	H	0.182924	1.609468	0.139401
H137	H	0.575655	0.569213	-0.151155
O138	O	-0.049448	1.005478	0.164089
C139	C	-0.071325	1.117369	0.158794
H140	H	-0.036845	1.154668	0.116473
H141	H	-0.060627	1.092192	0.247557
H142	H	-0.134189	1.195721	0.108073
H143	H	0.222927	1.679821	-0.674517
H144	H	1.001241	0.418052	0.694056
O145	O	-0.049515	1.005552	-0.164345
C146	C	-0.071365	1.117424	-0.270951
H147	H	-0.079903	1.195624	-0.261333
H148	H	-0.126630	1.154978	-0.327504
H149	H	-0.025232	1.092133	-0.310222
H150	H	0.883666	0.592485	0.519623
O151	O	0.482677	1.410357	0.115971
C152	C	0.538309	1.315198	0.103340
H153	H	0.513062	1.273132	0.081674
H154	H	0.588277	1.234315	0.185297
H155	H	0.558572	1.361196	0.032838
H156	H	0.779280	0.441412	0.151058
H157	H	1.145178	0.418062	0.106783
O158	O	0.482639	1.410500	-0.521214
C159	C	0.538286	1.315293	-0.413422
H160	H	0.513049	1.331044	-0.349668
H161	H	0.588242	1.323127	-0.414499
H162	H	0.558566	1.214722	-0.388937
O163	O	0.566798	0.764203	-0.164299
C164	C	0.517261	0.774663	-0.237797
H165	H	0.547494	0.681721	-0.233847
H166	H	0.499148	0.860698	-0.327392
H167	H	0.465087	0.790030	-0.211588
O168	O	0.755588	0.773114	-0.289191
C169	C	0.726428	0.701458	-0.276875
H170	H	0.665950	0.770361	-0.337767
H171	H	0.726529	0.648042	-0.186932
H172	H	0.763224	0.628027	-0.295963
H173	H	0.353682	1.592616	-0.694152
H174	H	0.327305	1.418096	-0.306029
H175	H	0.353767	1.592531	0.106735
O176	O	0.404503	1.005146	-0.164066
C177	C	0.479674	0.893243	-0.113101
H178	H	0.501952	0.855943	-0.022153
H179	H	0.516759	0.918403	-0.160928
H180	H	0.481097	0.814897	-0.115011
O181	O	0.078320	1.005090	-0.164110
C182	C	0.100163	0.893220	-0.158830
H183	H	0.108699	0.815024	-0.071003
H184	H	0.155429	0.855658	-0.177818
H185	H	0.054028	0.918517	-0.223399
O186	O	0.599217	1.237591	-0.521576
C187	C	0.564185	1.341523	-0.636606
H188	H	0.595310	1.306991	-0.687873
H189	H	0.566318	1.423888	-0.650015
H190	H	0.502600	1.377731	-0.664946
O191	O	0.078283	1.005473	0.163981
C192	C	0.078054	1.117366	0.113038
H193	H	0.075203	1.154672	0.022092
H194	H	0.132094	1.092192	0.160884
H195	H	0.026682	1.195714	0.114945
O196	O	0.276552	1.005527	0.163974
C197	C	0.201369	1.117400	0.113005
H198	H	0.194548	1.195600	0.026648
H199	H	0.187983	1.154953	0.167872
H200	H	0.160782	1.092110	0.103280
O201	O	0.872284	0.599982	-0.115924
C202	C	0.832420	0.576511	-0.040347
H203	H	0.874461	0.492230	0.048368
H204	H	0.796591	0.551054	-0.065879
H205	H	0.793973	0.667266	-0.042415
O206	O	0.404273	1.005374	0.164153
C207	C	0.361793	1.005352	0.237659
H208	H	0.301826	1.046239	0.192799
H209	H	0.359377	1.068087	0.264516
H210	H	0.389826	0.901715	0.315099
O211	O	0.599363	1.237426	-0.710939
C212	C	0.650300	1.244464	-0.770083
H213	H	0.710078	1.177641	-0.707684
H214	H	0.633099	1.348620	-0.823256
H215	H	0.648913	1.212824	-0.827133
H216	H	1.131937	0.330875	-0.000054
H217	H	1.027640	0.592492	0.106812
H218	H	1.027615	0.592528	0.305930
H219	H	1.145169	0.418118	0.480345
O220	O	0.198458	1.599923	-0.116082
C221	C	0.190140	1.497324	-0.072751
H222	H	0.248465	1.401132	-0.029647
H223	H	0.156036	1.511840	-0.144398
H224	H	0.159192	1.496034	-0.009171
H225	H	0.749458	0.592494	0.519599
H226	H	0.605458	0.418095	0.480377
