data_functionalizedCrystal
_audit_creation_method	'MofGen! by Chris Wilmer'
_symmetry_space_group_name_H-M	'P1'
_symmetry_Int_Tables_number	1
_symmetry_cell_setting	triclinic
loop_
_symmetry_equiv_pos_as_xyz
  x,y,z
_cell_length_a	14.519709
_cell_length_b	16.109301
_cell_length_c	14.586319
_cell_angle_alpha	89.998390
_cell_angle_beta	89.999755
_cell_angle_gamma	83.570813
loop_
_atom_site_label
_atom_site_type_symbol
_atom_site_fract_x
_atom_site_fract_y
_atom_site_fract_z
O1	O	-1.223638	-0.108980	0.076124
O2	O	-0.973638	0.141020	0.326124
O3	O	-0.723638	0.391020	0.576124
O4	O	-0.473638	0.641020	0.826124
O5	O	-0.955134	-0.121814	0.076152
O6	O	-0.705134	0.128186	0.326152
O7	O	-0.455134	0.378186	0.576152
O8	O	-0.205134	0.628186	0.826152
O9	O	-1.096762	0.005621	0.076128
O10	O	-0.846762	0.255621	0.326128
O11	O	-0.596762	0.505621	0.576128
O12	O	-0.346762	0.755621	0.826128
O13	O	-1.082010	-0.236415	0.076148
O14	O	-0.832010	0.013585	0.326148
O15	O	-0.582010	0.263585	0.576148
O16	O	-0.332010	0.513585	0.826148
O17	O	-1.096745	0.005614	-0.076353
O18	O	-0.846745	0.255614	0.173647
O19	O	-0.596745	0.505614	0.423647
O20	O	-0.346745	0.755614	0.673647
O21	O	-0.955116	-0.121822	-0.076328
O22	O	-0.705116	0.128178	0.173672
O23	O	-0.455116	0.378178	0.423672
O24	O	-0.205116	0.628178	0.673672
O25	O	-1.223621	-0.108987	-0.076357
O26	O	-0.973621	0.141013	0.173643
O27	O	-0.723621	0.391013	0.423643
O28	O	-0.473621	0.641013	0.673643
Cu29	Cu	-1.089367	-0.115405	-0.090265
Cu30	Cu	-0.839367	0.134595	0.159735
Cu31	Cu	-0.589367	0.384595	0.409735
Cu32	Cu	-0.339367	0.634595	0.659735
Cu33	Cu	-1.089387	-0.115396	0.090061
Cu34	Cu	-0.839387	0.134604	0.340061
Cu35	Cu	-0.589387	0.384604	0.590061
Cu36	Cu	-0.339387	0.634604	0.840061
O37	O	-1.081992	-0.236423	-0.076333
O38	O	-0.831992	0.013577	0.173667
O39	O	-0.581992	0.263577	0.423667
O40	O	-0.331992	0.513577	0.673667
C41	C	-0.920766	-0.121220	-0.000085
C42	C	-0.670766	0.128780	0.249915
C43	C	-0.420766	0.378780	0.499915
C44	C	-0.170766	0.628780	0.749915
C45	C	-0.818389	-0.119427	-0.000074
C46	C	-0.568389	0.130573	0.249926
C47	C	-0.318389	0.380573	0.499926
C48	C	-0.068389	0.630573	0.749926
C49	C	-1.096156	0.036593	-0.000113
C50	C	-0.846156	0.286593	0.249887
C51	C	-0.596156	0.536593	0.499887
C52	C	-0.346156	0.786593	0.749887
C53	C	-1.094364	0.128892	-0.000114
C54	C	-0.844364	0.378892	0.249886
C55	C	-0.594364	0.628892	0.499886
C56	C	-0.344364	0.878892	0.749886
C57	C	-1.257988	-0.109582	-0.000118
C58	C	-1.007988	0.140418	0.249882
C59	C	-0.757988	0.390418	0.499882
C60	C	-0.507988	0.640418	0.749882
C61	C	-1.360365	-0.111374	-0.000122
C62	C	-1.110365	0.138626	0.249878
C63	C	-0.860365	0.388626	0.499878
C64	C	-0.610365	0.638626	0.749878
C65	C	-0.443507	-0.112829	-0.000116
C66	C	-0.193507	0.137171	0.249884
C67	C	0.056493	0.387171	0.499884
C68	C	0.306493	0.637171	0.749884
C69	C	-0.547811	-0.114661	-0.000104
C70	C	-0.297811	0.135339	0.249896
C71	C	-0.047811	0.385339	0.499896
C72	C	0.202189	0.635339	0.749896
C73	C	-0.630945	-0.116128	-0.000094
C74	C	-0.380945	0.133872	0.249906
C75	C	-0.130945	0.383872	0.499906
C76	C	0.119055	0.633872	0.749906
C77	C	-0.735256	-0.117961	-0.000084
C78	C	-0.485256	0.132039	0.249916
C79	C	-0.235256	0.382039	0.499916
C80	C	0.014744	0.632039	0.749916
C81	C	-1.082599	-0.267395	-0.000090
C82	C	-0.832599	-0.017395	0.249910
C83	C	-0.582599	0.232605	0.499910
C84	C	-0.332599	0.482605	0.749910
C85	C	-1.084390	-0.359693	-0.000083
C86	C	-0.834390	-0.109693	0.249917
C87	C	-0.584390	0.140307	0.499917
C88	C	-0.334390	0.390307	0.749917
N89	N	-1.089359	-0.115411	-0.217097
N90	N	-0.839359	0.134589	0.032903
N91	N	-0.589359	0.384589	0.282903
N92	N	-0.339359	0.634589	0.532903
C93	C	-1.174238	0.351026	-0.000108
C94	C	-0.924238	0.601026	0.249892
C95	C	-0.674238	0.851026	0.499892
C96	C	-0.424238	1.101026	0.749892
C97	C	-1.172547	0.437749	-0.000100
C98	C	-0.922547	0.687749	0.249900
C99	C	-0.672547	0.937749	0.499900
C100	C	-0.422547	1.187749	0.749900
C101	C	-1.004510	0.418166	-0.000086
C102	C	-0.754510	0.668166	0.249914
C103	C	-0.504510	0.918166	0.499914
C104	C	-0.254510	1.168166	0.749914
C105	C	-1.006202	0.331444	-0.000087
C106	C	-0.756202	0.581444	0.249913
C107	C	-0.506202	0.831444	0.499913
C108	C	-0.256202	1.081444	0.749913
C109	C	-1.091068	0.297877	-0.000103
C110	C	-0.841068	0.547877	0.249897
C111	C	-0.591068	0.797877	0.499897
C112	C	-0.341068	1.047877	0.749897
C113	C	-1.087686	0.471322	-0.000094
C114	C	-0.837686	0.721322	0.249906
C115	C	-0.587686	0.971322	0.499906
C116	C	-0.337686	1.221322	0.749906
C117	C	-1.085852	0.565351	-0.000085
C118	C	-0.835852	0.815351	0.249915
C119	C	-0.585852	1.065351	0.499915
C120	C	-0.335852	1.315351	0.749915
C121	C	-1.092902	0.203842	-0.000109
C122	C	-0.842902	0.453842	0.249891
C123	C	-0.592902	0.703842	0.499891
C124	C	-0.342902	0.953842	0.749891
C125	C	-1.145290	-0.165936	-0.452105
C126	C	-0.895290	0.084064	-0.202105
C127	C	-0.645290	0.334064	0.047895
C128	C	-0.395290	0.584064	0.297895
C129	C	-1.145300	-0.165931	-0.548087
C130	C	-0.895300	0.084069	-0.298087
C131	C	-0.645300	0.334069	-0.048087
C132	C	-0.395300	0.584069	0.201913
C133	C	-1.033469	-0.064853	-0.548093
C134	C	-0.783469	0.185147	-0.298093
C135	C	-0.533469	0.435147	-0.048093
C136	C	-0.283469	0.685147	0.201907
C137	C	-1.033465	-0.064855	-0.452113
C138	C	-0.783465	0.185145	-0.202113
C139	C	-0.533465	0.435145	0.047887
C140	C	-0.283465	0.685145	0.297887
C141	C	-1.089374	-0.115401	-0.404122
C142	C	-0.839374	0.134599	-0.154122
C143	C	-0.589374	0.384599	0.095878
C144	C	-0.339374	0.634599	0.345878
C145	C	-1.089388	-0.115394	-0.596083
C146	C	-0.839388	0.134606	-0.346083
C147	C	-0.589388	0.384606	-0.096083
C148	C	-0.339388	0.634606	0.153917
C149	C	-1.089398	-0.115387	-0.700150
C150	C	-0.839398	0.134613	-0.450150
C151	C	-0.589398	0.384613	-0.200150
C152	C	-0.339398	0.634613	0.049850
C153	C	-1.089365	-0.115407	-0.300048
C154	C	-0.839365	0.134593	-0.050048
C155	C	-0.589365	0.384593	0.199952
C156	C	-0.339365	0.634593	0.449952
N157	N	-1.089402	-0.115384	0.216893
N158	N	-0.839402	0.134616	0.466893
N159	N	-0.589402	0.384616	0.716893
N160	N	-0.339402	0.634616	0.966893
H161	H	-1.240272	0.481020	-0.000102
H162	H	-0.990272	0.731020	0.249898
H163	H	-0.740272	0.981020	0.499898
H164	H	-0.490272	1.231020	0.749898
H165	H	-0.938471	0.288168	-0.000080
H166	H	-0.688471	0.538168	0.249920
H167	H	-0.438471	0.788168	0.499920
H168	H	-0.188471	1.038168	0.749920
O169	O	-1.205595	-0.220445	-0.400339
O170	O	-0.955595	0.029555	-0.150339
O171	O	-0.705595	0.279555	0.099661
O172	O	-0.455595	0.529555	0.349661
H173	H	-1.244485	-0.255578	-0.449834
H174	H	-0.994485	-0.005578	-0.199834
H175	H	-0.744485	0.244422	0.050166
H176	H	-0.494485	0.494422	0.300166
H177	H	-1.190833	-0.207080	-0.587150
H178	H	-0.940833	0.042920	-0.337150
H179	H	-0.690833	0.292920	-0.087150
H180	H	-0.440833	0.542920	0.162850
O181	O	-0.973158	-0.010345	-0.599853
O182	O	-0.723158	0.239655	-0.349853
O183	O	-0.473158	0.489655	-0.099853
O184	O	-0.223158	0.739655	0.150147
H185	H	-0.982545	-0.018840	-0.674655
H186	H	-0.732545	0.231160	-0.424655
H187	H	-0.482545	0.481160	-0.174655
H188	H	-0.232545	0.731160	0.075345
H189	H	-0.987931	-0.023699	-0.413044
H190	H	-0.737931	0.226301	-0.163044
H191	H	-0.487931	0.476301	0.086956
H192	H	-0.237931	0.726301	0.336956
O193	O	-0.912977	0.454369	-0.000089
O194	O	-0.662977	0.704369	0.249911
O195	O	-0.412977	0.954369	0.499911
O196	O	-0.162977	1.204369	0.749911
H197	H	-0.925772	0.523602	-0.000102
H198	H	-0.675772	0.773602	0.249898
H199	H	-0.425772	1.023602	0.499898
H200	H	-0.175772	1.273602	0.749898
H201	H	-1.243341	0.323699	-0.000119
H202	H	-0.993341	0.573699	0.249881
H203	H	-0.743341	0.823699	0.499881
H204	H	-0.493341	1.073699	0.749881
