data_functionalizedCrystal
_audit_creation_method	'MofGen! by Chris Wilmer'
_symmetry_space_group_name_H-M	'P1'
_symmetry_Int_Tables_number	1
_symmetry_cell_setting	triclinic
loop_
_symmetry_equiv_pos_as_xyz
  x,y,z
_cell_length_a	6.394989
_cell_length_b	11.026607
_cell_length_c	9.482900
_cell_angle_alpha	78.599815
_cell_angle_beta	99.562633
_cell_angle_gamma	97.541864
loop_
_atom_site_label
_atom_site_type_symbol
_atom_site_fract_x
_atom_site_fract_y
_atom_site_fract_z
O1	O	-2.872233	-0.181348	-0.120875
O2	O	-2.267893	-0.191420	-0.120881
O3	O	-2.519975	-0.008966	-0.120873
O4	O	-2.620151	-0.363803	-0.120883
O5	O	-2.468829	-0.046179	0.120918
O6	O	-2.216747	-0.228634	0.120910
O7	O	-2.821087	-0.218561	0.120916
Cu8	Cu	-2.514247	-0.226995	0.142990
Cu9	Cu	-2.574733	-0.182986	-0.142956
O10	O	-2.569005	-0.401016	0.120908
C11	C	-2.475922	0.017921	0.000020
C12	C	-2.420832	0.153479	0.000015
C13	C	-2.613059	-0.427903	0.000011
C14	C	-2.668151	-0.563459	0.000007
N15	N	-2.471719	-0.257949	0.344109
C16	C	-2.163749	-0.208037	0.000021
C17	C	-1.925224	-0.201951	0.000028
N18	N	-2.617274	-0.152024	-0.344074
C19	C	-2.572947	0.224958	0.000014
C20	C	-2.516013	0.365064	0.000008
C21	C	-2.562172	-0.192109	0.416311
C22	C	-2.526808	-0.217873	0.583727
H23	H	-2.745327	0.182429	0.000025
C24	C	-2.331719	-0.359863	0.428035
N25	N	-2.226267	-0.436628	0.491246
C26	C	-2.386800	-0.319792	0.667647
N27	N	-2.281348	-0.396557	0.730858
C28	C	-2.283116	0.422505	0.000008
N29	N	-2.107700	0.465772	0.000012
H30	H	-2.720893	-0.076574	0.593804
H31	H	-2.840567	0.394037	-0.000100
C32	C	-2.187947	0.210925	0.000014
N33	N	-2.012531	0.254192	0.000018
H34	H	-2.665786	-0.116664	0.354186
