data_functionalizedCrystal
_audit_creation_method	'MofGen! by Chris Wilmer'
_symmetry_space_group_name_H-M	'P1'
_symmetry_Int_Tables_number	1
_symmetry_cell_setting	triclinic
loop_
_symmetry_equiv_pos_as_xyz
  x,y,z
_cell_length_a	14.908520
_cell_length_b	14.908779
_cell_length_c	19.076919
_cell_angle_alpha	95.707932
_cell_angle_beta	84.570994
_cell_angle_gamma	90.163414
loop_
_atom_site_label
_atom_site_type_symbol
_atom_site_fract_x
_atom_site_fract_y
_atom_site_fract_z
Zn1	Zn	-0.454603	-1.334431	0.358242
Zn2	Zn	0.045397	-0.834431	0.858242
Zn3	Zn	-0.599592	-1.331684	0.247196
Zn4	Zn	-0.099592	-0.831684	0.747196
Zn5	Zn	-0.440548	-1.190150	0.246434
Zn6	Zn	0.059452	-0.690150	0.746434
Zn7	Zn	-0.596901	-1.174629	0.371812
Zn8	Zn	-0.096901	-0.674629	0.871812
O9	O	-0.522911	-1.257723	0.305921
O10	O	-0.022911	-0.757723	0.805921
O11	O	-0.480844	-1.460177	0.338152
O12	O	0.019156	-0.960177	0.838152
O13	O	-0.573738	-1.318255	0.148151
O14	O	-0.073738	-0.818255	0.648151
O15	O	-0.316299	-1.216934	0.255267
O16	O	0.183701	-0.716934	0.755267
O17	O	-0.587367	-1.458159	0.256567
O18	O	-0.087367	-0.958159	0.756567
O19	O	-0.326625	-1.322937	0.337412
O20	O	0.173375	-0.822937	0.837412
O21	O	-0.456889	-1.214271	0.147591
O22	O	0.043111	-0.714271	0.647591
O23	O	-0.454280	-1.061981	0.268425
O24	O	0.045720	-0.561981	0.768425
O25	O	-0.582781	-1.190481	0.468956
O26	O	-0.082781	-0.690481	0.968956
O27	O	-0.569153	-1.050577	0.360540
O28	O	-0.069153	-0.550577	0.860540
O29	O	-0.478235	-1.307887	0.458986
O30	O	0.021765	-0.807887	0.958986
O31	O	-0.725348	-1.303205	0.269725
O32	O	-0.225348	-0.803205	0.769725
O33	O	-0.723371	-1.187817	0.361280
O34	O	-0.223371	-0.687817	0.861280
C35	C	-0.509900	-1.023580	0.315873
C36	C	-0.009900	-0.523580	0.815873
C37	C	-0.504356	-0.923410	0.320148
C38	C	-0.004356	-0.423410	0.820148
C39	C	-0.604697	-0.733094	0.243082
C40	C	-0.104697	-0.233094	0.743082
C41	C	-0.599491	-0.638975	0.247097
C42	C	-0.099491	-0.138975	0.747097
C43	C	-0.488744	-0.641052	0.332196
C44	C	0.011256	-0.141052	0.832196
C45	C	-0.493950	-0.735171	0.328181
C46	C	0.006050	-0.235171	0.828181
C47	C	-0.551927	-0.781188	0.283622
C48	C	-0.051927	-0.281188	0.783622
C49	C	-0.557128	-0.875309	0.279604
C50	C	-0.057128	-0.375309	0.779604
C51	C	-0.446386	-0.877384	0.364706
C52	C	0.053614	-0.377384	0.864706
C53	C	-0.441180	-0.783265	0.368721
C54	C	0.058820	-0.283265	0.868721
C55	C	-0.757062	-1.243552	0.317072
C56	C	-0.257062	-0.743552	0.817072
C57	C	-0.857238	-1.237571	0.321863
C58	C	-0.357238	-0.737571	0.821863
C59	C	-1.047487	-1.346599	0.235597
C60	C	-0.547487	-0.846599	0.735597
C61	C	-1.141612	-1.340982	0.240096
C62	C	-0.641612	-0.840982	0.740096
C63	C	-1.139614	-1.220725	0.335362
C64	C	-0.639614	-0.720725	0.835362
C65	C	-1.045489	-1.226342	0.330863
C66	C	-0.545489	-0.726342	0.830863
C67	C	-0.999429	-1.289280	0.280979
C68	C	-0.499429	-0.789280	0.780979
C69	C	-0.905302	-1.294892	0.276477
C70	C	-0.405302	-0.794892	0.776477
C71	C	-0.903307	-1.174640	0.371746
C72	C	-0.403307	-0.674640	0.871746
C73	C	-0.997431	-1.169023	0.376245
C74	C	-0.497431	-0.669023	0.876245
C75	C	-0.287848	-1.271974	0.294741
C76	C	0.212152	-0.771974	0.794741
C77	C	-0.187678	-1.278046	0.289976
C78	C	0.312322	-0.778046	0.789976
C79	C	-0.531776	-1.247759	0.490343
C80	C	-0.031776	-0.747759	0.990343
C81	C	-0.535554	-1.243513	0.568933
C82	C	-0.035554	-0.743513	1.068933
C83	C	-0.535967	-0.492782	0.295925
C84	C	-0.035967	0.007218	0.795925
C85	C	-0.541515	-0.592951	0.291652
C86	C	-0.041515	-0.092951	0.791652
C87	C	-0.514018	-1.267705	0.122211
C88	C	-0.014018	-0.767705	0.622211
C89	C	-0.509997	-1.272141	0.043602
C90	C	-0.009997	-0.772141	0.543602
C91	C	-0.482899	-1.302642	0.600666
C92	C	0.017101	-0.802642	1.100666
C93	C	-0.486445	-1.298641	0.674509
C94	C	0.013555	-0.798641	1.174509
C95	C	-0.542650	-1.235515	0.716620
C96	C	-0.042650	-0.735515	1.216620
C97	C	-0.595306	-1.176380	0.684882
C98	C	-0.095306	-0.676380	1.184882
C99	C	-0.591755	-1.180377	0.611040
C100	C	-0.091755	-0.680377	1.111040
C101	C	-0.559102	-1.217003	0.938022
C102	C	-0.059102	-0.717003	1.438022
C103	C	-0.562651	-1.213012	1.011869
C104	C	-0.062651	-0.713012	1.511869
C105	C	-0.453788	-1.335273	1.001491
C106	C	0.046212	-0.835273	1.501491
C107	C	-0.450246	-1.339268	0.927648
C108	C	0.049754	-0.839268	1.427648
C109	C	-0.502898	-1.280129	0.895917
C110	C	-0.002898	-0.780129	1.395917
N111	N	-0.546278	-1.231426	0.792100
N112	N	-0.046278	-0.731426	1.292100
N113	N	-0.499266	-1.284214	0.820438
N114	N	0.000734	-0.784214	1.320438
H115	H	-0.441549	-0.603567	0.368480
H116	H	0.058451	-0.103567	0.868480
H117	H	-0.608422	-1.161604	1.046154
H118	H	-0.108422	-0.661604	1.546154
O119	O	-0.429660	-1.362420	0.708738
O120	O	0.070340	-0.862420	1.208738
H121	H	-0.389991	-1.406996	0.667050
H122	H	0.110009	-0.906996	1.167050
H123	H	-0.393979	-0.745784	0.405002
H124	H	0.106021	-0.245784	0.905002
H125	H	-0.601990	-1.168860	0.912196
H126	H	-0.101990	-0.668860	1.412196
O127	O	-0.655921	-1.108287	0.730301
O128	O	-0.155921	-0.608287	1.230301
H129	H	-0.726829	-1.120212	0.718833
H130	H	-0.226829	-0.620212	1.218833
O131	O	-0.619657	-0.924949	0.231547
O132	O	-0.119657	-0.424949	0.731547
H133	H	-0.655483	-0.875689	0.204037
H134	H	-0.155483	-0.375689	0.704037
O135	O	-0.667221	-0.782738	0.195022
O136	O	-0.167221	-0.282738	0.695022
H137	H	-0.703043	-0.733481	0.167507
H138	H	-0.203043	-0.233481	0.667507
H139	H	-0.404480	-1.390674	0.893366
H140	H	0.095520	-0.890674	1.393366
H141	H	-0.642463	-0.599820	0.214086
H142	H	-0.142463	-0.099820	0.714086
O143	O	-0.855628	-1.362785	0.222680
O144	O	-0.355628	-0.862785	0.722680
H145	H	-0.816757	-1.409442	0.250367
H146	H	-0.316757	-0.909442	0.750367
H147	H	-0.634623	-1.132219	0.585205
H148	H	-0.134623	-0.632219	1.085205
H149	H	-1.034946	-1.117783	0.416861
H150	H	-0.534946	-0.617783	0.916861
O151	O	-0.389466	-0.929254	0.408438
O152	O	0.110534	-0.429254	0.908438
H153	H	-0.402828	-1.002432	0.398165
H154	H	0.097172	-0.502432	0.898165
H155	H	-1.009984	-1.397840	0.194974
H156	H	-0.509984	-0.897840	0.694974
H157	H	-1.180737	-1.387659	0.203143
H158	H	-0.680737	-0.887659	0.703143
H159	H	-1.177133	-1.169490	0.375980
H160	H	-0.677133	-0.669490	0.875980
O161	O	-0.396971	-1.399031	1.035713
O162	O	0.103029	-0.899031	1.535713
H163	H	-0.408867	-1.385638	1.094134
H164	H	0.091133	-0.885638	1.594134
O165	O	-0.851483	-1.112802	0.420698
O166	O	-0.351483	-0.612802	0.920698
H167	H	-0.812515	-1.153702	0.452943
H168	H	-0.312515	-0.653702	0.952943
O169	O	-0.422278	-1.370728	0.555247
O170	O	0.077722	-0.870728	1.055247
H171	H	-0.386254	-1.411166	0.589722
H172	H	0.113746	-0.911166	1.089722
