data_functionalizedCrystal
_audit_creation_method	'MofGen! by Chris Wilmer'
_symmetry_space_group_name_H-M	'P1'
_symmetry_Int_Tables_number	1
_symmetry_cell_setting	triclinic
loop_
_symmetry_equiv_pos_as_xyz
  x,y,z
_cell_length_a	14.560438
_cell_length_b	14.560438
_cell_length_c	14.560438
_cell_angle_alpha	60.000095
_cell_angle_beta	90.001334
_cell_angle_gamma	59.997181
loop_
_atom_site_label
_atom_site_type_symbol
_atom_site_fract_x
_atom_site_fract_y
_atom_site_fract_z
Zr1	Zr	0.884700	1.005319	-0.120535
O2	O	0.738037	1.196933	-0.267189
O3	O	0.929668	0.813707	-0.075575
O4	O	0.929652	1.005321	-0.267183
O5	O	0.738057	1.005317	0.075560
O6	O	1.080792	1.005319	-0.267181
O7	O	0.738053	1.005319	-0.075581
O8	O	1.080822	0.662558	0.075570
O9	O	0.738027	1.348078	-0.267192
O10	O	1.061631	0.892518	-0.056402
O11	O	0.948840	0.892517	0.056391
O12	O	0.948820	1.118117	-0.169202
O13	O	0.836029	1.118116	-0.056409
Zr14	Zr	1.125757	1.005312	0.120520
Zr15	Zr	1.125751	1.005317	-0.120532
Zr16	Zr	0.884706	1.005315	0.120517
Zr17	Zr	0.884685	1.246378	-0.120539
Zr18	Zr	1.125772	0.764253	0.120524
O19	O	1.080789	1.196924	0.075560
O20	O	1.080780	1.196930	-0.267185
O21	O	0.738045	1.196927	0.075556
O22	O	1.272421	0.813698	0.267174
O23	O	1.272412	0.813704	-0.075571
O24	O	0.929677	0.813702	0.267170
O25	O	1.272401	1.005314	-0.075575
O26	O	1.080806	1.005310	0.267168
O27	O	0.929665	1.005312	0.267166
O28	O	1.272404	1.005312	0.075566
O29	O	0.929631	1.348077	-0.267189
O30	O	1.080827	0.662555	0.267174
O31	O	1.272430	0.662553	0.267176
O32	O	1.272425	0.662556	0.075572
O33	O	0.738032	1.348075	-0.075587
O34	O	0.929636	1.348073	-0.075585
O35	O	1.061637	0.892514	0.169187
O36	O	1.174428	0.892515	0.056394
O37	O	1.061618	1.118114	-0.056406
O38	O	0.948826	1.118113	0.056387
C39	C	1.005247	0.703787	-0.000002
C40	C	1.005253	0.601451	-0.000000
C41	C	1.088489	0.373956	0.083258
C42	C	1.088517	0.470092	0.083264
C43	C	0.921964	0.636675	-0.083281
C44	C	0.921942	0.540540	-0.083291
C45	C	0.703710	1.005318	-0.000011
C46	C	0.601378	1.005319	-0.000012
C47	C	0.553299	1.005324	-0.083279
C48	C	0.457152	1.005315	-0.083272
C49	C	0.457167	1.005304	0.083272
C50	C	0.553317	1.005303	0.083269
C51	C	0.363589	0.929632	-0.145465
C52	C	0.315496	0.929659	-0.228747
C53	C	0.308842	1.005365	-0.340117
C54	C	0.350262	1.081076	-0.368224
C55	C	0.398345	1.081061	-0.284947
C56	C	0.405016	1.005325	-0.173565
C57	C	0.646876	1.080996	0.145451
C58	C	0.694955	1.080991	0.228725
C59	C	0.701608	1.005293	0.340099
C60	C	0.660174	0.929602	0.368205
C61	C	0.612095	0.929607	0.284931
C62	C	0.605450	1.005303	0.173558
C63	C	1.306747	1.005313	-0.000004
C64	C	1.409080	1.005312	-0.000003
C65	C	1.005221	1.005321	-0.301527
C66	C	1.005218	1.005322	-0.403860
C67	C	1.005210	1.306845	-0.000013
C68	C	1.005204	1.409181	-0.000015
C69	C	0.946334	1.123081	-0.510817
C70	C	0.946347	1.123075	-0.606965
C71	C	1.064131	0.887541	-0.489187
C72	C	1.064124	0.887549	-0.393041
C73	C	1.005236	1.005311	0.301512
C74	C	1.005239	1.005309	0.403845
C75	C	1.306765	0.703784	0.000001
C76	C	1.409104	0.601447	0.000004
C77	C	1.005255	0.703782	0.301518
C78	C	1.005264	0.601444	0.403852
C79	C	1.306773	0.703779	0.301521
C80	C	1.409114	0.601440	0.403857
C81	C	0.703684	1.306852	-0.301536
C82	C	0.601343	1.409191	-0.403872
C83	C	0.703692	1.306847	-0.000016
C84	C	0.601353	1.409184	-0.000019
C85	C	1.005203	1.306850	-0.301533
C86	C	1.005194	1.409187	-0.403867
C87	C	1.398307	0.553368	-0.058870
C88	C	1.494469	0.457219	-0.058871
C89	C	1.612222	0.457233	0.058886
C90	C	1.516061	0.553387	0.058879
C91	C	1.064146	0.553362	0.510808
C92	C	1.064141	0.457213	0.606958
C93	C	0.946371	0.457234	0.489184
C94	C	0.946370	0.553387	0.393036
C95	C	1.516071	0.553359	0.393060
C96	C	1.612227	0.457209	0.489220
C97	C	1.494458	0.457226	0.606969
C98	C	1.398304	0.553380	0.510810
H99	H	1.156337	0.441399	0.151072
O100	O	1.727578	0.405396	0.122392
H101	H	1.774210	0.299328	0.187484
H102	H	0.898423	0.418093	0.480392
O103	O	0.832154	0.778352	-0.173092
H104	H	0.846152	0.839285	-0.159090
H105	H	1.311209	0.592532	0.519610
H106	H	0.898415	0.592539	0.305942
H107	H	0.898398	1.218965	-0.694051
H108	H	1.524861	0.592537	0.106822
O109	O	1.482817	0.405364	-0.122372
H110	H	1.523789	0.423838	-0.187459
H111	H	1.699314	0.418066	0.480421
O112	O	0.882803	1.250103	-0.522482
H113	H	0.942235	1.255741	-0.481483
H114	H	0.854119	0.569233	-0.151108
H115	H	0.592429	1.005334	-0.151090
O116	O	1.127656	0.605206	0.522465
H117	H	1.168592	0.555622	0.612995
H118	H	1.485670	0.418082	0.694060
O119	O	1.178303	0.232277	0.173057
H120	H	1.236229	0.223939	0.230953
O121	O	0.443032	1.162696	-0.315241
H122	H	0.430330	1.215344	-0.406678
H123	H	0.344822	1.142733	-0.458918
H124	H	1.112088	0.791654	-0.480392
H125	H	0.269678	1.005385	-0.407927
H126	H	1.112087	0.418071	0.694043
H127	H	1.112081	0.791650	-0.305946
O128	O	0.270859	0.847965	-0.198416
H129	H	0.203384	0.879067	-0.162670
H130	H	0.369021	0.867965	-0.054777
H131	H	1.524879	0.592489	0.305977
O132	O	0.405329	1.005293	0.173092
H133	H	0.317497	1.093353	0.133055
O134	O	0.567424	0.847950	0.315241
H135	H	0.580137	0.795296	0.406680
O136	O	0.667356	0.847935	0.488332
H137	H	0.707763	0.860633	0.541518
O138	O	0.753468	1.005279	0.429923
H139	H	0.781164	1.070627	0.391675
O140	O	1.282946	0.605225	-0.122384
H141	H	1.291598	0.555646	-0.163333
H142	H	0.728681	1.142638	0.205829
H143	H	0.641468	1.142635	0.054762
