data_functionalizedCrystal
_audit_creation_method	'MofGen! by Chris Wilmer'
_symmetry_space_group_name_H-M	'P1'
_symmetry_Int_Tables_number	1
_symmetry_cell_setting	triclinic
loop_
_symmetry_equiv_pos_as_xyz
  x,y,z
_cell_length_a	19.121275
_cell_length_b	19.120786
_cell_length_c	16.625539
_cell_angle_alpha	92.471374
_cell_angle_beta	87.579381
_cell_angle_gamma	90.130801
loop_
_atom_site_label
_atom_site_type_symbol
_atom_site_fract_x
_atom_site_fract_y
_atom_site_fract_z
Zn1	Zn	1.059830	-0.324828	0.388035
Zn2	Zn	1.559830	0.175172	0.888035
Zn3	Zn	1.054739	-0.442075	0.247702
Zn4	Zn	1.554739	0.057925	0.747702
Zn5	Zn	0.942595	-0.319853	0.259205
Zn6	Zn	1.442595	0.180147	0.759205
Zn7	Zn	0.937564	-0.437035	0.388482
Zn8	Zn	1.437564	0.062965	0.888482
O9	O	0.998682	-0.380948	0.320856
O10	O	1.498682	0.119052	0.820856
O11	O	1.157257	-0.344572	0.364418
O12	O	1.657257	0.155428	0.864418
O13	O	1.039837	-0.425889	0.136395
O14	O	1.539837	0.074111	0.636395
O15	O	0.962383	-0.222403	0.280922
O16	O	1.462383	0.277597	0.780922
O17	O	1.153516	-0.430713	0.261316
O18	O	1.653516	0.069287	0.761316
O19	O	1.048515	-0.226058	0.375573
O20	O	1.548515	0.273942	0.875573
O21	O	0.957445	-0.336093	0.144847
O22	O	1.457445	0.163907	0.644847
O23	O	0.843826	-0.331206	0.281355
O24	O	1.343826	0.168794	0.781355
O25	O	0.953809	-0.422124	0.501255
O26	O	1.453809	0.077876	1.001255
O27	O	0.840130	-0.417299	0.376334
O28	O	1.340130	0.082701	0.876334
O29	O	1.043637	-0.339685	0.500927
O30	O	1.543637	0.160315	1.000927
O31	O	1.034959	-0.539516	0.261749
O32	O	1.534959	-0.039516	0.761749
O33	O	0.948871	-0.535814	0.365179
O34	O	1.448871	-0.035814	0.865179
C35	C	0.816541	-0.373166	0.330142
C36	C	1.316541	0.126834	0.830142
C37	C	0.738620	-0.369854	0.334133
C38	C	1.238620	0.130146	0.834133
C39	C	0.700064	-0.413075	0.282255
C40	C	1.200064	0.086925	0.782255
C41	C	0.626849	-0.409963	0.286015
C42	C	1.126849	0.090037	0.786015
C43	C	0.592190	-0.363627	0.341651
C44	C	1.092190	0.136373	0.841651
C45	C	0.630751	-0.320405	0.393534
C46	C	1.130751	0.179595	0.893534
C47	C	0.703965	-0.323521	0.389777
C48	C	1.203965	0.176479	0.889777
C49	C	0.371229	-0.351983	0.355688
C50	C	0.871229	0.148017	0.855688
C51	C	0.298010	-0.348869	0.359440
C52	C	0.798010	0.151131	0.859440
C53	C	0.294113	-0.438428	0.251921
C54	C	0.794113	0.061572	0.751921
C55	C	0.367329	-0.441536	0.248166
C56	C	0.867329	0.058464	0.748166
C57	C	0.405883	-0.398317	0.300052
C58	C	0.905883	0.101683	0.800052
C59	C	0.517352	-0.360444	0.345494
C60	C	1.017352	0.139556	0.845494
C61	C	0.480719	-0.401504	0.296212
C62	C	0.980719	0.098496	0.796212
C63	C	0.990835	-0.563104	0.312281
C64	C	1.490835	-0.063104	0.812281
C65	C	0.987543	-0.641035	0.308636
C66	C	1.487543	-0.141035	0.808636
C67	C	1.030807	-0.679488	0.356247
C68	C	1.530807	-0.179488	0.856247
C69	C	1.027711	-0.752711	0.352824
C70	C	1.527711	-0.252711	0.852824
C71	C	0.981353	-0.787481	0.301785
C72	C	1.481353	-0.287481	0.801785
C73	C	0.938084	-0.749022	0.254173
C74	C	1.438084	-0.249022	0.754173
C75	C	0.941177	-0.675800	0.257601
C76	C	1.441177	-0.175800	0.757601
C77	C	0.969767	-1.008472	0.288972
C78	C	1.469767	-0.508472	0.788972
C79	C	0.966679	-1.081700	0.285546
C80	C	1.466679	-0.581700	0.785546
C81	C	1.056305	-1.085384	0.384198
C82	C	1.556305	-0.585384	0.884198
C83	C	1.059397	-1.012160	0.387618
C84	C	1.559397	-0.512160	0.887618
C85	C	1.016126	-0.973708	0.340009
C86	C	1.516126	-0.473708	0.840009
C87	C	0.978188	-0.862327	0.298283
C88	C	1.478188	-0.362327	0.798283
C89	C	1.019287	-0.898863	0.343516
C90	C	1.519287	-0.398863	0.843516
C91	C	1.181534	-0.388760	0.311534
C92	C	1.681534	0.111240	0.811534
C93	C	1.259455	-0.392089	0.307562
C94	C	1.759455	0.107911	0.807562
C95	C	0.998730	-0.380897	0.531165
C96	C	1.498730	0.119103	1.031165
C97	C	0.998750	-0.380876	0.620786
C98	C	1.498750	0.119124	1.120786
C99	C	1.006578	-0.198080	0.329481
C100	C	1.506578	0.301920	0.829481
C101	C	1.009943	-0.120153	0.333157
C102	C	1.509943	0.379847	0.833157
C103	C	0.998677	-0.380949	0.111365
C104	C	1.498677	0.119051	0.611365
C105	C	0.998801	-0.380779	0.021747
C106	C	1.498801	0.119221	0.521747
C107	C	0.998786	-0.380799	0.948964
C108	C	1.498786	0.119201	1.448964
C109	C	0.998774	-0.380822	0.857655
C110	C	1.498774	0.119178	1.357655
C111	C	0.998768	-0.380838	0.784878
C112	C	1.498768	0.119162	1.284878
C113	C	0.998756	-0.380860	0.693563
C114	C	1.498756	0.119140	1.193563
H115	H	0.602526	-0.282681	0.438837
H116	H	1.102526	0.217319	0.938837
H117	H	0.728278	-0.450804	0.236947
H118	H	1.228278	0.049196	0.736947
O119	O	0.741314	-0.281467	0.440207
O120	O	1.241314	0.218533	0.940207
C121	C	0.695025	-0.239914	0.490133
C122	C	1.195025	0.260086	0.990133
H123	H	0.642927	-0.235223	0.459905
H124	H	1.142927	0.264777	0.959905
H125	H	0.718561	-0.185586	0.500359
H126	H	1.218561	0.314414	1.000359
H127	H	0.686157	-0.265330	0.550505
H128	H	1.186157	0.234670	1.050505
H129	H	0.934535	-0.977171	0.250205
H130	H	1.434535	-0.477171	0.750205
O131	O	0.514459	-0.446551	0.242276
O132	O	1.014459	0.053449	0.742276
C133	C	0.554867	-0.493699	0.283790
C134	C	1.054867	0.006301	0.783790
H135	H	0.566917	-0.469510	0.345541
H136	H	1.066917	0.030490	0.845541
H137	H	0.605937	-0.505242	0.247853
H138	H	1.105937	-0.005242	0.747853
H139	H	0.524423	-0.544467	0.291544
H140	H	1.024423	-0.044467	0.791544
O141	O	1.064224	-0.865010	0.393141
O142	O	1.564224	-0.365010	0.893141
C143	C	1.026072	-0.820971	0.449211
C144	C	1.526072	-0.320971	0.949211
H145	H	0.973416	-0.807805	0.423946
H146	H	1.473416	-0.307805	0.923946
H147	H	1.056793	-0.770663	0.460993
H148	H	1.556793	-0.270663	0.960993
H149	H	1.017156	-0.848830	0.508035
H150	H	1.517156	-0.348830	1.008035
O151	O	1.075762	-0.645743	0.405946
O152	O	1.575762	-0.145743	0.905946
C153	C	1.059654	-0.662964	0.486237
C154	C	1.559654	-0.162964	0.986237
H155	H	1.002795	-0.680751	0.492162
H156	H	1.502795	-0.180751	0.992162
H157	H	1.067706	-0.615040	0.528027
H158	H	1.567706	-0.115040	1.028027
H159	H	1.095435	-0.707025	0.503447
H160	H	1.595435	-0.207025	1.003447
H161	H	0.900335	-0.777337	0.212620
H162	H	1.400335	-0.277337	0.712620
O163	O	0.264315	-0.303780	0.413381
O164	O	0.764315	0.196220	0.913381
C165	C	0.223883	-0.256651	0.371870
C166	C	0.723883	0.243349	0.871870
H167	H	0.246110	-0.253185	0.307452
H168	H	0.746110	0.246815	0.807452
H169	H	0.225386	-0.202695	0.403719
H170	H	0.725386	0.297305	0.903719
H171	H	0.167462	-0.275962	0.370874
H172	H	0.667462	0.224038	0.870874
H173	H	0.489125	-0.322716	0.390792
H174	H	0.989125	0.177284	0.890792
H175	H	0.595460	-0.445157	0.243770
H176	H	1.095460	0.054843	0.743770
H177	H	1.097146	-0.983853	0.429178
H178	H	1.597146	-0.483853	0.929178
H179	H	1.062947	-0.784017	0.391587
H180	H	1.562947	-0.284017	0.891587
H181	H	1.091533	-1.116699	0.422960
H182	H	1.591533	-0.616699	0.922960
H183	H	0.395543	-0.479267	0.202860
H184	H	0.895543	0.020733	0.702860
O185	O	0.921579	-1.115365	0.235950
O186	O	1.421579	-0.615365	0.735950
C187	C	0.884060	-1.065726	0.194650
C188	C	1.384060	-0.565726	0.694650
H189	H	0.883820	-1.013410	0.230241
H190	H	1.383820	-0.513410	0.730241
H191	H	0.827935	-1.084584	0.187826
H192	H	1.327935	-0.584584	0.687826
H193	H	0.910085	-1.059046	0.132487
H194	H	1.410085	-0.559046	0.632487
H195	H	0.262715	-0.473615	0.209679
H196	H	0.762715	0.026385	0.709679
H197	H	0.402611	-0.316791	0.397939
H198	H	0.902611	0.183209	0.897939
H199	H	0.905946	-0.644492	0.218832
H200	H	1.405946	-0.144492	0.718832
O201	O	0.933063	-0.896069	0.248793
O202	O	1.433063	-0.396069	0.748793
C203	C	0.863936	-0.875239	0.270725
C204	C	1.363936	-0.375239	0.770725
H205	H	0.861210	-0.854918	0.336259
H206	H	1.361210	-0.354918	0.836259
H207	H	0.827274	-0.921953	0.263260
H208	H	1.327274	-0.421953	0.763260
H209	H	0.847424	-0.832002	0.230391
H210	H	1.347424	-0.332002	0.730391
