data_functionalizedCrystal
_audit_creation_method	'MofGen! by Chris Wilmer'
_symmetry_space_group_name_H-M	'P1'
_symmetry_Int_Tables_number	1
_symmetry_cell_setting	triclinic
loop_
_symmetry_equiv_pos_as_xyz
  x,y,z
_cell_length_a	16.109318
_cell_length_b	16.109301
_cell_length_c	14.586319
_cell_angle_alpha	89.994786
_cell_angle_beta	90.000075
_cell_angle_gamma	83.465022
loop_
_atom_site_label
_atom_site_type_symbol
_atom_site_fract_x
_atom_site_fract_y
_atom_site_fract_z
O1	O	1.103122	0.106935	-0.076167
O2	O	0.861062	0.120219	-0.076186
O3	O	0.988741	-0.007454	-0.076167
O4	O	0.975442	0.234607	-0.076186
O5	O	0.988733	-0.007456	0.076314
O6	O	0.861053	0.120217	0.076295
O7	O	1.103113	0.106933	0.076314
Cu8	Cu	0.982082	0.113575	0.090227
Cu9	Cu	0.982093	0.113577	-0.090099
O10	O	0.975433	0.234606	0.076294
C11	C	0.830083	0.119677	0.000052
C12	C	0.737788	0.118057	0.000045
C13	C	0.438719	0.112823	-0.083055
C14	C	0.525441	0.114340	-0.083061
C15	C	0.525450	0.114327	0.083182
C16	C	0.438731	0.112803	0.083187
C17	C	0.395367	0.112056	0.000065
C18	C	0.568807	0.115096	0.000055
C19	C	0.662835	0.116742	0.000049
C20	C	0.301334	0.110409	0.000070
C21	C	0.988198	-0.038430	0.000074
C22	C	0.986583	-0.130725	0.000075
C23	C	1.058590	-0.352993	0.000067
C24	C	1.057066	-0.439713	0.000059
C25	C	0.905579	-0.419848	0.000051
C26	C	0.907104	-0.333130	0.000052
C27	C	0.983612	-0.299704	0.000064
C28	C	0.980563	-0.473144	0.000056
C29	C	0.978910	-0.567170	0.000047
C30	C	0.985265	-0.205672	0.000071
C31	C	1.134092	0.107474	0.000074
C32	C	1.226387	0.109095	0.000075
C33	C	0.975976	0.265581	0.000052
C34	C	0.977592	0.357877	0.000044
N35	N	0.982081	0.113573	0.217059
N36	N	0.982100	0.113573	-0.216931
C37	C	1.038636	0.057058	0.452074
C38	C	1.038638	0.057056	0.548055
C39	C	0.925539	0.170090	0.548047
C40	C	0.925534	0.170087	0.452068
C41	C	0.982087	0.113572	0.404084
C42	C	0.982095	0.113573	0.596044
C43	C	0.982097	0.113571	0.700111
C44	C	0.982084	0.113573	0.300010
H45	H	0.560767	0.114937	0.150856
O46	O	0.870681	0.225105	0.405487
C47	C	0.884159	0.307414	0.428942
H48	H	0.950720	0.307846	0.455322
H49	H	0.838074	0.331822	0.484652
C50	C	0.789467	0.363242	0.311270
C51	C	0.871222	0.363773	0.343664
H52	H	0.781484	0.398008	0.258669
H53	H	0.780384	0.307789	0.295470
H54	H	0.751073	0.383579	0.357704
H55	H	0.909614	0.343426	0.297235
H56	H	0.880311	0.419224	0.359455
H57	H	0.843288	-0.447074	0.000042
H58	H	1.120888	-0.325781	0.000075
H59	H	1.084684	0.011039	0.413007
O60	O	0.567609	0.114942	-0.163781
C61	C	0.627217	0.043872	-0.168753
H62	H	0.607681	-0.006890	-0.121586
H63	H	0.690809	0.061291	-0.146426
C64	C	0.656814	0.073625	-0.325992
C65	C	0.632815	0.011275	-0.268066
H66	H	0.660270	0.053519	-0.387253
H67	H	0.616657	0.121508	-0.322642
H68	H	0.709805	0.088135	-0.307375
H69	H	0.579820	-0.003226	-0.286676
H70	H	0.672963	-0.036612	-0.271422
H71	H	1.084685	0.011036	0.587126
H72	H	0.846043	-0.289740	0.000047
O73	O	0.870692	0.224959	0.594803
C74	C	0.882810	0.212833	0.689809
H75	H	0.948915	0.181780	0.702916
H76	H	0.835767	0.171119	0.717058
C77	C	0.789104	0.336021	0.722973
C78	C	0.870298	0.297888	0.739073
H79	H	0.781382	0.388486	0.753363
H80	H	0.780937	0.344190	0.658966
H81	H	0.749910	0.301251	0.745681
H82	H	0.909489	0.332652	0.716355
H83	H	0.878471	0.289727	0.803077
H84	H	0.403433	0.112178	0.150877
O85	O	0.396729	0.112057	-0.163878
C86	C	0.453591	0.113081	-0.237242
H87	H	0.518856	0.087857	-0.212876
H88	H	0.454075	0.179904	-0.262801
C89	C	0.346726	0.088983	-0.345698
C90	C	0.426885	0.057997	-0.315773
H91	H	0.330252	0.055009	-0.394142
H92	H	0.308416	0.088297	-0.296272
H93	H	0.347140	0.144670	-0.366990
H94	H	0.426468	0.002316	-0.294472
H95	H	0.465195	0.058673	-0.365198
H96	H	1.118121	-0.483098	0.000059
