data_functionalizedCrystal
_audit_creation_method	'MofGen! by Chris Wilmer'
_symmetry_space_group_name_H-M	'P1'
_symmetry_Int_Tables_number	1
_symmetry_cell_setting	triclinic
loop_
_symmetry_equiv_pos_as_xyz
  x,y,z
_cell_length_a	16.109301
_cell_length_b	10.489741
_cell_length_c	15.186229
_cell_angle_alpha	89.996534
_cell_angle_beta	89.999362
_cell_angle_gamma	84.000327
loop_
_atom_site_label
_atom_site_type_symbol
_atom_site_fract_x
_atom_site_fract_y
_atom_site_fract_z
O1	O	1.104141	0.163947	-0.073172
O2	O	0.862205	0.184350	-0.073186
O3	O	0.988678	-0.011529	-0.073174
O4	O	0.977668	0.359826	-0.073185
O5	O	0.988670	-0.011532	0.073284
O6	O	0.862196	0.184347	0.073271
O7	O	1.104133	0.163944	0.073285
Zn8	Zn	0.983163	0.174145	0.096531
Zn9	Zn	0.983174	0.174149	-0.096433
O10	O	0.977659	0.359823	0.073272
C11	C	0.831221	0.183522	0.000041
C12	C	0.738910	0.181044	0.000035
C13	C	0.517319	0.291514	0.000042
C14	C	0.430584	0.289175	0.000048
C15	C	0.449026	0.056771	0.000051
C16	C	0.535759	0.059111	0.000052
C17	C	0.569903	0.176486	0.000043
C18	C	0.396435	0.171808	0.000048
C19	C	0.302393	0.169272	0.000054
C20	C	0.663950	0.179022	0.000038
C21	C	0.987842	-0.059050	0.000054
C22	C	0.985354	-0.200644	0.000053
C23	C	0.904883	-0.267616	0.000042
C24	C	0.942893	-0.360292	0.072255
C25	C	0.942920	-0.360264	-0.072141
C26	C	1.023397	-0.291454	0.072325
C27	C	1.023413	-0.291417	-0.072135
C28	C	1.061482	-0.384066	0.000096
C29	C	1.135117	0.164772	0.000056
C30	C	1.227427	0.167250	0.000056
C31	C	0.978495	0.407344	0.000042
C32	C	0.980983	0.548938	0.000038
N33	N	0.983162	0.174142	0.228224
N34	N	0.983183	0.174142	-0.228125
C35	C	1.039183	0.087436	0.453952
C36	C	1.039186	0.087433	0.546142
C37	C	0.927155	0.260852	0.546140
C38	C	0.927149	0.260848	0.453952
C39	C	0.983168	0.174141	0.407860
C40	C	0.983176	0.174142	0.592238
C41	C	0.983179	0.174140	0.692194
C42	C	0.983165	0.174142	0.307898
H43	H	0.908840	-0.390810	0.133302
O44	O	1.063923	-0.255049	0.145216
C45	C	1.111779	-0.079928	0.226969
C46	C	1.065855	-0.120981	0.144395
H47	H	1.113371	0.028465	0.226324
H48	H	1.077702	-0.108780	0.288461
H49	H	1.178324	-0.129103	0.227223
H50	H	0.999309	-0.071826	0.144056
H51	H	1.099997	-0.092152	0.082941
O52	O	0.550388	0.405606	-0.000076
C53	C	0.561198	0.604934	-0.075975
C54	C	0.523681	0.475779	-0.075943
H55	H	0.539635	0.661694	-0.137317
H56	H	0.539573	0.661856	-0.014724
H57	H	0.632220	0.586823	-0.075934
H58	H	0.452658	0.493773	-0.076016
H59	H	0.545372	0.418898	-0.137190
H60	H	1.084798	0.016828	0.583667
H61	H	0.387773	0.382843	0.000049
O62	O	0.872826	0.345035	0.591051
C63	C	0.823154	0.421856	0.733071
C64	C	0.884737	0.326465	0.682321
H65	H	0.832751	0.406857	0.806871
H66	H	0.834598	0.524048	0.715000
H67	H	0.756474	0.405221	0.714901
H68	H	0.951441	0.342983	0.700464
H69	H	0.873221	0.224306	0.700396
O70	O	1.140496	-0.444129	0.000300
C71	C	1.272146	-0.477117	0.076595
C72	C	1.182682	-0.409035	0.076478
H73	H	1.306286	-0.448748	0.138169
H74	H	1.269724	-0.585344	0.076066
H75	H	1.306681	-0.447591	0.015591
H76	H	1.148096	-0.438456	0.137472
H77	H	1.185164	-0.300822	0.076961
O78	O	0.872702	0.345204	0.409309
C79	C	0.761548	0.517160	0.419028
C80	C	0.823176	0.421728	0.469695
H81	H	0.721478	0.579037	0.467828
H82	H	0.797777	0.580979	0.375882
H83	H	0.719724	0.462041	0.375852
H84	H	0.865015	0.476743	0.512919
H85	H	0.786895	0.357910	0.512785
H86	H	0.421215	-0.038791	0.000064
H87	H	0.838720	-0.217005	0.000110
O88	O	0.586810	-0.052669	-0.000105
C89	C	0.629084	-0.250616	-0.075950
C90	C	0.571235	-0.124069	-0.075896
H91	H	0.616499	-0.308390	-0.137211
H92	H	0.696954	-0.228855	-0.076004
H93	H	0.616583	-0.308328	-0.014629
H94	H	0.583661	-0.066294	-0.137206
H95	H	0.503383	-0.145919	-0.075796
O96	O	0.902304	-0.396419	-0.145042
C97	C	0.829384	-0.328380	-0.278256
C98	C	0.875386	-0.287270	-0.195750
H99	H	0.807593	-0.240153	-0.319267
H100	H	0.873412	-0.396984	-0.319136
H101	H	0.773035	-0.378444	-0.257408
H102	H	0.931733	-0.237153	-0.216519
H103	H	0.831302	-0.218725	-0.154889
H104	H	1.084796	0.016832	0.416427
O105	O	1.064015	-0.254743	-0.144897
C106	C	1.112397	-0.079413	-0.226006
C107	C	1.066426	-0.120780	-0.143546
H108	H	1.114346	0.028902	-0.224950
H109	H	1.178808	-0.129094	-0.226641
H110	H	1.078014	-0.107426	-0.287512
H111	H	1.100739	-0.092773	-0.081996
H112	H	1.000012	-0.071108	-0.142989
