data_functionalizedCrystal
_audit_creation_method	'MofGen! by Chris Wilmer'
_symmetry_space_group_name_H-M	'P1'
_symmetry_Int_Tables_number	1
_symmetry_cell_setting	triclinic
loop_
_symmetry_equiv_pos_as_xyz
  x,y,z
_cell_length_a	15.625950
_cell_length_b	17.019294
_cell_length_c	14.185569
_cell_angle_alpha	73.120776
_cell_angle_beta	120.545593
_cell_angle_gamma	85.048481
loop_
_atom_site_label
_atom_site_type_symbol
_atom_site_fract_x
_atom_site_fract_y
_atom_site_fract_z
O1	O	1.290149	0.020850	0.383928
O2	O	1.001149	0.056261	0.275776
O3	O	1.156432	-0.079289	0.343957
O4	O	1.134866	0.156400	0.315746
O5	O	1.202304	-0.119328	0.530933
O6	O	1.047021	0.016222	0.462752
O7	O	1.336021	-0.019189	0.570903
Cu8	Cu	1.195710	-0.005139	0.533900
Cu9	Cu	1.141461	0.042211	0.312779
O10	O	1.180738	0.116361	0.502722
C11	C	0.987157	0.038603	0.355631
C12	C	0.877122	0.045629	0.315011
C13	C	0.640127	-0.040315	0.690876
C14	C	0.536717	-0.033685	0.652653
C15	C	0.486761	0.009960	0.448838
C16	C	0.590168	0.003339	0.487044
C17	C	0.666844	-0.021800	0.608064
C18	C	0.616885	0.021853	0.404232
C19	C	0.720284	0.015227	0.442436
C20	C	0.796966	-0.009913	0.563451
C21	C	0.770243	-0.028426	0.646268
C22	C	0.540208	0.046986	0.283213
C23	C	0.566925	0.065500	0.200402
C24	C	0.670324	0.058880	0.238604
C25	C	0.747006	0.033740	0.359619
C26	C	0.697047	0.077394	0.155787
C27	C	0.800446	0.070768	0.193991
C28	C	0.850405	0.027115	0.397823
C29	C	1.179455	-0.129259	0.440063
C30	C	1.179703	-0.218500	0.447859
C31	C	1.154817	-0.238597	0.349602
C32	C	1.155044	-0.322449	0.356929
C33	C	1.180164	-0.386204	0.462515
C34	C	1.205049	-0.366102	0.560777
C35	C	1.204815	-0.282251	0.553447
C36	C	1.182116	-0.640472	0.489743
C37	C	1.182351	-0.724329	0.497067
C38	C	1.132344	-0.680669	0.293217
C39	C	1.132118	-0.596819	0.285898
C40	C	1.156998	-0.576723	0.384159
C41	C	1.180400	-0.471915	0.470007
C42	C	1.156754	-0.491013	0.376662
C43	C	1.350013	-0.001530	0.491046
C44	C	1.460046	-0.008555	0.531658
C45	C	1.157714	0.166332	0.406614
C46	C	1.157465	0.255575	0.398811
N47	N	1.233873	-0.038444	0.689426
N48	N	1.103306	0.075509	0.157256
C49	C	0.991184	0.173324	0.950524
C50	C	1.020099	0.148101	1.068240
C51	C	1.157628	0.028110	1.128582
C52	C	1.128722	0.053320	1.010868
C53	C	1.045500	0.125929	0.921848
C54	C	1.183038	0.005925	0.982191
C55	C	1.154137	0.031137	0.864488
C56	C	1.070920	0.103743	0.775462
C57	C	1.016599	0.151140	0.804145
C58	C	1.266264	-0.066680	1.071215
C59	C	1.320580	-0.114075	1.042538
C60	C	1.291674	-0.088867	0.924832
C61	C	1.208458	-0.016260	0.835806
C62	C	1.345995	-0.136264	0.896150
C63	C	1.317095	-0.111052	0.778447
C64	C	1.179557	0.008951	0.718103
H65	H	0.424319	0.030424	0.350304
H66	H	0.912839	0.006657	0.496367
H67	H	0.881159	-0.015307	0.594554
H68	H	0.456015	0.052383	0.252111
H69	H	0.975861	0.186703	1.091578
H70	H	1.413762	-0.195378	0.968646
Cl71	Cl	0.600651	0.108961	0.003659
H72	H	0.822197	0.085848	0.126556
H73	H	1.111782	0.068071	0.645615
Cl74	Cl	1.262249	-0.063165	1.240500
H75	H	1.289795	-0.087202	1.167055
Cl76	Cl	1.425201	-0.205350	1.154456
Cl77	Cl	1.385383	-0.170635	0.742396
H78	H	0.832676	-0.048884	0.744812
Cl79	Cl	1.034591	0.135442	0.627492
H80	H	1.136295	-0.439099	0.290692
H81	H	0.948824	0.210260	0.731657
H82	H	0.514969	-0.048745	0.720095
Cl83	Cl	0.736526	-0.071908	0.843017
H84	H	0.504483	0.085964	0.101867
H85	H	1.200856	-0.523834	0.555977
Cl86	Cl	1.123242	-0.158456	0.216861
Cl87	Cl	1.213378	-0.615218	0.613266
Cl88	Cl	1.123759	-0.347709	0.233401
Cl89	Cl	0.886549	0.264598	0.838605
H90	H	1.111664	-0.544913	0.199919
H91	H	1.112086	-0.697040	0.213218
H92	H	1.202803	-0.776238	0.583050
H93	H	1.225496	-0.418018	0.646746
H94	H	1.225066	-0.265889	0.633453
