data_functionalizedCrystal
_audit_creation_method	'MofGen! by Chris Wilmer'
_symmetry_space_group_name_H-M	'P1'
_symmetry_Int_Tables_number	1
_symmetry_cell_setting	triclinic
loop_
_symmetry_equiv_pos_as_xyz
  x,y,z
_cell_length_a	6.394989
_cell_length_b	16.109301
_cell_length_c	15.186229
_cell_angle_alpha	90.002208
_cell_angle_beta	89.997058
_cell_angle_gamma	84.979596
loop_
_atom_site_label
_atom_site_type_symbol
_atom_site_fract_x
_atom_site_fract_y
_atom_site_fract_z
O1	O	-0.268487	-1.105969	0.073167
O2	O	-0.301899	-0.864261	0.073180
O3	O	0.018873	-0.988546	0.073174
O4	O	-0.589260	-0.981684	0.073173
O5	O	0.018893	-0.988545	-0.073283
O6	O	-0.301880	-0.864260	-0.073277
O7	O	-0.268468	-1.105968	-0.073290
Zn8	Zn	-0.285171	-0.985114	-0.096537
Zn9	Zn	-0.285196	-0.985115	0.096427
O10	O	-0.589241	-0.981683	-0.073284
C11	C	-0.300536	-0.833271	-0.000047
C12	C	-0.296479	-0.740933	-0.000041
N13	N	-0.285198	-0.985117	0.228120
C14	C	-0.269831	-1.136958	-0.000061
C15	C	-0.273889	-1.229296	-0.000061
C16	C	0.096703	-0.987189	-0.000051
C17	C	0.332935	-0.983042	-0.000050
C18	C	-0.477384	-0.520575	-0.000052
C19	C	-0.473555	-0.433814	-0.000057
C20	C	-0.092969	-0.449660	-0.000053
C21	C	-0.096800	-0.536419	-0.000054
C22	C	-0.289014	-0.571874	-0.000049
C23	C	-0.281354	-0.398354	-0.000054
C24	C	-0.277201	-0.304284	-0.000060
C25	C	-0.293168	-0.665950	-0.000044
N26	N	-0.285152	-0.985119	-0.228229
C27	C	-0.143435	-1.040262	0.453840
C28	C	-0.143429	-1.040264	0.546029
C29	C	-0.426931	-0.929971	0.546044
C30	C	-0.426945	-0.929973	0.453856
C31	C	-0.285185	-0.985118	0.407756
C32	C	-0.285166	-0.985117	0.592134
C33	C	-0.285161	-0.985120	0.692090
C34	C	-0.285192	-0.985117	0.307794
H35	H	-0.633896	-0.549440	-0.000054
O36	O	-0.676723	-0.378481	-0.000063
H37	H	-0.768710	-0.391323	0.059634
H38	H	-0.028006	-1.085169	0.583548
O39	O	0.114333	-0.411413	-0.000055
H40	H	0.244676	-0.461663	-0.000063
H41	H	0.056603	-0.578189	-0.000054
O42	O	-0.579892	-0.870515	0.404141
H43	H	-0.678464	-0.832169	0.451683
O44	O	0.009441	-1.099749	0.404123
H45	H	0.111200	-1.063782	0.362123
O46	O	-0.579769	-0.870471	0.595764
H47	H	-0.555918	-0.879720	0.667611
