data_functionalizedCrystal
_audit_creation_method	'MofGen! by Chris Wilmer'
_symmetry_space_group_name_H-M	'P1'
_symmetry_Int_Tables_number	1
_symmetry_cell_setting	triclinic
loop_
_symmetry_equiv_pos_as_xyz
  x,y,z
_cell_length_a	11.169417
_cell_length_b	16.120444
_cell_length_c	11.169409
_cell_angle_alpha	87.138527
_cell_angle_beta	90.019513
_cell_angle_gamma	92.927659
loop_
_atom_site_label
_atom_site_type_symbol
_atom_site_fract_x
_atom_site_fract_y
_atom_site_fract_z
Zn1	Zn	1.810608	-0.331811	0.702701
Zn2	Zn	2.310608	0.168189	1.202701
Zn3	Zn	1.800262	-0.471255	0.512175
Zn4	Zn	2.300262	0.028745	1.012175
Zn5	Zn	1.609890	-0.331863	0.502040
Zn6	Zn	2.109890	0.168137	1.002040
Zn7	Zn	1.599671	-0.471188	0.712816
Zn8	Zn	2.099671	0.028812	1.212816
O9	O	1.705108	-0.401529	0.607433
O10	O	2.205108	0.098471	1.107433
O11	O	1.977185	-0.350315	0.677436
O12	O	2.477185	0.149685	1.177436
O13	O	1.774956	-0.452814	0.342884
O14	O	2.274956	0.047186	0.842884
O15	O	1.645122	-0.215191	0.520184
O16	O	2.145122	0.284809	1.020184
O17	O	1.969584	-0.452764	0.537457
O18	O	2.469584	0.047236	1.037457
O19	O	1.792588	-0.215153	0.667609
O20	O	2.292588	0.284847	1.167609
O21	O	1.635090	-0.350403	0.335438
O22	O	2.135090	0.149597	0.835438
O23	O	1.440585	-0.350339	0.529992
O24	O	1.940585	0.149661	1.029992
O25	O	1.627705	-0.452650	0.879420
O26	O	2.127705	0.047350	1.379420
O27	O	1.433077	-0.452700	0.684848
O28	O	1.933077	0.047300	1.184848
O29	O	1.782680	-0.350250	0.871989
O30	O	2.282680	0.149750	1.371989
O31	O	1.765047	-0.587912	0.547264
O32	O	2.265047	-0.087912	1.047264
O33	O	1.617674	-0.587863	0.694675
O34	O	2.117674	-0.087863	1.194675
C35	C	1.393284	-0.401518	0.607418
C36	C	1.893284	0.098482	1.107418
C37	C	1.259883	-0.401533	0.607442
C38	C	1.759883	0.098467	1.107442
C39	C	1.689161	-0.618137	0.623193
C40	C	2.189161	-0.118137	1.123193
C41	C	1.682449	-0.710803	0.629975
C42	C	2.182449	-0.210803	1.129975
C43	C	1.740221	-0.921749	0.572507
C44	C	2.240221	-0.421749	1.072507
C45	C	1.670217	-0.880459	0.642371
C46	C	2.170217	-0.380459	1.142371
C47	C	1.677025	-0.786054	0.635472
C48	C	2.177025	-0.286054	1.135472
C49	C	1.733414	-1.016163	0.579405
C50	C	2.233414	-0.516163	1.079405
C51	C	2.018149	-0.401541	0.607448
C52	C	2.518149	0.098459	1.107448
C53	C	2.151549	-0.401546	0.607455
C54	C	2.651549	0.098454	1.107455
C55	C	1.705207	-0.401437	0.920469
C56	C	2.205207	0.098563	1.420469
C57	C	1.705249	-0.401397	1.053866
C58	C	2.205249	0.098603	1.553866
C59	C	1.721149	-0.184076	0.591638
C60	C	2.221149	0.315924	1.091638
C61	C	1.727985	-0.091410	0.584907
C62	C	2.227985	0.408590	1.084907
C63	C	1.705083	-0.401562	0.295611
C64	C	2.205083	0.098438	0.795611
C65	C	1.705290	-0.401366	0.162197
C66	C	2.205290	0.098634	0.662197
H67	H	1.605171	-0.916010	0.707364
H68	H	2.105171	-0.416010	1.207364
C69	C	1.828079	-0.873723	0.484700
C70	C	2.328079	-0.373723	0.984700
N71	N	1.894248	-0.837540	0.418560
N72	N	2.394248	-0.337540	0.918560
