data_functionalizedCrystal
_audit_creation_method	'MofGen! by Chris Wilmer'
_symmetry_space_group_name_H-M	'P1'
_symmetry_Int_Tables_number	1
_symmetry_cell_setting	triclinic
loop_
_symmetry_equiv_pos_as_xyz
  x,y,z
_cell_length_a	17.077404
_cell_length_b	19.121063
_cell_length_c	17.077396
_cell_angle_alpha	87.592130
_cell_angle_beta	90.017244
_cell_angle_gamma	92.469213
loop_
_atom_site_label
_atom_site_type_symbol
_atom_site_fract_x
_atom_site_fract_y
_atom_site_fract_z
Zn1	Zn	1.186680	-0.279604	0.457151
Zn2	Zn	1.686680	0.220396	0.957151
Zn3	Zn	1.180980	-0.397062	0.331476
Zn4	Zn	1.680980	0.102938	0.831476
Zn5	Zn	1.055415	-0.279630	0.325901
Zn6	Zn	1.555415	0.220370	0.825901
Zn7	Zn	1.049770	-0.397019	0.462698
Zn8	Zn	1.549770	0.102981	0.962698
O9	O	1.118211	-0.338329	0.394306
O10	O	1.618211	0.161671	0.894306
O11	O	1.295770	-0.295192	0.440492
O12	O	1.795770	0.204808	0.940492
O13	O	1.164301	-0.381514	0.220891
O14	O	1.664301	0.118486	0.720891
O15	O	1.077575	-0.181342	0.338657
O16	O	1.577575	0.318658	0.838657
O17	O	1.291583	-0.381488	0.348159
O18	O	1.791583	0.118512	0.848159
O19	O	1.174015	-0.181323	0.435086
O20	O	1.674015	0.318677	0.935086
O21	O	1.072049	-0.295237	0.216795
O22	O	1.572049	0.204763	0.716795
O23	O	0.944820	-0.295195	0.344035
O24	O	1.444820	0.204805	0.844035
O25	O	1.067954	-0.381414	0.571807
O26	O	1.567954	0.118586	1.071807
O27	O	0.940672	-0.381440	0.444539
O28	O	1.440672	0.118560	0.944539
O29	O	1.168541	-0.295150	0.567733
O30	O	1.668541	0.204850	1.067733
O31	O	1.158828	-0.495341	0.353537
O32	O	1.658828	0.004659	0.853537
O33	O	1.062428	-0.495309	0.449945
O34	O	1.562428	0.004691	0.949945
C35	C	0.914264	-0.338316	0.394284
C36	C	1.414264	0.161684	0.894284
C37	C	0.827014	-0.338328	0.394294
C38	C	1.327014	0.161672	0.894294
C39	C	1.109418	-0.520809	0.402965
C40	C	1.609418	-0.020809	0.902965
C41	C	1.105728	-0.598875	0.406696
C42	C	1.605728	-0.098875	0.906696
C43	C	0.783881	-0.383303	0.446549
C44	C	1.283881	0.116697	0.946549
C45	C	0.701901	-0.383305	0.446562
C46	C	1.201901	0.116695	0.946562
C47	C	0.663054	-0.338334	0.394315
C48	C	1.163054	0.161666	0.894315
C49	C	0.706193	-0.293353	0.342057
C50	C	1.206193	0.206647	0.842057
C51	C	0.788172	-0.293349	0.342049
C52	C	1.288172	0.206651	0.842049
C53	C	0.535322	-0.293367	0.342077
C54	C	1.035322	0.206633	0.842077
C55	C	0.453337	-0.293372	0.342084
C56	C	0.953337	0.206628	0.842084
C57	C	0.449051	-0.383323	0.446590
C58	C	0.949051	0.116677	0.946590
C59	C	0.531030	-0.383319	0.446581
C60	C	1.031030	0.116681	0.946581
C61	C	0.574163	-0.338339	0.394323
C62	C	1.074163	0.161661	0.894323
C63	C	1.154223	-0.635544	0.358296
C64	C	1.654223	-0.135544	0.858296
C65	C	1.150758	-0.708895	0.361809
C66	C	1.650758	-0.208895	0.861809
C67	C	1.098792	-0.745576	0.413719
C68	C	1.598792	-0.245576	0.913719
C69	C	1.050294	-0.708902	0.462125
C70	C	1.550294	-0.208902	0.962125
C71	C	1.053764	-0.635553	0.458615
C72	C	1.553764	-0.135553	0.958615
C73	C	1.085804	-0.967046	0.426829
C74	C	1.585804	-0.467046	0.926829
C75	C	1.082336	-1.040401	0.430334
C76	C	1.582336	-0.540401	0.930334
C77	C	1.182801	-1.040389	0.330019
C78	C	1.682801	-0.540389	0.830019
C79	C	1.186263	-0.967038	0.326510
C80	C	1.686263	-0.467038	0.826510
C81	C	1.137769	-0.930370	0.374919
C82	C	1.637769	-0.430370	0.874919
C83	C	1.095246	-0.820553	0.417310
C84	C	1.595246	-0.320553	0.917310
C85	C	1.141319	-0.855395	0.371332
C86	C	1.641319	-0.355395	0.871332
C87	C	1.322955	-0.338342	0.394329
C88	C	1.822955	0.161658	0.894329
C89	C	1.410205	-0.338348	0.394339
C90	C	1.910205	0.161652	0.894339
C91	C	1.118253	-0.338274	0.599048
C92	C	1.618253	0.161726	1.099048
C93	C	1.118271	-0.338251	0.686297
C94	C	1.618271	0.161749	1.186297
C95	C	1.127061	-0.155136	0.385631
C96	C	1.627061	0.344864	0.885631
C97	C	1.130832	-0.077070	0.381934
C98	C	1.630832	0.422930	0.881934
C99	C	1.118217	-0.338332	0.190359
C100	C	1.618217	0.161668	0.690359
C101	C	1.118361	-0.338158	0.103101
C102	C	1.618361	0.161842	0.603101
C103	C	1.070251	-0.293321	0.725153
C104	C	1.570251	0.206679	1.225153
C105	C	1.070265	-0.293305	0.807133
C106	C	1.570265	0.206695	1.307133
C107	C	1.118303	-0.338216	0.850255
C108	C	1.618303	0.161784	1.350255
C109	C	1.166325	-0.383151	0.811393
C110	C	1.666325	0.116849	1.311393
C111	C	1.166307	-0.383170	0.729415
C112	C	1.666307	0.116830	1.229415
C113	C	1.166361	-0.383107	0.982261
C114	C	1.666361	0.116893	1.482261
C115	C	1.166381	-0.383087	1.064245
C116	C	1.666381	0.116913	1.564245
C117	C	1.070319	-0.293243	1.059979
C118	C	1.570319	0.206757	1.559979
C119	C	1.070301	-0.293262	0.978001
C120	C	1.570301	0.206738	1.478001
C121	C	1.118324	-0.338196	0.939145
C122	C	1.618324	0.161804	1.439145
H123	H	0.815504	-0.419926	0.489093
H124	H	1.315504	0.080074	0.989093
C125	C	0.410607	-0.243899	0.284612
C126	C	0.910607	0.256101	0.784612
N127	N	0.378424	-0.206635	0.241324
N128	N	0.878424	0.293365	0.741324
C129	C	1.204102	-0.749228	0.308560
C130	C	1.704102	-0.249228	0.808560
N131	N	1.244282	-0.779606	0.268448
N132	N	1.744282	-0.279606	0.768448
C133	C	1.038076	-0.860910	0.474401
C134	C	1.538076	-0.360910	0.974401
N135	N	0.995014	-0.891309	0.517400
N136	N	1.495014	-0.391309	1.017400
H137	H	1.031187	-0.256688	0.942893
H138	H	1.531187	0.243312	1.442893
H139	H	1.031218	-0.256655	1.091620
H140	H	1.531218	0.243345	1.591620
C141	C	0.582766	-0.243888	0.284587
C142	C	1.082766	0.256112	0.784587
N143	N	0.618501	-0.206625	0.241283
N144	N	1.118501	0.293375	0.741283
H145	H	1.031137	-0.256746	0.690049
H146	H	1.531137	0.243254	1.190049
H147	H	1.205498	-0.419658	1.099352
H148	H	1.705498	0.080342	1.599352
H149	H	1.205474	-0.419691	0.950627
H150	H	1.705474	0.080309	1.450627
C151	C	1.243410	-0.926694	0.269385
C152	C	1.743410	-0.426694	0.769385
N153	N	1.286444	-0.896307	0.226348
N154	N	1.786444	-0.396307	0.726348
H155	H	0.674557	-0.256734	0.299520
H156	H	1.174557	0.243266	0.799520
H157	H	0.823290	-0.256721	0.299501
H158	H	1.323290	0.243279	0.799501
C159	C	0.654458	-0.432795	0.504032
C160	C	1.154458	0.067205	1.004032
N161	N	0.618724	-0.470078	0.547317
N162	N	1.118724	0.029922	1.047317
C163	C	1.219137	-0.432593	0.686673
C164	C	1.719137	0.067407	1.186673
N165	N	1.258929	-0.469821	0.654482
N166	N	1.758929	0.030179	1.154482
H167	H	1.205435	-0.419722	0.846509
H168	H	1.705435	0.080278	1.346509
C169	C	0.401604	-0.432798	0.504079
C170	C	0.901604	0.067202	1.004079
N171	N	0.365863	-0.470062	0.547377
N172	N	0.865863	0.029938	1.047377
C173	C	1.211389	-0.595202	0.301188
C174	C	1.711389	-0.095202	0.801188
N175	N	1.254449	-0.564818	0.258175
N176	N	1.754449	-0.064818	0.758175
C177	C	0.993128	-0.749254	0.519224
C178	C	1.493128	-0.249254	1.019224
N179	N	0.950066	-0.779647	0.562229
N180	N	1.450066	-0.279647	1.062229
C181	C	1.236144	-1.080729	0.276776
C182	C	1.736144	-0.580729	0.776776
N183	N	1.276325	-1.111114	0.236673
N184	N	1.776325	-0.611114	0.736673
H185	H	1.040028	-1.070265	0.472619
H186	H	1.540028	-0.570265	0.972619
C187	C	1.000416	-0.595217	0.511859
C188	C	1.500416	-0.095217	1.011859
N189	N	0.960234	-0.564838	0.551967
N190	N	1.460234	-0.064838	1.051967
C191	C	1.017447	-0.243872	0.849871
C192	C	1.517447	0.256128	1.349871
N193	N	0.977665	-0.206634	0.882060
N194	N	1.477665	0.293366	1.382060
H195	H	1.046317	-0.937197	0.466244
H196	H	1.546317	-0.437197	0.966244
H197	H	1.183633	-0.825527	0.329069
H198	H	1.683633	-0.325527	0.829069
H199	H	0.562657	-0.419942	0.489121
H200	H	1.062657	0.080058	0.989121
