data_functionalizedCrystal
_audit_creation_method	'MofGen! by Chris Wilmer'
_symmetry_space_group_name_H-M	'P1'
_symmetry_Int_Tables_number	1
_symmetry_cell_setting	triclinic
loop_
_symmetry_equiv_pos_as_xyz
  x,y,z
_cell_length_a	17.077404
_cell_length_b	19.805405
_cell_length_c	19.805399
_cell_angle_alpha	90.030709
_cell_angle_beta	90.015845
_cell_angle_gamma	90.026635
loop_
_atom_site_label
_atom_site_type_symbol
_atom_site_fract_x
_atom_site_fract_y
_atom_site_fract_z
Zn1	Zn	1.200007	-0.269465	0.382693
Zn2	Zn	1.199914	-0.382657	0.269501
Zn3	Zn	1.068747	-0.269487	0.269519
Zn4	Zn	1.068699	-0.382618	0.382650
O5	O	1.134342	-0.326057	0.326091
O6	O	1.309842	-0.284487	0.367688
O7	O	1.182496	-0.367670	0.174787
O8	O	1.086218	-0.174768	0.284558
O9	O	1.309774	-0.367648	0.284526
O10	O	1.182654	-0.174752	0.367706
O11	O	1.086128	-0.284525	0.174800
O12	O	0.958894	-0.284488	0.284516
O13	O	1.086136	-0.367583	0.477372
O14	O	0.958858	-0.367604	0.367633
O15	O	1.182607	-0.284450	0.477404
O16	O	1.182449	-0.477368	0.284485
O17	O	1.086046	-0.477340	0.367615
C18	C	0.930394	-0.326045	0.326072
C19	C	0.843144	-0.326056	0.326080
C20	C	0.802156	-0.369400	0.369289
C21	C	0.720176	-0.369401	0.369300
C22	C	0.679185	-0.326062	0.326098
C23	C	0.720179	-0.282713	0.282887
C24	C	0.802158	-0.282708	0.282880
C25	C	0.549309	-0.282726	0.282903
C26	C	0.467324	-0.282731	0.282909
C27	C	0.467327	-0.369419	0.369324
C28	C	0.549306	-0.369415	0.369317
C29	C	0.590294	-0.326066	0.326104
C30	C	1.134254	-0.501913	0.326058
C31	C	1.134288	-0.577145	0.326067
C32	C	1.184534	-0.612481	0.282826
C33	C	1.184567	-0.683170	0.282841
C34	C	1.134350	-0.718520	0.326094
C35	C	1.084101	-0.683179	0.369339
C36	C	1.084073	-0.612492	0.369327
C37	C	1.084217	-0.968252	0.369389
C38	C	1.084248	-1.038945	0.369396
C39	C	1.184712	-1.038930	0.282903
C40	C	1.184683	-0.968243	0.282891
C41	C	1.134438	-0.932908	0.326139
C42	C	1.134403	-0.856259	0.326123
C43	C	1.134380	-0.795168	0.326107
C44	C	1.339086	-0.326070	0.326110
C45	C	1.426336	-0.326075	0.326118
C46	C	1.134376	-0.326010	0.502634
C47	C	1.134391	-0.325990	0.577866
C48	C	1.134452	-0.149514	0.326138
C49	C	1.134499	-0.074282	0.326159
C50	C	1.134353	-0.326055	0.150235
C51	C	1.134490	-0.325884	0.075003
C52	C	1.084226	-0.282692	0.613216
C53	C	1.084237	-0.282679	0.683905
C54	C	1.134417	-0.325961	0.719241
C55	C	1.184584	-0.369263	0.683886
C56	C	1.184569	-0.369279	0.613198
C57	C	1.184646	-0.369200	0.968959
C58	C	1.184659	-0.369179	1.039651
C59	C	1.084315	-0.282600	1.039665
C60	C	1.084300	-0.282616	0.968978
C61	C	1.134463	-0.325920	0.933629
C62	C	1.134450	-0.325935	0.856980
C63	C	1.134435	-0.325943	0.795888
H64	H	0.582678	-0.404710	0.404492
H65	H	0.835525	-0.404695	0.404468
H66	H	1.043467	-0.247341	1.068455
O67	O	1.233354	-0.578071	0.240903
C68	C	1.284022	-0.537132	0.279471
H69	H	1.256294	-0.526523	0.330741
H70	H	1.342198	-0.564328	0.286960
C71	C	1.332293	-0.483034	0.179257
C72	C	1.298234	-0.469999	0.242226
H73	H	1.341063	-0.441625	0.156282
H74	H	1.298159	-0.510617	0.153273
H75	H	1.380770	-0.505700	0.185507
H76	H	1.249754	-0.447342	0.235975
H77	H	1.332360	-0.442411	0.268208
H78	H	0.686807	-0.404697	0.404485
H79	H	1.043369	-0.247443	0.584450
O80	O	0.427456	-0.240713	0.240895
C81	C	0.379966	-0.279173	0.197119
H82	H	0.404649	-0.332470	0.192798
H83	H	0.317855	-0.281552	0.218070
C84	C	0.348336	-0.180513	0.132144
C85	C	0.378656	-0.245972	0.126832
H86	H	0.347524	-0.160033	0.088788
H87	H	0.380328	-0.154601	0.161637
H88	H	0.296579	-0.182505	0.149605
H89	H	0.430414	-0.243979	0.109379
H90	H	0.346672	-0.271883	0.097334
H91	H	0.582679	-0.247421	0.247721
O92	O	0.427394	-0.411462	0.411282
C93	C	0.346248	-0.402183	0.402018
H94	H	0.335065	-0.349919	0.379950
H95	H	0.322946	-0.442284	0.365902
C96	C	0.317924	-0.472670	0.497600
C97	C	0.304189	-0.408476	0.470501
H98	H	0.291979	-0.476555	0.539843
H99	H	0.372594	-0.478923	0.503841
H100	H	0.298506	-0.506080	0.467497
H101	H	0.323616	-0.375068	0.500600
H102	H	0.249522	-0.402217	0.464267
H103	H	0.686798	-0.247422	0.247713
O104	O	1.035304	-0.578237	0.411425
C105	C	1.052434	-0.595439	0.478900
H106	H	1.082625	-0.646742	0.480333
H107	H	1.092764	-0.555614	0.501720
C108	C	0.938803	-0.535713	0.518086
C109	C	0.975878	-0.598728	0.519846
H110	H	0.891580	-0.537739	0.543344
H111	H	0.927263	-0.524121	0.472627
H112	H	0.972419	-0.502532	0.537101
H113	H	0.942265	-0.631906	0.500823
H114	H	0.987410	-0.610326	0.565303
O115	O	0.841943	-0.240680	0.240806
C116	C	0.821861	-0.255376	0.173322
H117	H	0.799296	-0.309444	0.169809
H118	H	0.774287	-0.219067	0.155698
C119	C	0.922386	-0.181033	0.132475
C120	C	0.894678	-0.247443	0.128159
H121	H	0.967301	-0.176137	0.104615
H122	H	0.935914	-0.171130	0.177940
H123	H	0.882734	-0.150783	0.117789
H124	H	0.934325	-0.277691	0.142853
H125	H	0.881158	-0.257352	0.082695
O126	O	1.233399	-0.717390	0.240771
C127	C	1.277725	-0.671031	0.202602
H128	H	1.245551	-0.620669	0.200226
H129	H	1.337322	-0.663452	0.227430
C130	C	1.328615	-0.760518	0.133496
C131	C	1.289095	-0.698663	0.130573
H132	H	1.335633	-0.777563	0.089066
H133	H	1.298754	-0.791752	0.159213
H134	H	1.378275	-0.754193	0.154189
H135	H	1.239433	-0.704990	0.109888
H136	H	1.318948	-0.667431	0.104851
H137	H	1.043356	-1.067725	0.404623
H138	H	1.225524	-0.404427	1.068420
H139	H	1.043441	-0.247369	0.940211
O140	O	1.035326	-0.934039	0.411409
C141	C	0.991019	-0.980401	0.449592
H142	H	0.988354	-1.030810	0.421874
H143	H	1.019719	-0.987860	0.501026
C144	C	0.910723	-0.890958	0.493307
C145	C	0.907445	-0.952871	0.459260
H146	H	0.859172	-0.873976	0.499274
H147	H	0.940575	-0.859723	0.467585
H148	H	0.934644	-0.897183	0.536165
H149	H	0.883534	-0.946644	0.416400
H150	H	0.877587	-0.984105	0.484976
H151	H	1.225572	-0.939462	0.247669
H152	H	1.225627	-1.067708	0.247692
O153	O	1.233303	-0.411239	0.934522
C154	C	1.222546	-0.401967	0.864554
H155	H	1.161980	-0.379799	0.854898
H156	H	1.269126	-0.365932	0.844507
C157	C	1.304080	-0.497690	0.840107
C158	C	1.229688	-0.470468	0.828247
H159	H	1.308489	-0.539944	0.817710
H160	H	1.311330	-0.503935	0.887246
H161	H	1.342888	-0.467654	0.823401
H162	H	1.190882	-0.500500	0.844960
H163	H	1.222432	-0.464229	0.781110
H164	H	1.043217	-0.711967	0.404559
O165	O	1.035485	-0.240553	0.718139
C166	C	0.991183	-0.202364	0.671793
H167	H	1.023328	-0.200036	0.621409
H168	H	0.931547	-0.227143	0.664261
C169	C	0.940445	-0.133178	0.761284
C170	C	0.979930	-0.130314	0.699403
H171	H	0.933500	-0.088735	0.778316
H172	H	0.970290	-0.158908	0.792509
H173	H	0.890752	-0.153830	0.754999
H174	H	1.029625	-0.109670	0.705690
H175	H	0.950093	-0.104579	0.668179
H176	H	1.225437	-0.404507	0.712662
H177	H	1.225424	-0.404532	0.584417
