data_functionalizedCrystal
_audit_creation_method	'MofGen! by Chris Wilmer'
_symmetry_space_group_name_H-M	'P1'
_symmetry_Int_Tables_number	1
_symmetry_cell_setting	triclinic
loop_
_symmetry_equiv_pos_as_xyz
  x,y,z
_cell_length_a	31.640172
_cell_length_b	31.640172
_cell_length_c	31.640172
_cell_angle_alpha	120.009149
_cell_angle_beta	89.990838
_cell_angle_gamma	59.998920
loop_
_atom_site_label
_atom_site_type_symbol
_atom_site_fract_x
_atom_site_fract_y
_atom_site_fract_z
Zr1	Zr	0.407154	0.462626	0.055493
O2	O	0.339650	0.550826	0.123007
O3	O	0.427850	0.374438	0.034786
O4	O	0.427833	0.462632	0.122980
O5	O	0.339678	0.462622	-0.034745
O6	O	0.497390	0.462623	0.122971
O7	O	0.339668	0.462632	0.034813
O8	O	0.497421	0.304860	-0.034793
O9	O	0.339647	0.620386	0.123019
O10	O	0.488583	0.410700	0.025960
O11	O	0.436682	0.410700	-0.025943
O12	O	0.436661	0.514537	0.077895
O13	O	0.384760	0.514537	0.025992
Zr14	Zr	0.518107	0.462597	-0.055458
Zr15	Zr	0.518090	0.462612	0.055478
Zr16	Zr	0.407171	0.462611	-0.055443
Zr17	Zr	0.407149	0.573566	0.055512
Zr18	Zr	0.518111	0.351657	-0.055477
O19	O	0.497411	0.550785	-0.034750
O20	O	0.497386	0.550806	0.122986
O21	O	0.339675	0.550805	-0.034729
O22	O	0.585610	0.374397	-0.122972
O23	O	0.585586	0.374418	0.034765
O24	O	0.427875	0.374417	-0.122950
O25	O	0.585582	0.462601	0.034780
O26	O	0.497428	0.462591	-0.122945
O27	O	0.427871	0.462600	-0.122935
O28	O	0.585593	0.462591	-0.034777
O29	O	0.427826	0.620375	0.123007
O30	O	0.497435	0.304848	-0.122972
O31	O	0.585613	0.304837	-0.122983
O32	O	0.585600	0.304849	-0.034804
O33	O	0.339661	0.620374	0.034840
O34	O	0.427840	0.620363	0.034828
O35	O	0.488599	0.410686	-0.077859
O36	O	0.540501	0.410686	-0.025956
O37	O	0.488579	0.514524	0.025978
O38	O	0.436677	0.514523	-0.025925
C39	C	0.462636	0.323842	-0.000006
C40	C	0.462638	0.276745	-0.000014
C41	C	0.323867	0.462629	0.000036
C42	C	0.276772	0.462635	0.000042
C43	C	0.424304	0.023081	0.038358
C44	C	0.424300	-0.153900	0.038373
O45	O	0.391717	-0.144186	0.070986
N46	N	0.462627	-0.214362	0.000041
C47	C	0.500959	-0.230579	-0.038295
O48	O	0.533561	-0.286067	-0.070895
C49	C	0.500965	-0.053598	-0.038307
C50	C	0.462633	0.006864	0.000024
C51	C	0.385976	0.083540	0.076687
C52	C	0.385976	0.127782	0.076681
C53	C	0.424304	0.111565	0.038347
C54	C	0.462632	0.051106	0.000019
C55	C	0.539299	-0.069815	-0.076640
C56	C	0.539298	-0.025564	-0.076639
C57	C	0.500965	0.034898	-0.038308
C58	C	0.500961	0.079131	-0.038321
N59	N	0.462634	0.139593	0.000011
C60	C	0.424306	0.155810	0.038345
C61	C	0.500953	-0.323494	-0.038287
C62	C	0.500951	-0.367739	-0.038284
C63	C	0.424293	-0.291057	0.038384
C64	C	0.424293	-0.246812	0.038379
C65	C	0.462626	-0.263032	0.000045
C66	C	0.424308	0.248719	0.038330
C67	C	0.424310	0.292962	0.038320
C68	C	0.500969	0.216277	-0.038347
C69	C	0.500966	0.172037	-0.038338
C70	C	0.462633	0.188263	0.000004
O71	O	0.533530	0.069461	-0.070914
O72	O	0.391715	0.211300	0.070947
C73	C	0.424305	-0.021162	0.038364
C74	C	0.462633	-0.081621	0.000036
C75	C	0.500962	-0.097837	-0.038298
C76	C	0.462631	-0.125866	0.000038
C77	C	0.424303	-0.109649	0.038372
C78	C	0.385976	-0.049187	0.076703
C79	C	0.385976	-0.004945	0.076698
C80	C	0.539288	-0.158299	-0.076630
C81	C	0.539285	-0.202539	-0.076622
C82	C	0.500957	-0.186322	-0.038288
C83	C	0.011869	0.408404	-0.027102
C84	C	-0.165116	0.408394	-0.027112
O85	O	-0.164952	0.362297	-0.050187
N86	N	-0.214349	0.462595	-0.000002
C87	C	-0.219334	0.516803	0.027109
O88	O	-0.265270	0.562905	0.050163
C89	C	-0.042350	0.516813	0.027116
C90	C	0.006882	0.462608	0.000009
C91	C	0.061099	0.354203	-0.054208
C92	C	0.105342	0.354207	-0.054203
C93	C	0.100355	0.408410	-0.027092
C94	C	0.051126	0.462611	0.000014
C95	C	-0.047336	0.571020	0.054224
C96	C	-0.003084	0.571018	0.054223
C97	C	0.046148	0.516813	0.027115
C98	C	0.090383	0.516818	0.027130
N99	N	0.139615	0.462616	0.000020
C100	C	0.144601	0.408413	-0.027091
C101	C	-0.312252	0.516794	0.027105
C102	C	-0.356498	0.516792	0.027104
C103	C	-0.302277	0.408382	-0.027119
C104	C	-0.258030	0.408385	-0.027115
C105	C	-0.263019	0.462593	-0.000005
C106	C	0.237514	0.408423	-0.027078
C107	C	0.281758	0.408431	-0.027068
C108	C	0.227534	0.516840	0.027152
C109	C	0.183293	0.516833	0.027145
C110	C	0.188286	0.462619	0.000026
O111	O	0.090258	0.562891	0.050187
O112	O	0.190542	0.362318	-0.050151
C113	C	-0.032375	0.408401	-0.027107
C114	C	-0.081604	0.462601	-0.000002
C115	C	-0.086591	0.516805	0.027109
C116	C	-0.125850	0.462599	-0.000002
C117	C	-0.120864	0.408395	-0.027113
C118	C	-0.071631	0.354194	-0.054223
C119	C	-0.027388	0.354197	-0.054218
C120	C	-0.135823	0.571007	0.054219
C121	C	-0.180064	0.570999	0.054212
C122	C	-0.175078	0.516795	0.027102
C123	C	0.601394	0.462594	-0.000001
C124	C	0.648489	0.462588	-0.000007
C125	C	0.462609	0.462630	0.138781
C126	C	0.462602	0.462636	0.185876
C127	C	0.462625	0.601381	0.000041
C128	C	0.462623	0.648478	0.000050
C129	C	0.500955	0.462607	0.477880
C130	C	0.500964	0.462604	0.654868
O131	O	0.533567	0.462573	0.677737
N132	N	0.462644	0.462610	0.677004
C133	C	0.424320	0.462614	0.654889
O134	O	0.391730	0.462613	0.677775
C135	C	0.424313	0.462613	0.477899
C136	C	0.462633	0.462613	0.455768
C137	C	0.539272	0.462606	0.455749
C138	C	0.539267	0.462610	0.411506
C139	C	0.500946	0.462616	0.389394
C140	C	0.462629	0.462617	0.411525
C141	C	0.385992	0.462612	0.455782
C142	C	0.385995	0.462611	0.411531
C143	C	0.424314	0.462610	0.389400
C144	C	0.424303	0.462626	0.345171
N145	N	0.462623	0.462620	0.323035
C146	C	0.500945	0.462614	0.345146
C147	C	0.424326	0.462615	0.747811
C148	C	0.424327	0.462616	0.792059
C149	C	0.500972	0.462605	0.792035
C150	C	0.500968	0.462608	0.747789
C151	C	0.462646	0.462609	0.725675
C152	C	0.500932	0.462624	0.252234
C153	C	0.500923	0.462630	0.207988
C154	C	0.424280	0.462638	0.208014
C155	C	0.424287	0.462635	0.252257
C156	C	0.462618	0.462626	0.274365
O157	O	0.391720	0.462650	0.322271
O158	O	0.533537	0.462602	0.322246
C159	C	0.500959	0.462603	0.522123
C160	C	0.462642	0.462604	0.544254
C161	C	0.424320	0.462610	0.522142
C162	C	0.462643	0.462605	0.588502
C163	C	0.500965	0.462600	0.610613
C164	C	0.539285	0.462594	0.588477
C165	C	0.539281	0.462598	0.544234
C166	C	0.386000	0.462616	0.544278
C167	C	0.386007	0.462613	0.588521
C168	C	0.424329	0.462607	0.610633
C169	C	0.462649	0.462599	0.861257
C170	C	0.462649	0.462611	0.814171
C171	C	0.601400	0.323825	-0.000025
C172	C	0.648496	0.276722	-0.000039
C173	C	0.462658	0.323824	-0.138770
C174	C	0.462667	0.276721	-0.185873
C175	C	0.601421	0.323807	-0.138788
C176	C	0.648525	0.276697	-0.185898
C177	C	0.323840	0.601416	0.138824
C178	C	0.276736	0.648526	0.185933
C179	C	0.323861	0.601398	0.000060
C180	C	0.276764	0.648501	0.000074
C181	C	0.462603	0.601399	0.138805
C182	C	0.462594	0.648502	0.185908
C183	C	0.643513	0.254609	0.027059
C184	C	0.687762	0.210356	0.027056
C185	C	0.736993	0.188215	-0.000049
C186	C	0.741975	0.210333	-0.027147
C187	C	0.697727	0.254587	-0.027141
C188	C	0.489772	0.254594	-0.235098
C189	C	0.489778	0.210342	-0.279360
C190	C	0.462683	0.188214	-0.274397
C191	C	0.435575	0.210346	-0.225167
C192	C	0.435565	0.254600	-0.180906
C193	C	0.697743	0.254575	-0.180928
C194	C	0.742006	0.210317	-0.225188
C195	C	0.737051	0.188180	-0.274417
C196	C	0.687829	0.210307	-0.279386
C197	C	0.643566	0.254567	-0.235126
C198	C	0.227518	0.670654	0.180963
C199	C	0.183254	0.714925	0.225223
C200	C	0.188209	0.737065	0.274453
C201	C	0.237432	0.714935	0.279421
C202	C	0.281694	0.670667	0.235162
C203	C	0.281748	0.670619	-0.027019
C204	C	0.237499	0.714883	-0.027004
C205	C	0.188268	0.737026	0.000102
C206	C	0.183286	0.714907	0.027199
C207	C	0.227534	0.670646	0.027186
C208	C	0.489695	0.670615	0.180928
C209	C	0.489696	0.714868	0.225183
C210	C	0.462593	0.737009	0.274416
C211	C	0.435492	0.714892	0.279395
C212	C	0.435494	0.670637	0.235141
H213	H	0.393092	0.342194	0.069533
H214	H	0.603493	0.272574	-0.239180
F215	F	0.334074	0.647118	0.240459
F216	F	0.580063	0.462600	0.479275
H217	H	0.701792	0.272586	-0.049210
H218	H	0.223474	0.652630	0.140882
F219	F	0.462698	0.141114	-0.321509
H220	H	0.511765	0.652595	0.140844
H221	H	0.773097	0.152140	-0.310452
H222	H	0.321845	0.364289	-0.049144
F223	F	-0.099725	0.628714	0.083073
F224	F	0.242697	0.738502	0.331819
F225	F	0.242813	0.738415	-0.055847
H226	H	0.532172	0.462607	0.729772
F227	F	0.580100	-0.042833	-0.117439
H228	H	0.683802	0.192276	-0.319474
H229	H	0.462596	0.773045	0.310446
F230	F	0.383496	-0.182465	0.079176
F231	F	0.794375	0.186761	-0.055993
H232	H	0.223482	0.560972	0.049226
H233	H	0.321830	0.652594	-0.049095
F234	F	0.141180	0.784132	0.000110
H235	H	0.511836	0.272605	-0.239149
H236	H	0.511855	0.192327	-0.319441
H237	H	0.532170	-0.336711	-0.069505
F238	F	-0.205636	0.350693	-0.055966
F239	F	0.130886	0.738477	0.056044
H240	H	0.143180	0.732936	0.221168
F241	F	0.406645	0.738466	0.331797
H242	H	0.570513	-0.119040	-0.107853
F243	F	0.383510	0.265996	0.079139
F244	F	0.345178	0.192127	0.117480
F245	F	0.141096	0.784179	0.321554
F246	F	-0.408891	0.574484	0.055962
H247	H	0.511764	0.732872	0.221119
F248	F	0.406740	0.186790	-0.219893
H249	H	0.773018	0.152180	-0.000050
F250	F	0.591122	0.278166	0.055911
F251	F	0.580068	0.462591	0.612019
F252	F	0.541709	0.462632	0.184438
F253	F	-0.008399	0.628715	0.083076
H254	H	0.145425	0.310067	-0.076274
F255	F	0.406718	0.278142	-0.128518
H256	H	0.701787	0.272592	-0.140847
F257	F	0.541728	0.462614	0.275756
F258	F	0.383501	-0.273805	0.079182
F259	F	0.794388	0.186773	-0.219889
F260	F	0.222222	0.647108	0.056021
F261	F	0.406643	0.647111	0.240449
H262	H	0.532160	-0.416967	-0.069502
F263	F	0.541760	0.107687	-0.079138
F264	F	0.345178	0.100811	0.117491
H265	H	0.354762	0.044283	0.107910
F266	F	0.541757	0.199027	-0.079144
F267	F	0.580084	-0.266887	-0.117424
H268	H	0.393118	0.462616	0.729810
F269	F	0.682448	0.186823	0.055897
H270	H	0.570501	-0.171513	-0.107846
F271	F	0.242835	0.350723	-0.055940
F272	F	0.345183	-0.031936	0.117500
H273	H	0.065168	0.310062	-0.076287
H274	H	0.143205	0.560971	0.049225
F275	F	-0.296977	0.350694	-0.055972
F276	F	-0.232460	0.628696	0.083068
F277	F	0.025005	0.296504	-0.083070
F278	F	-0.066332	0.296506	-0.083075
F279	F	-0.317570	0.574493	0.055961
H280	H	-0.139891	0.615147	0.076297
H281	H	0.532174	0.462602	0.810047
F282	F	0.580054	0.462606	0.387955
F283	F	0.345207	0.462609	0.387998
F284	F	0.383537	0.462628	0.815613
H285	H	0.570484	0.462597	0.526219
H286	H	0.354789	0.462612	0.473794
F287	F	0.383496	0.462646	0.184475
F288	F	0.345217	0.462617	0.612072
F289	F	0.345211	0.462622	0.520750
F290	F	0.383498	0.462645	0.275814
