data_functionalizedCrystal
_audit_creation_method	'MofGen! by Chris Wilmer'
_symmetry_space_group_name_H-M	'P1'
_symmetry_Int_Tables_number	1
_symmetry_cell_setting	triclinic
loop_
_symmetry_equiv_pos_as_xyz
  x,y,z
_cell_length_a	19.077105
_cell_length_b	18.215406
_cell_length_c	18.215399
_cell_angle_alpha	89.984834
_cell_angle_beta	87.683200
_cell_angle_gamma	87.697670
loop_
_atom_site_label
_atom_site_type_symbol
_atom_site_fract_x
_atom_site_fract_y
_atom_site_fract_z
Zn1	Zn	1.076119	-0.338271	-0.461340
Zn2	Zn	1.576119	0.161729	0.038660
Zn3	Zn	1.076081	-0.461341	-0.338299
Zn4	Zn	1.576081	0.038659	0.161701
Zn5	Zn	0.958420	-0.333342	-0.333348
Zn6	Zn	1.458420	0.166658	0.166652
Zn7	Zn	0.958436	-0.456349	-0.456387
Zn8	Zn	1.458436	0.043651	0.043613
O9	O	1.017264	-0.397325	-0.397343
O10	O	1.517264	0.102675	0.102657
O11	O	1.174607	-0.358748	-0.449163
O12	O	1.674607	0.141252	0.050837
O13	O	1.060450	-0.444387	-0.234657
O14	O	1.560450	0.055613	0.265343
O15	O	0.974042	-0.231012	-0.350327
O16	O	1.474042	0.268988	0.149673
O17	O	1.174579	-0.449167	-0.358766
O18	O	1.674579	0.050833	0.141234
O19	O	1.060515	-0.234633	-0.444362
O20	O	1.560515	0.265367	0.055638
O21	O	0.974005	-0.350347	-0.231019
O22	O	1.474005	0.149653	0.268981
O23	O	0.859929	-0.345507	-0.345525
O24	O	1.359929	0.154493	0.154475
O25	O	0.974070	-0.440659	-0.560029
O26	O	1.474070	0.059341	-0.060029
O27	O	0.859942	-0.435879	-0.435921
O28	O	1.359942	0.064121	0.064079
O29	O	1.060532	-0.353908	-0.563668
O30	O	1.560532	0.146092	-0.063668
O31	O	1.060467	-0.563662	-0.353963
O32	O	1.560467	-0.063662	0.146037
O33	O	0.974033	-0.559995	-0.440722
O34	O	1.474033	-0.059995	0.059278
C35	C	0.834397	-0.389617	-0.389649
C36	C	1.334397	0.110383	0.110351
C37	C	0.756166	-0.386337	-0.386374
C38	C	1.256166	0.113663	0.113626
C39	C	1.017267	-0.588532	-0.397360
C40	C	1.517267	-0.088532	0.102640
C41	C	1.017332	-0.670333	-0.397394
C42	C	1.517332	-0.170333	0.102606
C43	C	1.017307	-0.397276	-0.589298
C44	C	1.517307	0.102724	-0.089298
C45	C	1.017325	-0.397256	-0.671098
C46	C	1.517325	0.102744	-0.171098
C47	C	0.719438	-0.431919	-0.431826
C48	C	1.219438	0.068081	0.068174
C49	C	0.645931	-0.428828	-0.428753
C50	C	1.145931	0.071172	0.071247
C51	C	0.609155	-0.380157	-0.380223
C52	C	1.109155	0.119843	0.119777
C53	C	0.645888	-0.334570	-0.334769
C54	C	1.145888	0.165430	0.165231
C55	C	0.719393	-0.337658	-0.337847
C56	C	1.219393	0.162342	0.162153
C57	C	0.389315	-0.365864	-0.365984
C58	C	0.889315	0.134136	0.134016
C59	C	0.315805	-0.362780	-0.362909
C60	C	0.815805	0.137220	0.137091
C61	C	0.315853	-0.457037	-0.456894
C62	C	0.815853	0.042963	0.043106
C63	C	0.389360	-0.460125	-0.459964
C64	C	0.889360	0.039875	0.040036
C65	C	0.426087	-0.414535	-0.414513
C66	C	0.926087	0.085465	0.085487
N67	N	0.534019	-0.376997	-0.377079
N68	N	1.034019	0.123003	0.122921
N69	N	0.501221	-0.417691	-0.417661
N70	N	1.001221	0.082309	0.082339
C71	C	1.200845	-0.405064	-0.405069
C72	C	1.700845	0.094936	0.094931
C73	C	1.279076	-0.408362	-0.408361
C74	C	1.779076	0.091638	0.091639
C75	C	1.017281	-0.205373	-0.397344
C76	C	1.517281	0.294627	0.102656
C77	C	1.017288	-0.123575	-0.397345
C78	C	1.517288	0.376425	0.102655
C79	C	0.972283	0.066505	-0.348408
C80	C	1.472283	0.566505	0.151592
C81	C	0.972289	0.143364	-0.348417
C82	C	1.472289	0.643364	0.151583
C83	C	1.062339	0.139581	-0.446336
C84	C	1.562339	0.639581	0.053664
C85	C	1.062329	0.062724	-0.446329
C86	C	1.562329	0.562724	0.053671
C87	C	1.017302	0.026188	-0.397361
C88	C	1.517302	0.526188	0.102639
C89	C	1.017318	0.179904	-0.397377
C90	C	1.517318	0.679904	0.102623
C91	C	1.017325	0.263237	-0.397387
C92	C	1.517325	0.763237	0.102613
C93	C	1.017294	-0.057150	-0.397352
C94	C	1.517294	0.442850	0.102648
C95	C	1.062362	-0.352041	-0.861188
C96	C	1.562362	0.147959	-0.361188
C97	C	1.062370	-0.352020	-0.938048
C98	C	1.562370	0.147980	-0.438048
C99	C	0.972339	-0.442359	-0.934248
C100	C	1.472339	0.057641	-0.434248
C101	C	0.972327	-0.442375	-0.857390
C102	C	1.472327	0.057625	-0.357390
C103	C	1.017343	-0.397218	-0.820862
C104	C	1.517343	0.102782	-0.320862
C105	C	1.017363	-0.397180	-0.974579
C106	C	1.517363	0.102820	-0.474579
C107	C	1.017371	-0.397157	-1.057913
C108	C	1.517371	0.102843	-0.557913
C109	C	1.017333	-0.397239	-0.737523
C110	C	1.517333	0.102761	-0.237523
C111	C	1.017262	-0.397323	-0.206137
C112	C	1.517262	0.102677	0.293863
C113	C	1.017380	-0.397142	-0.124344
C114	C	1.517380	0.102858	0.375656
H115	H	0.749376	-0.471555	-0.471342
H116	H	1.249376	0.028445	0.028658
H117	H	0.616030	-0.465946	-0.465765
H118	H	1.116030	0.034054	0.034235
H119	H	0.419298	-0.499759	-0.499480
H120	H	0.919298	0.000241	0.000520
C121	C	1.111874	-0.302360	-0.821011
C122	C	1.611874	0.197640	-0.321011
N123	N	1.149166	-0.264935	-0.790751
N124	N	1.649166	0.235065	-0.290751
C125	C	0.922759	0.187709	-0.294570
C126	C	1.422759	0.687709	0.205430
N127	N	0.885448	0.221110	-0.254013
N128	N	1.385448	0.721110	0.245987
H129	H	1.098999	0.169337	-0.486203
H130	H	1.598999	0.669337	0.013797
H131	H	0.419209	-0.328747	-0.328969
H132	H	0.919209	0.171253	0.171031
C133	C	0.922798	-0.492073	-0.813028
C134	C	1.422798	0.007927	-0.313028
N135	N	0.885492	-0.529502	-0.779615
N136	N	1.385492	-0.029502	-0.279615
C137	C	0.275351	-0.309236	-0.309521
C138	C	0.775351	0.190764	0.190479
N139	N	0.244882	-0.268909	-0.269310
N140	N	0.744882	0.231091	0.230690
C141	C	0.922747	0.026319	-0.294548
C142	C	1.422747	0.526319	0.205452
N143	N	0.885433	-0.003948	-0.253981
N144	N	1.385433	0.496052	0.246019
C145	C	1.111859	0.018373	-0.500182
C146	C	1.611859	0.518373	-0.000182
N147	N	1.149163	-0.015033	-0.540741
N148	N	1.649163	0.484967	-0.040741
C149	C	1.111896	-0.302324	-0.982403
C150	C	1.611896	0.197676	-0.482403
N151	N	1.149202	-0.264890	-1.015811
N152	N	1.649202	0.235110	-0.515811
C153	C	0.922823	-0.492028	-0.974435
C154	C	1.422823	0.007972	-0.474435
N155	N	0.885526	-0.529439	-1.004703
N156	N	1.385526	-0.029439	-0.504703
H157	H	0.285942	-0.494153	-0.493899
H158	H	0.785942	0.005847	0.006101
H159	H	0.615938	-0.294938	-0.295259
H160	H	1.115938	0.205062	0.204741
H161	H	0.749296	-0.300536	-0.300838
H162	H	1.249296	0.199464	0.199162
