data_functionalizedCrystal
_audit_creation_method	'MofGen! by Chris Wilmer'
_symmetry_space_group_name_H-M	'P1'
_symmetry_Int_Tables_number	1
_symmetry_cell_setting	triclinic
loop_
_symmetry_equiv_pos_as_xyz
  x,y,z
_cell_length_a	14.908571
_cell_length_b	16.959454
_cell_length_c	14.908694
_cell_angle_alpha	93.271572
_cell_angle_beta	83.592472
_cell_angle_gamma	86.716421
loop_
_atom_site_label
_atom_site_type_symbol
_atom_site_fract_x
_atom_site_fract_y
_atom_site_fract_z
Zn1	Zn	1.413345	-0.416138	-0.591530
Zn2	Zn	1.404514	-0.540230	-0.440172
Zn3	Zn	1.253246	-0.399970	-0.431464
Zn4	Zn	1.261946	-0.540169	-0.582770
O5	O	1.333263	-0.474127	-0.511484
O6	O	1.538840	-0.439390	-0.578762
O7	O	1.377112	-0.514884	-0.312351
O8	O	1.274539	-0.291508	-0.452719
O9	O	1.532352	-0.530561	-0.467560
O10	O	1.392162	-0.303386	-0.570319
O11	O	1.265976	-0.411835	-0.305953
O12	O	1.127733	-0.411776	-0.444225
O13	O	1.289365	-0.530456	-0.710598
O14	O	1.134125	-0.514779	-0.555389
O15	O	1.400598	-0.439331	-0.717034
O16	O	1.385547	-0.650829	-0.459065
O17	O	1.280802	-0.650784	-0.563832
C18	C	1.098086	-0.461517	-0.497912
C19	C	0.997477	-0.456143	-0.492127
C20	C	1.333186	-0.679488	-0.511464
C21	C	1.333238	-0.767349	-0.511491
C22	C	0.815118	-0.553450	-0.596856
C23	C	0.720587	-0.548404	-0.591424
C24	C	0.713885	-0.440999	-0.475836
C25	C	0.808415	-0.446046	-0.481268
C26	C	0.859028	-0.502274	-0.541780
C27	C	0.953560	-0.507325	-0.547206
C28	C	0.946856	-0.399917	-0.431624
C29	C	0.852326	-0.394870	-0.426192
C30	C	1.278806	-1.138836	-0.566034
C31	C	1.387977	-1.138833	-0.457040
C32	C	1.387945	-1.056285	-0.457030
C33	C	1.333341	-1.015008	-0.511522
C34	C	1.278770	-1.056280	-0.566024
C35	C	1.442508	-1.015006	-0.402522
C36	C	1.442477	-0.932453	-0.402509
C37	C	1.387878	-0.891176	-0.457006
C38	C	1.333306	-0.932452	-0.511511
C39	C	1.278702	-0.891176	-0.566003
C40	C	1.224134	-0.932452	-0.620514
C41	C	1.224171	-1.015002	-0.620521
C42	C	1.387841	-0.808625	-0.456999
C43	C	1.278666	-0.808620	-0.565993
C44	C	1.569358	-0.486786	-0.525109
C45	C	1.669968	-0.492181	-0.530916
C46	C	1.346937	-0.486690	-0.747577
C47	C	1.352764	-0.492044	-0.848186
C48	C	1.333365	-0.267966	-0.511525
C49	C	1.333409	-0.180112	-0.511542
C50	C	1.247967	-0.394801	-1.030580
C51	C	1.253439	-0.399829	-1.125110
C52	C	1.369175	-0.507130	-1.131780
C53	C	1.363703	-0.502103	-1.037249
C54	C	1.303098	-0.445935	-0.986652
C55	C	1.297631	-0.440904	-0.892120
C56	C	1.413361	-0.548209	-0.898791
C57	C	1.418833	-0.553237	-0.993322
C58	C	1.319694	-0.461558	-0.276312
C59	C	1.314042	-0.455991	-0.175714
H60	H	0.994768	-0.553110	-0.596476
C61	C	1.192800	-0.343578	-1.173428
H62	H	1.155929	-0.309405	-1.129753
H63	H	1.155482	-0.373659	-1.208025
H64	H	1.229582	-0.312952	-1.212307
C65	C	1.485496	-0.615013	-1.048983
H66	H	1.480865	-0.610681	-1.111574
H67	H	1.471337	-0.666587	-1.032717
H68	H	1.545424	-0.605868	-1.037004
C69	C	1.448033	-1.184230	-0.397099
H70	H	1.480523	-1.147825	-0.364634
H71	H	1.489462	-1.220361	-0.434032
H72	H	1.411158	-1.212505	-0.355634
H73	H	1.418504	-0.552869	-1.172991
C74	C	1.181314	-0.333019	-0.974917
H75	H	1.185957	-0.337344	-0.912327
H76	H	1.121386	-0.342144	-0.986893
H77	H	1.195494	-0.281444	-0.991183
C78	C	1.474004	-0.604462	-0.850469
H79	H	1.462064	-0.593428	-0.786923
H80	H	1.535724	-0.596979	-0.869477
H81	H	1.461623	-0.657686	-0.865186
H82	H	0.856328	-0.599238	-0.646122
C83	C	0.995159	-0.343619	-0.371039
H84	H	1.058708	-0.354673	-0.382942
H85	H	0.976124	-0.351039	-0.309309
H86	H	0.980456	-0.290409	-0.383504
C87	C	1.230970	-0.379126	-0.836460
H88	H	1.235611	-0.383449	-0.773869
H89	H	1.171045	-0.388261	-0.848439
H90	H	1.245142	-0.327550	-0.852728
C91	C	1.502563	-1.060406	-0.342581
H92	H	1.535049	-1.024002	-0.310110
H93	H	1.543997	-1.096531	-0.379516
H94	H	1.465688	-1.088686	-0.301123
C95	C	1.502508	-0.887058	-0.342560
H96	H	1.535036	-0.923465	-0.310114
H97	H	1.465621	-0.850927	-0.301093
H98	H	1.543917	-0.858784	-0.379499
C99	C	0.672290	-0.604682	-0.652027
H100	H	0.715975	-0.638888	-0.688843
H101	H	0.637726	-0.574615	-0.689398
H102	H	0.633381	-0.635272	-0.615231
H103	H	0.672659	-0.395216	-0.426577
H104	H	0.811104	-0.349089	-0.376928
H105	H	1.234205	-0.775018	-0.610370
H106	H	1.179671	-0.898834	-0.664877
H107	H	1.179743	-1.048616	-0.664900
C108	C	1.218782	-1.184233	-0.625988
H109	H	1.226617	-1.239310	-0.618190
H110	H	1.235494	-1.174624	-0.687575
H111	H	1.157196	-1.166781	-0.609172
C112	C	1.447858	-0.763225	-0.397046
H113	H	1.480384	-0.799631	-0.364596
H114	H	1.410965	-0.727096	-0.355582
H115	H	1.489270	-0.734949	-0.433979
