data_functionalizedCrystal
_audit_creation_method	'MofGen! by Chris Wilmer'
_symmetry_space_group_name_H-M	'P1'
_symmetry_Int_Tables_number	1
_symmetry_cell_setting	triclinic
loop_
_symmetry_equiv_pos_as_xyz
  x,y,z
_cell_length_a	14.044220
_cell_length_b	16.992695
_cell_length_c	15.455313
_cell_angle_alpha	92.847427
_cell_angle_beta	87.080121
_cell_angle_gamma	91.928550
loop_
_atom_site_label
_atom_site_type_symbol
_atom_site_fract_x
_atom_site_fract_y
_atom_site_fract_z
O1	O	1.276013	0.186891	-0.072039
O2	O	0.999526	0.180033	-0.072061
O3	O	1.136661	0.069242	-0.072043
O4	O	1.138878	0.297682	-0.072057
O5	O	1.128817	0.075549	0.072218
O6	O	0.991682	0.186340	0.072200
O7	O	1.268169	0.193198	0.072222
Cu8	Cu	1.129209	0.190345	0.085383
Cu9	Cu	1.138486	0.182886	-0.085222
O10	O	1.131034	0.303989	0.072204
C11	C	0.960062	0.180184	0.000067
C12	C	0.854158	0.171230	0.000058
C13	C	1.129887	0.042984	0.000087
C14	C	1.121378	-0.044656	0.000086
C15	C	1.203475	-0.089154	0.000093
C16	C	1.195475	-0.171500	0.000084
C17	C	1.105377	-0.209347	0.000074
C18	C	1.023275	-0.164843	0.000064
C19	C	1.031276	-0.082498	0.000067
C20	C	1.072216	-0.455265	0.000060
C21	C	1.064220	-0.537615	0.000060
C22	C	1.236421	-0.544267	0.000078
C23	C	1.244414	-0.461920	0.000086
C24	C	1.162312	-0.417424	0.000071
N25	N	1.097198	-0.293518	0.000068
N26	N	1.170493	-0.333254	0.000072
C27	C	0.660256	0.154861	0.000077
C28	C	0.607433	0.218367	0.000076
C29	C	0.499539	0.209259	0.000087
C30	C	0.768160	0.163967	0.000066
C31	C	1.307633	0.193047	0.000092
C32	C	1.413537	0.202001	0.000095
C33	C	1.137808	0.330247	0.000072
C34	C	1.146317	0.417886	0.000067
N35	N	1.122691	0.195591	0.205378
N36	N	1.145011	0.177634	-0.205217
C37	C	1.180974	0.148544	0.250779
C38	C	1.176054	0.152519	0.341587
C39	C	1.112856	0.203546	0.386991
C40	C	1.054567	0.250595	0.341583
C41	C	1.059482	0.246615	0.250777
C42	C	1.091637	0.220704	0.658569
C43	C	1.086728	0.224682	0.749381
C44	C	1.208215	0.126604	0.749379
C45	C	1.213129	0.122632	0.658572
C46	C	1.154836	0.169678	0.613172
N47	N	1.107828	0.207613	0.479810
N48	N	1.159860	0.165607	0.520354
H49	H	1.276841	-0.058345	0.000107
Cl50	Cl	1.260433	0.084396	0.193710
H51	H	0.964424	-0.046269	0.000061
H52	H	0.643242	0.279576	0.000069
H53	H	1.317781	-0.431111	0.000094
H54	H	1.005362	-0.419045	0.000048
H55	H	0.990848	-0.568427	0.000066
H56	H	1.303264	-0.580505	0.000088
Cl57	Cl	0.604974	0.060363	0.000084
H58	H	0.949916	-0.195665	0.000051
Cl59	Cl	1.249324	0.093372	0.398665
H60	H	1.264590	0.081082	0.621606
Cl61	Cl	1.298687	-0.227437	0.000096
Cl62	Cl	1.281489	0.067461	0.806457
H63	H	1.035261	0.266237	0.786345
Cl64	Cl	1.018361	0.279849	0.601501
H65	H	1.003104	0.292140	0.378556
Cl66	Cl	0.986205	0.305761	0.193701
