data_functionalizedCrystal
_audit_creation_method	'MofGen! by Chris Wilmer'
_symmetry_space_group_name_H-M	'P1'
_symmetry_Int_Tables_number	1
_symmetry_cell_setting	triclinic
loop_
_symmetry_equiv_pos_as_xyz
  x,y,z
_cell_length_a	19.288840
_cell_length_b	19.288868
_cell_length_c	15.500373
_cell_angle_alpha	93.183070
_cell_angle_beta	93.168729
_cell_angle_gamma	83.131872
loop_
_atom_site_label
_atom_site_type_symbol
_atom_site_fract_x
_atom_site_fract_y
_atom_site_fract_z
O1	O	0.918491	0.083687	-0.072085
O2	O	0.716229	0.095395	-0.072055
O3	O	0.823203	-0.011589	-0.072067
O4	O	0.811517	0.190672	-0.072074
O5	O	0.828922	-0.005849	0.071817
O6	O	0.721948	0.101136	0.071829
O7	O	0.924210	0.089427	0.071799
Cu8	Cu	0.823601	0.095806	0.084952
Cu9	Cu	0.816838	0.089017	-0.085208
O10	O	0.817235	0.196412	0.071810
C11	C	0.693212	0.097892	-0.000109
C12	C	0.616108	0.096770	-0.000098
C13	C	0.576787	0.093102	-0.078531
C14	C	0.504339	0.092040	-0.078542
C15	C	0.471218	0.094631	-0.000114
C16	C	0.510548	0.098304	0.078329
C17	C	0.582992	0.099373	0.078338
C18	C	0.364277	0.054651	0.059961
C19	C	0.291834	0.053577	0.059950
C20	C	0.247773	0.091337	-0.000137
C21	C	0.276165	0.130161	-0.060226
C22	C	0.348610	0.131230	-0.060218
C23	C	0.392664	0.093473	-0.000115
C24	C	0.129896	0.086517	-0.078587
C25	C	0.057447	0.085459	-0.078594
C26	C	0.063658	0.091717	0.078279
C27	C	0.136104	0.092782	0.078284
C28	C	0.169220	0.090178	-0.000151
C29	C	0.825686	-0.034596	-0.000125
C30	C	0.824556	-0.111699	-0.000127
C31	C	0.947227	0.086931	-0.000149
C32	C	1.024331	0.088052	-0.000166
N33	N	0.828363	0.100580	0.204633
C34	C	0.814752	0.219418	-0.000133
C35	C	0.815882	0.296521	-0.000137
C36	C	0.820916	0.848956	-0.078557
C37	C	0.819849	0.776510	-0.078560
C38	C	0.822437	0.743409	-0.000130
C39	C	0.826073	0.782764	0.078311
C40	C	0.827133	0.855210	0.078312
C41	C	0.863828	0.625578	0.059953
C42	C	0.862772	0.553133	0.059949
C43	C	0.819165	0.519963	-0.000130
C44	C	0.776622	0.559246	-0.060218
C45	C	0.777682	0.631691	-0.060217
C46	C	0.821287	0.664855	-0.000122
C47	C	0.814367	0.402063	-0.078568
C48	C	0.813296	0.329616	-0.078568
C49	C	0.819527	0.335872	0.078305
C50	C	0.820591	0.408318	0.078303
C51	C	0.818014	0.441409	-0.000136
N52	N	0.812081	0.084237	-0.204889
C53	C	0.788185	0.060371	0.249942
C54	C	0.791803	0.063989	0.340512
C55	C	0.835604	0.107814	0.385771
C56	C	0.875783	0.148028	0.340455
C57	C	0.872161	0.144412	0.249887
C58	C	0.848638	0.120836	0.659227
C59	C	0.852259	0.124447	0.749802
C60	C	0.768278	0.040409	0.749852
C61	C	0.764662	0.036794	0.659282
C62	C	0.804839	0.077011	0.613974
C63	C	0.839305	0.111512	0.478348
C64	C	0.801134	0.073316	0.521399
H65	H	0.818816	0.875894	-0.142428
C66	C	0.179361	0.096808	0.164562
H67	H	0.149262	0.098194	0.211270
H68	H	0.202321	0.137850	0.167826
H69	H	0.213180	0.056852	0.167825
C70	C	0.909566	0.509929	0.126042
H71	H	0.935679	0.540060	0.161833
H72	H	0.940690	0.476099	0.096291
H73	H	0.881194	0.486984	0.160792
H74	H	0.816881	0.744469	-0.142429
C75	C	0.911799	0.662061	0.126039
H76	H	0.906334	0.710833	0.117440
H77	H	0.959066	0.643489	0.118469
H78	H	0.899580	0.654375	0.182984
H79	H	0.156859	0.084405	-0.142454
H80	H	0.830094	0.887245	0.142181
H81	H	0.025432	0.082476	-0.142467
C82	C	0.412741	0.013114	0.126060
H83	H	0.459952	0.019316	0.117465
H84	H	0.406972	-0.035104	0.118497
H85	H	0.401203	0.029519	0.183000
H86	H	0.810329	0.297583	-0.142438
H87	H	0.735567	0.007668	0.786751
C88	C	0.379834	0.174031	-0.126209
H89	H	0.429287	0.169282	-0.117570
H90	H	0.361823	0.221880	-0.118548
H91	H	0.367661	0.157351	-0.183197
C92	C	0.822370	0.299474	0.164580
H93	H	0.824687	0.333286	0.211292
H94	H	0.862580	0.265914	0.167840
H95	H	0.781582	0.276773	0.167842
C96	C	0.474120	0.101155	0.164599
H97	H	0.507917	0.103499	0.211315
H98	H	0.451420	0.060372	0.167861
H99	H	0.440557	0.141370	0.167852
C100	C	0.626249	0.103397	0.164618
H101	H	0.596150	0.104784	0.211327
H102	H	0.649214	0.144437	0.167885
H103	H	0.660064	0.063439	0.167876
C104	C	0.887486	0.159716	0.528132
H105	H	0.910897	0.183150	0.488179
H106	H	0.920950	0.132578	0.563453
H107	H	0.860327	0.193171	0.563469
H108	H	0.743040	0.663673	-0.109141
H109	H	0.828177	0.755810	0.142170
H110	H	0.887928	0.160137	0.786649
H111	H	0.268724	0.021960	0.108874
C112	C	0.824599	0.451602	0.164574
H113	H	0.824853	0.499489	0.153342
H114	H	0.866200	0.435590	0.196802
H115	H	0.785202	0.446439	0.196800
H116	H	0.752520	0.024682	0.213099
H117	H	0.728997	0.001105	0.622438
H118	H	0.911444	0.183714	0.377312
C119	C	0.728650	0.522770	-0.126306
H120	H	0.734104	0.473999	-0.117697
H121	H	0.740866	0.530454	-0.183247
H122	H	0.681381	0.541345	-0.118732
H123	H	0.759086	0.031246	0.377399
C124	C	0.916356	0.188640	0.200043
H125	H	0.907920	0.180216	0.139622
H126	H	0.964513	0.176205	0.214859
H127	H	0.903886	0.236795	0.214888
H128	H	0.812265	0.429008	-0.142438
H129	H	0.881357	0.153580	0.622348
H130	H	0.765468	0.037637	0.484545
H131	H	0.240291	0.160911	-0.109152
H132	H	0.472318	0.089054	-0.142414
C133	C	0.613209	0.090248	-0.164806
H134	H	0.579409	0.087918	-0.211520
H135	H	0.646774	0.050041	-0.168066
H136	H	0.635905	0.131039	-0.168064
H137	H	0.036690	0.093831	0.142136
