data_functionalizedCrystal
_audit_creation_method	'MofGen! by Chris Wilmer'
_symmetry_space_group_name_H-M	'P1'
_symmetry_Int_Tables_number	1
_symmetry_cell_setting	triclinic
loop_
_symmetry_equiv_pos_as_xyz
  x,y,z
_cell_length_a	15.537862
_cell_length_b	11.792241
_cell_length_c	14.185328
_cell_angle_alpha	104.694940
_cell_angle_beta	108.250482
_cell_angle_gamma	65.728925
loop_
_atom_site_label
_atom_site_type_symbol
_atom_site_fract_x
_atom_site_fract_y
_atom_site_fract_z
O1	O	1.267227	-0.352901	0.083364
O2	O	0.993625	-0.222096	0.083379
O3	O	1.137064	-0.455455	0.083364
O4	O	1.123788	-0.119541	0.083379
O5	O	1.098767	-0.485616	-0.083478
O6	O	0.955328	-0.252257	-0.083464
O7	O	1.228929	-0.383062	-0.083478
Cu8	Cu	1.088632	-0.320413	-0.098705
Cu9	Cu	1.133923	-0.284745	0.098606
O10	O	1.085491	-0.149702	-0.083464
C11	C	0.939449	-0.223490	-0.000041
C12	C	0.835080	-0.182724	-0.000035
C13	C	1.117081	-0.512477	-0.000057
C14	C	1.114585	-0.637443	-0.000056
C15	C	0.677297	-0.017480	-0.000024
C16	C	0.775370	-0.055799	-0.000028
C17	C	0.796731	-0.271380	-0.000043
C18	C	0.698658	-0.233080	-0.000043
C19	C	0.638948	-0.106128	-0.000032
C20	C	0.660309	-0.321728	-0.000051
C21	C	0.562245	-0.283430	-0.000046
C22	C	0.502530	-0.156483	-0.000033
C23	C	0.540884	-0.067829	-0.000027
C24	C	0.720021	-0.448679	-0.000055
C25	C	0.681672	-0.537327	-0.000063
C26	C	0.583605	-0.499030	-0.000066
C27	C	0.523890	-0.372083	-0.000052
C28	C	0.545250	-0.587683	-0.000071
C29	C	0.447186	-0.549385	-0.000066
C30	C	0.425826	-0.333784	-0.000047
C31	C	1.109998	-0.866226	-0.000039
C32	C	1.112546	-0.738913	-0.000048
C33	C	1.283106	-0.381667	-0.000057
C34	C	1.387477	-0.422433	-0.000056
C35	C	1.105474	-0.092681	-0.000041
C36	C	1.107972	0.032287	-0.000035
N37	N	1.056784	-0.345504	-0.237483
C38	C	1.259273	-0.185885	-0.605090
C39	C	1.235170	-0.204918	-0.710117
C40	C	1.120458	-0.295397	-0.710102
C41	C	1.144548	-0.276366	-0.605073
C42	C	1.213957	-0.221611	-0.552576
C43	C	1.099232	-0.312093	-0.552559
C44	C	1.123324	-0.293069	-0.447539
C45	C	1.192732	-0.238320	-0.395034
C46	C	1.238048	-0.202588	-0.447556
C47	C	1.029829	-0.366855	-0.605058
C48	C	0.984513	-0.402582	-0.552544
C49	C	1.008600	-0.383551	-0.447522
C50	C	1.078008	-0.328801	-0.395017
C51	C	0.963283	-0.419282	-0.395000
C52	C	0.987375	-0.400259	-0.289980
C53	C	1.102099	-0.309778	-0.289997
N54	N	1.165778	-0.259666	0.237383
H55	H	0.377203	-0.230410	-0.000052
C56	C	0.747361	-0.676972	-0.000085
N57	N	0.796835	-0.782157	-0.000107
H58	H	0.422681	-0.125302	-0.000025
H59	H	0.845361	-0.374744	-0.000048
C60	C	1.219232	-0.217392	-0.279508
N61	N	1.239191	-0.201627	-0.192494
C62	C	0.886939	-0.479516	-0.452762
N63	N	0.829433	-0.524882	-0.496268
H64	H	1.294557	-0.157985	-0.404809
H65	H	1.315781	-0.141282	-0.562344
H66	H	0.806586	0.016397	-0.000033
H67	H	0.799875	-0.479854	-0.000040
H68	H	1.158608	-0.265174	-0.247251
C69	C	0.610943	-0.727326	-0.000082
N70	N	0.660423	-0.832508	-0.000093
C71	C	1.285036	-0.165626	-0.767879
N72	N	1.322600	-0.136040	-0.811386
C73	C	0.404999	-0.646903	-0.000077
N74	N	0.373225	-0.720355	-0.000082
C75	C	1.044106	-0.355619	-0.767861
N76	N	0.986593	-0.400973	-0.811365
H77	H	0.492262	0.035545	-0.000032
H78	H	1.010222	-0.382352	-0.690572
C79	C	0.937523	-0.439555	-0.232211
N80	N	0.899973	-0.469156	-0.188699
C81	C	0.611611	0.122175	-0.000011
N82	N	0.562138	0.227359	0.000003
C83	C	0.908161	-0.462804	-0.610303
N84	N	0.850648	-0.508158	-0.653806
