data_functionalizedCrystal
_audit_creation_method	'MofGen! by Chris Wilmer'
_symmetry_space_group_name_H-M	'P1'
_symmetry_Int_Tables_number	1
_symmetry_cell_setting	triclinic
loop_
_symmetry_equiv_pos_as_xyz
  x,y,z
_cell_length_a	27.440280
_cell_length_b	14.809374
_cell_length_c	14.809374
_cell_angle_alpha	73.428020
_cell_angle_beta	98.956039
_cell_angle_gamma	52.844887
loop_
_atom_site_label
_atom_site_type_symbol
_atom_site_fract_x
_atom_site_fract_y
_atom_site_fract_z
Zr1	Zr	0.409378	1.000486	-0.008420
O2	O	0.309755	1.191213	-0.133158
O3	O	0.446534	0.809772	0.015090
O4	O	0.420975	1.000483	-0.154378
O5	O	0.347949	1.000499	0.186743
O6	O	0.501180	1.000465	-0.154361
O7	O	0.335314	1.000502	0.036309
O8	O	0.546900	0.659319	0.148786
O9	O	0.302228	1.341646	-0.116403
O10	O	0.514243	0.888197	0.042925
O11	O	0.463816	0.888208	0.155179
O12	O	0.433723	1.112746	-0.044347
O13	O	0.383296	1.112757	0.067908
Zr14	Zr	0.557447	1.000453	0.231532
Zr15	Zr	0.537296	1.000457	-0.008393
Zr16	Zr	0.429528	1.000481	0.231505
Zr17	Zr	0.397373	1.240409	0.018303
Zr18	Zr	0.569451	0.760530	0.204810
O19	O	0.520290	1.191166	0.208022
O20	O	0.491638	1.191173	-0.133120
O21	O	0.338407	1.191206	0.207984
O22	O	0.657069	0.809726	0.356271
O23	O	0.628417	0.809732	0.015128
O24	O	0.475186	0.809766	0.356233
O25	O	0.618875	1.000440	0.036369
O26	O	0.545849	1.000456	0.377490
O27	O	0.465644	1.000473	0.377473
O28	O	0.631510	1.000437	0.186803
O29	O	0.403906	1.341623	-0.116382
O30	O	0.562918	0.659315	0.339494
O31	O	0.664596	0.659293	0.339516
O32	O	0.648578	0.659297	0.148807
O33	O	0.318246	1.341642	0.074305
O34	O	0.419924	1.341620	0.074326
O35	O	0.533101	0.888193	0.267459
O36	O	0.583528	0.888182	0.155205
O37	O	0.503008	1.112730	0.067933
O38	O	0.452581	1.112741	0.180188
C39	C	0.498427	0.700362	0.078131
C40	C	0.503524	0.598508	0.066786
C41	C	0.480780	0.553104	0.117415
C42	C	0.486047	0.447833	0.105691
C43	C	0.323406	1.000505	0.111523
C44	C	0.269101	1.000516	0.111511
C45	C	-0.025556	0.883236	0.157140
C46	C	-0.076573	0.883229	0.157149
O47	O	-0.067213	0.783545	0.195926
N48	N	-0.144120	1.000440	0.111593
C49	C	-0.160649	1.117665	0.066034
O50	O	-0.222788	1.217361	0.027286
C51	C	-0.109632	1.117671	0.066031
C52	C	-0.042085	1.000452	0.111581
C53	C	0.041987	0.766027	0.202687
C54	C	0.093001	0.766035	0.202676
C55	C	0.076471	0.883251	0.157118
C56	C	0.008928	1.000460	0.111570
C57	C	-0.126161	1.234895	0.020480
C58	C	-0.075136	1.234891	0.020482
C59	C	-0.007590	1.117672	0.066032
C60	C	0.043412	1.117684	0.066001
N61	N	0.110959	1.000474	0.111557
C62	C	0.127489	0.883257	0.157116
C63	C	-0.267786	1.117644	0.066043
C64	C	-0.318803	1.117639	0.066038
C65	C	-0.234723	0.883203	0.157155
C66	C	-0.183706	0.883209	0.157153
C67	C	-0.200239	1.000433	0.111599
C68	C	0.234617	0.883282	0.157088
C69	C	0.285631	0.883300	0.157069
C70	C	0.201547	1.117736	0.065957
C71	C	0.150537	1.117719	0.065971
C72	C	0.167077	1.000481	0.111544
O73	O	0.034102	1.217317	0.027248
O74	O	0.189628	0.783578	0.195868
C75	C	0.643418	1.000434	0.111590
C76	C	0.697723	1.000422	0.111601
C77	C	0.458206	1.000475	-0.188553
C78	C	0.449652	1.000477	-0.290408
C79	C	0.468397	1.300577	0.144982
C80	C	0.463300	1.402431	0.156326
C81	C	0.487830	1.000468	-0.335809
C82	C	0.478989	1.000470	-0.441081
C83	C	0.508618	1.000464	0.411666
C84	C	0.517172	1.000462	0.513520
C85	C	0.658434	0.700327	0.078164
C86	C	0.717834	0.598461	0.066831
C87	C	0.523633	0.700356	0.378240
C88	C	0.537284	0.598500	0.468750
C89	C	0.683639	0.700321	0.378274
C90	C	0.751594	0.598453	0.468796
C91	C	0.283185	1.300618	-0.155162
C92	C	0.215230	1.402485	-0.245683
C93	C	0.308391	1.300612	0.144948
C94	C	0.248990	1.402478	0.156281
C95	C	0.443191	1.300583	-0.155128
C96	C	0.429540	1.402438	-0.245638
C97	C	0.709562	0.550631	0.002890
C98	C	0.765368	0.454931	-0.007779
C99	C	0.829446	0.407055	0.045499
C100	C	0.837717	0.454894	0.109443
C101	C	0.781910	0.550599	0.120106
C102	C	0.579861	0.550660	0.569874
C103	C	0.592686	0.454969	0.654929
C104	C	0.562935	0.407114	0.638857
C105	C	0.520352	0.454964	0.537723
C106	C	0.507525	0.550659	0.452671
C107	C	0.809835	0.550609	0.452710
C108	C	0.873689	0.454907	0.537757
C109	C	0.879303	0.407044	0.638888
C110	C	0.821056	0.454898	0.654973
C111	C	0.757202	0.550605	0.569927
C112	C	0.156989	1.450341	-0.229596
C113	C	0.093132	1.546073	-0.314640
C114	C	0.087519	1.593941	-0.415770
C115	C	0.145766	1.546081	-0.431856
C116	C	0.209621	1.450358	-0.346812
C117	C	0.257260	1.450317	0.220213
C118	C	0.201451	1.546044	0.230859
C119	C	0.137373	1.593923	0.177578
C120	C	0.129103	1.546080	0.113638
C121	C	0.184911	1.450362	0.102987
C122	C	0.459301	1.450263	-0.229534
C123	C	0.446488	1.545955	-0.314570
C124	C	0.403910	1.593826	-0.415709
C125	C	0.374149	1.545992	-0.431812
C126	C	0.386966	1.450295	-0.346778
H127	H	0.509416	0.408779	0.053658
C128	C	0.058613	1.598744	0.055050
N129	N	0.005519	1.638402	0.010932
H130	H	0.410423	1.000478	-0.329471
H131	H	0.178168	1.411413	0.050930
H132	H	0.257040	1.411394	-0.359924
H133	H	0.248094	0.787816	0.194199
H134	H	0.309432	1.411341	0.263610
C135	C	0.540842	1.000424	-0.283024
N136	N	0.580775	1.000381	-0.243264
H137	H	0.825636	0.415913	0.737325
H138	H	0.147997	0.670584	0.239762
C139	C	0.359935	0.754346	0.207183
N140	N	0.415898	0.657219	0.244930
C141	C	0.327340	1.598619	-0.543079
N142	N	0.292091	1.638248	-0.626890
C143	C	-0.093331	1.363850	-0.029637
N144	N	-0.107036	1.460983	-0.067390
C145	C	0.431725	0.455193	0.226615
N146	N	0.407945	0.494933	0.279557
H147	H	0.709784	0.589547	0.583039
C148	C	0.163147	1.397712	-0.118358
N149	N	0.167779	1.358085	-0.034574
H150	H	0.055459	0.670570	0.239791
C151	C	0.354212	1.397716	-0.364508
N152	N	0.329537	1.358121	-0.377871
C153	C	0.908210	0.402207	0.168052
N154	N	0.961308	0.362512	0.212201
H155	H	-0.128708	0.787759	0.194254
H156	H	0.526891	0.559451	0.014758
C157	C	0.803676	0.603248	0.341473
N158	N	0.799043	0.642896	0.257691
C159	C	-0.393103	1.246589	0.015917
N160	N	-0.449065	1.343718	-0.021831
C161	C	-0.285985	1.246609	0.015908
N162	N	-0.299695	1.343745	-0.021856
C163	C	0.570173	1.000459	-0.433716
N164	N	0.610090	1.000462	-0.393976
H165	H	0.493971	1.411301	-0.147188
H166	H	0.141187	1.585068	-0.514206
H167	H	0.045713	1.585024	-0.301523
C168	C	0.425988	1.000475	-0.493847
N169	N	0.386069	1.000479	-0.533592
C170	C	0.076233	1.246664	0.015860
N171	N	0.020270	1.343788	-0.021875
H172	H	0.657390	0.589611	-0.040510
C173	C	0.756257	0.402315	-0.078112
N174	N	0.749394	0.362684	-0.131084
C175	C	0.612591	0.603290	0.587579
N176	N	0.637242	0.642932	0.600925
H177	H	-0.221272	0.787759	0.194247
C178	C	0.639536	0.402340	0.766165
N179	N	0.674826	0.362699	0.849946
H180	H	0.035521	1.671885	-0.485009
C181	C	0.577059	0.301833	0.732426
N182	N	0.587704	0.222530	0.802906
H183	H	0.208198	1.584982	0.282928
H184	H	0.496133	0.415986	0.524652
H185	H	-0.181153	1.330347	-0.016611
C186	C	0.479228	1.598561	-0.296832
N187	N	0.503888	1.638182	-0.283469
C188	C	0.937753	0.402275	0.520039
N189	N	0.986004	0.362631	0.506691
C190	C	0.389816	1.699098	-0.509239
N191	N	0.379202	1.778390	-0.579682
C192	C	0.949549	0.301754	0.732429
N193	N	1.002461	0.222444	0.802880
H194	H	0.874882	0.329125	0.036809
H195	H	0.457407	0.592172	0.169434
H196	H	0.188099	1.213170	0.028861
H197	H	0.091936	1.671864	0.186260
H198	H	0.788656	0.589529	0.172179
H199	H	0.472857	0.589599	0.370334
