data_functionalizedCrystal
_audit_creation_method	'MofGen! by Chris Wilmer'
_symmetry_space_group_name_H-M	'P1'
_symmetry_Int_Tables_number	1
_symmetry_cell_setting	triclinic
loop_
_symmetry_equiv_pos_as_xyz
  x,y,z
_cell_length_a	12.376457
_cell_length_b	14.971486
_cell_length_c	13.339070
_cell_angle_alpha	80.378288
_cell_angle_beta	75.601917
_cell_angle_gamma	78.698007
loop_
_atom_site_label
_atom_site_type_symbol
_atom_site_fract_x
_atom_site_fract_y
_atom_site_fract_z
O1	O	0.093867	-1.231874	0.112524
O2	O	0.093897	-0.975382	0.128310
O3	O	0.093882	-1.074191	-0.026882
O4	O	0.093882	-1.133066	0.267716
O5	O	-0.094127	-1.049488	0.011863
O6	O	-0.094112	-0.950679	0.167055
O7	O	-0.094142	-1.207171	0.151269
Zn8	Zn	-0.123977	-1.075003	0.165314
Zn9	Zn	0.123732	-1.107550	0.114265
O10	O	-0.094127	-1.108363	0.306461
C11	C	-0.000104	-0.929532	0.146976
C12	C	-0.000092	-0.829713	0.144857
C13	C	-0.000120	-1.051894	-0.045211
C14	C	-0.000112	-1.022251	-0.157551
N15	N	-0.293032	-1.052797	0.200152
C16	C	-0.648036	-1.181305	-0.001472
C17	C	-0.529699	-1.196842	-0.025856
C18	C	-0.470526	-1.160832	0.030644
C19	C	-0.529703	-1.109282	0.111532
C20	C	-0.648052	-1.093749	0.135923
C21	C	-0.470542	-1.073276	0.168039
C22	C	-0.529719	-1.021727	0.248928
C23	C	-0.648056	-1.006196	0.273314
C24	C	-0.707229	-1.042206	0.216815
C25	C	-0.352193	-1.088809	0.143648
C26	C	-0.352209	-1.001254	0.281044
C27	C	-0.470546	-0.985716	0.305427
N28	N	0.292787	-1.129762	0.079419
C29	C	-0.000139	-1.253022	0.132603
C30	C	-0.000143	-1.352841	0.134721
C31	C	-0.000094	-0.795028	0.236030
C32	C	-0.000111	-0.701233	0.234039
C33	C	-0.000118	-0.642126	0.140872
C34	C	-0.000119	-0.676816	0.049692
C35	C	-0.000111	-0.770608	0.051686
C36	C	-0.000135	-0.481325	0.045542
C37	C	-0.000142	-0.387526	0.043547
C38	C	-0.000135	-0.411950	0.227895
C39	C	-0.000126	-0.505742	0.229889
C40	C	-0.000126	-0.540426	0.138708
C41	C	-0.000139	-1.252744	-0.522059
C42	C	-0.000153	-1.280597	-0.416510
C43	C	-0.000142	-1.216013	-0.351765
C44	C	-0.000119	-1.123571	-0.392580
C45	C	-0.000114	-1.095714	-0.498137
C46	C	-0.000117	-1.058983	-0.327843
C47	C	-0.000093	-0.966541	-0.368658
C48	C	-0.000087	-0.938689	-0.474206
C49	C	-0.000098	-1.003273	-0.538950
C50	C	-0.000122	-1.086840	-0.222286
C51	C	-0.000096	-0.929810	-0.198364
C52	C	-0.000082	-0.901957	-0.303913
C53	C	-0.000123	-1.130659	0.324790
C54	C	-0.000123	-1.160303	0.437128
H55	H	-0.304022	-1.130781	0.077789
Cl56	Cl	-0.856002	-1.022668	0.247466
Cl57	Cl	-0.277828	-0.955985	0.352080
Cl58	Cl	0.000054	-0.968279	-0.671675
Cl59	Cl	-0.722425	-1.226579	-0.072484
Cl60	Cl	-0.000188	-0.313216	-0.073571
Cl61	Cl	-0.722451	-0.941404	0.375013
Cl62	Cl	-0.544951	-0.920914	0.407114
Cl63	Cl	-0.000090	-0.848612	-0.116976
Cl64	Cl	-0.000151	-1.203048	-0.170989
H65	H	-0.000063	-0.826689	-0.337159
H66	H	-0.000174	-1.355863	-0.383286
H67	H	-0.000087	-0.843148	0.311897
H68	H	-0.000136	-0.509560	-0.028707
H69	H	-0.000154	-1.238697	-0.265823
Cl70	Cl	-0.000073	-0.822474	-0.525509
H71	H	-0.481522	-1.238814	-0.091713
Cl72	Cl	-0.321757	-1.180362	-0.000014
H73	H	-0.000111	-0.672999	0.308281
Cl74	Cl	-0.000174	-1.333921	-0.603450
Cl75	Cl	-0.000105	-0.580049	0.347012
H76	H	-0.000140	-0.383706	0.302138
Cl77	Cl	-0.000135	-0.602508	-0.067432
H78	H	-0.000109	-0.798846	-0.022557
