data_functionalizedCrystal
_audit_creation_method	'MofGen! by Chris Wilmer'
_symmetry_space_group_name_H-M	'P1'
_symmetry_Int_Tables_number	1
_symmetry_cell_setting	triclinic
loop_
_symmetry_equiv_pos_as_xyz
  x,y,z
_cell_length_a	16.120297
_cell_length_b	13.032831
_cell_length_c	13.032721
_cell_angle_alpha	90.902885
_cell_angle_beta	80.345876
_cell_angle_gamma	93.942761
loop_
_atom_site_label
_atom_site_type_symbol
_atom_site_fract_x
_atom_site_fract_y
_atom_site_fract_z
Zn1	Zn	-0.685769	-1.471908	0.646883
Zn2	Zn	-0.185769	-0.971908	1.146883
Zn3	Zn	-0.561755	-1.458691	0.812079
Zn4	Zn	-0.061755	-0.958691	1.312079
Zn5	Zn	-0.527021	-1.311115	0.616368
Zn6	Zn	-0.027021	-0.811115	1.116368
Zn7	Zn	-0.681325	-1.278370	0.796687
Zn8	Zn	-0.181325	-0.778370	1.296687
O9	O	-0.613968	-1.380021	0.718004
O10	O	-0.113968	-0.880021	1.218004
O11	O	-0.685715	-1.612912	0.688009
O12	O	-0.185715	-1.112912	1.188009
O13	O	-0.440670	-1.447287	0.779788
O14	O	0.059330	-0.947287	1.279788
O15	O	-0.535402	-1.351680	0.475817
O16	O	-0.035402	-0.851680	0.975817
O17	O	-0.594602	-1.603202	0.809377
O18	O	-0.094602	-1.103202	1.309377
O19	O	-0.652034	-1.469814	0.498236
O20	O	-0.152034	-0.969814	0.998236
O21	O	-0.415151	-1.338864	0.636001
O22	O	0.084849	-0.838864	1.136001
O23	O	-0.531093	-1.164014	0.621076
O24	O	-0.031093	-0.664014	1.121076
O25	O	-0.798392	-1.295870	0.783144
O26	O	-0.298392	-0.795870	1.283144
O27	O	-0.644460	-1.139956	0.753555
O28	O	-0.144460	-0.639956	1.253555
O29	O	-0.801657	-1.438062	0.673084
O30	O	-0.301657	-0.938062	1.173084
O31	O	-0.590293	-1.415535	0.954636
O32	O	-0.090293	-0.915535	1.454636
O33	O	-0.678141	-1.283054	0.943328
O34	O	-0.178141	-0.783054	1.443328
C35	C	-0.583526	-1.114969	0.682335
C36	C	-0.083526	-0.614969	1.182335
C37	C	-0.570525	-1.001574	0.667102
C38	C	-0.070525	-0.501574	1.167102
C39	C	-0.831071	-1.364788	0.729801
C40	C	-0.331071	-0.864788	1.229801
C41	C	-0.923587	-1.358296	0.734828
C42	C	-0.423587	-0.858296	1.234828
C43	C	-0.637526	-1.344333	0.986479
C44	C	-0.137526	-0.844333	1.486479
C45	C	-0.647642	-1.329157	1.101348
C46	C	-0.147642	-0.829157	1.601348
C47	C	-1.092969	-1.346410	0.743978
C48	C	-0.592969	-0.846410	1.243978
C49	C	-1.135814	-1.413874	0.691748
C50	C	-0.635814	-0.913874	1.191748
C51	C	-1.230064	-1.407260	0.696839
C52	C	-0.730064	-0.907260	1.196839
C53	C	-0.998710	-1.353022	0.738888
C54	C	-0.498710	-0.853022	1.238888
C55	C	-0.397710	-1.395263	0.706187
C56	C	0.102290	-0.895263	1.206187
C57	C	-0.305191	-1.401991	0.700895
C58	C	0.194809	-0.901991	1.200895
C59	C	-0.644529	-1.646107	0.753814
C60	C	-0.144529	-1.146107	1.253814
C61	C	-0.657552	-1.759498	0.769073
C62	C	-0.157552	-1.259498	1.269073
C63	C	-0.620753	-0.939135	0.725955
C64	C	-0.120753	-0.439135	1.225955
C65	C	-0.607317	-0.821935	0.710212
C66	C	-0.107317	-0.321935	1.210212
C67	C	-0.590339	-1.415874	0.448486
C68	C	-0.090339	-0.915874	0.948486
C69	C	-0.580270	-1.431153	0.333633
C70	C	-0.080270	-0.931153	0.833633
C71	C	-0.608731	-1.387993	1.158130
C72	C	-0.108731	-0.887993	1.658130
C73	C	-0.619187	-1.372309	1.276853
C74	C	-0.119187	-0.872309	1.776853
H75	H	-1.101710	-1.476597	0.643207
H76	H	-0.601710	-0.976597	1.143207
H77	H	-0.660246	-1.310327	1.316130
H78	H	-0.160246	-0.810327	1.816130
H79	H	-0.554367	-0.788630	0.648162
H80	H	-0.054367	-0.288630	1.148162
H81	H	-0.567681	-1.449979	1.118852
H82	H	-0.067681	-0.949979	1.618852
H83	H	-0.539218	-1.493143	1.294358
H84	H	-0.039218	-0.993143	1.794358
H85	H	-1.127071	-1.283692	0.792515
H86	H	-0.627071	-0.783692	1.292515
C87	C	-0.703103	-1.245424	1.154403
C88	C	-0.203103	-0.745424	1.654403
H89	H	-0.702850	-1.245863	1.227238
H90	H	-0.202850	-0.745863	1.727238
H91	H	-0.759200	-1.258689	1.141762
H92	H	-0.259200	-0.758689	1.641762
H93	H	-0.681462	-1.180051	1.126947
H94	H	-0.181462	-0.680051	1.626947
C95	C	-0.729091	-0.804474	0.852892
C96	C	-0.229091	-0.304474	1.352892
H97	H	-0.758864	-0.750101	0.887768
H98	H	-0.258864	-0.250101	1.387768
H99	H	-0.705872	-0.842311	0.901665
H100	H	-0.205872	-0.342311	1.401665
H101	H	-0.766683	-0.848748	0.820944
H102	H	-0.266683	-0.348748	1.320944
H103	H	-0.673705	-0.972446	0.787993
H104	H	-0.173705	-0.472446	1.287993
C105	C	-0.498996	-0.956586	0.583284
C106	C	0.001004	-0.456586	1.083284
H107	H	-0.499347	-0.883716	0.583701
H108	H	0.000653	-0.383716	1.083701
H109	H	-0.507161	-0.982364	0.516869
H110	H	-0.007161	-0.482364	1.016869
H111	H	-0.446344	-0.975914	0.597583
H112	H	0.053656	-0.475914	1.097583
