data_functionalizedCrystal
_audit_creation_method	'MofGen! by Chris Wilmer'
_symmetry_space_group_name_H-M	'P1'
_symmetry_Int_Tables_number	1
_symmetry_cell_setting	triclinic
loop_
_symmetry_equiv_pos_as_xyz
  x,y,z
_cell_length_a	12.827893
_cell_length_b	12.827892
_cell_length_c	12.827879
_cell_angle_alpha	89.937559
_cell_angle_beta	89.958596
_cell_angle_gamma	90.015363
loop_
_atom_site_label
_atom_site_type_symbol
_atom_site_fract_x
_atom_site_fract_y
_atom_site_fract_z
Zn1	Zn	1.597900	-0.415648	-0.590843
Zn2	Zn	2.097900	0.084352	-0.090843
Zn3	Zn	1.597726	-0.590525	-0.416102
Zn4	Zn	2.097726	-0.090525	0.083898
Zn5	Zn	1.423073	-0.415798	-0.416117
Zn6	Zn	1.923073	0.084202	0.083883
Zn7	Zn	1.423127	-0.590348	-0.590803
Zn8	Zn	1.923127	-0.090348	-0.090803
O9	O	1.510456	-0.503080	-0.503466
O10	O	2.010456	-0.003080	-0.003466
O11	O	1.744113	-0.438857	-0.567674
O12	O	2.244113	0.061143	-0.067674
O13	O	1.574463	-0.567484	-0.269868
O14	O	2.074463	-0.067484	0.230132
O15	O	1.446315	-0.269542	-0.439317
O16	O	1.946315	0.230458	0.060683
O17	O	1.743985	-0.567338	-0.439292
O18	O	2.243985	-0.067338	0.060708
O19	O	1.574759	-0.269432	-0.567688
O20	O	2.074759	0.230568	-0.067688
O21	O	1.446146	-0.439113	-0.269878
O22	O	1.946146	0.060887	0.230122
O23	O	1.276844	-0.438941	-0.439279
O24	O	1.776844	0.061059	0.060721
O25	O	1.446406	-0.567037	-0.737045
O26	O	1.946406	-0.067037	-0.237045
O27	O	1.276883	-0.567182	-0.567620
O28	O	1.776883	-0.067182	-0.067620
O29	O	1.574811	-0.438686	-0.737074
O30	O	2.074811	0.061314	-0.237074
O31	O	1.574514	-0.736737	-0.439254
O32	O	2.074514	-0.236737	0.060746
O33	O	1.446237	-0.736608	-0.567606
O34	O	1.946237	-0.236608	-0.067606
C35	C	1.238946	-0.503060	-0.503447
C36	C	1.738946	-0.003060	-0.003447
C37	C	1.122793	-0.503076	-0.503464
C38	C	1.622793	-0.003076	-0.003464
C39	C	0.951027	-0.439631	-0.567106
C40	C	1.451027	0.060369	-0.067106
C41	C	1.071078	-0.439612	-0.567090
C42	C	1.571078	0.060388	-0.067090
C43	C	1.510391	-0.774590	-0.503447
C44	C	2.010391	-0.274590	-0.003447
C45	C	1.510459	-0.890743	-0.503473
C46	C	2.010459	-0.390743	-0.003473
C47	C	1.573989	-0.942390	-0.567052
C48	C	2.073989	-0.442390	-0.067052
C49	C	1.574060	-1.062440	-0.567081
C50	C	2.074060	-0.562440	-0.067081
C51	C	1.783026	-0.503101	-0.503486
C52	C	2.283026	-0.003101	-0.003486
C53	C	1.899180	-0.503110	-0.503494
C54	C	2.399180	-0.003110	-0.003494
C55	C	1.510634	-0.502825	-0.776037
C56	C	2.010634	-0.002825	-0.276037
C57	C	1.510709	-0.502716	-0.892190
C58	C	2.010709	-0.002716	-0.392190
C59	C	1.510550	-0.230510	-0.503508
C60	C	2.010550	0.269490	-0.003508
C61	C	1.510591	-0.114357	-0.503526
C62	C	2.010591	0.385643	-0.003526
C63	C	1.510340	-0.503258	-0.231956
C64	C	2.010340	-0.003258	0.268044
C65	C	1.510467	-0.503073	-0.115803
C66	C	2.010467	-0.003073	0.384197
C67	C	1.573722	-0.438834	0.055739
C68	C	2.073722	0.061166	0.555739
C69	C	1.573593	-0.439025	-0.064311
C70	C	2.073593	0.060975	0.435689
H71	H	1.115665	-0.385261	-0.621545
H72	H	1.615665	0.114739	-0.121545
F73	F	0.892884	-0.368619	-0.638314
F74	F	1.392884	0.131381	-0.138314
H75	H	1.627762	-0.383998	0.100035
H76	H	2.127762	0.116002	0.600035
H77	H	0.943668	-0.557448	-0.449028
H78	H	1.443668	-0.057448	0.050972
F79	F	1.064525	-0.574111	-0.432270
F80	F	1.564525	-0.074111	0.067730
F81	F	1.440062	-0.574385	0.049917
F82	F	1.940062	-0.074385	0.549917
H83	H	1.628323	-0.897732	-0.621468
H84	H	2.128323	-0.397732	-0.121468
H85	H	1.628454	-1.106856	-0.621510
H86	H	2.128454	-0.606856	-0.121510
H87	H	1.627544	-0.384337	-0.109090
H88	H	2.127544	0.115663	0.390910
F89	F	1.439498	-1.056313	-0.432369
F90	F	1.939498	-0.556313	0.067631
H91	H	1.456116	-0.935403	-0.449068
H92	H	1.956116	-0.435403	0.050932
F93	F	1.439953	-0.574569	-0.057285
F94	F	1.939953	-0.074569	0.442715
