data_functionalizedCrystal
_audit_creation_method	'MofGen! by Chris Wilmer'
_symmetry_space_group_name_H-M	'P1'
_symmetry_Int_Tables_number	1
_symmetry_cell_setting	triclinic
loop_
_symmetry_equiv_pos_as_xyz
  x,y,z
_cell_length_a	6.817900
_cell_length_b	11.102288
_cell_length_c	14.125465
_cell_angle_alpha	94.635072
_cell_angle_beta	100.398878
_cell_angle_gamma	108.605689
loop_
_atom_site_label
_atom_site_type_symbol
_atom_site_fract_x
_atom_site_fract_y
_atom_site_fract_z
V1	V	-4.017267	-0.174747	-0.299976
O2	O	-3.978094	0.009521	-0.294266
O3	O	-3.994689	-0.347575	-0.297925
O4	O	-3.952937	-0.171566	-0.430807
O5	O	-4.020135	-0.167706	-0.160465
V6	V	-4.499614	-0.152765	-0.283290
O7	O	-4.281107	-0.222967	-0.336580
O8	O	-4.685971	-0.104545	-0.246686
O9	O	-4.298985	0.020063	-0.285341
O10	O	-4.656184	-0.337033	-0.289000
O11	O	-4.614143	-0.159806	-0.422802
O12	O	-4.340737	-0.155946	-0.152460
C13	C	-3.846487	-0.389722	-0.293193
C14	C	-3.909207	-0.531008	-0.292387
C15	C	-4.121173	-0.603840	-0.296809
C16	C	-4.180096	-0.736594	-0.296060
C17	C	-3.815066	-0.723671	-0.286463
C18	C	-3.756148	-0.590921	-0.287219
C19	C	-3.793227	-0.165204	-0.462695
C20	C	-3.822085	-0.163747	-0.569649
C21	C	-3.874978	-0.161075	-0.765472
C22	C	-4.061272	-0.166435	-0.817794
C23	C	-4.090704	-0.164948	-0.926756
C24	C	-3.845538	-0.162561	-0.656500
C25	C	-4.110531	0.062203	-0.290071
C26	C	-4.027048	0.203488	-0.290882
C27	C	-4.163791	-0.162312	-0.120566
C28	C	-4.114171	-0.163763	-0.013611
H29	H	-4.352695	-0.795889	-0.299662
H30	H	-4.245807	-0.555063	-0.301016
H31	H	-4.198664	-0.172154	-0.780755
O32	O	-3.711334	-0.154339	-0.809813
C33	C	-3.777618	-0.154320	-0.910310
H34	H	-3.957561	-0.199966	-0.932894
H35	H	-3.727588	-0.051247	-0.926512
C36	C	-3.453523	-0.175813	-0.939956
C37	C	-3.674532	-0.231886	-0.967696
H38	H	-3.389929	-0.223653	-0.975355
H39	H	-3.408861	-0.175821	-0.872249
H40	H	-3.411861	-0.089920	-0.953459
H41	H	-3.716192	-0.317770	-0.954181
H42	H	-3.719199	-0.231894	-1.035402
H43	H	-3.583536	-0.531619	-0.283622
H44	H	-3.690458	-0.772468	-0.282254
