data_functionalizedCrystal
_audit_creation_method	'MofGen! by Chris Wilmer'
_symmetry_space_group_name_H-M	'P1'
_symmetry_Int_Tables_number	1
_symmetry_cell_setting	triclinic
loop_
_symmetry_equiv_pos_as_xyz
  x,y,z
_cell_length_a	14.853567
_cell_length_b	17.019294
_cell_length_c	13.930277
_cell_angle_alpha	86.116472
_cell_angle_beta	89.995755
_cell_angle_gamma	83.514509
loop_
_atom_site_label
_atom_site_type_symbol
_atom_site_fract_x
_atom_site_fract_y
_atom_site_fract_z
O1	O	1.196089	0.102989	-0.088277
O2	O	0.933596	0.115258	-0.089307
O3	O	1.072165	-0.005701	-0.079295
O4	O	1.057520	0.223948	-0.098289
O5	O	1.072146	-0.005704	0.080367
O6	O	0.933577	0.115255	0.070355
O7	O	1.196070	0.102987	0.071385
Zn8	Zn	1.064820	0.109121	0.096220
Zn9	Zn	1.064846	0.109124	-0.114142
O10	O	1.057501	0.223946	0.061373
C11	C	0.899999	0.114701	-0.009432
C12	C	0.799920	0.113035	-0.009301
C13	C	1.071600	-0.035092	0.002965
C14	C	1.069933	-0.122664	0.010201
C15	C	0.387600	0.034141	-0.002754
C16	C	0.365930	0.177843	-0.014640
C17	C	0.459959	0.179409	-0.014773
C18	C	0.517814	0.108340	-0.008898
C19	C	0.481639	0.035705	-0.002889
C20	C	0.496141	0.252043	-0.020791
C21	C	0.590176	0.253613	-0.020925
C22	C	0.648032	0.182543	-0.015042
C23	C	0.611852	0.109904	-0.009033
C24	C	0.669707	0.038836	-0.003157
C25	C	0.633529	-0.033804	0.002859
C26	C	0.539495	-0.035365	0.002993
C27	C	0.742066	0.184104	-0.015176
C28	C	0.763745	0.040400	-0.003293
C29	C	1.069163	-0.163800	-0.073430
C30	C	1.067592	-0.246083	-0.066628
C31	C	1.066797	-0.287229	0.023807
C32	C	1.067565	-0.246087	0.107445
C33	C	1.069130	-0.163805	0.100641
C34	C	1.062065	-0.535667	0.048703
C35	C	1.060503	-0.617955	0.055500
C36	C	1.060528	-0.617945	-0.118573
C37	C	1.062099	-0.535662	-0.125369
C38	C	1.062862	-0.494527	-0.041731
C39	C	1.065194	-0.371336	0.030762
C40	C	1.064458	-0.410421	-0.048687
C41	C	1.229667	0.103544	-0.008492
C42	C	1.329746	0.105210	-0.008630
C43	C	1.058066	0.253337	-0.020889
C44	C	1.059733	0.340909	-0.028132
N45	N	1.064810	0.109118	0.239786
N46	N	1.064863	0.109121	-0.257708
C47	C	1.003485	0.162664	0.687623
C48	C	1.126231	0.055578	0.696457
C49	C	1.126220	0.055576	0.595961
C50	C	1.064842	0.109119	0.541292
C51	C	1.003474	0.162664	0.587118
C52	C	1.187593	0.002037	0.550127
C53	C	1.187585	0.002033	0.449625
C54	C	1.126202	0.055573	0.394954
C55	C	1.064831	0.109120	0.440787
C56	C	1.003453	0.162663	0.386118
C57	C	0.942077	0.216207	0.431948
C58	C	0.942091	0.216204	0.532447
C59	C	1.126188	0.055575	0.294455
C60	C	1.003442	0.162663	0.285612
H61	H	0.680646	-0.091668	0.007636
C62	C	1.254366	-0.056015	0.609413
C63	C	1.342939	-0.043076	0.583908
C64	C	1.404472	-0.096540	0.638512
H65	H	1.244756	-0.108707	0.597332
H66	H	1.245643	-0.048354	0.675842
H67	H	1.351658	-0.050743	0.517494
H68	H	1.352577	0.009606	0.595992
H69	H	1.395748	-0.088880	0.704941
H70	H	1.394854	-0.149229	0.626427
H71	H	1.464575	-0.087764	0.621221
H72	H	1.059906	-0.651446	-0.186666
C73	C	0.500040	-0.114144	0.009462
C74	C	0.405307	-0.100300	0.008292
C75	C	0.368927	-0.172851	0.014234
H76	H	0.519798	-0.143474	0.067549
H77	H	0.519855	-0.143416	-0.043818
H78	H	0.385501	-0.071040	0.061567
H79	H	0.385524	-0.070982	-0.049790
H80	H	0.388742	-0.202123	-0.039046
H81	H	0.388692	-0.202175	0.072322
H82	H	0.304648	-0.163468	0.013432
H83	H	1.064549	-0.404846	0.104395
C84	C	1.066851	-0.290613	-0.157540
C85	C	1.067931	-0.236973	-0.238194
C86	C	1.067279	-0.277968	-0.321962
H87	H	1.013719	-0.316772	-0.159171
H88	H	1.118822	-0.328642	-0.158030
H89	H	1.015965	-0.198958	-0.237705
H90	H	1.121058	-0.210812	-0.236596
H91	H	1.119251	-0.315998	-0.322452
H92	H	1.014147	-0.304126	-0.323583
H93	H	1.068021	-0.241581	-0.376695
H94	H	0.449030	0.309904	-0.025584
H95	H	0.892106	0.259805	0.387425
C96	C	0.936747	0.220828	0.737199
C97	C	0.882980	0.267702	0.667809
C98	C	0.821481	0.321283	0.713444
H99	H	0.969023	0.253794	0.773679
H100	H	0.899212	0.192406	0.778737
H101	H	0.920510	0.296122	0.626288
H102	H	0.850684	0.234757	0.631326
H103	H	0.783946	0.292861	0.754981
H104	H	0.853764	0.354244	0.749922
H105	H	0.784987	0.353089	0.666370
H106	H	1.237559	-0.041566	0.412316
H107	H	1.059851	-0.651454	0.129146
H108	H	0.358140	-0.025000	0.002148
H109	H	1.176163	0.011984	0.257144
C110	C	0.629495	0.332454	-0.027658
C111	C	0.682826	0.337558	-0.110240
C112	C	0.719048	0.410181	-0.116485
H113	H	0.665787	0.336140	0.027646
H114	H	0.581590	0.374574	-0.031196
H115	H	0.730724	0.295450	-0.106694
H116	H	0.646554	0.333886	-0.165559
H117	H	0.671143	0.452301	-0.120023
H118	H	0.755337	0.413860	-0.061177
H119	H	0.755231	0.413657	-0.172521
H120	H	1.069744	-0.130312	0.168743
C121	C	1.062971	-0.491164	0.139620
C122	C	1.061980	-0.544817	0.220271
C123	C	1.062838	-0.503849	0.304044
H124	H	1.011055	-0.453101	0.140246
H125	H	1.116156	-0.465051	0.141118
H126	H	1.008800	-0.570917	0.218773
H127	H	1.113891	-0.582881	0.219677
H128	H	1.116023	-0.477736	0.305543
H129	H	1.010921	-0.465788	0.304661
H130	H	1.062174	-0.540247	0.358776
H131	H	0.771518	0.243245	-0.020073
C132	C	0.826513	-0.036789	0.002889
C133	C	0.810189	-0.080508	-0.075645
C134	C	0.868001	-0.151612	-0.069990
H135	H	0.815610	-0.066662	0.060975
H136	H	0.887711	-0.025490	0.001895
H137	H	0.749005	-0.091809	-0.074642
H138	H	0.821097	-0.050659	-0.133742
H139	H	0.929199	-0.140313	-0.070985
H140	H	0.857094	-0.181478	-0.011902
H141	H	0.856939	-0.181281	-0.123279
C142	C	0.303162	0.255024	-0.021223
C143	C	0.319483	0.298746	-0.106994
C144	C	0.261665	0.369847	-0.113097
H145	H	0.314060	0.284897	0.031918
H146	H	0.241965	0.243720	-0.020340
H147	H	0.380666	0.310052	-0.107869
H148	H	0.308579	0.268897	-0.160151
H149	H	0.200468	0.358543	-0.112214
H150	H	0.272568	0.399713	-0.059951
H151	H	0.272726	0.399518	-0.171296
C152	C	1.069869	-0.119020	-0.171563
C153	C	0.993248	-0.062986	-0.181266
C154	C	0.993864	-0.021718	-0.271652
H155	H	1.069133	-0.155215	-0.220477
H156	H	1.122997	-0.092824	-0.177371
H157	H	0.940135	-0.089180	-0.175467
H158	H	0.993968	-0.026774	-0.132373
H159	H	1.046991	0.004478	-0.277460
H160	H	0.993130	-0.057920	-0.320559
H161	H	0.941882	0.016310	-0.278244
C162	C	1.062908	-0.491127	-0.223646
C163	C	1.061874	-0.544762	-0.295434
C164	C	1.062610	-0.503765	-0.385978
H165	H	1.116052	-0.464982	-0.229558
H166	H	1.010950	-0.453086	-0.230464
H167	H	1.113826	-0.582789	-0.288619
H168	H	1.008733	-0.570910	-0.289553
H169	H	1.010652	-0.465724	-0.392796
H170	H	1.115755	-0.477620	-0.391880
H171	H	1.061900	-0.540148	-0.434697
H172	H	1.065099	-0.376915	-0.122319
C173	C	1.066563	-0.290845	0.205568
C174	C	0.988155	-0.329316	0.213821
C175	C	0.987212	-0.370562	0.304195
H176	H	1.067197	-0.254646	0.254491
H177	H	1.118474	-0.328940	0.212343
H178	H	0.936257	-0.291225	0.207055
H179	H	0.987503	-0.365527	0.164919
H180	H	1.039123	-0.408657	0.310970
H181	H	0.987849	-0.334357	0.353111
H182	H	0.934017	-0.396675	0.309803
C183	C	0.936760	0.220887	0.226427
C184	C	0.883033	0.267786	0.288075
C185	C	0.821605	0.321437	0.233588
H186	H	0.899184	0.192543	0.189568
H187	H	0.969119	0.253823	0.184514
H188	H	0.850677	0.234854	0.329971
H189	H	0.920584	0.296147	0.324935
H190	H	0.853963	0.354373	0.191676
H191	H	0.784035	0.293086	0.196731
H192	H	0.785149	0.353269	0.275408
C193	C	1.193008	-0.002469	0.755744
C194	C	1.281578	0.010468	0.730227
C195	C	1.343116	-0.042991	0.784833
H196	H	1.183397	-0.055163	0.743673
H197	H	1.184290	0.005198	0.822172
H198	H	1.290292	0.002794	0.663815
H199	H	1.291217	0.063152	0.742302
H200	H	1.334398	-0.035324	0.851261
H201	H	1.333497	-0.095682	0.772757
H202	H	1.403217	-0.034216	0.767534
H203	H	0.892122	0.259799	0.569769
