data_functionalizedCrystal
_audit_creation_method	'MofGen! by Chris Wilmer'
_symmetry_space_group_name_H-M	'P1'
_symmetry_Int_Tables_number	1
_symmetry_cell_setting	triclinic
loop_
_symmetry_equiv_pos_as_xyz
  x,y,z
_cell_length_a	25.639239
_cell_length_b	17.639617
_cell_length_c	17.640968
_cell_angle_alpha	70.333968
_cell_angle_beta	78.768889
_cell_angle_gamma	101.222911
loop_
_atom_site_label
_atom_site_type_symbol
_atom_site_fract_x
_atom_site_fract_y
_atom_site_fract_z
Zn1	Zn	0.069163	1.354419	-0.721260
Zn2	Zn	-0.040454	1.326398	-0.583392
Zn3	Zn	0.024849	1.188687	-0.555521
Zn4	Zn	-0.040403	1.216487	-0.693275
O5	O	0.003289	1.271498	-0.638362
O6	O	0.073146	1.466059	-0.726347
O7	O	-0.050359	1.284769	-0.464346
O8	O	0.103912	1.210765	-0.577554
O9	O	-0.007389	1.445472	-0.625056
O10	O	0.136469	1.332527	-0.699322
O11	O	-0.002380	1.183593	-0.443869
O12	O	-0.002331	1.077018	-0.550418
O13	O	-0.007302	1.258146	-0.812336
O14	O	-0.050272	1.097442	-0.651625
O15	O	0.073196	1.359484	-0.832896
O16	O	-0.113632	1.311725	-0.597921
O17	O	-0.113594	1.230974	-0.678651
C18	C	-0.031105	1.057319	-0.594961
C19	C	-0.045828	0.965696	-0.576413
C20	C	0.115182	0.718001	-0.779469
C21	C	0.101332	0.631904	-0.762024
C22	C	0.017556	0.610458	-0.656398
C23	C	0.031398	0.696555	-0.673837
C24	C	0.080212	0.750320	-0.735373
C25	C	-0.003571	0.728875	-0.629741
C26	C	0.010271	0.814964	-0.647176
C27	C	0.059083	0.868734	-0.708707
C28	C	0.094055	0.836410	-0.752808
C29	C	-0.052383	0.675107	-0.568202
C30	C	-0.087353	0.707426	-0.524105
C31	C	-0.073513	0.793518	-0.541544
C32	C	-0.024700	0.847288	-0.603075
C33	C	-0.108484	0.825842	-0.497443
C34	C	-0.094641	0.911931	-0.514878
C35	C	-0.010858	0.933377	-0.620510
C36	C	-0.132582	1.271352	-0.638296
C37	C	-0.190692	1.271370	-0.638311
C38	C	-0.551001	1.313700	-0.596443
C39	C	-0.605599	1.313735	-0.596461
O40	O	-0.633820	1.349573	-0.560793
N41	N	-0.632918	1.271654	-0.638446
C42	C	-0.605636	1.229543	-0.680423
O43	O	-0.633886	1.193754	-0.716137
C44	C	-0.551038	1.229514	-0.680410
C45	C	-0.523723	1.271591	-0.638415
C46	C	-0.523686	1.355774	-0.554452
C47	C	-0.469093	1.355739	-0.554434
C48	C	-0.441815	1.313629	-0.596406
C49	C	-0.469130	1.271555	-0.638397
C50	C	-0.523755	1.187409	-0.722392
C51	C	-0.469153	1.187385	-0.722376
C52	C	-0.441839	1.229461	-0.680381
C53	C	-0.387258	1.229410	-0.680350
N54	N	-0.359939	1.271491	-0.638365
C55	C	-0.387217	1.313601	-0.596393
C56	C	-0.720294	1.229608	-0.680448
C57	C	-0.774892	1.229631	-0.680457
C58	C	-0.774851	1.313824	-0.596495
C59	C	-0.720254	1.313795	-0.596482
C60	C	-0.692975	1.271689	-0.638463
C61	C	-0.272567	1.313522	-0.596356
C62	C	-0.217970	1.313480	-0.596338
C63	C	-0.218015	1.229290	-0.680303
C64	C	-0.272608	1.229329	-0.680318
C65	C	-0.299883	1.271451	-0.638343
O66	O	-0.359002	1.193592	-0.716002
O67	O	-0.358957	1.349393	-0.560694
C68	C	0.139697	1.271671	-0.638450
C69	C	0.197826	1.271744	-0.638488
C70	C	0.037896	1.315041	-0.853361
C71	C	0.052643	1.333597	-0.944980
C72	C	0.037816	1.486513	-0.681932
C73	C	0.052529	1.578140	-0.700500
C74	C	-0.108410	1.130849	-1.192789
C75	C	-0.094543	1.148302	-1.278883
C76	C	-0.010728	1.253817	-1.300280
C77	C	-0.024586	1.236369	-1.214186
C78	C	-0.073428	1.174885	-1.160446
C79	C	0.010396	1.280406	-1.181843
C80	C	-0.003463	1.262963	-1.095757
C81	C	-0.052304	1.201483	-1.042012
C82	C	-0.087287	1.157442	-1.074360
C83	C	0.059236	1.341894	-1.235585
C84	C	0.094218	1.385930	-1.203242
C85	C	0.080361	1.368483	-1.117154
C86	C	0.031520	1.307004	-1.063409
C87	C	0.115344	1.412524	-1.084806
C88	C	0.101485	1.395081	-0.998720
C89	C	0.017661	1.289561	-0.977323
C90	C	-0.031138	1.228171	-0.424209
C91	C	-0.045712	1.209775	-0.332622
H92	H	0.028890	0.977157	-0.670621
N93	N	-0.067312	0.582254	-0.549399
H94	H	-0.104111	0.564544	-0.560240
H95	H	-0.070044	0.550133	-0.488684
H96	H	0.129971	1.430939	-0.972386
N97	N	0.074182	1.360685	-1.328431
H98	H	0.110964	1.349776	-1.346111
H99	H	0.076956	1.421418	-1.360570
N100	N	-0.139997	0.649434	-0.457731
H101	H	-0.143460	0.589992	-0.453374
H102	H	-0.172887	0.667035	-0.473497
H103	H	-0.148173	1.080763	-1.149027
H104	H	-0.022186	0.566671	-0.606294
N105	N	-0.439739	1.141959	-0.767652
H106	H	-0.428650	1.096977	-0.726381
H107	H	-0.405548	1.183209	-0.812657
H108	H	0.133984	1.435993	-1.247009
N109	N	-0.161125	0.767847	-0.431063
H110	H	-0.164585	0.708405	-0.426706
H111	H	-0.194018	0.785441	-0.446823
H112	H	-0.195797	1.195002	-0.714473
H113	H	0.155109	1.462590	-1.128574
H114	H	-0.127050	1.107356	-1.030598
N115	N	-0.132355	0.946797	-0.467317
H116	H	-0.165379	0.899675	-0.425691
H117	H	-0.145450	0.989289	-0.508034
N118	N	-0.035019	1.223243	-0.919356
H119	H	-0.059624	1.249478	-0.890410
H120	H	-0.025601	1.177855	-0.875964
N121	N	0.074027	0.961593	-0.727539
H122	H	0.077936	0.970903	-0.675231
H123	H	0.043891	0.985304	-0.746815
N124	N	-0.132278	1.100806	-1.313769
H125	H	-0.165321	1.059212	-1.266660
H126	H	-0.111367	1.069919	-1.341773
N127	N	0.167827	0.776002	-0.845849
H128	H	0.187881	0.742468	-0.871145
H129	H	0.192412	0.804951	-0.819602
N130	N	-0.188508	1.358866	-0.551045
H131	H	-0.214076	1.385551	-0.524464
H132	H	-0.154294	1.403775	-0.592349
N133	N	-0.301980	1.358952	-0.551085
H134	H	-0.276385	1.385596	-0.524484
H135	H	-0.336193	1.317712	-0.506123
H136	H	-0.545890	1.390070	-0.520274
H137	H	-0.063589	1.187286	-0.971916
H138	H	0.129814	0.605594	-0.797933
H139	H	0.133802	0.880190	-0.802919
H140	H	-0.545987	1.153141	-0.756584
N141	N	-0.439632	1.401138	-0.509155
H142	H	-0.460686	1.376468	-0.447668
H143	H	-0.437575	1.462623	-0.534021
N144	N	-0.690794	1.359180	-0.551192
H145	H	-0.716364	1.385858	-0.524607
H146	H	-0.656582	1.404095	-0.592497
N147	N	-0.804278	1.359244	-0.551223
H148	H	-0.843009	1.352876	-0.557609
H149	H	-0.783168	1.420711	-0.576027
N150	N	-0.804355	1.184232	-0.725734
H151	H	-0.778785	1.157551	-0.752316
H152	H	-0.815447	1.225496	-0.770712
H153	H	-0.698088	1.195312	-0.714630
H154	H	-0.294848	1.195070	-0.714516
N155	N	0.041949	1.320131	-1.358244
H156	H	0.045421	1.324501	-1.417688
H157	H	0.074815	1.304294	-1.340620
