data_functionalizedCrystal
_audit_creation_method	'MofGen! by Chris Wilmer'
_symmetry_space_group_name_H-M	'P1'
_symmetry_Int_Tables_number	1
_symmetry_cell_setting	triclinic
loop_
_symmetry_equiv_pos_as_xyz
  x,y,z
_cell_length_a	27.732048
_cell_length_b	27.732048
_cell_length_c	18.266242
_cell_angle_alpha	89.988683
_cell_angle_beta	89.996455
_cell_angle_gamma	82.642655
loop_
_atom_site_label
_atom_site_type_symbol
_atom_site_fract_x
_atom_site_fract_y
_atom_site_fract_z
O1	O	0.640930	0.057518	-0.060794
O2	O	1.140930	0.557518	0.439206
O3	O	0.500137	0.066263	-0.060818
O4	O	1.000137	0.566263	0.439182
O5	O	0.574906	-0.008506	-0.060791
O6	O	1.074906	0.491494	0.439209
O7	O	0.566161	0.132287	-0.060821
O8	O	1.066161	0.632287	0.439179
O9	O	0.574894	-0.008510	0.060971
O10	O	1.074894	0.491490	0.560971
O11	O	0.500124	0.066259	0.060944
O12	O	1.000124	0.566259	0.560944
O13	O	0.640918	0.057514	0.060968
O14	O	1.140918	0.557514	0.560968
Zn15	Zn	0.570519	0.061886	0.080288
Zn16	Zn	1.070519	0.561886	0.580288
Zn17	Zn	0.570535	0.061891	-0.080138
Zn18	Zn	1.070535	0.561891	0.419862
O19	O	0.566148	0.132283	0.060941
O20	O	1.066148	0.632283	0.560941
C21	C	0.482124	0.066078	0.000061
C22	C	0.982124	0.566078	0.500061
C23	C	0.428469	0.065525	0.000052
C24	C	0.928469	0.565525	0.500052
C25	C	0.089654	0.106229	0.000076
C26	C	0.589654	0.606229	0.500076
C27	C	-0.112006	0.104178	0.000082
C28	C	0.387994	0.604178	0.500082
O29	O	-0.143262	0.141398	0.000106
O30	O	0.356738	0.641398	0.500106
N31	N	-0.131130	0.059843	0.000090
N32	N	0.368870	0.559843	0.500090
C33	C	-0.099835	0.016017	0.000101
C34	C	0.400165	0.516017	0.500101
O35	O	-0.120728	-0.021740	0.000116
O36	O	0.379272	0.478260	0.500116
C37	C	0.101824	0.018068	0.000100
C38	C	0.601824	0.518068	0.500100
C39	C	0.120944	0.062407	0.000084
C40	C	0.620944	0.562407	0.500084
C41	C	0.108775	0.150563	0.000061
C42	C	0.608775	0.650563	0.500061
C43	C	0.159187	0.151075	0.000055
C44	C	0.659187	0.651075	0.500055
C45	C	0.190477	0.107253	0.000064
C46	C	0.690477	0.607253	0.500064
C47	C	0.171356	0.062919	0.000079
C48	C	0.671356	0.562919	0.500079
C49	C	0.133117	-0.025757	0.000116
C50	C	0.633117	0.474243	0.500116
C51	C	0.183535	-0.025240	0.000117
C52	C	0.683535	0.474760	0.500117
C53	C	0.202655	0.019098	0.000102
C54	C	0.702655	0.519098	0.500102
C55	C	0.253059	0.019609	0.000082
C56	C	0.753059	0.519609	0.500082
N57	N	0.272183	0.063944	0.000074
N58	N	0.772183	0.563944	0.500074
C59	C	0.240892	0.107766	0.000065
C60	C	0.740892	0.607766	0.500065
C61	C	-0.205709	0.014943	0.000101
C62	C	0.294291	0.514943	0.500101
C63	C	-0.256124	0.014430	0.000100
C64	C	0.243876	0.514430	0.500100
C65	C	-0.268291	0.102591	0.000082
C66	C	0.231709	0.602591	0.500082
C67	C	-0.217876	0.103104	0.000078
C68	C	0.282124	0.603104	0.500078
C69	C	-0.186585	0.059278	0.000093
C70	C	0.313415	0.559278	0.500093
C71	C	0.346761	0.108839	0.000052
C72	C	0.846761	0.608839	0.500052
C73	C	0.397178	0.109347	0.000043
C74	C	0.897178	0.609347	0.500043
C75	C	0.409341	0.021186	0.000065
C76	C	0.909341	0.521186	0.500065
C77	C	0.358929	0.020678	0.000070
C78	C	0.858929	0.520678	0.500070
C79	C	0.327639	0.064508	0.000066
C80	C	0.827639	0.564508	0.500066
O81	O	0.284343	-0.017592	0.000066
O82	O	0.784343	0.482408	0.500066
O83	O	0.261794	0.145518	0.000067
O84	O	0.761794	0.645518	0.500067
C85	C	0.039242	0.105716	0.000081
C86	C	0.539242	0.605716	0.500081
C87	C	0.020120	0.061382	0.000096
C88	C	0.520120	0.561382	0.500096
C89	C	0.051411	0.017560	0.000105
C90	C	0.551411	0.517560	0.500105
C91	C	-0.030294	0.060869	0.000095
C92	C	0.469706	0.560869	0.500095
C93	C	-0.061585	0.104691	0.000086
C94	C	0.438415	0.604691	0.500086
C95	C	-0.042461	0.149026	0.000078
C96	C	0.457539	0.649026	0.500078
C97	C	0.007951	0.149539	0.000072
C98	C	0.507951	0.649539	0.500072
C99	C	0.032287	-0.026775	0.000113
C100	C	0.532287	0.473225	0.500113
C101	C	-0.018125	-0.027284	0.000117
C102	C	0.481875	0.472716	0.500117
C103	C	-0.049416	0.016538	0.000109
C104	C	0.450584	0.516538	0.500109
C105	C	0.574716	-0.026515	0.000092
C106	C	1.074716	0.473485	0.500092
C107	C	0.574164	-0.080170	0.000098
C108	C	1.074164	0.419830	0.500098
C109	C	0.614867	-0.418985	0.000067
C110	C	1.114867	0.081015	0.500067
C111	C	0.612816	-0.620645	0.000056
C112	C	1.112816	-0.120645	0.500056
O113	O	0.650037	-0.651900	0.000030
O114	O	1.150037	-0.151900	0.500030
N115	N	0.568481	-0.639768	0.000049
N116	N	1.068481	-0.139768	0.500049
C117	C	0.524656	-0.608474	0.000041
C118	C	1.024656	-0.108474	0.500041
O119	O	0.486899	-0.629367	0.000027
O120	O	0.986899	-0.129367	0.500027
C121	C	0.526707	-0.406815	0.000046
C122	C	1.026707	0.093185	0.500046
C123	C	0.571045	-0.387694	0.000060
C124	C	1.071045	0.112306	0.500060
C125	C	0.659202	-0.399864	0.000080
C126	C	1.159202	0.100136	0.500080
C127	C	0.659714	-0.349452	0.000087
C128	C	1.159714	0.150548	0.500087
C129	C	0.615892	-0.318161	0.000080
C130	C	1.115892	0.181839	0.500080
C131	C	0.571557	-0.337282	0.000067
C132	C	1.071557	0.162718	0.500067
C133	C	0.482882	-0.375521	0.000032
C134	C	0.982882	0.124479	0.500032
C135	C	0.483399	-0.325104	0.000031
C136	C	0.983399	0.174896	0.500031
C137	C	0.527737	-0.305983	0.000045
C138	C	1.027737	0.194017	0.500045
C139	C	0.528247	-0.255580	0.000067
C140	C	1.028247	0.244420	0.500067
N141	N	0.572583	-0.236456	0.000073
N142	N	1.072583	0.263544	0.500073
C143	C	0.616405	-0.267747	0.000080
C144	C	1.116405	0.232253	0.500080
C145	C	0.523582	-0.714348	0.000039
C146	C	1.023582	-0.214348	0.500039
C147	C	0.523069	-0.764762	0.000039
C148	C	1.023069	-0.264762	0.500039
C149	C	0.611230	-0.776930	0.000053
C150	C	1.111230	-0.276930	0.500053
C151	C	0.611742	-0.726514	0.000059
C152	C	1.111742	-0.226514	0.500059
C153	C	0.567917	-0.695224	0.000046
C154	C	1.067917	-0.195224	0.500046
C155	C	0.617477	-0.161878	0.000094
C156	C	1.117477	0.338122	0.500094
C157	C	0.617986	-0.111461	0.000104
C158	C	1.117986	0.388539	0.500104
C159	C	0.529825	-0.099298	0.000086
C160	C	1.029825	0.400702	0.500086
C161	C	0.529316	-0.149710	0.000080
C162	C	1.029316	0.350290	0.500080
C163	C	0.573147	-0.180999	0.000082
C164	C	1.073147	0.319001	0.500082
O165	O	0.491047	-0.224296	0.000084
O166	O	0.991047	0.275704	0.500084
O167	O	0.654156	-0.246844	0.000077
O168	O	1.154156	0.253156	0.500077
C169	C	0.614355	-0.469397	0.000060
C170	C	1.114355	0.030603	0.500060
C171	C	0.570021	-0.488518	0.000047
C172	C	1.070021	0.011482	0.500047
C173	C	0.526198	-0.457228	0.000040
C174	C	1.026198	0.042772	0.500040
C175	C	0.569508	-0.538933	0.000047
C176	C	1.069508	-0.038933	0.500047
C177	C	0.613330	-0.570223	0.000053
C178	C	1.113330	-0.070223	0.500053
C179	C	0.657665	-0.551100	0.000060
C180	C	1.157665	-0.051100	0.500060
C181	C	0.658177	-0.500688	0.000067
C182	C	1.158177	-0.000688	0.500067
C183	C	0.481863	-0.476351	0.000034
C184	C	0.981863	0.023649	0.500034
C185	C	0.481355	-0.526764	0.000028
C186	C	0.981355	-0.026764	0.500028
C187	C	0.525177	-0.558054	0.000034
C188	C	1.025177	-0.058054	0.500034
C189	C	0.658931	0.057699	0.000088
C190	C	1.158931	0.557699	0.500088
C191	C	0.712586	0.058252	0.000091
C192	C	1.212586	0.558252	0.500091
C193	C	0.566338	0.150292	0.000057
C194	C	1.066338	0.650292	0.500057
C195	C	0.566891	0.203947	0.000046
C196	C	1.066891	0.703947	0.500046
N197	N	0.570511	0.061882	0.189775
N198	N	1.070511	0.561882	0.689775
N199	N	0.570547	0.061891	-0.189625
N200	N	1.070547	0.561891	0.310375
C201	C	0.603630	0.028791	0.228096
C202	C	1.103630	0.528791	0.728096
C203	C	0.603633	0.028788	0.304741
C204	C	1.103633	0.528788	0.804741
C205	C	0.570522	0.061886	0.343062
C206	C	1.070522	0.561886	0.843062
C207	C	0.537397	0.094981	0.304732
C208	C	1.037397	0.594981	0.804732
C209	C	0.537392	0.094979	0.228089
C210	C	1.037392	0.594979	0.728089
N211	N	0.564050	0.104705	0.463385
N212	N	1.064050	0.604705	0.963385
N213	N	0.564058	0.104705	0.536193
N214	N	1.064058	0.604705	1.036193
C215	C	0.570535	0.061893	0.573985
C216	C	1.070535	0.561893	1.073985
N217	N	0.577014	0.019079	0.536217
N218	N	1.077014	0.519079	1.036217
N219	N	0.577009	0.019080	0.463403
N220	N	1.077009	0.519080	0.963403
C221	C	0.570524	0.061892	0.426169
C222	C	1.070524	0.561892	0.926169
C223	C	0.603659	0.028796	0.695412
C224	C	1.103659	0.528796	1.195412
C225	C	0.603659	0.028793	0.772059
C226	C	1.103659	0.528793	1.272059
C227	C	0.537425	0.094990	0.772049
C228	C	1.037425	0.594990	1.272049
C229	C	0.537423	0.094988	0.695404
C230	C	1.037423	0.594988	1.195404
C231	C	0.570543	0.061892	0.657090
C232	C	1.070543	0.561892	1.157090
H233	H	-0.202311	0.139207	0.000070
H234	H	0.297689	0.639207	0.500070
N235	N	0.639384	-0.006896	0.813397
N236	N	1.139384	0.493104	1.313397
H237	H	0.660641	0.011438	0.845184
H238	H	1.160641	0.511438	1.345184
H239	H	0.621045	-0.028166	0.845167
H240	H	1.121045	0.471834	1.345167
H241	H	0.630596	0.001841	0.196903
H242	H	1.130596	0.501841	0.696903
N243	N	0.338309	-0.027146	0.000087
N244	N	0.838309	0.472854	0.500087
H245	H	0.317668	-0.029324	0.045232
H246	H	0.817668	0.470676	0.545232
H247	H	0.317684	-0.029300	-0.045072
H248	H	0.817684	0.470700	0.454928
H249	H	0.083302	0.186251	0.000056
H250	H	0.583302	0.686251	0.500056
N251	N	0.443095	-0.026077	0.000075
N252	N	0.943095	0.473923	0.500075
H253	H	0.477932	-0.019021	0.000073
H254	H	0.977932	0.480979	0.500073
H255	H	0.436940	-0.045414	0.045222
H256	H	0.936940	0.454586	0.545222
H257	H	0.057760	-0.062462	0.000121
H258	H	0.557760	0.437538	0.500121
N259	N	-0.302047	0.149856	0.000122
N260	N	0.197953	0.649856	0.500122
H261	H	-0.282287	0.178024	0.000133
H262	H	0.217713	0.678024	0.500133
H263	H	-0.323242	0.151585	-0.045003
H264	H	0.176758	0.651585	0.454997
H265	H	0.023514	0.185643	0.000061
H266	H	0.523514	0.685643	0.500061
H267	H	0.646911	-0.802415	0.000059
H268	H	1.146911	-0.302415	0.500059
N269	N	0.639354	-0.006906	0.346085
N270	N	1.139354	0.493094	0.846085
H271	H	0.660332	-0.027873	0.310183
H272	H	1.160332	0.472127	0.810183
H273	H	0.660582	0.011458	0.377872
H274	H	1.160582	0.511458	0.877872
H275	H	0.447710	-0.299629	0.000020
H276	H	0.947710	0.200371	0.500020
N277	N	0.704930	-0.584855	0.000060
N278	N	1.204930	-0.084855	0.500060
H279	H	0.733098	-0.565097	0.000067
H280	H	1.233098	-0.065097	0.500067
H281	H	0.706631	-0.606046	0.045196
H282	H	1.206631	-0.106046	0.545196
H283	H	0.493213	-0.165279	0.000089
H284	H	0.993213	0.334721	0.500089
N285	N	0.433530	-0.547384	0.000025
N286	N	0.933530	-0.047384	0.500025
H287	H	0.405849	-0.519907	0.000022
H288	H	0.905849	-0.019907	0.500022
H289	H	0.431399	-0.568028	-0.045117
H290	H	0.931399	-0.068028	0.454883
H291	H	-0.180236	-0.020747	0.000113
H292	H	0.319764	0.479253	0.500113
H293	H	0.446177	-0.450879	0.000027
H294	H	0.946177	0.049121	0.500027
N295	N	0.501681	0.130677	0.346059
N296	N	1.001681	0.630677	0.846059
H297	H	0.506711	0.125658	0.400428
H298	H	1.006711	0.625658	0.900428
H299	H	0.507004	0.164932	0.332647
H300	H	1.007004	0.664932	0.832647
H301	H	0.694282	-0.485125	0.000078
H302	H	1.194282	0.014875	0.500078
H303	H	0.494146	-0.073812	0.000083
H304	H	0.994146	0.426188	0.500083
N305	N	0.501668	0.130670	0.186752
N306	N	1.001668	0.630670	0.686752
H307	H	0.480690	0.151637	0.222655
H308	H	0.980690	0.651637	0.722655
H309	H	0.520009	0.151914	0.154940
H310	H	1.020009	0.651914	0.654940
N311	N	0.639377	-0.006899	0.654081
N312	N	1.139377	0.493101	1.154081
H313	H	0.660356	-0.027867	0.689991
H314	H	1.160356	0.472133	1.189991
H315	H	0.621031	-0.028142	0.622291
H316	H	1.121031	0.471858	1.122291
N317	N	0.112506	-0.073581	0.000141
N318	N	0.612506	0.426419	0.500141
H319	H	0.091861	-0.075759	0.045281
H320	H	0.591861	0.424241	0.545281
H321	H	0.091885	-0.075738	-0.045023
H322	H	0.591885	0.424262	0.454977
H323	H	0.654093	-0.095896	0.000117
H324	H	1.154093	0.404104	0.500117
N325	N	0.659563	-0.705893	0.000069
N326	N	1.159563	-0.205893	0.500069
H327	H	0.661737	-0.685253	0.045207
H328	H	1.161737	-0.185253	0.545207
H329	H	0.687215	-0.733396	0.000048
H330	H	1.187215	-0.233396	0.500048
H331	H	-0.067947	0.184708	0.000068
H332	H	0.432053	0.684708	0.500068
N333	N	0.435062	-0.396141	0.000007
N334	N	0.935062	0.103859	0.500007
H335	H	0.432873	-0.416793	0.045141
H336	H	0.932873	0.083207	0.545141
H337	H	0.407409	-0.368639	-0.000030
H338	H	0.907409	0.131361	0.499970
N339	N	-0.038745	-0.075109	0.000129
N340	N	0.461255	0.424891	0.500129
H341	H	-0.011268	-0.102790	0.000136
H342	H	0.488732	0.397210	0.500136
H343	H	-0.059395	-0.077242	0.045273
H344	H	0.440605	0.422758	0.545273
N345	N	0.501708	0.130686	0.813370
N346	N	1.001708	0.630686	1.313370
H347	H	0.506735	0.125665	0.867739
H348	H	1.006735	0.625665	1.367739
H349	H	0.507032	0.164940	0.799961
H350	H	1.007032	0.664940	1.299961
N351	N	0.501702	0.130680	0.654067
N352	N	1.001702	0.630680	1.154067
H353	H	0.480726	0.151648	0.689971
H354	H	0.980726	0.651648	1.189971
H355	H	0.520042	0.151924	0.622252
H356	H	1.020042	0.651924	1.122252
H357	H	0.695819	-0.333889	0.000095
H358	H	1.195819	0.166111	0.500095
N359	N	0.179806	0.198897	0.000035
N360	N	0.679806	0.698897	0.500035
H361	H	0.152328	0.226577	0.000030
H362	H	0.652328	0.726577	0.500030
H363	H	0.200458	0.201034	0.045171
H364	H	0.700458	0.701034	0.545171
H365	H	0.412743	0.145454	0.000031
H366	H	0.912743	0.645454	0.500031
N367	N	0.706471	-0.433609	0.000088
N368	N	1.206471	0.066391	0.500088
H369	H	0.734630	-0.413838	0.000097
H370	H	1.234630	0.086162	0.500097
H371	H	0.708175	-0.454794	0.045229
H372	H	1.208175	0.045206	0.545229
N373	N	0.313018	0.156111	0.000066
N374	N	0.813018	0.656111	0.500066
H375	H	0.332788	0.184271	0.000060
H376	H	0.832788	0.684271	0.500060
H377	H	0.291830	0.157830	-0.045067
H378	H	0.791830	0.657830	0.454933
N379	N	0.217283	-0.072510	0.000138
N380	N	0.717283	0.427490	0.500138
H381	H	0.197517	-0.100672	0.000149
H382	H	0.697517	0.399328	0.500149
H383	H	0.238467	-0.074220	-0.045001
H384	H	0.738467	0.425780	0.454999
H385	H	0.486964	-0.780325	0.000041
H386	H	0.986964	-0.280325	0.500041
H387	H	-0.271687	-0.021674	0.000101
H388	H	0.228313	0.478326	0.500101
H389	H	0.487892	-0.688875	0.000029
H390	H	0.987892	-0.188875	0.500029
N391	N	0.664750	-0.195621	0.000096
N392	N	1.164750	0.304379	0.500096
H393	H	0.692910	-0.175851	0.000107
H394	H	1.192910	0.324149	0.500107
H395	H	0.666454	-0.216810	0.045234
H396	H	1.166454	0.283190	0.545234
