data_functionalizedCrystal
_audit_creation_method	'MofGen! by Chris Wilmer'
_symmetry_space_group_name_H-M	'P1'
_symmetry_Int_Tables_number	1
_symmetry_cell_setting	triclinic
loop_
_symmetry_equiv_pos_as_xyz
  x,y,z
_cell_length_a	15.944551
_cell_length_b	27.732048
_cell_length_c	14.421503
_cell_angle_alpha	89.999321
_cell_angle_beta	89.996859
_cell_angle_gamma	83.070697
loop_
_atom_site_label
_atom_site_type_symbol
_atom_site_fract_x
_atom_site_fract_y
_atom_site_fract_z
O1	O	1.113714	0.062334	-0.077025
O2	O	0.869064	0.070020	-0.077050
O3	O	0.998987	-0.004187	-0.077019
O4	O	0.983791	0.136540	-0.077056
O5	O	0.998966	-0.004176	0.077204
O6	O	0.869042	0.070031	0.077174
O7	O	1.113693	0.062345	0.077198
Cu8	Cu	0.991366	0.066189	0.091268
Cu9	Cu	0.991391	0.066176	-0.091119
O10	O	0.983769	0.136552	0.077168
C11	C	0.837763	0.069706	0.000059
C12	C	0.744530	0.068749	0.000051
C13	C	0.530305	0.020466	0.000081
C14	C	0.469002	0.042882	-0.075965
C15	C	0.573827	0.067019	0.000062
C16	C	0.469003	0.042904	0.076087
C17	C	0.408936	0.065344	0.000077
C18	C	0.513752	0.089447	-0.076047
C19	C	0.513759	0.089463	0.076074
C20	C	0.452474	0.111912	0.000009
C21	C	0.668816	0.067983	0.000053
C22	C	0.313947	0.064384	0.000080
C23	C	0.998658	-0.022190	0.000095
C24	C	0.997697	-0.075849	0.000103
C25	C	1.068426	-0.414358	0.000062
C26	C	1.064862	-0.616033	0.000049
O27	O	1.129539	-0.647008	0.000015
N28	N	0.987823	-0.635490	0.000042
C29	C	0.911669	-0.604525	0.000032
O30	O	0.846061	-0.625703	0.000017
C31	C	0.915234	-0.402851	0.000039
C32	C	0.992278	-0.383397	0.000055
C33	C	1.145464	-0.394903	0.000077
C34	C	1.146354	-0.344487	0.000086
C35	C	1.070206	-0.313526	0.000079
C36	C	0.993168	-0.332981	0.000064
C37	C	0.839081	-0.371887	0.000023
C38	C	0.839979	-0.321466	0.000022
C39	C	0.917024	-0.302012	0.000038
C40	C	0.917911	-0.251604	0.000065
N41	N	0.994950	-0.232147	0.000072
C42	C	1.071098	-0.263108	0.000079
C43	C	0.909803	-0.710408	0.000031
C44	C	0.908912	-0.760826	0.000031
C45	C	1.062105	-0.772330	0.000045
C46	C	1.062995	-0.721911	0.000052
C47	C	0.986842	-0.690950	0.000038
C48	C	1.072961	-0.157231	0.000097
C49	C	1.073845	-0.106810	0.000109
C50	C	0.920652	-0.095310	0.000090
C51	C	0.919768	-0.145727	0.000083
C52	C	0.995930	-0.176686	0.000083
O53	O	0.853269	-0.220600	0.000089
O54	O	1.136697	-0.241921	0.000074
C55	C	1.067536	-0.464774	0.000054
C56	C	0.990498	-0.484228	0.000039
C57	C	0.914350	-0.453268	0.000032
C58	C	0.989607	-0.534647	0.000039
C59	C	1.065754	-0.565608	0.000045
C60	C	1.142794	-0.546150	0.000052
C61	C	1.143684	-0.495734	0.000061
C62	C	0.837311	-0.472725	0.000025
C63	C	0.836427	-0.523141	0.000018
C64	C	0.912575	-0.554102	0.000024
C65	C	1.144993	0.062658	0.000087
C66	C	1.238227	0.063615	0.000090
C67	C	0.984099	0.154554	0.000051
C68	C	0.985059	0.208213	0.000038
N69	N	0.991354	0.066198	0.219549
N70	N	0.991409	0.066163	-0.219401
C71	C	0.931267	0.100495	0.469189
C72	C	1.007044	0.109880	0.530996
C73	C	0.991374	0.066186	0.408710
C74	C	0.915616	0.056813	0.530997
C75	C	0.991387	0.066176	0.591432
C76	C	1.067190	0.075592	0.469157
C77	C	0.975712	0.022507	0.469153
C78	C	1.051545	0.031872	0.530932
C79	C	0.991366	0.066193	0.303449
C80	C	0.991405	0.066169	0.696691
H81	H	0.533491	0.109118	-0.140408
O82	O	1.221144	-0.325537	-0.000035
C83	C	1.226266	-0.296729	-0.079921
H84	H	1.159902	-0.284173	-0.106550
H85	H	1.263716	-0.319004	-0.135851
C86	C	1.352432	-0.267555	-0.022955
C87	C	1.270921	-0.252129	-0.055657
H88	H	1.379981	-0.240045	-0.007990
H89	H	1.348983	-0.286964	0.030865
H90	H	1.383630	-0.286117	-0.069569
H91	H	1.239722	-0.233572	-0.009039
H92	H	1.274366	-0.232715	-0.109468
O93	O	1.218472	-0.476783	-0.000055
C94	C	1.223598	-0.447974	-0.079939
H95	H	1.157235	-0.435418	-0.106572
H96	H	1.261053	-0.470247	-0.135868
C97	C	1.349758	-0.418798	-0.022960
C98	C	1.268249	-0.403374	-0.055667
H99	H	1.377304	-0.391287	-0.007991
H100	H	1.346307	-0.438209	0.030858
H101	H	1.380960	-0.437359	-0.069573
H102	H	1.237046	-0.384818	-0.009051
H103	H	1.271696	-0.383959	-0.109477
O104	O	0.412209	0.158027	-0.000173
C105	C	0.360749	0.165109	-0.079685
H106	H	0.344871	0.128496	-0.105859
H107	H	0.395850	0.183380	-0.136077
C108	C	0.298075	0.242592	-0.022862
C109	C	0.278566	0.197624	-0.055004
H110	H	0.247381	0.262650	-0.007640
H111	H	0.332746	0.237821	0.030706
H112	H	0.327327	0.257811	-0.069861
H113	H	0.249324	0.182403	-0.008002
H114	H	0.243888	0.202392	-0.108564
H115	H	0.847786	-0.685203	0.000019
O116	O	0.959971	-0.021581	0.436821
C117	C	1.022617	-0.057790	0.469626
H118	H	1.052368	-0.044402	0.535194
H119	H	1.073365	-0.066089	0.414283
C120	C	0.945766	-0.120662	0.411116
C121	C	0.982302	-0.104220	0.491652
H122	H	0.920900	-0.149303	0.424699
H123	H	0.903562	-0.096267	0.389011
H124	H	0.988063	-0.127574	0.365005
H125	H	0.940004	-0.097303	0.537758
H126	H	1.024499	-0.128615	0.513765
O127	O	1.148668	-0.087889	0.000285
C128	C	1.153753	-0.059063	0.080151
H129	H	1.110012	-0.070992	0.135973
H130	H	1.133856	-0.019305	0.062096
C131	C	1.298997	-0.050515	0.047812
C132	C	1.245278	-0.065170	0.116377
H133	H	1.355454	-0.054280	0.070156
H134	H	1.295570	-0.069934	-0.005998
H135	H	1.282406	-0.017385	0.032772
H136	H	1.261863	-0.098301	0.131407
H137	H	1.248709	-0.045756	0.170190
O138	O	1.022981	0.153938	0.563306
C139	C	1.102283	0.164083	0.530470
H140	H	1.119313	0.142096	0.464906
H141	H	1.152353	0.153880	0.585800
C142	C	1.077349	0.245650	0.588951
C143	C	1.098262	0.218649	0.508420
H144	H	1.074872	0.279309	0.575354
H145	H	1.023924	0.238815	0.611077
H146	H	1.119078	0.237142	0.635052
H147	H	1.056529	0.227152	0.462325
H148	H	1.151681	0.225486	0.486286
O149	O	0.445269	0.019469	-0.152724
C150	C	0.388936	0.051499	-0.205743
H151	H	0.398637	0.090588	-0.188752
H152	H	0.321172	0.045449	-0.188700
C153	C	0.393923	-0.006156	-0.330500
C154	C	0.405842	0.041855	-0.309637
H155	H	0.404347	-0.012105	-0.394587
H156	H	0.431873	-0.027736	-0.294780
H157	H	0.337452	-0.011191	-0.316291
H158	H	0.462314	0.046888	-0.323835
H159	H	0.367902	0.063436	-0.345363
O160	O	1.112143	-0.002801	0.563122
C161	C	1.074182	-0.036669	0.616937
H162	H	1.005076	-0.035878	0.596044
H163	H	1.078208	-0.026895	0.693461
C164	C	1.205507	-0.088907	0.626233
C165	C	1.120631	-0.087939	0.600567
H166	H	1.234160	-0.120532	0.616140
H167	H	1.231082	-0.066089	0.589980
H168	H	1.208849	-0.080760	0.690002
H169	H	1.117289	-0.096079	0.536798
H170	H	1.095056	-0.110759	0.636810
O171	O	0.537447	0.112868	0.152856
C172	C	0.514907	0.088209	0.232882
H173	H	0.508658	0.048801	0.214673
H174	H	0.452026	0.106494	0.260623
C175	C	0.591345	0.138212	0.329783
C176	C	0.583677	0.089808	0.307421
H177	H	0.633762	0.139200	0.375764
H178	H	0.606528	0.154826	0.275869
H179	H	0.538939	0.153444	0.352895
H180	H	0.636078	0.074579	0.284298
H181	H	0.568504	0.073191	0.361332
H182	H	0.851544	0.048890	0.558163
H183	H	0.776344	-0.387718	0.000004
H184	H	1.204796	-0.571368	0.000062
H185	H	0.846175	-0.776661	0.000034
H186	H	0.449165	0.023210	0.140376
H187	H	1.134979	-0.182432	0.000094
O188	O	0.570751	-0.025606	-0.000114
C189	C	0.622270	-0.032602	-0.079601
H190	H	0.638003	0.004049	-0.105734
H191	H	0.587290	-0.050917	-0.136030
C192	C	0.685225	-0.110031	-0.022804
C193	C	0.704554	-0.065015	-0.054896
H194	H	0.735980	-0.130027	-0.007567
H195	H	0.650513	-0.105319	0.030746
H196	H	0.656073	-0.125286	-0.069834
H197	H	0.733696	-0.049758	-0.007863
H198	H	0.739273	-0.069726	-0.108438
H199	H	1.207476	-0.420107	0.000079
H200	H	1.125732	-0.706075	0.000065
H201	H	1.124107	-0.797547	0.000051
O202	O	0.761602	-0.542059	0.000165
C203	C	0.756484	-0.570894	0.080016
H204	H	0.800206	-0.558972	0.135860
H205	H	0.776385	-0.610650	0.061951
C206	C	0.611252	-0.579435	0.047620
C207	C	0.664946	-0.564789	0.116212
H208	H	0.554786	-0.575671	0.069946
H209	H	0.614700	-0.560010	-0.006179
H210	H	0.627846	-0.612564	0.032572
H211	H	0.648358	-0.531659	0.131250
H212	H	0.661493	-0.584208	0.170015
H213	H	0.777965	-0.296260	0.000009
O214	O	0.844984	-0.164686	-0.000048
C215	C	0.839889	-0.193490	-0.079944
H216	H	0.906262	-0.206035	-0.106567
H217	H	0.802441	-0.171215	-0.135873
C218	C	0.713728	-0.222687	-0.023003
C219	C	0.795250	-0.238099	-0.055698
H220	H	0.686190	-0.250203	-0.008049
H221	H	0.717158	-0.203280	0.030823
H222	H	0.682533	-0.204124	-0.069615
H223	H	0.826447	-0.256655	-0.009081
H224	H	0.791824	-0.257510	-0.109515
H225	H	0.858655	-0.070093	0.000088
H226	H	0.775301	-0.447521	0.000017
H227	H	0.880487	0.129533	0.442079
H228	H	1.131276	0.083559	0.442107
