data_functionalizedCrystal
_audit_creation_method	'MofGen! by Chris Wilmer'
_symmetry_space_group_name_H-M	'P1'
_symmetry_Int_Tables_number	1
_symmetry_cell_setting	triclinic
loop_
_symmetry_equiv_pos_as_xyz
  x,y,z
_cell_length_a	14.560438
_cell_length_b	19.377372
_cell_length_c	14.560438
_cell_angle_alpha	89.999420
_cell_angle_beta	60.000069
_cell_angle_gamma	72.112912
loop_
_atom_site_label
_atom_site_type_symbol
_atom_site_fract_x
_atom_site_fract_y
_atom_site_fract_z
Zr1	Zr	1.278714	0.580564	-0.257227
O2	O	1.424996	0.484336	-0.381211
O3	O	1.101006	0.610062	-0.219221
O4	O	1.292610	0.610062	-0.410822
O5	O	1.233389	0.484337	-0.038469
O6	O	1.339320	0.709237	-0.434177
O7	O	1.233391	0.484336	-0.189610
O8	O	0.996575	0.709237	-0.091438
O9	O	1.576134	0.484337	-0.381208
O10	O	1.220598	0.696656	-0.220439
O11	O	1.185737	0.622643	-0.090215
O12	O	1.411326	0.622643	-0.315800
O13	O	1.376465	0.548630	-0.185576
Zr14	Zr	1.353207	0.738736	-0.053423
Zr15	Zr	1.353211	0.738736	-0.294475
Zr16	Zr	1.278710	0.580564	-0.016174
Zr17	Zr	1.519762	0.580564	-0.257222
Zr18	Zr	1.112159	0.738736	-0.053428
O19	O	1.530915	0.709238	-0.091429
O20	O	1.530921	0.709237	-0.434174
O21	O	1.424990	0.484337	-0.038466
O22	O	1.206925	0.834963	0.070561
O23	O	1.206931	0.834963	-0.272184
O24	O	1.101000	0.610062	0.123524
O25	O	1.398532	0.834963	-0.272181
O26	O	1.339311	0.709237	0.100172
O27	O	1.292601	0.610063	0.123527
O28	O	1.398529	0.834963	-0.121040
O29	O	1.635349	0.610063	-0.410816
O30	O	0.996572	0.709237	0.100166
O31	O	1.055787	0.834963	0.070558
O32	O	1.055790	0.834963	-0.121046
O33	O	1.576130	0.484337	-0.189604
O34	O	1.635345	0.610063	-0.219211
O35	O	1.220594	0.696656	0.005150
O36	O	1.255455	0.770669	-0.125074
O37	O	1.446183	0.696656	-0.220435
O38	O	1.411322	0.622643	-0.090211
C39	C	1.014446	0.659649	-0.155331
C40	C	0.912115	0.659649	-0.155332
C41	C	0.882235	0.698282	-0.223308
C42	C	0.786077	0.698285	-0.223298
C43	C	0.749688	0.621017	-0.087334
C44	C	0.845840	0.621019	-0.087339
C45	C	1.222776	0.461800	-0.108732
C46	C	1.191150	0.394652	-0.092919
C47	C	1.584916	-0.019356	-0.289801
C48	C	1.555172	-0.082441	-0.274928
C49	C	1.356066	-0.005168	-0.175378
C50	C	1.385793	0.057926	-0.190239
C51	C	1.500220	0.050825	-0.247452
C52	C	1.301097	0.128107	-0.147889
C53	C	1.330822	0.191195	-0.162754
C54	C	1.445243	0.184102	-0.219967
C55	C	1.529945	0.113913	-0.262316
C56	C	1.186672	0.135205	-0.090683
C57	C	1.101976	0.205386	-0.048334
C58	C	1.131700	0.268476	-0.063191
C59	C	1.246121	0.261383	-0.120404
C60	C	1.046999	0.338664	-0.020842
C61	C	1.076724	0.401752	-0.035706
C62	C	1.275846	0.324471	-0.135269
C63	C	1.617474	0.659650	-0.155319
C64	C	1.719805	0.659650	-0.155317
C65	C	1.315965	0.659650	-0.456844
C66	C	1.315967	0.659649	-0.559177
C67	C	1.409144	0.857499	-0.201917
C68	C	1.440770	0.924648	-0.217730
C69	C	1.341701	0.714285	-0.620120
C70	C	1.341690	0.714288	-0.716266
C71	C	1.290214	0.605011	-0.690521
C72	C	1.290217	0.605013	-0.594372
C73	C	1.315955	0.659650	0.146195
C74	C	1.315953	0.659650	0.248528
C75	C	1.107630	0.857499	-0.201923
C76	C	1.036925	0.924647	-0.217738
C77	C	1.014441	0.659650	0.146189
C78	C	0.912108	0.659650	0.248520
C79	C	1.107625	0.857499	0.099597
C80	C	1.036918	0.924648	0.186115
C81	C	1.524295	0.461800	-0.410246
C82	C	1.595002	0.394652	-0.496764
C83	C	1.524290	0.461801	-0.108727
C84	C	1.594995	0.394652	-0.092912
C85	C	1.617479	0.659650	-0.456839
C86	C	1.719812	0.659650	-0.559170
C87	C	0.985526	0.917547	-0.274954
C88	C	0.919102	0.980633	-0.289835
C89	C	0.904071	1.050820	-0.247492
C90	C	0.955479	1.057919	-0.190274
C91	C	1.021908	0.994833	-0.175400
C92	C	1.021914	0.994822	0.158767
C93	C	0.955493	1.057921	0.240049
C94	C	0.904072	1.050844	0.348678
C95	C	0.919082	0.980662	0.376025
C96	C	0.985508	0.917565	0.294744
C97	C	1.610018	0.324478	-0.469417
C98	C	1.676469	0.261379	-0.550699
C99	C	1.727895	0.268456	-0.659328
C100	C	1.712879	0.338637	-0.686675
C101	C	1.646436	0.401735	-0.605394
C102	C	1.646404	0.401753	-0.035705
C103	C	1.712855	0.338666	-0.020851
C104	C	1.727889	0.268480	-0.063198
C105	C	1.676477	0.261380	-0.120412
C106	C	1.610034	0.324467	-0.135272
C107	C	0.882225	0.698283	0.346375
C108	C	0.786077	0.698275	0.442524
C109	C	0.749701	0.620998	0.342950
C110	C	0.845851	0.621003	0.246804
H111	H	0.695717	0.589564	-0.031978
H112	H	1.754759	0.344391	-0.775131
Cl113	Cl	0.965518	0.746865	0.348536
H114	H	0.870165	0.589559	-0.031980
H115	H	1.362643	0.758778	-0.765883
H116	H	1.369023	0.318688	-0.181824
H117	H	0.870182	0.589539	0.167121
Cl118	Cl	1.257851	0.536326	-0.734773
Cl119	Cl	1.482615	0.263413	-0.238659
H120	H	0.761753	0.729733	0.522199
H121	H	1.634170	0.458897	-0.001212
Cl122	Cl	0.936633	1.146140	0.205646
Cl123	Cl	0.854481	0.971692	-0.361764
Cl124	Cl	1.673798	0.104992	-0.334229
Cl125	Cl	1.777470	0.347608	0.051083
Cl126	Cl	1.545402	0.315527	-0.207185
Cl127	Cl	0.965545	0.746850	-0.308780
H128	H	1.568145	0.318702	-0.380971
H129	H	1.008810	0.211157	-0.001754
Cl130	Cl	1.695326	0.173160	-0.516296
H131	H	0.695742	0.589535	0.341565
Cl132	Cl	1.149303	0.055893	-0.072007
Cl133	Cl	1.257856	0.536325	-0.517748
H134	H	0.849976	1.102183	-0.259610
H135	H	0.877206	0.974911	0.464482
Cl136	Cl	1.811420	0.189178	-0.044504
Cl137	Cl	1.004353	0.829348	0.329143
Cl138	Cl	0.820564	1.130175	0.450850
H139	H	1.678093	-0.025139	-0.336357
H140	H	1.624150	-0.139587	-0.309420
Cl141	Cl	1.212222	0.003749	-0.103457
H142	H	0.761753	0.729744	-0.278649
Cl143	Cl	1.627560	0.489951	-0.639793
Cl144	Cl	1.004411	0.829319	-0.328202
Cl145	Cl	0.903155	0.347579	0.051067
Cl146	Cl	1.811419	0.189125	-0.761500
Cl147	Cl	0.936566	1.146160	-0.137043
Cl148	Cl	0.970248	0.489984	0.017529
H149	H	1.063750	1.000625	-0.128803
H150	H	1.688729	0.204226	-0.154886
H151	H	1.063774	1.000598	0.070321
H152	H	1.362666	0.758775	-0.591466
