data_functionalizedCrystal
_audit_creation_method	'MofGen! by Chris Wilmer'
_symmetry_space_group_name_H-M	'P1'
_symmetry_Int_Tables_number	1
_symmetry_cell_setting	triclinic
loop_
_symmetry_equiv_pos_as_xyz
  x,y,z
_cell_length_a	19.377372
_cell_length_b	14.560438
_cell_length_c	14.560438
_cell_angle_alpha	60.007151
_cell_angle_beta	72.113596
_cell_angle_gamma	89.999431
loop_
_atom_site_label
_atom_site_type_symbol
_atom_site_fract_x
_atom_site_fract_y
_atom_site_fract_z
Zr1	Zr	0.580597	-0.257067	1.278615
O2	O	0.484375	-0.381031	1.424882
O3	O	0.610091	-0.219084	1.100921
O4	O	0.610097	-0.410658	1.292505
O5	O	0.484368	-0.038318	1.233300
O6	O	0.709273	-0.434007	1.339211
O7	O	0.484369	-0.189457	1.233298
O8	O	0.709262	-0.091315	0.996501
O9	O	0.484379	-0.381010	1.576010
O10	O	0.696688	-0.220287	1.220504
O11	O	0.622673	-0.090069	1.185650
O12	O	0.622681	-0.315623	1.411216
O13	O	0.548666	-0.185405	1.376361
Zr14	Zr	0.738770	-0.053257	1.353109
Zr15	Zr	0.738772	-0.294306	1.353105
Zr16	Zr	0.580596	-0.016018	1.278618
Zr17	Zr	0.580604	-0.257033	1.519645
Zr18	Zr	0.738764	-0.053291	1.112078
O19	O	0.709276	-0.091240	1.530803
O20	O	0.709278	-0.433980	1.530798
O21	O	0.484373	-0.038291	1.424887
O22	O	0.834993	0.070707	1.206841
O23	O	0.834995	-0.272033	1.206836
O24	O	0.610089	0.123656	1.100925
O25	O	0.835000	-0.272006	1.398423
O26	O	0.709270	0.100334	1.339218
O27	O	0.610094	0.123683	1.292513
O28	O	0.834999	-0.120867	1.398426
O29	O	0.610106	-0.410610	1.635219
O30	O	0.709261	0.100286	0.996504
O31	O	0.834989	0.070686	1.055714
O32	O	0.834990	-0.120915	1.055711
O33	O	0.484378	-0.189409	1.576012
O34	O	0.610105	-0.219009	1.635222
O35	O	0.696687	0.005299	1.220508
O36	O	0.770702	-0.124919	1.255362
O37	O	0.696694	-0.220255	1.446074
O38	O	0.622679	-0.090037	1.411219
C39	C	0.461832	-0.108582	1.222686
C40	C	0.394682	-0.092773	1.191062
C41	C	0.659676	-0.155204	1.014369
C42	C	0.659673	-0.155219	0.912045
C43	C	0.659682	0.146353	1.315866
C44	C	0.659681	0.248684	1.315867
C45	C	-0.019314	-0.289603	1.584794
C46	C	-0.082401	-0.274734	1.555053
C47	C	-0.005133	-0.175210	1.355964
C48	C	0.057962	-0.190067	1.385689
C49	C	0.050865	-0.247265	1.500105
C50	C	0.128140	-0.147728	1.301000
C51	C	0.191229	-0.162589	1.330723
C52	C	0.184139	-0.219787	1.445133
C53	C	0.113954	-0.262125	1.529828
C54	C	0.135235	-0.090537	1.186584
C55	C	0.205414	-0.048199	1.101896
C56	C	0.268505	-0.063052	1.131618
C57	C	0.261415	-0.120251	1.246029
C58	C	0.338690	-0.020714	1.046924
C59	C	0.401779	-0.035574	1.076646
C60	C	0.324504	-0.135111	1.275751
C61	C	0.857536	-0.201742	1.409038
C62	C	0.924685	-0.217551	1.440661
C63	C	0.659686	-0.456677	1.315857
C64	C	0.659686	-0.559008	1.315856
C65	C	0.621054	0.246997	1.415416
C66	C	0.621054	0.343152	1.415410
C67	C	0.698315	0.442676	1.216298
C68	C	0.698310	0.346523	1.216304
C69	C	0.576450	0.189538	1.530373
C70	C	0.576450	0.285693	1.530367
C71	C	0.605041	-0.225577	0.921442
C72	C	0.605053	-0.225523	0.825259
C73	C	0.714332	-0.084744	0.710284
C74	C	0.714322	-0.084804	0.806468
C75	C	0.541948	-0.306852	0.987820
C76	C	0.541960	-0.306798	0.891637
C77	C	0.659692	-0.155120	1.617354
C78	C	0.659694	-0.155105	1.719678
C79	C	0.857528	-0.201785	1.107545
C80	C	0.924675	-0.217608	1.036845
C81	C	0.659674	0.146310	1.014373
C82	C	0.659671	0.248627	0.912051
C83	C	0.857526	0.099730	1.107550
C84	C	0.924672	0.186238	1.036850
C85	C	0.461841	-0.410054	1.524174
C86	C	0.394695	-0.496562	1.594873
C87	C	0.461839	-0.108539	1.524178
C88	C	0.394693	-0.092716	1.594879
C89	C	0.659694	-0.456634	1.617350
C90	C	0.659697	-0.558951	1.719672
C91	C	0.917573	-0.274830	0.985447
C92	C	0.980658	-0.289719	0.919027
C93	C	1.050844	-0.247378	0.903999
C94	C	1.057944	-0.190154	0.955405
C95	C	0.994860	-0.175273	1.021830
C96	C	0.994846	0.158889	1.021846
C97	C	1.057943	0.240162	0.955433
C98	C	1.050864	0.348783	0.904018
C99	C	0.980683	0.376132	0.919029
C100	C	0.917587	0.294860	0.985447
C101	C	0.324521	-0.469213	1.609889
C102	C	0.261425	-0.550486	1.676332
C103	C	0.268504	-0.659107	1.727752
C104	C	0.338685	-0.686456	1.712735
C105	C	0.401780	-0.605184	1.646300
C106	C	0.401794	-0.035504	1.646286
C107	C	0.338709	-0.020642	1.712733
C108	C	0.268523	-0.062986	1.727765
C109	C	0.261423	-0.120205	1.676354
C110	C	0.324508	-0.135073	1.609915
C111	C	0.698304	0.346477	0.882171
C112	C	0.698295	0.442612	0.786030
C113	C	0.621018	0.343035	0.749655
C114	C	0.621023	0.246903	0.845798
C115	C	0.742923	0.403967	0.903169
C116	C	0.742914	0.500103	0.807028
H117	H	0.318723	-0.181655	1.368920
H118	H	1.000652	-0.128672	1.063670
H119	H	0.860451	0.317143	0.997651
C120	C	0.499281	0.315657	1.551039
N121	N	0.441158	0.338226	1.566608
H122	H	0.729757	0.347907	1.135238
C123	C	0.740876	0.550288	1.106818
N124	N	0.772960	0.631336	1.024368
H125	H	0.517375	0.151259	1.554762
H126	H	0.974863	-0.336314	0.877177
C127	C	0.972908	0.495623	0.862454
N128	N	0.967055	0.585626	0.819832
C129	C	1.120233	-0.263749	0.830916
N130	N	1.172493	-0.276078	0.775865
H131	H	0.860430	-0.309325	0.997684
H132	H	0.605890	0.131697	1.586419
C133	C	0.609989	0.277811	1.616666
N134	N	0.635252	0.271876	1.681662
H135	H	0.758815	-0.027522	0.798811
H136	H	0.758825	-0.027414	0.624313
C137	C	0.478993	0.011079	1.629773
N138	N	0.537138	0.046162	1.617347
H139	H	0.344440	-0.774904	1.754609
H140	H	-0.025095	-0.336147	1.677963
H141	H	0.458917	-0.627465	1.634075
C142	C	0.316683	-0.197997	1.553357
N143	N	0.310785	-0.245392	1.510758
C144	C	0.709410	0.411900	1.008975
N145	N	0.684172	0.417875	1.088667
C146	C	0.703157	0.578272	0.837104
N147	N	0.673214	0.637150	0.859755
C148	C	0.549292	-0.419529	1.076350
N149	N	0.554825	-0.504395	1.143028
H150	H	0.491769	-0.278243	1.023863
H151	H	0.552983	-0.385850	0.896793
C152	C	1.135156	-0.143576	0.938853
N153	N	1.193314	-0.108487	0.926377
C154	C	0.469175	-0.278422	0.871953
N155	N	0.414357	-0.257045	0.857125
C156	C	0.822715	0.551814	0.722999
N157	N	0.882819	0.590760	0.659708
H158	H	1.000624	0.070450	1.063700
C159	C	1.120278	0.438173	0.830949
N160	N	1.172564	0.505497	0.775910
C161	C	1.135135	0.210055	0.938924
N162	N	1.193275	0.187376	0.926488
C163	C	0.184232	-0.520379	1.692834
N164	N	0.126093	-0.497700	1.705261
H165	H	0.217162	-0.050872	1.781866
H166	H	0.318744	-0.380774	1.568022
C167	C	0.184211	-0.166759	1.692882
N168	N	0.126053	-0.201813	1.705322
C169	C	0.199089	-0.748497	1.800819
N170	N	0.146804	-0.815821	1.855847
C171	C	0.346536	0.042313	1.769264
N172	N	0.352433	0.089733	1.811839
H173	H	0.589555	0.167235	0.870130
H174	H	0.800043	0.381786	0.893937
C175	C	-0.159601	-0.321307	1.648226
N176	N	-0.217747	-0.356385	1.718404
C177	C	0.106149	-0.325038	1.655692
N178	N	0.100272	-0.372423	1.750489
C179	C	0.002664	-0.112292	1.230110
N180	N	0.008538	-0.064897	1.135314
H181	H	0.235512	-0.231887	1.469331
H182	H	0.344457	0.025848	0.953767
C183	C	0.578511	0.341149	0.676765
N184	N	0.546495	0.339726	0.621864
C185	C	0.213211	0.014719	0.976041
N186	N	0.219085	0.062114	0.881246
H187	H	0.458923	-0.001080	1.007684
H188	H	0.083862	-0.078448	1.162389
