data_functionalizedCrystal
_audit_creation_method	'MofGen! by Chris Wilmer'
_symmetry_space_group_name_H-M	'P1'
_symmetry_Int_Tables_number	1
_symmetry_cell_setting	triclinic
loop_
_symmetry_equiv_pos_as_xyz
  x,y,z
_cell_length_a	17.077404
_cell_length_b	19.076808
_cell_length_c	17.077396
_cell_angle_alpha	92.329364
_cell_angle_beta	90.019501
_cell_angle_gamma	92.323651
loop_
_atom_site_label
_atom_site_type_symbol
_atom_site_fract_x
_atom_site_fract_y
_atom_site_fract_z
Zn1	Zn	1.187485	-0.280213	0.431271
Zn2	Zn	1.182112	-0.397923	0.294725
Zn3	Zn	1.056216	-0.280237	0.300018
Zn4	Zn	1.050907	-0.397881	0.425950
O5	O	1.119180	-0.339064	0.362991
O6	O	1.296619	-0.295834	0.413170
O7	O	1.165385	-0.382340	0.185579
O8	O	1.078100	-0.181738	0.321872
O9	O	1.292672	-0.382316	0.312849
O10	O	1.174543	-0.181719	0.418303
O11	O	1.072890	-0.295877	0.189468
O12	O	0.945665	-0.295836	0.316712
O13	O	1.069051	-0.382245	0.536504
O14	O	0.941765	-0.382268	0.409233
O15	O	1.169395	-0.295794	0.540414
O16	O	1.160237	-0.496414	0.307689
O17	O	1.063841	-0.496383	0.404100
C18	C	0.915233	-0.339051	0.362970
C19	C	0.827982	-0.339062	0.362979
C20	C	1.110901	-0.521938	0.354760
C21	C	1.107431	-0.600172	0.351265
C22	C	0.784979	-0.384136	0.411071
C23	C	0.702998	-0.384137	0.411084
C24	C	0.664023	-0.339068	0.362999
C25	C	0.707032	-0.293990	0.314905
C26	C	0.789012	-0.293986	0.314897
C27	C	0.536162	-0.294004	0.314923
C28	C	0.454177	-0.294009	0.314929
C29	C	0.450148	-0.384156	0.411110
C30	C	0.532128	-0.384151	0.411102
C31	C	0.575132	-0.339074	0.363006
C32	C	1.155976	-0.636857	0.399870
C33	C	1.152713	-0.710366	0.396588
C34	C	1.100908	-0.747190	0.344695
C35	C	1.052357	-0.710500	0.296088
C36	C	1.055617	-0.636992	0.299375
C37	C	1.085773	-0.967043	0.329480
C38	C	1.082519	-1.040556	0.326195
C39	C	1.182873	-1.040418	0.426696
C40	C	1.186132	-0.966908	0.429975
C41	C	1.137579	-0.930225	0.381371
N42	N	1.097572	-0.822328	0.341337
N43	N	1.140911	-0.855088	0.384733
C44	C	1.323924	-0.339077	0.363013
C45	C	1.411173	-0.339083	0.363022
C46	C	1.119230	-0.339012	0.567738
C47	C	1.119251	-0.338990	0.654989
C48	C	1.127513	-0.155475	0.371271
C49	C	1.131064	-0.077241	0.374800
C50	C	1.119178	-0.339065	0.159043
C51	C	1.119318	-0.338888	0.071802
C52	C	1.171502	-0.293971	0.698016
C53	C	1.171513	-0.293948	0.779997
C54	C	1.119275	-0.338947	0.818950
C55	C	1.067019	-0.383967	0.775917
C56	C	1.067005	-0.383987	0.693937
C57	C	1.067052	-0.383925	0.946789
C58	C	1.067067	-0.383907	1.028774
C59	C	1.171560	-0.293886	1.032849
C60	C	1.171546	-0.293905	0.950870
C61	C	1.119290	-0.338927	0.907842
H62	H	0.816706	-0.420838	0.450225
C63	C	1.002817	-0.597121	0.246736
C64	C	0.954337	-0.554950	0.293027
C65	C	0.905675	-0.518219	0.244565
H66	H	1.034046	-0.568383	0.213831
H67	H	0.971451	-0.629555	0.215373
H68	H	0.985699	-0.522520	0.324376
H69	H	0.923091	-0.583671	0.325930
H70	H	0.874310	-0.550653	0.213202
H71	H	0.936911	-0.489484	0.211663
H72	H	0.872771	-0.489606	0.275966
H73	H	1.222401	-1.070293	0.466267
H74	H	1.024488	-0.420576	0.911759
C75	C	0.582952	-0.245180	0.262653
C76	C	0.628207	-0.284979	0.210489
C77	C	0.671328	-0.240032	0.162332
H78	H	0.548093	-0.218324	0.233938
H79	H	0.616377	-0.214556	0.294089
H80	H	0.594785	-0.315592	0.179057
H81	H	0.663080	-0.311834	0.239183
H82	H	0.704754	-0.209408	0.193768
H83	H	0.636464	-0.213178	0.133622
H84	H	0.702044	-0.267029	0.126938
C85	C	1.010406	-0.432907	0.647111
C86	C	1.052801	-0.478019	0.598003
C87	C	1.000687	-0.523086	0.554847
H88	H	0.979275	-0.459776	0.681951
H89	H	0.977434	-0.406005	0.616293
H90	H	1.085760	-0.504919	0.628819
H91	H	1.083930	-0.451170	0.563147
H92	H	0.967715	-0.496184	0.524029
H93	H	0.969558	-0.549950	0.589693
H94	H	1.029444	-0.553696	0.521517
C95	C	0.995981	-0.750441	0.239846
C96	C	0.919094	-0.732627	0.257678
C97	C	0.867140	-0.769413	0.205889
H98	H	1.007927	-0.738445	0.187623
H99	H	1.000940	-0.799481	0.244854
H100	H	0.914138	-0.683598	0.252663
H101	H	0.907123	-0.744625	0.309892
H102	H	0.872099	-0.818452	0.210897
H103	H	0.879093	-0.757413	0.153669
H104	H	0.814965	-0.757336	0.217985
C105	C	1.026185	-1.080411	0.269831
C106	C	0.984346	-1.032553	0.227984
C107	C	0.932441	-1.069242	0.176065
H108	H	1.054873	-1.109084	0.234303
H109	H	0.990658	-1.109083	0.298533
H110	H	1.019868	-1.003894	0.199284
H111	H	0.955642	-1.003878	0.263492
H112	H	0.896914	-1.097913	0.204767
H113	H	0.961135	-1.097914	0.140542
H114	H	0.904042	-1.036776	0.147671
H115	H	1.046241	-0.937181	0.289903
C116	C	0.411777	-0.245008	0.262875
C117	C	0.366771	-0.199969	0.309464
C118	C	0.327701	-0.154814	0.261546
H119	H	0.449054	-0.218091	0.234233
H120	H	0.378513	-0.271850	0.227414
H121	H	0.400033	-0.173130	0.344911
H122	H	0.329481	-0.226867	0.338105
H123	H	0.294437	-0.181656	0.226085
H124	H	0.364984	-0.127901	0.232906
H125	H	0.297155	-0.124254	0.293148
H126	H	1.214042	-0.257330	0.666307
H127	H	0.667988	-0.420841	0.450245
C128	C	1.228334	-0.245046	0.826572
C129	C	1.274095	-0.205660	0.774912
C130	C	1.326456	-0.160609	0.817788
H131	H	1.199797	-0.214302	0.859936
H132	H	1.261359	-0.271953	0.857329
H133	H	1.241074	-0.178755	0.744170
H134	H	1.302648	-0.236385	0.741548
H135	H	1.359482	-0.187516	0.848544
H136	H	1.297914	-0.129870	0.851150
H137	H	1.357517	-0.133884	0.782743
C138	C	0.574303	-0.433110	0.463390
C139	C	0.519099	-0.472575	0.505528
C140	C	0.557922	-0.517676	0.553713
H141	H	0.604885	-0.463803	0.432007
H142	H	0.607497	-0.406237	0.498889
H143	H	0.485918	-0.499447	0.470034
H144	H	0.488514	-0.441901	0.536927
H145	H	0.591116	-0.490802	0.589212
H146	H	0.588503	-0.548364	0.522324
H147	H	0.520472	-0.544453	0.582315
C148	C	1.010429	-0.432911	0.818244
C149	C	1.052836	-0.478030	0.863264
C150	C	1.000733	-0.523134	0.902256
H151	H	0.977437	-0.406058	0.851495
H152	H	0.979318	-0.459766	0.780899
H153	H	1.083933	-0.451178	0.900605
H154	H	1.085825	-0.504899	0.830032
H155	H	0.969622	-0.549989	0.864911
H156	H	0.967743	-0.496275	0.935503
H157	H	1.029498	-0.553757	0.932801
H158	H	0.415131	-0.420857	0.450273
H159	H	1.214086	-0.257267	0.919157
C160	C	0.835661	-0.245140	0.262543
C161	C	0.815013	-0.260393	0.184163
C162	C	0.857978	-0.215415	0.135912
H163	H	0.824406	-0.197836	0.276141
H164	H	0.890073	-0.251598	0.269373
H165	H	0.760613	-0.253928	0.177336
H166	H	0.826270	-0.307689	0.170540
H167	H	0.912390	-0.221873	0.142742
H168	H	0.846720	-0.168113	0.149518
H169	H	0.843979	-0.225762	0.082726
C170	C	1.212245	-0.597007	0.456295
C171	C	1.254042	-0.644872	0.498175
C172	C	1.305874	-0.608190	0.550172
H173	H	1.247808	-0.568318	0.427673
H174	H	1.183482	-0.568352	0.491792
H175	H	1.282803	-0.673515	0.462682
H176	H	1.218499	-0.673562	0.526812
H177	H	1.277111	-0.579535	0.585669
H178	H	1.341433	-0.579503	0.521544
H179	H	1.334235	-0.640661	0.578598
H180	H	0.675292	-0.257291	0.275757
C181	C	1.205296	-0.750226	0.449453
C182	C	1.158961	-0.792418	0.497863
C183	C	1.207377	-0.829137	0.546583
H184	H	1.238257	-0.778950	0.418263
H185	H	1.236602	-0.717784	0.480866
H186	H	1.127668	-0.824856	0.466453
H187	H	1.126001	-0.763712	0.529070
H188	H	1.238683	-0.796695	0.577996
H189	H	1.240335	-0.857856	0.515387
H190	H	1.175945	-0.857763	0.579440
C191	C	1.228253	-0.244884	1.079461
C192	C	1.214333	-0.175249	1.062634
C193	C	1.266551	-0.130093	1.105551
H194	H	1.220837	-0.251213	1.133882
H195	H	1.280539	-0.255153	1.065555
H196	H	1.162059	-0.164984	1.076545
H197	H	1.221755	-0.168898	1.008221
H198	H	1.318837	-0.140362	1.091644
H199	H	1.259131	-0.136429	1.159969
H200	H	1.257118	-0.082842	1.094134
H201	H	1.228316	-0.936928	0.472230
C202	C	1.010389	-0.432868	1.070969
C203	C	1.024286	-0.502520	1.047881
C204	C	0.972083	-0.547639	1.086729
H205	H	1.017835	-0.426500	1.125962
H206	H	0.958097	-0.422602	1.057976
H207	H	1.076565	-0.512782	1.060879
H208	H	1.016835	-0.508910	0.992895
H209	H	0.919792	-0.537373	1.073737
H210	H	0.979533	-0.541265	1.141720
H211	H	0.981500	-0.594902	1.071065
