data_functionalizedCrystal
_audit_creation_method	'MofGen! by Chris Wilmer'
_symmetry_space_group_name_H-M	'P1'
_symmetry_Int_Tables_number	1
_symmetry_cell_setting	triclinic
loop_
_symmetry_equiv_pos_as_xyz
  x,y,z
_cell_length_a	8.497374
_cell_length_b	12.759401
_cell_length_c	12.759400
_cell_angle_alpha	89.985155
_cell_angle_beta	89.991978
_cell_angle_gamma	90.000368
loop_
_atom_site_label
_atom_site_type_symbol
_atom_site_fract_x
_atom_site_fract_y
_atom_site_fract_z
Zn1	Zn	0.891904	1.606068	0.418444
Zn2	Zn	0.628108	1.606017	0.594091
Zn3	Zn	0.628137	1.430425	0.418427
Zn4	Zn	0.891846	1.430358	0.594082
O5	O	0.759999	1.518217	0.506261
O6	O	0.856923	1.753082	0.441755
O7	O	0.407350	1.582732	0.570785
O8	O	0.663163	1.453773	0.271408
O9	O	0.663113	1.753045	0.570802
O10	O	0.856951	1.582817	0.271421
O11	O	0.407371	1.453725	0.441725
O12	O	0.663107	1.283395	0.441717
O13	O	1.112616	1.453659	0.570787
O14	O	0.856853	1.283346	0.570770
O15	O	1.112658	1.582752	0.441746
O16	O	0.663058	1.582667	0.741110
O17	O	0.856824	1.453611	0.741104
C18	C	0.759978	1.245250	0.506241
C19	C	0.760006	1.128473	0.506258
C20	C	0.759966	1.518155	0.779228
C21	C	0.760005	1.518224	0.896005
C22	C	0.860722	1.073613	0.573564
C23	C	0.860739	0.963889	0.573577
C24	C	0.659310	0.963895	0.438977
C25	C	0.659302	1.073617	0.438959
C26	C	0.977011	1.073609	0.651278
C27	C	0.977028	0.963885	0.651291
C28	C	1.171479	1.518209	0.506262
C29	C	1.350123	1.518212	0.506274
C30	C	0.760021	1.792250	0.506281
C31	C	0.760031	1.909027	0.506290
C32	C	0.760066	1.518308	0.232228
C33	C	0.760095	1.518347	0.115451
C34	C	0.659222	1.585498	0.950835
C35	C	0.659270	1.585563	1.060559
C36	C	0.860889	1.451070	1.060613
C37	C	0.860847	1.451012	0.950891
C38	C	0.542814	1.663143	0.950805
C39	C	0.542862	1.663208	1.060529
H40	H	0.577299	1.118280	0.384145
C41	C	0.377796	1.633878	1.100839
H42	H	0.377833	1.633935	1.175297
H43	H	0.350407	1.566078	1.076096
H44	H	0.303318	1.683545	1.076005
C45	C	0.385971	1.623831	0.904889
H46	H	0.391295	1.625122	0.830526
H47	H	0.302791	1.667946	0.927863
H48	H	0.367083	1.554154	0.927939
C49	C	0.932527	0.923629	0.761164
H50	H	0.932557	0.849172	0.761170
H51	H	0.830668	0.948429	0.779226
H52	H	1.006930	0.948441	0.810878
H53	H	1.093178	0.929862	0.622279
C54	C	0.971799	1.377137	1.120990
H55	H	0.957386	1.386803	1.194190
H56	H	1.077807	1.392442	1.102966
H57	H	0.948602	1.306546	1.103073
H58	H	0.933039	1.107632	0.728518
H59	H	0.577322	0.919217	0.384183
H60	H	1.099249	1.103391	0.629612
C61	C	0.971712	1.377013	0.890580
H62	H	1.031760	1.336987	0.938985
H63	H	1.040479	1.417141	0.847725
H64	H	0.911281	1.331240	0.847834
C65	C	0.587156	1.773012	0.910474
H66	H	0.605436	1.818236	0.968344
H67	H	0.503558	1.800075	0.869113
H68	H	0.679859	1.768505	0.869094
C69	C	0.602118	1.767619	1.106411
H70	H	0.628463	1.814075	1.050916
H71	H	0.692600	1.755112	1.148300
H72	H	0.521826	1.798094	1.148310
