data_functionalizedCrystal
_audit_creation_method	'MofGen! by Chris Wilmer'
_symmetry_space_group_name_H-M	'P1'
_symmetry_Int_Tables_number	1
_symmetry_cell_setting	triclinic
loop_
_symmetry_equiv_pos_as_xyz
  x,y,z
_cell_length_a	16.109302
_cell_length_b	8.559649
_cell_length_c	15.186229
_cell_angle_alpha	89.998840
_cell_angle_beta	90.007553
_cell_angle_gamma	76.620223
loop_
_atom_site_label
_atom_site_type_symbol
_atom_site_fract_x
_atom_site_fract_y
_atom_site_fract_z
O1	O	1.090048	0.205386	0.073263
O2	O	0.846358	0.230945	0.073256
O3	O	0.989673	-0.014448	0.073259
O4	O	0.946734	0.450779	0.073260
O5	O	0.989657	-0.014434	-0.073198
O6	O	0.846342	0.230959	-0.073201
O7	O	1.090033	0.205400	-0.073194
Zn8	Zn	0.968185	0.218182	-0.096451
Zn9	Zn	0.968206	0.218163	0.096513
O10	O	0.946718	0.450792	-0.073197
C11	C	0.815441	0.229917	0.000026
C12	C	0.723344	0.226812	0.000024
C13	C	0.511452	0.219641	-0.079801
C14	C	0.424919	0.216707	-0.079798
C15	C	0.424946	0.216700	0.079877
C16	C	0.511479	0.219622	0.079873
C17	C	0.554728	0.221101	0.000031
C18	C	0.381662	0.215244	0.000038
C19	C	0.287839	0.212063	0.000042
C20	C	0.648558	0.224280	0.000027
C21	C	0.992919	-0.073972	0.000032
C22	C	1.002605	-0.251357	0.000038
C23	C	1.120949	0.206428	0.000038
C24	C	1.213047	0.209533	0.000046
C25	C	0.943472	0.510317	0.000031
C26	C	0.933786	0.687702	0.000032
N27	N	0.968177	0.218193	-0.228144
C28	C	1.012426	0.315113	-0.453865
C29	C	1.012436	0.315101	-0.546054
C30	C	0.923971	0.121208	-0.546067
C31	C	0.923967	0.121212	-0.453879
C32	C	0.968192	0.218174	-0.407780
C33	C	0.968206	0.218158	-0.592158
C34	C	0.968216	0.218145	-0.692114
C35	C	0.968183	0.218185	-0.307818
N36	N	0.968221	0.218139	0.228206
H37	H	0.546663	0.220845	-0.144814
Cl38	Cl	0.565890	0.221445	0.180243
H39	H	1.048456	0.394037	-0.583572
Cl40	Cl	0.868369	-0.000666	-0.604026
Cl41	Cl	1.068031	0.436993	-0.395915
Cl42	Cl	0.868352	-0.000661	-0.395940
Cl43	Cl	1.105020	-0.380326	0.000029
Cl44	Cl	0.831376	-0.183336	0.000027
Cl45	Cl	0.370574	0.214802	0.180244
H46	H	0.389686	0.215518	-0.144806
