data_functionalizedCrystal
_audit_creation_method	'MofGen! by Chris Wilmer'
_symmetry_space_group_name_H-M	'P1'
_symmetry_Int_Tables_number	1
_symmetry_cell_setting	triclinic
loop_
_symmetry_equiv_pos_as_xyz
  x,y,z
_cell_length_a	19.188929
_cell_length_b	10.654562
_cell_length_c	18.266242
_cell_angle_alpha	89.988249
_cell_angle_beta	90.026921
_cell_angle_gamma	96.182558
loop_
_atom_site_label
_atom_site_type_symbol
_atom_site_fract_x
_atom_site_fract_y
_atom_site_fract_z
O1	O	-0.098104	1.665764	-0.060968
O2	O	-0.107437	1.300090	-0.060963
O3	O	-0.001184	1.493480	-0.060920
O4	O	-0.204357	1.472375	-0.061011
O5	O	-0.001181	1.493447	0.060842
O6	O	-0.107434	1.300057	0.060799
O7	O	-0.098101	1.665731	0.060794
Zn8	Zn	-0.102767	1.482889	0.080129
Zn9	Zn	-0.102771	1.482932	-0.080298
O10	O	-0.204354	1.472342	0.060751
C11	C	-0.106749	1.253291	-0.000080
C12	C	-0.104693	1.113892	-0.000076
C13	C	-0.103732	1.048363	0.066291
C14	C	-0.101806	0.917382	0.066280
C15	C	-0.101804	0.917468	-0.066472
C16	C	-0.103725	1.048448	-0.066460
C17	C	-0.104700	1.113807	0.132675
C18	C	-0.103740	1.048278	0.199047
C19	C	-0.101813	0.917297	0.199036
C20	C	-0.100847	0.851844	0.132652
C21	C	-0.230371	1.473042	-0.000141
C22	C	-0.307889	1.475093	-0.000176
C23	C	-0.352068	1.361619	-0.000160
C24	C	-0.424904	1.363546	-0.000143
C25	C	-0.453559	1.478955	-0.000129
C26	C	-0.409370	1.592444	-0.000149
C27	C	-0.336535	1.590514	-0.000173
N28	N	-0.562105	1.567159	0.041355
N29	N	-0.631296	1.568985	0.041379
C30	C	-0.673005	1.484779	-0.000058
N31	N	-0.642912	1.398658	-0.041511
N32	N	-0.573715	1.396828	-0.041532
C33	C	-0.532535	1.481061	-0.000103
C34	C	-0.796163	1.373386	-0.000025
C35	C	-0.869000	1.375319	-0.000013
C36	C	-0.853464	1.604220	-0.000011
C37	C	-0.780628	1.602284	-0.000031
C38	C	-0.751982	1.486864	-0.000034
C39	C	0.024833	1.492780	-0.000029
C40	C	0.102351	1.490728	0.000001
C41	C	-0.098790	1.712531	-0.000090
C42	C	-0.100845	1.851930	-0.000100
N43	N	-0.102764	1.482869	0.189616
N44	N	-0.102769	1.482963	-0.189785
C45	C	-0.145508	1.558786	0.227897
C46	C	-0.145506	1.558807	0.304542
C47	C	-0.102768	1.482887	0.342903
C48	C	-0.060015	1.406965	0.304612
C49	C	-0.060013	1.406956	0.227968
N50	N	-0.100326	1.372907	0.463259
N51	N	-0.100332	1.372919	0.536067
C52	C	-0.102771	1.482912	0.573825
N53	N	-0.105217	1.592894	0.536024
N54	N	-0.105215	1.592880	0.463210
C55	C	-0.102765	1.482889	0.426010
C56	C	-0.145515	1.558858	0.695214
C57	C	-0.145508	1.558882	0.771860
C58	C	-0.060022	1.407029	0.771928
C59	C	-0.060025	1.407017	0.695283
C60	C	-0.102775	1.482929	0.656931
H61	H	-0.328749	1.267635	-0.000169
F62	F	-0.916019	1.254536	-0.000004
H63	H	-0.432705	1.686411	-0.000150
H64	H	-0.876793	1.698188	-0.000053
F65	F	-0.471932	1.242766	-0.000124
H66	H	-0.101026	0.863948	0.253080
H67	H	-0.744656	1.694688	-0.000039
H68	H	-0.025217	1.345152	0.335850
F69	F	-0.191017	1.639560	0.187084
H70	H	-0.180313	1.620711	0.803028
H71	H	-0.772838	1.279404	-0.000023
H72	H	-0.106270	1.220458	0.132691
F73	F	-0.014541	1.326194	0.654539
H74	H	-0.180315	1.620628	0.335717
H75	H	-0.300564	1.682921	-0.000187
H76	H	-0.025205	1.345133	0.196800
H77	H	-0.180324	1.620672	0.663986
F78	F	-0.014530	1.326241	0.812749
H79	H	-0.104521	1.101580	0.253095
H80	H	-0.099277	0.745190	0.132648
H81	H	-0.101019	0.864165	-0.120518
H82	H	-0.104511	1.101802	-0.120502
