data_functionalizedCrystal
_audit_creation_method	'MofGen! by Chris Wilmer'
_symmetry_space_group_name_H-M	'P1'
_symmetry_Int_Tables_number	1
_symmetry_cell_setting	triclinic
loop_
_symmetry_equiv_pos_as_xyz
  x,y,z
_cell_length_a	6.817900
_cell_length_b	16.255699
_cell_length_c	17.110486
_cell_angle_alpha	96.302418
_cell_angle_beta	99.060439
_cell_angle_gamma	103.489404
loop_
_atom_site_label
_atom_site_type_symbol
_atom_site_fract_x
_atom_site_fract_y
_atom_site_fract_z
V1	V	-3.976888	-0.116837	-0.246982
O2	O	-3.965374	0.005874	-0.242010
O3	O	-3.928724	-0.231918	-0.245553
O4	O	-3.906746	-0.114926	-0.354581
O5	O	-3.987504	-0.111928	-0.132227
V6	V	-4.463303	-0.102173	-0.233225
O7	O	-4.231804	-0.149004	-0.277159
O8	O	-4.658585	-0.070006	-0.203048
O9	O	-4.288260	0.012908	-0.234654
O10	O	-4.592214	-0.224884	-0.238197
O11	O	-4.570084	-0.107082	-0.347980
O12	O	-4.310238	-0.104084	-0.125626
C13	C	-3.774486	-0.259976	-0.241723
C14	C	-3.816248	-0.354055	-0.241272
C15	C	-3.727872	-0.576887	-0.236099
C16	C	-3.824390	-0.624571	-0.172334
C17	C	-3.892807	-0.526310	-0.240484
C18	C	-3.870725	-0.646259	-0.303452
C19	C	-3.966747	-0.692700	-0.239725
C20	C	-3.988757	-0.572745	-0.176671
C21	C	-4.035083	-0.594439	-0.307847
C22	C	-4.131723	-0.642098	-0.244069
C23	C	-3.850207	-0.430456	-0.240920
C24	C	-4.009360	-0.788551	-0.239284
C25	C	-3.746450	-0.110740	-0.380799
C26	C	-3.770386	-0.109939	-0.468763
C27	C	-3.962927	-0.113786	-0.514130
C28	C	-3.985406	-0.113033	-0.596781
C29	C	-3.815344	-0.108439	-0.634066
C30	C	-3.622786	-0.104589	-0.588693
C31	C	-3.600307	-0.105336	-0.506042
C32	C	-3.874143	-0.105966	-0.883415
C33	C	-3.896639	-0.105222	-0.966072
C34	C	-4.259257	-0.113665	-0.974155
C35	C	-4.236763	-0.114417	-0.891503
C36	C	-4.044207	-0.110562	-0.846137
C37	C	-3.838317	-0.107672	-0.718549
C38	C	-4.021232	-0.111324	-0.761654
C39	C	-4.105841	0.040961	-0.238481
C40	C	-4.043316	0.135039	-0.238938
C41	C	-4.133878	-0.108273	-0.099404
C42	C	-4.089180	-0.109070	-0.011439
H43	H	-4.038212	-0.540833	-0.123036
H44	H	-4.302881	-0.670427	-0.247419
O45	O	-4.140791	-0.578256	-0.376262
C46	C	-4.253270	-0.656250	-0.424181
H47	H	-4.179557	-0.709640	-0.407542
H48	H	-4.253036	-0.650464	-0.489967
H49	H	-4.418164	-0.671712	-0.413785
O50	O	-3.523728	-0.542760	-0.231887
C51	C	-3.446361	-0.480519	-0.162901
H52	H	-3.577327	-0.455641	-0.143763
H53	H	-3.326141	-0.425223	-0.176714
H54	H	-3.373053	-0.510363	-0.112444
O55	O	-3.811331	-0.684327	-0.367335
C56	C	-3.598870	-0.650914	-0.362846
H57	H	-3.546984	-0.585012	-0.324469
H58	H	-3.566305	-0.645146	-0.425629
H59	H	-3.511520	-0.695563	-0.334811
H60	H	-4.101417	-0.117533	-0.483780
O61	O	-3.687167	-0.102171	-0.839272
C62	C	-3.627189	-0.028783	-0.780256
H63	H	-3.711411	0.020595	-0.799820
H64	H	-3.454440	-0.000445	-0.772025
H65	H	-3.667213	-0.047156	-0.721203
O66	O	-4.172598	-0.116802	-0.640735
C67	C	-4.317865	-0.120994	-0.590101
H68	H	-4.261869	-0.147218	-0.533990
H69	H	-4.471364	-0.164987	-0.622923
H70	H	-4.337832	-0.054169	-0.572445
H71	H	-4.416030	-0.116802	-1.011101
H72	H	-3.758142	-0.101478	-0.996426
O73	O	-4.402175	-0.118992	-0.855398
C74	C	-4.553955	-0.195009	-0.888942
H75	H	-4.530719	-0.217812	-0.951434
H76	H	-4.712487	-0.182286	-0.893022
H77	H	-4.541394	-0.246399	-0.849496
O78	O	-3.718349	-0.640846	-0.104032
C79	C	-3.506067	-0.607486	-0.100026
H80	H	-3.474730	-0.601136	-0.162885
H81	H	-3.418508	-0.652491	-0.072800
H82	H	-3.453307	-0.541859	-0.061156
O83	O	-3.457683	-0.100013	-0.624983
C84	C	-3.423799	-0.025696	-0.661636
H85	H	-3.572578	-0.004703	-0.673895
H86	H	-3.370977	-0.039945	-0.720497
H87	H	-3.300446	0.027654	-0.620158
O88	O	-3.413432	-0.101724	-0.461906
C89	C	-3.425581	-0.175538	-0.424772
H90	H	-3.591634	-0.203856	-0.419531
H91	H	-3.324933	-0.157721	-0.362490
H92	H	-3.370000	-0.224722	-0.462264
O93	O	-4.186440	-0.115938	-0.725426
C94	C	-4.220235	-0.190235	-0.688739
H95	H	-4.149289	-0.239069	-0.718974
H96	H	-4.392417	-0.218694	-0.695029
H97	H	-4.146331	-0.173019	-0.622551
O98	O	-3.673027	-0.103324	-0.754694
C99	C	-3.593278	-0.174575	-0.742961
H100	H	-3.640507	-0.200866	-0.687734
H101	H	-3.418549	-0.154183	-0.733986
H102	H	-3.656288	-0.226290	-0.797672
