data_functionalizedCrystal
_audit_creation_method	'MofGen! by Chris Wilmer'
_symmetry_space_group_name_H-M	'P1'
_symmetry_Int_Tables_number	1
_symmetry_cell_setting	triclinic
loop_
_symmetry_equiv_pos_as_xyz
  x,y,z
_cell_length_a	14.971486
_cell_length_b	16.109301
_cell_length_c	13.448316
_cell_angle_alpha	89.991973
_cell_angle_beta	89.998199
_cell_angle_gamma	83.537805
loop_
_atom_site_label
_atom_site_type_symbol
_atom_site_fract_x
_atom_site_fract_y
_atom_site_fract_z
O1	O	1.186791	0.108348	-0.082581
O2	O	1.686791	0.608348	0.417419
O3	O	0.926372	0.121323	-0.082608
O4	O	1.426372	0.621323	0.417392
O5	O	1.063736	-0.006187	-0.082584
O6	O	1.563736	0.493813	0.417416
O7	O	1.049428	0.235857	-0.082605
O8	O	1.549428	0.735857	0.417395
O9	O	1.063718	-0.006195	0.082800
O10	O	1.563718	0.493805	0.582800
O11	O	0.926355	0.121315	0.082776
O12	O	1.426355	0.621315	0.582776
O13	O	1.186774	0.108340	0.082803
O14	O	1.686774	0.608340	0.582803
Cu15	Cu	1.056563	0.114827	0.097890
Cu16	Cu	1.556563	0.614827	0.597890
Cu17	Cu	1.056583	0.114836	-0.097695
Cu18	Cu	1.556583	0.614836	0.402305
O19	O	1.049410	0.235850	0.082778
O20	O	1.549410	0.735850	0.582778
C21	C	0.893040	0.120739	0.000080
C22	C	1.393040	0.620739	0.500080
C23	C	0.793745	0.119000	0.000070
C24	C	1.293745	0.619000	0.500070
C25	C	0.736412	0.193908	0.000065
C26	C	1.236412	0.693908	0.500065
C27	C	0.643115	0.192269	0.000080
C28	C	1.143115	0.692269	0.500080
C29	C	0.607153	0.115721	0.000093
C30	C	1.107153	0.615721	0.500093
C31	C	0.664494	0.040807	0.000101
C32	C	1.164494	0.540807	0.500101
C33	C	0.757789	0.042447	0.000093
C34	C	1.257789	0.542447	0.500093
C35	C	0.470036	0.037395	0.000115
C36	C	0.970036	0.537395	0.500115
C37	C	0.376734	0.035755	0.000121
C38	C	0.876734	0.535755	0.500121
C39	C	0.355362	0.187217	0.000102
C40	C	0.855362	0.687217	0.500102
C41	C	0.448657	0.188857	0.000094
C42	C	0.948657	0.688857	0.500094
C43	C	0.505991	0.113942	0.000100
C44	C	1.005991	0.613942	0.500100
C45	C	1.063147	-0.037166	0.000109
C46	C	1.563147	0.462834	0.500109
C47	C	1.061410	-0.129464	0.000110
C48	C	1.561410	0.370536	0.500110
C49	C	1.138878	-0.351640	0.000102
C50	C	1.638878	0.148360	0.500102
C51	C	1.137239	-0.438362	0.000094
C52	C	1.637239	0.061638	0.500094
C53	C	0.974262	-0.418691	0.000081
C54	C	1.474262	0.081309	0.500081
C55	C	0.975902	-0.331970	0.000082
C56	C	1.475902	0.168030	0.500082
C57	C	1.058213	-0.298447	0.000098
C58	C	1.558213	0.201553	0.500098
C59	C	1.054933	-0.471890	0.000088
C60	C	1.554933	0.028110	0.500088
C61	C	1.053155	-0.565918	0.000079
C62	C	1.553155	-0.065918	0.500079
C63	C	1.059992	-0.204413	0.000105
C64	C	1.559992	0.295587	0.500105
C65	C	1.220106	0.108924	0.000112
C66	C	1.720106	0.608924	0.500112
C67	C	1.319401	0.110663	0.000116
C68	C	1.819401	0.610663	0.500116
C69	C	1.049999	0.266829	0.000084
C70	C	1.549999	0.766829	0.500084
C71	C	1.051736	0.359127	0.000076
C72	C	1.551736	0.859127	0.500076
N73	N	1.056555	0.114820	0.235454
N74	N	1.556555	0.614820	0.735454
N75	N	1.056598	0.114837	-0.235260
N76	N	1.556598	0.614837	0.264740
C77	C	1.117398	0.058382	0.287506
C78	C	1.617398	0.558382	0.787506
C79	C	1.117404	0.058381	0.391609
C80	C	1.617404	0.558381	0.891609
C81	C	1.056570	0.114823	0.443659
C82	C	1.556570	0.614823	0.943659
C83	C	0.995720	0.171264	0.391601
C84	C	1.495720	0.671264	0.891601
C85	C	0.995711	0.171260	0.287499
C86	C	1.495711	0.671260	0.787499
C87	C	0.995745	0.171269	0.608581
C88	C	1.495745	0.671269	1.108581
C89	C	0.995755	0.171275	0.712689
C90	C	1.495755	0.671275	1.212689
C91	C	1.117438	0.058391	0.712690
C92	C	1.617438	0.558391	1.212690
C93	C	1.117429	0.058387	0.608589
C94	C	1.617429	0.558387	1.108589
C95	C	1.056580	0.114829	0.556538
C96	C	1.556580	0.614829	1.056538
H97	H	0.308675	0.248215	0.000101
H98	H	0.808675	0.748215	0.500101
O99	O	1.215680	-0.489914	0.000146
O100	O	1.715680	0.010086	0.500146
C101	C	1.288676	-0.441726	0.000133
C102	C	1.788676	0.058274	0.500133
H103	H	1.265951	-0.377030	0.031445
H104	H	1.765951	0.122970	0.531445
H105	H	1.345189	-0.473667	0.048153
H106	H	1.845189	0.026333	0.548153
H107	H	1.313914	-0.435514	-0.079207
H108	H	1.813914	0.064486	0.420793
H109	H	1.166940	0.012424	0.245133
H110	H	1.666940	0.512424	0.745133
H111	H	0.804470	-0.018551	0.000097
H112	H	1.304470	0.481449	0.500097
H113	H	0.765684	0.256242	0.000053
H114	H	1.265684	0.756242	0.500053
O115	O	0.894387	-0.451395	0.000119
O116	O	1.394387	0.048605	0.500119
C117	C	0.910234	-0.539344	0.000097
C118	C	1.410234	-0.039344	0.500097
H119	H	0.980040	-0.559644	0.031411
H120	H	1.480040	-0.059644	0.531411
H121	H	0.857566	-0.566025	0.048111
H122	H	1.357566	-0.066025	0.548111
H123	H	0.905909	-0.563480	-0.079245
H124	H	1.405909	-0.063480	0.420755
O125	O	0.897456	-0.280411	0.000122
O126	O	1.397456	0.219589	0.500122
C127	C	0.824455	-0.328593	0.000091
C128	C	1.324455	0.171407	0.500091
H129	H	0.847167	-0.393298	0.031406
H130	H	1.347167	0.106702	0.531406
H131	H	0.767934	-0.296659	0.048101
H132	H	1.267934	0.203341	0.548101
H133	H	0.799232	-0.334783	-0.079254
H134	H	1.299232	0.165217	0.420746
H135	H	1.166947	0.012425	0.433989
H136	H	1.666947	0.512425	0.933989
O137	O	0.629712	-0.033625	0.000155
O138	O	1.129712	0.466375	0.500155
C139	C	0.700325	-0.099390	0.000132
C140	C	1.200325	0.400610	0.500132
H141	H	0.763696	-0.076022	0.031441
H142	H	1.263696	0.423978	0.531441
H143	H	0.680845	-0.152832	0.048151
H144	H	1.180845	0.347168	0.548151
H145	H	0.713535	-0.122494	-0.079210
H146	H	1.213535	0.377506	0.420790
O147	O	0.483705	0.263159	0.000197
O148	O	0.983705	0.763159	0.500197
C149	C	0.537026	0.268649	0.085850
C150	C	1.037026	0.768649	0.585850
H151	H	0.560272	0.203144	0.114427
H152	H	1.060272	0.703144	0.614427
H153	H	0.598115	0.301837	0.066561
H154	H	1.098115	0.801837	0.566561
H155	H	0.495811	0.305405	0.145823
H156	H	0.995811	0.805405	0.645823
H157	H	0.347458	-0.026577	0.000133
H158	H	0.847458	0.473423	0.500133
O159	O	0.525824	-0.035321	-0.000013
O160	O	1.025824	0.464679	0.499987
C161	C	0.580408	-0.038904	-0.085685
C162	C	1.080408	0.461096	0.414315
H163	H	0.585099	0.027096	-0.114245
H164	H	1.085099	0.527096	0.385755
H165	H	0.650540	-0.069802	-0.066427
H166	H	1.150540	0.430198	0.433573
H167	H	0.549725	-0.076904	-0.145658
H168	H	1.049725	0.423096	0.354342
H169	H	1.205901	-0.324348	0.000113
H170	H	1.705901	0.175652	0.500113
H171	H	1.166969	0.012432	0.566210
H172	H	1.666969	0.512432	1.066210
H173	H	0.946192	0.217228	0.566204
H174	H	1.446192	0.717228	1.066204
O175	O	1.176511	0.003446	0.763135
O176	O	1.676511	0.503446	1.263135
C177	C	1.161995	-0.078882	0.737732
C178	C	1.661995	0.421118	1.237732
H179	H	1.127509	-0.078836	0.662155
H180	H	1.627509	0.421164	1.162155
H181	H	1.229243	-0.119716	0.734164
H182	H	1.729243	0.380284	1.234164
H183	H	1.117495	-0.104669	0.796335
H184	H	1.617495	0.395331	1.296335
H185	H	0.946216	0.217235	0.755063
H186	H	1.446216	0.717235	1.255063
O187	O	0.936588	0.225976	0.442271
O188	O	1.436588	0.725976	0.942271
C189	C	0.881419	0.181366	0.502490
C190	C	1.381419	0.681366	1.002490
H191	H	0.917067	0.116362	0.518093
H192	H	1.417067	0.616362	1.018093
H193	H	0.867267	0.216049	0.575689
H194	H	1.367267	0.716049	1.075689
H195	H	0.815313	0.175613	0.462385
H196	H	1.315313	0.675613	0.962385
O197	O	0.936698	0.226200	0.236978
O198	O	1.436698	0.726200	0.736978
C199	C	0.951194	0.308528	0.262410
C200	C	1.451194	0.808528	0.762410
H201	H	1.022806	0.309048	0.291016
H202	H	1.522806	0.809048	0.791016
H203	H	0.940884	0.350235	0.193940
H204	H	1.440884	0.850235	0.693940
H205	H	0.901616	0.332874	0.322838
H206	H	1.401616	0.832874	0.822838
O207	O	0.587549	0.265113	0.000029
O208	O	1.087549	0.765113	0.500029
C209	C	0.639296	0.333027	0.000035
C210	C	1.139296	0.833027	0.500035
H211	H	0.708930	0.311993	-0.031283
H212	H	1.208930	0.811993	0.468717
H213	H	0.604861	0.385519	-0.047984
H214	H	1.104861	0.885519	0.452016
H215	H	0.645939	0.356485	0.079373
H216	H	1.145939	0.856485	0.579373
