data_functionalizedCrystal
_audit_creation_method	'MofGen! by Chris Wilmer'
_symmetry_space_group_name_H-M	'P1'
_symmetry_Int_Tables_number	1
_symmetry_cell_setting	triclinic
loop_
_symmetry_equiv_pos_as_xyz
  x,y,z
_cell_length_a	19.288864
_cell_length_b	14.044190
_cell_length_c	17.766277
_cell_angle_alpha	90.009221
_cell_angle_beta	90.019566
_cell_angle_gamma	88.164010
loop_
_atom_site_label
_atom_site_type_symbol
_atom_site_fract_x
_atom_site_fract_y
_atom_site_fract_z
O1	O	0.928947	0.118213	0.062846
O2	O	1.428947	0.618213	0.562846
O3	O	0.727711	0.134160	0.062796
O4	O	1.227711	0.634160	0.562796
O5	O	0.825306	-0.011786	0.062805
O6	O	1.325306	0.488214	0.562805
O7	O	0.831352	0.264158	0.062836
O8	O	1.331352	0.764158	0.562836
O9	O	0.825294	-0.011789	-0.062383
O10	O	1.325294	0.488211	0.437617
O11	O	0.727699	0.134156	-0.062393
O12	O	1.227699	0.634156	0.437607
O13	O	0.928935	0.118209	-0.062343
O14	O	1.428935	0.618209	0.437657
Cu15	Cu	0.828316	0.126182	-0.073798
Cu16	Cu	1.328316	0.626182	0.426202
Cu17	Cu	0.828330	0.126187	0.074252
Cu18	Cu	1.328330	0.626187	0.574252
O19	O	0.831340	0.264155	-0.062352
O20	O	1.331340	0.764155	0.437648
C21	C	0.701796	0.133645	0.000195
C22	C	1.201796	0.633645	0.500195
C23	C	0.624593	0.132105	0.000175
C24	C	1.124593	0.632105	0.500175
C25	C	0.585401	0.217739	0.000197
C26	C	1.085401	0.717739	0.500197
C27	C	0.512861	0.216292	0.000205
C28	C	1.012861	0.716292	0.500205
C29	C	0.479516	0.129205	0.000207
C30	C	0.979516	0.629205	0.500207
C31	C	0.518718	0.043560	0.000181
C32	C	1.018718	0.543560	0.500181
C33	C	0.591256	0.045010	0.000165
C34	C	1.091256	0.545010	0.500165
C35	C	0.366858	0.060747	0.044083
C36	C	0.866858	0.560747	0.544083
C37	C	0.294321	0.059301	0.044104
C38	C	0.794321	0.559301	0.544104
C39	C	0.255783	0.124731	0.000252
C40	C	0.755783	0.624731	0.500252
C41	C	0.289791	0.191623	-0.043611
C42	C	0.789791	0.691623	0.456389
C43	C	0.362329	0.193072	-0.043627
C44	C	0.862329	0.693072	0.456373
C45	C	0.400861	0.127624	0.000223
C46	C	0.900861	0.627624	0.500223
C47	C	0.137934	0.208802	0.000281
C48	C	0.637934	0.708802	0.500281
C49	C	0.065393	0.207351	0.000284
C50	C	0.565393	0.707351	0.500284
C51	C	0.071251	0.034617	0.000268
C52	C	0.571251	0.534617	0.500268
C53	C	0.143791	0.036071	0.000257
C54	C	0.643791	0.536071	0.500257
C55	C	0.177128	0.123165	0.000267
C56	C	0.677128	0.623165	0.500267
C57	C	0.822655	-0.047091	0.000208
C58	C	1.322655	0.452909	0.500208
C59	C	0.814765	-0.152283	0.000200
C60	C	1.314765	0.347717	0.500200
C61	C	0.856297	-0.402747	0.000240
C62	C	1.356297	0.097253	0.500240
C63	C	0.800352	-0.344879	0.000220
C64	C	1.300352	0.155121	0.500220
C65	C	0.808374	-0.237709	0.000209
C66	C	1.308374	0.262291	0.500209
C67	C	0.848277	-0.509927	0.000251
C68	C	1.348277	-0.009927	0.500251
C69	C	0.954851	0.118724	0.000260
C70	C	1.454851	0.618724	0.500260
C71	C	1.032053	0.120264	0.000285
C72	C	1.532053	0.620264	0.500285
C73	C	0.833991	0.299460	0.000247
C74	C	1.333991	0.799460	0.500247
C75	C	0.841881	0.404652	0.000260
C76	C	1.341881	0.904652	0.500260
N77	N	0.828311	0.126179	-0.177929
N78	N	1.328311	0.626179	0.322071
C79	C	0.871557	0.061576	-0.782213
C80	C	1.371557	0.561576	-0.282213
C81	C	0.871559	0.061578	-0.703411
C82	C	1.371559	0.561578	-0.203411
C83	C	0.828330	0.126178	-0.664017
C84	C	1.328330	0.626178	-0.164017
C85	C	0.785110	0.190797	-0.703432
C86	C	1.285110	0.690797	-0.203432
C87	C	0.785115	0.190799	-0.782232
C88	C	1.285115	0.690799	-0.282232
C89	C	0.765851	0.138825	-0.539200
C90	C	1.265851	0.638825	-0.039200
C91	C	0.765844	0.138816	-0.460402
C92	C	1.265844	0.638816	0.039598
C93	C	0.828315	0.126176	-0.420971
C94	C	1.328315	0.626176	0.079029
C95	C	0.890793	0.113525	-0.460349
C96	C	1.390793	0.613525	0.039651
C97	C	0.890798	0.113528	-0.539150
C98	C	1.390798	0.613528	-0.039150
C99	C	0.828320	0.126183	-0.578572
C100	C	1.328320	0.626183	-0.078572
C101	C	0.871537	0.061568	-0.296120
C102	C	1.371537	0.561568	0.203880
C103	C	0.871539	0.061577	-0.217317
C104	C	1.371539	0.561577	0.282683
C105	C	0.785084	0.190792	-0.217339
C106	C	1.285084	0.690792	0.282661
C107	C	0.785088	0.190787	-0.296141
C108	C	1.285088	0.690787	0.203859
C109	C	0.828313	0.126171	-0.335527
C110	C	1.328313	0.626171	0.164473
N111	N	0.828340	0.126183	0.178382
N112	N	1.328340	0.626183	0.678382
H113	H	0.491564	-0.027346	0.000193
H114	H	0.991564	0.472654	0.500193
H115	H	0.746433	-0.375824	0.000211
H116	H	1.246433	0.124176	0.500211
H117	H	0.714976	0.149122	-0.571298
H118	H	1.214976	0.649122	-0.071298
Cl119	Cl	0.939541	-0.354972	0.000248
Cl120	Cl	1.439541	0.145028	0.500248
Cl121	Cl	0.730768	0.272013	-0.653910
Cl122	Cl	1.230768	0.772013	-0.153910
H123	H	0.175702	-0.033662	0.000243
H124	H	0.675702	0.466338	0.500243
Cl125	Cl	0.029339	-0.074864	0.000261
Cl126	Cl	0.529339	0.425136	0.500261
Cl127	Cl	0.251576	-0.024781	0.099252
Cl128	Cl	0.751576	0.475219	0.599252
H129	H	0.398230	0.007465	0.079797
H130	H	0.898230	0.507465	0.579797
Cl131	Cl	0.925900	-0.019650	-0.831726
Cl132	Cl	1.425900	0.480350	-0.331726
Cl133	Cl	0.925893	-0.019651	-0.653866
Cl134	Cl	1.425893	0.480349	-0.153866
H135	H	0.906736	0.008969	-0.185233
H136	H	1.406736	0.508969	0.314767
Cl137	Cl	0.969339	0.097635	-0.588651
Cl138	Cl	1.469339	0.597635	-0.088651
Cl139	Cl	0.640530	-0.062654	0.000139
Cl140	Cl	1.140530	0.437346	0.500139
Cl141	Cl	0.969333	0.097628	-0.410789
Cl142	Cl	1.469333	0.597628	0.089211
H143	H	0.906736	0.008956	-0.328190
H144	H	1.406736	0.508956	0.171810
H145	H	0.749890	0.243394	-0.185265
H146	H	1.249890	0.743394	0.314735
H147	H	0.749894	0.243393	-0.328226
H148	H	1.249894	0.743393	0.171774
H149	H	0.714970	0.149106	-0.428346
H150	H	1.214970	0.649106	0.071654
H151	H	0.612539	0.288658	0.000206
H152	H	1.112539	0.788658	0.500206
Cl153	Cl	0.463580	0.323954	0.000230
Cl154	Cl	0.963580	0.823954	0.500230
H155	H	0.390016	0.247535	-0.079344
H156	H	0.890016	0.747535	0.420656
Cl157	Cl	0.241351	0.273884	-0.098743
Cl158	Cl	0.741351	0.773884	0.401257
Cl159	Cl	0.730780	0.272025	-0.831773
Cl160	Cl	1.230780	0.772025	-0.331773
H161	H	0.165078	0.279720	0.000278
H162	H	0.665078	0.779720	0.500278
H163	H	0.033483	0.277088	0.000297
H164	H	0.533483	0.777088	0.500297
