data_functionalizedCrystal
_audit_creation_method	'MofGen! by Chris Wilmer'
_symmetry_space_group_name_H-M	'P1'
_symmetry_Int_Tables_number	1
_symmetry_cell_setting	triclinic
loop_
_symmetry_equiv_pos_as_xyz
  x,y,z
_cell_length_a	17.639617
_cell_length_b	17.640280
_cell_length_c	15.296720
_cell_angle_alpha	90.295581
_cell_angle_beta	86.542901
_cell_angle_gamma	87.821186
loop_
_atom_site_label
_atom_site_type_symbol
_atom_site_fract_x
_atom_site_fract_y
_atom_site_fract_z
Zn1	Zn	1.137600	-0.195386	-0.727965
Zn2	Zn	1.637600	0.304614	-0.227965
Zn3	Zn	1.182196	-0.293820	-0.564737
Zn4	Zn	1.682196	0.206180	-0.064737
Zn5	Zn	1.030882	-0.190520	-0.553586
Zn6	Zn	1.530882	0.309480	-0.053586
Zn7	Zn	1.042644	-0.338357	-0.673022
Zn8	Zn	1.542644	0.161643	-0.173022
O9	O	1.098330	-0.254521	-0.629828
O10	O	1.598330	0.245479	-0.129828
O11	O	1.246580	-0.191841	-0.733973
O12	O	1.746580	0.308159	-0.233973
O13	O	1.175865	-0.259442	-0.444962
O14	O	1.675865	0.240558	0.055038
O15	O	1.021452	-0.088100	-0.595044
O16	O	1.521452	0.411900	-0.095044
O17	O	1.279345	-0.264160	-0.614050
O18	O	1.779345	0.235840	-0.114050
O19	O	1.099857	-0.091675	-0.723160
O20	O	1.599857	0.408325	-0.223160
O21	O	1.064695	-0.183548	-0.436770
O22	O	1.564695	0.316452	0.063230
O23	O	0.929377	-0.226734	-0.541769
O24	O	1.429377	0.273266	-0.041769
O25	O	1.041499	-0.340067	-0.798606
O26	O	1.541499	0.159933	-0.298606
O27	O	0.938019	-0.335349	-0.629518
O28	O	1.438019	0.164651	-0.129518
O29	O	1.111263	-0.235026	-0.838972
O30	O	1.611263	0.264974	-0.338972
O31	O	1.187271	-0.402794	-0.560775
O32	O	1.687271	0.097206	-0.060775
O33	O	1.084743	-0.435515	-0.640331
O34	O	1.584743	0.064485	-0.140331
C35	C	0.906975	-0.285347	-0.578472
C36	C	1.406975	0.214653	-0.078472
C37	C	0.825114	-0.298556	-0.556519
C38	C	1.325114	0.201444	-0.056519
C39	C	0.470606	-0.154196	-0.796816
C40	C	0.970606	0.345804	-0.296816
C41	C	0.393692	-0.166623	-0.776167
C42	C	0.893692	0.333377	-0.276167
C43	C	0.427814	-0.241746	-0.651164
C44	C	0.927814	0.258254	-0.151164
C45	C	0.504733	-0.229328	-0.671805
C46	C	1.004733	0.270672	-0.171805
C47	C	0.526123	-0.185552	-0.744631
C48	C	1.026123	0.314448	-0.244631
C49	C	0.560250	-0.260684	-0.619620
C50	C	1.060250	0.239316	-0.119620
C51	C	0.637162	-0.248264	-0.640257
C52	C	1.137162	0.251736	-0.140257
C53	C	0.658558	-0.204488	-0.713078
C54	C	1.158558	0.295512	-0.213078
C55	C	0.603035	-0.173132	-0.765268
C56	C	1.103035	0.326868	-0.265268
C57	C	0.538858	-0.304456	-0.546790
C58	C	1.038858	0.195544	-0.046790
C59	C	0.594375	-0.335812	-0.494605
C60	C	1.094375	0.164188	0.005395
C61	C	0.671289	-0.323396	-0.515245
C62	C	1.171289	0.176604	-0.015245
C63	C	0.692685	-0.279620	-0.588067
C64	C	1.192685	0.220380	-0.088067
C65	C	0.726812	-0.354752	-0.463056
C66	C	1.226812	0.145248	0.036944
C67	C	0.803724	-0.342332	-0.483692
C68	C	1.303724	0.157668	0.016308
C69	C	0.769597	-0.267200	-0.608704
C70	C	1.269597	0.232800	-0.108704
C71	C	1.142140	-0.445878	-0.595825
C72	C	1.642140	0.054122	-0.095825
C73	C	1.160946	-0.527735	-0.581325
C74	C	1.660946	-0.027735	-0.081325
C75	C	0.955729	-0.882249	-0.740372
C76	C	1.455729	-0.382249	-0.240372
C77	C	0.973405	-0.959162	-0.726720
C78	C	1.473405	-0.459162	-0.226720
C79	C	1.080213	-0.925034	-0.644003
C80	C	1.580213	-0.425034	-0.144003
C81	C	1.062548	-0.848117	-0.657651
C82	C	1.562548	-0.348117	-0.157651
C83	C	1.000305	-0.826731	-0.705836
C84	C	1.500305	-0.326731	-0.205836
C85	C	1.107124	-0.792599	-0.623115
C86	C	1.607124	-0.292599	-0.123115
C87	C	1.089459	-0.715688	-0.636758
C88	C	1.589459	-0.215688	-0.136758
C89	C	1.027217	-0.694296	-0.684938
C90	C	1.527217	-0.194296	-0.184938
C91	C	0.982639	-0.749821	-0.719479
C92	C	1.482639	-0.249821	-0.219479
C93	C	1.169364	-0.813986	-0.574926
C94	C	1.669364	-0.313986	-0.074926
C95	C	1.213940	-0.758468	-0.540389
C96	C	1.713940	-0.258468	-0.040389
C97	C	1.196278	-0.681556	-0.554038
C98	C	1.696278	-0.181556	-0.054038
C99	C	1.134036	-0.660164	-0.602218
C100	C	1.634036	-0.160164	-0.102218
C101	C	1.240855	-0.626031	-0.519497
C102	C	1.740855	-0.126031	-0.019497
C103	C	1.223190	-0.549121	-0.533141
C104	C	1.723190	-0.049121	-0.033141
C105	C	1.116370	-0.583253	-0.615861
C106	C	1.616370	-0.083253	-0.115861
C107	C	1.290433	-0.223575	-0.681384
C108	C	1.790433	0.276425	-0.181384
C109	C	1.372296	-0.210388	-0.703354
C110	C	1.872296	0.289612	-0.203354
C111	C	1.072719	-0.293057	-0.850320
C112	C	1.572719	0.206943	-0.350320
C113	C	1.061804	-0.309479	-0.944280
C114	C	1.561804	0.190521	-0.444280
C115	C	1.054368	-0.062417	-0.663987
C116	C	1.554368	0.437583	-0.163987
C117	C	1.035633	0.019447	-0.678544
C118	C	1.535633	0.519447	-0.178544
C119	C	1.176334	-0.137018	-1.293206
C120	C	1.676334	0.362982	-0.793206
C121	C	1.186594	-0.121589	-1.204926
C122	C	1.686594	0.378411	-0.704926
C123	C	1.155397	-0.168560	-1.139761
C124	C	1.655397	0.331440	-0.639761
C125	C	1.113940	-0.230963	-1.162883
C126	C	1.613940	0.269037	-0.662883
C127	C	1.103684	-0.246396	-1.251172
C128	C	1.603684	0.253604	-0.751172
C129	C	1.082747	-0.277939	-1.097726
C130	C	1.582747	0.222061	-0.597726
C131	C	1.041289	-0.340341	-1.120849
C132	C	1.541289	0.159659	-0.620849
C133	C	1.031035	-0.355772	-1.209129
C134	C	1.531035	0.144228	-0.709129
C135	C	1.062232	-0.308801	-1.274295
C136	C	1.562232	0.191199	-0.774295
C137	C	1.093002	-0.262505	-1.009438
C138	C	1.593002	0.237495	-0.509438
C139	C	1.020352	-0.371883	-0.967403
C140	C	1.520352	0.128117	-0.467403
C141	C	1.010093	-0.387312	-1.055683
C142	C	1.510093	0.112688	-0.555683
C143	C	1.123873	-0.216075	-0.410214
C144	C	1.623873	0.283925	0.089786
C145	C	1.134882	-0.199422	-0.316329
C146	C	1.634882	0.300578	0.183671
H147	H	0.348490	-0.141082	-0.818664
H148	H	0.848490	0.358918	-0.318664
F149	F	0.571601	-0.382397	-0.417098
F150	F	1.071601	0.117603	0.082902
H151	H	0.620451	-0.137488	-0.824573
H152	H	1.120451	0.362512	-0.324573
H153	H	1.065690	-0.565842	-0.655106
H154	H	1.565690	-0.065842	-0.155106
H155	H	0.488022	-0.118552	-0.856121
H156	H	0.988022	0.381448	-0.356121
H157	H	0.410387	-0.277386	-0.591866
H158	H	0.910387	0.222614	-0.091866
H159	H	0.997285	-0.406589	-1.227952
H160	H	1.497285	0.093411	-0.727952
F161	F	0.456999	-0.317669	-0.524824
F162	F	0.956999	0.182331	-0.024824
F163	F	0.925950	-1.018248	-0.763473
F164	F	1.425950	-0.518248	-0.263473
H165	H	1.130890	-0.942457	-0.604768
H166	H	1.630890	-0.442457	-0.104768
H167	H	1.012830	-0.631670	-0.696039
H168	H	1.512830	-0.131670	-0.196039
H169	H	1.183747	-0.876612	-0.563822
H170	H	1.683747	-0.376612	-0.063822
H171	H	0.709384	-0.390388	-0.403756
H172	H	1.209384	0.109612	0.096244
H173	H	0.848928	-0.367865	-0.441198
H174	H	1.348928	0.132135	0.058802
H175	H	0.931959	-0.732410	-0.758723
H176	H	1.431959	-0.232410	-0.258723
H177	H	1.126757	-0.211696	-0.990621
H178	H	1.626757	0.288304	-0.490621
F179	F	0.965973	-0.453724	-1.080303
F180	F	1.465973	0.046276	-0.580303
H181	H	0.905049	-0.864838	-0.779616
H182	H	1.405049	-0.364838	-0.279616
H183	H	1.264617	-0.775891	-0.501155
H184	H	1.764617	-0.275891	-0.001155
F185	F	1.307093	-0.648802	-0.468212
F186	F	1.807093	-0.148802	0.031788
H187	H	1.259488	-0.503916	-0.505016
H188	H	1.759488	-0.003916	-0.005016
F189	F	0.987152	-0.421880	-0.898053
F190	F	1.487152	0.078120	-0.398053
F191	F	1.166316	-0.152137	-1.045806
F192	F	1.666316	0.347863	-0.545806
F193	F	1.230714	-0.055179	-1.180324
F194	F	1.730714	0.444821	-0.680324
F195	F	1.209538	-0.087041	-1.362563
F196	F	1.709538	0.412959	-0.862563
F197	F	1.051319	-0.325221	-1.368255
F198	F	1.551319	0.174779	-0.868255
H199	H	0.787013	-0.231556	-0.668009
H200	H	1.287013	0.268444	-0.168009
H201	H	0.721186	-0.194373	-0.729877
H202	H	1.221186	0.305627	-0.229877
