data_functionalizedCrystal
_audit_creation_method	'MofGen! by Chris Wilmer'
_symmetry_space_group_name_H-M	'P1'
_symmetry_Int_Tables_number	1
_symmetry_cell_setting	triclinic
loop_
_symmetry_equiv_pos_as_xyz
  x,y,z
_cell_length_a	29.839131
_cell_length_b	29.839135
_cell_length_c	29.839125
_cell_angle_alpha	89.984512
_cell_angle_beta	89.974637
_cell_angle_gamma	90.037758
loop_
_atom_site_label
_atom_site_type_symbol
_atom_site_fract_x
_atom_site_fract_y
_atom_site_fract_z
Zn1	Zn	-0.178886	0.686739	-0.254023
Zn2	Zn	-0.253998	0.686679	-0.178883
Zn3	Zn	-0.178886	0.611622	-0.178901
Zn4	Zn	-0.253993	0.611578	-0.253980
O5	O	-0.216441	0.649154	-0.216447
O6	O	-0.188852	0.749598	-0.244066
O7	O	-0.244036	0.676716	-0.116019
O8	O	-0.116019	0.621630	-0.188892
O9	O	-0.244036	0.749554	-0.188861
O10	O	-0.116019	0.676818	-0.244084
O11	O	-0.188852	0.621572	-0.116032
O12	O	-0.188847	0.548749	-0.188850
O13	O	-0.244028	0.621554	-0.316853
O14	O	-0.244028	0.548716	-0.244010
O15	O	-0.188847	0.676775	-0.316885
O16	O	-0.316864	0.676673	-0.188819
O17	O	-0.316861	0.621497	-0.243993
C18	C	-0.216437	0.532432	-0.216428
C19	C	-0.216447	0.482497	-0.216430
C20	C	-0.187750	0.172874	-0.245235
C21	C	-0.187753	-0.014799	-0.245247
O22	O	-0.163344	-0.039047	-0.269717
N23	N	-0.216441	-0.038288	-0.216464
C24	C	-0.245129	-0.014855	-0.187672
O25	O	-0.269527	-0.039140	-0.163187
C26	C	-0.245123	0.172817	-0.187658
C27	C	-0.216436	0.196303	-0.216447
C28	C	-0.159065	0.196360	-0.274021
C29	C	-0.159066	0.243275	-0.274019
C30	C	-0.187752	0.266705	-0.245231
C31	C	-0.216437	0.243219	-0.216445
C32	C	-0.273808	0.196249	-0.158864
C33	C	-0.273803	0.243170	-0.158862
C34	C	-0.245116	0.266656	-0.187651
C35	C	-0.245125	0.313563	-0.187655
N36	N	-0.216437	0.337052	-0.216439
C37	C	-0.187750	0.313623	-0.245227
C38	C	-0.245130	-0.113386	-0.187683
C39	C	-0.245133	-0.160304	-0.187687
C40	C	-0.187756	-0.160244	-0.245262
C41	C	-0.187756	-0.113326	-0.245259
C42	C	-0.216442	-0.089897	-0.216467
C43	C	-0.187755	0.412148	-0.245221
C44	C	-0.187760	0.459068	-0.245218
C45	C	-0.245135	0.459005	-0.187642
C46	C	-0.245132	0.412089	-0.187647
C47	C	-0.216438	0.388662	-0.216438
O48	O	-0.269518	0.337840	-0.163195
O49	O	-0.163349	0.337915	-0.269702
C50	C	-0.187749	0.125958	-0.245236
C51	C	-0.216434	0.102472	-0.216450
C52	C	-0.245120	0.125902	-0.187662
C53	C	-0.216436	0.055554	-0.216454
C54	C	-0.187749	0.032125	-0.245242
C55	C	-0.159061	0.055614	-0.274026
C56	C	-0.159062	0.102529	-0.274025
C57	C	-0.273808	0.102413	-0.158878
C58	C	-0.273805	0.055498	-0.158883
C59	C	-0.245119	0.032068	-0.187671
C60	C	-0.333163	0.649086	-0.216409
C61	C	-0.383098	0.649098	-0.216408
C62	C	-0.692706	0.677885	-0.245226
C63	C	-0.880379	0.677933	-0.245253
O64	O	-0.904614	0.702342	-0.269728
N65	N	-0.903883	0.649231	-0.216497
C66	C	-0.880465	0.620512	-0.187734
O67	O	-0.904763	0.596096	-0.163279
C68	C	-0.692793	0.620461	-0.187709
C69	C	-0.669292	0.649169	-0.216464
C70	C	-0.669205	0.706590	-0.273979
C71	C	-0.622290	0.706579	-0.273971
C72	C	-0.598875	0.677863	-0.245209
C73	C	-0.622377	0.649158	-0.216456
C74	C	-0.669376	0.591740	-0.158949
C75	C	-0.622455	0.591729	-0.158946
C76	C	-0.598954	0.620437	-0.187701
C77	C	-0.552047	0.620431	-0.187685
N78	N	-0.528543	0.649134	-0.216441
C79	C	-0.551957	0.677850	-0.245203
C80	C	-0.978996	0.620541	-0.187748
C81	C	-1.025914	0.620554	-0.187753
C82	C	-1.025824	0.677975	-0.245274
C83	C	-0.978906	0.677964	-0.245266
C84	C	-0.955492	0.649244	-0.216504
C85	C	-0.453432	0.677826	-0.245183
C86	C	-0.406512	0.677814	-0.245170
C87	C	-0.406605	0.620391	-0.187651
C88	C	-0.453521	0.620404	-0.187662
C89	C	-0.476933	0.649123	-0.216431
O90	O	-0.527783	0.596032	-0.163227
O91	O	-0.527652	0.702255	-0.269662
C92	C	-0.739622	0.677895	-0.245235
C93	C	-0.763123	0.649190	-0.216482
C94	C	-0.739709	0.620474	-0.187720
C95	C	-0.810041	0.649203	-0.216487
C96	C	-0.833455	0.677919	-0.245249
C97	C	-0.809951	0.706622	-0.274006
C98	C	-0.763036	0.706611	-0.273997
C99	C	-0.763212	0.591772	-0.158964
C100	C	-0.810128	0.591785	-0.158974
C101	C	-0.833542	0.620501	-0.187736
C102	C	-0.099262	0.649235	-0.216495
C103	C	-0.049328	0.649270	-0.216515
C104	C	-0.216437	0.649167	-0.333625
C105	C	-0.216435	0.649172	-0.383560
C106	C	-0.216445	0.766333	-0.216467
C107	C	-0.216446	0.816267	-0.216475
C108	C	-0.187627	0.677955	-0.693223
C109	C	-0.187589	0.677978	-0.880896
O110	O	-0.163138	0.702417	-0.905177
N111	N	-0.216315	0.649231	-0.904345
C112	C	-0.245050	0.620475	-0.880873
O113	O	-0.269479	0.596022	-0.905124
C114	C	-0.245086	0.620451	-0.693201
C115	C	-0.216361	0.649202	-0.669754
C116	C	-0.158905	0.706704	-0.669776
C117	C	-0.158916	0.706700	-0.622861
C118	C	-0.187650	0.677947	-0.599392
C119	C	-0.216373	0.649198	-0.622839
C120	C	-0.273819	0.591693	-0.669730
C121	C	-0.273824	0.591689	-0.622809
C122	C	-0.245100	0.620440	-0.599362
C123	C	-0.245119	0.620441	-0.552455
N124	N	-0.216393	0.649188	-0.529005
C125	C	-0.187659	0.677941	-0.552474
C126	C	-0.245030	0.620491	-0.979404
C127	C	-0.245022	0.620497	-1.026322
C128	C	-0.187560	0.677999	-1.026341
C129	C	-0.187571	0.677994	-0.979423
C130	C	-0.216304	0.649237	-0.955955
C131	C	-0.187685	0.677930	-0.453948
C132	C	-0.187701	0.677925	-0.407029
C133	C	-0.245161	0.620421	-0.407013
C134	C	-0.245147	0.620428	-0.453929
C135	C	-0.216406	0.649184	-0.477395
O136	O	-0.269553	0.596011	-0.528144
O137	O	-0.163226	0.702383	-0.528215
C138	C	-0.187616	0.677960	-0.740138
C139	C	-0.216338	0.649211	-0.763585
C140	C	-0.245072	0.620458	-0.740116
C141	C	-0.216330	0.649217	-0.810503
C142	C	-0.187596	0.677970	-0.833972
C143	C	-0.158870	0.706717	-0.810523
C144	C	-0.158881	0.706712	-0.763607
C145	C	-0.273798	0.591711	-0.763566
C146	C	-0.273785	0.591718	-0.810481
C147	C	-0.245050	0.620471	-0.833950
C148	C	-0.216412	0.649168	-0.099725
C149	C	-0.216288	0.649250	-0.049790
H150	H	-0.268497	-0.179422	-0.164249
N151	N	-0.127897	0.737723	-0.738324
H152	H	-0.107080	0.719481	-0.718860
H153	H	-0.146190	0.758524	-0.718884
H154	H	-0.164180	0.701406	-0.960335
N155	N	-0.597204	0.560755	-0.127919
H156	H	-0.563915	0.565102	-0.132274
H157	H	-0.605430	0.528667	-0.134881
H158	H	-0.268417	0.597090	-1.045408
N159	N	-0.128123	0.268604	-0.305069
H160	H	-0.109952	0.246636	-0.323303
H161	H	-0.107303	0.288076	-0.286822
N162	N	-0.953560	0.708926	-0.276280
H163	H	-0.975516	0.727119	-0.294499
H164	H	-0.934100	0.690620	-0.297052
N165	N	-1.051255	0.589593	-0.156734
H166	H	-1.070730	0.568765	-0.174971
H167	H	-1.070689	0.607900	-0.135939
N168	N	-0.127879	0.737731	-0.835840
H169	H	-0.132234	0.733368	-0.869119
H170	H	-0.095795	0.730760	-0.827647
N171	N	-0.276148	0.589407	-0.381694
H172	H	-0.294344	0.571193	-0.403664
H173	H	-0.296943	0.607677	-0.362224
N174	N	-0.156806	-0.185515	-0.276307
H175	H	-0.163824	-0.177347	-0.308394
H176	H	-0.161173	-0.218793	-0.271901
N177	N	-0.156813	0.386882	-0.276276
H178	H	-0.135963	0.367424	-0.258065
H179	H	-0.138674	0.408912	-0.294506
H180	H	-0.297218	0.568265	-0.603704
N181	N	-0.128121	0.171101	-0.305078
H182	H	-0.146408	0.151632	-0.325866
H183	H	-0.107275	0.151666	-0.286838
N184	N	-0.304796	0.560695	-0.738266
H185	H	-0.325625	0.578932	-0.718799
H186	H	-0.286517	0.539887	-0.718826
N187	N	-0.156820	0.484399	-0.276272
H188	H	-0.138647	0.462435	-0.294508
H189	H	-0.136001	0.503875	-0.258027
N190	N	-0.304771	0.560708	-0.835767
H191	H	-0.322973	0.542494	-0.813776
H192	H	-0.286477	0.539932	-0.855232
H193	H	-0.688503	0.568363	-0.135533
H194	H	-0.164396	-0.094206	-0.268701
H195	H	-0.164164	0.701411	-1.045458
H196	H	-0.268496	0.392966	-0.164210
N197	N	-1.051084	0.708932	-0.276311
H198	H	-1.029080	0.727111	-0.294534
H199	H	-1.070549	0.729745	-0.258059
N200	N	-0.953746	0.589564	-0.156722
H201	H	-0.975759	0.571388	-0.138507
H202	H	-0.934276	0.607862	-0.135947
N203	N	-0.276014	0.589462	-0.954095
H204	H	-0.294205	0.571253	-0.976073
H205	H	-0.296814	0.607721	-0.934620
N206	N	-0.478872	0.589447	-0.156644
H207	H	-0.456918	0.571256	-0.138421
H208	H	-0.498343	0.568647	-0.174914
N209	N	-0.381347	0.589422	-0.156628
H210	H	-0.348059	0.593773	-0.160990
H211	H	-0.389571	0.557334	-0.163591
H212	H	-0.743905	0.729988	-0.297412
H213	H	-0.268491	-0.094314	-0.164235
N214	N	-0.304745	0.030167	-0.127827
H215	H	-0.325595	0.010691	-0.146039
H216	H	-0.322885	0.052161	-0.109596
H217	H	-0.268492	0.478089	-0.164205
N218	N	-0.304748	0.170925	-0.127811
H219	H	-0.322914	0.192893	-0.109574
H220	H	-0.286427	0.151466	-0.107058
H221	H	-0.829023	0.730005	-0.297423
H222	H	-0.297163	0.262243	-0.135415
N223	N	-0.835473	0.560823	-0.127955
H224	H	-0.813516	0.542631	-0.109735
H225	H	-0.854945	0.540023	-0.146225
N226	N	-0.478683	0.708801	-0.276206
H227	H	-0.498153	0.690537	-0.297013
H228	H	-0.456645	0.726979	-0.294389
H229	H	-0.297168	0.121485	-0.135434
N230	N	-0.304798	0.560681	-0.695012
H231	H	-0.336899	0.567632	-0.686837
H232	H	-0.297778	0.528601	-0.686829
N233	N	-0.737960	0.560802	-0.127938
H234	H	-0.746151	0.528699	-0.134882
H235	H	-0.746154	0.567847	-0.095862
N236	N	-0.128122	0.030339	-0.305079
H237	H	-0.132478	-0.002946	-0.300708
H238	H	-0.096026	0.038556	-0.298148
H239	H	-0.135702	0.121647	-0.297467
N240	N	-0.381164	0.708779	-0.276185
H241	H	-0.403120	0.726970	-0.294407
H242	H	-0.361701	0.690473	-0.296954
H243	H	-0.164310	0.701339	-0.387940
H244	H	-0.164280	0.701344	-0.473049
N245	N	-0.596944	0.737537	-0.304990
H246	H	-0.605085	0.769643	-0.298048
H247	H	-0.605111	0.730496	-0.337068
N248	N	-0.694454	0.737553	-0.305015
H249	H	-0.672441	0.755729	-0.323230
H250	H	-0.713916	0.758368	-0.286763
N251	N	-0.127933	0.737709	-0.597575
H252	H	-0.109730	0.755921	-0.619568
H253	H	-0.107145	0.719435	-0.578112
H254	H	-0.135503	0.730118	-0.688879
N255	N	-0.276133	0.589424	-0.479221
H256	H	-0.294339	0.571211	-0.457232
H257	H	-0.257841	0.568647	-0.498685
