data_functionalizedCrystal
_audit_creation_method	'MofGen! by Chris Wilmer'
_symmetry_space_group_name_H-M	'P1'
_symmetry_Int_Tables_number	1
_symmetry_cell_setting	triclinic
loop_
_symmetry_equiv_pos_as_xyz
  x,y,z
_cell_length_a	19.805407
_cell_length_b	18.050590
_cell_length_c	19.805399
_cell_angle_alpha	89.971167
_cell_angle_beta	89.984884
_cell_angle_gamma	90.015869
loop_
_atom_site_label
_atom_site_type_symbol
_atom_site_fract_x
_atom_site_fract_y
_atom_site_fract_z
Zn1	Zn	1.034755	-0.295720	-0.382688
Zn2	Zn	1.534755	0.204280	0.117312
Zn3	Zn	1.034690	-0.419915	-0.269500
Zn4	Zn	1.534690	0.080085	0.230500
Zn5	Zn	0.921575	-0.295737	-0.269516
Zn6	Zn	1.421575	0.204263	0.230484
Zn7	Zn	0.921548	-0.419866	-0.382651
Zn8	Zn	1.421548	0.080134	0.117349
O9	O	0.978142	-0.357809	-0.326089
O10	O	1.478142	0.142191	0.173911
O11	O	1.129463	-0.312207	-0.367683
O12	O	1.629463	0.187793	0.132317
O13	O	1.019669	-0.403470	-0.174786
O14	O	1.519669	0.096530	0.325214
O15	O	0.936626	-0.191810	-0.284551
O16	O	1.436626	0.308190	0.215449
O17	O	1.129415	-0.403453	-0.284524
O18	O	1.629415	0.096547	0.215476
O19	O	1.019779	-0.191797	-0.367698
O20	O	1.519779	0.308203	0.132302
O21	O	0.936564	-0.312237	-0.174798
O22	O	1.436564	0.187763	0.325202
O23	O	0.826855	-0.312190	-0.284515
O24	O	1.326855	0.187810	0.215485
O25	O	0.936581	-0.403370	-0.477372
O26	O	1.436581	0.096630	0.022628
O27	O	0.826835	-0.403388	-0.367634
O28	O	1.326835	0.096612	0.132366
O29	O	1.019754	-0.312160	-0.477400
O30	O	1.519754	0.187840	0.022600
O31	O	1.019644	-0.523833	-0.284488
O32	O	1.519644	-0.023833	0.215512
O33	O	0.936519	-0.523797	-0.367619
O34	O	1.436519	-0.023797	0.132381
C35	C	0.802286	-0.357786	-0.326073
C36	C	1.302286	0.142214	0.173927
C37	C	0.727054	-0.357794	-0.326082
C38	C	1.227054	0.142206	0.173918
C39	C	0.691735	-0.310367	-0.369448
C40	C	1.191735	0.189633	0.130552
C41	C	0.621047	-0.310370	-0.369451
C42	C	1.121047	0.189630	0.130549
C43	C	0.585678	-0.357806	-0.326090
C44	C	1.085678	0.142194	0.173910
C45	C	0.621002	-0.405236	-0.282718
C46	C	1.121002	0.094764	0.217282
C47	C	0.691689	-0.405228	-0.282713
C48	C	1.191689	0.094772	0.217287
C49	C	0.335929	-0.405269	-0.282739
C50	C	0.835929	0.094731	0.217261
C51	C	0.265237	-0.405275	-0.282749
C52	C	0.765237	0.094725	0.217251
C53	C	0.265286	-0.310412	-0.369477
C54	C	0.765286	0.189588	0.130523
C55	C	0.335973	-0.310404	-0.369472
C56	C	0.835973	0.189596	0.130528
C57	C	0.371291	-0.357830	-0.326098
C58	C	0.871291	0.142170	0.173902
C59	C	0.447939	-0.357825	-0.326095
C60	C	0.947939	0.142175	0.173905
C61	C	0.509031	-0.357816	-0.326096
C62	C	1.009031	0.142184	0.173904
C63	C	0.978090	-0.550762	-0.326062
C64	C	1.478090	-0.050762	0.173938
C65	C	0.978130	-0.633307	-0.326073
C66	C	1.478130	-0.133307	0.173927
C67	C	1.023427	-0.832750	-0.280930
C68	C	1.523427	-0.332750	0.219070
C69	C	1.039957	-0.882083	-0.342704
C70	C	1.539957	-0.382083	0.157296
C71	C	0.978168	-0.784438	-0.326100
C72	C	1.478168	-0.284438	0.173900
C73	C	0.961707	-0.882186	-0.264353
C74	C	1.461707	-0.382186	0.235647
C75	C	0.978206	-0.930423	-0.326121
C76	C	1.478206	-0.430423	0.173879
C77	C	0.994729	-0.832683	-0.387907
C78	C	1.494729	-0.332683	0.112093
C79	C	0.916451	-0.832782	-0.309515
C80	C	1.416451	-0.332782	0.190485
C81	C	0.932957	-0.882093	-0.371332
C82	C	1.432957	-0.382093	0.128668
C83	C	0.978148	-0.700339	-0.326087
C84	C	1.478148	-0.200339	0.173913
C85	C	0.978227	-1.014519	-0.326141
C86	C	1.478227	-0.514519	0.173859
C87	C	1.154685	-0.357833	-0.326106
C88	C	1.654685	0.142167	0.173894
C89	C	1.229917	-0.357844	-0.326113
C90	C	1.729917	0.142156	0.173887
C91	C	0.978172	-0.357758	-0.502632
C92	C	1.478172	0.142242	-0.002632
C93	C	0.978184	-0.357736	-0.577864
C94	C	1.478184	0.142264	-0.077864
C95	C	0.978213	-0.164104	-0.326131
C96	C	1.478213	0.335896	0.173869
C97	C	0.978243	-0.081558	-0.326149
C98	C	1.478243	0.418442	0.173851
C99	C	0.934924	-0.310227	-0.613214
C100	C	1.434924	0.189773	-0.113214
C101	C	0.934933	-0.310212	-0.683902
C102	C	1.434933	0.189788	-0.183902
C103	C	0.978207	-0.357704	-0.719239
C104	C	1.478207	0.142296	-0.219239
C105	C	1.021470	-0.405218	-0.683885
C106	C	1.521470	0.094782	-0.183885
C107	C	1.021456	-0.405236	-0.613198
C108	C	1.521456	0.094764	-0.113198
C109	C	1.021523	-0.405149	-0.968958
C110	C	1.521523	0.094851	-0.468958
C111	C	1.021535	-0.405126	-1.039650
C112	C	1.521535	0.094874	-0.539650
C113	C	0.935000	-0.310125	-1.039663
C114	C	1.435000	0.189875	-0.539663
C115	C	0.934987	-0.310143	-0.968976
C116	C	1.434987	0.189857	-0.468976
C117	C	0.978246	-0.357660	-0.933627
C118	C	1.478246	0.142340	-0.433627
C119	C	0.978235	-0.357676	-0.856979
C120	C	1.478235	0.142324	-0.356979
C121	C	0.978222	-0.357685	-0.795887
C122	C	1.478222	0.142315	-0.295887
C123	C	0.978151	-0.357807	-0.150233
C124	C	1.478151	0.142193	0.349767
C125	C	0.978270	-0.357620	-0.075001
C126	C	1.478270	0.142380	0.424999
H127	H	0.592293	-0.271752	-0.404766
H128	H	1.092293	0.228248	0.095234
O129	O	0.230849	-0.451434	-0.240719
O130	O	0.730849	0.048566	0.259281
C131	C	0.189956	-0.499450	-0.279178
C132	C	0.689956	0.000550	0.220822
H133	H	0.211280	-0.504116	-0.332475
H134	H	0.711280	-0.004116	0.167525
H135	H	0.189133	-0.556565	-0.254600
H136	H	0.689133	-0.056565	0.245400
H137	H	0.136389	-0.476496	-0.281558
H138	H	0.636389	0.023504	0.218442
H139	H	0.364767	-0.271779	-0.404783
H140	H	0.864767	0.228221	0.095217
O141	O	0.231052	-0.264232	-0.411574
O142	O	0.731052	0.235768	0.088426
C143	C	0.248323	-0.190190	-0.396895
C144	C	0.748323	0.309810	0.103105
H145	H	0.299637	-0.188610	-0.370873
H146	H	0.799637	0.311390	0.129127
H147	H	0.250766	-0.156963	-0.445800
H148	H	0.750766	0.343037	0.054200
H149	H	0.208531	-0.165127	-0.362143
H150	H	0.708531	0.334873	0.137857
O151	O	0.726120	-0.264394	-0.411642
O152	O	1.226120	0.235606	0.088358
C153	C	0.767029	-0.306731	-0.455276
C154	C	1.267029	0.193269	0.044724
H155	H	0.745719	-0.365230	-0.459364
H156	H	1.245719	0.134770	0.040636
H157	H	0.767852	-0.279943	-0.507408
H158	H	1.267852	0.220057	-0.007408
H159	H	0.820594	-0.309253	-0.434341
H160	H	1.320594	0.190747	0.065659
O161	O	1.011453	-0.806735	-0.450184
O162	O	1.511453	-0.306735	0.049816
C163	C	1.011242	-0.728630	-0.449418
C164	C	1.511242	-0.228630	0.050582
H165	H	1.018798	-0.708220	-0.395485
H166	H	1.518798	-0.208220	0.104515
H167	H	1.053911	-0.707012	-0.482677
H168	H	1.553911	-0.207012	0.017323
H169	H	0.960846	-0.707501	-0.469472
H170	H	1.460846	-0.207501	0.030528
H171	H	1.092166	-0.903741	-0.356745
H172	H	1.592166	-0.403741	0.143255
H173	H	0.364676	-0.443888	-0.247422
H174	H	0.864676	0.056112	0.252578
O175	O	0.586543	-0.451291	-0.240660
O176	O	1.086543	0.048709	0.259340
C177	C	0.516579	-0.441118	-0.249952
C178	C	1.016579	0.058882	0.250048
H179	H	0.506946	-0.416871	-0.302228
H180	H	1.006946	0.083129	0.197772
H181	H	0.489705	-0.496743	-0.245272
H182	H	0.989705	0.003257	0.254728
H183	H	0.496510	-0.401515	-0.209872
H184	H	0.996510	0.098485	0.290128
H185	H	0.864257	-0.811109	-0.295455
H186	H	1.364257	-0.311109	0.204545
O187	O	0.893042	-0.263866	-1.073972
O188	O	1.393042	0.236134	-0.573972
C189	C	0.907850	-0.189856	-1.056707
C190	C	1.407850	0.310144	-0.556707
H191	H	0.961921	-0.186120	-1.037284
H192	H	1.461921	0.313880	-0.537284
H193	H	0.902039	-0.153153	-1.103202
H194	H	1.402039	0.346847	-0.603202
H195	H	0.871564	-0.170448	-1.015676
H196	H	1.371564	0.329552	-0.515676
H197	H	0.899703	-0.271528	-0.712681
H198	H	1.399703	0.228472	-0.212681
O199	O	0.887324	-0.907908	-0.416912
O200	O	1.387324	-0.407908	0.083088
C201	C	0.887469	-0.986013	-0.416049
C202	C	1.387469	-0.486013	0.083951
H203	H	0.907638	-1.006367	-0.365429
H204	H	1.407638	-0.506367	0.134571
H205	H	0.833798	-1.007301	-0.423563
H206	H	1.333798	-0.507301	0.076437
H207	H	0.921086	-1.007530	-0.458455
H208	H	1.421086	-0.507530	0.041545
H209	H	0.947769	-0.903930	-0.212127
H210	H	1.447769	-0.403930	0.287873
H211	H	0.720445	-0.443848	-0.247399
H212	H	1.220445	0.056152	0.252601
H213	H	1.056775	-0.443802	-1.068420
H214	H	1.556775	0.056198	-0.568420
O215	O	1.069191	-0.806931	-0.235481
O216	O	1.569191	-0.306931	0.264519
C217	C	1.134211	-0.832067	-0.253227
C218	C	1.634211	-0.332067	0.246773
H219	H	1.135455	-0.845879	-0.309373
H220	H	1.635455	-0.345879	0.190627
H221	H	1.172819	-0.786881	-0.241967
H222	H	1.672819	-0.286881	0.258033
H223	H	1.146936	-0.883764	-0.222692
H224	H	1.646936	-0.383764	0.277308
H225	H	0.899689	-0.271549	-0.584447
H226	H	1.399689	0.228451	-0.084447
O227	O	0.892852	-0.264089	-0.934680
O228	O	1.392852	0.235911	-0.434680
C229	C	0.825392	-0.280296	-0.951957
C230	C	1.325392	0.219704	-0.451957
H231	H	0.821958	-0.339619	-0.971375
H232	H	1.321958	0.160381	-0.471375
H233	H	0.791946	-0.273909	-0.905470
H234	H	1.291946	0.226091	-0.405470
H235	H	0.807720	-0.240467	-0.992996
H236	H	1.307720	0.259533	-0.492996
O237	O	1.063617	-0.451319	-0.934731
O238	O	1.563617	0.048681	-0.434731
C239	C	1.101805	-0.493238	-0.981081
C240	C	1.601805	0.006762	-0.481081
H241	H	1.104160	-0.462805	-1.031477
H242	H	1.604160	0.037195	-0.531477
H243	H	1.155130	-0.501164	-0.960665
H244	H	1.655130	-0.001164	-0.460665
H245	H	1.077007	-0.549639	-0.988582
H246	H	1.577007	-0.049639	-0.488582
H247	H	1.056701	-0.443891	-0.712662
H248	H	1.556701	0.056109	-0.212662
O249	O	1.063542	-0.451412	-0.578961
O250	O	1.563542	0.048588	-0.078961
C251	C	1.101728	-0.493340	-0.625307
C252	C	1.601728	0.006660	-0.125307
H253	H	1.104098	-0.462907	-0.675702
H254	H	1.604098	0.037093	-0.175702
H255	H	1.155048	-0.501282	-0.604882
H256	H	1.655048	-0.001282	-0.104882
H257	H	1.076917	-0.549735	-0.632812
H258	H	1.576917	-0.049735	-0.132812
