data_functionalizedCrystal
_audit_creation_method	'MofGen! by Chris Wilmer'
_symmetry_space_group_name_H-M	'P1'
_symmetry_Int_Tables_number	1
_symmetry_cell_setting	triclinic
loop_
_symmetry_equiv_pos_as_xyz
  x,y,z
_cell_length_a	8.559649
_cell_length_b	16.992694
_cell_length_c	16.053802
_cell_angle_alpha	92.750953
_cell_angle_beta	92.204030
_cell_angle_gamma	99.776556
loop_
_atom_site_label
_atom_site_type_symbol
_atom_site_fract_x
_atom_site_fract_y
_atom_site_fract_z
O1	O	0.329978	-1.023824	-0.069320
O2	O	0.326287	-0.795762	-0.069345
O3	O	0.098096	-0.929885	-0.069329
O4	O	0.558168	-0.889700	-0.069335
O5	O	0.110601	-0.922506	0.069529
O6	O	0.338792	-0.788383	0.069513
O7	O	0.342483	-1.016444	0.069538
Zn8	Zn	0.342623	-0.901242	0.091572
Zn9	Zn	0.326147	-0.910964	-0.091379
O10	O	0.570673	-0.882321	0.069523
C11	C	0.327794	-0.763145	0.000081
C12	C	0.313635	-0.676954	0.000072
C13	C	0.045208	-0.929241	0.000098
C14	C	-0.131015	-0.938306	0.000095
N15	N	0.353867	-0.894612	0.216432
C16	C	0.623562	-0.882965	0.000093
C17	C	0.799784	-0.873901	0.000091
C18	C	0.340975	-1.049061	0.000110
C19	C	0.355134	-1.135252	0.000114
C20	C	0.450242	-0.618488	0.000071
C21	C	0.436931	-0.537502	0.000082
C22	C	0.287010	-0.514985	0.000089
C23	C	0.150392	-0.573459	0.000093
C24	C	0.163706	-0.654442	0.000087
C25	C	0.231830	-0.274709	0.000112
C26	C	0.218527	-0.193719	0.000115
C27	C	0.505067	-0.157768	0.000106
C28	C	0.518367	-0.238755	0.000096
C29	C	0.381749	-0.297221	0.000104
N30	N	0.273399	-0.432206	0.000099
N31	N	0.395362	-0.379998	0.000100
N32	N	0.314891	-0.917601	-0.216239
C33	C	0.256811	-0.951698	0.260132
C34	C	0.264692	-0.947067	0.347539
C35	C	0.369639	-0.885353	0.391243
C36	C	0.466699	-0.828261	0.347536
C37	C	0.458808	-0.832890	0.260132
C38	C	0.404060	-0.865138	0.652650
C39	C	0.411947	-0.860515	0.740061
C40	C	0.209937	-0.979321	0.740057
C41	C	0.202063	-0.983946	0.652651
C42	C	0.299117	-0.926852	0.608952
N43	N	0.377701	-0.880619	0.480586
N44	N	0.291046	-0.931583	0.519610
H45	H	-0.124646	-0.811826	0.000087
C46	C	0.013437	-0.718756	0.000080
H47	H	-0.077759	-0.693749	0.000076
H48	H	0.017031	-0.748532	0.048499
H49	H	0.008318	-0.753658	-0.048353
H50	H	-0.206593	-1.000384	0.000108
H51	H	0.537840	-0.786403	0.224552
C52	C	0.510856	-0.802356	0.604588
H53	H	0.491132	-0.813946	0.546273
H54	H	0.619054	-0.803688	0.618913
H55	H	0.488255	-0.750701	0.618916
H56	H	0.028324	-0.555119	0.000110
C57	C	0.615157	-0.643249	0.000063
H58	H	0.694607	-0.596827	0.000071
H59	H	0.621949	-0.676659	-0.048362
H60	H	0.630667	-0.671526	0.048490
H61	H	0.548171	-0.489901	0.000080
C62	C	0.683281	-0.263517	0.000100
H63	H	0.762736	-0.217096	0.000110
H64	H	0.690077	-0.296930	-0.048322
H65	H	0.698780	-0.291793	0.048530
C66	C	0.655332	-0.093455	0.000108
H67	H	0.625938	-0.041998	0.000120
H68	H	0.712024	-0.101905	-0.048314
H69	H	0.720732	-0.096777	0.048538
H70	H	0.096437	-0.175391	0.000120
C71	C	0.081556	-0.339011	0.000115
H72	H	-0.009634	-0.314000	0.000111
H73	H	0.085150	-0.368784	0.048537
H74	H	0.076427	-0.373917	-0.048315
C75	C	0.582141	-0.760378	0.395608
H76	H	0.572954	-0.765801	0.453923
H77	H	0.556939	-0.710247	0.381295
H78	H	0.687768	-0.763217	0.381272
C79	C	0.141366	-1.019584	0.212065
H80	H	0.084681	-1.052914	0.250614
H81	H	0.199496	-1.050342	0.177959
H82	H	0.068667	-0.997372	0.177980
C83	C	0.157946	-1.009868	0.395606
H84	H	0.094332	-1.047293	0.357059
H85	H	0.091399	-0.984061	0.429713
H86	H	0.222262	-1.037011	0.429691
C87	C	0.086699	-1.051861	0.604578
H88	H	0.095935	-1.046455	0.546265
H89	H	-0.018954	-1.049072	0.618888
H90	H	0.111995	-1.101970	0.618916
C91	C	0.103173	-1.042112	0.788128
H92	H	0.122888	-1.030515	0.846442
H93	H	0.125784	-1.093759	0.773795
H94	H	-0.005040	-1.040787	0.773810
C95	C	0.527304	-0.792590	0.788134
H96	H	0.583941	-0.759235	0.749591
H97	H	0.600028	-0.814752	0.822244
H98	H	0.469068	-0.761860	0.822218
