data_functionalizedCrystal
_audit_creation_method	'MofGen! by Chris Wilmer'
_symmetry_space_group_name_H-M	'P1'
_symmetry_Int_Tables_number	1
_symmetry_cell_setting	triclinic
loop_
_symmetry_equiv_pos_as_xyz
  x,y,z
_cell_length_a	16.992694
_cell_length_b	23.532407
_cell_length_c	15.455313
_cell_angle_alpha	92.643560
_cell_angle_beta	87.142206
_cell_angle_gamma	86.758451
loop_
_atom_site_label
_atom_site_type_symbol
_atom_site_fract_x
_atom_site_fract_y
_atom_site_fract_z
O1	O	1.042902	0.118384	-0.072037
O2	O	1.542902	0.618384	0.427963
O3	O	0.814628	0.117059	-0.072062
O4	O	1.314628	0.617059	0.427938
O5	O	0.935648	0.035132	-0.072033
O6	O	1.435648	0.535132	0.427967
O7	O	0.921882	0.200311	-0.072066
O8	O	1.421882	0.700311	0.427934
O9	O	0.928727	0.039796	0.072228
O10	O	1.428727	0.539796	0.572228
O11	O	0.807707	0.121723	0.072198
O12	O	1.307707	0.621723	0.572198
O13	O	1.035981	0.123049	0.072224
O14	O	1.535981	0.623049	0.572224
Cu15	Cu	0.921212	0.122812	0.085383
Cu16	Cu	1.421212	0.622812	0.585383
Cu17	Cu	0.929397	0.117296	-0.085222
Cu18	Cu	1.429397	0.617296	0.414778
O19	O	0.914962	0.204976	0.072194
O20	O	1.414962	0.704976	0.572194
C21	C	0.781968	0.117688	0.000065
C22	C	1.281968	0.617688	0.500065
C23	C	0.694964	0.112604	0.000056
C24	C	1.194964	0.612604	0.500056
C25	C	0.644342	0.161650	0.000047
C26	C	1.144342	0.661650	0.500047
C27	C	0.562592	0.156871	0.000060
C28	C	1.062592	0.656871	0.500060
C29	C	0.531466	0.103045	0.000076
C30	C	1.031466	0.603045	0.500076
C31	C	0.582095	0.053995	0.000088
C32	C	1.082095	0.553995	0.500088
C33	C	0.663843	0.058775	0.000081
C34	C	1.163843	0.558775	0.500081
C35	C	0.288022	0.083234	0.000103
C36	C	0.788022	0.583234	0.500103
C37	C	0.206267	0.078457	0.000107
C38	C	0.706267	0.578457	0.500107
C39	C	0.186770	0.181334	0.000081
C40	C	0.686770	0.681334	0.500081
C41	C	0.268521	0.186109	0.000069
C42	C	0.768521	0.686109	0.500069
C43	C	0.319142	0.137059	0.000085
C44	C	0.819142	0.637059	0.500085
N45	N	0.447905	0.098158	0.000086
N46	N	0.947905	0.598158	0.500086
N47	N	0.402701	0.141946	0.000081
N48	N	0.902701	0.641946	0.500081
C49	C	0.931837	0.016231	0.000100
C50	C	1.431837	0.516231	0.500100
C51	C	0.930782	-0.047038	0.000106
C52	C	1.430782	0.452962	0.500106
C53	C	0.995791	-0.442917	0.000066
C54	C	1.495791	0.057083	0.500066
C55	C	0.994812	-0.502366	0.000059
C56	C	1.494812	-0.002366	0.500059
O57	O	1.055075	-0.536121	0.000034
O58	O	1.555075	-0.036121	0.500034
N59	N	0.922865	-0.528562	0.000052
N60	N	1.422865	-0.028562	0.500052
C61	C	0.851893	-0.495307	0.000042
C62	C	1.351893	0.004693	0.500042
O63	O	0.790607	-0.523048	0.000035
O64	O	1.290607	-0.023048	0.500035
C65	C	0.852873	-0.435859	0.000043
C66	C	1.352873	0.064141	0.500043
C67	C	0.924824	-0.409666	0.000059
C68	C	1.424824	0.090334	0.500059
C69	C	1.067736	-0.416723	0.000081
C70	C	1.567736	0.083277	0.500081
C71	C	1.068714	-0.357278	0.000089
C72	C	1.568714	0.142722	0.500089
C73	C	0.997748	-0.324027	0.000083
C74	C	1.497748	0.175973	0.500083
C75	C	0.925803	-0.350221	0.000067
C76	C	1.425803	0.149779	0.500067
C77	C	0.781902	-0.402605	0.000027
C78	C	1.281902	0.097395	0.500027
C79	C	0.782889	-0.343154	0.000027
C80	C	1.282889	0.156846	0.500027
C81	C	0.854839	-0.316960	0.000043
C82	C	1.354839	0.183040	0.500043
C83	C	0.855814	-0.257525	0.000069
C84	C	1.355814	0.242475	0.500069
N85	N	0.927761	-0.231328	0.000076
N86	N	1.427761	0.268672	0.500076
C87	C	0.998728	-0.264579	0.000083
C88	C	1.498728	0.235421	0.500083
C89	C	0.849841	-0.620151	0.000040
C90	C	1.349841	-0.120151	0.500040
C91	C	0.848860	-0.679598	0.000046
C92	C	1.348860	-0.179598	0.500046
C93	C	0.991779	-0.686653	0.000061
C94	C	1.491779	-0.186653	0.500061
C95	C	0.992759	-0.627205	0.000061
C96	C	1.492759	-0.127205	0.500061
C97	C	0.921788	-0.593955	0.000047
C98	C	1.421788	-0.093955	0.500047
C99	C	1.000777	-0.139740	0.000101
C100	C	1.500777	0.360260	0.500101
C101	C	1.001749	-0.080289	0.000113
C102	C	1.501749	0.419711	0.500113
C103	C	0.858831	-0.073240	0.000093
C104	C	1.358831	0.426760	0.500093
C105	C	0.857858	-0.132685	0.000086
C106	C	1.357858	0.367315	0.500086
C107	C	0.928838	-0.165934	0.000087
C108	C	1.428838	0.334066	0.500087
O109	O	0.795583	-0.223733	0.000090
O110	O	1.295583	0.276267	0.500090
O111	O	1.060004	-0.236831	0.000079
O112	O	1.560004	0.263169	0.500079
C113	C	1.068641	0.122420	0.000095
C114	C	1.568641	0.622420	0.500095
C115	C	1.155645	0.127504	0.000098
C116	C	1.655645	0.627504	0.500098
C117	C	0.918772	0.223877	0.000060
C118	C	1.418772	0.723877	0.500060
C119	C	0.919827	0.287146	0.000048
C120	C	1.419827	0.787146	0.500048
N121	N	0.915462	0.126692	0.205377
N122	N	1.415462	0.626692	0.705377
N123	N	0.935153	0.113412	-0.205216
N124	N	1.435153	0.613412	0.294784
C125	C	0.966893	0.091901	0.250784
C126	C	1.466893	0.591901	0.750784
C127	C	0.962551	0.094840	0.341591
C128	C	1.462551	0.594840	0.841591
C129	C	0.906782	0.132574	0.386989
C130	C	1.406782	0.632574	0.886989
C131	C	0.855345	0.167366	0.341576
C132	C	1.355345	0.667366	0.841576
C133	C	0.859684	0.164424	0.250771
C134	C	1.359684	0.664424	0.750771
C135	C	0.888055	0.145261	0.658566
C136	C	1.388055	0.645261	1.158566
C137	C	0.883722	0.148203	0.749378
C138	C	1.383722	0.648203	1.249378
C139	C	0.990928	0.075676	0.749386
C140	C	1.490928	0.575676	1.249386
C141	C	0.995265	0.072738	0.658579
C142	C	1.495265	0.572738	1.158579
C143	C	0.943825	0.107529	0.613174
C144	C	1.443825	0.607529	1.113174
N145	N	0.902344	0.135581	0.479808
N146	N	1.402344	0.635581	0.979808
N147	N	0.948260	0.104518	0.520356
N148	N	1.448260	0.604518	1.020356
H149	H	0.145546	0.221267	0.000069
H150	H	0.645546	0.721267	0.500069
H151	H	1.012310	0.061176	0.213826
H152	H	1.512310	0.561176	0.713826
O153	O	1.146322	-0.329034	0.000098
O154	O	1.646322	0.170966	0.500098
H155	H	1.135094	-0.282109	0.000106
H156	H	1.635094	0.217891	0.500106
O157	O	1.077332	-0.175595	0.000118
O158	O	1.577332	0.324405	0.500118
H159	H	1.114614	-0.167766	-0.058666
H160	H	1.614614	0.332234	0.441334
O161	O	1.068322	-0.722526	0.000067
O162	O	1.568322	-0.222526	0.500067
H163	H	1.118522	-0.694328	0.000083
H164	H	1.618522	-0.194328	0.500083
O165	O	0.718442	0.005874	0.000096
O166	O	1.218442	0.505874	0.500096
H167	H	0.780515	0.018240	0.000100
H168	H	1.280515	0.518240	0.500100
O169	O	0.804214	0.201943	0.201782
O170	O	1.304214	0.701943	0.701782
H171	H	0.813018	0.247349	0.219176
H172	H	1.313018	0.747349	0.719176
H173	H	0.669678	0.205481	0.000033
H174	H	1.169678	0.705481	0.500033
O175	O	0.771252	-0.707843	0.000040
O176	O	1.271252	-0.207843	0.500040
H177	H	0.764561	-0.732859	0.058839
H178	H	1.264561	-0.232859	0.558839
O179	O	0.507990	0.209770	0.000050
O180	O	1.007990	0.709770	0.500050
H181	H	0.543368	0.248001	0.000028
H182	H	1.043368	0.748001	0.500028
H183	H	0.846173	0.173590	0.621605
H184	H	1.346173	0.673590	1.121605
H185	H	0.180928	0.034624	0.000119
H186	H	0.680928	0.534624	0.500119
H187	H	0.809932	0.198088	0.378545
H188	H	1.309932	0.698088	0.878545
H189	H	0.838305	0.178933	0.786337
H190	H	1.338305	0.678933	1.286337
O191	O	0.302093	0.244164	0.000074
O192	O	0.802093	0.744164	0.500074
H193	H	0.253156	0.277468	0.000083
H194	H	0.753156	0.777468	0.500083
O195	O	0.548525	-0.004060	0.000113
O196	O	1.048525	0.495940	0.500113
H197	H	0.571708	-0.029714	-0.058675
H198	H	1.071708	0.470286	0.441325
O199	O	1.079356	-0.052037	0.000117
O200	O	1.579356	0.447963	0.500117
H201	H	1.128538	-0.085150	0.000107
H202	H	1.628538	0.414850	0.500107
O203	O	0.342612	0.030332	0.000122
O204	O	0.842612	0.530332	0.500122
H205	H	0.334415	0.002848	-0.058671
H206	H	0.834415	0.502848	0.441329
O207	O	1.144284	-0.452582	0.000101
O208	O	1.644284	0.047418	0.500101
H209	H	1.194468	-0.424371	0.000120
H210	H	1.694468	0.075629	0.500120
H211	H	0.792043	-0.593082	0.000036
H212	H	1.292043	-0.093082	0.500036
O213	O	1.070362	-0.598954	0.000062
O214	O	1.570362	-0.098954	0.500062
H215	H	1.119541	-0.632069	0.000060
H216	H	1.619541	-0.132069	0.500060
O217	O	0.704298	-0.430849	0.000007
O218	O	1.204298	0.069151	0.500007
H219	H	0.655124	-0.397731	-0.000009
H220	H	1.155124	0.102269	0.499991
H221	H	0.725094	-0.316084	0.000014
H222	H	1.225094	0.183916	0.500014
O223	O	0.780257	-0.160943	0.000071
O224	O	1.280257	0.339057	0.500071
H225	H	0.731075	-0.127831	0.000064
H226	H	1.231075	0.372169	0.500064
O227	O	0.782289	-0.037371	0.000089
O228	O	1.282289	0.462629	0.500089
H229	H	0.782143	-0.012016	-0.058711
H230	H	1.282143	0.487984	0.441289
H231	H	1.004430	0.066510	0.378560
H232	H	1.504430	0.566510	0.878560
O233	O	1.046401	0.038148	0.798356
O234	O	1.546401	0.538148	1.298356
H235	H	1.034013	0.046528	0.869125
H236	H	1.534013	0.546528	1.369125
H237	H	1.040677	0.042013	0.621617
H238	H	1.540677	0.542013	1.121617
