data_functionalizedCrystal
_audit_creation_method	'MofGen! by Chris Wilmer'
_symmetry_space_group_name_H-M	'P1'
_symmetry_Int_Tables_number	1
_symmetry_cell_setting	triclinic
loop_
_symmetry_equiv_pos_as_xyz
  x,y,z
_cell_length_a	10.540535
_cell_length_b	10.540539
_cell_length_c	13.448316
_cell_angle_alpha	89.995557
_cell_angle_beta	89.995644
_cell_angle_gamma	84.524567
loop_
_atom_site_label
_atom_site_type_symbol
_atom_site_fract_x
_atom_site_fract_y
_atom_site_fract_z
O1	O	1.685894	0.178876	-0.082632
O2	O	1.316481	0.195738	-0.082646
O3	O	1.509616	0.002600	-0.082638
O4	O	1.492760	0.372014	-0.082641
O5	O	1.509591	0.002588	0.082746
O6	O	1.316456	0.195726	0.082738
O7	O	1.685870	0.178864	0.082751
Cu8	Cu	1.501161	0.187294	0.097846
Cu9	Cu	1.501190	0.187308	-0.097740
O10	O	1.492735	0.372002	0.082743
C11	C	1.269165	0.194469	0.000044
C12	C	1.128217	0.190689	0.000039
C13	C	1.091546	0.049675	0.000044
C14	C	0.944946	0.045698	0.000429
C15	C	0.918867	0.255052	0.094309
C16	C	1.065632	0.258053	0.094378
C17	C	1.065544	0.260119	-0.093701
C18	C	0.919198	0.253597	-0.094930
C19	C	1.508339	-0.044709	0.000053
C20	C	1.504557	-0.185657	0.000047
C21	C	1.359640	-0.369081	-0.000329
C22	C	1.363474	-0.222463	0.000043
C23	C	1.572439	-0.247322	0.094492
C24	C	1.567624	-0.393867	0.094571
C25	C	1.570521	-0.394371	-0.093501
C26	C	1.571821	-0.247389	-0.094750
C27	C	1.733185	0.180133	0.000059
C28	C	1.874134	0.183913	0.000058
C29	C	1.494011	0.419311	0.000051
C30	C	1.497793	0.560259	0.000050
N31	N	1.501150	0.187283	0.235410
N32	N	1.501211	0.187309	-0.235304
C33	C	1.586697	0.101797	0.287454
C34	C	1.586705	0.101796	0.391557
C35	C	1.501171	0.187288	0.443614
C36	C	1.415614	0.272778	0.391563
C37	C	1.415601	0.272772	0.287462
C38	C	1.415650	0.272787	0.608543
C39	C	1.415664	0.272795	0.712652
C40	C	1.586753	0.101811	0.712639
C41	C	1.586740	0.101805	0.608537
C42	C	1.501185	0.187297	0.556493
H43	H	0.916483	-0.009676	0.068393
F44	F	1.286887	-0.408998	0.087453
F45	F	1.700242	-0.456571	0.100187
H46	H	1.345938	0.342381	0.245089
F47	F	1.677742	0.010809	0.232060
H48	H	0.871510	0.356818	0.097547
F49	F	1.707862	-0.218109	0.099090
F50	F	1.324624	0.363786	0.768048
H51	H	1.310060	-0.179854	-0.067659
F52	F	1.286804	-0.406452	-0.088856
H53	H	1.525264	-0.204727	0.164771
F54	F	1.502019	-0.430735	0.186842
H55	H	0.887954	0.206235	0.164722
F56	F	1.293138	-0.167884	0.088675
F57	F	1.094496	0.395742	-0.094873
H58	H	1.524870	-0.425918	-0.165084
F59	F	1.507410	-0.193382	-0.186086
H60	H	1.656414	0.032201	0.755019
H61	H	1.674682	-0.223169	-0.100449
F62	F	1.677752	0.010812	0.446947
H63	H	1.672426	-0.441599	-0.094132
H64	H	1.656394	0.032198	0.566152
F65	F	1.324575	0.363760	0.446967
F66	F	0.906608	-0.027021	-0.087863
F67	F	1.146414	-0.021102	-0.088288
F68	F	1.324586	0.363774	0.553158
H69	H	1.108014	0.216122	-0.165165
H70	H	1.134994	-0.003574	0.067535
H71	H	1.088663	0.361427	0.098405
F72	F	1.118129	0.195244	0.186821
F73	F	0.881862	0.185909	-0.186071
H74	H	0.870151	0.354471	-0.100915
