data_functionalizedCrystal
_audit_creation_method	'MofGen! by Chris Wilmer'
_symmetry_space_group_name_H-M	'P1'
_symmetry_Int_Tables_number	1
_symmetry_cell_setting	triclinic
loop_
_symmetry_equiv_pos_as_xyz
  x,y,z
_cell_length_a	12.759401
_cell_length_b	12.759400
_cell_length_c	12.759401
_cell_angle_alpha	90.007193
_cell_angle_beta	90.004381
_cell_angle_gamma	90.014845
loop_
_atom_site_label
_atom_site_type_symbol
_atom_site_fract_x
_atom_site_fract_y
_atom_site_fract_z
Zn1	Zn	1.606109	-0.418453	0.593981
Zn2	Zn	1.606047	-0.594097	0.418301
Zn3	Zn	1.430454	-0.418433	0.418320
Zn4	Zn	1.430400	-0.594090	0.593942
O5	O	1.518253	-0.506268	0.506136
O6	O	1.753122	-0.441763	0.570685
O7	O	1.582751	-0.570789	0.271283
O8	O	1.453804	-0.271414	0.441646
O9	O	1.753076	-0.570808	0.441613
O10	O	1.582857	-0.271429	0.570703
O11	O	1.453744	-0.441729	0.271297
O12	O	1.283426	-0.441723	0.441609
O13	O	1.453711	-0.570797	0.740969
O14	O	1.283386	-0.570778	0.570638
O15	O	1.582804	-0.441757	0.740997
O16	O	1.582698	-0.741117	0.441576
O17	O	1.453651	-0.741112	0.570619
C18	C	1.245285	-0.506249	0.506122
C19	C	1.128509	-0.506266	0.506141
C20	C	1.073653	-0.573572	0.573215
C21	C	0.963929	-0.573586	0.573226
C22	C	0.963925	-0.438983	0.439080
C23	C	1.073648	-0.438965	0.439075
C24	C	1.128514	-0.640873	0.640281
C25	C	1.073659	-0.708185	0.707359
C26	C	0.963935	-0.708199	0.707371
C27	C	0.909066	-0.640899	0.640303
C28	C	1.518190	-0.779235	0.506114
C29	C	1.518260	-0.896012	0.506140
C30	C	1.585529	-0.950842	0.439022
C31	C	1.585593	-1.060566	0.439054
C32	C	1.451110	-1.060621	0.573326
C33	C	1.451052	-0.950899	0.573298
C34	C	1.652737	-0.895955	0.371863
C35	C	1.720011	-0.950784	0.304739
C36	C	1.720075	-1.060508	0.304771
C37	C	1.652866	-1.115403	0.371928
C38	C	1.792286	-0.506288	0.506151
C39	C	1.909062	-0.506297	0.506158
C40	C	1.518259	-0.506279	0.780169
C41	C	1.518261	-0.506283	0.896946
C42	C	1.518344	-0.232235	0.506181
C43	C	1.518383	-0.115458	0.506200
C44	C	1.585467	-0.439098	1.061549
C45	C	1.585472	-0.439100	0.951825
C46	C	1.451048	-0.573477	0.951797
C47	C	1.451050	-0.573479	1.061519
C48	C	1.652675	-0.371902	1.116423
C49	C	1.719889	-0.304710	1.061580
C50	C	1.719894	-0.304712	0.951856
C51	C	1.652685	-0.371906	0.896975
C52	C	1.518244	-0.506283	1.233169
C53	C	1.518257	-0.506284	1.116392
H54	H	1.118312	-0.384151	0.384465
Cl55	Cl	1.366621	-1.129632	0.657742
Cl56	Cl	1.652516	-1.253342	0.371532
Cl57	Cl	1.804507	-0.881776	0.220328
Cl58	Cl	1.804385	-0.220252	1.130571
Cl59	Cl	1.366485	-0.881965	0.657679
Cl60	Cl	1.652672	-0.371894	1.254361
H61	H	1.774630	-0.250008	0.907206
Cl62	Cl	1.366558	-0.657938	0.882802
H63	H	1.652702	-0.371911	0.807630
H64	H	1.652689	-0.806612	0.371827
H65	H	1.396322	-0.628188	1.106173
H66	H	1.118340	-0.762971	0.761970
H67	H	1.774860	-1.105148	0.250123
Cl68	Cl	0.894976	-0.792810	0.791705
H69	H	1.217857	-0.640871	0.640277
Cl70	Cl	0.894947	-0.354388	0.354771
Cl71	Cl	0.771126	-0.640910	0.640329
