data_functionalizedCrystal
_audit_creation_method	'MofGen! by Chris Wilmer'
_symmetry_space_group_name_H-M	'P1'
_symmetry_Int_Tables_number	1
_symmetry_cell_setting	triclinic
loop_
_symmetry_equiv_pos_as_xyz
  x,y,z
_cell_length_a	29.839131
_cell_length_b	18.050591
_cell_length_c	18.050582
_cell_angle_alpha	90.020922
_cell_angle_beta	89.974523
_cell_angle_gamma	89.962574
loop_
_atom_site_label
_atom_site_type_symbol
_atom_site_fract_x
_atom_site_fract_y
_atom_site_fract_z
Zn1	Zn	-0.178930	-1.135224	-0.420016
Zn2	Zn	-0.254052	-1.135106	-0.295820
Zn3	Zn	-0.178932	-1.011044	-0.295827
Zn4	Zn	-0.254028	-1.010963	-0.419956
O5	O	-0.216485	-1.073084	-0.357905
O6	O	-0.188904	-1.239133	-0.403564
O7	O	-0.244098	-1.118634	-0.191896
O8	O	-0.116064	-1.027600	-0.312330
O9	O	-0.244096	-1.239047	-0.312317
O10	O	-0.116063	-1.118835	-0.403571
O11	O	-0.188907	-1.027485	-0.191902
O12	O	-0.188884	-0.907108	-0.312271
O13	O	-0.244056	-1.027462	-0.523888
O14	O	-0.244057	-0.907049	-0.403467
O15	O	-0.188881	-1.118756	-0.523933
O16	O	-0.316916	-1.118555	-0.312258
O17	O	-0.316898	-1.027348	-0.403460
C18	C	-0.216469	-0.880132	-0.357864
C19	C	-0.216472	-0.797586	-0.357864
C20	C	-0.333208	-1.072950	-0.357868
C21	C	-0.383142	-1.072961	-0.357877
C22	C	-0.216465	-1.073113	-0.551611
C23	C	-0.216457	-1.073126	-0.634156
C24	C	-0.692782	-1.120663	-0.310485
C25	C	-0.880455	-1.120754	-0.310514
O26	O	-0.904717	-1.161206	-0.270192
N27	N	-0.903927	-1.073238	-0.357961
C28	C	-0.880478	-1.025700	-0.405407
O29	O	-0.904749	-0.985292	-0.445769
C30	C	-0.692806	-1.025612	-0.405381
C31	C	-0.669337	-1.073126	-0.357926
C32	C	-0.669312	-1.168173	-0.263035
C33	C	-0.622397	-1.168147	-0.263025
C34	C	-0.598951	-1.120610	-0.310466
C35	C	-0.622421	-1.073100	-0.357917
C36	C	-0.669358	-0.978078	-0.452831
C37	C	-0.622437	-0.978062	-0.452822
C38	C	-0.598967	-1.025575	-0.405367
C39	C	-0.552060	-1.025537	-0.405348
N40	N	-0.528588	-1.073053	-0.357902
C41	C	-0.552033	-1.120589	-0.310461
C42	C	-0.979009	-1.025748	-0.405416
C43	C	-1.025927	-1.025769	-0.405422
C44	C	-1.025900	-1.120824	-0.310530
C45	C	-0.978982	-1.120799	-0.310521
C46	C	-0.955537	-1.073264	-0.357970
C47	C	-0.453508	-1.120530	-0.310444
C48	C	-0.406588	-1.120497	-0.310436
C49	C	-0.406619	-1.025445	-0.405331
C50	C	-0.453534	-1.025474	-0.405336
C51	C	-0.476977	-1.073023	-0.357890
O52	O	-0.527769	-0.985113	-0.445655
O53	O	-0.527755	-1.161002	-0.270116
C54	C	-0.739698	-1.120689	-0.310495
C55	C	-0.763167	-1.073178	-0.357946
C56	C	-0.739722	-1.025642	-0.405387
C57	C	-0.810085	-1.073199	-0.357951
C58	C	-0.833531	-1.120736	-0.310510
C59	C	-0.810059	-1.168252	-0.263064
C60	C	-0.763143	-1.168225	-0.263054
C61	C	-0.763194	-0.978126	-0.452833
C62	C	-0.810109	-0.978155	-0.452838
C63	C	-0.833555	-1.025692	-0.405397
C64	C	-0.099307	-1.073239	-0.357958
C65	C	-0.049373	-1.073305	-0.357981
C66	C	-0.216502	-1.266790	-0.357947
C67	C	-0.216510	-1.349336	-0.357964
C68	C	-0.186434	-0.598146	-0.308386
C69	C	-0.227410	-0.548711	-0.290106
C70	C	-0.216486	-0.646456	-0.357897
C71	C	-0.175525	-0.548810	-0.376175
C72	C	-0.216495	-0.500471	-0.357928
C73	C	-0.257483	-0.598108	-0.339583
C74	C	-0.205570	-0.598211	-0.425683
C75	C	-0.246574	-0.548798	-0.407429
C76	C	-0.216480	-0.730554	-0.357878
C77	C	-0.216506	-0.416374	-0.357948
C78	C	-0.246420	-1.023518	-0.833583
C79	C	-0.257404	-1.091269	-0.882980
C80	C	-0.216423	-1.073162	-0.785287
C81	C	-0.205426	-1.005449	-0.882971
C82	C	-0.216390	-1.073192	-0.931272
C83	C	-0.227429	-1.140949	-0.833597
C84	C	-0.175431	-1.055083	-0.833584
C85	C	-0.186400	-1.122881	-0.882959
C86	C	-0.216442	-1.073145	-0.701189
C87	C	-0.216371	-1.073218	-1.015369
C88	C	-0.216473	-1.073098	-0.164953
C89	C	-0.216355	-1.073230	-0.082407
H90	H	-0.472590	-1.159250	-0.271810
C91	C	-0.193129	-0.929055	-0.911935
C92	C	-0.228195	-0.901764	-0.955645
C93	C	-0.216889	-0.831388	-0.982329
H94	H	-0.166632	-0.932357	-0.940938
H95	H	-0.188178	-0.896520	-0.871376
H96	H	-0.233140	-0.934291	-0.996198
H97	H	-0.254695	-0.898444	-0.926658
H98	H	-0.211938	-0.798853	-0.941770
H99	H	-0.190392	-0.834697	-1.011330
H100	H	-0.240681	-0.812860	-1.011984
C101	C	-0.239634	-0.519610	-0.213688
C102	C	-0.204531	-0.475889	-0.186597
C103	C	-0.215765	-0.449063	-0.116202
H104	H	-0.244567	-0.560083	-0.181075
H105	H	-0.266132	-0.490584	-0.216929
H106	H	-0.178041	-0.504913	-0.183351
H107	H	-0.199594	-0.435405	-0.219189
H108	H	-0.242262	-0.420038	-0.119443
H109	H	-0.220697	-0.489540	-0.083596
H110	H	-0.191951	-0.419390	-0.097814
C111	C	-0.737608	-1.219859	-0.211654
C112	C	-0.710623	-1.267410	-0.253743
C113	C	-0.687093	-1.314982	-0.206417
H114	H	-0.758245	-1.248241	-0.183389
H115	H	-0.719307	-1.191487	-0.179272
H116	H	-0.728923	-1.295780	-0.286113
H117	H	-0.689978	-1.239048	-0.282007
H118	H	-0.668791	-1.286609	-0.174035
H119	H	-0.707732	-1.343359	-0.178154
H120	H	-0.668778	-1.347246	-0.234967
C121	C	-0.381132	-0.973964	-0.456930
C122	C	-0.354166	-1.015986	-0.504571
C123	C	-0.330684	-0.968594	-0.552126
H124	H	-0.362819	-0.941602	-0.428574
H125	H	-0.401811	-0.945681	-0.485242
H126	H	-0.333490	-1.044257	-0.476262
H127	H	-0.372468	-1.048346	-0.532944
H128	H	-0.351363	-0.940310	-0.580437
H129	H	-0.312374	-0.936234	-0.523762
H130	H	-0.312389	-0.997099	-0.584459
H131	H	-0.603351	-0.939353	-0.491462
C132	C	-0.280214	-0.967494	-0.804626
C133	C	-0.258014	-0.914115	-0.761986
C134	C	-0.289130	-0.862494	-0.735306
H135	H	-0.301856	-0.992088	-0.774898
H136	H	-0.294734	-0.944081	-0.845186
H137	H	-0.243502	-0.937526	-0.721431
H138	H	-0.236374	-0.889503	-0.791697
H139	H	-0.303650	-0.839081	-0.775866
H140	H	-0.310771	-0.887094	-0.705581
H141	H	-0.274072	-0.826266	-0.706377
C142	C	-0.239783	-1.217398	-0.804849
C143	C	-0.208487	-1.269274	-0.830435
C144	C	-0.219852	-1.339702	-0.803957
H145	H	-0.268785	-1.230433	-0.822156
H146	H	-0.239712	-1.216950	-0.752217
H147	H	-0.208563	-1.269725	-0.883055
H148	H	-0.179484	-1.256264	-0.813129
H149	H	-0.219781	-1.339254	-0.751326
H150	H	-0.248854	-1.352729	-0.821266
H151	H	-0.198618	-1.374907	-0.821307
C152	C	-0.303695	-0.626753	-0.318772
C153	C	-0.315093	-0.601048	-0.248034
C154	C	-0.357660	-0.627414	-0.228841
H155	H	-0.303457	-0.679376	-0.318805
H156	H	-0.325079	-0.609439	-0.353703
H157	H	-0.293714	-0.618366	-0.213112
H158	H	-0.315340	-0.548428	-0.247983
H159	H	-0.379044	-0.610100	-0.263771
H160	H	-0.357419	-0.680036	-0.228877
H161	H	-0.365401	-0.609971	-0.180846
H162	H	-0.196318	-0.619970	-0.482978
C163	C	-0.129291	-0.520036	-0.396675
C164	C	-0.097964	-0.545056	-0.344647
C165	C	-0.055368	-0.518575	-0.363506
H166	H	-0.129633	-0.467415	-0.396969
H167	H	-0.121303	-0.537734	-0.444468
H168	H	-0.105950	-0.527354	-0.296867
H169	H	-0.097608	-0.597673	-0.344345
H170	H	-0.047379	-0.536273	-0.411299
H171	H	-0.055714	-0.465956	-0.363800
H172	H	-0.034106	-0.535553	-0.328212
C173	C	-0.478937	-0.973859	-0.456937
C174	C	-0.448360	-0.932235	-0.498492
C175	C	-0.471741	-0.884692	-0.546049
H176	H	-0.497274	-0.941464	-0.428587
H177	H	-0.497199	-1.002245	-0.489369
H178	H	-0.430106	-0.903851	-0.466064
H179	H	-0.430022	-0.964611	-0.526857
H180	H	-0.490003	-0.913078	-0.578482
H181	H	-0.490077	-0.852302	-0.517694
H182	H	-0.450998	-0.856450	-0.574255
H183	H	-0.292056	-1.106579	-0.904678
C184	C	-0.152490	-1.178885	-0.911578
C185	C	-0.109770	-1.160383	-0.885421
C186	C	-0.078524	-1.211966	-0.911758
H187	H	-0.152425	-1.178357	-0.964199
H188	H	-0.160335	-1.226958	-0.894553
H189	H	-0.101927	-1.112323	-0.902450
H190	H	-0.109821	-1.160917	-0.832803
H191	H	-0.086369	-1.260038	-0.894733
H192	H	-0.078463	-1.211433	-0.964379
H193	H	-0.049536	-1.199423	-0.894009
C194	C	-0.596978	-1.219701	-0.211389
C195	C	-0.608436	-1.203602	-0.137896
C196	C	-0.585037	-1.251091	-0.090309
H197	H	-0.565669	-1.212936	-0.218070
H198	H	-0.604650	-1.269604	-0.222274
H199	H	-0.600761	-1.153711	-0.127015
H200	H	-0.639740	-1.210371	-0.131191
H201	H	-0.592709	-1.300995	-0.101194
H202	H	-0.553730	-1.244323	-0.096997
H203	H	-0.592811	-1.240180	-0.040440
C204	C	-0.129256	-1.034493	-0.804660
C205	C	-0.117932	-0.963494	-0.829617
C206	C	-0.075403	-0.944489	-0.802977
H207	H	-0.107814	-1.069204	-0.822283
H208	H	-0.129534	-1.035037	-0.752032
H209	H	-0.117652	-0.962956	-0.882234
H210	H	-0.139363	-0.928767	-0.811996
H211	H	-0.075680	-0.945033	-0.750349
H212	H	-0.053964	-0.979205	-0.820601
H213	H	-0.067716	-0.896313	-0.819900
H214	H	-0.387480	-1.159189	-0.271790
C215	C	-1.051429	-0.974085	-0.456816
C216	C	-1.078397	-0.926508	-0.414727
C217	C	-1.101890	-0.878883	-0.462051
H218	H	-1.069742	-1.002394	-0.489222
H219	H	-1.030757	-0.945731	-0.485056
H220	H	-1.099067	-0.954859	-0.386500
H221	H	-1.060096	-0.898182	-0.382323
H222	H	-1.081217	-0.850529	-0.490290
H223	H	-1.120200	-0.907198	-0.494454
H224	H	-1.120187	-0.846592	-0.433500
C225	C	-0.953479	-1.172266	-0.258911
C226	C	-0.926589	-1.130239	-0.211249
C227	C	-0.903096	-1.177627	-0.163688
H228	H	-0.935113	-1.204615	-0.287262
H229	H	-0.974151	-1.200563	-0.230615
H230	H	-0.905919	-1.101954	-0.239542
H231	H	-0.944943	-1.097891	-0.182881
H232	H	-0.923769	-1.205924	-0.135392
H233	H	-0.884734	-1.209974	-0.192046
H234	H	-0.884852	-1.149118	-0.131340
C235	C	-1.051442	-1.172462	-0.259156
C236	C	-1.097553	-1.162341	-0.269361
C237	C	-1.121097	-1.209927	-0.222086
H238	H	-1.043849	-1.161728	-0.209195
H239	H	-1.043732	-1.222348	-0.270138
H240	H	-1.105259	-1.112467	-0.258374
H241	H	-1.105159	-1.173080	-0.319312
H242	H	-1.113388	-1.259813	-0.233067
H243	H	-1.113501	-1.199190	-0.172127
H244	H	-1.152386	-1.203072	-0.229008
C245	C	-0.280541	-0.520226	-0.463286
C246	C	-0.301840	-0.580281	-0.497461
C247	C	-0.333138	-0.553988	-0.548909
H248	H	-0.265659	-0.491302	-0.499708
H249	H	-0.302214	-0.490583	-0.438574
H250	H	-0.280170	-0.609912	-0.522173
H251	H	-0.316731	-0.609210	-0.461059
H252	H	-0.354811	-0.524345	-0.524198
H253	H	-0.318252	-0.525064	-0.585326
H254	H	-0.347596	-0.594731	-0.572099
C255	C	-0.953536	-0.974251	-0.457023
C256	C	-0.926570	-1.016247	-0.504686
C257	C	-0.903105	-0.968832	-0.552240
H258	H	-0.935224	-0.941886	-0.428667
H259	H	-0.974225	-0.945972	-0.485319
H260	H	-0.905883	-1.044514	-0.476394
H261	H	-0.944871	-1.048610	-0.533058
H262	H	-0.923794	-0.940552	-0.580536
H263	H	-0.884796	-0.936469	-0.523878
H264	H	-0.884809	-0.997319	-0.584589
C265	C	-0.694750	-0.926465	-0.504440
C266	C	-0.664166	-0.884854	-0.545996
C267	C	-0.687540	-0.837306	-0.593556
H268	H	-0.713084	-0.894061	-0.476093
H269	H	-0.713015	-0.954846	-0.536872
H270	H	-0.645910	-0.856475	-0.513568
H271	H	-0.645832	-0.917238	-0.574357
H272	H	-0.705805	-0.865687	-0.625989
H273	H	-0.705873	-0.804907	-0.565204
H274	H	-0.666793	-0.809073	-0.621763
C275	C	-0.835439	-1.219894	-0.211476
C276	C	-0.804848	-1.261493	-0.169902
C277	C	-0.828213	-1.309066	-0.122371
H278	H	-0.853714	-1.252303	-0.239845
H279	H	-0.853760	-1.191531	-0.179054
H280	H	-0.786534	-1.289853	-0.202319
H281	H	-0.786571	-1.229103	-0.141518
H282	H	-0.846535	-1.280703	-0.089949
H283	H	-0.846488	-1.341471	-0.150746
H284	H	-0.807461	-1.337292	-0.094152
C285	C	-0.835507	-0.926536	-0.504447
C286	C	-0.804926	-0.884919	-0.546002
C287	C	-0.828304	-0.837374	-0.593562
H288	H	-0.853842	-0.894137	-0.476099
H289	H	-0.853769	-0.954920	-0.536879
H290	H	-0.786671	-0.856537	-0.513574
H291	H	-0.786590	-0.917299	-0.574365
H292	H	-0.846566	-0.865758	-0.625994
H293	H	-0.846638	-0.804980	-0.565208
H294	H	-0.807558	-0.809136	-0.621768
H295	H	-0.688397	-1.206887	-0.224403
H296	H	-0.744108	-0.939417	-0.491466
H297	H	-0.161048	-0.619814	-0.266470
