data_functionalizedCrystal
_audit_creation_method	'MofGen! by Chris Wilmer'
_symmetry_space_group_name_H-M	'P1'
_symmetry_Int_Tables_number	1
_symmetry_cell_setting	triclinic
loop_
_symmetry_equiv_pos_as_xyz
  x,y,z
_cell_length_a	18.215405
_cell_length_b	12.759401
_cell_length_c	12.759393
_cell_angle_alpha	90.017176
_cell_angle_beta	89.963343
_cell_angle_gamma	89.974954
loop_
_atom_site_label
_atom_site_type_symbol
_atom_site_fract_x
_atom_site_fract_y
_atom_site_fract_z
Zn1	Zn	-0.292944	-1.606167	-0.593937
Zn2	Zn	-0.416029	-1.606034	-0.418239
Zn3	Zn	-0.292981	-1.430473	-0.418277
Zn4	Zn	-0.415974	-1.430427	-0.593881
O5	O	-0.354482	-1.518275	-0.506084
O6	O	-0.309279	-1.753171	-0.570639
O7	O	-0.399744	-1.582710	-0.271223
O8	O	-0.189992	-1.453855	-0.441618
O9	O	-0.399709	-1.753073	-0.441554
O10	O	-0.189965	-1.582936	-0.570675
O11	O	-0.309342	-1.453726	-0.271251
O12	O	-0.309289	-1.283446	-0.441563
O13	O	-0.399616	-1.453775	-0.740909
O14	O	-0.399651	-1.283412	-0.570578
O15	O	-0.309226	-1.582891	-0.740951
O16	O	-0.519006	-1.582665	-0.441499
O17	O	-0.518966	-1.453646	-0.570542
C18	C	-0.354468	-1.245308	-0.506069
C19	C	-0.354480	-1.128531	-0.506088
C20	C	-0.545688	-1.518165	-0.506033
C21	C	-0.627487	-1.518213	-0.506047
C22	C	-0.354411	-1.518343	-0.780117
C23	C	-0.354380	-1.518371	-0.896894
C24	C	-0.815678	-1.585551	-0.438977
C25	C	-0.892536	-1.585598	-0.439003
C26	C	-0.892534	-1.451135	-0.573265
C27	C	-0.815677	-1.451094	-0.573244
C28	C	-0.777251	-1.518300	-0.506094
C29	C	-0.930967	-1.518388	-0.506141
C30	C	-1.014300	-1.518439	-0.506169
C31	C	-0.693912	-1.518251	-0.506067
C32	C	-0.162529	-1.518415	-0.506157
C33	C	-0.080730	-1.518475	-0.506189
C34	C	-0.354496	-1.792309	-0.506098
C35	C	-0.354502	-1.909085	-0.506105
C36	C	-0.401607	-1.073679	-0.573155
C37	C	-0.401617	-0.963955	-0.573167
C38	C	-0.307370	-0.963945	-0.439035
C39	C	-0.307357	-1.073667	-0.439029
C40	C	-0.456023	-1.073684	-0.650592
C41	C	-0.456032	-0.963960	-0.650604
C42	C	-0.401424	-1.451163	-0.951736
C43	C	-0.401397	-1.451202	-1.061460
C44	C	-0.307277	-1.585659	-1.061490
C45	C	-0.307308	-1.585625	-0.951768
C46	C	-0.455761	-1.373532	-0.951719
C47	C	-0.455735	-1.373570	-1.061443
C48	C	-0.354500	-1.518269	-0.233116
C49	C	-0.354323	-1.518444	-0.116340
H50	H	-0.923820	-1.640361	-0.384351
N51	N	-0.435890	-1.113177	-0.758423
H52	H	-0.389899	-1.157182	-0.753881
H53	H	-0.477414	-1.157102	-0.787025
H54	H	-0.784388	-1.396330	-0.627904
N55	N	-0.933986	-1.378643	-0.645674
H56	H	-0.920660	-1.303581	-0.629282
H57	H	-0.920545	-1.394994	-0.720725
H58	H	-0.268977	-1.118324	-0.384424
H59	H	-0.784393	-1.640276	-0.384302
N60	N	-0.435473	-1.265852	-1.100971
H61	H	-0.472408	-1.212967	-1.074630
H62	H	-0.384964	-1.246627	-1.074646
H63	H	-0.510135	-1.107685	-0.621300
H64	H	-0.268953	-1.640416	-1.106183
H65	H	-0.269003	-0.919262	-0.384439
H66	H	-0.509873	-1.402683	-1.095454
H67	H	-0.435688	-0.929965	-0.727959
H68	H	-0.513015	-0.934150	-0.628663
N69	N	-0.256579	-1.658128	-0.892615
H70	H	-0.226756	-1.700736	-0.944029
H71	H	-0.222528	-1.615383	-0.847100
N72	N	-0.531274	-1.402302	-0.912238
H73	H	-0.564949	-1.415175	-0.973762
H74	H	-0.527972	-1.467911	-0.868228
H75	H	-0.435350	-1.296244	-0.917694
