data_functionalizedCrystal
_audit_creation_method	'MofGen! by Chris Wilmer'
_symmetry_space_group_name_H-M	'P1'
_symmetry_Int_Tables_number	1
_symmetry_cell_setting	triclinic
loop_
_symmetry_equiv_pos_as_xyz
  x,y,z
_cell_length_a	29.839134
_cell_length_b	29.839131
_cell_length_c	13.897441
_cell_angle_alpha	90.035143
_cell_angle_beta	90.033952
_cell_angle_gamma	90.034165
loop_
_atom_site_label
_atom_site_type_symbol
_atom_site_fract_x
_atom_site_fract_y
_atom_site_fract_z
Zn1	Zn	0.686762	-0.178926	0.545691
Zn2	Zn	0.686682	-0.254061	0.384379
Zn3	Zn	0.611633	-0.178936	0.384372
Zn4	Zn	0.611593	-0.254020	0.545595
O5	O	0.649167	-0.216486	0.465009
O6	O	0.749619	-0.188905	0.524336
O7	O	0.676709	-0.244117	0.249397
O8	O	0.621649	-0.116068	0.405808
O9	O	0.749560	-0.244107	0.405821
O10	O	0.676847	-0.116060	0.524329
O11	O	0.621571	-0.188923	0.249391
O12	O	0.548760	-0.188883	0.405715
O13	O	0.621581	-0.244037	0.680589
O14	O	0.548731	-0.244047	0.524165
O15	O	0.676808	-0.188866	0.680660
O16	O	0.676671	-0.316923	0.405728
O17	O	0.621503	-0.316893	0.524172
C18	C	0.532445	-0.216462	0.464929
C19	C	0.482510	-0.216463	0.464918
C20	C	0.649086	-0.333208	0.464961
C21	C	0.649093	-0.383143	0.464973
C22	C	0.125926	-0.187719	0.403458
C23	C	0.313599	-0.187707	0.403400
O24	O	0.337866	-0.163230	0.351055
N25	N	0.337065	-0.216470	0.464967
C26	C	0.313610	-0.245237	0.526557
O27	O	0.337876	-0.269699	0.578929
C28	C	0.125938	-0.245247	0.526620
C29	C	0.102474	-0.216485	0.465042
C30	C	0.102462	-0.158959	0.341886
C31	C	0.055547	-0.158964	0.341898
C32	C	0.032095	-0.187730	0.403481
C33	C	0.055559	-0.216490	0.465053
C34	C	0.102484	-0.274012	0.588214
C35	C	0.055563	-0.274011	0.588226
C36	C	0.032099	-0.245248	0.526648
C37	C	-0.014808	-0.245261	0.526649
N38	N	-0.038274	-0.216497	0.465082
C39	C	-0.014823	-0.187732	0.403498
C40	C	0.412141	-0.245231	0.526518
C41	C	0.459059	-0.245229	0.526502
C42	C	0.459044	-0.187697	0.403345
C43	C	0.412126	-0.187702	0.403358
C44	C	0.388675	-0.216467	0.464952
C45	C	-0.113349	-0.187745	0.403526
C46	C	-0.160268	-0.187754	0.403541
C47	C	-0.160249	-0.245283	0.526700
C48	C	-0.113334	-0.245276	0.526683
C49	C	-0.089885	-0.216503	0.465093
O50	O	-0.039104	-0.269722	0.578974
O51	O	-0.039097	-0.163267	0.351149
C52	C	0.172841	-0.187714	0.403447
C53	C	0.196305	-0.216475	0.465019
C54	C	0.172854	-0.245240	0.526602
C55	C	0.243223	-0.216473	0.465002
C56	C	0.266675	-0.187707	0.403419
C57	C	0.243208	-0.158943	0.341852
C58	C	0.196293	-0.158949	0.341863
C59	C	0.196320	-0.274004	0.588169
C60	C	0.243236	-0.273997	0.588152
C61	C	0.266687	-0.245231	0.526568
C62	C	0.677945	-0.692789	0.403425
C63	C	0.678001	-0.880462	0.403463
O64	O	0.702468	-0.904729	0.351096
N65	N	0.649261	-0.903928	0.465082
C66	C	0.620506	-0.880472	0.526701
O67	O	0.596066	-0.904738	0.579119
C68	C	0.620454	-0.692800	0.526667
C69	C	0.649193	-0.669337	0.465037
C70	C	0.706682	-0.669326	0.341801
C71	C	0.706666	-0.622410	0.341789
C72	C	0.677914	-0.598958	0.403400
C73	C	0.649177	-0.622421	0.465025
C74	C	0.591702	-0.669346	0.588290
C75	C	0.591692	-0.622425	0.588278
C76	C	0.620431	-0.598961	0.526648
C77	C	0.620408	-0.552054	0.526624
N78	N	0.649148	-0.528588	0.465005
C79	C	0.677901	-0.552040	0.403393
C80	C	0.620536	-0.979003	0.526712
C81	C	0.620548	-1.025921	0.526720
C82	C	0.678043	-1.025907	0.403483
C83	C	0.678028	-0.978989	0.403471
C84	C	0.649276	-0.955537	0.465093
C85	C	0.677865	-0.453514	0.403371
C86	C	0.677846	-0.406595	0.403361
C87	C	0.620352	-0.406612	0.526601
C88	C	0.620370	-0.453528	0.526608
C89	C	0.649130	-0.476978	0.464990
O90	O	0.595957	-0.527758	0.578971
O91	O	0.702345	-0.527767	0.350997
C92	C	0.677961	-0.739704	0.403438
C93	C	0.649224	-0.763168	0.465062
C94	C	0.620472	-0.739716	0.526674
C95	C	0.649237	-0.810086	0.465069
C96	C	0.677990	-0.833538	0.403458
C97	C	0.706730	-0.810072	0.341838
C98	C	0.706714	-0.763157	0.341826
C99	C	0.591731	-0.763181	0.588293
C100	C	0.591749	-0.810097	0.588300
C101	C	0.620502	-0.833549	0.526688
C102	C	0.766346	-0.216509	0.465090
C103	C	0.816280	-0.216520	0.465124
C104	C	0.649199	-0.216446	0.716602
C105	C	0.649213	-0.216429	0.823816
C106	C	0.649261	-0.099307	0.465078
C107	C	0.649301	-0.049373	0.465108
C108	C	0.649162	-0.216493	0.214395
C109	C	0.649235	-0.216383	0.107181
C110	C	0.649225	-0.216399	1.020112
C111	C	0.649217	-0.216417	0.910879
H112	H	-0.094262	-0.164313	0.353379
H113	H	0.597142	-1.045021	0.576896
O114	O	0.563834	-0.692109	0.648303
C115	C	0.573626	-0.680587	0.744452
H116	H	0.609513	-0.667660	0.749388
H117	H	0.569752	-0.711424	0.792119
H118	H	0.549531	-0.653360	0.769596
H119	H	0.121551	-0.135532	0.291738
H120	H	0.730140	-0.829175	0.291669
H121	H	-0.094229	-0.268700	0.576817
O122	O	0.032827	-0.130978	0.282058
C123	C	0.063594	-0.105598	0.227694
H124	H	0.097052	-0.104069	0.267205
H125	H	0.050060	-0.070195	0.217549
H126	H	0.068551	-0.122007	0.154368
H127	H	0.393024	-0.164279	0.353219
O128	O	0.592490	-0.383804	0.586553
C129	C	0.618052	-0.356614	0.648879
H130	H	0.653436	-0.370726	0.654919
H131	H	0.601790	-0.356065	0.723077
H132	H	0.619601	-0.321067	0.619042
H133	H	0.730116	-0.744056	0.291641
H134	H	0.121581	-0.297433	0.638357
O135	O	0.563815	-0.832817	0.648262
C136	C	0.538429	-0.802050	0.702619
H137	H	0.556820	-0.768588	0.705981
H138	H	0.533625	-0.815580	0.778615
H139	H	0.504315	-0.797105	0.667218
H140	H	0.730069	-0.603309	0.291607
O141	O	0.706049	-1.048699	0.343803
C142	C	0.735043	-1.075784	0.398859
H143	H	0.737752	-1.061613	0.474838
H144	H	0.769642	-1.076276	0.364129
H145	H	0.721183	-1.111361	0.402131
H146	H	0.478146	-0.164276	0.353201
O147	O	0.563776	-0.740354	0.648008
C148	C	0.534756	-0.713271	0.593010
H149	H	0.550619	-0.706248	0.519951
H150	H	0.528708	-0.680272	0.632280
H151	H	0.501474	-0.731391	0.582327
H152	H	0.597121	-0.959912	0.576893
H153	H	-0.179370	-0.164331	0.353394
O154	O	0.563825	-0.599624	0.648240
C155	C	0.589379	-0.572431	0.710579
H156	H	0.624766	-0.586535	0.716622
H157	H	0.573114	-0.571890	0.784774
H158	H	0.590921	-0.536882	0.680752
H159	H	0.177231	-0.297428	0.638320
H160	H	0.478159	-0.268655	0.576634
O161	O	0.705743	-0.383853	0.343359
C162	C	0.695945	-0.395353	0.247200
H163	H	0.678686	-0.429434	0.245171
H164	H	0.728380	-0.396946	0.204029
H165	H	0.672849	-0.368979	0.214645
O166	O	0.389434	-0.273221	0.586377
C167	C	0.420212	-0.298598	0.640720
H168	H	0.453640	-0.300123	0.601186
H169	H	0.406646	-0.334003	0.650872
H170	H	0.425237	-0.282190	0.714043
O171	O	0.032853	-0.301995	0.648094
C172	C	0.063628	-0.327368	0.702455
H173	H	0.097057	-0.328901	0.662925
H174	H	0.050059	-0.362771	0.712627
H175	H	0.068654	-0.310951	0.775769
O176	O	0.705969	-0.956149	0.343743
C177	C	0.734975	-0.928977	0.398723
H178	H	0.719112	-0.921935	0.471782
H179	H	0.741001	-0.895994	0.359437
H180	H	0.768268	-0.947031	0.409406
H181	H	0.177193	-0.135527	0.291721
O182	O	-0.183104	-0.273182	0.586490
C183	C	-0.229546	-0.267021	0.573275
H184	H	-0.235941	-0.232335	0.541809
H185	H	-0.247357	-0.270103	0.645518
H186	H	-0.242893	-0.293643	0.521814
H187	H	0.262311	-0.135523	0.291705
H188	H	0.262336	-0.297423	0.638294
H189	H	0.730099	-0.688415	0.291629
O190	O	0.705866	-0.476236	0.343560
C191	C	0.750631	-0.464723	0.364767
H192	H	0.751533	-0.430647	0.401858
H193	H	0.770791	-0.463110	0.295201
H194	H	0.765765	-0.491099	0.414389
H195	H	0.596970	-0.472633	0.576795
