data_functionalizedCrystal
_audit_creation_method	'MofGen! by Chris Wilmer'
_symmetry_space_group_name_H-M	'P1'
_symmetry_Int_Tables_number	1
_symmetry_cell_setting	triclinic
loop_
_symmetry_equiv_pos_as_xyz
  x,y,z
_cell_length_a	15.072220
_cell_length_b	11.026607
_cell_length_c	11.026607
_cell_angle_alpha	108.586017
_cell_angle_beta	90.002838
_cell_angle_gamma	89.987450
loop_
_atom_site_label
_atom_site_type_symbol
_atom_site_fract_x
_atom_site_fract_y
_atom_site_fract_z
O1	O	0.073780	-1.726747	-0.533619
O2	O	0.073782	-1.360167	-0.472855
O3	O	0.073778	-1.513075	-0.319947
O4	O	0.073784	-1.573839	-0.686527
O5	O	-0.073787	-1.513030	-0.319947
O6	O	-0.073783	-1.360121	-0.472855
O7	O	-0.073785	-1.726701	-0.533619
Zn8	Zn	-0.097213	-1.543404	-0.503237
Zn9	Zn	0.097210	-1.543465	-0.503237
O10	O	-0.073781	-1.573793	-0.686527
C11	C	-0.000001	-1.312485	-0.461645
C12	C	-0.000000	-1.170471	-0.428228
C13	C	-0.000004	-1.501843	-0.272287
C14	C	-0.000000	-1.468426	-0.130273
N15	N	-0.229902	-1.543372	-0.503239
C16	C	-0.589104	-1.543461	-0.503231
C17	C	-0.551495	-1.461214	-0.584621
C18	C	-0.448669	-1.461539	-0.585055
C19	C	-0.410899	-1.543416	-0.503235
C20	C	-0.448191	-1.682724	-0.561322
C21	C	-0.551049	-1.682297	-0.561935
C22	C	-0.551206	-1.487517	-0.363704
C23	C	-0.448343	-1.484661	-0.363929
C24	C	-0.310186	-1.543398	-0.503236
C25	C	-0.689817	-1.543488	-0.503235
N26	N	0.229899	-1.543505	-0.503227
C27	C	-0.000000	-1.774384	-0.544828
C28	C	0.000005	-1.916398	-0.578245
C29	C	0.000002	-1.116821	-0.520498
C30	C	0.000003	-0.970043	-0.485962
C31	C	0.000002	-1.585026	-0.734187
C32	C	0.000005	-1.618443	-0.876200
C33	C	0.000001	-1.560695	-0.076624
C34	C	0.000004	-1.526160	0.070155
H35	H	-0.423458	-1.358924	-0.546162
H36	H	-0.424053	-1.500285	-0.687991
N37	N	0.000022	-0.999477	-0.716762
H38	H	0.000027	-0.943506	-0.773591
H39	H	-0.054680	-1.055271	-0.734646
H40	H	0.000021	-1.107738	-0.323666
N41	N	0.000003	-1.199897	-0.659010
H42	H	-0.054699	-1.255696	-0.676998
H43	H	0.054742	-1.255650	-0.676906
N44	N	-0.584295	-1.324948	-0.533401
H45	H	-0.532004	-1.265050	-0.506823
H46	H	-0.623866	-1.315322	-0.456984
H47	H	0.000024	-0.907314	-0.381393
N48	N	-0.582822	-1.741719	-0.697892
H49	H	-0.530012	-1.767942	-0.756863
H50	H	-0.619627	-1.677431	-0.723736
H51	H	-0.575925	-1.746954	-0.506545
N52	N	-0.000007	-1.756959	0.040721
H53	H	-0.000007	-1.813788	0.096691
H54	H	0.054696	-1.774855	-0.015091
H55	H	-0.000005	-1.665258	-0.139357
N56	N	0.000013	-1.387643	0.153232
H57	H	0.000016	-1.382605	0.246309
H58	H	-0.054691	-1.343821	0.134424
N59	N	0.000009	-1.329916	-0.047192
H60	H	0.000012	-1.324878	0.045885
H61	H	-0.054696	-1.286094	-0.066000
H62	H	-0.423723	-1.746594	-0.504833
N63	N	-0.585672	-1.512099	-0.720186
H64	H	-0.625416	-1.588190	-0.729105
H65	H	-0.533940	-1.539084	-0.781086
H66	H	-0.575526	-1.547156	-0.302793
N67	N	-0.414056	-1.742575	-0.695974
H68	H	-0.433772	-1.689630	-0.750834
H69	H	-0.438429	-1.832196	-0.732421
H70	H	-0.577196	-1.386566	-0.315058
H71	H	-0.423970	-1.382037	-0.320523
H72	H	-0.422636	-1.538441	-0.298276
