data_functionalizedCrystal
_audit_creation_method	'MofGen! by Chris Wilmer'
_symmetry_space_group_name_H-M	'P1'
_symmetry_Int_Tables_number	1
_symmetry_cell_setting	triclinic
loop_
_symmetry_equiv_pos_as_xyz
  x,y,z
_cell_length_a	19.121102
_cell_length_b	19.121063
_cell_length_c	19.121504
_cell_angle_alpha	94.868905
_cell_angle_beta	85.146587
_cell_angle_gamma	90.126902
loop_
_atom_site_label
_atom_site_type_symbol
_atom_site_fract_x
_atom_site_fract_y
_atom_site_fract_z
Zn1	Zn	1.079009	-0.344575	-0.457756
Zn2	Zn	1.412342	-0.011241	-0.124422
Zn3	Zn	1.745675	0.322092	0.208911
Zn4	Zn	1.069182	-0.456954	-0.344679
Zn5	Zn	1.402515	-0.123620	-0.011345
Zn6	Zn	1.735849	0.209713	0.321988
Zn7	Zn	0.956620	-0.334299	-0.334672
Zn8	Zn	1.289953	-0.000966	-0.001338
Zn9	Zn	1.623286	0.332367	0.331995
Zn10	Zn	0.956714	-0.456745	-0.457284
Zn11	Zn	1.290047	-0.123411	-0.123951
Zn12	Zn	1.623381	0.209922	0.209383
O13	O	1.015381	-0.398143	-0.398597
O14	O	1.348714	-0.064810	-0.065264
O15	O	1.682048	0.268524	0.268069
O16	O	1.175994	-0.363870	-0.447141
O17	O	1.509327	-0.030537	-0.113808
O18	O	1.842661	0.302797	0.219526
O19	O	1.050098	-0.436471	-0.244714
O20	O	1.383432	-0.103137	0.088619
O21	O	1.716765	0.230196	0.421952
O22	O	0.976928	-0.237387	-0.347009
O23	O	1.310261	0.095946	-0.013675
O24	O	1.643594	0.429279	0.319658
O25	O	1.168774	-0.446434	-0.364064
O26	O	1.502108	-0.113101	-0.030731
O27	O	1.835441	0.220232	0.302603
O28	O	1.066847	-0.244937	-0.437438
O29	O	1.400180	0.088397	-0.104104
O30	O	1.733513	0.421730	0.229229
O31	O	0.967399	-0.346357	-0.237362
O32	O	1.300733	-0.013023	0.095971
O33	O	1.634066	0.320310	0.429304
O34	O	0.858344	-0.346154	-0.346551
O35	O	1.191677	-0.012821	-0.013218
O36	O	1.525010	0.320513	0.320116
O37	O	0.977089	-0.446078	-0.555983
O38	O	1.310422	-0.112745	-0.222650
O39	O	1.643755	0.220589	0.110683
O40	O	0.858413	-0.436114	-0.436634
O41	O	1.191746	-0.102781	-0.103300
O42	O	1.525080	0.230552	0.230033
O43	O	1.066938	-0.363667	-0.556330
O44	O	1.400271	-0.030334	-0.222996
O45	O	1.733605	0.302999	0.110337
O46	O	1.050190	-0.555201	-0.363606
O47	O	1.383523	-0.221868	-0.030273
O48	O	1.716857	0.111466	0.303060
O49	O	0.967560	-0.555047	-0.446337
O50	O	1.300893	-0.221714	-0.113004
O51	O	1.634227	0.111619	0.220330
C52	C	0.832893	-0.389997	-0.390456
C53	C	1.166226	-0.056664	-0.057122
C54	C	1.499560	0.276670	0.276211
C55	C	0.754824	-0.386530	-0.386990
C56	C	1.088157	-0.053196	-0.053657
C57	C	1.421491	0.280137	0.279677
C58	C	0.718195	-0.431803	-0.432195
C59	C	1.051529	-0.098469	-0.098862
C60	C	1.384862	0.234864	0.234472
C61	C	0.644842	-0.428536	-0.428942
C62	C	0.978175	-0.095202	-0.095608
C63	C	1.311508	0.238131	0.237725
C64	C	0.608117	-0.379998	-0.380480
C65	C	0.941451	-0.046665	-0.047146
C66	C	1.274784	0.286668	0.286187
C67	C	0.644751	-0.334720	-0.335273
C68	C	0.978084	-0.001387	-0.001939
C69	C	1.311418	0.331946	0.331394
C70	C	0.718104	-0.337984	-0.338530
C71	C	1.051437	-0.004651	-0.005197
C72	C	1.384770	0.328682	0.328137
C73	C	0.386637	-0.367793	-0.368305
C74	C	0.719971	-0.034460	-0.034972
C75	C	1.053304	0.298874	0.298362
C76	C	0.313279	-0.364534	-0.365050
C77	C	0.646613	-0.031200	-0.031716
C78	C	0.979946	0.302133	0.301617
C79	C	0.313375	-0.458349	-0.458720
C80	C	0.646709	-0.125015	-0.125387
C81	C	0.980042	0.208318	0.207947
C82	C	0.386729	-0.461611	-0.461970
C83	C	0.720062	-0.128278	-0.128637
C84	C	1.053396	0.205055	0.204696
C85	C	0.423357	-0.416331	-0.416766
C86	C	0.756690	-0.082998	-0.083432
C87	C	1.090023	0.250336	0.249901
C88	C	0.533138	-0.376659	-0.377151
C89	C	0.866471	-0.043326	-0.043818
C90	C	1.199805	0.290007	0.289515
C91	C	0.498335	-0.419667	-0.420098
C92	C	0.831668	-0.086334	-0.086764
C93	C	1.165002	0.247000	0.246569
C94	C	1.007839	-0.580607	-0.406023
C95	C	1.341172	-0.247274	-0.072689
C96	C	1.674505	0.086059	0.260644
C97	C	1.004677	-0.658670	-0.409226
C98	C	1.338011	-0.325337	-0.075892
C99	C	1.671344	0.007997	0.257441
C100	C	1.046249	-0.695404	-0.367696
C101	C	1.379583	-0.362071	-0.034363
C102	C	1.712916	-0.028737	0.298971
C103	C	1.043280	-0.768753	-0.370713
C104	C	1.376614	-0.435419	-0.037379
C105	C	1.709947	-0.102086	0.295954
C106	C	0.998735	-0.805366	-0.415256
C107	C	1.332068	-0.472033	-0.081922
C108	C	1.665402	-0.138699	0.251411
C109	C	0.957161	-0.768627	-0.456790
C110	C	1.290495	-0.435294	-0.123457
C111	C	1.623828	-0.101960	0.209876
C112	C	0.960134	-0.695280	-0.453777
C113	C	1.293468	-0.361947	-0.120443
C114	C	1.626801	-0.028613	0.212890
C115	C	0.987607	-1.026824	-0.426511
C116	C	1.320941	-0.693490	-0.093178
C117	C	1.654274	-0.360157	0.240156
C118	C	0.984636	-1.100176	-0.429520
C119	C	1.317969	-0.766842	-0.096186
C120	C	1.651302	-0.433509	0.237147
C121	C	1.070756	-1.100297	-0.343443
C122	C	1.404089	-0.766963	-0.010109
C123	C	1.737423	-0.433630	0.323224
C124	C	1.073722	-1.026948	-0.340430
C125	C	1.407056	-0.693615	-0.007097
C126	C	1.740389	-0.360281	0.326237
C127	C	1.032151	-0.990216	-0.381967
C128	C	1.365485	-0.656882	-0.048634
C129	C	1.698818	-0.323549	0.284700
C130	C	0.995698	-0.880340	-0.418339
C131	C	1.329031	-0.547006	-0.085005
C132	C	1.662364	-0.213673	0.248328
C133	C	1.035193	-0.915243	-0.378887
C134	C	1.368526	-0.581910	-0.045554
C135	C	1.701860	-0.248577	0.287779
C136	C	1.198582	-0.406322	-0.406771
C137	C	1.531915	-0.072988	-0.073438
C138	C	1.865248	0.260345	0.259895
C139	C	1.276651	-0.409807	-0.410255
C140	C	1.609984	-0.076474	-0.076921
C141	C	1.943318	0.256860	0.256412
C142	C	1.023120	-0.405996	-0.582447
C143	C	1.356453	-0.072662	-0.249114
C144	C	1.689787	0.260671	0.084220
C145	C	1.026418	-0.409342	-0.660793
C146	C	1.359751	-0.076009	-0.327459
C147	C	1.693085	0.257325	0.005874
C148	C	1.022973	-0.214968	-0.391160
C149	C	1.356306	0.118365	-0.057826
C150	C	1.689639	0.451699	0.275507
C151	C	1.026208	-0.136910	-0.387990
C152	C	1.359541	0.196424	-0.054657
C153	C	1.692875	0.529757	0.278677
C154	C	1.007715	-0.390272	-0.215463
C155	C	1.341048	-0.056939	0.117870
C156	C	1.674381	0.276394	0.451204
C157	C	1.004561	-0.386734	-0.137116
C158	C	1.337894	-0.053401	0.196218
C159	C	1.671228	0.279932	0.529551
C160	C	1.046471	-0.431674	-0.104101
C161	C	1.379804	-0.098341	0.229232
C162	C	1.713137	0.234993	0.562565
C163	C	1.043497	-0.428354	-0.030485
C164	C	1.376830	-0.095020	0.302848
C165	C	1.710164	0.238313	0.636181
C166	C	0.998617	-0.380090	0.010115
C167	C	1.331950	-0.046756	0.343448
C168	C	1.665284	0.286577	0.676782
C169	C	0.956703	-0.335148	-0.022904
C170	C	1.290036	-0.001815	0.310429
C171	C	1.623370	0.331518	0.643762
C172	C	0.959673	-0.338472	-0.096519
C173	C	1.293007	-0.005139	0.236815
C174	C	1.626340	0.328194	0.570148
C175	C	0.987474	-0.367724	0.232573
C176	C	1.320808	-0.034391	0.565907
C177	C	1.654141	0.298942	0.899240
C178	C	0.984508	-0.364402	0.306193
C179	C	1.317842	-0.031069	0.639526
C180	C	1.651175	0.302265	0.972860
C181	C	1.071302	-0.457609	0.298607
C182	C	1.404635	-0.124276	0.631940
C183	C	1.737968	0.209058	0.965273
C184	C	1.074271	-0.460926	0.224991
C185	C	1.407605	-0.127593	0.558324
C186	C	1.740938	0.205741	0.891658
C187	C	1.032355	-0.415987	0.191978
C188	C	1.365688	-0.082654	0.525312
C189	C	1.699021	0.250680	0.858645
C190	C	0.995578	-0.376693	0.085362
C191	C	1.328912	-0.043360	0.418696
C192	C	1.662245	0.289973	0.752029
C193	C	1.035390	-0.419388	0.116732
C194	C	1.368724	-0.086054	0.450065
C195	C	1.702057	0.247279	0.783399
H196	H	0.416625	-0.501137	-0.501432
H197	H	0.749958	-0.167804	-0.168098
H198	H	1.083292	0.165529	0.165235
Cl199	Cl	0.907872	-0.649100	-0.505990
Cl200	Cl	1.241206	-0.315767	-0.172657
Cl201	Cl	1.574539	0.017567	0.160676
H202	H	0.283381	-0.325001	-0.325590
H203	H	0.616714	0.008333	0.007744
H204	H	0.950048	0.341666	0.341077
Cl205	Cl	0.934746	-0.311259	0.191081
Cl206	Cl	1.268079	0.022074	0.524415
Cl207	Cl	1.601412	0.355407	0.857748
H208	H	0.614844	-0.295197	-0.295817
H209	H	0.948178	0.038136	0.037517
H210	H	1.281511	0.371469	0.370850
Cl211	Cl	1.129735	-0.980926	-0.284441
Cl212	Cl	1.463068	-0.647593	0.048892
Cl213	Cl	1.796401	-0.314259	0.382226
H214	H	1.104602	-1.130212	-0.309627
H215	H	1.437935	-0.796879	0.023707
H216	H	1.771269	-0.463545	0.357040
H217	H	1.110817	-0.500228	0.191939
H218	H	1.444150	-0.166895	0.525272
H219	H	1.777483	0.166438	0.858605
Cl220	Cl	0.267325	-0.515270	-0.515544
Cl221	Cl	0.600659	-0.181936	-0.182210
Cl222	Cl	0.933992	0.151397	0.151123
Cl223	Cl	0.901165	-0.814655	-0.512792
Cl224	Cl	1.234499	-0.481322	-0.179459
Cl225	Cl	1.567832	-0.147989	0.153875
H226	H	1.071465	-0.885431	-0.342623
H227	H	1.404798	-0.552098	-0.009290
H228	H	1.738131	-0.218764	0.324044
Cl229	Cl	0.544504	-0.480683	-0.481020
Cl230	Cl	0.877837	-0.147350	-0.147686
Cl231	Cl	1.211170	0.185983	0.185647
H232	H	1.077132	-0.798658	-0.336894
H233	H	1.410466	-0.465325	-0.003561
H234	H	1.743799	-0.131991	0.329773
H235	H	0.925547	-0.301877	-0.123398
H236	H	1.258880	0.031456	0.209936
H237	H	1.592214	0.364790	0.543269
H238	H	0.416450	-0.330927	-0.331491
H239	H	0.749783	0.002406	0.001842
H240	H	1.083117	0.335739	0.335176
H241	H	0.747926	-0.301115	-0.301723
H242	H	1.081259	0.032219	0.031611
H243	H	1.414593	0.365552	0.364944
H244	H	0.503229	-0.337141	-0.337692
H245	H	0.836562	-0.003808	-0.004359
H246	H	1.169895	0.329525	0.328975
H247	H	1.082520	-0.665598	-0.331421
H248	H	1.415853	-0.332265	0.001912
H249	H	1.749186	0.001068	0.335246
H250	H	0.959038	-0.337396	0.118427
H251	H	1.292371	-0.004063	0.451761
H252	H	1.625704	0.329271	0.785094
H253	H	0.947963	-0.325095	0.339248
H254	H	1.281296	0.008238	0.672582
H255	H	1.614630	0.341572	1.005915
Cl256	Cl	0.928622	-1.146202	-0.485512
Cl257	Cl	1.261956	-0.812869	-0.152178
Cl258	Cl	1.595289	-0.479535	0.181155
H259	H	0.953757	-0.996922	-0.460331
H260	H	1.287091	-0.663589	-0.126997
H261	H	1.620424	-0.330255	0.206336
H262	H	0.920158	-0.295854	0.010158
H263	H	1.253491	0.037480	0.343492
H264	H	1.586824	0.370813	0.676825
Cl265	Cl	0.939699	-0.926374	-0.474334
Cl266	Cl	1.273032	-0.593040	-0.141000
Cl267	Cl	1.606365	-0.259707	0.192333
Cl268	Cl	1.102898	-0.492348	-0.155135
Cl269	Cl	1.436232	-0.159015	0.178199
Cl270	Cl	1.769565	0.174319	0.511532
Cl271	Cl	1.096187	-0.484851	0.011015
Cl272	Cl	1.429521	-0.151518	0.344349
Cl273	Cl	1.762854	0.181816	0.677682
Cl274	Cl	1.123992	-0.514102	0.340113
Cl275	Cl	1.457325	-0.180768	0.673446
Cl276	Cl	1.790659	0.152565	1.006780
Cl277	Cl	1.091806	-0.480063	0.065691
Cl278	Cl	1.425139	-0.146729	0.399024
Cl279	Cl	1.758472	0.186604	0.732358
Cl280	Cl	0.764356	-0.492828	-0.493119
Cl281	Cl	1.097689	-0.159494	-0.159786
Cl282	Cl	1.431022	0.173839	0.173548
Cl283	Cl	0.598798	-0.485454	-0.485774
Cl284	Cl	0.932131	-0.152120	-0.152441
Cl285	Cl	1.265464	0.181213	0.180893
