data_functionalizedCrystal
_audit_creation_method	'MofGen! by Chris Wilmer'
_symmetry_space_group_name_H-M	'P1'
_symmetry_Int_Tables_number	1
_symmetry_cell_setting	triclinic
loop_
_symmetry_equiv_pos_as_xyz
  x,y,z
_cell_length_a	27.354012
_cell_length_b	27.353283
_cell_length_c	27.349551
_cell_angle_alpha	60.005606
_cell_angle_beta	60.011434
_cell_angle_gamma	59.993282
loop_
_atom_site_label
_atom_site_type_symbol
_atom_site_fract_x
_atom_site_fract_y
_atom_site_fract_z
O1	O	0.067635	-0.714267	0.597330
O2	O	0.025429	-0.556105	0.481282
O3	O	0.125575	-0.656186	0.481214
O4	O	-0.032512	-0.614186	0.597397
O5	O	0.158797	-0.622968	0.514367
O6	O	0.058650	-0.522887	0.514434
O7	O	0.100856	-0.681048	0.630482
Zn8	Zn	0.085028	-0.596693	0.577722
Zn9	Zn	0.041257	-0.640460	0.534042
O10	O	0.000709	-0.580967	0.630549
N11	N	0.114901	-0.566828	0.607534
N12	N	0.011389	-0.670331	0.504229
C13	C	0.179404	-0.338196	0.672015
C14	C	0.179501	-0.502386	0.836160
C15	C	0.179415	-0.502363	0.671996
C16	C	0.343611	-0.502373	0.671960
C17	C	0.197478	-0.392371	0.690061
C18	C	0.197534	-0.484321	0.781984
C19	C	0.289434	-0.484312	0.690032
C20	C	0.197486	-0.484308	0.690051
C21	C	0.156398	-0.269238	0.649045
C22	C	0.156418	-0.525342	0.649015
C23	C	0.220484	-0.461329	0.713032
C24	C	0.443889	-0.485097	0.619172
C25	C	0.506571	-0.505993	0.598266
C26	C	0.506589	-0.607412	0.636940
C27	C	0.443909	-0.586515	0.657848
C28	C	0.171510	-0.237888	0.587422
C29	C	0.150593	-0.175201	0.566543
C30	C	0.099458	-0.175218	0.668913
C31	C	0.120375	-0.237905	0.689792
C32	C	0.094789	-0.510201	0.664176
C33	C	0.073888	-0.531091	0.643278
C34	C	0.176239	-0.582263	0.592072
C35	C	0.197142	-0.561373	0.612963
C36	C	0.094933	-0.510244	0.936476
C37	C	0.074073	-0.531151	0.999161
C38	C	0.176453	-0.582335	0.999126
C39	C	0.197312	-0.561429	0.936439
C40	C	0.156551	-0.525382	0.905116
C41	C	0.412561	-0.525357	0.648961
C42	C	-0.098513	-0.688235	0.485867
C43	C	-0.006461	-0.688368	0.394066
C44	C	-0.006645	-0.780264	0.486040
C45	C	-0.006630	-0.688361	0.486097
C46	C	-0.029562	-0.711308	0.463018
N47	N	0.537030	-0.566846	0.607436
O48	O	0.741877	-0.576849	0.459995
O49	O	0.742050	-0.693241	0.618010
O50	O	0.741986	-0.692977	0.517791
O51	O	0.741941	-0.577114	0.560214
O52	O	0.642405	-0.659839	0.551046
O53	O	0.642469	-0.660104	0.651265
O54	O	0.642296	-0.543712	0.493251
Zn55	Zn	0.626572	-0.596646	0.577538
Zn56	Zn	0.757774	-0.640307	0.533723
O57	O	0.642360	-0.543976	0.593469
N58	N	0.847316	-0.670107	0.503818
N59	N	0.114877	-0.144758	0.607577
O60	O	-0.032498	0.060193	0.597441
O61	O	0.125523	0.060193	0.481067
O62	O	0.025289	0.060179	0.481345
O63	O	0.067736	0.060207	0.597163
O64	O	0.058511	-0.039410	0.514543
O65	O	0.158745	-0.039397	0.514265
O66	O	0.000724	-0.039396	0.630638
Zn67	Zn	0.085009	-0.055208	0.577722
Zn68	Zn	0.041238	0.076005	0.533983
O69	O	0.100958	-0.039382	0.630360
N70	N	0.011362	0.165555	0.504130
N71	N	0.115121	-0.566884	1.029592
O72	O	0.104990	-0.714248	1.234528
O73	O	-0.011371	-0.556177	1.234539
O74	O	-0.011103	-0.656395	1.234497
O75	O	0.104722	-0.614030	1.234569
O76	O	0.022090	-0.623190	1.134913
O77	O	0.021822	-0.522972	1.134954
O78	O	0.138182	-0.681044	1.134943
Zn79	Zn	0.085272	-0.596736	1.119137
Zn80	Zn	0.041539	-0.640484	1.250344
O81	O	0.137914	-0.580826	1.134984
N82	N	0.011689	-0.670343	1.339890
C83	C	0.038085	-0.519567	0.481870
C84	C	0.162104	-0.643505	0.481786
C85	C	0.088200	-0.717587	0.629893
C86	C	-0.035819	-0.593649	0.629977
C87	C	0.692280	-0.692701	0.654545
C88	C	0.692203	-0.692374	0.530435
C89	C	0.692063	-0.544251	0.456717
C90	C	0.692144	-0.544580	0.580825
C91	C	0.162000	0.010521	0.481600
C92	C	0.037914	0.010381	0.481984
C93	C	-0.035795	0.010399	0.630065
C94	C	0.088333	0.010415	0.629722
C95	C	-0.010799	-0.519660	1.184747
C96	C	-0.010461	-0.643761	1.184677
C97	C	0.137610	-0.717561	1.184734
C98	C	0.137280	-0.593452	1.184783
H99	H	0.023897	-0.518815	1.024687
C100	C	0.100604	0.010422	0.678879
C101	C	0.162016	0.010426	0.666618
C102	C	0.174286	0.010434	0.715775
C103	C	0.125145	0.010437	0.777194
C104	C	0.063729	0.010432	0.789458
C105	C	0.051459	0.010425	0.740301
H106	H	0.198396	0.010424	0.621149
H107	H	0.219750	0.010437	0.706696
H108	H	0.134228	0.010442	0.813583
H109	H	0.027348	0.010435	0.834927
H110	H	0.005994	0.010422	0.749380
C111	C	-0.060154	-0.458331	1.184751
C112	C	-0.048194	-0.408991	1.184777
C113	C	-0.097549	-0.347662	1.184780
C114	C	-0.158865	-0.335674	1.184757
C115	C	-0.170828	-0.385016	1.184731
C116	C	-0.121473	-0.446345	1.184727
H117	H	-0.002802	-0.417863	1.184794
H118	H	-0.088693	-0.311136	1.184800
H119	H	-0.195401	-0.290275	1.184759
H120	H	-0.216220	-0.376143	1.184713
H121	H	-0.130329	-0.482871	1.184708
C122	C	-0.059599	-0.655977	1.184589
C123	C	-0.047333	-0.717376	1.184540
C124	C	-0.096472	-0.729592	1.184452
C125	C	-0.157877	-0.680408	1.184414
C126	C	-0.170146	-0.619005	1.184463
C127	C	-0.121007	-0.606789	1.184551
H128	H	-0.001875	-0.753788	1.184568
H129	H	-0.087389	-0.775047	1.184415
H130	H	-0.194252	-0.689451	1.184349
H131	H	-0.215604	-0.582592	1.184435
H132	H	-0.130090	-0.561334	1.184588
C133	C	0.692124	-0.495406	0.593084
C134	C	0.692056	-0.433974	0.543940
C135	C	0.692037	-0.384800	0.556199
C136	C	0.692085	-0.397059	0.617602
C137	C	0.692153	-0.458494	0.666750
C138	C	0.692173	-0.507668	0.654491
H139	H	0.692021	-0.424897	0.498482
H140	H	0.691987	-0.339322	0.519817
H141	H	0.692071	-0.360658	0.626677
H142	H	0.692189	-0.467571	0.712208
H143	H	0.692223	-0.553146	0.690874
H144	H	0.173667	-0.584388	1.184797
H145	H	0.207290	0.010797	0.444973
H146	H	0.061737	-0.480889	0.910978
C147	C	0.186966	-0.778889	1.184731
C148	C	0.212726	-0.817458	1.236454
C149	C	0.262082	-0.878787	1.236451
C150	C	0.285676	-0.901547	1.184726
C151	C	0.259915	-0.862978	1.132999
C152	C	0.210560	-0.801649	1.133002
H153	H	0.195260	-0.800610	1.274748
H154	H	0.281151	-0.907338	1.274743
H155	H	0.322212	-0.946946	1.184724
H156	H	0.277381	-0.879826	1.094706
H157	H	0.191490	-0.773098	1.094710
C158	C	0.221290	-0.621975	1.033583
C159	C	0.266381	-0.597987	1.024957
C160	C	0.311216	-0.637631	1.059416
C161	C	0.310959	-0.701263	1.102501
C162	C	0.265865	-0.725255	1.111129
C163	C	0.221031	-0.685611	1.076670
H164	H	0.266573	-0.550880	0.993062
H165	H	0.344597	-0.619871	1.053029
H166	H	0.344148	-0.730610	1.128009
H167	H	0.265674	-0.772362	1.143025
H168	H	0.187650	-0.703371	1.083057
C169	C	0.265096	-0.578081	0.901944
C170	C	0.309929	-0.617724	0.936401
C171	C	0.377712	-0.634374	0.901908
C172	C	0.400662	-0.611381	0.832958
C173	C	0.355828	-0.571736	0.798498
C174	C	0.288045	-0.555086	0.832991
H175	H	0.292941	-0.634746	0.987446
H176	H	0.410901	-0.663722	0.927419
H177	H	0.450838	-0.623707	0.807425
H178	H	0.372816	-0.554714	0.747453
H179	H	0.254856	-0.525738	0.807480
C180	C	-0.097159	-0.581560	0.679268
C181	C	-0.109207	-0.630828	0.740633
C182	C	-0.170546	-0.618739	0.789924
C183	C	-0.219839	-0.557382	0.777851
C184	C	-0.207793	-0.508110	0.716483
C185	C	-0.146453	-0.520199	0.667192
H186	H	-0.072716	-0.676252	0.749573
H187	H	-0.179463	-0.655214	0.835353
H188	H	-0.265246	-0.548433	0.814339
H189	H	-0.244283	-0.462686	0.707543
H190	H	-0.137536	-0.483724	0.621763
C191	C	0.691990	-0.494882	0.395413
C192	C	0.691943	-0.433546	0.383456
C193	C	0.691870	-0.384176	0.322153
C194	C	0.691844	-0.396142	0.272806
C195	C	0.691892	-0.457480	0.284761
C196	C	0.691965	-0.506850	0.346065
H197	H	0.691961	-0.424686	0.419987
H198	H	0.691835	-0.338770	0.313303
H199	H	0.691791	-0.359595	0.227425
H200	H	0.691873	-0.466340	0.248230
H201	H	0.692000	-0.552256	0.354915
H202	H	0.029071	-0.474132	0.445424
C203	C	0.692343	-0.742067	0.715851
C204	C	0.692364	-0.730100	0.765200
C205	C	0.692427	-0.779467	0.826507
C206	C	0.692469	-0.840801	0.838465
C207	C	0.692449	-0.852770	0.789115
C208	C	0.692386	-0.803404	0.727808
H209	H	0.692332	-0.684695	0.756349
H210	H	0.692442	-0.770606	0.863039
H211	H	0.692516	-0.877345	0.883848
H212	H	0.692480	-0.898176	0.797966
H213	H	0.692371	-0.812265	0.691276
H214	H	0.061625	-0.480862	0.693528
H215	H	0.028825	0.010378	0.445599
C216	C	0.692224	-0.741548	0.518176
C217	C	0.743915	-0.764921	0.467140
C218	C	0.743937	-0.814095	0.454881
C219	C	0.692267	-0.839896	0.493656
C220	C	0.640572	-0.816523	0.544695
C221	C	0.640550	-0.767349	0.556954
H222	H	0.782168	-0.745821	0.438433
H223	H	0.782205	-0.831397	0.417098
H224	H	0.692283	-0.876298	0.484580
H225	H	0.602319	-0.835623	0.573401
H226	H	0.602282	-0.750047	0.594737
H227	H	0.209407	-0.611608	0.562721
C228	C	0.006097	-0.514442	0.659948
C229	C	-0.033225	-0.532700	0.726157
C230	C	-0.101014	-0.516052	0.742826
C231	C	-0.129482	-0.481146	0.693286
C232	C	-0.090160	-0.462886	0.627072
C233	C	-0.022370	-0.479534	0.610404
H234	H	-0.012152	-0.558542	0.762834
H235	H	-0.130123	-0.529570	0.791842
H236	H	-0.179664	-0.468822	0.705625
H237	H	-0.111233	-0.437044	0.590396
H238	H	0.006739	-0.466016	0.561388
H239	H	0.247325	-0.573698	0.600612
C240	C	0.100371	-0.778963	0.679134
C241	C	0.151354	-0.801682	0.702587
C242	C	0.163525	-0.863058	0.751828
C243	C	0.124713	-0.901716	0.777615
C244	C	0.073726	-0.878998	0.754162
C245	C	0.061555	-0.817622	0.704922
H246	H	0.180088	-0.773064	0.683497
H247	H	0.201269	-0.879875	0.769189
H248	H	0.133722	-0.947150	0.814066
H249	H	0.044992	-0.907615	0.773252
H250	H	0.023811	-0.800805	0.687561
H251	H	0.418403	-0.619300	0.682106
H252	H	0.532080	-0.473208	0.574011
C253	C	0.541074	-0.674685	0.646711
C254	C	0.506614	-0.718973	0.679480
C255	C	0.541101	-0.786247	0.689250
C256	C	0.610048	-0.809233	0.666252
C257	C	0.644512	-0.764945	0.633481
C258	C	0.610025	-0.697671	0.623711
H259	H	0.455571	-0.701958	0.696506
H260	H	0.515588	-0.819032	0.713509
H261	H	0.635578	-0.859033	0.673484
H262	H	0.695554	-0.781960	0.616455
H263	H	0.635537	-0.664886	0.599452
H264	H	-0.081177	0.010398	0.666600
H265	H	0.418366	-0.435297	0.611936
H266	H	0.200842	-0.263395	0.554238
C267	C	0.223442	-0.655595	0.432494
C268	C	0.280676	-0.672048	0.443420
C269	C	0.342015	-0.684138	0.394127
C270	C	0.346119	-0.679776	0.333908
C271	C	0.288883	-0.663322	0.322980
C272	C	0.227544	-0.651232	0.372272
H273	H	0.277640	-0.675278	0.488000
H274	H	0.384384	-0.696318	0.402218
H275	H	0.391525	-0.688726	0.297419
H276	H	0.291919	-0.660092	0.278400
H277	H	0.185174	-0.639052	0.364182
C278	C	0.167217	-0.140711	0.498754
C279	C	0.206847	-0.175176	0.453934
C280	C	0.223471	-0.140689	0.386145
C281	C	0.200465	-0.071736	0.363176
C282	C	0.160833	-0.037266	0.407997
C283	C	0.144209	-0.071754	0.475786
H284	H	0.223879	-0.226223	0.470936
H285	H	0.252809	-0.166206	0.352966
H286	H	0.212771	-0.046206	0.312995
H287	H	0.143801	0.013780	0.390995
H288	H	0.114871	-0.046237	0.508965
H289	H	0.108067	-0.263426	0.739970
C290	C	0.059836	-0.140748	0.713733
C291	C	0.043222	-0.175234	0.781519
C292	C	0.003598	-0.140766	0.826341
C293	C	-0.019411	-0.071813	0.803376
C294	C	-0.002797	-0.037324	0.735587
C295	C	0.036826	-0.071791	0.690765
H296	H	0.060255	-0.226281	0.798522
H297	H	-0.008700	-0.166298	0.876523
H298	H	-0.048743	-0.046299	0.836556
H299	H	-0.019830	0.013723	0.718584
H300	H	0.049125	-0.046259	0.640583
