data_functionalizedCrystal
_audit_creation_method	'MofGen! by Chris Wilmer'
_symmetry_space_group_name_H-M	'P1'
_symmetry_Int_Tables_number	1
_symmetry_cell_setting	triclinic
loop_
_symmetry_equiv_pos_as_xyz
  x,y,z
_cell_length_a	18.101398
_cell_length_b	19.121063
_cell_length_c	18.101389
_cell_angle_alpha	92.419391
_cell_angle_beta	89.975673
_cell_angle_gamma	92.464489
loop_
_atom_site_label
_atom_site_type_symbol
_atom_site_fract_x
_atom_site_fract_y
_atom_site_fract_z
Zn1	Zn	1.119554	-0.279777	-0.431404
Zn2	Zn	1.452887	0.053556	-0.098071
Zn3	Zn	1.786221	0.386889	0.235263
Zn4	Zn	1.114175	-0.397213	-0.312837
Zn5	Zn	1.447508	-0.063880	0.020497
Zn6	Zn	1.780841	0.269454	0.353830
Zn7	Zn	0.995713	-0.279770	-0.307565
Zn8	Zn	1.329047	0.053563	0.025769
Zn9	Zn	1.662380	0.386897	0.359102
Zn10	Zn	0.990390	-0.397183	-0.436624
Zn11	Zn	1.323723	-0.063850	-0.103291
Zn12	Zn	1.657057	0.269484	0.230043
O13	O	1.054958	-0.338486	-0.372107
O14	O	1.388291	-0.005153	-0.038774
O15	O	1.721625	0.328181	0.294559
O16	O	1.222473	-0.295371	-0.415698
O17	O	1.555806	0.037962	-0.082364
O18	O	1.889139	0.371296	0.250969
O19	O	1.098437	-0.381644	-0.208505
O20	O	1.431771	-0.048310	0.124828
O21	O	1.765104	0.285023	0.458162
O22	O	1.016620	-0.181486	-0.319601
O23	O	1.349953	0.151847	0.013732
O24	O	1.683287	0.485181	0.347065
O25	O	1.218521	-0.381651	-0.328587
O26	O	1.551854	-0.048317	0.004747
O27	O	1.885187	0.285016	0.338080
O28	O	1.107605	-0.181491	-0.410586
O29	O	1.440938	0.151842	-0.077252
O30	O	1.774272	0.485175	0.256081
O31	O	1.011404	-0.295359	-0.204632
O32	O	1.344737	0.037975	0.128702
O33	O	1.678071	0.371308	0.462035
O34	O	0.891375	-0.295330	-0.324663
O35	O	1.224708	0.038004	0.008670
O36	O	1.558042	0.371337	0.342004
O37	O	1.007547	-0.381599	-0.539564
O38	O	1.340881	-0.048266	-0.206231
O39	O	1.674214	0.285067	0.127103
O40	O	0.887464	-0.381592	-0.419482
O41	O	1.220797	-0.048259	-0.086149
O42	O	1.554131	0.285074	0.247184
O43	O	1.102443	-0.295342	-0.535729
O44	O	1.435777	0.037991	-0.202396
O45	O	1.769110	0.371325	0.130938
O46	O	1.093276	-0.495494	-0.333648
O47	O	1.426609	-0.162161	-0.000315
O48	O	1.759942	0.171172	0.333019
O49	O	1.002331	-0.495472	-0.424594
O50	O	1.335665	-0.162139	-0.091261
O51	O	1.668998	0.171195	0.242073
C52	C	0.862549	-0.338457	-0.372067
C53	C	1.195882	-0.005124	-0.038734
C54	C	1.529215	0.328209	0.294599
C55	C	0.780234	-0.338462	-0.372069
C56	C	1.113568	-0.005129	-0.038735
C57	C	1.446901	0.328205	0.294598
C58	C	0.481141	-0.338506	-0.372133
C59	C	0.814475	-0.005173	-0.038800
C60	C	1.147808	0.328161	0.294534
C61	C	0.514915	-0.283961	-0.312742
C62	C	0.848248	0.049373	0.020591
C63	C	1.181581	0.382706	0.353924
C64	C	0.600526	-0.284107	-0.312506
C65	C	0.933860	0.049226	0.020828
C66	C	1.267193	0.382560	0.354161
C67	C	0.629525	-0.338484	-0.372101
C68	C	0.962858	-0.005150	-0.038768
C69	C	1.296192	0.328183	0.294566
C70	C	0.595084	-0.412466	-0.354099
C71	C	0.928417	-0.079133	-0.020766
C72	C	1.261750	0.254201	0.312568
C73	C	0.509452	-0.412163	-0.353690
C74	C	0.842786	-0.078830	-0.020356
C75	C	1.176119	0.254504	0.312977
C76	C	0.513600	-0.319712	-0.449688
C77	C	0.846934	0.013621	-0.116355
C78	C	1.180267	0.346954	0.216978
C79	C	0.599325	-0.318065	-0.449186
C80	C	0.932658	0.015269	-0.115853
C81	C	1.265992	0.348602	0.217480
C82	C	0.713385	-0.338476	-0.372084
C83	C	1.046718	-0.005142	-0.038751
C84	C	1.380052	0.328191	0.294582
C85	C	0.397281	-0.338519	-0.372148
C86	C	0.730615	-0.005186	-0.038814
C87	C	1.063948	0.328148	0.294519
C88	C	1.046662	-0.520967	-0.380276
C89	C	1.379996	-0.187634	-0.046942
C90	C	1.713329	0.145699	0.286391
C91	C	1.043181	-0.599034	-0.383795
C92	C	1.376514	-0.265700	-0.050462
C93	C	1.709848	0.067633	0.282872
C94	C	1.088932	-0.635698	-0.338137
C95	C	1.422265	-0.302364	-0.004804
C96	C	1.755599	0.030969	0.328530
C97	C	1.085662	-0.709049	-0.341451
C98	C	1.418996	-0.375716	-0.008118
C99	C	1.752329	-0.042382	0.325215
C100	C	1.036637	-0.745735	-0.390420
C101	C	1.369971	-0.412402	-0.057087
C102	C	1.703304	-0.079069	0.276246
C103	C	0.990884	-0.709066	-0.436083
C104	C	1.324218	-0.375733	-0.102750
C105	C	1.657551	-0.042400	0.230583
C106	C	0.994158	-0.635716	-0.432772
C107	C	1.327492	-0.302383	-0.099439
C108	C	1.660825	0.030951	0.233894
C109	C	1.024385	-0.967206	-0.402788
C110	C	1.357718	-0.633873	-0.069454
C111	C	1.691052	-0.300540	0.263879
C112	C	1.021113	-1.040562	-0.406094
C113	C	1.354446	-0.707228	-0.072760
C114	C	1.687779	-0.373895	0.260573
C115	C	1.115892	-1.040539	-0.311462
C116	C	1.449226	-0.707206	0.021871
C117	C	1.782559	-0.373873	0.355205
C118	C	1.119159	-0.967188	-0.308152
C119	C	1.452492	-0.633854	0.025181
C120	C	1.785825	-0.300521	0.358514
C121	C	1.073408	-0.930525	-0.353818
C122	C	1.406742	-0.597192	-0.020485
C123	C	1.740075	-0.263858	0.312849
C124	C	1.033292	-0.820713	-0.393807
C125	C	1.366626	-0.487379	-0.060474
C126	C	1.699959	-0.154046	0.272859
C127	C	1.076758	-0.855549	-0.350434
C128	C	1.410091	-0.522216	-0.017101
C129	C	1.743424	-0.188883	0.316233
C130	C	1.248119	-0.338515	-0.372148
C131	C	1.581452	-0.005182	-0.038815
C132	C	1.914785	0.328152	0.294519
C133	C	1.330432	-0.338528	-0.372165
C134	C	1.663765	-0.005194	-0.038832
C135	C	1.997099	0.328139	0.294502
C136	C	1.055002	-0.338468	-0.565269
C137	C	1.388335	-0.005135	-0.231935
C138	C	1.721668	0.328198	0.101398
C139	C	1.055020	-0.338461	-0.647582
C140	C	1.388353	-0.005127	-0.314249
C141	C	1.721687	0.328206	0.019084
C142	C	1.063306	-0.155292	-0.363923
C143	C	1.396640	0.178041	-0.030590
C144	C	1.729973	0.511375	0.302743
C145	C	1.066864	-0.077226	-0.360436
C146	C	1.400197	0.256108	-0.027102
C147	C	1.733531	0.589441	0.306231
C148	C	1.055069	-0.338329	-0.946668
C149	C	1.388403	-0.004996	-0.613334
C150	C	1.721736	0.328338	-0.280001
C151	C	0.995174	-0.392427	-0.917747
C152	C	1.328507	-0.059094	-0.584414
C153	C	1.661840	0.274239	-0.251081
C154	C	0.995318	-0.392678	-0.832140
C155	C	1.328651	-0.059345	-0.498807
C156	C	1.661984	0.273988	-0.165474
C157	C	1.055044	-0.338394	-0.798288
C158	C	1.388378	-0.005061	-0.464955
C159	C	1.721711	0.328272	-0.131621
C160	C	1.132167	-0.358491	-0.830296
C161	C	1.465500	-0.025158	-0.496963
C162	C	1.798834	0.308175	-0.163630
C163	C	1.131831	-0.358846	-0.915957
C164	C	1.465164	-0.025513	-0.582624
C165	C	1.798497	0.307820	-0.249290
C166	C	1.038526	-0.264013	-0.911754
C167	C	1.371859	0.069320	-0.578421
C168	C	1.705193	0.402653	-0.245088
C169	C	1.036771	-0.264443	-0.826122
C170	C	1.370104	0.068891	-0.492789
C171	C	1.703437	0.402224	-0.159456
C172	C	1.055035	-0.338430	-0.714430
C173	C	1.388368	-0.005097	-0.381097
C174	C	1.721702	0.328237	-0.047763
C175	C	1.055084	-0.338295	-1.030526
C176	C	1.388417	-0.004962	-0.697192
C177	C	1.721750	0.328372	-0.363859
C178	C	1.054959	-0.338453	-0.179695
C179	C	1.388293	-0.005120	0.153638
C180	C	1.721626	0.328214	0.486971
C181	C	1.055093	-0.338263	-0.097373
C182	C	1.388427	-0.004929	0.235960
C183	C	1.721760	0.328404	0.569294
H184	H	0.494409	-0.266704	-0.466696
H185	H	0.827743	0.066629	-0.133362
H186	H	1.161076	0.399963	0.199971
H187	H	0.622115	-0.263622	-0.462821
H188	H	0.955448	0.069711	-0.129487
H189	H	1.288781	0.403045	0.203846
N190	N	0.975033	-0.927669	-0.452030
N191	N	1.308366	-0.594336	-0.118697
N192	N	1.641699	-0.261002	0.214637
H193	H	1.006464	-0.897199	-0.485010
H194	H	1.339797	-0.563866	-0.151676
H195	H	1.673131	-0.230532	0.181657
H196	H	0.943486	-0.962087	-0.483501
H197	H	1.276819	-0.628754	-0.150167
H198	H	1.610153	-0.295420	0.183166
H199	H	0.619076	-0.354899	-0.495539
H200	H	0.952409	-0.021565	-0.162206
H201	H	1.285742	0.311768	0.171127
N202	N	0.484410	-0.372335	-0.508254
N203	N	0.817743	-0.039001	-0.174921
N204	N	1.151077	0.294332	0.158413
H205	H	0.450328	-0.408177	-0.484706
H206	H	0.783661	-0.074844	-0.151372
H207	H	1.116994	0.258490	0.181961
H208	H	0.456287	-0.347388	-0.546692
H209	H	0.789620	-0.014054	-0.213359
H210	H	1.122954	0.319279	0.119974
H211	H	0.956904	-0.605865	-0.469953
H212	H	1.290237	-0.272532	-0.136620
H213	H	1.623571	0.060802	0.196714
H214	H	1.159079	-0.937319	-0.268278
H215	H	1.492412	-0.603986	0.065055
H216	H	1.825745	-0.270653	0.398389
H217	H	1.153140	-1.070398	-0.274285
H218	H	1.486474	-0.737065	0.059049
H219	H	1.819807	-0.403731	0.392382
H220	H	0.981200	-1.070430	-0.445983
H221	H	1.314533	-0.737096	-0.112650
H222	H	1.647866	-0.403763	0.220684
H223	H	0.488724	-0.428103	-0.297092
H224	H	0.822058	-0.094769	0.036242
H225	H	1.155391	0.238564	0.369575
H226	H	1.177791	-0.321154	-0.935005
H227	H	1.511125	0.012179	-0.601671
H228	H	1.844458	0.345512	-0.268338
N229	N	1.141807	-0.596131	-0.285317
N230	N	1.475140	-0.262798	0.048016
N231	N	1.808474	0.070536	0.381349
H232	H	1.170295	-0.630491	-0.256898
H233	H	1.503628	-0.297158	0.076435
H234	H	1.836962	0.036176	0.409768
H235	H	1.177420	-0.565659	-0.314123
H236	H	1.510754	-0.232326	0.019210
H237	H	1.844087	0.101008	0.352544
N238	N	1.135008	-0.748595	-0.292206
N239	N	1.468341	-0.415261	0.041127
N240	N	1.801674	-0.081928	0.374461
H241	H	1.166558	-0.714224	-0.260678
H242	H	1.499891	-0.380891	0.072655
H243	H	1.833224	-0.047557	0.405988
H244	H	1.103521	-0.779068	-0.259282
H245	H	1.436854	-0.445734	0.074051
H246	H	1.770187	-0.112401	0.407385
H247	H	0.993375	-0.850591	-0.433677
H248	H	1.326708	-0.517257	-0.100343
H249	H	1.660041	-0.183924	0.232990
N250	N	0.938009	-0.748631	-0.488904
N251	N	1.271342	-0.415298	-0.155570
N252	N	1.604675	-0.081964	0.177763
H253	H	0.942874	-0.800662	-0.484072
H254	H	1.276207	-0.467329	-0.150738
H255	H	1.609541	-0.133995	0.182595
H256	H	0.885696	-0.735850	-0.476746
H257	H	1.219030	-0.402517	-0.143412
H258	H	1.552363	-0.069183	0.189921
N259	N	0.631666	-0.211436	-0.326937
N260	N	0.964999	0.121897	0.006397
N261	N	1.298333	0.455231	0.339730
H262	H	0.687464	-0.211392	-0.326808
H263	H	1.020798	0.121941	0.006525
H264	H	1.354131	0.455274	0.339859
H265	H	0.613830	-0.196898	-0.376639
H266	H	0.947163	0.136436	-0.043306
H267	H	1.280497	0.469769	0.290028
N268	N	1.129631	-0.815979	-0.297620
N269	N	1.462964	-0.482646	0.035713
N270	N	1.796297	-0.149312	0.369046
H271	H	1.117587	-0.828775	-0.245272
H272	H	1.450921	-0.495442	0.088061
H273	H	1.784254	-0.162108	0.421394
H274	H	1.181951	-0.828714	-0.309809
H275	H	1.515284	-0.495380	0.023524
H276	H	1.848617	-0.162047	0.356858
N277	N	0.919437	-0.375989	-0.803523
N278	N	1.252770	-0.042656	-0.470190
N279	N	1.586103	0.290678	-0.136856
H280	H	0.885591	-0.368406	-0.846534
H281	H	1.218925	-0.035072	-0.513201
H282	H	1.552258	0.298261	-0.179867
H283	H	0.898856	-0.416297	-0.774407
H284	H	1.232189	-0.082963	-0.441073
H285	H	1.565523	0.250370	-0.107740
N286	N	0.919036	-0.375932	-0.944253
N287	N	1.252369	-0.042599	-0.610919
N288	N	1.585703	0.290734	-0.277586
H289	H	0.922627	-0.333234	-0.975268
H290	H	1.255960	0.000099	-0.641935
H291	H	1.589294	0.333433	-0.308601
H292	H	0.897428	-0.417157	-0.974962
H293	H	1.230762	-0.083823	-0.641629
H294	H	1.564095	0.249510	-0.308296
N295	N	1.009140	-0.464955	-0.949489
N296	N	1.342473	-0.131622	-0.616156
N297	N	1.675807	0.201712	-0.282823
H298	H	1.054094	-0.462921	-0.982525
H299	H	1.387428	-0.129587	-0.649191
H300	H	1.720761	0.203746	-0.315858
H301	H	1.017915	-0.497182	-0.907878
H302	H	1.351249	-0.163849	-0.574544
H303	H	1.684582	0.169484	-0.241211
H304	H	1.005969	-0.447763	-0.814132
H305	H	1.339303	-0.114430	-0.480799
H306	H	1.672636	0.218904	-0.147465
N307	N	1.150923	-0.430804	-0.945667
N308	N	1.484256	-0.097471	-0.612334
N309	N	1.817590	0.235863	-0.279000
H310	H	1.159477	-0.461995	-0.903105
H311	H	1.492810	-0.128662	-0.569771
H312	H	1.826144	0.204671	-0.236438
H313	H	1.108795	-0.451530	-0.977217
H314	H	1.442128	-0.118197	-0.643884
H315	H	1.775461	0.215137	-0.310550
N316	N	0.479496	-0.467814	-0.408727
N317	N	0.812829	-0.134480	-0.075394
N318	N	1.146163	0.198853	0.257939
H319	H	0.521924	-0.492436	-0.433144
H320	H	0.855258	-0.159103	-0.099811
H321	H	1.188591	0.174230	0.233522
H322	H	0.446957	-0.502929	-0.382270
H323	H	0.780290	-0.169596	-0.048937
H324	H	1.113624	0.163738	0.284397
H325	H	0.620422	-0.296530	-0.254971
H326	H	0.953755	0.036803	0.078363
H327	H	1.287089	0.370137	0.411696
N328	N	1.151681	-0.429690	-0.805101
N329	N	1.485014	-0.096356	-0.471768
N330	N	1.818348	0.236977	-0.138435
H331	H	1.201396	-0.442155	-0.825985
H332	H	1.534729	-0.108821	-0.492652
H333	H	1.868063	0.224512	-0.159318
H334	H	1.153862	-0.428662	-0.749313
H335	H	1.487195	-0.095329	-0.415980
H336	H	1.820529	0.238005	-0.082647
N337	N	0.961617	-0.244361	-0.798285
N338	N	1.294951	0.088972	-0.464951
N339	N	1.628284	0.422305	-0.131618
H340	H	0.966822	-0.199577	-0.766737
H341	H	1.300156	0.133757	-0.433404
H342	H	1.633489	0.467090	-0.100071
H343	H	0.928224	-0.237092	-0.841730
H344	H	1.261557	0.096242	-0.508396
H345	H	1.594891	0.429575	-0.175063
N346	N	0.619545	-0.467741	-0.409811
N347	N	0.952879	-0.134408	-0.076478
N348	N	1.286212	0.198925	0.256855
H349	H	0.653274	-0.445304	-0.447343
H350	H	0.986607	-0.111970	-0.114010
H351	H	1.319940	0.221363	0.219324
H352	H	0.646908	-0.504382	-0.383566
H353	H	0.980241	-0.171049	-0.050233
H354	H	1.313575	0.162285	0.283101
H355	H	1.177847	-0.320327	-0.808236
H356	H	1.511180	0.013006	-0.474903
H357	H	1.844514	0.346340	-0.141570
H358	H	0.983441	-0.245705	-0.932518
H359	H	1.316775	0.087629	-0.599185
H360	H	1.650108	0.420962	-0.265851
H361	H	0.615770	-0.428682	-0.298133
H362	H	0.949103	-0.095349	0.035201
H363	H	1.282437	0.237984	0.368534
N364	N	1.090690	-0.208212	-0.795277
N365	N	1.424023	0.125121	-0.461944
N366	N	1.757356	0.458454	-0.128611
H367	H	1.127895	-0.229977	-0.762679
H368	H	1.461228	0.103357	-0.429346
H369	H	1.794561	0.436690	-0.096013
H370	H	1.117240	-0.184838	-0.837326
H371	H	1.450573	0.148495	-0.503993
H372	H	1.783907	0.481829	-0.170660
H373	H	1.082192	-0.223708	-0.930220
H374	H	1.415525	0.109626	-0.596887
H375	H	1.748858	0.442959	-0.263553
H376	H	0.496816	-0.228932	-0.323490
H377	H	0.830150	0.104402	0.009843
H378	H	1.163483	0.437735	0.343176
N379	N	0.485382	-0.300031	-0.237015
N380	N	0.818716	0.033303	0.096319
N381	N	1.152049	0.366636	0.429652
H382	H	0.450251	-0.342512	-0.241007
H383	H	0.783585	-0.009179	0.092326
H384	H	1.116918	0.324154	0.425660
H385	H	0.527792	-0.309688	-0.203209
H386	H	0.861125	0.023645	0.130124
H387	H	1.194459	0.356978	0.463458
