data_functionalizedCrystal
_audit_creation_method	'MofGen! by Chris Wilmer'
_symmetry_space_group_name_H-M	'P1'
_symmetry_Int_Tables_number	1
_symmetry_cell_setting	triclinic
loop_
_symmetry_equiv_pos_as_xyz
  x,y,z
_cell_length_a	12.759395
_cell_length_b	12.759394
_cell_length_c	12.759393
_cell_angle_alpha	89.968780
_cell_angle_beta	89.979644
_cell_angle_gamma	90.016374
loop_
_atom_site_label
_atom_site_type_symbol
_atom_site_fract_x
_atom_site_fract_y
_atom_site_fract_z
Zn1	Zn	1.606266	-0.418173	-0.593999
Zn2	Zn	1.606157	-0.593888	-0.418316
Zn3	Zn	1.430565	-0.418229	-0.418335
Zn4	Zn	1.430556	-0.593815	-0.593955
O5	O	1.518386	-0.506026	-0.506151
O6	O	1.753273	-0.441489	-0.570704
O7	O	1.582822	-0.570641	-0.271298
O8	O	1.453921	-0.271200	-0.441664
O9	O	1.753192	-0.570586	-0.441631
O10	O	1.583008	-0.271159	-0.570722
O11	O	1.453815	-0.441584	-0.271312
O12	O	1.283543	-0.441513	-0.441622
O13	O	1.453907	-0.570461	-0.740982
O14	O	1.283536	-0.570516	-0.570649
O15	O	1.583000	-0.441418	-0.741014
O16	O	1.582814	-0.740900	-0.441589
O17	O	1.453801	-0.740846	-0.570631
C18	C	1.245418	-0.506013	-0.506133
C19	C	1.128642	-0.506033	-0.506151
C20	C	1.128674	-0.640581	-0.640289
C21	C	1.073829	-0.707863	-0.707362
C22	C	0.964107	-0.707876	-0.707374
C23	C	0.909228	-0.640597	-0.640310
C24	C	0.964073	-0.573315	-0.573238
C25	C	1.073797	-0.573311	-0.573230
C26	C	0.964041	-0.438763	-0.439106
C27	C	1.073762	-0.438754	-0.439086
C28	C	0.909161	-0.371485	-0.372041
C29	C	0.964006	-0.304206	-0.304962
C30	C	1.073734	-0.304197	-0.304951
C31	C	1.128607	-0.371472	-0.372014
C32	C	1.518323	-0.778994	-0.506126
C33	C	1.518392	-0.895770	-0.506150
C34	C	1.652834	-0.895773	-0.371880
C35	C	1.720082	-0.950635	-0.304758
C36	C	1.720144	-1.060357	-0.304786
C37	C	1.652952	-1.115219	-0.371947
C38	C	1.585704	-1.060356	-0.439070
C39	C	1.585647	-0.950632	-0.439031
C40	C	1.451269	-1.060354	-0.573343
C41	C	1.451200	-0.950632	-0.573311
C42	C	1.384077	-1.115216	-0.640504
C43	C	1.316822	-1.060353	-0.707623
C44	C	1.316762	-0.950625	-0.707591
C45	C	1.383952	-0.895770	-0.640434
C46	C	1.792419	-0.506040	-0.506170
C47	C	1.909196	-0.506045	-0.506178
C48	C	1.518465	-0.505925	-0.780185
C49	C	1.518498	-0.505882	-0.896962
C50	C	1.518478	-0.231993	-0.506200
C51	C	1.518517	-0.115216	-0.506221
C52	C	1.585722	-0.438678	-0.951842
C53	C	1.585740	-0.438633	-1.061566
C54	C	1.451307	-0.573004	-1.061520
C55	C	1.451285	-0.573044	-0.951798
C56	C	1.518368	-0.506051	-0.233184
C57	C	1.518538	-0.505798	-0.116408
H58	H	0.919315	-0.249428	-0.250369
Br59	Br	1.225500	-0.876179	-0.798700
Br60	Br	1.676984	-0.347432	-1.136043
H61	H	1.640449	-0.383988	-0.907197
H62	H	1.652777	-0.806432	-0.371837
H63	H	1.384136	-1.204557	-0.640527
H64	H	1.774792	-0.905957	-0.250078
Br65	Br	1.360097	-0.664151	-1.135947
H66	H	1.396535	-0.627768	-0.907113
Br67	Br	0.760319	-0.640597	-0.640347
Br68	Br	1.277516	-0.371472	-0.371997
H69	H	1.653017	-1.204560	-0.371973
Br70	Br	1.225653	-1.134812	-0.798769
H71	H	1.774909	-1.105025	-0.250134
H72	H	1.383903	-0.806429	-0.640394
Br73	Br	1.148311	-0.799171	-0.798368
Br74	Br	0.760252	-0.371491	-0.372066
H75	H	1.218015	-0.640585	-0.640278
Br76	Br	1.148158	-0.212872	-0.213928
Br77	Br	0.889671	-0.799178	-0.798410
