data_functionalizedCrystal
_audit_creation_method	'MofGen! by Chris Wilmer'
_symmetry_space_group_name_H-M	'P1'
_symmetry_Int_Tables_number	1
_symmetry_cell_setting	triclinic
loop_
_symmetry_equiv_pos_as_xyz
  x,y,z
_cell_length_a	14.519709
_cell_length_b	14.519731
_cell_length_c	7.540329
_cell_angle_alpha	89.995423
_cell_angle_beta	90.002655
_cell_angle_gamma	83.684499
loop_
_atom_site_label
_atom_site_type_symbol
_atom_site_fract_x
_atom_site_fract_y
_atom_site_fract_z
O1	O	1.223875	0.120889	-0.147256
O2	O	0.955399	0.135125	-0.147310
O3	O	1.096745	-0.006230	-0.147265
O4	O	1.082529	0.262244	-0.147300
O5	O	1.096737	-0.006232	0.147700
O6	O	0.955391	0.135123	0.147655
O7	O	1.223866	0.120887	0.147710
Cu8	Cu	1.089628	0.128005	0.174615
Cu9	Cu	1.089638	0.128007	-0.174216
O10	O	1.082520	0.262242	0.147665
C11	C	0.921035	0.134461	0.000165
C12	C	0.818654	0.132473	0.000145
C13	C	0.443757	0.125153	0.000227
C14	C	0.548065	0.127186	0.000203
C15	C	0.631202	0.128813	0.000184
C16	C	0.735517	0.130846	0.000164
C17	C	1.096075	-0.040591	0.000217
C18	C	1.094079	-0.142971	0.000218
C19	C	1.092457	-0.226115	0.000214
C20	C	1.090430	-0.330424	0.000200
C21	C	1.088822	-0.413563	0.000188
C22	C	1.086795	-0.517878	0.000177
C23	C	1.258230	0.121551	0.000230
C24	C	1.360612	0.123539	0.000239
C25	C	1.083191	0.296603	0.000178
C26	C	1.085187	0.398983	0.000166
N27	N	1.089627	0.128003	0.419963
N28	N	1.089645	0.128002	-0.419564
