data_functionalizedCrystal
_audit_creation_method	'MofGen! by Chris Wilmer'
_symmetry_space_group_name_H-M	'P1'
_symmetry_Int_Tables_number	1
_symmetry_cell_setting	triclinic
loop_
_symmetry_equiv_pos_as_xyz
  x,y,z
_cell_length_a	17.077404
_cell_length_b	19.076808
_cell_length_c	17.077396
_cell_angle_alpha	92.329364
_cell_angle_beta	90.021444
_cell_angle_gamma	92.321597
loop_
_atom_site_label
_atom_site_type_symbol
_atom_site_fract_x
_atom_site_fract_y
_atom_site_fract_z
Zn1	Zn	1.187484	-0.280249	0.431310
Zn2	Zn	1.182111	-0.397960	0.294763
Zn3	Zn	1.056214	-0.280270	0.300053
Zn4	Zn	1.050905	-0.397914	0.425984
O5	O	1.119179	-0.339098	0.363027
O6	O	1.296617	-0.295875	0.413212
O7	O	1.165384	-0.382376	0.185616
O8	O	1.078098	-0.181771	0.321907
O9	O	1.292670	-0.382356	0.312891
O10	O	1.174541	-0.181756	0.418341
O11	O	1.072888	-0.295910	0.189503
O12	O	0.945664	-0.295865	0.316743
O13	O	1.069050	-0.382278	0.536539
O14	O	0.941763	-0.382298	0.409264
O15	O	1.169393	-0.295830	0.540452
O16	O	1.160235	-0.496450	0.307727
O17	O	1.063840	-0.496416	0.404135
C18	C	0.915232	-0.339079	0.363000
C19	C	0.827981	-0.339088	0.363006
C20	C	0.454215	-0.294168	0.415369
C21	C	0.536195	-0.294163	0.415360
C22	C	0.575131	-0.339113	0.363047
C23	C	0.532082	-0.384077	0.310743
C24	C	0.450103	-0.384085	0.310756
C25	C	0.702953	-0.384055	0.310719
C26	C	0.784938	-0.384046	0.310705
C27	C	0.789045	-0.294133	0.415323
C28	C	0.707066	-0.294142	0.415336
C29	C	0.664023	-0.339104	0.363031
C30	C	1.110900	-0.521972	0.354796
C31	C	1.107430	-0.600206	0.351301
C32	C	1.155975	-0.636893	0.399908
C33	C	1.152711	-0.710402	0.396625
C34	C	1.100906	-0.747224	0.344731
C35	C	1.052356	-0.710532	0.296122
C36	C	1.055616	-0.637024	0.299410
C37	C	1.085772	-0.967077	0.329515
C38	C	1.082517	-1.040590	0.326230
C39	C	1.182872	-1.040454	0.426734
C40	C	1.186130	-0.966945	0.430013
C41	C	1.137577	-0.930260	0.381408
N42	N	1.097571	-0.822362	0.341373
N43	N	1.140909	-0.855123	0.384771
C44	C	1.323922	-0.339118	0.363056
C45	C	1.411171	-0.339126	0.363068
C46	C	1.119228	-0.339046	0.567774
C47	C	1.119250	-0.339024	0.655025
C48	C	1.127511	-0.155510	0.371308
C49	C	1.131062	-0.077276	0.374837
C50	C	1.119176	-0.339099	0.159080
C51	C	1.119316	-0.338923	0.071838
C52	C	1.171500	-0.294007	0.698054
C53	C	1.171511	-0.293984	0.780036
C54	C	1.119274	-0.338982	0.818986
C55	C	1.067017	-0.384000	0.775952
C56	C	1.067004	-0.384020	0.693972
C57	C	1.067051	-0.383958	0.946824
C58	C	1.067065	-0.383940	1.028809
C59	C	1.171558	-0.293922	1.032887
C60	C	1.171544	-0.293942	0.950908
C61	C	1.119289	-0.338962	0.907878
H62	H	0.667909	-0.420672	0.268130
Cl63	Cl	1.251258	-0.920660	0.495255
H64	H	1.024528	-0.420579	1.060521
H65	H	0.422519	-0.257560	0.457964
Cl66	Cl	0.987221	-0.756823	0.230892
H67	H	1.016085	-0.607155	0.259830
Cl68	Cl	0.590303	-0.237645	0.481117
H69	H	1.046240	-0.937214	0.289937
Cl70	Cl	1.001312	-0.440613	0.639878
Cl71	Cl	0.581030	-0.440589	0.244980
H72	H	1.198163	-0.606917	0.442162
Cl73	Cl	1.237178	-0.237439	0.649095
H74	H	1.024487	-0.420607	0.911792
H75	H	0.415058	-0.420696	0.268169
H76	H	1.192248	-0.740269	0.436200
Cl77	Cl	1.017389	-1.086879	0.260984
H78	H	0.675367	-0.257536	0.457931
H79	H	1.222400	-1.070331	0.466307
Cl80	Cl	1.237234	-0.237420	0.834125
H81	H	1.214085	-0.257305	0.919196
Cl82	Cl	0.843157	-0.237605	0.481073
H83	H	1.214105	-0.257264	1.067926
H84	H	1.024482	-0.420636	0.807672
H85	H	0.816637	-0.420651	0.268109
