data_functionalizedCrystal
_audit_creation_method	'MofGen! by Chris Wilmer'
_symmetry_space_group_name_H-M	'P1'
_symmetry_Int_Tables_number	1
_symmetry_cell_setting	triclinic
loop_
_symmetry_equiv_pos_as_xyz
  x,y,z
_cell_length_a	16.625547
_cell_length_b	18.050590
_cell_length_c	18.050591
_cell_angle_alpha	90.005734
_cell_angle_beta	90.006494
_cell_angle_gamma	90.018489
loop_
_atom_site_label
_atom_site_type_symbol
_atom_site_fract_x
_atom_site_fract_y
_atom_site_fract_z
Zn1	Zn	1.232557	-0.295837	0.419992
Zn2	Zn	1.482557	-0.045837	0.669992
Zn3	Zn	1.732557	0.204163	0.919992
Zn4	Zn	1.982557	0.454163	1.169992
Zn5	Zn	1.232512	-0.419982	0.295800
Zn6	Zn	1.482512	-0.169982	0.545800
Zn7	Zn	1.732512	0.080018	0.795800
Zn8	Zn	1.982512	0.330018	1.045800
Zn9	Zn	1.097761	-0.295810	0.295807
Zn10	Zn	1.347761	-0.045810	0.545807
Zn11	Zn	1.597761	0.204190	0.795807
Zn12	Zn	1.847761	0.454190	1.045807
Zn13	Zn	1.097698	-0.419989	0.419940
Zn14	Zn	1.347698	-0.169989	0.669940
Zn15	Zn	1.597698	0.080011	0.919940
Zn16	Zn	1.847698	0.330011	1.169940
O17	O	1.165132	-0.357905	0.357885
O18	O	1.415132	-0.107905	0.607885
O19	O	1.665132	0.142095	0.857885
O20	O	1.915132	0.392095	1.107885
O21	O	1.345383	-0.312313	0.403537
O22	O	1.595383	-0.062313	0.653537
O23	O	1.845383	0.187687	0.903537
O24	O	2.095383	0.437687	1.153537
O25	O	1.214645	-0.403496	0.191877
O26	O	1.464645	-0.153496	0.441877
O27	O	1.714645	0.096504	0.691877
O28	O	1.964645	0.346504	0.941877
O29	O	1.115687	-0.191889	0.312305
O30	O	1.365687	0.058111	0.562305
O31	O	1.615687	0.308111	0.812305
O32	O	1.865687	0.558111	1.062305
O33	O	1.345350	-0.403522	0.312294
O34	O	1.595350	-0.153522	0.562294
O35	O	1.845350	0.096478	0.812294
O36	O	2.095350	0.346478	1.062294
O37	O	1.214721	-0.191909	0.403543
O38	O	1.464721	0.058091	0.653543
O39	O	1.714721	0.308091	0.903543
O40	O	1.964721	0.558091	1.153543
O41	O	1.115644	-0.312268	0.191882
O42	O	1.365644	-0.062268	0.441882
O43	O	1.615644	0.187732	0.691882
O44	O	1.865644	0.437732	0.941882
O45	O	0.984921	-0.312275	0.312254
O46	O	1.234921	-0.062275	0.562254
O47	O	1.484921	0.187725	0.812254
O48	O	1.734921	0.437725	1.062254
O49	O	1.115579	-0.403535	0.523871
O50	O	1.365579	-0.153535	0.773871
O51	O	1.615579	0.096465	1.023871
O52	O	1.865579	0.346465	1.273871
O53	O	0.984874	-0.403509	0.403454
O54	O	1.234874	-0.153509	0.653454
O55	O	1.484874	0.096491	0.903454
O56	O	1.734874	0.346491	1.153454
O57	O	1.214659	-0.312320	0.523910
O58	O	1.464659	-0.062320	0.773910
O59	O	1.714659	0.187680	1.023910
O60	O	1.964659	0.437680	1.273910
O61	O	1.214584	-0.523908	0.312243
O62	O	1.464584	-0.273908	0.562243
O63	O	1.714584	-0.023908	0.812243
O64	O	1.964584	0.226092	1.062243
O65	O	1.115536	-0.523913	0.403448
O66	O	1.365536	-0.273913	0.653448
O67	O	1.615536	-0.023913	0.903448
O68	O	1.865536	0.226087	1.153448
C69	C	0.955641	-0.357890	0.357850
C70	C	1.205641	-0.107890	0.607850
C71	C	1.455641	0.142110	0.857850
C72	C	1.705641	0.392110	1.107850
C73	C	0.866020	-0.357902	0.357852
C74	C	1.116020	-0.107902	0.607852
C75	C	1.366020	0.142098	0.857852
C76	C	1.616020	0.392098	1.107852
C77	C	0.793238	-0.357903	0.357862
C78	C	1.043238	-0.107903	0.607862
C79	C	1.293238	0.142097	0.857862
C80	C	1.543238	0.392097	1.107862
C81	C	0.701929	-0.357907	0.357880
C82	C	0.951929	-0.107907	0.607880
C83	C	1.201929	0.142093	0.857880
C84	C	1.451929	0.392093	1.107880
C85	C	0.629153	-0.357914	0.357899
C86	C	0.879153	-0.107914	0.607899
C87	C	1.129153	0.142086	0.857899
C88	C	1.379153	0.392086	1.107899
C89	C	0.537838	-0.357919	0.357917
C90	C	0.787838	-0.107919	0.607917
C91	C	1.037838	0.142081	0.857917
C92	C	1.287838	0.392081	1.107917
C93	C	1.165070	-0.550857	0.357855
C94	C	1.415070	-0.300857	0.607855
C95	C	1.665070	-0.050857	0.857855
C96	C	1.915070	0.199143	1.107855
C97	C	1.165117	-0.633403	0.357867
C98	C	1.415117	-0.383403	0.607867
C99	C	1.665117	-0.133403	0.857867
C100	C	1.915117	0.116597	1.107867
C101	C	1.219091	-0.832823	0.308340
C102	C	1.469091	-0.582823	0.558340
C103	C	1.719091	-0.332823	0.808340
C104	C	1.969091	-0.082823	1.058340
C105	C	1.238765	-0.882183	0.376121
C106	C	1.488765	-0.632183	0.626121
C107	C	1.738765	-0.382183	0.876121
C108	C	1.988765	-0.132183	1.126121
C109	C	1.165163	-0.784533	0.357897
C110	C	1.415163	-0.534533	0.607897
C111	C	1.665163	-0.284533	0.857897
C112	C	1.915163	-0.034533	1.107897
C113	C	1.145571	-0.882255	0.290146
C114	C	1.395571	-0.632255	0.540146
C115	C	1.645571	-0.382255	0.790146
C116	C	1.895571	-0.132255	1.040146
C117	C	1.165209	-0.930518	0.357920
C118	C	1.415209	-0.680518	0.607920
C119	C	1.665209	-0.430518	0.857920
C120	C	1.915209	-0.180518	1.107920
C121	C	1.184874	-0.832805	0.425714
C122	C	1.434874	-0.582805	0.675714
C123	C	1.684874	-0.332805	0.925714
C124	C	1.934874	-0.082805	1.175714
C125	C	1.091647	-0.832873	0.339693
C126	C	1.341647	-0.582873	0.589693
C127	C	1.591647	-0.332873	0.839693
C128	C	1.841647	-0.082873	1.089693
C129	C	1.111292	-0.882210	0.407522
C130	C	1.361292	-0.632210	0.657522
C131	C	1.611292	-0.382210	0.907522
C132	C	1.861292	-0.132210	1.157522
C133	C	1.165139	-0.700435	0.357883
C134	C	1.415139	-0.450435	0.607883
C135	C	1.665139	-0.200435	0.857883
C136	C	1.915139	0.049565	1.107883
C137	C	1.165233	-1.014615	0.357941
C138	C	1.415233	-0.764615	0.607941
C139	C	1.665233	-0.514615	0.857941
C140	C	1.915233	-0.264615	1.107941
C141	C	1.375441	-0.357920	0.357920
C142	C	1.625441	-0.107920	0.607920
C143	C	1.875441	0.142080	0.857920
C144	C	2.125441	0.392080	1.107920
C145	C	1.465062	-0.357926	0.357936
C146	C	1.715062	-0.107926	0.607936
C147	C	1.965062	0.142074	0.857936
C148	C	2.215062	0.392074	1.107936
C149	C	1.165117	-0.357931	0.551590
C150	C	1.415117	-0.107931	0.801590
C151	C	1.665117	0.142069	1.051590
C152	C	1.915117	0.392069	1.301590
C153	C	1.165111	-0.357943	0.634136
C154	C	1.415111	-0.107943	0.884136
C155	C	1.665111	0.142057	1.134136
C156	C	1.915111	0.392057	1.384136
C157	C	1.165216	-0.164199	0.357931
C158	C	1.415216	0.085801	0.607931
C159	C	1.665216	0.335801	0.857931
C160	C	1.915216	0.585801	1.107931
C161	C	1.165252	-0.081653	0.357950
C162	C	1.415252	0.168347	0.607950
C163	C	1.665252	0.418347	0.857950
C164	C	1.915252	0.668347	1.107950
C165	C	1.111224	-0.407538	0.833566
C166	C	1.361224	-0.157538	1.083566
C167	C	1.611224	0.092462	1.333566
C168	C	1.861224	0.342462	1.583566
C169	C	1.184779	-0.425707	0.882962
C170	C	1.434779	-0.175707	1.132962
C171	C	1.684779	0.074293	1.382962
C172	C	1.934779	0.324293	1.632962
C173	C	1.165114	-0.357932	0.785267
C174	C	1.415114	-0.107932	1.035267
C175	C	1.665114	0.142068	1.285267
C176	C	1.915114	0.392068	1.535267
C177	C	1.091565	-0.339788	0.882952
C178	C	1.341565	-0.089788	1.132952
C179	C	1.591565	0.160212	1.382952
C180	C	1.841565	0.410212	1.632952
C181	C	1.165111	-0.357924	0.931252
C182	C	1.415111	-0.107924	1.181252
C183	C	1.665111	0.142076	1.431252
C184	C	1.915111	0.392076	1.681252
C185	C	1.238707	-0.376136	0.833575
C186	C	1.488707	-0.126136	1.083575
C187	C	1.738707	0.123864	1.333575
C188	C	1.988707	0.373864	1.583575
C189	C	1.145444	-0.290186	0.833561
C190	C	1.395444	-0.040186	1.083561
C191	C	1.645444	0.209814	1.333561
C192	C	1.895444	0.459814	1.583561
C193	C	1.219049	-0.308329	0.882935
C194	C	1.469049	-0.058329	1.132935
C195	C	1.719049	0.191671	1.382935
C196	C	1.969049	0.441671	1.632935
C197	C	1.165115	-0.357939	0.701168
C198	C	1.415115	-0.107939	0.951168
C199	C	1.665115	0.142061	1.201168
C200	C	1.915115	0.392061	1.451168
C201	C	1.165119	-0.357917	1.015348
C202	C	1.415119	-0.107917	1.265348
C203	C	1.665119	0.142083	1.515348
C204	C	1.915119	0.392083	1.765348
C205	C	1.165133	-0.357902	1.164933
C206	C	1.415133	-0.107902	1.414933
C207	C	1.665133	0.142098	1.664933
C208	C	1.915133	0.392098	1.914933
C209	C	1.165116	-0.357911	1.082387
C210	C	1.415116	-0.107911	1.332387
C211	C	1.665116	0.142089	1.582387
C212	C	1.915116	0.392089	1.832387
H213	H	1.264712	-0.811138	0.266474
H214	H	1.514712	-0.561138	0.516474
H215	H	1.764712	-0.311138	0.766474
H216	H	2.014712	-0.061138	1.016474
H217	H	1.065709	-0.449524	0.811890
H218	H	1.315709	-0.199524	1.061890
H219	H	1.565709	0.050476	1.311890
H220	H	1.815709	0.300476	1.561890
H221	H	1.201402	-0.811176	0.483069
H222	H	1.451402	-0.561176	0.733069
H223	H	1.701402	-0.311176	0.983069
H224	H	1.951402	-0.061176	1.233069
H225	H	1.128781	-0.232914	0.811845
H226	H	1.378781	0.017086	1.061845
H227	H	1.628781	0.267086	1.311845
H228	H	1.878781	0.517086	1.561845
H229	H	1.128982	-0.903976	0.232841
H230	H	1.378982	-0.653976	0.482841
H231	H	1.628982	-0.403976	0.732841
H232	H	1.878982	-0.153976	0.982841
H233	H	1.300924	-0.391544	0.811977
H234	H	1.550924	-0.141544	1.061977
H235	H	1.800924	0.108456	1.311977
H236	H	2.050924	0.358456	1.561977
H237	H	1.029367	-0.324445	0.904642
H238	H	1.279367	-0.074445	1.154642
H239	H	1.529367	0.175555	1.404642
H240	H	1.779367	0.425555	1.654642
H241	H	1.264673	-0.266375	0.904475
H242	H	1.514673	-0.016375	1.154475
H243	H	1.764673	0.233625	1.404475
H244	H	2.014673	0.483625	1.654475
H245	H	1.201420	-0.482996	0.904661
H246	H	1.451420	-0.232996	1.154661
H247	H	1.701420	0.017004	1.404661
H248	H	1.951420	0.267004	1.654661
H249	H	1.065707	-0.903758	0.449489
H250	H	1.315707	-0.653758	0.699489
H251	H	1.565707	-0.403758	0.949489
H252	H	1.815707	-0.153758	1.199489
H253	H	1.029474	-0.811196	0.324262
H254	H	1.279474	-0.561196	0.574262
H255	H	1.529474	-0.311196	0.824262
H256	H	1.779474	-0.061196	1.074262
H257	H	1.300956	-0.903844	0.391532
H258	H	1.550956	-0.653844	0.641532
H259	H	1.800956	-0.403844	0.891532
H260	H	2.050956	-0.153844	1.141532
