data_functionalizedCrystal
_audit_creation_method	'MofGen! by Chris Wilmer'
_symmetry_space_group_name_H-M	'P1'
_symmetry_Int_Tables_number	1
_symmetry_cell_setting	triclinic
loop_
_symmetry_equiv_pos_as_xyz
  x,y,z
_cell_length_a	21.295420
_cell_length_b	21.295417
_cell_length_c	21.395355
_cell_angle_alpha	89.979596
_cell_angle_beta	89.975403
_cell_angle_gamma	90.025484
loop_
_atom_site_label
_atom_site_type_symbol
_atom_site_fract_x
_atom_site_fract_y
_atom_site_fract_z
Zn1	Zn	0.962359	-0.250753	-0.354254
Zn2	Zn	1.295692	0.082580	-0.020921
Zn3	Zn	1.629026	0.415914	0.312413
Zn4	Zn	0.962263	-0.356004	-0.249473
Zn5	Zn	1.295596	-0.022671	0.083860
Zn6	Zn	1.628929	0.310662	0.417194
Zn7	Zn	0.857082	-0.250745	-0.249491
Zn8	Zn	1.190415	0.082588	0.083843
Zn9	Zn	1.523749	0.415921	0.417176
Zn10	Zn	0.857053	-0.355980	-0.354213
Zn11	Zn	1.190386	-0.022647	-0.020880
Zn12	Zn	1.523720	0.310686	0.312454
O13	O	0.909689	-0.303371	-0.301858
O14	O	1.243022	0.029963	0.031476
O15	O	1.576356	0.363296	0.364809
O16	O	1.050435	-0.264728	-0.340364
O17	O	1.383769	0.068605	-0.007031
O18	O	1.717102	0.401939	0.326302
O19	O	0.948282	-0.342048	-0.161797
O20	O	1.281616	-0.008715	0.171536
O21	O	1.614949	0.324618	0.504869
O22	O	0.871100	-0.162657	-0.263412
O23	O	1.204433	0.170676	0.069921
O24	O	1.537766	0.504010	0.403255
O25	O	1.050365	-0.342056	-0.263382
O26	O	1.383698	-0.008722	0.069951
O27	O	1.717032	0.324611	0.403285
O28	O	0.948446	-0.162663	-0.340381
O29	O	1.281779	0.170671	-0.007048
O30	O	1.615113	0.504004	0.326285
O31	O	0.871006	-0.264715	-0.161810
O32	O	1.204340	0.068618	0.171523
O33	O	1.537673	0.401952	0.504856
O34	O	0.768989	-0.264692	-0.263372
O35	O	1.102322	0.068642	0.069961
O36	O	1.435656	0.401975	0.403294
O37	O	0.871050	-0.342015	-0.441896
O38	O	1.204383	-0.008682	-0.108563
O39	O	1.537717	0.324652	0.224770
O40	O	0.768967	-0.342008	-0.340312
O41	O	1.102301	-0.008674	-0.006978
O42	O	1.435634	0.324659	0.326355
O43	O	0.948418	-0.264705	-0.441926
O44	O	1.281751	0.068629	-0.108593
O45	O	1.615085	0.401962	0.224740
O46	O	0.948254	-0.444091	-0.263343
O47	O	1.281587	-0.110757	0.069991
O48	O	1.614921	0.222576	0.403324
O49	O	0.870957	-0.444073	-0.340295
O50	O	1.204290	-0.110740	-0.006961
O51	O	1.537624	0.222594	0.326372
C52	C	0.746138	-0.303347	-0.301840
C53	C	1.079471	0.029987	0.031493
C54	C	1.412804	0.363320	0.364827
C55	C	0.676169	-0.303352	-0.301847
C56	C	1.009503	0.029982	0.031486
C57	C	1.342836	0.363315	0.364819
C58	C	0.176748	-0.263201	-0.342017
C59	C	0.510081	0.070132	-0.008683
C60	C	0.843414	0.403466	0.324650
C61	C	0.242490	-0.263196	-0.342017
C62	C	0.575823	0.070137	-0.008683
C63	C	0.909157	0.403470	0.324650
C64	C	0.275330	-0.303390	-0.301872
C65	C	0.608663	0.029943	0.031461
C66	C	0.941997	0.363277	0.364794
C67	C	0.242422	-0.343603	-0.261736
C68	C	0.575755	-0.010269	0.071597
C69	C	0.909089	0.323064	0.404930
C70	C	0.176681	-0.343611	-0.261742
C71	C	0.510014	-0.010277	0.071592
C72	C	0.843347	0.323056	0.404925
N73	N	0.378520	-0.308125	-0.247010
N74	N	0.711853	0.025208	0.086323
N75	N	1.045187	0.358541	0.419657
N76	N	0.440971	-0.308114	-0.247007
N77	N	0.774305	0.025219	0.086327
N78	N	1.107638	0.358553	0.419660
C79	C	0.473405	-0.303369	-0.301854
C80	C	0.806738	0.029964	0.031480
C81	C	1.140071	0.363297	0.364813
N82	N	0.441027	-0.298624	-0.356706
N83	N	0.774361	0.034710	-0.023373
N84	N	1.107694	0.368043	0.309961
N85	N	0.378570	-0.298632	-0.356709
N86	N	0.711903	0.034702	-0.023375
N87	N	1.045237	0.368035	0.309958
C88	C	0.346615	-0.303386	-0.301862
C89	C	0.679949	0.029947	0.031471
C90	C	1.013282	0.363281	0.364805
C91	C	0.577590	-0.263157	-0.341990
C92	C	0.910924	0.070176	-0.008657
C93	C	1.244257	0.403509	0.324676
C94	C	0.643334	-0.263157	-0.341991
C95	C	0.976667	0.070176	-0.008658
C96	C	1.310001	0.403510	0.324675
C97	C	0.643265	-0.343560	-0.261705
C98	C	0.976598	-0.010226	0.071628
C99	C	1.309931	0.323107	0.404961
C100	C	0.577522	-0.343563	-0.261710
C101	C	0.910856	-0.010230	0.071624
C102	C	1.244189	0.323103	0.404957
C103	C	0.544689	-0.303359	-0.301852
C104	C	0.878022	0.029975	0.031482
C105	C	1.211356	0.363308	0.364815
C106	C	0.909609	-0.466922	-0.301826
C107	C	1.242942	-0.133589	0.031507
C108	C	1.576276	0.199744	0.364841
C109	C	0.909632	-0.536891	-0.301833
C110	C	1.242966	-0.203557	0.031500
C111	C	1.576299	0.129776	0.364833
C112	C	0.949883	-0.569703	-0.341940
C113	C	1.283217	-0.236370	-0.008606
C114	C	1.616550	0.096964	0.324727
C115	C	0.949906	-0.635445	-0.341955
C116	C	1.283239	-0.302112	-0.008622
C117	C	1.616572	0.031221	0.324711
C118	C	0.909683	-0.668373	-0.301853
C119	C	1.243017	-0.335040	0.031480
C120	C	1.576350	-0.001706	0.364814
C121	C	0.869424	-0.635553	-0.261744
C122	C	1.202758	-0.302219	0.071590
C123	C	1.536091	0.031114	0.404923
C124	C	0.869399	-0.569811	-0.261734
C125	C	1.202732	-0.236478	0.071599
C126	C	1.536065	0.096855	0.404933
N127	N	0.904924	-0.771625	-0.247019
N128	N	1.238257	-0.438291	0.086314
N129	N	1.571590	-0.104958	0.419647
N130	N	0.904952	-0.834076	-0.247031
N131	N	1.238285	-0.500743	0.086303
N132	N	1.571618	-0.167410	0.419636
C133	C	0.909757	-0.866448	-0.301881
C134	C	1.243090	-0.533114	0.031452
C135	C	1.576423	-0.199781	0.364785
N136	N	0.914545	-0.834008	-0.356722
N137	N	1.247878	-0.500675	-0.023388
N138	N	1.581212	-0.167342	0.309945
N139	N	0.914520	-0.771551	-0.356710
N140	N	1.247854	-0.438218	-0.023377
N141	N	1.581187	-0.104885	0.309957
C142	C	0.909706	-0.739658	-0.301860
C143	C	1.243039	-0.406325	0.031474
C144	C	1.576373	-0.072992	0.364807
C145	C	0.950034	-0.970546	-0.342008
C146	C	1.283368	-0.637212	-0.008675
C147	C	1.616701	-0.303879	0.324659
C148	C	0.950052	-1.036289	-0.342024
C149	C	1.283385	-0.702956	-0.008691
C150	C	1.616719	-0.369623	0.324642
C151	C	0.869574	-1.036395	-0.261807
C152	C	1.202907	-0.703062	0.071526
C153	C	1.536241	-0.369729	0.404859
C154	C	0.869553	-0.970653	-0.261796
C155	C	1.202886	-0.637320	0.071537
C156	C	1.536219	-0.303986	0.404870
C157	C	0.909786	-0.937732	-0.301896
C158	C	1.243120	-0.604399	0.031437
C159	C	1.576453	-0.271065	0.364771
C160	C	1.073879	-0.303395	-0.301876
C161	C	1.407213	0.029938	0.031458
C162	C	1.740546	0.363271	0.364791
C163	C	1.143847	-0.303406	-0.301884
C164	C	1.477181	0.029927	0.031450
C165	C	1.810514	0.363261	0.364783
C166	C	0.909741	-0.303358	-0.465281
C167	C	1.243075	0.029975	-0.131948
C168	C	1.576408	0.363309	0.201386
C169	C	0.909764	-0.303353	-0.534922
C170	C	1.243097	0.029981	-0.201589
C171	C	1.576430	0.363314	0.131744
C172	C	0.909787	-0.139181	-0.301903
C173	C	1.243120	0.194153	0.031430
C174	C	1.576454	0.527486	0.364763
C175	C	0.909828	-0.069212	-0.301923
C176	C	1.243162	0.264121	0.031411
C177	C	1.576495	0.597454	0.364744
C178	C	0.950047	-0.263096	-0.567652
C179	C	1.283381	0.070238	-0.234319
C180	C	1.616714	0.403571	0.099015
C181	C	0.950047	-0.263068	-0.633087
C182	C	1.283380	0.070265	-0.299754
C183	C	1.616713	0.403598	0.033579
C184	C	0.909769	-0.303310	-0.665791
C185	C	1.243102	0.030024	-0.332457
C186	C	1.576435	0.363357	0.000876
C187	C	0.869477	-0.343570	-0.633053
C188	C	1.202810	-0.010236	-0.299720
C189	C	1.536144	0.323097	0.033614
C190	C	0.869475	-0.343591	-0.567619
C191	C	1.202808	-0.010258	-0.234285
C192	C	1.536141	0.323076	0.099048
C193	C	0.904770	-0.359989	-0.769454
C194	C	1.238104	-0.026656	-0.436121
C195	C	1.571437	0.306677	-0.102788
C196	C	0.904777	-0.359969	-0.834887
C197	C	1.238110	-0.026636	-0.501554
C198	C	1.571444	0.306698	-0.168221
C199	C	0.909772	-0.303243	-0.867612
C200	C	1.243106	0.030090	-0.534278
C201	C	1.576439	0.363423	-0.200945
C202	C	0.914774	-0.246536	-0.834895
C203	C	1.248107	0.086797	-0.501561
C204	C	1.581441	0.420131	-0.168228
C205	C	0.914772	-0.246557	-0.769460
C206	C	1.248105	0.086776	-0.436127
C207	C	1.581438	0.420109	-0.102794
C208	C	0.909766	-0.303291	-0.736743
C209	C	1.243100	0.030043	-0.403410
C210	C	1.576433	0.363376	-0.070076
C211	C	0.950057	-0.262953	-0.971294
C212	C	1.283391	0.070380	-0.637961
C213	C	1.616724	0.403713	-0.304627
C214	C	0.950052	-0.262925	-1.036730
C215	C	1.283385	0.070408	-0.703397
C216	C	1.616719	0.403741	-0.370064
C217	C	0.869486	-0.343432	-1.036695
C218	C	1.202819	-0.010099	-0.703361
C219	C	1.536153	0.323235	-0.370028
C220	C	0.869488	-0.343455	-0.971259
C221	C	1.202821	-0.010121	-0.637926
C222	C	1.536155	0.323212	-0.304593
C223	C	0.909777	-0.303216	-0.938563
C224	C	1.243110	0.030117	-0.605230
C225	C	1.576444	0.363451	-0.271896
C226	C	0.909673	-0.303338	-0.139070
C227	C	1.243007	0.029995	0.194263
C228	C	1.576340	0.363329	0.527597
C229	C	0.909773	-0.303166	-0.069429
C230	C	1.243106	0.030167	0.263904
C231	C	1.576440	0.363500	0.597237
H232	H	0.550856	-0.230420	-0.374676
H233	H	0.884189	0.102913	-0.041343
H234	H	1.217523	0.436246	0.291991
F235	F	0.992751	-0.670374	-0.384641
F236	F	1.326084	-0.337041	-0.051308
F237	F	1.659418	-0.003707	0.282026
F238	F	0.826614	-0.670597	-0.219067
F239	F	1.159947	-0.337264	0.114266
F240	F	1.493280	-0.003931	0.447599
F241	F	0.678349	-0.220368	-0.384714
F242	F	1.011682	0.112966	-0.051380
F243	F	1.345015	0.446299	0.281953
H244	H	0.836621	-0.543095	-0.229074
H245	H	1.169954	-0.209762	0.104260
H246	H	1.503287	0.123572	0.437593
F247	F	0.826712	-0.935730	-0.219109
F248	F	1.160045	-0.602397	0.114225
F249	F	1.493378	-0.269063	0.447558
H250	H	0.918843	-0.200344	-0.861537
H251	H	1.252176	0.132989	-0.528204
H252	H	1.585510	0.466322	-0.194871
F253	F	0.920092	-0.186207	-0.734643
F254	F	1.253425	0.147126	-0.401310
F255	F	1.586758	0.480459	-0.067977
H256	H	0.982855	-0.230139	-1.063378
H257	H	1.316188	0.103194	-0.730045
H258	H	1.649522	0.436527	-0.396711
H259	H	0.982860	-0.230185	-0.944671
H260	H	1.316193	0.103148	-0.611338
H261	H	1.649526	0.436481	-0.278004
H262	H	0.550735	-0.376300	-0.229026
H263	H	0.884068	-0.042966	0.104307
H264	H	1.217401	0.290367	0.437640
H265	H	0.982853	-0.230329	-0.541035
H266	H	1.316186	0.103004	-0.207701
H267	H	1.649520	0.436337	0.125632
F268	F	0.992913	-0.220209	-0.667928
F269	F	1.326247	0.113124	-0.334595
F270	F	1.659580	0.446457	-0.001261
F271	F	0.992851	-0.935507	-0.384687
F272	F	1.326185	-0.602173	-0.051353
F273	F	1.659518	-0.268840	0.281980
H274	H	0.836685	-0.376191	-1.063321
H275	H	1.170018	-0.042858	-0.729988
H276	H	1.503351	0.290476	-0.396654
H277	H	0.836688	-0.376240	-0.944611
H278	H	1.170022	-0.042907	-0.611277
H279	H	1.503355	0.290427	-0.277944
F280	F	0.899459	-0.420322	-0.869701
F281	F	1.232793	-0.086988	-0.536368
F282	F	1.566126	0.246345	-0.203034
H283	H	0.982829	-1.063004	-0.374687
H284	H	1.316163	-0.729671	-0.041354
H285	H	1.649496	-0.396337	0.291980
H286	H	0.900534	-0.406171	-0.742816
H287	H	1.233867	-0.072837	-0.409483
H288	H	1.567201	0.260496	-0.076149
H289	H	0.836681	-0.376332	-0.659684
H290	H	1.170014	-0.042999	-0.326351
H291	H	1.503347	0.290334	0.006983
H292	H	0.836668	-0.376372	-0.540971
H293	H	1.170001	-0.043039	-0.207637
H294	H	1.503335	0.290294	0.125696
F295	F	0.826764	-1.071435	-0.219129
F296	F	1.160097	-0.738102	0.114204
F297	F	1.493431	-0.404768	0.447538
H298	H	0.150019	-0.230466	-0.374706
H299	H	0.483352	0.102867	-0.041373
H300	H	0.816686	0.436201	0.291961
H301	H	0.269283	-0.230454	-0.374697
H302	H	0.602616	0.102879	-0.041364
H303	H	0.935949	0.436213	0.291969
H304	H	0.269164	-0.376330	-0.229052
H305	H	0.602498	-0.042997	0.104281
H306	H	0.935831	0.290337	0.437615
H307	H	0.149894	-0.376351	-0.229060
H308	H	0.483227	-0.043018	0.104274
H309	H	0.816560	0.290315	0.437607
F310	F	0.992701	-0.534670	-0.384621
F311	F	1.326034	-0.201336	-0.051287
F312	F	1.659367	0.131997	0.282046
F313	F	0.678211	-0.386341	-0.218984
F314	F	1.011544	-0.053008	0.114349
F315	F	1.344878	0.280325	0.447682
