data_functionalizedCrystal
_audit_creation_method	'MofGen! by Chris Wilmer'
_symmetry_space_group_name_H-M	'P1'
_symmetry_Int_Tables_number	1
_symmetry_cell_setting	triclinic
loop_
_symmetry_equiv_pos_as_xyz
  x,y,z
_cell_length_a	16.109302
_cell_length_b	10.723023
_cell_length_c	9.798715
_cell_angle_alpha	90.002376
_cell_angle_beta	90.005394
_cell_angle_gamma	83.964664
loop_
_atom_site_label
_atom_site_type_symbol
_atom_site_fract_x
_atom_site_fract_y
_atom_site_fract_z
O1	O	1.104074	0.160394	0.113549
O2	O	0.862129	0.180354	0.113538
O3	O	0.988683	-0.011276	0.113538
O4	O	0.977520	0.352024	0.113549
O5	O	0.988674	-0.011277	-0.113444
O6	O	0.862121	0.180352	-0.113444
O7	O	1.104065	0.160393	-0.113433
Zn8	Zn	0.983091	0.170373	-0.149477
Zn9	Zn	0.983103	0.170374	0.149582
O10	O	0.977512	0.352023	-0.113433
C11	C	0.831145	0.179545	0.000046
C12	C	0.738836	0.177120	0.000042
C13	C	0.526457	0.171513	-0.123673
C14	C	0.439724	0.169222	-0.123668
C15	C	0.439744	0.169230	0.123800
C16	C	0.526476	0.171512	0.123794
C17	C	0.569830	0.172660	0.000053
C18	C	0.396364	0.168087	0.000064
C19	C	0.302324	0.165602	0.000070
C20	C	0.663877	0.175143	0.000047
C21	C	0.987866	-0.057766	0.000049
C22	C	0.985436	-0.196288	0.000053
C23	C	0.984358	-0.258038	0.117638
C24	C	0.981846	-0.401208	0.117646
C25	C	1.135049	0.161202	0.000063
C26	C	1.227359	0.163627	0.000076
C27	C	0.978328	0.398512	0.000060
C28	C	0.980758	0.537035	0.000064
N29	N	0.983089	0.170371	-0.353576
C30	C	0.929964	0.251179	-0.421387
C31	C	0.929975	0.251178	-0.578549
N32	N	0.983111	0.170366	0.353682
H33	H	0.404434	0.168296	0.224545
H34	H	0.981690	-0.409870	-0.100610
Br35	Br	0.585347	0.173053	0.291721
Br36	Br	0.983867	-0.284819	-0.167737
Br37	Br	0.585293	0.173067	-0.291605
H38	H	0.404413	0.168288	-0.224419
Br39	Br	0.854156	0.366486	-0.675735
H40	H	0.980922	-0.454313	0.218315
Br41	Br	0.985936	-0.169509	0.285429
Br42	Br	0.854143	0.366511	-0.324239
H43	H	1.028594	0.101174	-0.588013
H44	H	1.028584	0.101190	-0.411872
