data_functionalizedCrystal
_audit_creation_method	'MofGen! by Chris Wilmer'
_symmetry_space_group_name_H-M	'P1'
_symmetry_Int_Tables_number	1
_symmetry_cell_setting	triclinic
loop_
_symmetry_equiv_pos_as_xyz
  x,y,z
_cell_length_a	6.817900
_cell_length_b	17.253917
_cell_length_c	19.453114
_cell_angle_alpha	99.551551
_cell_angle_beta	101.709288
_cell_angle_gamma	102.659311
loop_
_atom_site_label
_atom_site_type_symbol
_atom_site_fract_x
_atom_site_fract_y
_atom_site_fract_z
V1	V	-4.007203	-0.112157	-0.225717
V2	V	-3.507203	0.387843	0.274283
O3	O	-3.994726	0.004528	-0.214559
O4	O	-3.494726	0.504528	0.285441
O5	O	-3.959203	-0.221560	-0.230773
O6	O	-3.459203	0.278440	0.269227
O7	O	-3.950113	-0.110810	-0.321150
O8	O	-3.450113	0.389190	0.178850
O9	O	-4.003879	-0.106989	-0.123556
O10	O	-3.503879	0.393011	0.376444
V11	V	-4.491905	-0.098156	-0.212696
V12	V	-3.991905	0.401844	0.287304
O13	O	-4.265875	-0.142871	-0.254280
O14	O	-3.765875	0.357129	0.245720
O15	O	-4.683431	-0.067442	-0.184134
O16	O	-4.183431	0.432558	0.315866
O17	O	-4.316699	0.011247	-0.207641
O18	O	-3.816699	0.511247	0.292359
O19	O	-4.621779	-0.214841	-0.223855
O20	O	-4.121779	0.285159	0.276145
O21	O	-4.612627	-0.103324	-0.314857
O22	O	-4.112627	0.396676	0.185143
O23	O	-4.325789	-0.099503	-0.117264
O24	O	-3.825789	0.400497	0.382736
C25	C	-3.804582	-0.248218	-0.228915
C26	C	-3.304582	0.251782	0.271085
C27	C	-3.846565	-0.337659	-0.233684
C28	C	-3.346565	0.162341	0.266316
C29	C	-3.831853	-0.367942	-0.170900
C30	C	-3.331853	0.132058	0.329100
C31	C	-3.871320	-0.451982	-0.175384
C32	C	-3.371320	0.048018	0.324616
C33	C	-3.925484	-0.505736	-0.242653
C34	C	-3.425484	-0.005736	0.257347
C35	C	-3.940203	-0.475449	-0.305442
C36	C	-3.440203	0.024551	0.194558
C37	C	-3.900750	-0.391411	-0.300958
C38	C	-3.400750	0.108589	0.199042
C39	C	-4.047183	-0.758333	-0.263037
C40	C	-3.547183	-0.258333	0.236963
C41	C	-4.086630	-0.842376	-0.267517
C42	C	-3.586630	-0.342376	0.232483
C43	C	-4.017747	-0.818904	-0.137458
C44	C	-3.517747	-0.318904	0.362542
C45	C	-3.978286	-0.734865	-0.132979
C46	C	-3.478286	-0.234865	0.367021
C47	C	-3.993018	-0.704584	-0.195769
C48	C	-3.493018	-0.204584	0.304231
N49	N	-3.965820	-0.591639	-0.247237
N50	N	-3.465820	-0.091639	0.252763
N51	N	-3.952696	-0.618684	-0.191184
N52	N	-3.452696	-0.118684	0.308816
C53	C	-3.792987	-0.106945	-0.344198
C54	C	-3.292987	0.393055	0.155802
C55	C	-3.827596	-0.106568	-0.422258
C56	C	-3.327596	0.393432	0.077742
C57	C	-4.025652	-0.110429	-0.462747
C58	C	-3.525652	0.389571	0.037253
C59	C	-4.058171	-0.110074	-0.536092
C60	C	-3.558171	0.389926	-0.036092
C61	C	-3.892631	-0.105875	-0.568949
C62	C	-3.392631	0.394125	-0.068949
C63	C	-3.694545	-0.102008	-0.528451
C64	C	-3.194545	0.397992	-0.028451
C65	C	-3.662027	-0.102355	-0.455105
C66	C	-3.162027	0.397645	0.044895
N67	N	-3.833043	-0.148365	-0.690284
N68	N	-3.333043	0.351635	-0.190284
N69	N	-3.863947	-0.148038	-0.759960
N70	N	-3.363947	0.351962	-0.259960
C71	C	-3.990594	-0.104829	-0.789935
C72	C	-3.490594	0.395171	-0.289935
N73	N	-4.085205	-0.061970	-0.747605
N74	N	-3.585205	0.438030	-0.247605
N75	N	-4.054306	-0.062301	-0.677924
N76	N	-3.554306	0.437699	-0.177924
C77	C	-3.927871	-0.105498	-0.648480
C78	C	-3.427871	0.394502	-0.148480
C79	C	-4.223923	-0.108305	-0.909953
C80	C	-3.723923	0.391695	-0.409953
C81	C	-4.256432	-0.107945	-0.983299
C82	C	-3.756432	0.392055	-0.483299
C83	C	-3.892804	-0.099887	-0.975658
C84	C	-3.392804	0.400113	-0.475658
C85	C	-3.860296	-0.100239	-0.902312
C86	C	-3.360296	0.399761	-0.402312
C87	C	-4.025865	-0.104452	-0.869465
C88	C	-3.525865	0.395548	-0.369465
C89	C	-4.134662	0.037901	-0.209497
C90	C	-3.634662	0.537901	0.290503
C91	C	-4.071917	0.127341	-0.204732
C92	C	-3.571917	0.627341	0.295268
C93	C	-4.146258	-0.103371	-0.094212
C94	C	-3.646258	0.396629	0.405788
C95	C	-4.090888	-0.103744	-0.016151
C96	C	-3.590888	0.396256	0.483849
H97	H	-3.912753	-0.366757	-0.352084
H98	H	-3.412753	0.133243	0.147916
H99	H	-3.787733	-0.324179	-0.116122
H100	H	-3.287733	0.175821	0.383878
H101	H	-3.859342	-0.476633	-0.124258
H102	H	-3.359342	0.023367	0.375742
H103	H	-4.160472	-0.113856	-0.436007
H104	H	-3.660472	0.386144	0.063993
F105	F	-4.268977	-0.114180	-0.579190
F106	F	-3.768977	0.385820	-0.079190
H107	H	-3.934195	-0.691102	-0.078202
H108	H	-3.434195	-0.191102	0.421798
F109	F	-4.467239	-0.112053	-1.026390
F110	F	-3.967239	0.387947	-0.526390
F111	F	-3.716614	-0.095405	-1.010619
F112	F	-3.216614	0.404595	-0.510619
H113	H	-3.500740	-0.099204	-0.422138
H114	H	-3.000740	0.400796	0.077862
F115	F	-4.400128	-0.112783	-0.874991
F116	F	-3.900128	0.387217	-0.374991
H117	H	-3.699024	-0.097103	-0.869347
H118	H	-3.199024	0.402897	-0.369347
F119	F	-3.518365	-0.097537	-0.563420
F120	F	-3.018365	0.402463	-0.063420
H121	H	-4.005761	-0.843567	-0.086338
H122	H	-3.505761	-0.343567	0.413662
F123	F	-4.144400	-0.899589	-0.339119
F124	F	-3.644400	-0.399589	0.160881
H125	H	-3.984321	-0.519223	-0.360214
H126	H	-3.484321	-0.019223	0.139786
F127	F	-4.062852	-0.726117	-0.329864
F128	F	-3.562852	-0.226117	0.170136
