data_functionalizedCrystal
_audit_creation_method	'MofGen! by Chris Wilmer'
_symmetry_space_group_name_H-M	'P1'
_symmetry_Int_Tables_number	1
_symmetry_cell_setting	triclinic
loop_
_symmetry_equiv_pos_as_xyz
  x,y,z
_cell_length_a	13.897449
_cell_length_b	29.839131
_cell_length_c	13.897441
_cell_angle_alpha	89.958174
_cell_angle_beta	89.978743
_cell_angle_gamma	90.036054
loop_
_atom_site_label
_atom_site_type_symbol
_atom_site_fract_x
_atom_site_fract_y
_atom_site_fract_z
Zn1	Zn	1.474565	-0.178833	-0.545368
Zn2	Zn	1.724565	0.071167	-0.295368
Zn3	Zn	1.974565	0.321167	-0.045368
Zn4	Zn	2.224565	0.571167	0.204632
Zn5	Zn	1.474415	-0.253967	-0.384035
Zn6	Zn	1.724415	-0.003967	-0.134035
Zn7	Zn	1.974415	0.246033	0.115965
Zn8	Zn	2.224415	0.496033	0.365965
Zn9	Zn	1.313260	-0.178853	-0.384079
Zn10	Zn	1.563260	0.071147	-0.134079
Zn11	Zn	1.813260	0.321147	0.115921
Zn12	Zn	2.063260	0.571147	0.365921
Zn13	Zn	1.313186	-0.253938	-0.545280
Zn14	Zn	1.563186	-0.003938	-0.295280
Zn15	Zn	1.813186	0.246062	-0.045280
Zn16	Zn	2.063186	0.496062	0.204720
O17	O	1.393857	-0.216398	-0.464690
O18	O	1.643857	0.033602	-0.214690
O19	O	1.893857	0.283602	0.035310
O20	O	2.143857	0.533602	0.285310
O21	O	1.609527	-0.188804	-0.523985
O22	O	1.859527	0.061196	-0.273985
O23	O	2.109527	0.311196	-0.023985
O24	O	2.359527	0.561196	0.226015
O25	O	1.453006	-0.244023	-0.249059
O26	O	1.703006	0.005977	0.000941
O27	O	1.953006	0.255977	0.250941
O28	O	2.203006	0.505977	0.500941
O29	O	1.334751	-0.115983	-0.405529
O30	O	1.584751	0.134017	-0.155529
O31	O	1.834751	0.384017	0.094471
O32	O	2.084751	0.634017	0.344471
O33	O	1.609417	-0.244004	-0.405454
O34	O	1.859417	0.005996	-0.155454
O35	O	2.109417	0.255996	0.094546
O36	O	2.359417	0.505996	0.344546
O37	O	1.453261	-0.115969	-0.524028
O38	O	1.703261	0.134031	-0.274028
O39	O	1.953261	0.384031	-0.024028
O40	O	2.203261	0.634031	0.225972
O41	O	1.334606	-0.188837	-0.249091
O42	O	1.584606	0.061163	0.000909
O43	O	1.834606	0.311163	0.250909
O44	O	2.084606	0.561163	0.500909
O45	O	1.178269	-0.188809	-0.405444
O46	O	1.428269	0.061191	-0.155444
O47	O	1.678269	0.311191	0.094556
O48	O	1.928269	0.561191	0.344556
O49	O	1.334625	-0.243955	-0.680273
O50	O	1.584625	0.006045	-0.430273
O51	O	1.834625	0.256045	-0.180273
O52	O	2.084625	0.506045	0.069727
O53	O	1.178214	-0.243974	-0.523878
O54	O	1.428214	0.006026	-0.273878
O55	O	1.678214	0.256026	-0.023878
O56	O	1.928214	0.506026	0.226122
O57	O	1.453189	-0.188776	-0.680338
O58	O	1.703189	0.061224	-0.430338
O59	O	1.953189	0.311224	-0.180338
O60	O	2.203189	0.561224	0.069662
O61	O	1.452935	-0.316830	-0.405369
O62	O	1.702935	-0.066830	-0.155369
O63	O	1.952935	0.183170	0.094631
O64	O	2.202935	0.433170	0.344631
O65	O	1.334480	-0.316809	-0.523835
O66	O	1.584480	-0.066809	-0.273835
O67	O	1.834480	0.183191	-0.023835
O68	O	2.084480	0.433191	0.226165
C69	C	1.143242	-0.216391	-0.464657
C70	C	1.393242	0.033609	-0.214657
C71	C	1.643242	0.283609	0.035343
C72	C	1.893242	0.533609	0.285343
C73	C	1.036028	-0.216399	-0.464665
C74	C	1.286028	0.033601	-0.214665
C75	C	1.536028	0.283601	0.035335
C76	C	1.786028	0.533601	0.285335
C77	C	0.948959	-0.216400	-0.464681
C78	C	1.198959	0.033600	-0.214681
C79	C	1.448959	0.283600	0.035319
C80	C	1.698959	0.533600	0.285319
C81	C	0.839726	-0.216404	-0.464711
C82	C	1.089726	0.033596	-0.214711
C83	C	1.339726	0.283596	0.035289
C84	C	1.589726	0.533596	0.285289
C85	C	1.393709	-0.333120	-0.464609
C86	C	1.643709	-0.083120	-0.214609
C87	C	1.893709	0.166880	0.035391
C88	C	2.143709	0.416880	0.285391
C89	C	1.393735	-0.383055	-0.464607
C90	C	1.643735	-0.133055	-0.214607
C91	C	1.893735	0.116945	0.035393
C92	C	2.143735	0.366945	0.285393
C93	C	1.455551	-0.692656	-0.526480
C94	C	1.705551	-0.442656	-0.276480
C95	C	1.955551	-0.192656	-0.026480
C96	C	2.205551	0.057344	0.223520
C97	C	1.455656	-0.880329	-0.526538
C98	C	1.705656	-0.630329	-0.276538
C99	C	1.955656	-0.380329	-0.026538
C100	C	2.205656	-0.130329	0.223462
O101	O	1.508070	-0.904558	-0.579085
O102	O	1.758070	-0.654558	-0.329085
O103	O	2.008070	-0.404558	-0.079085
O104	O	2.258070	-0.154558	0.170915
N105	N	1.394020	-0.903840	-0.464797
N106	N	1.644020	-0.653840	-0.214797
N107	N	1.894020	-0.403840	0.035203
N108	N	2.144020	-0.153840	0.285203
C109	C	1.332350	-0.880430	-0.403042
C110	C	1.582350	-0.630430	-0.153042
C111	C	1.832350	-0.380430	0.096958
C112	C	2.082350	-0.130430	0.346958
O113	O	1.279920	-0.904734	-0.350536
O114	O	1.529920	-0.654734	-0.100536
O115	O	1.779920	-0.404734	0.149464
O116	O	2.029920	-0.154734	0.399464
C117	C	1.332241	-0.692758	-0.402990
C118	C	1.582241	-0.442758	-0.152990
C119	C	1.832241	-0.192758	0.097010
C120	C	2.082241	0.057242	0.347010
C121	C	1.393887	-0.669249	-0.464728
C122	C	1.643887	-0.419249	-0.214728
C123	C	1.893887	-0.169249	0.035272
C124	C	2.143887	0.080751	0.285272
C125	C	1.517192	-0.669147	-0.588214
C126	C	1.767192	-0.419147	-0.338214
C127	C	2.017192	-0.169147	-0.088214
C128	C	2.267192	0.080853	0.161786
C129	C	1.517169	-0.622232	-0.588195
C130	C	1.767169	-0.372232	-0.338195
C131	C	2.017169	-0.122232	-0.088195
C132	C	2.267169	0.127768	0.161805
C133	C	1.455505	-0.598825	-0.526443
C134	C	1.705505	-0.348825	-0.276443
C135	C	1.955505	-0.098825	-0.026443
C136	C	2.205505	0.151175	0.223557
C137	C	1.393864	-0.622334	-0.464709
C138	C	1.643864	-0.372334	-0.214709
C139	C	1.893864	-0.122334	0.035291
C140	C	2.143864	0.127666	0.285291
C141	C	1.270566	-0.669348	-0.341240
C142	C	1.520566	-0.419348	-0.091240
C143	C	1.770566	-0.169348	0.158760
C144	C	2.020566	0.080652	0.408760
C145	C	1.270543	-0.622427	-0.341234
C146	C	1.520543	-0.372427	-0.091234
C147	C	1.770543	-0.122427	0.158766
C148	C	2.020543	0.127573	0.408766
C149	C	1.332189	-0.598919	-0.402972
C150	C	1.582189	-0.348919	-0.152972
C151	C	1.832189	-0.098919	0.097028
C152	C	2.082189	0.151081	0.347028
C153	C	1.332177	-0.552011	-0.402937
C154	C	1.582177	-0.302011	-0.152937
C155	C	1.832177	-0.052011	0.097063
C156	C	2.082177	0.197989	0.347063
N157	N	1.393813	-0.528500	-0.464678
N158	N	1.643813	-0.278500	-0.214678
N159	N	1.893813	-0.028500	0.035322
N160	N	2.143813	0.221500	0.285322
C161	C	1.455477	-0.551907	-0.526431
C162	C	1.705477	-0.301907	-0.276431
C163	C	1.955477	-0.051907	-0.026431
C164	C	2.205477	0.198093	0.223569
C165	C	1.332413	-0.978960	-0.403073
C166	C	1.582413	-0.728960	-0.153073
C167	C	1.832413	-0.478960	0.096927
C168	C	2.082413	-0.228960	0.346927
C169	C	1.332441	-1.025878	-0.403084
C170	C	1.582441	-0.775878	-0.153084
C171	C	1.832441	-0.525878	0.096916
C172	C	2.082441	-0.275878	0.346916
C173	C	1.455746	-1.025774	-0.526582
C174	C	1.705746	-0.775774	-0.276582
C175	C	1.955746	-0.525774	-0.026582
C176	C	2.205746	-0.275774	0.223418
C177	C	1.455722	-0.978855	-0.526565
C178	C	1.705722	-0.728855	-0.276565
C179	C	1.955722	-0.478855	-0.026565
C180	C	2.205722	-0.228855	0.223435
C181	C	1.394048	-0.955449	-0.464814
C182	C	1.644048	-0.705449	-0.214814
C183	C	1.894048	-0.455449	0.035186
C184	C	2.144048	-0.205449	0.285186
C185	C	1.455424	-0.453381	-0.526386
C186	C	1.705424	-0.203381	-0.276386
C187	C	1.955424	0.046619	-0.026386
C188	C	2.205424	0.296619	0.223614
C189	C	1.455399	-0.406462	-0.526359
C190	C	1.705399	-0.156462	-0.276359
C191	C	1.955399	0.093538	-0.026359
C192	C	2.205399	0.343538	0.223641
C193	C	1.332090	-0.406570	-0.402865
C194	C	1.582090	-0.156570	-0.152865
C195	C	1.832090	0.093430	0.097135
C196	C	2.082090	0.343430	0.347135
C197	C	1.332119	-0.453485	-0.402888
C198	C	1.582119	-0.203485	-0.152888
C199	C	1.832119	0.046515	0.097112
C200	C	2.082119	0.296515	0.347112
C201	C	1.393789	-0.476890	-0.464657
C202	C	1.643789	-0.226890	-0.214657
C203	C	1.893789	0.023110	0.035343
C204	C	2.143789	0.273110	0.285343
O205	O	1.279783	-0.527754	-0.350426
O206	O	1.529783	-0.277754	-0.100426
O207	O	1.779783	-0.027754	0.149574
O208	O	2.029783	0.222246	0.399574
O209	O	1.507883	-0.527595	-0.578944
O210	O	1.757883	-0.277595	-0.328944
O211	O	2.007883	-0.027595	-0.078944
O212	O	2.257883	0.222405	0.171056
C213	C	1.455574	-0.739571	-0.526499
C214	C	1.705574	-0.489571	-0.276499
C215	C	1.955574	-0.239571	-0.026499
C216	C	2.205574	0.010429	0.223501
C217	C	1.393934	-0.763080	-0.464765
C218	C	1.643934	-0.513080	-0.214765
C219	C	1.893934	-0.263080	0.035235
C220	C	2.143934	-0.013080	0.285235
C221	C	1.332270	-0.739673	-0.403013
C222	C	1.582270	-0.489673	-0.153013
C223	C	1.832270	-0.239673	0.096987
C224	C	2.082270	0.010327	0.346987
C225	C	1.393962	-0.809998	-0.464777
C226	C	1.643962	-0.559998	-0.214777
C227	C	1.893962	-0.309998	0.035223
C228	C	2.143962	-0.059998	0.285223
C229	C	1.455626	-0.833405	-0.526530
C230	C	1.705626	-0.583405	-0.276530
C231	C	1.955626	-0.333405	-0.026530
C232	C	2.205626	-0.083405	0.223470
C233	C	1.517261	-0.809894	-0.588271
C234	C	1.767261	-0.559894	-0.338271
C235	C	2.017261	-0.309894	-0.088271
C236	C	2.267261	-0.059894	0.161729
C237	C	1.517238	-0.762978	-0.588252
C238	C	1.767238	-0.512978	-0.338252
C239	C	2.017238	-0.262978	-0.088252
C240	C	2.267238	-0.012978	0.161748
C241	C	1.270634	-0.763184	-0.341272
C242	C	1.520634	-0.513184	-0.091272
C243	C	1.770634	-0.263184	0.158728
C244	C	2.020634	-0.013184	0.408728
C245	C	1.270663	-0.810100	-0.341295
C246	C	1.520663	-0.560100	-0.091295
C247	C	1.770663	-0.310100	0.158705
C248	C	2.020663	-0.060100	0.408705
C249	C	1.332327	-0.833506	-0.403048
C250	C	1.582327	-0.583506	-0.153048
C251	C	1.832327	-0.333506	0.096952
C252	C	2.082327	-0.083506	0.346952
C253	C	1.645449	-0.216405	-0.464725
C254	C	1.895449	0.033595	-0.214725
C255	C	2.145449	0.283595	0.035275
C256	C	2.395449	0.533595	0.285275
C257	C	1.752663	-0.216408	-0.464739
C258	C	2.002663	0.033592	-0.214739
C259	C	2.252663	0.283592	0.035261
C260	C	2.502663	0.533592	0.285261
C261	C	1.393916	-0.216360	-0.716284
C262	C	1.643916	0.033640	-0.466284
C263	C	1.893916	0.283640	-0.216284
C264	C	2.143916	0.533640	0.033716
C265	C	1.393941	-0.216344	-0.823498
C266	C	1.643941	0.033656	-0.573498
C267	C	1.893941	0.283656	-0.323498
C268	C	2.143941	0.533656	-0.073498
C269	C	1.394031	-0.099220	-0.464793
C270	C	1.644031	0.150780	-0.214793
C271	C	1.894031	0.400780	0.035207
C272	C	2.144031	0.650780	0.285207
C273	C	1.394105	-0.049285	-0.464837
C274	C	1.644105	0.200715	-0.214837
C275	C	1.894105	0.450715	0.035163
C276	C	2.144105	0.700715	0.285163
C277	C	1.393961	-0.216331	-0.910567
C278	C	1.643961	0.033669	-0.660567
C279	C	1.893961	0.283669	-0.410567
C280	C	2.143961	0.533669	-0.160567
C281	C	1.393988	-0.216311	-1.019800
C282	C	1.643988	0.033689	-0.769800
C283	C	1.893988	0.283689	-0.519800
C284	C	2.143988	0.533689	-0.269800
C285	C	1.393853	-0.216403	-0.214076
C286	C	1.643853	0.033597	0.035924
C287	C	1.893853	0.283597	0.285924
C288	C	2.143853	0.533597	0.535924
C289	C	1.394015	-0.216293	-0.106863
C290	C	1.644015	0.033707	0.143137
C291	C	1.894015	0.283707	0.393137
C292	C	2.144015	0.533707	0.643137
H293	H	1.505602	-0.387323	-0.576634
H294	H	1.755602	-0.137323	-0.326634
H295	H	2.005602	0.112677	-0.076634
H296	H	2.255602	0.362677	0.173366
F297	F	1.521374	-1.050693	-0.592304
F298	F	1.771374	-0.800693	-0.342304
F299	F	2.021374	-0.550693	-0.092304
F300	F	2.271374	-0.300693	0.157696
F301	F	1.582776	-0.597218	-0.653912
F302	F	1.832776	-0.347218	-0.403912
F303	F	2.082776	-0.097218	-0.153912
F304	F	2.332776	0.152782	0.096088
F305	F	1.582850	-0.737964	-0.653964
F306	F	1.832850	-0.487964	-0.403964
F307	F	2.082850	-0.237964	-0.153964
F308	F	2.332850	0.012036	0.096036
H309	H	1.567406	-0.688200	-0.638506
H310	H	1.817406	-0.438200	-0.388506
H311	H	2.067406	-0.188200	-0.138506
H312	H	2.317406	0.061800	0.111494
H313	H	1.282189	-0.959906	-0.352785
H314	H	1.532189	-0.709906	-0.102785
H315	H	1.782189	-0.459906	0.147215
H316	H	2.032189	-0.209906	0.397215
F317	F	1.521333	-0.953840	-0.592275
F318	F	1.771333	-0.703840	-0.342275
F319	F	2.021333	-0.453840	-0.092275
F320	F	2.271333	-0.203840	0.157725
F321	F	1.521062	-0.478284	-0.592126
F322	F	1.771062	-0.228284	-0.342126
F323	F	2.021062	0.021716	-0.092126
F324	F	2.271062	0.271716	0.157874
H325	H	1.220367	-0.688481	-0.290966
H326	H	1.470367	-0.438481	-0.040966
H327	H	1.720367	-0.188481	0.209034
H328	H	1.970367	0.061519	0.459034
H329	H	1.282252	-1.045015	-0.352801
H330	H	1.532252	-0.795015	-0.102801
H331	H	1.782252	-0.545015	0.147199
H332	H	2.032252	-0.295015	0.397199
H333	H	1.220317	-0.603372	-0.290950
H334	H	1.470317	-0.353372	-0.040950
H335	H	1.720317	-0.103372	0.209050
H336	H	1.970317	0.146628	0.459050
F337	F	1.266520	-0.478506	-0.337169
F338	F	1.516520	-0.228506	-0.087169
F339	F	1.766520	0.021494	0.162831
F340	F	2.016520	0.271494	0.412831
F341	F	1.266468	-0.381650	-0.337146
F342	F	1.516468	-0.131650	-0.087146
F343	F	1.766468	0.118350	0.162854
F344	F	2.016468	0.368350	0.412854
H345	H	1.567474	-0.828960	-0.638549
H346	H	1.817474	-0.578960	-0.388549
H347	H	2.067474	-0.328960	-0.138549
H348	H	2.317474	-0.078960	0.111451
H349	H	1.220465	-0.829236	-0.291011
H350	H	1.470465	-0.579236	-0.041011
H351	H	1.720465	-0.329236	0.208989
H352	H	1.970465	-0.079236	0.458989
H353	H	1.220419	-0.744130	-0.290986
H354	H	1.470419	-0.494130	-0.040986
H355	H	1.720419	-0.244130	0.209014
H356	H	1.970419	0.005870	0.459014
