data_functionalizedCrystal
_audit_creation_method	'MofGen! by Chris Wilmer'
_symmetry_space_group_name_H-M	'P1'
_symmetry_Int_Tables_number	1
_symmetry_cell_setting	triclinic
loop_
_symmetry_equiv_pos_as_xyz
  x,y,z
_cell_length_a	16.109301
_cell_length_b	15.995300
_cell_length_c	15.186229
_cell_angle_alpha	90.000802
_cell_angle_beta	89.999362
_cell_angle_gamma	83.466644
loop_
_atom_site_label
_atom_site_type_symbol
_atom_site_fract_x
_atom_site_fract_y
_atom_site_fract_z
O1	O	1.103140	0.107627	-0.073164
O2	O	1.603140	0.607627	0.426836
O3	O	0.861080	0.121021	-0.073177
O4	O	1.361080	0.621021	0.426823
O5	O	0.988749	-0.007569	-0.073174
O6	O	1.488749	0.492431	0.426826
O7	O	0.975471	0.236216	-0.073166
O8	O	1.475471	0.736216	0.426834
O9	O	0.988740	-0.007571	0.073283
O10	O	1.488740	0.492429	0.573283
O11	O	0.861071	0.121019	0.073280
O12	O	1.361071	0.621019	0.573280
O13	O	1.103132	0.107625	0.073293
O14	O	1.603132	0.607625	0.573293
Zn15	Zn	0.982100	0.114321	0.096540
Zn16	Zn	1.482100	0.614321	0.596540
Zn17	Zn	0.982111	0.114324	-0.096424
Zn18	Zn	1.482111	0.614324	0.403576
O19	O	0.975463	0.236214	0.073291
O20	O	1.475463	0.736214	0.573291
C21	C	0.830100	0.120477	0.000050
C22	C	1.330100	0.620477	0.500050
C23	C	0.737805	0.118850	0.000045
C24	C	1.237805	0.618850	0.500045
C25	C	0.988203	-0.038765	0.000051
C26	C	1.488203	0.461235	0.500051
C27	C	0.986579	-0.131717	0.000042
C28	C	1.486579	0.368283	0.500042
C29	C	0.515539	0.191371	0.000057
C30	C	1.015539	0.691371	0.500057
C31	C	0.428819	0.189836	0.000063
C32	C	0.928819	0.689836	0.500063
C33	C	0.448679	0.037269	0.000054
C34	C	0.948679	0.537269	0.500054
C35	C	0.535398	0.038805	0.000055
C36	C	1.035398	0.538805	0.500055
C37	C	0.568825	0.115858	0.000052
C38	C	1.068825	0.615858	0.500052
C39	C	0.395386	0.112787	0.000057
C40	C	0.895386	0.612787	0.500057
C41	C	0.301360	0.111123	0.000063
C42	C	0.801360	0.611123	0.500063
C43	C	0.662857	0.117523	0.000048
C44	C	1.162857	0.617523	0.500048
C45	C	0.983581	-0.301899	0.000051
C46	C	1.483581	0.198101	0.500051
C47	C	1.074484	-0.349390	0.000054
C48	C	1.574484	0.150610	0.500054
C49	C	1.072826	-0.446077	0.000390
C50	C	1.572826	0.053923	0.500390
C51	C	0.980630	-0.469455	0.000058
C52	C	1.480630	0.030545	0.500058
C53	C	0.935525	-0.428310	0.083525
C54	C	1.435525	0.071690	0.583525
C55	C	0.937825	-0.331677	0.083592
C56	C	1.437825	0.168323	0.583592
C57	C	0.936489	-0.331399	-0.082964
C58	C	1.436489	0.168601	0.417036
C59	C	0.936498	-0.428343	-0.084057
C60	C	1.436498	0.071657	0.415943
C61	C	0.978958	-0.564150	0.000065
C62	C	1.478958	-0.064150	0.500065
C63	C	0.985251	-0.207204	0.000050
C64	C	1.485251	0.292796	0.500050
C65	C	1.134111	0.108168	0.000065
C66	C	1.634111	0.608168	0.500065
C67	C	1.226406	0.109795	0.000064
C68	C	1.726406	0.609795	0.500064
C69	C	0.976008	0.267410	0.000063
C70	C	1.476008	0.767410	0.500063
C71	C	0.977632	0.360362	0.000067
C72	C	1.477632	0.860362	0.500067
N73	N	0.982098	0.114319	0.228233
N74	N	1.482098	0.614319	0.728233
N75	N	0.982119	0.114319	-0.228116
N76	N	1.482119	0.614319	0.271884
C77	C	1.038650	0.057399	0.453957
C78	C	1.538650	0.557399	0.953957
C79	C	1.038652	0.057397	0.546146
C80	C	1.538652	0.557397	1.046146
C81	C	0.925562	0.171242	0.546153
C82	C	1.425562	0.671242	1.046153
C83	C	0.925556	0.171240	0.453965
C84	C	1.425556	0.671240	0.953965
C85	C	0.982105	0.114319	0.407869
C86	C	1.482105	0.614319	0.907869
C87	C	0.982113	0.114320	0.592247
C88	C	1.482113	0.614320	1.092247
C89	C	0.982116	0.114318	0.692203
C90	C	1.482116	0.614318	1.192203
C91	C	0.982101	0.114319	0.307907
C92	C	1.482101	0.614319	0.807907
H93	H	0.542752	0.254112	0.000062
H94	H	1.042752	0.754112	0.500062
H95	H	0.421452	-0.025465	0.000062
H96	H	0.921452	0.474535	0.500062
C97	C	0.863361	0.233850	0.596867
C98	C	1.363361	0.733850	1.096867
N99	N	0.816509	0.281007	0.635064
N100	N	1.316509	0.781007	1.135064
C101	C	0.594017	-0.044270	0.000049
C102	C	1.094017	0.455730	0.500049
N103	N	0.638169	-0.106838	0.000047
N104	N	1.138169	0.393162	0.500047
H105	H	0.867782	-0.442391	0.086391
H106	H	1.367782	0.057609	0.586391
H107	H	1.111014	-0.330921	-0.059800
H108	H	1.611014	0.169079	0.440200
C109	C	0.863387	0.233897	0.403266
C110	C	1.363387	0.733897	0.903266
N111	N	0.816576	0.281101	0.365080
N112	N	1.316576	0.781101	0.865080
H113	H	0.385436	0.251326	0.000069
H114	H	0.885436	0.751326	0.500069
H115	H	0.966469	-0.456671	0.145878
H116	H	1.466469	0.043329	0.645878
C117	C	1.120723	-0.484548	-0.080411
C118	C	1.620723	0.015452	0.419589
N119	N	1.156812	-0.513522	-0.141267
N120	N	1.656812	-0.013522	0.358733
H121	H	0.871074	-0.299385	0.087150
H122	H	1.371074	0.200615	0.587150
C123	C	1.123096	-0.322921	0.080802
C124	C	1.623096	0.177079	0.580802
N125	N	1.159708	-0.302984	0.141625
N126	N	1.659708	0.197016	0.641625
H127	H	1.108107	-0.473934	0.060575
H128	H	1.608107	0.026066	0.560575
C129	C	0.976930	-0.303722	-0.168458
C130	C	1.476930	0.196278	0.331542
N131	N	1.007399	-0.282877	-0.232849
N132	N	1.507399	0.217123	0.267151
C133	C	0.981735	-0.306938	0.168203
C134	C	1.481735	0.193062	0.668203
N135	N	1.014811	-0.288310	0.231933
N136	N	1.514811	0.211690	0.731933
C137	C	0.845950	-0.288431	-0.084060
C138	C	1.345950	0.211569	0.415940
N139	N	0.777759	-0.256062	-0.084880
N140	N	1.277759	0.243938	0.415120
C141	C	0.980989	-0.465296	-0.167481
C142	C	1.480989	0.034704	0.332519
N143	N	1.014501	-0.493136	-0.230314
N144	N	1.514501	0.006864	0.269686
H145	H	0.869283	-0.443669	-0.089352
H146	H	1.369283	0.056331	0.410648
C147	C	1.100848	-0.005222	0.403255
C148	C	1.600848	0.494778	0.903255
N149	N	1.147694	-0.052392	0.365068
N150	N	1.647694	0.447608	0.865068
H151	H	1.084695	0.011047	0.583668
H152	H	1.584695	0.511047	1.083668
