data_functionalizedCrystal
_audit_creation_method	'MofGen! by Chris Wilmer'
_symmetry_space_group_name_H-M	'P1'
_symmetry_Int_Tables_number	1
_symmetry_cell_setting	triclinic
loop_
_symmetry_equiv_pos_as_xyz
  x,y,z
_cell_length_a	10.540539
_cell_length_b	12.837942
_cell_length_c	11.295663
_cell_angle_alpha	85.464944
_cell_angle_beta	94.139545
_cell_angle_gamma	89.677216
loop_
_atom_site_label
_atom_site_type_symbol
_atom_site_fract_x
_atom_site_fract_y
_atom_site_fract_z
O1	O	-1.694244	-0.153132	0.098966
O2	O	-1.326343	-0.166910	0.098980
O3	O	-1.502136	-0.009057	0.098966
O4	O	-1.518451	-0.310985	0.098980
O5	O	-1.517543	0.004785	-0.099080
O6	O	-1.341750	-0.153068	-0.099066
O7	O	-1.709651	-0.139290	-0.099080
Cu8	Cu	-1.527107	-0.144915	-0.117156
Cu9	Cu	-1.508887	-0.161285	0.117056
O10	O	-1.533858	-0.297143	-0.099066
C11	C	-1.504328	0.036525	-0.000056
C12	C	-1.487890	0.151724	-0.000054
C13	C	-1.286630	-0.158956	-0.000041
C14	C	-1.145342	-0.155865	-0.000035
C15	C	-1.749364	-0.147245	-0.000056
C16	C	-1.890651	-0.150336	-0.000054
C17	C	-0.948939	-0.037390	-0.000503
C18	C	-1.095865	-0.040555	-0.000044
C19	C	-1.080968	-0.219261	0.113057
C20	C	-0.933985	-0.215332	0.113139
C21	C	-0.951275	-0.201937	-0.112076
C22	C	-1.098489	-0.202895	-0.113559
C23	C	-1.531666	-0.342725	-0.000041
C24	C	-1.548104	-0.457924	-0.000036
N25	N	-1.539932	-0.133401	-0.281889
C26	C	-1.685507	0.391218	-0.000036
C27	C	-1.670067	0.499458	-0.000034
C28	C	-1.441571	0.476445	-0.000037
C29	C	-1.457011	0.368205	-0.000040
C30	C	-1.578983	0.325596	-0.000041
C31	C	-1.594422	0.217354	-0.000052
C32	C	-1.365926	0.194343	-0.000047
C33	C	-1.350487	0.302583	-0.000045
C34	C	-1.632373	-0.050466	-0.468882
C35	C	-1.622654	-0.059176	-0.344221
C36	C	-1.466924	-0.198924	-0.344226
C37	C	-1.476643	-0.190214	-0.468887
C38	C	-1.559368	-0.115982	-0.531211
C39	C	-1.569079	-0.107268	-0.655874
C40	C	-1.413356	-0.247021	-0.655876
C41	C	-1.403638	-0.255730	-0.531215
N42	N	-1.496072	-0.172791	0.281789
H43	H	-1.139989	0.008774	-0.081114
H44	H	-1.399581	-0.259369	-0.293466
H45	H	-0.894692	-0.180227	0.197673
H46	H	-1.636434	-0.046822	-0.706617
H47	H	-1.342266	0.511156	-0.000023
C48	C	-1.723354	0.031190	-0.537442
H49	H	-1.765444	0.068962	-0.482466
H50	H	-1.676213	0.078133	-0.586081
H51	H	-1.784554	-0.003155	-0.586062
H52	H	-1.251180	0.337290	-0.000039
H53	H	-0.922297	-0.158628	-0.197800
H54	H	-1.756811	0.552884	-0.000026
H55	H	-1.279187	0.140902	-0.000060
H56	H	-0.913257	-0.285171	-0.112837
H57	H	-1.682104	-0.005827	-0.293477
C58	C	-1.144391	-0.315823	-0.122783
H59	H	-1.114716	-0.342229	-0.192133
H60	H	-1.112058	-0.358204	-0.054394
H61	H	-1.234726	-0.316704	-0.127528
C62	C	-1.312646	-0.337380	-0.462659
H63	H	-1.270564	-0.375155	-0.517637
H64	H	-1.251459	-0.303038	-0.414033
H65	H	-1.359788	-0.384336	-0.414025
C66	C	-0.912078	0.031810	-0.110065
H67	H	-0.860803	-0.007554	-0.156515
H68	H	-0.986896	0.055378	-0.156629
H69	H	-0.865764	0.090294	-0.084640
C70	C	-0.892922	0.016283	0.108437
H71	H	-0.834171	-0.029843	0.154196
H72	H	-0.850482	0.078100	0.082424
H73	H	-0.959562	0.033686	0.155917
C74	C	-1.333049	-0.319092	-0.724440
H75	H	-1.350687	-0.303279	-0.807610
H76	H	-1.245303	-0.308584	-0.704016
H77	H	-1.353634	-0.389880	-0.704004
H78	H	-1.141506	-0.156509	-0.197224
C79	C	-1.137208	0.011165	0.109663
H80	H	-1.064168	0.034185	0.154131
H81	H	-1.191438	0.069268	0.084448
H82	H	-1.181508	-0.038066	0.158112
C83	C	-0.880941	-0.327841	0.120110
H84	H	-0.949235	-0.375744	0.122887
H85	H	-0.835605	-0.337011	0.051919
H86	H	-0.825276	-0.340181	0.189855
H87	H	-1.112297	-0.304236	0.117269
H88	H	-1.112774	-0.186596	0.197219
C89	C	-1.728583	0.170484	-0.000050
H90	H	-1.789811	0.225072	-0.000034
H91	H	-1.744738	0.133569	-0.069113
H92	H	-1.733973	0.123908	0.069022
H93	H	-1.784822	0.356526	-0.000049
