data_functionalizedCrystal
_audit_creation_method	'MofGen! by Chris Wilmer'
_symmetry_space_group_name_H-M	'P1'
_symmetry_Int_Tables_number	1
_symmetry_cell_setting	triclinic
loop_
_symmetry_equiv_pos_as_xyz
  x,y,z
_cell_length_a	12.759395
_cell_length_b	12.759394
_cell_length_c	18.215399
_cell_angle_alpha	90.023582
_cell_angle_beta	90.018218
_cell_angle_gamma	90.014544
loop_
_atom_site_label
_atom_site_type_symbol
_atom_site_fract_x
_atom_site_fract_y
_atom_site_fract_z
Zn1	Zn	1.606242	-0.418258	0.416107
Zn2	Zn	2.106242	0.081742	0.916107
Zn3	Zn	1.606145	-0.593955	0.293050
Zn4	Zn	2.106145	-0.093955	0.793050
Zn5	Zn	1.430550	-0.418293	0.293057
Zn6	Zn	1.930550	0.081707	0.793057
Zn7	Zn	1.430535	-0.593898	0.416078
Zn8	Zn	1.930535	-0.093898	0.916078
O9	O	1.518368	-0.506101	0.354573
O10	O	2.018368	-0.006101	0.854573
O11	O	1.753250	-0.441574	0.399791
O12	O	2.253250	0.058426	0.899791
O13	O	1.582817	-0.570692	0.190066
O14	O	2.082817	-0.070692	0.690066
O15	O	1.453902	-0.271267	0.309395
O16	O	1.953902	0.228733	0.809395
O17	O	1.753179	-0.570658	0.309382
O18	O	2.253179	-0.070658	0.809382
O19	O	1.582982	-0.271242	0.399799
O20	O	2.082982	0.228758	0.899799
O21	O	1.453808	-0.441634	0.190072
O22	O	1.953808	0.058366	0.690072
O23	O	1.283527	-0.441578	0.309368
O24	O	1.783527	0.058422	0.809368
O25	O	1.453877	-0.570560	0.519066
O26	O	1.953877	-0.070560	1.019066
O27	O	1.283516	-0.570594	0.399750
O28	O	1.783516	-0.070594	0.899750
O29	O	1.582968	-0.441518	0.519087
O30	O	2.082968	0.058482	1.019087
O31	O	1.582803	-0.740969	0.309354
O32	O	2.082803	-0.240969	0.809354
O33	O	1.453783	-0.740926	0.399743
O34	O	1.953783	-0.240926	0.899743
C35	C	1.245400	-0.506084	0.354557
C36	C	1.745400	-0.006084	0.854557
C37	C	1.128623	-0.506102	0.354568
C38	C	1.628623	-0.006102	0.854568
C39	C	0.909227	-0.640688	0.448559
C40	C	1.409227	-0.140688	0.948559
C41	C	0.964113	-0.707959	0.495537
C42	C	1.464113	-0.207959	0.995537
C43	C	1.073834	-0.707946	0.495528
C44	C	1.573834	-0.207946	0.995528
C45	C	1.128673	-0.640657	0.448534
C46	C	1.628673	-0.140657	0.948534
C47	C	1.073787	-0.573386	0.401555
C48	C	1.573787	-0.073386	0.901555
C49	C	0.964063	-0.573404	0.401572
C50	C	1.464063	-0.073404	0.901572
C51	C	1.073738	-0.438831	0.307590
C52	C	1.573738	0.061169	0.807590
C53	C	0.964016	-0.438837	0.307602
C54	C	1.464016	0.061163	0.807602
C55	C	1.128577	-0.371542	0.260595
C56	C	1.628577	0.128458	0.760595
C57	C	1.073691	-0.304265	0.213620
C58	C	1.573691	0.195735	0.713620
C59	C	0.963963	-0.304279	0.213632
C60	C	1.463963	0.195721	0.713632
C61	C	0.909131	-0.371566	0.260624
C62	C	1.409131	0.128434	0.760624
C63	C	1.518309	-0.779069	0.354561
C64	C	2.018309	-0.279069	0.854561
C65	C	1.518380	-0.895845	0.354580
C66	C	2.018380	-0.395845	0.854580
C67	C	1.652691	-0.895660	0.448788
C68	C	2.152691	-0.395660	0.948788
C69	C	1.719879	-0.950428	0.495898
C70	C	2.219879	-0.450428	0.995898
C71	C	1.719942	-1.060150	0.495914
C72	C	2.219942	-0.560150	0.995914
C73	C	1.652806	-1.115106	0.448816
C74	C	2.152806	-0.615106	0.948816
C75	C	1.585618	-1.060338	0.401707
C76	C	2.085618	-0.560338	0.901707
C77	C	1.585565	-0.950613	0.401695
C78	C	2.085565	-0.450613	0.901695
C79	C	1.451304	-1.060523	0.307504
C80	C	1.951304	-0.560523	0.807504
C81	C	1.451245	-0.950801	0.307483
C82	C	1.951245	-0.450801	0.807483
C83	C	1.384168	-1.115478	0.260407
C84	C	1.884168	-0.615478	0.760407
C85	C	1.316984	-1.060710	0.213292
C86	C	1.816984	-0.560710	0.713292
C87	C	1.316925	-0.950982	0.213278
C88	C	1.816925	-0.450982	0.713278
C89	C	1.384057	-0.896033	0.260373
C90	C	1.884057	-0.396033	0.760373
C91	C	1.792401	-0.506119	0.354589
C92	C	2.292401	-0.006119	0.854589
C93	C	1.909178	-0.506126	0.354596
C94	C	2.409178	-0.006126	0.854596
C95	C	1.518432	-0.506029	0.546526
C96	C	2.018432	-0.006029	1.046526
C97	C	1.518459	-0.505998	0.628325
C98	C	2.018459	-0.005998	1.128325
C99	C	1.518455	-0.232068	0.354601
C100	C	2.018455	0.267932	0.854601
C101	C	1.518492	-0.115291	0.354613
C102	C	2.018492	0.384709	0.854613
C103	C	1.518364	-0.506097	0.163367
C104	C	2.018364	-0.006097	0.663367
C105	C	1.518541	-0.505832	0.081568
C106	C	2.018541	-0.005832	0.581568
C107	C	1.585701	-0.438743	0.816531
C108	C	2.085701	0.061257	1.316531
C109	C	1.585713	-0.438712	0.893390
C110	C	2.085713	0.061288	1.393390
C111	C	1.451291	-0.573090	0.893357
C112	C	1.951291	-0.073090	1.393357
C113	C	1.451274	-0.573115	0.816499
C114	C	1.951274	-0.073115	1.316499
C115	C	1.518485	-0.505943	0.778088
C116	C	2.018485	-0.005943	1.278088
C117	C	1.518515	-0.505887	0.931805
C118	C	2.018515	-0.005887	1.431805
C119	C	1.518528	-0.505855	1.015138
C120	C	2.018528	-0.005855	1.515138
C121	C	1.518471	-0.505974	0.694749
C122	C	2.018471	-0.005974	1.194749
H123	H	0.919451	-0.762746	0.533797
H124	H	1.419451	-0.262746	1.033797
H125	H	1.262208	-0.906395	0.174918
H126	H	1.762208	-0.406395	0.674918
Cl127	Cl	1.366761	-0.657595	0.768168
Cl128	Cl	1.866761	-0.157595	1.268168
H129	H	1.396573	-0.627781	0.924640
H130	H	1.896573	-0.127781	1.424640
Cl131	Cl	1.383972	-0.758096	0.260371
Cl132	Cl	1.883972	-0.258096	0.760371
H133	H	1.640445	-0.383990	0.924686
H134	H	2.140445	0.116010	1.424686
H135	H	1.774641	-1.104742	0.534282
H136	H	2.274641	-0.604742	1.034282
H137	H	1.652854	-1.204447	0.448840
H138	H	2.152854	-0.704447	0.948840
Cl139	Cl	0.771194	-0.371587	0.260645
Cl140	Cl	1.271194	0.128413	0.760645
H141	H	0.819886	-0.640695	0.448579
H142	H	1.319886	-0.140695	0.948579
H143	H	1.218014	-0.640662	0.448524
H144	H	1.718014	-0.140662	0.948524
H145	H	1.118522	-0.762726	0.533780
H146	H	1.618522	-0.262726	1.033780
Cl147	Cl	1.266513	-0.371530	0.260580
Cl148	Cl	1.766513	0.128470	0.760580
H149	H	1.118349	-0.249488	0.175358
H150	H	1.618349	0.250512	0.675358
Cl151	Cl	0.894973	-0.219711	0.154565
Cl152	Cl	1.394973	0.280289	0.654565
H153	H	1.652657	-0.806319	0.448773
H154	H	2.152657	-0.306319	0.948773
H155	H	1.640425	-0.384044	0.785259
H156	H	2.140425	0.115956	1.285259
H157	H	1.262322	-1.105464	0.174953
H158	H	1.762322	-0.605464	0.674953
H159	H	1.774539	-0.905674	0.534245
H160	H	2.274539	-0.405674	1.034245
H161	H	1.384220	-1.204820	0.260426
H162	H	1.884220	-0.704820	0.760426
