data_functionalizedCrystal
_audit_creation_method	'MofGen! by Chris Wilmer'
_symmetry_space_group_name_H-M	'P1'
_symmetry_Int_Tables_number	1
_symmetry_cell_setting	triclinic
loop_
_symmetry_equiv_pos_as_xyz
  x,y,z
_cell_length_a	14.853567
_cell_length_b	14.853567
_cell_length_c	13.330367
_cell_angle_alpha	89.999156
_cell_angle_beta	89.995418
_cell_angle_gamma	83.634930
loop_
_atom_site_label
_atom_site_type_symbol
_atom_site_fract_x
_atom_site_fract_y
_atom_site_fract_z
O1	O	1.196369	0.117704	-0.083346
O2	O	0.933909	0.131725	-0.083362
O3	O	1.072150	-0.006515	-0.083356
O4	O	1.058128	0.255944	-0.083351
O5	O	1.072130	-0.006519	0.083491
O6	O	0.933889	0.131722	0.083485
O7	O	1.196349	0.117700	0.083501
Cu8	Cu	1.065117	0.124711	0.098728
Cu9	Cu	1.065141	0.124715	-0.098588
O10	O	1.058108	0.255941	0.083496
C11	C	0.900311	0.131088	0.000060
C12	C	0.800227	0.129184	0.000053
C13	C	0.387693	0.039019	0.000074
C14	C	0.366412	0.203251	0.000076
C15	C	0.460446	0.205042	0.000073
C16	C	0.518108	0.123819	0.000069
C17	C	0.481736	0.040806	0.000067
C18	C	0.496825	0.288053	0.000064
C19	C	0.590864	0.289846	0.000059
C20	C	0.648528	0.208623	0.000062
C21	C	0.612150	0.125607	0.000062
C22	C	0.669812	0.044384	0.000058
C23	C	0.633437	-0.038633	0.000065
C24	C	0.539399	-0.040417	0.000070
C25	C	0.742565	0.210407	0.000057
C26	C	0.763855	0.046172	0.000052
C27	C	1.071504	-0.040106	0.000064
C28	C	1.069601	-0.140189	0.000055
C29	C	0.979435	-0.552723	0.000069
C30	C	1.143668	-0.574004	0.000079
C31	C	1.145458	-0.479971	0.000073
C32	C	1.064235	-0.422309	0.000067
C33	C	0.981223	-0.458680	0.000066
C34	C	1.228469	-0.443591	0.000084
C35	C	1.230262	-0.349552	0.000079
C36	C	1.149039	-0.291889	0.000066
C37	C	1.066023	-0.328266	0.000064
C38	C	0.984800	-0.270604	0.000058
C39	C	0.901783	-0.306979	0.000049
C40	C	0.899999	-0.401017	0.000053
C41	C	1.150823	-0.197851	0.000062
C42	C	0.986588	-0.176561	0.000055
C43	C	1.229947	0.118337	0.000078
C44	C	1.330031	0.120241	0.000078
C45	C	1.058754	0.289531	0.000073
C46	C	1.060657	0.389615	0.000075
N47	N	1.065107	0.124708	0.237509
N48	N	1.065158	0.124711	-0.237370
C49	C	1.003925	0.185903	0.710130
C50	C	1.126381	0.063519	0.710103
C51	C	1.126371	0.063516	0.605084
C52	C	1.065138	0.124709	0.552584
C53	C	1.003915	0.185904	0.605102
C54	C	1.187598	0.002328	0.552559
C55	C	1.187591	0.002323	0.447534
C56	C	1.126353	0.063512	0.395031
C57	C	1.065127	0.124710	0.447556
C58	C	1.003895	0.185902	0.395055
C59	C	0.942664	0.247096	0.447578
C60	C	0.942677	0.247093	0.552599
C61	C	1.126340	0.063515	0.290010
C62	C	1.003884	0.185903	0.290027
H63	H	0.449870	0.354180	0.000057
H64	H	0.358072	-0.028572	0.000083
C65	C	0.645046	-0.201158	0.000058
C66	C	0.696824	-0.127913	0.000053
H67	H	0.684183	-0.256272	0.000042
H68	H	0.607934	-0.198447	0.058245
H69	H	0.607917	-0.198435	-0.058122
H70	H	0.733948	-0.130632	0.058237
H71	H	0.733952	-0.130625	-0.058141
C72	C	1.241656	-0.052318	0.286537
C73	C	1.254686	-0.065145	0.389805
H74	H	1.283020	-0.094029	0.250899
H75	H	1.181399	-0.062014	0.269473
H76	H	1.251727	0.007786	0.269202
H77	H	1.244608	-0.125248	0.407141
H78	H	1.314956	-0.055457	0.406876
H79	H	1.294596	-0.490546	0.000099
C80	C	0.847925	0.238547	0.742489
C81	C	0.936621	0.253161	0.767860
H82	H	0.806375	0.280065	0.778136
H83	H	0.839165	0.247311	0.672437
H84	H	0.838079	0.178354	0.759704
H85	H	0.946468	0.313352	0.750638
H86	H	0.945384	0.244404	0.837928
C87	C	0.888288	0.301433	0.286591
C88	C	0.875358	0.314358	0.389862
H89	H	0.846733	0.342954	0.250959
H90	H	0.948458	0.311339	0.269383
H91	H	0.878427	0.241241	0.269394
H92	H	0.885225	0.374548	0.407060
H93	H	0.815174	0.304459	0.407077
H94	H	0.772178	0.277998	0.000053
C95	C	1.370806	-0.338752	-0.085691
C96	C	1.321511	-0.309572	0.000077
H97	H	1.427136	-0.314064	-0.085696
H98	H	1.381361	-0.403002	-0.085675
H99	H	1.337354	-0.318966	-0.143869
H100	H	1.354960	-0.329364	0.058256
H101	H	1.310958	-0.245309	0.000071
C102	C	0.404697	-0.116077	0.000064
C103	C	0.499413	-0.131663	0.000067
H104	H	0.380011	-0.172409	0.000053
H105	H	0.384917	-0.082639	0.058245
H106	H	0.384929	-0.082624	-0.058122
H107	H	0.519182	-0.165110	0.058257
H108	H	0.519202	-0.165116	-0.058120
H109	H	1.218414	-0.168238	0.000076
C110	C	0.847161	-0.129472	-0.085727
C111	C	0.897302	-0.113184	0.000047
H112	H	0.792038	-0.090348	-0.085727
H113	H	0.881203	-0.118426	-0.143895
H114	H	0.834226	-0.190686	-0.085719
H115	H	0.910244	-0.051970	0.000035
H116	H	0.863254	-0.124222	0.058230
C117	C	0.560372	0.452007	0.000072
C118	C	0.630844	0.381095	0.000065
H119	H	0.585057	0.508340	0.000085
H120	H	0.524145	0.447899	-0.058109
H121	H	0.524130	0.447882	0.058258
H122	H	0.667082	0.385217	-0.058125
H123	H	0.667086	0.385206	0.058252
C124	C	0.762359	-0.259871	-0.085733
C125	C	0.812503	-0.243593	0.000042
H126	H	0.707241	-0.220739	-0.085732
H127	H	0.796403	-0.248829	-0.143900
H128	H	0.749413	-0.321082	-0.085726
H129	H	0.825455	-0.182383	0.000032
H130	H	0.778453	-0.254627	0.058224
C131	C	0.786679	0.299740	0.584985
C132	C	0.875380	0.314352	0.610339
H133	H	0.745136	0.341259	0.620640
H134	H	0.777909	0.308507	0.514934
H135	H	0.776835	0.239548	0.602202
H136	H	0.885227	0.374542	0.593115
H137	H	0.884154	0.305593	0.680405
C138	C	1.179114	-0.092456	0.742434
C139	C	1.193677	-0.003747	0.767813
H140	H	1.220663	-0.133986	0.778063
H141	H	1.118942	-0.102340	0.759657
H142	H	1.187877	-0.101207	0.672369
H143	H	1.184907	0.005006	0.837876
H144	H	1.253864	0.006141	0.750596
C145	C	1.240328	-0.153648	0.584888
C146	C	1.254888	-0.064940	0.610275
H147	H	1.281871	-0.195179	0.620522
H148	H	1.180153	-0.163532	0.602099
H149	H	1.249102	-0.162397	0.514824
H150	H	1.246108	-0.056189	0.680337
H151	H	1.315078	-0.055052	0.593070
H152	H	0.810798	-0.019971	0.000052
H153	H	0.319459	0.269379	0.000071
H154	H	0.954018	0.235731	0.247288
H155	H	0.832411	-0.430643	0.000046
H156	H	1.176197	0.013696	0.247251
H157	H	0.911844	-0.582344	0.000058
H158	H	1.209795	-0.620958	0.000092
