data_functionalizedCrystal
_audit_creation_method	'MofGen! by Chris Wilmer'
_symmetry_space_group_name_H-M	'P1'
_symmetry_Int_Tables_number	1
_symmetry_cell_setting	triclinic
loop_
_symmetry_equiv_pos_as_xyz
  x,y,z
_cell_length_a	19.077105
_cell_length_b	17.640280
_cell_length_c	19.076919
_cell_angle_alpha	81.491119
_cell_angle_beta	90.076224
_cell_angle_gamma	76.093206
loop_
_atom_site_label
_atom_site_type_symbol
_atom_site_fract_x
_atom_site_fract_y
_atom_site_fract_z
Zn1	Zn	1.129876	-0.382634	-0.374495
Zn2	Zn	1.158314	-0.509803	-0.235079
Zn3	Zn	1.015111	-0.372039	-0.254114
Zn4	Zn	1.036046	-0.509326	-0.347913
O5	O	1.084837	-0.443450	-0.302900
O6	O	1.232847	-0.404137	-0.359159
O7	O	1.142458	-0.487294	-0.140002
O8	O	1.009672	-0.262768	-0.289173
O9	O	1.253740	-0.497568	-0.256731
O10	O	1.093989	-0.270552	-0.377617
O11	O	1.037247	-0.386079	-0.153987
O12	O	0.918689	-0.385616	-0.263398
O13	O	1.045353	-0.496755	-0.449041
O14	O	0.934070	-0.486481	-0.332312
O15	O	1.114289	-0.403674	-0.468571
O16	O	1.162758	-0.620416	-0.230956
O17	O	1.072929	-0.620066	-0.313855
C18	C	0.900659	-0.434848	-0.297037
C19	C	0.821869	-0.431187	-0.294542
C20	C	0.792897	-0.482056	-0.329166
C21	C	0.718864	-0.478606	-0.326827
C22	C	0.673806	-0.424291	-0.289859
C23	C	0.702782	-0.373417	-0.255233
C24	C	0.776813	-0.376864	-0.257577
C25	C	0.451534	-0.408341	-0.279014
C26	C	0.377499	-0.404900	-0.276671
C27	C	0.393586	-0.510088	-0.348266
C28	C	0.467618	-0.513532	-0.350603
C29	C	0.496587	-0.462656	-0.315981
N30	N	0.598132	-0.420765	-0.287465
N31	N	0.572258	-0.466178	-0.318379
C32	C	1.123220	-0.648940	-0.267471
C33	C	1.139704	-0.736853	-0.252340
C34	C	0.959888	-1.025193	-0.418115
C35	C	0.975380	-1.107800	-0.403874
C36	C	1.068973	-1.108106	-0.317643
C37	C	1.053491	-1.025498	-0.331879
C38	C	0.998948	-0.984048	-0.382115
C39	C	1.092551	-0.984353	-0.295879
C40	C	1.077068	-0.901751	-0.310111
C41	C	1.022525	-0.860295	-0.360343
C42	C	0.983465	-0.901447	-0.396347
C43	C	1.147091	-1.025804	-0.245640
C44	C	1.186150	-0.984658	-0.209640
C45	C	1.170671	-0.902056	-0.223875
C46	C	1.116128	-0.860600	-0.274107
C47	C	1.209731	-0.860904	-0.187872
C48	C	1.194248	-0.778303	-0.202104
C49	C	1.100645	-0.777998	-0.288339
C50	C	1.269734	-0.452087	-0.308787
C51	C	1.348526	-0.455768	-0.311295
C52	C	1.078984	-0.451343	-0.484821
C53	C	1.076490	-0.454707	-0.562344
C54	C	1.046323	-0.237160	-0.338484
C55	C	1.029910	-0.149252	-0.353647
C56	C	1.111208	-0.407827	-0.608934
C57	C	1.108856	-0.410984	-0.681775
C58	C	1.071789	-0.461025	-0.708026
C59	C	1.037067	-0.507907	-0.661431
C60	C	1.039416	-0.504745	-0.588591
C61	C	1.060912	-0.475673	-0.924783
C62	C	1.058568	-0.478833	-0.997629
C63	C	1.130356	-0.381909	-1.017969
C64	C	1.132705	-0.378755	-0.945126
C65	C	1.097980	-0.425634	-0.898538
N66	N	1.069386	-0.464255	-0.782482
N67	N	1.100379	-0.422399	-0.824084
C68	C	1.090696	-0.435533	-0.121699
C69	C	1.093286	-0.431953	-0.044218
H70	H	0.340811	-0.360661	-0.246573
H71	H	1.011136	-0.542911	-0.550659
H72	H	1.141394	-0.367081	-0.587566
O73	O	1.007481	-0.780062	-0.374299
C74	C	1.001298	-0.665248	-0.462182
C75	C	1.018342	-0.756115	-0.446478
H76	H	1.010087	-0.645859	-0.520534
H77	H	0.942676	-0.639642	-0.449826
H78	H	1.038566	-0.642971	-0.427792
H79	H	0.981121	-0.778460	-0.480858
H80	H	1.076981	-0.781666	-0.458814
H81	H	0.800399	-0.335437	-0.229387
H82	H	0.475112	-0.366919	-0.250816
H83	H	0.666089	-0.329190	-0.225136
O84	O	1.022615	-0.527549	-1.023039
C85	C	1.012620	-0.661441	-1.021070
C86	C	1.053383	-0.606363	-0.992220
H87	H	1.037490	-0.725175	-0.996177
H88	H	0.953327	-0.644319	-1.007304
H89	H	1.016894	-0.655602	-1.081136
H90	H	1.049167	-0.612173	-0.932152
H91	H	1.112658	-0.623499	-1.006041
H92	H	0.829580	-0.526287	-0.359267
O93	O	1.047616	-0.737639	-0.337061
C94	C	0.934116	-0.640436	-0.359375
C95	C	0.994124	-0.686072	-0.304132
H96	H	0.890845	-0.598746	-0.332769
H97	H	0.958157	-0.604773	-0.403569
H98	H	0.908898	-0.684053	-0.382678
H99	H	1.019365	-0.642511	-0.280774
H100	H	0.970043	-0.721747	-0.259980
O101	O	0.906951	-0.984802	-0.466918
C102	C	0.841592	-0.857407	-0.527027
C103	C	0.901570	-0.903053	-0.471757
H104	H	0.837212	-0.791304	-0.530946
H105	H	0.855215	-0.876582	-0.580904
H106	H	0.787907	-0.870548	-0.510109
H107	H	0.955278	-0.889935	-0.488608
H108	H	0.887885	-0.883872	-0.417893
O109	O	0.930436	-0.861087	-0.445069
C110	C	0.816936	-0.763884	-0.467382
C111	C	0.876944	-0.809520	-0.412139
H112	H	0.773665	-0.722194	-0.440777
H113	H	0.840977	-0.728221	-0.511577
H114	H	0.791718	-0.807501	-0.490685
H115	H	0.902185	-0.765959	-0.388781
H116	H	0.852863	-0.845195	-0.367987
O117	O	0.690794	-0.527998	-0.360560
C118	C	0.671543	-0.570688	-0.471769
C119	C	0.703375	-0.514715	-0.433653
H120	H	0.681689	-0.559957	-0.530873
H121	H	0.698422	-0.634594	-0.448942
H122	H	0.610898	-0.558913	-0.463711
H123	H	0.764016	-0.526418	-0.441697
H124	H	0.676440	-0.450827	-0.456487
H125	H	0.943577	-1.141299	-0.433202
O126	O	1.121944	-1.148497	-0.268881
C127	C	1.187230	-1.275879	-0.208683
C128	C	1.127237	-1.230239	-0.263940
H129	H	1.191519	-1.341974	-0.204659
H130	H	1.240962	-1.262854	-0.225586
H131	H	1.173586	-1.256585	-0.154854
H132	H	1.140812	-1.249506	-0.317787
H133	H	1.073522	-1.243266	-0.246977
O134	O	1.239121	-1.025049	-0.160878
C135	C	1.304407	-1.152431	-0.100680
C136	C	1.244414	-1.106791	-0.155936
H137	H	1.308696	-1.218526	-0.096656
H138	H	1.358139	-1.139406	-0.117583
H139	H	1.290763	-1.133137	-0.046851
H140	H	1.257989	-1.126058	-0.209784
H141	H	1.190699	-1.119818	-0.138973
O142	O	1.262701	-0.901297	-0.139110
C143	C	1.327984	-1.028681	-0.078913
C144	C	1.267992	-0.983038	-0.134169
H145	H	1.332270	-1.094775	-0.074890
H146	H	1.381717	-1.015658	-0.095816
H147	H	1.314341	-1.009387	-0.025084
H148	H	1.281566	-1.002305	-0.188017
H149	H	1.214276	-0.996063	-0.117206
H150	H	0.504301	-0.557763	-0.380705
O151	O	1.232277	-0.738453	-0.167093
C152	C	1.326716	-0.747462	-0.080020
C153	C	1.283719	-0.792691	-0.119636
H154	H	1.368306	-0.791293	-0.041632
H155	H	1.355519	-0.711888	-0.119884
H156	H	1.288112	-0.705708	-0.049180
H157	H	1.322274	-0.834486	-0.150477
H158	H	1.254906	-0.828214	-0.079738
H159	H	1.159697	-1.093063	-0.234056
H160	H	1.137129	-0.372812	-0.719706
H161	H	1.162891	-0.338009	-0.923758
O162	O	0.365320	-0.559420	-0.381888
C163	C	0.258409	-0.600762	-0.409978
C164	C	0.290321	-0.544835	-0.371879
H165	H	0.197771	-0.589001	-0.401887
H166	H	0.268538	-0.590086	-0.469090
H167	H	0.285310	-0.664651	-0.387119
H168	H	0.263440	-0.480926	-0.394679
H169	H	0.280201	-0.555580	-0.312770
H170	H	1.158626	-0.343742	-1.055908
O171	O	1.001176	-0.556606	-0.686949
C172	C	1.008914	-0.666480	-0.750500
C173	C	1.049651	-0.611393	-0.721626
H174	H	1.048086	-0.710778	-0.778555
H175	H	0.984524	-0.699502	-0.704710
H176	H	0.963955	-0.629898	-0.789656
H177	H	1.094642	-0.647916	-0.682481
H178	H	1.073990	-0.578367	-0.767453
O179	O	1.027290	-0.521255	-0.879460
C180	C	1.040326	-0.624067	-0.778536
C181	C	1.078496	-0.572480	-0.829805
H182	H	1.081711	-0.665506	-0.738386
H183	H	0.997594	-0.584589	-0.749465
H184	H	1.013414	-0.660333	-0.809841
H185	H	1.105450	-0.536206	-0.798554
H186	H	1.121189	-0.612001	-0.858878
