data_functionalizedCrystal
_audit_creation_method	'MofGen! by Chris Wilmer'
_symmetry_space_group_name_H-M	'P1'
_symmetry_Int_Tables_number	1
_symmetry_cell_setting	triclinic
loop_
_symmetry_equiv_pos_as_xyz
  x,y,z
_cell_length_a	19.805407
_cell_length_b	19.805398
_cell_length_c	19.805405
_cell_angle_alpha	90.027637
_cell_angle_beta	90.025395
_cell_angle_gamma	90.017356
loop_
_atom_site_label
_atom_site_type_symbol
_atom_site_fract_x
_atom_site_fract_y
_atom_site_fract_z
Zn1	Zn	-1.034711	-0.382738	0.269508
Zn2	Zn	-1.034633	-0.269547	0.382693
Zn3	Zn	-0.921533	-0.269560	0.269522
Zn4	Zn	-0.921489	-0.382691	0.382659
O5	O	-0.978091	-0.326134	0.326096
O6	O	-1.129417	-0.367738	0.284531
O7	O	-1.019616	-0.174832	0.367701
O8	O	-0.936597	-0.284599	0.174803
O9	O	-1.129360	-0.284576	0.367688
O10	O	-1.019748	-0.367751	0.174793
O11	O	-0.936522	-0.174842	0.284554
O12	O	-0.826810	-0.284553	0.284521
O13	O	-0.936522	-0.477414	0.367629
O14	O	-0.826778	-0.367669	0.367642
O15	O	-1.019706	-0.477449	0.284498
O16	O	-1.019573	-0.284530	0.477405
O17	O	-0.936447	-0.367656	0.477380
C18	C	-0.802235	-0.326108	0.326079
C19	C	-0.727003	-0.326112	0.326089
C20	C	-0.691660	-0.369320	0.369435
C21	C	-0.620972	-0.369328	0.369435
C22	C	-0.585628	-0.326124	0.326092
C23	C	-0.620976	-0.282914	0.282741
C24	C	-0.691663	-0.282910	0.282738
C25	C	-0.335903	-0.282929	0.282751
C26	C	-0.265211	-0.282935	0.282759
C27	C	-0.265211	-0.369346	0.369447
C28	C	-0.335899	-0.369343	0.369445
C29	C	-0.371241	-0.326136	0.326092
C30	C	-0.447889	-0.326129	0.326091
C31	C	-0.508981	-0.326127	0.326095
C32	C	-0.978118	-0.502677	0.326058
C33	C	-0.978129	-0.577909	0.326042
C34	C	-0.978015	-0.326101	0.501952
C35	C	-0.978045	-0.326110	0.577184
C36	C	-0.154634	-0.326154	0.326108
C37	C	-0.229866	-0.326146	0.326102
C38	C	-1.021525	-1.039719	0.282636
C39	C	-1.021514	-0.969031	0.282657
C40	C	-0.978199	-0.933671	0.325948
C41	C	-0.934896	-0.969003	0.369226
C42	C	-0.934911	-1.039690	0.369208
C43	C	-0.934837	-0.683929	0.369300
C44	C	-0.934825	-0.613237	0.369313
C45	C	-1.021441	-0.613270	0.282748
C46	C	-1.021455	-0.683958	0.282730
C47	C	-0.978155	-0.719283	0.326010
C48	C	-0.978168	-0.795932	0.325988
C49	C	-0.978182	-0.857024	0.325967
C50	C	-0.978104	-0.150278	0.326084
C51	C	-0.978224	-0.075046	0.325909
C52	C	-0.978186	-0.326182	0.149553
C53	C	-0.978227	-0.326202	0.074321
C54	C	-1.021371	-0.282871	0.612518
C55	C	-1.021399	-0.282886	0.683207
C56	C	-0.978098	-0.326137	0.718559
C57	C	-0.934770	-0.369380	0.683219
C58	C	-0.934746	-0.369368	0.612532
C59	C	-0.934870	-0.369430	0.968292
C60	C	-0.934897	-0.369438	1.038985
C61	C	-1.021524	-0.282949	1.038967
C62	C	-1.021499	-0.282936	0.968280
C63	C	-0.978174	-0.326182	0.932946
C64	C	-0.978144	-0.326166	0.856298
C65	C	-0.978124	-0.326150	0.795206
H66	H	-0.236436	-0.247753	0.247459
H67	H	-0.899579	-0.712683	0.404540
H68	H	-0.899517	-0.404598	0.712009
O69	O	-1.068176	-0.722098	0.236041
H70	H	-1.098290	-0.685657	0.205958
O71	O	-0.888008	-0.415996	0.574415
H72	H	-0.857895	-0.446066	0.610872
H73	H	-0.720432	-0.404500	0.404732
H74	H	-0.364670	-0.247742	0.247456
H75	H	-0.592193	-0.247740	0.247448
H76	H	-0.899548	-0.584449	0.404565
O77	O	-0.729789	-0.236300	0.235995
H78	H	-0.693338	-0.206251	0.205863
O79	O	-0.888201	-1.077797	0.415875
H80	H	-0.899772	-1.064215	0.469002
O81	O	-1.068077	-0.236225	0.574389
H82	H	-1.098214	-0.206167	0.610839
O83	O	-1.068246	-1.077858	0.235945
H84	H	-1.098358	-1.041414	0.205863
H85	H	-1.056776	-0.940271	0.247421
H86	H	-1.056804	-0.247739	1.067745
O87	O	-1.068155	-0.575171	0.236073
H88	H	-1.060878	-0.520077	0.243363
H89	H	-0.592199	-0.404511	0.404732
H90	H	-0.899631	-0.940207	0.404478
O91	O	-1.068125	-0.236247	0.721321
H92	H	-1.098223	-0.206163	0.684863
H93	H	-1.056757	-0.247716	0.939499
O94	O	-0.888197	-0.416093	1.077119
H95	H	-0.858071	-0.446169	1.040674
O96	O	-0.227119	-0.415955	0.416226
H97	H	-0.194939	-0.450473	0.386006
H98	H	-0.899592	-0.404641	0.939529
H99	H	-0.364672	-0.404522	0.404741
