data_functionalizedCrystal
_audit_creation_method	'MofGen! by Chris Wilmer'
_symmetry_space_group_name_H-M	'P1'
_symmetry_Int_Tables_number	1
_symmetry_cell_setting	triclinic
loop_
_symmetry_equiv_pos_as_xyz
  x,y,z
_cell_length_a	6.817900
_cell_length_b	7.190334
_cell_length_c	19.551823
_cell_angle_alpha	88.376478
_cell_angle_beta	78.336624
_cell_angle_gamma	119.388224
loop_
_atom_site_label
_atom_site_type_symbol
_atom_site_fract_x
_atom_site_fract_y
_atom_site_fract_z
V1	V	4.214366	0.665986	-0.095559
O2	O	4.207246	0.652283	0.005739
O3	O	4.156004	0.662419	-0.190580
O4	O	4.251707	0.955996	-0.093586
O5	O	4.110879	0.356673	-0.091927
V6	V	4.688174	0.628870	-0.083502
O7	O	4.496933	0.747404	-0.122007
O8	O	4.855804	0.547453	-0.057054
O9	O	4.523330	0.632438	0.011519
O10	O	4.812691	0.642574	-0.184799
O11	O	4.909058	0.938184	-0.087134
O12	O	4.427626	0.338861	-0.085475
C13	C	3.995807	0.652167	-0.213760
C14	C	4.029947	0.651183	-0.291438
C15	C	4.230905	0.661386	-0.331466
C16	C	4.262995	0.660483	-0.404454
C17	C	4.094094	0.649333	-0.437408
C18	C	3.893113	0.639141	-0.397370
C19	C	3.861040	0.640066	-0.324385
C20	C	3.940880	0.514089	-0.544122
C21	C	3.972953	0.513151	-0.617105
C22	C	4.193015	0.646490	-0.662518
C23	C	4.381020	0.780741	-0.634938
C24	C	4.348947	0.781666	-0.561953
C25	C	4.128852	0.648331	-0.516547
C26	C	4.428783	0.655718	-0.781689
C27	C	4.460872	0.654828	-0.854678
C28	C	4.090974	0.633464	-0.847593
C29	C	4.058901	0.634376	-0.774606
C30	C	4.227808	0.645493	-0.741658
C31	C	4.117897	1.026651	-0.090031
C32	C	4.231745	1.268198	-0.089027
C33	C	4.346867	0.642684	0.034695
C34	C	4.291968	0.643682	0.112372
H35	H	4.368453	0.670453	-0.304646
H36	H	4.560121	0.889612	-0.671923
H37	H	3.819871	0.403823	-0.639554
H38	H	3.761667	0.405515	-0.507152
H39	H	3.697394	0.631759	-0.291794
H40	H	4.566315	0.664766	-0.754861
H41	H	4.624527	0.663151	-0.887270
H42	H	4.502027	0.890980	-0.539501
H43	H	4.426644	0.668791	-0.437051
H44	H	3.953457	0.624399	-0.874424
H45	H	3.895254	0.626054	-0.742013
H46	H	3.755597	0.630068	-0.424206
