data_functionalizedCrystal
_audit_creation_method	'MofGen! by Chris Wilmer'
_symmetry_space_group_name_H-M	'P1'
_symmetry_Int_Tables_number	1
_symmetry_cell_setting	triclinic
loop_
_symmetry_equiv_pos_as_xyz
  x,y,z
_cell_length_a	17.639762
_cell_length_b	25.639240
_cell_length_c	17.640968
_cell_angle_alpha	101.239326
_cell_angle_beta	87.859627
_cell_angle_gamma	101.263786
loop_
_atom_site_label
_atom_site_type_symbol
_atom_site_fract_x
_atom_site_fract_y
_atom_site_fract_z
Zn1	Zn	1.247817	-0.014959	0.195066
Zn2	Zn	1.222013	-0.122837	0.068062
Zn3	Zn	1.095133	-0.048980	0.093707
Zn4	Zn	1.120753	-0.115960	0.220646
O5	O	1.171429	-0.075684	0.144370
O6	O	1.350671	-0.017910	0.156781
O7	O	1.183662	-0.130156	-0.034812
O8	O	1.115465	0.028713	0.107179
O9	O	1.331713	-0.097168	0.063472
O10	O	1.227641	0.053708	0.181648
O11	O	1.090444	-0.075893	-0.015971
O12	O	0.992255	-0.069224	0.131983
O13	O	1.159129	-0.085446	0.323530
O14	O	1.011078	-0.118434	0.225245
O15	O	1.252483	-0.011241	0.304736
O16	O	1.208504	-0.195104	0.088276
O17	O	1.134108	-0.190051	0.200379
C18	C	0.974110	-0.096775	0.184173
C19	C	0.889700	-0.105808	0.201219
C20	C	1.171310	-0.211548	0.144333
C21	C	1.171333	-0.269659	0.144328
C22	C	0.780532	-0.144218	0.273717
C23	C	0.859847	-0.135728	0.257694
C24	C	0.840244	-0.084363	0.160747
C25	C	0.760927	-0.092847	0.176765
C26	C	0.731077	-0.122775	0.233250
C27	C	0.711472	-0.071403	0.136297
C28	C	0.632160	-0.079889	0.152311
C29	C	0.602304	-0.109818	0.208792
C30	C	0.651765	-0.131261	0.249264
C31	C	0.741322	-0.041478	0.079808
C32	C	0.691867	-0.020035	0.039341
C33	C	0.612555	-0.028517	0.055358
C34	C	0.582699	-0.058446	0.111839
C35	C	0.563094	-0.007074	0.014886
C36	C	0.483782	-0.015559	0.030900
C37	C	0.503387	-0.066931	0.127853
C38	C	1.229881	-0.616934	0.183229
C39	C	1.229907	-0.671533	0.183240
O40	O	1.279546	-0.688665	0.216280
N41	N	1.171549	-0.711900	0.144423
C42	C	1.113159	-0.697665	0.105598
O43	O	1.063523	-0.737014	0.072583
C44	C	1.113131	-0.643066	0.105593
C45	C	1.171496	-0.602702	0.144406
C46	C	1.288241	-0.576570	0.222040
C47	C	1.288216	-0.521974	0.222028
C48	C	1.229831	-0.507742	0.183204
C49	C	1.171471	-0.548106	0.144394
C50	C	1.054737	-0.628832	0.066773
C51	C	1.054714	-0.574228	0.066771
C52	C	1.113080	-0.533864	0.105585
C53	C	1.113061	-0.479279	0.105558
N54	N	1.171418	-0.438912	0.144375
C55	C	1.229803	-0.453144	0.183199
C56	C	1.113221	-0.812325	0.105615
C57	C	1.113251	-0.866923	0.105616
C58	C	1.229999	-0.840787	0.183258
C59	C	1.229971	-0.786189	0.183253
C60	C	1.171578	-0.771958	0.144432
C61	C	1.229747	-0.338490	0.183169
C62	C	1.229719	-0.283891	0.183151
C63	C	1.112969	-0.310031	0.105512
C64	C	1.112999	-0.364626	0.105526
C65	C	1.171392	-0.378853	0.144361
O66	O	1.063445	-0.462106	0.072538
O67	O	1.279425	-0.413790	0.216217
C68	C	1.369519	-0.054511	0.104413
C69	C	1.453932	-0.045488	0.087385
C70	C	1.211542	-0.043781	0.342460
C71	C	1.228636	-0.030186	0.426873
C72	C	1.171573	0.060715	0.144421
C73	C	1.171634	0.118840	0.144442
C74	C	1.131516	-0.107420	-0.052957
C75	C	1.114570	-0.120852	-0.137400
C76	C	1.041862	-0.178648	0.753418
C77	C	1.057940	-0.165865	0.832734
C78	C	1.155141	-0.088602	0.813156
C79	C	1.139069	-0.101377	0.733836
C80	C	1.082429	-0.146401	0.703974
C81	C	1.179635	-0.069130	0.684393
C82	C	1.163567	-0.081906	0.605080
C83	C	1.106931	-0.126929	0.575211
C84	C	1.066360	-0.159177	0.624661
C85	C	1.236279	-0.024108	0.714256
C86	C	1.276845	0.008139	0.664812
C87	C	1.260773	-0.004635	0.585499
C88	C	1.204138	-0.049657	0.555630
C89	C	1.301344	0.027614	0.536049
C90	C	1.285275	0.014838	0.456736
C91	C	1.188069	-0.062433	0.476317
H92	H	0.479084	-0.091296	0.173856
H93	H	0.627462	-0.155626	0.295267
F94	F	1.215421	-0.040687	0.844946
H95	H	0.537723	-0.116727	0.221828
H96	H	0.756228	-0.168583	0.319721
H97	H	1.277496	-0.753326	0.214858
F98	F	0.981573	-0.226565	0.721633
H99	H	0.900112	-0.153191	0.290653
F100	F	0.992562	-0.559088	0.025453
F101	F	1.014757	-0.200190	0.885355
H102	H	1.335786	-0.588149	0.253659
F103	F	0.431145	0.007260	-0.012174
F104	F	1.051071	-0.797187	0.064289
F105	F	1.253382	-0.010514	0.798668
F106	F	1.337125	0.056054	0.696602
H107	H	1.347465	0.064269	0.560374
H108	H	1.020220	-0.195830	0.600350
H109	H	1.277249	-0.251026	0.214757
H110	H	1.318308	0.041098	0.416477
F111	F	0.723645	0.011816	-0.020774
F112	F	1.292137	-0.855943	0.224579
F113	F	0.872021	-0.052512	0.100632
H114	H	0.805903	-0.034571	0.066771
H115	H	0.587409	0.017290	-0.031110
H116	H	1.335741	-0.489111	0.253635
F117	F	1.051138	-0.909878	0.064294
H118	H	1.277292	-0.350066	0.214798
H119	H	1.007210	-0.661689	0.035167
H120	H	1.065434	-0.298435	0.073900
F121	F	1.050888	-0.407587	0.064206
F122	F	1.127780	-0.110350	0.444532
H123	H	1.093852	-0.137332	0.510628
