data_functionalizedCrystal
_audit_creation_method	'MofGen! by Chris Wilmer'
_symmetry_space_group_name_H-M	'P1'
_symmetry_Int_Tables_number	1
_symmetry_cell_setting	triclinic
loop_
_symmetry_equiv_pos_as_xyz
  x,y,z
_cell_length_a	16.974848
_cell_length_b	16.053802
_cell_length_c	16.974755
_cell_angle_alpha	88.910023
_cell_angle_beta	83.159419
_cell_angle_gamma	83.770402
loop_
_atom_site_label
_atom_site_type_symbol
_atom_site_fract_x
_atom_site_fract_y
_atom_site_fract_z
O1	O	-1.056103	0.147136	-0.093771
O2	O	-0.556103	0.647136	0.406229
O3	O	-0.825176	0.132447	-0.107301
O4	O	-0.325176	0.632447	0.392699
O5	O	-0.946712	0.132439	0.014223
O6	O	-0.446712	0.632439	0.514223
O7	O	-0.934567	0.147144	-0.215295
O8	O	-0.434567	0.647144	0.284705
O9	O	-0.940022	-0.006421	0.007561
O10	O	-0.440022	0.493579	0.507561
O11	O	-0.818486	-0.006413	-0.113962
O12	O	-0.318486	0.493587	0.386038
O13	O	-1.049413	0.008276	-0.100433
O14	O	-0.549413	0.508276	0.399567
Zn15	Zn	-0.932888	-0.021116	-0.108255
Zn16	Zn	-0.432888	0.478884	0.391745
Zn17	Zn	-0.941702	0.161839	-0.099478
Zn18	Zn	-0.441702	0.661839	0.400522
O19	O	-0.927877	0.008283	-0.221956
O20	O	-0.427877	0.508283	0.278044
C21	C	-0.792276	0.060993	-0.110239
C22	C	-0.292276	0.560993	0.389761
C23	C	-0.704211	0.054963	-0.109059
C24	C	-0.204211	0.554963	0.390941
N25	N	-0.926878	-0.145977	-0.114245
N26	N	-0.426878	0.354023	0.385755
C27	C	-0.208105	0.012894	-0.102836
C28	C	0.291895	0.512894	0.397164
C29	C	-0.290852	0.018562	-0.103944
C30	C	0.209148	0.518562	0.396056
C31	C	-0.335872	0.097090	-0.100861
C32	C	0.164128	0.597090	0.399139
C33	C	-0.298142	0.169955	-0.096678
C34	C	0.201858	0.669955	0.403322
C35	C	-0.215396	0.164287	-0.095575
C36	C	0.284604	0.664287	0.404425
C37	C	-0.583735	0.122160	-0.103774
C38	C	-0.083735	0.622160	0.396226
C39	C	-0.666487	0.127822	-0.104874
C40	C	-0.166487	0.627822	0.395126
C41	C	-0.659191	-0.023571	-0.112142
C42	C	-0.159191	0.476429	0.387858
C43	C	-0.576445	-0.029233	-0.111035
C44	C	-0.076445	0.470767	0.388965
C45	C	-0.538721	0.043632	-0.106855
C46	C	-0.038721	0.543632	0.393145
N47	N	-0.420453	0.102885	-0.101991
N48	N	0.079547	0.602885	0.398009
N49	N	-0.454141	0.037837	-0.105731
N50	N	0.045859	0.537837	0.394269
C51	C	-0.978611	-0.189672	-0.062554
C52	C	-0.478611	0.310328	0.437446
C53	C	-0.974414	-0.277078	-0.066752
C54	C	-0.474414	0.222922	0.433248
C55	C	-0.918489	-0.320788	-0.122643
C56	C	-0.418489	0.179212	0.377357
C57	C	-0.866751	-0.277087	-0.174336
C58	C	-0.366751	0.222913	0.325664
C59	C	-0.870944	-0.189683	-0.170134
C60	C	-0.370944	0.310317	0.329866
C61	C	-0.900172	-0.582195	-0.140974
C62	C	-0.400172	-0.082195	0.359026
C63	C	-0.895985	-0.669605	-0.145173
C64	C	-0.395985	-0.169605	0.354827
C65	C	-1.003648	-0.669590	-0.037587
C66	C	-0.503648	-0.169590	0.462413
C67	C	-1.007840	-0.582184	-0.033394
C68	C	-0.507840	-0.082184	0.466606
C69	C	-0.956099	-0.538491	-0.085083
C70	C	-0.456099	-0.038491	0.414917
N71	N	-0.914200	-0.410131	-0.126937
N72	N	-0.414200	0.089869	0.373063
N73	N	-0.960384	-0.449150	-0.080786
N74	N	-0.460384	0.050850	0.419214
C75	C	-0.082314	0.079728	-0.097489
C76	C	0.417686	0.579728	0.402511
C77	C	-0.170381	0.085754	-0.098651
C78	C	0.329619	0.585754	0.401349
C79	C	-0.942784	0.060985	0.040253
C80	C	-0.442784	0.560985	0.540253
C81	C	-0.941035	0.054955	0.127740
C82	C	-0.441035	0.554955	0.627740
N83	N	-0.947717	0.286700	-0.093483
N84	N	-0.447717	0.786700	0.406517
C85	C	-0.931806	0.079739	-0.247987
C86	C	-0.431806	0.579739	0.252013
C87	C	-0.933554	0.085775	-0.335474
C88	C	-0.433554	0.585775	0.164526
C89	C	-0.930732	0.012913	0.619804
C90	C	-0.430732	0.512913	1.119804
C91	C	-0.932383	0.018576	0.537601
C92	C	-0.432383	0.518576	1.037601
C93	C	-0.936860	0.097102	0.500123
C94	C	-0.436860	0.597102	1.000123
C95	C	-0.939680	0.169970	0.544852
C96	C	-0.439680	0.669970	1.044852
C97	C	-0.938024	0.164306	0.627052
C98	C	-0.438024	0.664306	1.127052
C99	C	-0.942199	0.122159	0.254669
C100	C	-0.442199	0.622159	0.754669
C101	C	-0.943857	0.127817	0.172463
C102	C	-0.443857	0.627817	0.672463
C103	C	-0.936558	-0.023578	0.165218
C104	C	-0.436558	0.476422	0.665218
C105	C	-0.934907	-0.029235	0.247421
C106	C	-0.434907	0.470765	0.747421
C107	C	-0.937723	0.043633	0.292141
C108	C	-0.437723	0.543633	0.792141
N109	N	-0.938550	0.102893	0.416100
N110	N	-0.438550	0.602893	0.916100
N111	N	-0.936028	0.037841	0.376163
N112	N	-0.436028	0.537841	0.876163
H113	H	-0.171455	-0.051051	-0.105350
H114	H	0.328545	0.448949	0.394650
C115	C	-0.929277	-0.061579	0.488410
C116	C	-0.429277	0.438421	0.988410
N117	N	-0.926937	-0.121956	0.451359
N118	N	-0.426937	0.378044	0.951359
H119	H	-1.053379	-0.546597	0.012118
H120	H	-0.553379	-0.046597	0.512118
H121	H	-0.828816	-0.154108	-0.212225
H122	H	-0.328816	0.345892	0.287775
H123	H	-1.045772	-0.705173	0.004497
H124	H	-0.545772	-0.205173	0.504497
C125	C	-0.542252	0.202313	-0.099160
C126	C	-0.042252	0.702313	0.400840
N127	N	-0.511005	0.262689	-0.095679
N128	N	-0.011005	0.762689	0.404321
C129	C	-0.834457	-0.717685	-0.206658
C130	C	-0.334457	-0.217685	0.293342
N131	N	-0.788117	-0.753898	-0.252967
N132	N	-0.288117	-0.253898	0.247033
H133	H	-0.858044	-0.546627	-0.183063
H134	H	-0.358044	-0.046627	0.316937
H135	H	-0.931265	-0.093179	0.277930
H136	H	-0.431265	0.406821	0.777930
H137	H	-1.016539	-0.312654	-0.024661
H138	H	-0.516539	0.187346	0.475339
H139	H	-0.703140	0.191773	-0.102369
H140	H	-0.203140	0.691773	0.397631
C141	C	-0.526925	-0.115618	-0.114448
C142	C	-0.026925	0.384382	0.385552
N143	N	-0.489626	-0.180685	-0.117023
N144	N	0.010374	0.319315	0.382977
C145	C	-0.805224	-0.325172	-0.235810
C146	C	-0.305224	0.174828	0.264190
N147	N	-0.758881	-0.361389	-0.282114
N148	N	-0.258881	0.138611	0.217886
H149	H	-0.334804	0.233894	-0.094172
H150	H	0.165196	0.733894	0.405828
C151	C	-0.925806	-0.073473	0.661021
C152	C	-0.425806	0.426527	1.161021
N153	N	-0.922091	-0.138542	0.692064
N154	N	-0.422091	0.361458	1.192064
H155	H	-0.321563	-0.040768	-0.107351
H156	H	0.178437	0.459232	0.392649
H157	H	-0.689914	-0.082894	-0.115546
H158	H	-0.189914	0.417106	0.384454
C159	C	-0.933449	-0.103727	0.116018
C160	C	-0.433449	0.396273	0.616018
N161	N	-0.931103	-0.164099	0.078959
N162	N	-0.431103	0.335901	0.578959
C163	C	-1.040134	-0.141599	-0.001068
C164	C	-0.540134	0.358401	0.498932
N165	N	-1.086472	-0.105394	0.045248
N166	N	-0.586472	0.394606	0.545248
H167	H	-0.184682	0.223617	-0.092169
H168	H	0.315318	0.723617	0.407831
H169	H	-0.944499	0.181493	0.291071
H170	H	-0.444499	0.681493	0.791071
H171	H	-0.947503	0.191766	0.141951
H172	H	-0.447503	0.691766	0.641951
C173	C	-0.944611	0.256351	0.503624
C174	C	-0.444611	0.756351	1.003624
N175	N	-0.948330	0.321415	0.472572
N176	N	-0.448330	0.821415	0.972572
C177	C	-0.941135	0.244461	0.676247
C178	C	-0.441135	0.744461	1.176247
N179	N	-0.943477	0.304837	0.713300
N180	N	-0.443477	0.804837	1.213300
