data_functionalizedCrystal
_audit_creation_method	'MofGen! by Chris Wilmer'
_symmetry_space_group_name_H-M	'P1'
_symmetry_Int_Tables_number	1
_symmetry_cell_setting	triclinic
loop_
_symmetry_equiv_pos_as_xyz
  x,y,z
_cell_length_a	8.597187
_cell_length_b	8.597249
_cell_length_c	16.776229
_cell_angle_alpha	97.697277
_cell_angle_beta	82.291103
_cell_angle_gamma	86.360014
loop_
_atom_site_label
_atom_site_type_symbol
_atom_site_fract_x
_atom_site_fract_y
_atom_site_fract_z
O1	O	2.086088	0.234333	-0.193461
O2	O	1.629418	0.252302	-0.160864
O3	O	1.866743	0.014991	-0.193460
O4	O	1.848763	0.471645	-0.160865
O5	O	1.866711	0.014975	-0.060883
O6	O	1.629386	0.252287	-0.028287
O7	O	2.086056	0.234318	-0.060883
Zn8	Zn	1.857716	0.243300	-0.023536
Zn9	Zn	1.857758	0.243320	-0.198212
O10	O	1.848731	0.471630	-0.028287
C11	C	1.570899	0.250363	-0.090691
C12	C	1.396580	0.244590	-0.079116
C13	C	1.864798	-0.043518	-0.131058
C14	C	1.859029	-0.217832	-0.142638
C15	C	2.144574	0.236257	-0.131059
C16	C	2.318894	0.242030	-0.142639
C17	C	1.850676	0.530138	-0.090691
C18	C	1.856445	0.704452	-0.079117
N19	N	1.857698	0.243285	0.095676
N20	N	1.857788	0.243323	-0.317425
C21	C	1.962819	0.138248	0.122960
C22	C	1.962828	0.138247	0.206412
C23	C	1.857722	0.243292	0.262578
C24	C	1.752590	0.348334	0.235289
C25	C	1.752575	0.348326	0.151838
C26	C	1.752647	0.348366	0.571834
C27	C	1.752674	0.348369	0.655289
C28	C	1.962900	0.138287	0.626407
C29	C	1.962885	0.138279	0.542957
C30	C	1.857748	0.243315	0.515675
C31	C	1.857738	0.243313	0.425188
C32	C	1.857739	0.243303	0.353064
H33	H	1.329728	0.242383	-0.015878
H34	H	1.667078	0.433912	0.701020
H35	H	1.385751	0.244256	-0.205879
H36	H	1.856843	-0.284661	-0.205881
H37	H	1.858647	-0.228728	-0.015880
C38	C	2.078439	0.022694	0.061182
C39	C	2.194062	-0.092851	0.091199
C40	C	2.309683	-0.208413	0.029423
C41	C	2.309680	-0.208429	-0.062371
C42	C	2.194052	-0.092880	-0.092393
C43	C	2.078432	0.022682	-0.030616
H44	H	2.194069	-0.092842	0.159154
H45	H	2.395278	-0.293950	0.051647
H46	H	2.395269	-0.293975	-0.108101
H47	H	2.194046	-0.092888	-0.160348
H48	H	1.992837	0.108219	-0.052841
H49	H	2.048424	0.052717	0.228625
H50	H	2.048477	0.052747	0.497228
H51	H	2.048504	0.052755	0.648628
H52	H	1.667044	0.433892	0.549628
H53	H	1.667003	0.433858	0.281024
H54	H	1.666973	0.433856	0.129626
