data_functionalizedCrystal
_audit_creation_method	'MofGen! by Chris Wilmer'
_symmetry_space_group_name_H-M	'P1'
_symmetry_Int_Tables_number	1
_symmetry_cell_setting	triclinic
loop_
_symmetry_equiv_pos_as_xyz
  x,y,z
_cell_length_a	27.440280
_cell_length_b	16.704494
_cell_length_c	16.704495
_cell_angle_alpha	54.477050
_cell_angle_beta	85.831908
_cell_angle_gamma	63.420653
loop_
_atom_site_label
_atom_site_type_symbol
_atom_site_fract_x
_atom_site_fract_y
_atom_site_fract_z
Zr1	Zr	0.503611	0.878482	-0.150570
O2	O	0.437073	1.045942	-0.287346
O3	O	0.520115	0.711030	-0.102666
O4	O	0.533131	0.878476	-0.278734
O5	O	0.418218	0.878498	0.020811
O6	O	0.613333	0.878463	-0.278738
O7	O	0.424057	0.878496	-0.111278
O8	O	0.590049	0.578933	0.036216
O9	O	0.441502	1.178029	-0.294144
O10	O	0.591712	0.779893	-0.089458
O11	O	0.527501	0.779905	0.009122
O12	O	0.542826	0.977051	-0.198176
O13	O	0.478615	0.977063	-0.099597
Zr14	Zr	0.622212	0.878466	0.060089
Zr15	Zr	0.631524	0.878462	-0.150577
Zr16	Zr	0.494300	0.878487	0.060095
Zr17	Zr	0.510675	1.089146	-0.161412
Zr18	Zr	0.615148	0.667803	0.070930
O19	O	0.605709	1.045918	0.012184
O20	O	0.618948	1.045912	-0.287356
O21	O	0.423833	1.045948	0.012193
O22	O	0.688751	0.711007	0.196864
O23	O	0.701990	0.711001	-0.102675
O24	O	0.506875	0.711036	0.196874
O25	O	0.707605	0.878450	-0.111292
O26	O	0.592692	0.878472	0.188252
O27	O	0.512490	0.878485	0.188256
O28	O	0.701767	0.878453	0.020796
O29	O	0.543176	1.178012	-0.294149
O30	O	0.582648	0.578936	0.203667
O31	O	0.684322	0.578920	0.203662
O32	O	0.691723	0.578916	0.036211
O33	O	0.434101	1.178032	-0.126693
O34	O	0.535774	1.178016	-0.126698
O35	O	0.582998	0.779897	0.107695
O36	O	0.647208	0.779886	0.009115
O37	O	0.598323	0.977043	-0.099603
O38	O	0.534112	0.977055	-0.001024
C39	C	0.554076	0.614966	-0.031680
C40	C	0.551077	0.525534	-0.027078
C41	C	0.612492	0.357453	-0.121339
C42	C	0.609676	0.273424	-0.117018
C43	C	0.542633	0.273438	-0.014107
C44	C	0.545448	0.357468	-0.018428
C45	C	0.580379	0.399473	-0.072048
C46	C	0.583191	0.483510	-0.076375
C47	C	0.516151	0.483517	0.026541
C48	C	0.513335	0.399488	0.030863
C49	C	0.402913	0.878500	-0.045233
C50	C	0.348610	0.878509	-0.045230
C51	C	0.015128	0.878447	-0.118010
C52	C	-0.035890	0.878439	-0.118010
O53	O	-0.059532	0.878396	-0.179874
N54	N	-0.064624	0.878443	-0.045243
C55	C	-0.042335	0.878443	0.027536
O56	O	-0.071460	0.878444	0.089431
C57	C	0.008684	0.878443	0.027540
C58	C	0.037413	0.878451	-0.045239
C59	C	0.043857	0.878454	-0.190781
C60	C	0.094871	0.878464	-0.190782
C61	C	0.117156	0.878468	-0.118011
C62	C	0.088427	0.878461	-0.045239
C63	C	0.030975	0.878435	0.100322
C64	C	0.081998	0.878434	0.100320
C65	C	0.110727	0.878442	0.027541
C66	C	0.161726	0.878475	0.027531
N67	N	0.190461	0.878471	-0.045236
C68	C	0.168175	0.878468	-0.118007
C69	C	-0.149478	0.878441	0.027524
C70	C	-0.200499	0.878449	0.027516
C71	C	-0.194050	0.878443	-0.118029
C72	C	-0.143031	0.878443	-0.118025
C73	C	-0.120744	0.878438	-0.045244
C74	C	0.275308	0.878490	-0.118004
C75	C	0.326325	0.878505	-0.118001
C76	C	0.319874	0.878505	0.027547
C77	C	0.268859	0.878496	0.027541
C78	C	0.246579	0.878485	-0.045239
O79	O	0.185403	0.878514	0.089366
O80	O	0.197310	0.878452	-0.179884
C81	C	0.722911	0.878448	-0.045249
C82	C	0.777213	0.878440	-0.045252
C83	C	0.574559	0.878469	-0.308752
C84	C	0.578512	0.878467	-0.398185
C85	C	0.571748	1.141982	-0.058802
C86	C	0.574747	1.231414	-0.063404
C87	C	0.497557	0.878499	-0.566248
C88	C	0.501269	0.878497	-0.650278
C89	C	0.589645	0.878470	-0.650282
C90	C	0.585933	0.878472	-0.566252
C91	C	0.539888	0.878484	-0.524236
C92	C	0.536179	0.878478	-0.440200
C93	C	0.624553	0.878459	-0.440210
C94	C	0.628264	0.878458	-0.524240
C95	C	0.551265	0.878479	0.218270
C96	C	0.547312	0.878481	0.307703
C97	C	0.714075	0.614941	-0.031688
C98	C	0.765378	0.525500	-0.027089
C99	C	0.542429	0.614972	0.231831
C100	C	0.535477	0.525541	0.325866
C101	C	0.702428	0.614946	0.231822
C102	C	0.749778	0.525507	0.325855
C103	C	0.423396	1.142002	-0.322304
C104	C	0.376045	1.231442	-0.416337
C105	C	0.411749	1.142008	-0.058794
C106	C	0.360445	1.231449	-0.063393
C107	C	0.583395	1.141977	-0.322312
C108	C	0.590347	1.231407	-0.416348
C109	C	0.760503	0.483501	-0.076391
C110	C	0.808704	0.399474	-0.072090
C111	C	0.861780	0.357440	-0.018479
C112	C	0.866655	0.399447	0.030825
C113	C	0.818454	0.483479	0.026517
C114	C	0.561180	0.483540	0.421489
C115	C	0.554646	0.399522	0.509853
C116	C	0.522412	0.357502	0.502592
C117	C	0.496705	0.399511	0.406959
C118	C	0.503236	0.483533	0.318597
C119	C	0.805537	0.483499	0.318557
C120	C	0.850034	0.399473	0.406902
C121	C	0.838770	0.357451	0.502545
C122	C	0.783005	0.399467	0.509841
C123	C	0.738510	0.483497	0.421496
C124	C	0.320287	1.273459	-0.409039
C125	C	0.275791	1.357511	-0.497385
C126	C	0.287055	1.399538	-0.593029
C127	C	0.342820	1.357517	-0.600324
C128	C	0.387314	1.273472	-0.511979
C129	C	0.365322	1.273456	-0.014100
C130	C	0.317122	1.357507	-0.018426
C131	C	0.264046	1.399543	-0.072040
C132	C	0.259171	1.357532	-0.121340
C133	C	0.307371	1.273489	-0.117019
C134	C	0.622585	1.273401	-0.409054
C135	C	0.629128	1.357419	-0.497402
C136	C	0.603429	1.399448	-0.593043
C137	C	0.571189	1.357446	-0.600334
C138	C	0.564650	1.273423	-0.511987
H139	H	0.635826	0.239212	-0.157154
O140	O	0.650316	1.228069	-0.305906
H141	H	0.634260	1.298607	-0.300986
H142	H	0.693109	0.517689	0.427453
H143	H	0.215951	1.391771	-0.164991
O144	O	0.595950	0.528846	0.429343
H145	H	0.596183	0.594323	0.351841
H146	H	0.655380	1.391608	-0.491445
H147	H	0.611631	0.517714	-0.120038
O148	O	0.322389	1.402794	0.034763
H149	H	0.297579	1.386682	0.092460
H150	H	0.484898	0.365272	0.074522
O151	O	0.910176	0.354152	0.399023
H152	H	0.910527	0.397478	0.317673
H153	H	0.608758	1.467865	-0.664973
O154	O	0.529869	1.228146	-0.519860
H155	H	0.513094	1.271503	-0.601211
H156	H	0.550266	1.391678	-0.678217
H157	H	0.814719	0.517702	0.240688
H158	H	0.640929	0.391663	-0.165007
O159	O	0.461956	0.354154	0.399134
H160	H	0.461748	0.288654	0.476649
H161	H	0.432715	1.239262	-0.517933
O162	O	0.215650	1.402799	-0.489495
H163	H	0.209945	1.441050	-0.450632
O164	O	0.357309	0.878511	-0.196503
H165	H	0.361615	0.955474	-0.242427
H166	H	0.118260	0.878466	-0.250042
O167	O	0.504964	0.228114	0.043721
H168	H	0.530891	0.135414	0.105355
O169	O	0.481517	0.528826	0.079724
H170	H	0.489346	0.594307	0.067720
H171	H	0.575583	0.365328	0.587713
H172	H	0.901023	0.289015	-0.014978
H173	H	0.517098	0.289086	0.574550
H174	H	0.311104	1.239246	-0.331169
H175	H	0.482306	0.517720	0.240740
O176	O	0.486516	0.878500	-0.394882
H177	H	0.457701	0.878523	-0.438224
O178	O	0.923901	0.354098	0.088658
H179	H	0.956593	0.288599	0.083375
H180	H	0.025718	0.878447	-0.250041
H181	H	0.717291	0.517724	-0.120060
H182	H	0.875005	0.289028	0.574472
O183	O	0.639301	0.878466	-0.695615
H184	H	0.668114	0.878465	-0.652291
O185	O	0.251276	0.878494	-0.196508
H186	H	0.279827	0.878513	-0.247112
O187	O	0.239059	1.490185	-0.688308
H188	H	0.256255	1.512362	-0.756047
O189	O	0.422565	1.228128	0.043727
H190	H	0.450141	1.244240	-0.009058
O191	O	0.770858	0.354123	0.613002
H192	H	0.811169	0.288623	0.673199
O193	O	0.354966	1.402842	-0.703484
H194	H	0.314654	1.468330	-0.763681
O195	O	0.212058	1.490159	-0.076663
H196	H	0.224370	1.512282	-0.033356
H197	H	0.303392	1.239289	-0.157157
H198	H	-0.119642	0.878449	-0.177287
H199	H	-0.223891	0.878461	0.086769
O200	O	-0.218088	0.878432	-0.196518
H201	H	-0.258388	0.878418	-0.184281
H202	H	-0.131338	0.878445	0.086789
O203	O	0.447898	0.878510	-0.520921
H204	H	0.419084	0.878523	-0.564255
O205	O	0.803440	0.354166	-0.125261
H206	H	0.758433	0.397502	-0.163244
O207	O	0.455605	0.878542	-0.695610
H208	H	0.422964	0.878555	-0.652277
O209	O	0.677924	0.878452	-0.569563
H210	H	0.717479	0.801498	-0.511002
O211	O	0.000009	0.878394	0.178843
H212	H	-0.010819	0.955329	0.171330
O213	O	0.106036	0.878431	0.178819
H214	H	0.077482	0.878433	0.229415
H215	H	0.245464	0.878506	0.086795
H216	H	0.338025	0.878513	0.086794
H217	H	0.659023	0.878443	-0.405992
O218	O	0.823714	0.528758	0.079714
H219	H	0.868720	0.485395	0.117724
