data_functionalizedCrystal
_audit_creation_method	'MofGen! by Chris Wilmer'
_symmetry_space_group_name_H-M	'P1'
_symmetry_Int_Tables_number	1
_symmetry_cell_setting	triclinic
loop_
_symmetry_equiv_pos_as_xyz
  x,y,z
_cell_length_a	6.817900
_cell_length_b	19.551136
_cell_length_c	16.306216
_cell_angle_alpha	95.888180
_cell_angle_beta	103.467292
_cell_angle_gamma	101.650842
loop_
_atom_site_label
_atom_site_type_symbol
_atom_site_fract_x
_atom_site_fract_y
_atom_site_fract_z
V1	V	-4.017338	-0.097224	-0.263444
O2	O	-4.014322	0.004110	-0.258001
O3	O	-3.959984	-0.192238	-0.262053
O4	O	-3.968905	-0.095975	-0.378153
O5	O	-4.005340	-0.092820	-0.141098
V6	V	-4.502131	-0.085074	-0.248760
O7	O	-4.275812	-0.123876	-0.295653
O8	O	-4.693855	-0.058423	-0.216551
O9	O	-4.336279	0.009940	-0.250151
O10	O	-4.622544	-0.186408	-0.254203
O11	O	-4.631527	-0.089479	-0.371106
O12	O	-4.327358	-0.086323	-0.134051
C13	C	-3.802807	-0.215393	-0.258003
C14	C	-3.837200	-0.293069	-0.257631
C15	C	-3.814186	-0.092599	-0.406099
C16	C	-3.855811	-0.092207	-0.499877
C17	C	-3.814162	-0.319399	-0.180148
C18	C	-3.846549	-0.392382	-0.179772
C19	C	-3.901934	-0.439034	-0.256883
C20	C	-3.924984	-0.412697	-0.334376
C21	C	-3.892617	-0.339715	-0.334750
C22	C	-3.866429	-0.560161	-0.312794
C23	C	-3.898781	-0.633141	-0.312417
C24	C	-4.001775	-0.664135	-0.255733
C25	C	-4.072380	-0.622138	-0.199411
C26	C	-4.040013	-0.549156	-0.199785
C27	C	-3.937036	-0.518172	-0.256486
C28	C	-4.013855	-0.769601	-0.177837
C29	C	-4.046256	-0.842587	-0.177464
C30	C	-4.124672	-0.862900	-0.332071
C31	C	-4.092291	-0.789916	-0.332441
C32	C	-4.036873	-0.743270	-0.255322
C33	C	-4.006900	-0.090799	-0.840623
C34	C	-4.210885	-0.095434	-0.810195
C35	C	-4.167602	-0.095574	-0.712604
C36	C	-3.931944	-0.091498	-0.671575
C37	C	-3.802721	-0.022193	-0.691484
C38	C	-3.847389	-0.021762	-0.789080
C39	C	-3.914285	-0.155222	-0.814783
C40	C	-3.875591	-0.156590	-0.717472
C41	C	-3.889570	-0.091890	-0.576036
C42	C	-4.049265	-0.090402	-0.936162
C43	C	-4.156797	0.033091	-0.254198
C44	C	-4.101643	0.110767	-0.254576
C45	C	-4.145419	-0.089701	-0.106100
C46	C	-4.083033	-0.090090	-0.012321
H47	H	-3.827784	-0.413824	-0.116674
H48	H	-3.782560	-0.534932	-0.358957
O49	O	-3.984727	-0.463008	-0.417549
H50	H	-4.003347	-0.518181	-0.404272
H51	H	-3.911386	-0.318280	-0.397849
O52	O	-4.057842	-0.224212	-0.862548
H53	H	-4.106160	-0.257448	-0.816208
O54	O	-4.117190	-0.761498	-0.416006
H55	H	-3.968444	-0.726066	-0.416725
O56	O	-3.822651	-0.678437	-0.373164
H57	H	-3.745639	-0.644628	-0.412657
H58	H	-3.908234	0.026970	-0.804031
H59	H	-4.333227	-0.145085	-0.844970
O60	O	-4.021395	-0.870990	-0.093889
H61	H	-3.977398	-0.826290	-0.040330
O62	O	-3.645634	-0.013507	-0.814527
H63	H	-3.516621	-0.009831	-0.757132
O64	O	-4.002461	-0.224464	-0.701975
H65	H	-3.897056	-0.255246	-0.668779
O66	O	-4.300735	-0.161604	-0.695835
H67	H	-4.396717	-0.193716	-0.757517
H68	H	-3.769052	-0.281424	-0.117351
H69	H	-3.629508	-0.016689	-0.663971
O70	O	-3.651736	-0.158004	-0.681194
H71	H	-3.576810	-0.112129	-0.629658
H72	H	-4.169769	-0.900883	-0.394856
H73	H	-4.097507	-0.514965	-0.153928
O74	O	-4.305105	-0.034139	-0.833167
H75	H	-4.207278	-0.000385	-0.866159
O76	O	-4.233855	-0.034105	-0.672103
H77	H	-4.296953	-0.004158	-0.722224
O78	O	-3.853473	0.041846	-0.648801
H79	H	-3.815211	0.042463	-0.578696
O80	O	-4.183489	-0.655555	-0.138271
H81	H	-4.194166	-0.713360	-0.147479
O82	O	-3.954110	-0.719283	-0.094665
H83	H	-3.943565	-0.749857	-0.040721
O84	O	-3.713816	-0.151586	-0.840393
H85	H	-3.680225	-0.104153	-0.871378
