data_functionalizedCrystal
_audit_creation_method	'MofGen! by Chris Wilmer'
_symmetry_space_group_name_H-M	'P1'
_symmetry_Int_Tables_number	1
_symmetry_cell_setting	triclinic
loop_
_symmetry_equiv_pos_as_xyz
  x,y,z
_cell_length_a	10.723023
_cell_length_b	10.723023
_cell_length_c	9.798715
_cell_angle_alpha	90.003551
_cell_angle_beta	90.002139
_cell_angle_gamma	84.467548
loop_
_atom_site_label
_atom_site_type_symbol
_atom_site_fract_x
_atom_site_fract_y
_atom_site_fract_z
O1	O	0.175020	1.657187	0.113484
O2	O	0.191774	1.294035	0.113487
O3	O	0.001821	1.483988	0.113480
O4	O	0.364973	1.467234	0.113491
O5	O	0.001820	1.483974	-0.113502
O6	O	0.191774	1.294021	-0.113495
O7	O	0.175019	1.657173	-0.113498
Zn8	Zn	0.183396	1.475595	-0.149535
Zn9	Zn	0.183397	1.475613	0.149524
O10	O	0.364973	1.467220	-0.113491
C11	C	0.190555	1.247528	-0.000003
C12	C	0.186908	1.108974	-0.000002
C13	C	-0.044679	1.482762	-0.000010
C14	C	-0.183233	1.479115	-0.000005
C15	C	0.185282	1.047210	0.117582
C16	C	0.181512	0.904006	0.117586
C17	C	-0.244999	1.477496	0.117580
C18	C	-0.388202	1.473727	0.117587
C19	C	0.411473	1.468446	0.000002
C20	C	0.550027	1.472093	0.000006
C21	C	0.176239	1.703680	-0.000004
C22	C	0.179886	1.842234	0.000003
N23	N	0.183395	1.475591	-0.353635
C24	C	0.103288	1.555347	-0.421414
C25	C	0.103283	1.555367	-0.578577
N26	N	0.183388	1.475627	0.353624
H27	H	0.186687	1.100348	0.218247
H28	H	0.181278	0.895343	-0.100670
C29	C	-0.173233	1.479396	0.253577
H30	H	-0.230553	1.477884	0.327351
H31	H	-0.131332	1.553376	0.258645
H32	H	-0.113550	1.408078	0.258648
C33	C	0.185021	1.037206	-0.136001
H34	H	0.186539	1.094525	-0.209773
H35	H	0.111043	0.995303	-0.141077
H36	H	0.256341	0.977525	-0.141067
H37	H	0.251980	1.407345	-0.588097
H38	H	-0.441320	1.472341	0.218257
H39	H	-0.396865	1.473491	-0.100668
H40	H	0.034702	1.623611	-0.363094
C41	C	0.179627	0.832261	0.253585
H42	H	0.177350	0.745424	0.235747
H43	H	0.107546	0.862434	0.304457
H44	H	0.252844	0.844646	0.304449
C45	C	-0.254999	1.477213	-0.136002
H46	H	-0.197677	1.478708	-0.209776
H47	H	-0.314688	1.548517	-0.141076
H48	H	-0.296890	1.403219	-0.141068
C49	C	0.010627	1.647611	-0.657310
H50	H	0.022772	1.635517	-0.752612
H51	H	0.024677	1.731089	-0.633942
H52	H	-0.072744	1.633118	-0.633965
H53	H	0.251971	1.407319	-0.411956
