data_functionalizedCrystal
_audit_creation_method	'MofGen! by Chris Wilmer'
_symmetry_space_group_name_H-M	'P1'
_symmetry_Int_Tables_number	1
_symmetry_cell_setting	triclinic
loop_
_symmetry_equiv_pos_as_xyz
  x,y,z
_cell_length_a	9.065218
_cell_length_b	14.519731
_cell_length_c	7.540329
_cell_angle_alpha	89.995423
_cell_angle_beta	89.996962
_cell_angle_gamma	84.352369
loop_
_atom_site_label
_atom_site_type_symbol
_atom_site_fract_x
_atom_site_fract_y
_atom_site_fract_z
O1	O	1.957881	0.135224	-0.147492
O2	O	2.291214	0.468557	0.185842
O3	O	2.624547	0.801891	0.519175
O4	O	1.528389	0.146316	-0.147495
O5	O	1.861723	0.479649	0.185839
O6	O	2.195056	0.812982	0.519172
O7	O	1.754506	0.006616	-0.147477
O8	O	2.087839	0.339949	0.185856
O9	O	2.421173	0.673283	0.519190
O10	O	1.731764	0.274924	-0.147509
O11	O	2.065097	0.608257	0.185824
O12	O	2.398431	0.941590	0.519157
O13	O	1.754493	0.006614	0.147488
O14	O	2.087826	0.339948	0.480821
O15	O	2.421159	0.673281	0.814155
O16	O	1.528376	0.146314	0.147470
O17	O	1.861709	0.479647	0.480804
O18	O	2.195043	0.812981	0.814137
O19	O	1.957867	0.135222	0.147473
O20	O	2.291201	0.468556	0.480807
O21	O	2.624534	0.801889	0.814140
Cu22	Cu	1.743120	0.140768	0.174405
Cu23	Cu	2.076454	0.474101	0.507738
Cu24	Cu	2.409787	0.807435	0.841071
Cu25	Cu	1.743136	0.140770	-0.174426
Cu26	Cu	2.076470	0.474103	0.158907
Cu27	Cu	2.409803	0.807437	0.492241
O28	O	1.731751	0.274922	0.147456
O29	O	2.065084	0.608255	0.480789
O30	O	2.398417	0.941589	0.814122
C31	C	1.473416	0.145249	-0.000012
C32	C	1.806749	0.478582	0.333321
C33	C	2.140083	0.811916	0.666654
C34	C	1.309632	0.142062	-0.000013
C35	C	1.642966	0.475395	0.333320
C36	C	1.976299	0.808728	0.666654
C37	C	1.753434	-0.027752	0.000006
C38	C	2.086767	0.305581	0.333339
C39	C	2.420100	0.638915	0.666673
C40	C	1.750241	-0.130156	0.000007
C41	C	2.083574	0.203178	0.333340
C42	C	2.416907	0.536511	0.666674
C43	C	1.747646	-0.213319	0.000003
C44	C	2.080979	0.120014	0.333336
C45	C	2.414313	0.453348	0.666670
C46	C	1.744404	-0.317651	-0.000011
C47	C	2.077737	0.015682	0.333323
C48	C	2.411071	0.349015	0.666656
C49	C	1.741831	-0.400809	-0.000022
C50	C	2.075164	-0.067476	0.333311
C51	C	2.408498	0.265857	0.666644
C52	C	1.738589	-0.505148	-0.000032
C53	C	2.071923	-0.171815	0.333301
C54	C	2.405256	0.161518	0.666634
C55	C	2.012841	0.136289	-0.000013
C56	C	2.346174	0.469622	0.333320
C57	C	2.679507	0.802956	0.666654
C58	C	2.176624	0.139476	-0.000024
C59	C	2.509958	0.472810	0.333309
C60	C	2.843291	0.806143	0.666643
C61	C	1.732823	0.309290	-0.000031
C62	C	2.066156	0.642623	0.333302
C63	C	2.399490	0.975957	0.666636
C64	C	1.736016	0.411694	-0.000044
C65	C	2.069349	0.745027	0.333289
C66	C	2.402683	1.078360	0.666623
N67	N	1.743120	0.140766	0.419753
N68	N	2.076453	0.474099	0.753086
N69	N	2.409787	0.807433	1.086420
N70	N	1.743148	0.140765	-0.419774
N71	N	2.076482	0.474098	-0.086441
N72	N	2.409815	0.807432	0.246892
