data_functionalizedCrystal
_audit_creation_method	'MofGen! by Chris Wilmer'
_symmetry_space_group_name_H-M	'P1'
_symmetry_Int_Tables_number	1
_symmetry_cell_setting	triclinic
loop_
_symmetry_equiv_pos_as_xyz
  x,y,z
_cell_length_a	12.594517
_cell_length_b	29.839132
_cell_length_c	12.594510
_cell_angle_alpha	90.043302
_cell_angle_beta	90.007544
_cell_angle_gamma	90.038907
loop_
_atom_site_label
_atom_site_type_symbol
_atom_site_fract_x
_atom_site_fract_y
_atom_site_fract_z
Zn1	Zn	-1.627049	0.178889	-0.601408
Zn2	Zn	-1.626849	0.254032	-0.423402
Zn3	Zn	-1.449053	0.178908	-0.423479
Zn4	Zn	-1.448944	0.253984	-0.601374
O5	O	-1.537974	0.216453	-0.512416
O6	O	-1.775968	0.188869	-0.577777
O7	O	-1.603227	0.244094	-0.274466
O8	O	-1.472794	0.116038	-0.447129
O9	O	-1.775822	0.244076	-0.446997
O10	O	-1.603566	0.116024	-0.577852
O11	O	-1.472600	0.188901	-0.274523
O12	O	-1.300093	0.188855	-0.447095
O13	O	-1.472608	0.243995	-0.750324
O14	O	-1.300013	0.244014	-0.577794
O15	O	-1.603460	0.188823	-0.750350
O16	O	-1.603121	0.316893	-0.446964
O17	O	-1.472414	0.316858	-0.577719
C18	C	-1.261433	0.216432	-0.512450
C19	C	-1.143127	0.216433	-0.512490
C20	C	-1.073861	0.246491	-0.583444
C21	C	-1.003102	0.205528	-0.609642
C22	C	-1.003087	0.257427	-0.486282
C23	C	-1.073927	0.175448	-0.538739
C24	C	-1.073918	0.227375	-0.415334
C25	C	-1.003191	0.186383	-0.441495
C26	C	-1.537763	0.333176	-0.512352
C27	C	-1.537770	0.383110	-0.512361
C28	C	-1.538044	0.216401	-0.790037
C29	C	-1.538074	0.216379	-0.908342
C30	C	-0.815595	0.216471	-0.512398
C31	C	-0.933900	0.216468	-0.512433
C32	C	-1.606081	0.692759	-0.444387
C33	C	-1.606182	0.880432	-0.444411
O34	O	-1.664148	0.904702	-0.386599
N35	N	-1.538085	0.903895	-0.512433
C36	C	-1.469963	0.880437	-0.580459
O37	O	-1.412052	0.904701	-0.638323
C38	C	-1.469868	0.692765	-0.580439
C39	C	-1.537961	0.669304	-0.512405
C40	C	-1.674170	0.669298	-0.376360
C41	C	-1.674139	0.622383	-0.376350
C42	C	-1.606020	0.598928	-0.444368
C43	C	-1.537931	0.622389	-0.512396
C44	C	-1.401751	0.669308	-0.648469
C45	C	-1.401736	0.622387	-0.648460
C46	C	-1.469829	0.598926	-0.580426
C47	C	-1.469782	0.552019	-0.580404
N48	N	-1.537879	0.528556	-0.512383
C49	C	-1.605998	0.552010	-0.444365
C50	C	-1.470016	0.978968	-0.580462
C51	C	-1.470039	1.025886	-0.580466
C52	C	-1.606260	1.025877	-0.444420
C53	C	-1.606231	0.978959	-0.444412
C54	C	-1.538113	0.955505	-0.512441
C55	C	-1.605929	0.453485	-0.444349
C56	C	-1.605889	0.406565	-0.444343
C57	C	-1.469673	0.406578	-0.580392
C58	C	-1.469708	0.453493	-0.580395
C59	C	-1.537844	0.476945	-0.512370
O60	O	-1.411855	0.527721	-0.638195
O61	O	-1.663916	0.527739	-0.386525
C62	C	-1.606111	0.739675	-0.444397
C63	C	-1.538022	0.763135	-0.512424
C64	C	-1.469902	0.739681	-0.580442
C65	C	-1.538044	0.810053	-0.512428
C66	C	-1.606163	0.833508	-0.444410
C67	C	-1.674260	0.810045	-0.376388
C68	C	-1.674230	0.763129	-0.376379
C69	C	-1.401806	0.763144	-0.648464
C70	C	-1.401840	0.810059	-0.648467
C71	C	-1.469960	0.833514	-0.580449
C72	C	-1.538174	1.099275	-0.512480
C73	C	-1.538158	1.049340	-0.512448
C74	C	-1.609266	0.186369	-0.977609
C75	C	-1.512203	0.175368	-1.048427
C76	C	-1.635194	0.227349	-1.048324
C77	C	-1.440960	0.205357	-0.977602
C78	C	-1.564015	0.257357	-0.977492
C79	C	-1.466886	0.246372	-1.048278
C80	C	-1.537965	0.216473	-0.235875
C81	C	-1.538141	0.216368	-0.117570
H82	H	-1.661339	0.387465	-0.388938
O83	O	-1.672328	0.956220	-0.378182
C84	C	-1.649110	0.967722	-0.272084
H85	H	-1.608203	1.001801	-0.269857
H86	H	-1.594400	0.941346	-0.236192
C87	C	-1.803151	0.928021	-0.210416
C88	C	-1.752917	0.969880	-0.207680
H89	H	-1.867182	0.929350	-0.170687
H90	H	-1.818792	0.920270	-0.281895
H91	H	-1.757549	0.906046	-0.180508
H92	H	-1.798513	0.991853	-0.237600
H93	H	-1.737285	0.977634	-0.136204
O94	O	-1.403784	0.956138	-0.646396
C95	C	-1.335038	0.929054	-0.585747
H96	H	-1.372623	0.922033	-0.505115
H97	H	-1.256182	0.947173	-0.573990
C98	C	-1.269532	0.893102	-0.743335
C99	C	-1.315699	0.884475	-0.644305
H100	H	-1.257598	0.865604	-0.779457
H101	H	-1.315844	0.911349	-0.784196
H102	H	-1.203824	0.908202	-0.733523
H103	H	-1.381412	0.869380	-0.654118
H104	H	-1.269397	0.866223	-0.603446
H105	H	-1.358832	0.196034	-0.946667
H106	H	-0.972355	0.160949	-0.381467
O107	O	-1.403526	0.476216	-0.646578
C108	C	-1.343374	0.445451	-0.706587
H109	H	-1.386943	0.411986	-0.710284
H110	H	-1.262552	0.440511	-0.667557
C111	C	-1.274481	0.504825	-0.815328
C112	C	-1.327997	0.463724	-0.819875
H113	H	-1.264990	0.516097	-0.885208
H114	H	-1.315003	0.525552	-0.774896
H115	H	-1.207135	0.500703	-0.782798
H116	H	-1.395346	0.467847	-0.852392
H117	H	-1.287486	0.442997	-0.860315
H118	H	-1.406640	0.271746	-1.079112
H119	H	-1.104896	0.271863	-0.643519
H120	H	-0.971996	0.196285	-0.691781
O121	O	-1.681085	0.156139	-0.940528
C122	C	-1.758107	0.178466	-0.878883
H123	H	-1.761325	0.215262	-0.902948
H124	H	-1.736206	0.175826	-0.791279
C125	C	-1.863528	0.111524	-0.867820
C126	C	-1.867486	0.156716	-0.897383
H127	H	-1.930998	0.098106	-0.879226
H128	H	-1.811635	0.096481	-0.909347
H129	H	-1.845273	0.109329	-0.794818
H130	H	-1.885728	0.158910	-0.970386
H131	H	-1.919385	0.171759	-0.855868
O132	O	-1.335525	0.740433	-0.714568
C133	C	-1.275454	0.771208	-0.774618
H134	H	-1.271832	0.804669	-0.731020
H135	H	-1.314381	0.776154	-0.855488
C136	C	-1.166592	0.711848	-0.843414
C137	C	-1.162136	0.752944	-0.789861
H138	H	-1.096693	0.700582	-0.852822
H139	H	-1.207065	0.691114	-0.802961
H140	H	-1.199036	0.715975	-0.910799
H141	H	-1.129705	0.748816	-0.722473
H142	H	-1.121654	0.773677	-0.830304
H143	H	-1.105047	0.236630	-0.333219
H144	H	-1.585963	0.292006	-0.946314
O145	O	-1.733222	0.238374	-1.085260
C146	C	-1.807980	0.206643	-1.049276
H147	H	-1.776455	0.189532	-0.974778
H148	H	-1.821973	0.180476	-1.113789
C149	C	-1.952042	0.251459	-1.114956
C150	C	-1.913327	0.230445	-1.023451
H151	H	-2.017028	0.266140	-1.099030
H152	H	-1.901677	0.272836	-1.139203
H153	H	-1.963695	0.229649	-1.168708
H154	H	-1.901663	0.252256	-0.969706
H155	H	-1.963693	0.209072	-0.999194
H156	H	-1.729722	0.829150	-0.321003
H157	H	-1.346267	0.603293	-0.703861
O158	O	-1.111060	0.134126	-0.565303
C159	C	-1.223002	0.134608	-0.565030
H160	H	-1.252277	0.170409	-0.576718
H161	H	-1.253328	0.121223	-0.485877
C162	C	-1.228812	0.060884	-0.641512
C163	C	-1.264768	0.104855	-0.655876
H164	H	-1.254577	0.042530	-0.697546
H165	H	-1.153395	0.060558	-0.641693
H166	H	-1.254086	0.049736	-0.575548
H167	H	-1.239482	0.116004	-0.721832
H168	H	-1.340182	0.105182	-0.655708
O169	O	-1.740346	0.599546	-0.310419
C170	C	-1.809064	0.572370	-0.371063
H171	H	-1.771471	0.565324	-0.451694
H172	H	-1.887938	0.590421	-0.382824
C173	C	-1.874534	0.536473	-0.213470
C174	C	-1.828358	0.527815	-0.312499
H175	H	-1.886440	0.508990	-0.177344
H176	H	-1.828240	0.554783	-0.172612
H177	H	-1.940258	0.551517	-0.223285
H178	H	-1.762630	0.512777	-0.302683
H179	H	-1.874641	0.509501	-0.353355
H180	H	-1.490285	0.140709	-1.079585
H181	H	-0.971967	0.292080	-0.464142
O182	O	-1.740378	0.692008	-0.310178
C183	C	-1.800480	0.661231	-0.250165
H184	H	-1.756860	0.627806	-0.246467
H185	H	-1.881295	0.656197	-0.289193
C186	C	-1.869463	0.720617	-0.141428
C187	C	-1.815883	0.679565	-0.136878
H188	H	-1.878969	0.731927	-0.071549
H189	H	-1.828974	0.741353	-0.181862
H190	H	-1.936803	0.716417	-0.173956
H191	H	-1.748539	0.683767	-0.104364
H192	H	-1.856361	0.658830	-0.096436
O193	O	-1.672462	1.048735	-0.378511
C194	C	-1.657885	1.095175	-0.393126
H195	H	-1.622886	1.101554	-0.475209
H196	H	-1.601336	1.108556	-0.329902
C197	C	-1.808614	1.111378	-0.282799
C198	C	-1.765637	1.119213	-0.383619
H199	H	-1.875079	1.126206	-0.276931
H200	H	-1.818433	1.080090	-0.272949
H201	H	-1.761480	1.122528	-0.230124
H202	H	-1.812765	1.108057	-0.436291
H203	H	-1.755828	1.150499	-0.393478
O204	O	-1.403663	0.383767	-0.646578
C205	C	-1.464229	0.356574	-0.715327
H206	H	-1.548058	0.370684	-0.721954
H207	H	-1.467904	0.321027	-0.682405
C208	C	-1.309223	0.338494	-0.817809
C209	C	-1.412181	0.355827	-0.825955
H210	H	-1.277117	0.338032	-0.886049
H211	H	-1.268417	0.356813	-0.771490
H212	H	-1.312300	0.308874	-0.790370
H213	H	-1.409102	0.385449	-0.853381
H214	H	-1.452985	0.337513	-0.872282
H215	H	-1.346297	0.688402	-0.703864
H216	H	-1.414580	1.044984	-0.635856
H217	H	-1.661414	0.472574	-0.388959
H218	H	-1.346381	0.829157	-0.703867
H219	H	-1.729678	0.744031	-0.320980
