data_functionalizedCrystal
_audit_creation_method	'MofGen! by Chris Wilmer'
_symmetry_space_group_name_H-M	'P1'
_symmetry_Int_Tables_number	1
_symmetry_cell_setting	triclinic
loop_
_symmetry_equiv_pos_as_xyz
  x,y,z
_cell_length_a	13.032831
_cell_length_b	13.897448
_cell_length_c	13.033454
_cell_angle_alpha	82.782824
_cell_angle_beta	89.091650
_cell_angle_gamma	82.822399
loop_
_atom_site_label
_atom_site_type_symbol
_atom_site_fract_x
_atom_site_fract_y
_atom_site_fract_z
Zn1	Zn	1.498553	-0.468317	-0.780866
Zn2	Zn	1.998553	0.031683	-0.280866
Zn3	Zn	1.520281	-0.652363	-0.608872
Zn4	Zn	2.020281	-0.152363	-0.108872
Zn5	Zn	1.348394	-0.473459	-0.587096
Zn6	Zn	1.848394	0.026541	-0.087096
Zn7	Zn	1.326542	-0.611943	-0.759006
Zn8	Zn	1.826542	-0.111943	-0.259006
O9	O	1.423442	-0.551521	-0.683960
O10	O	1.923442	-0.051521	-0.183960
O11	O	1.645358	-0.507496	-0.776312
O12	O	2.145358	-0.007496	-0.276312
O13	O	1.515718	-0.647699	-0.462058
O14	O	2.015718	-0.147699	0.037942
O15	O	1.368365	-0.337798	-0.612835
O16	O	1.868365	0.162202	-0.112835
O17	O	1.661321	-0.642713	-0.649949
O18	O	2.161321	-0.142713	-0.149949
O19	O	1.478686	-0.334020	-0.755197
O20	O	1.978686	0.165980	-0.255197
O21	O	1.389433	-0.516259	-0.446060
O22	O	1.889433	-0.016259	0.053940
O23	O	1.201573	-0.477065	-0.591639
O24	O	1.701573	0.022935	-0.091639
O25	O	1.331122	-0.573823	-0.905831
O26	O	1.831122	-0.073823	-0.405831
O27	O	1.185519	-0.578809	-0.717941
O28	O	1.685519	-0.078809	-0.217941
O29	O	1.457498	-0.468302	-0.921891
O30	O	1.957498	0.031698	-0.421891
O31	O	1.494529	-0.781981	-0.628752
O32	O	1.994529	-0.281981	-0.128752
O33	O	1.352190	-0.752284	-0.739056
O34	O	1.852190	-0.252284	-0.239056
C35	C	1.156228	-0.524109	-0.650055
C36	C	1.656228	-0.024109	-0.150055
C37	C	1.041910	-0.512403	-0.635575
C38	C	1.541910	-0.012403	-0.135575
C39	C	0.983039	-0.557631	-0.691517
C40	C	1.483039	-0.057631	-0.191517
C41	C	0.864885	-0.545532	-0.676553
C42	C	1.364885	-0.045532	-0.176553
C43	C	1.423371	-0.802131	-0.683921
C44	C	1.923371	-0.302131	-0.183921
C45	C	1.423430	-0.909349	-0.683950
C46	C	1.923430	-0.409349	-0.183950
C47	C	1.423530	-1.105646	-0.684029
C48	C	1.923530	-0.605646	-0.184029
C49	C	1.423471	-0.996412	-0.683988
C50	C	1.923471	-0.496412	-0.183988
C51	C	1.691700	-0.579040	-0.717998
C52	C	2.191700	-0.079040	-0.217998
C53	C	1.806016	-0.590767	-0.732503
C54	C	2.306016	-0.090767	-0.232503
C55	C	1.389449	-0.515980	-0.952223
C56	C	1.889449	-0.015980	-0.452223
C57	C	1.374962	-0.500835	-1.066541
C58	C	1.874962	-0.000835	-0.566541
C59	C	1.423539	-0.299931	-0.684026
C60	C	1.923539	0.200069	-0.184026
C61	C	1.423580	-0.192719	-0.684054
C62	C	1.923580	0.307281	-0.184054
C63	C	1.430987	-0.559116	-1.125423
C64	C	1.930987	-0.059116	-0.625423
C65	C	1.416016	-0.543464	-1.243576
C66	C	1.916016	-0.043464	-0.743576
C67	C	1.457363	-0.586860	-0.416748
C68	C	1.957363	-0.086860	0.083252
C69	C	1.472049	-0.601754	-0.302457
C70	C	1.972049	-0.101754	0.197543
H71	H	0.827817	-0.497847	-0.617580
H72	H	1.327817	0.002153	-0.117580
H73	H	1.315919	-0.439346	-1.103602
H74	H	1.815919	0.060654	-0.603602
H75	H	1.490039	-0.620597	-1.088362
H76	H	1.990039	-0.120597	-0.588362
H77	H	0.843081	-0.638442	-0.791486
H78	H	1.343081	-0.138442	-0.291486
C79	C	1.336242	-0.460395	-1.293623
C80	C	1.836242	0.039605	-0.793623
H81	H	1.303039	-0.425855	-1.241360
H82	H	1.803039	0.074145	-0.741360
H83	H	1.286145	-0.487181	-1.329842
H84	H	1.786145	0.012819	-0.829842
H85	H	1.370338	-0.416888	-1.340534
H86	H	1.870338	0.083112	-0.840534
C87	C	1.033109	-0.622040	-0.771187
C88	C	1.533109	-0.122040	-0.271187
H89	H	1.105955	-0.621726	-0.770789
H90	H	1.605955	-0.121726	-0.270789
H91	H	1.006809	-0.597084	-0.838112
H92	H	1.506809	-0.097084	-0.338112
H93	H	1.017464	-0.687057	-0.753798
H94	H	1.517464	-0.187057	-0.253798
C95	C	0.991839	-0.447988	-0.555910
C96	C	1.491839	0.052012	-0.055910
H97	H	0.918994	-0.448311	-0.556301
H98	H	1.418994	0.051689	-0.056301
H99	H	1.007489	-0.382978	-0.573293
H100	H	1.507489	0.117022	-0.073293
H101	H	1.018134	-0.472951	-0.488979
H102	H	1.518134	0.027049	0.011021
H103	H	1.531105	-0.663239	-1.265402
H104	H	2.031105	-0.163239	-0.765402
