data_functionalizedCrystal
_audit_creation_method	'MofGen! by Chris Wilmer'
_symmetry_space_group_name_H-M	'P1'
_symmetry_Int_Tables_number	1
_symmetry_cell_setting	triclinic
loop_
_symmetry_equiv_pos_as_xyz
  x,y,z
_cell_length_a	17.699083
_cell_length_b	10.268362
_cell_length_c	17.699083
_cell_angle_alpha	90.006174
_cell_angle_beta	83.283015
_cell_angle_gamma	89.998556
loop_
_atom_site_label
_atom_site_type_symbol
_atom_site_fract_x
_atom_site_fract_y
_atom_site_fract_z
O1	O	1.004076	0.108120	0.095712
O2	O	1.337409	0.441454	0.429045
O3	O	1.670743	0.774787	0.762378
O4	O	0.783697	0.108163	0.108164
O5	O	1.117031	0.441497	0.441498
O6	O	1.450364	0.774830	0.774831
O7	O	0.900113	0.108129	-0.008251
O8	O	1.233446	0.441462	0.325082
O9	O	1.566780	0.774796	0.658415
O10	O	0.887660	0.108154	0.212127
O11	O	1.220994	0.441488	0.545461
O12	O	1.554327	0.774821	0.878794
O13	O	0.900103	-0.108472	-0.008256
O14	O	1.233436	0.224862	0.325077
O15	O	1.566769	0.558195	0.658411
O16	O	0.783687	-0.108437	0.108160
O17	O	1.117021	0.224896	0.441493
O18	O	1.450354	0.558229	0.774826
O19	O	1.004066	-0.108480	0.095707
O20	O	1.337399	0.224853	0.429040
O21	O	1.670732	0.558186	0.762374
Cu22	Cu	0.893876	-0.128236	0.101933
Cu23	Cu	1.227209	0.205097	0.435266
Cu24	Cu	1.560542	0.538430	0.768600
Cu25	Cu	0.893888	0.127919	0.101938
Cu26	Cu	1.227221	0.461252	0.435272
Cu27	Cu	1.560554	0.794586	0.768605
O28	O	0.887650	-0.108446	0.212122
O29	O	1.220984	0.224887	0.545456
O30	O	1.554317	0.558220	0.878789
C31	C	0.755495	-0.000132	0.107716
C32	C	1.088829	0.333202	0.441049
C33	C	1.422162	0.666535	0.774382
C34	C	0.671477	-0.000116	0.106377
C35	C	1.004811	0.333218	0.439710
C36	C	1.338144	0.666551	0.773044
N37	N	0.893873	-0.308402	0.101928
N38	N	1.227206	0.024931	0.435262
N39	N	1.560539	0.358265	0.768595
C40	C	0.622856	-0.000108	0.174710
C41	C	0.956190	0.333225	0.508044
C42	C	1.289523	0.666559	0.841377
C43	C	0.543913	-0.000125	0.173448
C44	C	0.877246	0.333208	0.506782
C45	C	1.210580	0.666542	0.840115
C46	C	0.513592	-0.000140	0.103852
C47	C	0.846926	0.333193	0.437185
C48	C	1.180259	0.666526	0.770518
C49	C	0.562219	-0.000152	0.035513
C50	C	0.895553	0.333182	0.368846
C51	C	1.228886	0.666515	0.702180
C52	C	0.641161	-0.000144	0.036776
C53	C	0.974495	0.333189	0.370109
C54	C	1.307828	0.666523	0.703443
C55	C	0.243856	-0.000184	0.030418
C56	C	0.577190	0.333149	0.363751
C57	C	0.910523	0.666482	0.697085
C58	C	0.164908	-0.000188	0.029160
C59	C	0.498242	0.333145	0.362493
C60	C	0.831575	0.666478	0.695827
C61	C	0.146608	-0.000166	0.167090
C62	C	0.479942	0.333168	0.500423
C63	C	0.813275	0.666501	0.833757
C64	C	0.225550	-0.000158	0.168353
C65	C	0.558883	0.333175	0.501686
C66	C	0.892217	0.666509	0.835020
C67	C	0.274170	-0.000176	0.100015
C68	C	0.607504	0.333157	0.433348
C69	C	0.940837	0.666490	0.766681
C70	C	0.359769	-0.000160	0.101384
C71	C	0.693103	0.333173	0.434718
C72	C	1.026436	0.666506	0.768051
C73	C	0.427995	-0.000147	0.102481
C74	C	0.761328	0.333186	0.435815
C75	C	1.094661	0.666520	0.769148
C76	C	0.893884	-0.574073	0.101937
C77	C	1.227217	-0.240739	0.435270
C78	C	1.560550	0.092594	0.768604
C79	C	0.893875	-0.426235	0.101934
C80	C	1.227209	-0.092901	0.435268
C81	C	1.560542	0.240432	0.768601
C82	C	1.032268	-0.000183	0.096156
C83	C	1.365601	0.333151	0.429489
C84	C	1.698934	0.666484	0.762822
C85	C	1.116286	-0.000190	0.097494
C86	C	1.449619	0.333143	0.430828
C87	C	1.782953	0.666477	0.764161
C88	C	0.899662	-0.000171	-0.036451
C89	C	1.232995	0.333162	0.296883
C90	C	1.566328	0.666495	0.630216
C91	C	0.898323	-0.000172	-0.120469
C92	C	1.231656	0.333162	0.212865
C93	C	1.564990	0.666495	0.546198
N94	N	0.893896	0.308085	0.101937
N95	N	1.227230	0.641418	0.435270
N96	N	1.560563	0.974752	0.768604
C97	C	0.966656	-0.000187	-0.169090
C98	C	1.299990	0.333147	0.164244
C99	C	1.633323	0.666480	0.497577
C100	C	0.965394	-0.000175	-0.248033
C101	C	1.298727	0.333158	0.085300
C102	C	1.632061	0.666492	0.418634
C103	C	0.895798	-0.000157	-0.278354
C104	C	1.229131	0.333176	0.054980
C105	C	1.562464	0.666509	0.388313
C106	C	0.827459	-0.000138	-0.229727
C107	C	1.160792	0.333195	0.103607
C108	C	1.494126	0.666528	0.436940
C109	C	0.828722	-0.000141	-0.150785
C110	C	1.162055	0.333193	0.182549
C111	C	1.495389	0.666526	0.515882
C112	C	0.822364	-0.000127	-0.548090
C113	C	1.155697	0.333207	-0.214756
C114	C	1.489030	0.666540	0.118577
C115	C	0.821106	-0.000128	-0.627038
C116	C	1.154439	0.333205	-0.293704
C117	C	1.487773	0.666538	0.039629
C118	C	0.959036	-0.000161	-0.645338
C119	C	1.292369	0.333172	-0.312004
C120	C	1.625703	0.666506	0.021329
C121	C	0.960299	-0.000163	-0.566396
C122	C	1.293632	0.333170	-0.233063
C123	C	1.626966	0.666503	0.100271
C124	C	0.891961	-0.000138	-0.517776
C125	C	1.225294	0.333196	-0.184442
C126	C	1.558627	0.666529	0.148891
C127	C	0.893330	-0.000148	-0.432177
C128	C	1.226664	0.333186	-0.098843
C129	C	1.559997	0.666519	0.234490
C130	C	0.894427	-0.000156	-0.363951
C131	C	1.227761	0.333177	-0.030618
C132	C	1.561094	0.666510	0.302715
C133	C	0.888102	-0.000143	0.240322
C134	C	1.221435	0.333190	0.573655
C135	C	1.554768	0.666524	0.906989
C136	C	0.889440	-0.000134	0.324340
C137	C	1.222773	0.333199	0.657673
C138	C	1.556107	0.666533	0.991007
H139	H	0.647537	-0.000095	0.231384
H140	H	0.980870	0.333239	0.564717
H141	H	1.314204	0.666572	0.898051
H142	H	0.504328	-0.000118	0.229092
H143	H	0.837662	0.333216	0.562426
H144	H	1.170995	0.666549	0.895759
H145	H	0.107012	-0.000158	0.222734
H146	H	0.440345	0.333176	0.556067
H147	H	0.773678	0.666509	0.889401
H148	H	0.764429	-0.000116	-0.651721
H149	H	1.097762	0.333217	-0.318388
H150	H	1.431096	0.666550	0.014946
C151	C	0.747194	-0.000126	-0.494614
C152	C	1.080527	0.333207	-0.161281
C153	C	1.413860	0.666540	0.172052
C154	C	0.670641	-0.000129	-0.527969
C155	C	1.003975	0.333205	-0.194635
C156	C	1.337308	0.666538	0.138698
C157	C	0.595467	-0.000138	-0.474489
C158	C	0.928800	0.333196	-0.141156
C159	C	1.262134	0.666529	0.192178
C160	C	0.596845	-0.000144	-0.387655
C161	C	0.930179	0.333189	-0.054321
C162	C	1.263512	0.666522	0.279012
C163	C	0.673401	-0.000142	-0.354296
C164	C	1.006734	0.333191	-0.020962
C165	C	1.340067	0.666525	0.312371
C166	C	0.748575	-0.000133	-0.407775
C167	C	1.081908	0.333200	-0.074442
C168	C	1.415241	0.666534	0.258891
H169	H	0.669618	-0.000124	-0.592253
H170	H	1.002952	0.333209	-0.258919
H171	H	1.336285	0.666543	0.074414
H172	H	0.538796	-0.000139	-0.499184
H173	H	0.872129	0.333194	-0.165851
H174	H	1.205463	0.666527	0.167483
H175	H	0.541197	-0.000151	-0.348066
H176	H	0.874530	0.333183	-0.014732
H177	H	1.207864	0.666516	0.318601
H178	H	0.674423	-0.000147	-0.290012
H179	H	1.007757	0.333187	0.043322
H180	H	1.341090	0.666520	0.376655
H181	H	0.805246	-0.000131	-0.383080
H182	H	1.138579	0.333202	-0.049747
H183	H	1.471913	0.666535	0.283586
H184	H	0.283434	-0.000200	-0.025228
H185	H	0.616767	0.333133	0.308106
H186	H	0.950101	0.666466	0.641439
H187	H	0.537526	-0.000183	-0.021154
H188	H	0.870859	0.333151	0.312180
H189	H	1.204193	0.666484	0.645513
C190	C	1.040562	-0.000207	-0.301516
C191	C	1.373896	0.333126	0.031817
C192	C	1.707229	0.666459	0.365150
C193	C	1.039180	-0.000203	-0.388350
C194	C	1.372513	0.333131	-0.055017
C195	C	1.705846	0.666464	0.278317
C196	C	1.114351	-0.000238	-0.441833
C197	C	1.447685	0.333096	-0.108500
C198	C	1.781018	0.666429	0.224833
C199	C	1.190906	-0.000277	-0.408483
C200	C	1.524239	0.333056	-0.075150
C201	C	1.857573	0.666389	0.258184
C202	C	1.192292	-0.000282	-0.321645
C203	C	1.525625	0.333051	0.011688
C204	C	1.858958	0.666385	0.345022
C205	C	1.117120	-0.000247	-0.268161
C206	C	1.450453	0.333086	0.065172
C207	C	1.783787	0.666420	0.398505
H208	H	0.982507	-0.000173	-0.413042
H209	H	1.315840	0.333160	-0.079708
H210	H	1.649173	0.666493	0.253625
H211	H	1.113325	-0.000234	-0.506117
H212	H	1.446658	0.333099	-0.172784
H213	H	1.779992	0.666433	0.160550
H214	H	1.246552	-0.000303	-0.448075
H215	H	1.579886	0.333030	-0.114741
H216	H	1.913219	0.666363	0.218592
H217	H	1.248964	-0.000311	-0.296953
H218	H	1.582298	0.333022	0.036380
H219	H	1.915631	0.666355	0.369714
H220	H	1.118146	-0.000251	-0.203878
H221	H	1.451479	0.333083	0.129455
H222	H	1.784813	0.666416	0.462789
H223	H	0.250232	-0.000140	0.225025
H224	H	0.583566	0.333194	0.558359
H225	H	0.916899	0.666527	0.891692
H226	H	0.680748	-0.000149	-0.018868
H227	H	1.014082	0.333184	0.314465
H228	H	1.347415	0.666517	0.647799
H229	H	0.140225	-0.000202	-0.027517
H230	H	0.473558	0.333131	0.305816
H231	H	0.806892	0.666464	0.639150
H232	H	1.016971	-0.000184	-0.541714
H233	H	1.350305	0.333149	-0.208380
H234	H	1.683638	0.666482	0.124953
H235	H	1.023330	-0.000209	-0.144409
H236	H	1.356663	0.333124	0.188924
H237	H	1.689997	0.666458	0.522258
H238	H	1.014680	-0.000175	-0.684934
H239	H	1.348013	0.333158	-0.351601
H240	H	1.681347	0.666491	-0.018268
H241	H	0.770792	-0.000116	-0.254420
H242	H	1.104126	0.333218	0.078913
H243	H	1.437459	0.666551	0.412247
H244	H	0.773078	-0.000128	-0.111198
H245	H	1.106411	0.333205	0.222136
H246	H	1.439745	0.666539	0.555469
