data_functionalizedCrystal
_audit_creation_method	'MofGen! by Chris Wilmer'
_symmetry_space_group_name_H-M	'P1'
_symmetry_Int_Tables_number	1
_symmetry_cell_setting	triclinic
loop_
_symmetry_equiv_pos_as_xyz
  x,y,z
_cell_length_a	17.038272
_cell_length_b	14.421503
_cell_length_c	15.944564
_cell_angle_alpha	89.996887
_cell_angle_beta	92.692254
_cell_angle_gamma	89.997443
loop_
_atom_site_label
_atom_site_type_symbol
_atom_site_fract_x
_atom_site_fract_y
_atom_site_fract_z
O1	O	1.037433	-0.077000	-0.182390
O2	O	0.809802	-0.077027	-0.179494
O3	O	0.929828	-0.077004	-0.059112
O4	O	0.917407	-0.077023	-0.302773
O5	O	0.929809	0.077219	-0.059129
O6	O	0.809782	0.077196	-0.179512
O7	O	1.037413	0.077223	-0.182408
Cu8	Cu	0.923596	0.091292	-0.180962
Cu9	Cu	0.923619	-0.091096	-0.180941
O10	O	0.917387	0.077200	-0.302791
C11	C	0.780663	0.000081	-0.176869
C12	C	0.693867	0.000071	-0.169009
N13	N	0.923585	0.219573	-0.180976
N14	N	0.923636	-0.219377	-0.180920
C15	C	0.643777	0.000066	-0.241167
C16	C	0.562224	0.000079	-0.233777
C17	C	0.530762	0.000091	-0.154229
C18	C	0.580859	0.000099	-0.082067
C19	C	0.662410	0.000092	-0.089457
C20	C	0.284996	0.000118	-0.128121
C21	C	0.203438	0.000122	-0.120736
C22	C	0.184809	0.000104	-0.272447
C23	C	0.266363	0.000092	-0.279830
C24	C	0.316452	0.000104	-0.207667
C25	C	0.447402	0.000102	-0.146674
C26	C	0.399810	0.000100	-0.215223
C27	C	1.066553	0.000113	-0.185034
C28	C	1.153348	0.000117	-0.192893
C29	C	0.929301	0.000108	-0.027790
C30	C	0.927750	0.000109	0.065566
C31	C	0.868075	0.469216	-0.236614
C32	C	0.938725	0.531025	-0.257965
C33	C	0.923604	0.408734	-0.180958
C34	C	0.852972	0.531018	-0.159627
C35	C	0.923616	0.591456	-0.180941
C36	C	0.994290	0.469183	-0.202349
C37	C	0.908490	0.469171	-0.103975
C38	C	0.979192	0.530952	-0.125298
C39	C	0.923596	0.303473	-0.180969
C40	C	0.923632	0.696715	-0.180929
C41	C	0.849641	0.000087	0.285999
C42	C	0.885895	0.076134	0.344418
C43	C	0.924943	0.000102	0.236492
C44	C	0.885933	-0.075919	0.344417
C45	C	0.922227	0.000091	0.401597
C46	C	0.961219	0.076211	0.293681
C47	C	0.961246	-0.075910	0.293675
C48	C	0.997555	0.000155	0.352072
C49	C	0.926506	0.000109	0.141378
C50	C	0.920670	0.000091	0.496709
C51	C	0.917903	0.000087	0.665887
C52	C	0.919423	0.000084	0.572528
H53	H	0.669386	0.000056	-0.305943
F54	F	0.299840	0.000074	-0.364496
F55	F	1.040643	0.566166	-0.063771
H56	H	0.951519	0.558194	-0.323061
H57	H	0.854037	0.140417	0.366792
F58	F	1.079320	0.000218	0.389577
H59	H	0.521444	0.000074	-0.292536
H60	H	0.555236	0.000122	-0.017297
H61	H	0.895674	0.441980	-0.038898
F62	F	0.774892	0.566523	-0.136054
H63	H	0.787139	0.000156	0.257154
H64	H	0.703193	0.000096	-0.030699
H65	H	0.144018	0.000096	-0.331197
H66	H	0.993034	0.140572	0.271411
F67	F	1.072389	0.433834	-0.226020
F68	F	1.002852	-0.159937	0.264401
H69	H	0.325769	0.000129	-0.069360
F70	F	0.433296	0.000092	-0.299881
F71	F	0.169957	0.000151	-0.036066
F72	F	0.413911	0.000111	-0.062016
F73	F	0.844296	-0.159945	0.373661
H74	H	0.821163	0.442109	-0.283724
