data_functionalizedCrystal
_audit_creation_method	'MofGen! by Chris Wilmer'
_symmetry_space_group_name_H-M	'P1'
_symmetry_Int_Tables_number	1
_symmetry_cell_setting	triclinic
loop_
_symmetry_equiv_pos_as_xyz
  x,y,z
_cell_length_a	13.897449
_cell_length_b	13.897448
_cell_length_c	13.032268
_cell_angle_alpha	97.150371
_cell_angle_beta	82.839289
_cell_angle_gamma	89.979604
loop_
_atom_site_label
_atom_site_type_symbol
_atom_site_fract_x
_atom_site_fract_y
_atom_site_fract_z
Zn1	Zn	1.405368	0.453230	0.590923
Zn2	Zn	1.905368	0.953230	1.090923
Zn3	Zn	1.425755	0.594069	0.416191
Zn4	Zn	1.925755	1.094069	0.916191
Zn5	Zn	1.264555	0.432793	0.416193
Zn6	Zn	1.764555	0.932793	0.916193
Zn7	Zn	1.244040	0.614481	0.590873
Zn8	Zn	1.744040	1.114481	1.090873
O9	O	1.334929	0.523643	0.503545
O10	O	1.834929	1.023643	1.003545
O11	O	1.543052	0.471923	0.567765
O12	O	2.043052	0.971923	1.067765
O13	O	1.421489	0.555581	0.269961
O14	O	1.921489	1.055581	0.769961
O15	O	1.283288	0.300525	0.439393
O16	O	1.783288	0.800525	0.939393
O17	O	1.558030	0.575397	0.439389
O18	O	2.058030	1.075397	0.939389
O19	O	1.386743	0.315539	0.567767
O20	O	1.886743	0.815539	1.067767
O21	O	1.303056	0.437091	0.269962
O22	O	1.803056	0.937091	0.769962
O23	O	1.126854	0.456883	0.439345
O24	O	1.626854	0.956883	0.939345
O25	O	1.248322	0.610185	0.737110
O26	O	1.748322	1.110185	1.237110
O27	O	1.111782	0.590369	0.567681
O28	O	1.611782	1.090369	1.067681
O29	O	1.366850	0.491715	0.737147
O30	O	1.866850	0.991715	1.237147
O31	O	1.401596	0.731756	0.439341
O32	O	1.901596	1.231756	0.939341
O33	O	1.268091	0.746752	0.567679
O34	O	1.768091	1.246752	1.067679
C35	C	1.084319	0.523624	0.503509
C36	C	1.584319	1.023624	1.003509
C37	C	0.977104	0.523642	0.503518
C38	C	1.477104	1.023642	1.003518
C39	C	1.334853	0.774255	0.503527
C40	C	1.834853	1.274255	1.003527
C41	C	1.334904	0.881472	0.503554
C42	C	1.834904	1.381472	1.003554
C43	C	0.890033	0.523647	0.503535
C44	C	1.390033	1.023647	1.003535
C45	C	0.780796	0.523658	0.503567
C46	C	1.280796	1.023658	1.003567
C47	C	1.334990	1.077776	0.503629
C48	C	1.834990	1.577776	1.003629
C49	C	1.334939	0.968539	0.503591
C50	C	1.834939	1.468539	1.003591
C51	C	1.586518	0.523663	0.503582
C52	C	2.086518	1.023663	1.003582
C53	C	1.693730	0.523672	0.503598
C54	C	2.193730	1.023672	1.003598
C55	C	1.303024	0.555507	0.776105
C56	C	1.803024	1.055507	1.276105
C57	C	1.289427	0.569085	0.892253
C58	C	1.789427	1.069085	1.392253
C59	C	1.335020	1.272056	0.503598
C60	C	1.835020	1.772056	1.003598
C61	C	1.335034	1.164849	0.503652
C62	C	1.835034	1.664849	1.003652
C63	C	1.366767	0.491834	0.232046
C64	C	1.866767	0.991834	0.732046
C65	C	1.380550	0.477984	0.115898
C66	C	1.880550	0.977984	0.615898
C67	C	1.342010	0.516522	0.944054
C68	C	1.842010	1.016522	1.444054
C69	C	1.327959	0.530554	1.064100
C70	C	1.827959	1.030554	1.564100
H71	H	1.397428	0.461128	0.899529
H72	H	1.897428	0.961128	1.399529
C73	C	1.454588	0.404189	1.056669
C74	C	1.954588	0.904189	1.556669
C75	C	1.546942	0.428248	1.083158
C76	C	2.046942	0.928248	1.583158
C77	C	1.615163	0.360284	1.028623
C78	C	2.115163	0.860284	1.528623
H79	H	1.454335	0.404515	0.983860
H80	H	1.954335	0.904515	1.483860
H81	H	1.438477	0.341435	1.074534
H82	H	1.938477	0.841435	1.574534
H83	H	1.563049	0.490985	1.065287
H84	H	2.063049	0.990985	1.565287
H85	H	1.547227	0.427915	1.155958
H86	H	2.047227	0.927915	1.655958
H87	H	1.599052	0.297530	1.046488
H88	H	2.099052	0.797530	1.546488
H89	H	1.614901	0.360615	0.955817
H90	H	2.114901	0.860615	1.455817
H91	H	1.677832	0.376593	1.046596
H92	H	2.177832	0.876593	1.546596
H93	H	1.272528	0.585942	1.108620
H94	H	1.772528	1.085942	1.608620
H95	H	1.234000	0.624469	0.936778
H96	H	1.734000	1.124469	1.436778
