data_functionalizedCrystal
_audit_creation_method	'MofGen! by Chris Wilmer'
_symmetry_space_group_name_H-M	'P1'
_symmetry_Int_Tables_number	1
_symmetry_cell_setting	triclinic
loop_
_symmetry_equiv_pos_as_xyz
  x,y,z
_cell_length_a	21.295418
_cell_length_b	12.759394
_cell_length_c	12.759387
_cell_angle_alpha	90.032817
_cell_angle_beta	89.959604
_cell_angle_gamma	89.969348
loop_
_atom_site_label
_atom_site_type_symbol
_atom_site_fract_x
_atom_site_fract_y
_atom_site_fract_z
Zn1	Zn	0.962404	0.417755	-0.594604
Zn2	Zn	0.962341	0.593476	-0.418922
Zn3	Zn	0.857133	0.417860	-0.418875
Zn4	Zn	0.857125	0.593442	-0.594495
O5	O	0.909751	0.505633	-0.506724
O6	O	1.050485	0.441036	-0.571365
O7	O	0.948362	0.570238	-0.271894
O8	O	0.871127	0.270825	-0.442212
O9	O	1.050439	0.570137	-0.442292
O10	O	0.948469	0.270748	-0.571319
O11	O	0.871066	0.441214	-0.271860
O12	O	0.769042	0.441181	-0.442106
O13	O	0.871113	0.570078	-0.741530
O14	O	0.769037	0.570180	-0.571133
O15	O	0.948461	0.441002	-0.741611
O16	O	0.948354	0.740493	-0.442186
O17	O	0.871052	0.740467	-0.571179
C18	C	0.909713	0.778601	-0.506698
C19	C	0.909754	0.895377	-0.506723
C20	C	0.746199	0.505689	-0.506603
C21	C	0.676231	0.505737	-0.506576
C22	C	0.909793	0.505525	-0.780757
C23	C	0.909811	0.505478	-0.897534
C24	C	0.643378	0.572996	-0.573660
C25	C	0.577635	0.572970	-0.573707
C26	C	0.544748	0.505697	-0.506652
C27	C	0.577609	0.438425	-0.439563
C28	C	0.643351	0.438445	-0.439525
N29	N	0.441474	0.497502	-0.414760
N30	N	0.379023	0.497489	-0.414798
C31	C	0.346674	0.505630	-0.506763
N32	N	0.379135	0.513804	-0.598689
N33	N	0.441592	0.513823	-0.598649
C34	C	0.473463	0.505667	-0.506686
C35	C	0.242535	0.572864	-0.573904
C36	C	0.176791	0.572831	-0.573953
C37	C	0.176767	0.438291	-0.439799
C38	C	0.242509	0.438319	-0.439760
C39	C	0.275389	0.505611	-0.506811
C40	C	1.073941	0.505579	-0.506846
C41	C	1.143909	0.505555	-0.506898
C42	C	0.909806	0.231600	-0.506772
C43	C	0.909829	0.114823	-0.506793
C44	C	0.990309	0.895350	-0.372503
C45	C	1.030603	0.950198	-0.305406
C46	C	1.030640	1.059919	-0.305435
C47	C	0.990380	1.114796	-0.372570
C48	C	0.950086	1.059949	-0.439667
C49	C	0.950052	0.950225	-0.439629
C50	C	0.869535	1.059976	-0.573890
C51	C	0.869494	0.950254	-0.573858
C52	C	0.829276	1.114853	-0.641026
C53	C	0.788978	1.060005	-0.708119
C54	C	0.788942	0.950277	-0.708087
C55	C	0.829201	0.895407	-0.640955
C56	C	0.829329	0.371116	-0.897517
C57	C	0.789099	0.303915	-0.952369
C58	C	0.789117	0.303877	-1.062091
C59	C	0.829369	0.371050	-1.116963
C60	C	0.869599	0.438252	-1.062111
C61	C	0.869577	0.438280	-0.952387
C62	C	0.950078	0.572618	-1.062128
C63	C	0.950063	0.572652	-0.952406
C64	C	0.990330	0.639791	-1.117000
C65	C	1.030564	0.706989	-1.062148
C66	C	1.030544	0.707024	-0.952419
C67	C	0.990293	0.639854	-0.897554
C68	C	0.909744	0.505666	-0.233756
C69	C	0.909848	0.505416	-0.116980
H70	H	0.550881	0.627740	-0.628339
H71	H	0.990275	0.639872	-0.808213
H72	H	1.063383	0.905507	-0.250747
C73	C	1.074155	0.779949	-0.892679
C74	C	1.065516	0.765626	-0.784844
C75	C	1.105674	0.832797	-0.729784
H76	H	1.116483	0.764631	-0.910571
H77	H	1.064918	0.850557	-0.910577
H78	H	1.074758	0.695033	-0.766954
H79	H	1.023197	0.780952	-0.766921
H80	H	1.096437	0.903406	-0.747681
H81	H	1.148000	0.817473	-0.747684
H82	H	1.099814	0.823095	-0.656612
H83	H	0.829314	0.371132	-0.808176
C84	C	0.278320	0.645740	-0.646768
C85	C	0.316146	0.586342	-0.714165
C86	C	0.349125	0.653439	-0.781292
H87	H	0.249409	0.685814	-0.686837
H88	H	0.303955	0.691464	-0.606512
H89	H	0.290513	0.540636	-0.754417
H90	H	0.345069	0.546270	-0.674125
H91	H	0.374760	0.699163	-0.741035
H92	H	0.320209	0.693510	-0.821353
H93	H	0.374798	0.613148	-0.827021
H94	H	0.990419	1.204137	-0.372596
C95	C	1.074410	1.119285	-0.232473
C96	C	1.109651	1.047749	-0.173656
C97	C	1.149972	1.102398	-0.106424
H98	H	1.101894	1.162010	-0.272613
H99	H	1.050368	1.162146	-0.186607
H100	H	1.133691	1.004906	-0.219516
H101	H	1.082183	1.005022	-0.133495
H102	H	1.125930	1.145260	-0.060558
H103	H	1.177452	1.145121	-0.146573
H104	H	1.173884	1.053870	-0.066502
H105	H	0.670099	0.383672	-0.384897
C106	C	0.542021	0.365271	-0.366717
C107	C	0.584867	0.306352	-0.307974
C108	C	0.552107	0.238936	-0.240869
H109	H	0.516328	0.405283	-0.320791
H110	H	0.516432	0.319478	-0.406977
H111	H	0.610445	0.352139	-0.267717
H112	H	0.610561	0.266319	-0.353873
H113	H	0.526518	0.193143	-0.281130
H114	H	0.526415	0.278956	-0.194950
H115	H	0.581173	0.198945	-0.201011
H116	H	0.829311	1.204194	-0.641049
C117	C	1.074339	0.779738	-1.121777
C118	C	1.114719	0.720222	-1.184799
C119	C	1.155061	0.787201	-1.239737
H120	H	1.050327	0.825529	-1.164633
H121	H	1.098337	0.819745	-1.073431
H122	H	1.090725	0.680233	-1.233139
H123	H	1.138746	0.674434	-1.141969
H124	H	1.179058	0.827207	-1.191391
H125	H	1.131043	0.832988	-1.282587
H126	H	1.182467	0.746829	-1.282496
C127	C	0.678962	0.646087	-0.646579
C128	C	0.636113	0.704965	-0.705359
C129	C	0.668872	0.772295	-0.772553
H130	H	0.704566	0.691917	-0.606414
H131	H	0.704639	0.605982	-0.692470
H132	H	0.610447	0.745067	-0.659473
H133	H	0.610508	0.659162	-0.745545
H134	H	0.694549	0.732190	-0.818444
H135	H	0.694475	0.818118	-0.732379
H136	H	0.639804	0.812244	-0.812450
H137	H	0.756204	1.104695	-0.762780
H138	H	0.990275	0.806009	-0.372460
H139	H	0.269259	0.383554	-0.385127
H140	H	0.829171	0.806066	-0.640916
H141	H	0.150043	0.627599	-0.628587
H142	H	0.829375	0.371022	-1.206304
C143	C	0.140956	0.365393	-0.367004
C144	C	0.076350	0.379799	-0.381363
C145	C	0.043338	0.312683	-0.314299
H146	H	0.151685	0.294771	-0.382398
H147	H	0.151652	0.380732	-0.296368
H148	H	0.065658	0.364453	-0.451983
H149	H	0.065602	0.450408	-0.365961
H150	H	0.054034	0.328022	-0.243664
H151	H	0.054073	0.242065	-0.329699
H152	H	-0.000500	0.322455	-0.324026
C153	C	0.745232	0.890864	-0.781111
C154	C	0.758914	0.917461	-0.885092
C155	C	0.718656	0.862764	-0.952392
H156	H	0.750934	0.817642	-0.771623
H157	H	0.702935	0.908960	-0.765727
H158	H	0.801200	0.899358	-0.900471
H159	H	0.753208	0.990673	-0.894613
H160	H	0.676360	0.880860	-0.937008
H161	H	0.724362	0.789545	-0.942894
H162	H	0.727930	0.880809	-1.022949
C163	C	0.745363	0.231156	-0.892657
C164	C	0.705000	0.290668	-0.829601
C165	C	0.664707	0.223682	-0.774572
H166	H	0.721346	0.191104	-0.940917
H167	H	0.769432	0.185406	-0.849822
H168	H	0.680934	0.336400	-0.872433
H169	H	0.729000	0.330718	-0.781322
H170	H	0.688776	0.177932	-0.731737
H171	H	0.640694	0.183633	-0.822840
H172	H	0.637320	0.264051	-0.731776
C173	C	0.745416	0.230802	-1.121462
C174	C	0.710170	0.171966	-1.049931
C175	C	0.669912	0.104631	-1.104585
H176	H	0.717932	0.270868	-1.164242
H177	H	0.769504	0.184952	-1.164269
H178	H	0.686084	0.217810	-1.007142
H179	H	0.737637	0.131879	-1.007149
H180	H	0.694000	0.058781	-1.147391
H181	H	0.642432	0.144705	-1.147363
H182	H	0.645997	0.064696	-1.056060
H183	H	0.990339	0.639761	-1.206341
