data_functionalizedCrystal
_audit_creation_method	'MofGen! by Chris Wilmer'
_symmetry_space_group_name_H-M	'P1'
_symmetry_Int_Tables_number	1
_symmetry_cell_setting	triclinic
loop_
_symmetry_equiv_pos_as_xyz
  x,y,z
_cell_length_a	15.944551
_cell_length_b	15.944493
_cell_length_c	12.996460
_cell_angle_alpha	89.994981
_cell_angle_beta	89.992903
_cell_angle_gamma	83.486891
loop_
_atom_site_label
_atom_site_type_symbol
_atom_site_fract_x
_atom_site_fract_y
_atom_site_fract_z
O1	O	0.108102	1.114556	-0.085555
O2	O	0.441435	1.447889	0.247778
O3	O	0.774768	1.781222	0.581111
O4	O	0.121509	0.869999	-0.085561
O5	O	0.454842	1.203333	0.247773
O6	O	0.788175	1.536666	0.581106
O7	O	-0.007471	0.998956	-0.085549
O8	O	0.325862	1.332289	0.247785
O9	O	0.659196	1.665622	0.581118
O10	O	0.237081	0.985599	-0.085567
O11	O	0.570415	1.318933	0.247766
O12	O	0.903748	1.652266	0.581099
O13	O	-0.007478	0.998942	0.085585
O14	O	0.325855	1.332276	0.418918
O15	O	0.659189	1.665609	0.752252
O16	O	0.121502	0.869986	0.085573
O17	O	0.454835	1.203319	0.418906
O18	O	0.788168	1.536653	0.752240
O19	O	0.108095	1.114542	0.085578
O20	O	0.441428	1.447876	0.418912
O21	O	0.774761	1.781209	0.752245
Cu22	Cu	0.114797	0.992263	0.101202
Cu23	Cu	0.448131	1.325596	0.434535
Cu24	Cu	0.781464	1.658930	0.767868
Cu25	Cu	0.114806	0.992279	-0.101184
Cu26	Cu	0.448139	1.325612	0.232149
Cu27	Cu	0.781473	1.658945	0.565483
O28	O	0.237074	0.985586	0.085566
O29	O	0.570408	1.318919	0.418900
O30	O	0.903741	1.652252	0.752233
C31	C	0.120957	0.838698	0.000006
C32	C	0.454291	1.172031	0.333339
C33	C	0.787624	1.505364	0.666672
C34	C	0.119314	0.745449	0.000004
C35	C	0.452648	1.078783	0.333337
C36	C	0.785981	1.412116	0.666670
C37	C	0.195235	0.509689	-0.000003
C38	C	0.528568	0.843023	0.333331
C39	C	0.861902	1.176356	0.666664
C40	C	0.154290	0.459124	0.084383
C41	C	0.487624	0.792458	0.417716
C42	C	0.820957	1.125791	0.751049
C43	C	0.116270	0.574728	0.000006
C44	C	0.449604	0.908062	0.333339
C45	C	0.782937	1.241395	0.666673
C46	C	0.154279	0.459142	-0.084342
C47	C	0.487612	0.792475	0.248992
C48	C	0.820945	1.125809	0.582325
C49	C	0.113336	0.409819	0.000004
C50	C	0.446669	0.743152	0.333337
C51	C	0.780002	1.076485	0.666670
C52	C	0.075347	0.525391	0.084461
C53	C	0.408681	0.858725	0.417795
C54	C	0.742014	1.192058	0.751128
C55	C	0.075347	0.525413	-0.084339
C56	C	0.408680	0.858746	0.248994
C57	C	0.742014	1.192079	0.582328
C58	C	0.034345	0.474880	0.000067
C59	C	0.367678	0.808214	0.333400
C60	C	0.701011	1.141547	0.666734
C61	C	0.117963	0.669728	0.000008
C62	C	0.451296	1.003061	0.333342
C63	C	0.784630	1.336395	0.666675
C64	C	0.111637	0.314821	0.000009
C65	C	0.444970	0.648155	0.333342
C66	C	0.778303	0.981488	0.666676
C67	C	-0.038768	0.998395	0.000018
C68	C	0.294565	1.331728	0.333352
C69	C	0.627898	1.665061	0.666685
C70	C	-0.132014	0.996732	0.000019
C71	C	0.201319	1.330066	0.333352
C72	C	0.534653	1.663399	0.666686
C73	C	-0.346853	0.912826	0.000003
C74	C	-0.013520	1.246159	0.333336
C75	C	0.319813	1.579492	0.666670
C76	C	-0.407882	0.951782	0.084383
C77	C	-0.074549	1.285116	0.417716
C78	C	0.258784	1.618449	0.751050
C79	C	-0.302739	0.993725	0.000011
C80	C	0.030594	1.327058	0.333344
C81	C	0.363927	1.660392	0.666678
C82	C	-0.407859	0.951815	-0.084341
C83	C	-0.074525	1.285148	0.248992
C84	C	0.258808	1.618481	0.582325
C85	C	-0.467651	0.990814	-0.000001
C86	C	-0.134318	1.324147	0.333332
C87	C	0.199015	1.657481	0.666665
C88	C	-0.362540	1.032704	0.084461
C89	C	-0.029207	1.366037	0.417794
C90	C	0.304127	1.699371	0.751127
C91	C	-0.362510	1.032725	-0.084340
C92	C	-0.029177	1.366058	0.248994
C93	C	0.304157	1.699392	0.582327
C94	C	-0.423521	1.071741	0.000061
C95	C	-0.090188	1.405074	0.333395
C96	C	0.243145	1.738407	0.666728
C97	C	-0.207737	0.995399	0.000019
C98	C	0.125596	1.328733	0.333352
C99	C	0.458929	1.662066	0.666686
C100	C	-0.562652	0.989146	-0.000002
C101	C	-0.229319	1.322479	0.333332
C102	C	0.104014	1.655812	0.666665
C103	C	0.268372	0.986147	-0.000003
C104	C	0.601705	1.319480	0.333330
C105	C	0.935038	1.652814	0.666664
C106	C	0.361617	0.987809	-0.000010
C107	C	0.694951	1.321143	0.333323
C108	C	1.028284	1.654476	0.666656
C109	C	0.108646	1.145844	0.000010
C110	C	0.441979	1.479177	0.333343
C111	C	0.775313	1.812510	0.666676
C112	C	0.110289	1.239092	0.000005
C113	C	0.443622	1.572426	0.333338
C114	C	0.776956	1.905759	0.666671
N115	N	0.114791	0.992258	0.243549
N116	N	0.448124	1.325591	0.576882
N117	N	0.781458	1.658924	0.910215
N118	N	0.114806	0.992290	-0.243531
N119	N	0.448139	1.325624	0.089802
N120	N	0.781472	1.658957	0.423136
C121	C	0.114807	0.992278	0.663363
C122	C	0.448140	1.325611	0.996696
C123	C	0.781473	1.658944	1.330030
C124	C	0.114805	0.992270	0.546558
C125	C	0.448139	1.325603	0.879891
C126	C	0.781472	1.658936	1.213225
C127	C	0.114800	0.992268	0.453460
C128	C	0.448133	1.325601	0.786793
C129	C	0.781466	1.658935	1.120126
C130	C	0.114797	0.992259	0.336647
C131	C	0.448130	1.325593	0.669980
C132	C	0.781463	1.658926	1.003314
H133	H	0.187646	0.430209	-0.155673
H134	H	0.520979	0.763543	0.177660
H135	H	0.854312	1.096876	0.510994
H136	H	-0.033726	0.459415	0.000121
H137	H	0.299607	0.792748	0.333454
H138	H	0.632941	1.126081	0.666788
O139	O	-0.335877	1.078068	-0.178813
O140	O	-0.002544	1.411402	0.154521
O141	O	0.330789	1.744735	0.487854
H142	H	-0.266441	1.079440	-0.177554
H143	H	0.066892	1.412774	0.155780
H144	H	0.400225	1.746107	0.489113
H145	H	-0.342560	1.066887	0.155876
H146	H	-0.009226	1.400220	0.489209
H147	H	0.324107	1.733553	0.822543
H148	H	-0.427925	0.917593	-0.155683
H149	H	-0.094592	1.250926	0.177650
H150	H	0.238741	1.584259	0.510983
O151	O	0.031211	0.563564	0.179066
O152	O	0.364544	0.896897	0.512399
O153	O	0.697877	1.230231	0.845732
H154	H	0.063790	0.536333	0.248942
H155	H	0.397124	0.869666	0.582275
H156	H	0.730457	1.202999	0.915609
H157	H	0.042027	0.554364	-0.155678
H158	H	0.375361	0.887698	0.177655
H159	H	0.708694	1.221031	0.510989
H160	H	-0.456694	1.138950	0.000110
H161	H	-0.123361	1.472283	0.333444
H162	H	0.209973	1.805616	0.666777
O163	O	-0.302702	0.823884	0.000105
O164	O	0.030631	1.157217	0.333438
O165	O	0.363964	1.490550	0.666771
H166	H	-0.320747	0.790497	0.070256
H167	H	0.012586	1.123831	0.403589
H168	H	0.345920	1.457164	0.736923
H169	H	0.263254	0.525313	0.000071
H170	H	0.596588	0.858646	0.333404
H171	H	0.929921	1.191980	0.666738
H172	H	0.187635	0.430181	0.155718
H173	H	0.520969	0.763515	0.489051
H174	H	0.854302	1.096848	0.822385
H175	H	-0.427986	0.917560	0.155718
H176	H	-0.094653	1.250893	0.489052
H177	H	0.238680	1.584226	0.822385
