data_functionalizedCrystal
_audit_creation_method	'MofGen! by Chris Wilmer'
_symmetry_space_group_name_H-M	'P1'
_symmetry_Int_Tables_number	1
_symmetry_cell_setting	triclinic
loop_
_symmetry_equiv_pos_as_xyz
  x,y,z
_cell_length_a	23.532356
_cell_length_b	14.519731
_cell_length_c	13.596369
_cell_angle_alpha	90.005416
_cell_angle_beta	90.002163
_cell_angle_gamma	96.741694
loop_
_atom_site_label
_atom_site_type_symbol
_atom_site_fract_x
_atom_site_fract_y
_atom_site_fract_z
O1	O	-0.074713	1.222950	0.081775
O2	O	-0.083492	0.954369	0.081774
O3	O	0.003794	1.096783	0.081789
O4	O	-0.162000	1.080536	0.081761
O5	O	0.003799	1.096769	-0.081794
O6	O	-0.083488	0.954355	-0.081809
O7	O	-0.074709	1.222936	-0.081808
Zn8	Zn	-0.079097	1.088643	-0.107780
Zn9	Zn	-0.079104	1.088662	0.107747
O10	O	-0.161995	1.080522	-0.081822
C11	C	-0.083079	0.920008	-0.000017
C12	C	-0.081846	0.817643	-0.000016
C13	C	-0.080844	0.734511	-0.000012
C14	C	-0.079593	0.630217	-0.000011
C15	C	-0.078600	0.547090	-0.000011
C16	C	-0.077348	0.442790	-0.000009
C17	C	-0.183216	1.080935	-0.000034
C18	C	-0.246440	1.082157	-0.000045
C19	C	-0.638491	1.089836	0.089172
C20	C	-0.697896	1.090997	0.089177
O21	O	-0.728620	1.091636	0.165011
N22	N	-0.727605	1.091566	0.000009
C23	C	-0.697905	1.090982	-0.089170
O24	O	-0.728629	1.091573	-0.165014
C25	C	-0.638500	1.089827	-0.089174
C26	C	-0.608796	1.089249	0.000000
C27	C	-0.608786	1.089259	0.178339
C28	C	-0.549386	1.088096	0.178334
C29	C	-0.519690	1.087509	0.089162
C30	C	-0.549395	1.088086	-0.000005
C31	C	-0.608801	1.089250	-0.178352
C32	C	-0.549393	1.088095	-0.178348
C33	C	-0.519688	1.087517	-0.089174
C34	C	-0.460299	1.086336	-0.089182
N35	N	-0.430591	1.085768	-0.000014
C36	C	-0.460286	1.086354	0.089158
C37	C	-0.822657	1.093409	-0.089155
C38	C	-0.882061	1.094557	-0.089153
C39	C	-0.882048	1.094575	0.089195
C40	C	-0.822644	1.093420	0.089191
C41	C	-0.792949	1.092841	0.000013
C42	C	-0.335541	1.083910	0.089140
C43	C	-0.276135	1.082743	0.089127
C44	C	-0.276153	1.082731	-0.089219
C45	C	-0.335554	1.083893	-0.089207
C46	C	-0.365246	1.084486	-0.000019
O47	O	-0.429538	1.085700	-0.164978
O48	O	-0.429554	1.085775	0.164989
C49	C	0.025015	1.096370	0.000003
C50	C	0.088239	1.095149	0.000020
C51	C	-0.075122	1.257298	-0.000014
C52	C	-0.076355	1.359663	-0.000009
N53	N	-0.079093	1.088638	-0.254872
C54	C	-0.079104	1.088661	-0.656163
C55	C	-0.079103	1.088652	-0.544512
C56	C	-0.079099	1.088650	-0.455521
C57	C	-0.079097	1.088640	-0.343863
N58	N	-0.079104	1.088675	0.254839
H59	H	-0.359709	1.084394	0.161766
O60	O	-0.790628	1.092773	-0.185344
H61	H	-0.807043	1.030122	-0.228095
H62	H	-0.906237	1.095049	0.161803
H63	H	-0.798462	1.092947	0.161804
O64	O	-0.517367	1.087482	-0.274539
H65	H	-0.471068	1.086590	-0.259570
O66	O	-0.367597	1.084517	-0.185385
H67	H	-0.361213	1.021431	-0.228154
H68	H	-0.525205	1.087632	0.250948
O69	O	-0.914092	1.095175	-0.185338
H70	H	-0.946169	1.032837	-0.189617
H71	H	-0.632976	1.089730	-0.250967
H72	H	-0.251965	1.082249	-0.161821
O73	O	-0.244097	1.082100	0.185311
H74	H	-0.274730	1.082704	0.247316
H75	H	-0.632958	1.089740	0.250957
