data_functionalizedCrystal
_audit_creation_method	'MofGen! by Chris Wilmer'
_symmetry_space_group_name_H-M	'P1'
_symmetry_Int_Tables_number	1
_symmetry_cell_setting	triclinic
loop_
_symmetry_equiv_pos_as_xyz
  x,y,z
_cell_length_a	15.625950
_cell_length_b	15.625429
_cell_length_c	11.804365
_cell_angle_alpha	84.259068
_cell_angle_beta	95.719470
_cell_angle_gamma	89.777900
loop_
_atom_site_label
_atom_site_type_symbol
_atom_site_fract_x
_atom_site_fract_y
_atom_site_fract_z
O1	O	1.138109	0.175852	0.316345
O2	O	0.894601	0.170948	0.213343
O3	O	1.013902	0.051630	0.316367
O4	O	1.018807	0.295169	0.213321
O5	O	0.982492	0.083008	0.487315
O6	O	0.863191	0.202325	0.384291
O7	O	1.106699	0.207229	0.487292
Cu8	Cu	0.982077	0.207642	0.451400
Cu9	Cu	1.019223	0.170535	0.249235
O10	O	0.987397	0.326547	0.384268
C11	C	0.847566	0.183745	0.286541
C12	C	0.754213	0.175121	0.249965
C13	C	0.995307	0.035985	0.414121
C14	C	0.986684	-0.057381	0.450708
C15	C	0.361511	0.232298	0.595445
C16	C	0.273800	0.224202	0.561022
C17	C	0.308085	0.189999	0.374679
C18	C	0.395801	0.198097	0.409085
C19	C	0.422507	0.219246	0.519469
C20	C	0.456797	0.185044	0.333109
C21	C	0.544506	0.193137	0.367514
C22	C	0.571219	0.214282	0.477895
C23	C	0.510215	0.227338	0.553875
C24	C	0.430090	0.163890	0.222728
C25	C	0.491085	0.150837	0.146752
C26	C	0.578796	0.158936	0.181154
C27	C	0.605509	0.180081	0.291535
C28	C	0.639799	0.145880	0.105175
C29	C	0.727507	0.153972	0.139580
C30	C	0.693217	0.188174	0.325941
C31	C	1.043903	-0.449966	0.105150
C32	C	1.035791	-0.537692	0.139559
C33	C	1.001550	-0.503473	0.325914
C34	C	1.009663	-0.415742	0.291522
C35	C	1.030839	-0.388997	0.181138
C36	C	0.996599	-0.354773	0.367511
C37	C	1.004707	-0.267050	0.333119
C38	C	1.025880	-0.240297	0.222739
C39	C	1.038947	-0.301274	0.146747
C40	C	0.975418	-0.381520	0.477891
C41	C	0.962354	-0.320551	0.553880
C42	C	0.970468	-0.232827	0.519491
C43	C	0.991640	-0.206073	0.409111
C44	C	0.957401	-0.171849	0.595484
C45	C	0.965509	-0.084127	0.561092
C46	C	0.999748	-0.118351	0.374720
C47	C	1.153734	0.194431	0.414093
C48	C	1.247088	0.203054	0.450662
C49	C	1.005993	0.342191	0.286512
C50	C	1.014617	0.435556	0.249918
N51	N	0.955956	0.233742	0.593595
N52	N	1.045349	0.144429	0.107046
C53	C	1.108073	0.081739	1.098848
C54	C	1.127832	0.061991	0.991243
C55	C	1.084864	0.104927	0.891826
C56	C	1.022135	0.167614	0.900024
C57	C	1.002379	0.187369	1.007639
C58	C	0.979170	0.210557	0.800617
C59	C	0.916441	0.273244	0.808815
C60	C	0.896688	0.292995	0.916420
C61	C	0.939655	0.250059	1.015837
C62	C	0.998926	0.190802	0.693002
C63	C	0.893232	0.296432	0.601793
C64	C	0.873474	0.316180	0.709398
H65	H	0.714961	0.205408	0.415821
Br66	Br	0.972802	-0.539778	0.475711
H67	H	0.224136	0.234852	0.622890
Br68	Br	0.603546	0.117138	-0.044608
H69	H	1.050001	0.139762	0.686339
H70	H	0.968808	-0.452950	0.505885
H71	H	0.845617	0.344045	0.923092
H72	H	0.777172	0.143348	0.077711
H73	H	0.358670	0.157306	0.194716
H74	H	1.016999	-0.096574	0.284838
H75	H	1.100955	0.088845	0.804212
Br76	Br	1.166391	0.023485	1.233765
Br77	Br	0.546466	0.256055	0.703678
H78	H	0.286329	0.172776	0.284805
Br79	Br	1.053515	-0.620436	0.036415
H80	H	0.923566	0.266135	1.103459
Br81	Br	0.834922	0.354712	0.466877
Br82	Br	1.212962	-0.023077	0.980115
H83	H	0.642637	0.220870	0.505907
Br84	Br	0.397762	0.261015	0.745248
H85	H	1.032472	-0.168866	0.194735
Br86	Br	0.454835	0.122103	-0.003036
H87	H	0.822398	0.367222	0.716086
H88	H	1.056198	-0.279498	0.056865
H89	H	1.061154	-0.428190	0.015268
H90	H	0.945109	-0.342339	0.643753
Br91	Br	0.928642	-0.208158	0.745275
Br92	Br	0.947781	-0.001377	0.664220
