data_functionalizedCrystal
_audit_creation_method	'MofGen! by Chris Wilmer'
_symmetry_space_group_name_H-M	'P1'
_symmetry_Int_Tables_number	1
_symmetry_cell_setting	triclinic
loop_
_symmetry_equiv_pos_as_xyz
  x,y,z
_cell_length_a	12.811438
_cell_length_b	12.837942
_cell_length_c	13.448316
_cell_angle_alpha	89.994234
_cell_angle_beta	84.561792
_cell_angle_gamma	89.411773
loop_
_atom_site_label
_atom_site_type_symbol
_atom_site_fract_x
_atom_site_fract_y
_atom_site_fract_z
O1	O	1.406658	0.139695	-0.209533
O2	O	1.102591	0.154882	-0.182117
O3	O	1.247882	-0.003644	-0.195211
O4	O	1.261367	0.298220	-0.196439
O5	O	1.247861	-0.003654	-0.029825
O6	O	1.102570	0.154872	-0.016731
O7	O	1.406637	0.139685	-0.044147
Cu8	Cu	1.254601	0.147277	-0.015338
Cu9	Cu	1.254626	0.147289	-0.210926
O10	O	1.261346	0.298210	-0.031053
C11	C	1.063391	0.154025	-0.095890
C12	C	0.946617	0.151476	-0.085361
C13	C	0.782019	0.147878	0.019625
C14	C	0.891738	0.150274	0.009737
C15	C	0.891770	0.150286	-0.170577
C16	C	0.782051	0.147890	-0.160688
C17	C	0.727179	0.146684	-0.065584
C18	C	0.617458	0.144281	-0.055696
C19	C	0.617492	0.144300	-0.236009
C20	C	0.727211	0.146696	-0.245897
C21	C	1.243316	-0.042289	-0.112108
C22	C	1.229730	-0.157425	-0.110884
C23	C	1.393061	-0.397678	-0.125632
C24	C	1.380300	-0.505859	-0.124483
C25	C	1.191449	-0.481970	-0.107445
C26	C	1.204210	-0.373789	-0.108594
C27	C	1.305019	-0.331647	-0.117686
C28	C	1.317778	-0.223464	-0.118828
C29	C	1.128928	-0.199577	-0.101797
C30	C	1.116168	-0.307758	-0.100648
C31	C	1.445837	0.140541	-0.130376
C32	C	1.562611	0.143090	-0.140912
C33	C	1.265912	0.336855	-0.114158
C34	C	1.279498	0.451991	-0.115388
N35	N	1.254591	0.147269	0.122227
N36	N	1.254644	0.147290	-0.348492
C37	C	1.318951	0.077103	0.168467
C38	C	1.318958	0.077102	0.272570
C39	C	1.254609	0.147273	0.330430
C40	C	1.190242	0.217442	0.284183
C41	C	1.190231	0.217437	0.180083
C42	C	1.190272	0.217449	0.501161
C43	C	1.190284	0.217456	0.605268
C44	C	1.318999	0.077114	0.593647
C45	C	1.318988	0.077109	0.489547
C46	C	1.254622	0.147280	0.443308
H47	H	0.771902	0.147681	-0.323328
H48	H	1.475143	-0.363366	-0.133026
H49	H	1.451994	-0.559618	-0.130957
H50	H	1.109375	-0.516301	-0.100053
C51	C	1.005283	-0.354127	-0.090635
N52	N	0.921763	-0.389051	-0.083086
C53	C	1.389775	-0.000083	0.425902
N54	N	1.443089	-0.058228	0.377966
H55	H	1.371356	0.019966	0.121363
H56	H	1.057238	-0.145802	-0.095319
H57	H	1.371364	0.019967	0.310217
C58	C	0.952058	0.151582	0.103474
N59	N	0.997491	0.152567	0.174081
H60	H	0.936465	0.151276	-0.248006
H61	H	1.371407	0.019978	0.631302
H62	H	1.137883	0.274595	0.652374
H63	H	0.572829	0.143331	-0.305392
H64	H	1.399862	-0.189154	-0.126228
C65	C	1.119453	0.294630	0.450301
N66	N	1.066114	0.352762	0.411994
H67	H	1.137821	0.274572	0.142436
C68	C	0.557101	0.142961	0.048919
N69	N	0.511643	0.141973	0.127719
C70	C	0.721658	0.146545	0.124239
N71	N	0.676196	0.145541	0.203036
H72	H	1.137842	0.274573	0.331300
