data_functionalizedCrystal
_audit_creation_method	'MofGen! by Chris Wilmer'
_symmetry_space_group_name_H-M	'P1'
_symmetry_Int_Tables_number	1
_symmetry_cell_setting	triclinic
loop_
_symmetry_equiv_pos_as_xyz
  x,y,z
_cell_length_a	6.817900
_cell_length_b	11.102289
_cell_length_c	23.752930
_cell_angle_alpha	95.114242
_cell_angle_beta	100.066047
_cell_angle_gamma	108.605707
loop_
_atom_site_label
_atom_site_type_symbol
_atom_site_fract_x
_atom_site_fract_y
_atom_site_fract_z
V1	V	-4.015154	-0.177515	-0.178393
O2	O	-3.976021	0.006806	-0.174997
O3	O	-3.992590	-0.350323	-0.177173
O4	O	-3.949901	-0.175541	-0.256196
O5	O	-4.019005	-0.169187	-0.095427
V6	V	-4.497617	-0.155378	-0.168469
O7	O	-4.278735	-0.226072	-0.200161
O8	O	-4.684233	-0.106821	-0.146702
O9	O	-4.296975	0.017430	-0.169690
O10	O	-4.654147	-0.339699	-0.171865
O11	O	-4.611163	-0.163706	-0.251436
O12	O	-4.339663	-0.157352	-0.090666
C13	C	-3.844421	-0.392427	-0.174358
C14	C	-3.907147	-0.533705	-0.173879
C15	C	-3.789967	-0.169472	-0.275160
C16	C	-3.818070	-0.169002	-0.338765
C17	C	-4.119081	-0.606578	-0.176509
C18	C	-4.178010	-0.739325	-0.176063
C19	C	-3.813047	-0.726314	-0.170357
C20	C	-3.754124	-0.593570	-0.170807
C21	C	-4.272104	-0.546713	-0.179581
C22	C	-4.484052	-0.619586	-0.182210
C23	C	-4.542981	-0.752333	-0.181765
C24	C	-4.389961	-0.812207	-0.178691
C25	C	-4.174944	-0.172338	-0.736089
C26	C	-4.201370	-0.171879	-0.795852
O27	O	-4.370168	-0.177016	-0.829236
N28	N	-4.032148	-0.165286	-0.822828
C29	C	-3.836481	-0.159139	-0.790038
O30	O	-3.694970	-0.153488	-0.818471
C31	C	-3.810052	-0.159589	-0.730276
C32	C	-3.979294	-0.166195	-0.703303
C33	C	-4.344169	-0.178942	-0.709117
C34	C	-4.317745	-0.179403	-0.649359
C35	C	-4.122095	-0.173260	-0.616573
C36	C	-3.952869	-0.166656	-0.643545
C37	C	-3.614383	-0.153433	-0.697486
C38	C	-3.587968	-0.153882	-0.637720
C39	C	-3.757209	-0.160488	-0.610748
C40	C	-3.730795	-0.160974	-0.551001
N41	N	-3.900017	-0.167567	-0.524025
C42	C	-4.095667	-0.173710	-0.556811
C43	C	-3.891995	-0.158193	-0.915542
C44	C	-3.918425	-0.157753	-0.975304
C45	C	-4.283312	-0.170490	-0.981113
C46	C	-4.256884	-0.170940	-0.921351
C47	C	-4.061216	-0.164786	-0.888566
C48	C	-4.040161	-0.174679	-0.431314
C49	C	-4.013720	-0.175145	-0.371551
C50	C	-3.648834	-0.162401	-0.365745
C51	C	-3.675273	-0.161941	-0.425504
C52	C	-3.870951	-0.168077	-0.458287
O53	O	-3.562057	-0.155836	-0.517580
O54	O	-4.237140	-0.179343	-0.528369
C55	C	-4.108487	0.059527	-0.172502
C56	C	-4.024998	0.200804	-0.172985
C57	C	-4.162941	-0.163425	-0.071699
C58	C	-4.114075	-0.163889	-0.008094
H59	H	-4.224140	-0.438623	-0.179942
Br60	Br	-3.466496	-0.494665	-0.167245
Br61	Br	-4.486579	-0.179905	-0.884753
Br62	Br	-4.243427	-0.184119	-0.334950
H63	H	-3.537470	-0.156576	-0.447467
Br64	Br	-3.626432	-0.149856	-0.871054
H65	H	-4.199496	-0.179677	-0.457999
Br66	Br	-4.609725	-0.187283	-0.753601
H67	H	-4.437963	-0.920302	-0.178335
H68	H	-4.455560	-0.184776	-0.627403
H69	H	-3.688472	-0.775074	-0.167854
H70	H	-3.489538	-0.157405	-0.339041
Br71	Br	-3.688742	-0.148819	-1.011903
Br72	Br	-4.830623	-0.851234	-0.185341
Br73	Br	-4.548844	-0.178825	-1.025620
H74	H	-4.608633	-0.570829	-0.184717
Br75	Br	-3.322400	-0.145516	-0.593227
H76	H	-3.476563	-0.148054	-0.719436
