data_functionalizedCrystal
_audit_creation_method	'MofGen! by Chris Wilmer'
_symmetry_space_group_name_H-M	'P1'
_symmetry_Int_Tables_number	1
_symmetry_cell_setting	triclinic
loop_
_symmetry_equiv_pos_as_xyz
  x,y,z
_cell_length_a	18.101398
_cell_length_b	21.295417
_cell_length_c	18.101389
_cell_angle_alpha	90.022566
_cell_angle_beta	90.024327
_cell_angle_gamma	90.025773
loop_
_atom_site_label
_atom_site_type_symbol
_atom_site_fract_x
_atom_site_fract_y
_atom_site_fract_z
Zn1	Zn	1.132124	-0.250755	0.418817
Zn2	Zn	1.132021	-0.356008	0.294967
Zn3	Zn	1.008283	-0.250748	0.294979
Zn4	Zn	1.008235	-0.355981	0.418755
O5	O	1.070166	-0.303373	0.356880
O6	O	1.235743	-0.264731	0.402409
O7	O	1.115584	-0.342054	0.191335
O8	O	1.024774	-0.162660	0.311437
O9	O	1.235668	-0.342060	0.311417
O10	O	1.115759	-0.162664	0.402421
O11	O	1.024674	-0.264720	0.191344
O12	O	0.904644	-0.264694	0.311377
O13	O	1.024692	-0.342014	0.522397
O14	O	0.904609	-0.342008	0.402315
O15	O	1.115713	-0.264705	0.522442
O16	O	1.115538	-0.444094	0.311357
O17	O	1.024592	-0.444074	0.402304
C18	C	0.877755	-0.303348	0.356841
C19	C	0.795441	-0.303352	0.356842
C20	C	1.070069	-0.466925	0.356839
C21	C	1.070095	-0.536893	0.356846
C22	C	0.496350	-0.303391	0.356904
C23	C	0.527673	-0.254504	0.299967
C24	C	0.613291	-0.254635	0.299724
C25	C	0.644733	-0.303371	0.356873
C26	C	0.613615	-0.369679	0.335543
C27	C	0.527970	-0.369407	0.335147
C28	C	0.527965	-0.286547	0.435305
C29	C	0.613615	-0.285070	0.434877
C30	C	0.728592	-0.303364	0.356857
C31	C	0.412491	-0.303403	0.356919
C32	C	1.117492	-0.569749	0.309538
C33	C	1.117527	-0.635491	0.309555
C34	C	1.070151	-0.668375	0.356871
C35	C	1.022751	-0.635511	0.404188
C36	C	1.022722	-0.569770	0.404175
N37	N	1.005367	-0.771637	0.362504
N38	N	1.005396	-0.834089	0.362512
C39	C	1.070234	-0.866450	0.356914
N40	N	1.135044	-0.834001	0.351293
N41	N	1.135014	-0.771543	0.351282
C42	C	1.070177	-0.739661	0.356891
C43	C	1.117673	-0.970592	0.309622
C44	C	1.117709	-1.036335	0.309644
C45	C	1.022926	-1.036354	0.404273
C46	C	1.022897	-0.970612	0.404255
C47	C	1.070269	-0.937734	0.356925
C48	C	1.263328	-0.303399	0.356919
C49	C	1.345642	-0.303410	0.356935
C50	C	1.070209	-0.303357	0.550042
C51	C	1.070227	-0.303350	0.632356
C52	C	1.070283	-0.139183	0.356937
C53	C	1.070334	-0.069215	0.356961
C54	C	1.070166	-0.303344	0.164469
C55	C	1.070291	-0.303173	0.082155
C56	C	1.070270	-0.303232	0.931447
C57	C	1.012805	-0.351719	0.900093
C58	C	1.012960	-0.351944	0.814475
C59	C	1.070248	-0.303291	0.783064
C60	C	1.148274	-0.321303	0.814168
C61	C	1.147953	-0.321621	0.899813
C62	C	1.050388	-0.236626	0.899877
C63	C	1.048652	-0.237011	0.814226
C64	C	1.070240	-0.303323	0.699205
C65	C	1.070283	-0.303202	1.015306
H66	H	0.634331	-0.205465	0.313095
H67	H	0.633745	-0.265769	0.241630
H68	H	0.635030	-0.384213	0.278847
C69	C	0.500934	-0.388700	0.257715
N70	N	0.480573	-0.403228	0.199389
H71	H	0.506392	-0.239037	0.454697
H72	H	0.633959	-0.236275	0.450961
H73	H	0.635021	-0.318083	0.479573
C74	C	1.169794	-0.934424	0.257570
N75	N	1.209055	-0.907185	0.218366
C76	C	0.500596	-0.334648	0.492618
N77	N	0.479976	-0.370879	0.535781
C78	C	0.499879	-0.187872	0.317828
N79	N	0.478940	-0.137684	0.331281
C80	C	0.498550	-0.269367	0.221943
N81	N	0.476611	-0.280562	0.163175
C82	C	0.974855	-0.214461	0.929032
N83	N	0.917959	-0.197774	0.950991
C84	C	1.169852	-1.072477	0.257598
N85	N	1.209126	-1.099699	0.218395
H86	H	0.984355	-1.063127	0.442802
C87	C	1.169596	-0.533588	0.257466
N88	N	1.208837	-0.506350	0.218242
C89	C	0.970770	-0.934468	0.456313
N90	N	0.931515	-0.907246	0.495534
H91	H	1.156126	-0.662248	0.271032
H92	H	0.984178	-0.662290	0.442715
C93	C	0.970589	-0.533627	0.456229
N94	N	0.931324	-0.506404	0.495439
H95	H	0.633980	-0.407079	0.375715
C96	C	0.499974	-0.420283	0.388723
N97	N	0.478891	-0.458605	0.429072
C98	C	0.934795	-0.336714	0.786060
N99	N	0.875917	-0.325244	0.764662
H100	H	0.954772	-0.340562	0.920680
C101	C	1.030368	-0.418012	0.929156
N102	N	1.043602	-0.467945	0.951043
C103	C	1.030681	-0.418644	0.786795
N104	N	1.044014	-0.468889	0.765947
C105	C	1.170717	-0.387401	0.926806
N106	N	1.187861	-0.436949	0.947133
H107	H	1.192220	-0.287839	0.920557
H108	H	1.192239	-0.287098	0.793825
C109	C	1.171437	-0.386385	0.785201
N110	N	1.188879	-0.435406	0.763385
C111	C	0.971095	-0.218645	0.786730
N112	N	0.912684	-0.204808	0.766005
C113	C	1.101059	-0.185612	0.785328
N114	N	1.140534	-0.146899	0.763557
C115	C	1.106933	-0.187823	0.927270
N116	N	1.149526	-0.151070	0.947905
