data_functionalizedCrystal
_audit_creation_method	'MofGen! by Chris Wilmer'
_symmetry_space_group_name_H-M	'P1'
_symmetry_Int_Tables_number	1
_symmetry_cell_setting	triclinic
loop_
_symmetry_equiv_pos_as_xyz
  x,y,z
_cell_length_a	11.792241
_cell_length_b	10.723024
_cell_length_c	9.798715
_cell_angle_alpha	90.001978
_cell_angle_beta	89.997178
_cell_angle_gamma	95.669357
loop_
_atom_site_label
_atom_site_type_symbol
_atom_site_fract_x
_atom_site_fract_y
_atom_site_fract_z
O1	O	1.507282	-0.171036	-0.113460
O2	O	2.007282	0.328964	0.386540
O3	O	1.176980	-0.188663	-0.113469
O4	O	1.676980	0.311337	0.386531
O5	O	1.349750	0.001747	-0.113459
O6	O	1.849750	0.501747	0.386541
O7	O	1.334512	-0.361446	-0.113470
O8	O	1.834512	0.138554	0.386530
O9	O	1.349737	0.001747	0.113523
O10	O	1.849737	0.501747	0.613523
O11	O	1.176967	-0.188663	0.113514
O12	O	1.676967	0.311337	0.613514
O13	O	1.507269	-0.171035	0.113522
O14	O	2.007269	0.328965	0.613522
Zn15	Zn	1.342116	-0.179849	0.149556
Zn16	Zn	1.842116	0.320151	0.649556
Zn17	Zn	1.342133	-0.179850	-0.149503
Zn18	Zn	1.842133	0.320150	0.350497
O19	O	1.334499	-0.361445	0.113513
O20	O	1.834499	0.138555	0.613513
C21	C	1.348634	0.048244	0.000030
C22	C	1.848634	0.548244	0.500030
C23	C	1.345317	0.186789	0.000025
C24	C	1.845317	0.686789	0.500025
C25	C	1.134680	-0.187556	0.000021
C26	C	1.634680	0.312444	0.500021
C27	C	1.008659	-0.184242	0.000018
C28	C	1.508659	0.315758	0.500018
C29	C	1.549569	-0.172143	0.000029
C30	C	2.049569	0.327857	0.500029
C31	C	1.675590	-0.175457	0.000023
C32	C	2.175590	0.324543	0.500023
C33	C	1.906315	-0.181551	0.000023
C34	C	2.406315	0.318449	0.500023
C35	C	1.777923	-0.178165	0.000024
C36	C	2.277923	0.321835	0.500024
C37	C	1.335614	-0.407942	0.000020
C38	C	1.835614	0.092058	0.500020
C39	C	1.338932	-0.546488	0.000016
C40	C	1.838932	-0.046488	0.500016
N41	N	1.342112	-0.179848	0.353656
N42	N	1.842112	0.320152	0.853656
C43	C	1.441990	0.262028	0.000026
C44	C	1.941990	0.762028	0.500026
C45	C	1.438563	0.405222	0.000021
C46	C	1.938563	0.905222	0.500021
N47	N	1.342145	-0.179841	-0.353602
N48	N	1.842145	0.320159	0.146398
C49	C	1.414654	-0.099549	0.421437
C50	C	1.914654	0.400451	0.921437
C51	C	1.414672	-0.099544	0.578599
C52	C	1.914672	0.400456	1.078599
H53	H	1.521323	0.469873	0.000027
H54	H	2.021323	0.969873	0.500027
H55	H	1.280016	-0.248588	0.411977
H56	H	1.780016	0.251412	0.911977
O57	O	1.259871	-0.270903	0.569192
O58	O	1.759871	0.229097	1.069192
H59	H	1.275319	-0.368245	0.596515
H60	H	1.775319	0.131755	1.096515
O61	O	1.496955	-0.008483	0.655794
O62	O	1.996955	0.491517	1.155794
H63	H	1.481519	0.088857	0.628448
H64	H	1.981519	0.588857	1.128448
H65	H	1.527292	0.220431	0.000036
H66	H	2.027292	0.720431	0.500036
H67	H	1.256168	0.388868	0.000025
H68	H	1.756168	0.888868	0.500025
H69	H	1.260014	0.228386	0.000014
H70	H	1.760014	0.728386	0.500014
H71	H	1.476743	-0.030799	0.363117
H72	H	1.976743	0.469201	0.863117
