data_functionalizedCrystal
_audit_creation_method	'MofGen! by Chris Wilmer'
_symmetry_space_group_name_H-M	'P1'
_symmetry_Int_Tables_number	1
_symmetry_cell_setting	triclinic
loop_
_symmetry_equiv_pos_as_xyz
  x,y,z
_cell_length_a	15.944551
_cell_length_b	10.654545
_cell_length_c	9.130313
_cell_angle_alpha	89.996934
_cell_angle_beta	89.994529
_cell_angle_gamma	83.990908
loop_
_atom_site_label
_atom_site_type_symbol
_atom_site_fract_x
_atom_site_fract_y
_atom_site_fract_z
O1	O	0.117958	1.666317	-0.121788
O2	O	0.129202	1.300692	-0.121795
O3	O	0.001363	1.493489	-0.121778
O4	O	0.245798	1.473520	-0.121805
O5	O	0.001359	1.493475	0.121821
O6	O	0.129199	1.300679	0.121804
O7	O	0.117955	1.666303	0.121811
Cu8	Cu	0.123576	1.483490	0.144050
Cu9	Cu	0.123581	1.483505	-0.144034
O10	O	0.245794	1.473507	0.121794
C11	C	0.128376	1.253898	0.000004
C12	C	0.125908	1.114486	0.000002
C13	C	0.124744	1.048990	0.132789
C14	C	0.122412	0.918000	0.132789
C15	C	0.122410	0.918015	-0.132796
C16	C	0.124737	1.049003	-0.132795
C17	C	-0.029937	1.492653	0.000022
C18	C	-0.123198	1.490168	0.000022
C19	C	-0.338779	1.364723	-0.000000
C20	C	-0.399462	1.422969	0.120110
C21	C	-0.293950	1.485672	0.000011
C22	C	-0.399441	1.423010	-0.120059
C23	C	-0.458887	1.481320	-0.000006
C24	C	-0.353404	1.543951	0.120220
C25	C	-0.353377	1.543975	-0.120057
C26	C	-0.414042	1.602309	0.000082
C27	C	-0.198933	1.488175	0.000022
C28	C	-0.553903	1.478825	-0.000007
C29	C	0.277094	1.474342	-0.000009
C30	C	0.370355	1.476827	-0.000019
C31	C	0.118781	1.713097	0.000009
C32	C	0.121249	1.852509	0.000001
N33	N	0.123573	1.483488	0.346673
N34	N	0.123578	1.483517	-0.346657
C35	C	0.066990	1.568887	0.423332
C36	C	0.066990	1.568899	0.576669
C37	C	0.180164	1.398109	0.576673
C38	C	0.180159	1.398092	0.423339
H39	H	0.121457	0.864683	-0.240914
H40	H	0.020914	1.638437	0.639080
O41	O	0.125902	1.112434	-0.261923
C42	C	0.125604	1.098647	-0.525348
C43	C	0.124305	1.026652	-0.379227
H44	H	0.124296	1.029327	-0.620226
H45	H	0.185385	1.148443	-0.532094
H46	H	0.068027	1.171498	-0.531891
H47	H	0.181841	0.953741	-0.372586
H48	H	0.064487	0.976942	-0.372542
O49	O	0.235161	1.315041	0.650924
C50	C	0.347443	1.145684	0.634743
C51	C	0.285189	1.239671	0.550478
H52	H	0.387919	1.084740	0.553569
H53	H	0.310830	1.082876	0.706513
H54	H	0.389710	1.199926	0.706547
H55	H	0.242908	1.185532	0.478594
H56	H	0.321855	1.302478	0.478800
O57	O	-0.423642	1.361802	-0.241158
C58	C	-0.412532	1.167350	-0.377930
C59	C	-0.385047	1.236536	-0.240753
H60	H	-0.381354	1.066053	-0.377632
H61	H	-0.392649	1.217840	-0.480335
H62	H	-0.484000	1.166923	-0.377325
H63	H	-0.313583	1.236983	-0.241216
H64	H	-0.404993	1.186024	-0.138409
O65	O	-0.329361	1.605003	0.241544
C66	C	-0.373627	1.714415	0.463903
C67	C	-0.400976	1.645334	0.326552
H68	H	-0.431510	1.747019	0.532685
H69	H	-0.340768	1.799773	0.429545
H70	H	-0.328337	1.647505	0.531216
H71	H	-0.446293	1.712144	0.259178
H72	H	-0.433786	1.559960	0.361010
H73	H	0.121465	0.864679	0.240917
H74	H	0.125698	1.102302	0.240920
H75	H	-0.306052	1.264330	0.000118
H76	H	-0.419867	1.371807	0.221652
O77	O	-0.452769	1.722264	0.000238
C78	C	-0.435374	1.944213	0.001532
C79	C	-0.391414	1.808431	0.001374
H80	H	-0.385788	2.013917	0.002420
H81	H	-0.476847	1.959366	0.103032
H82	H	-0.476043	1.959875	-0.100854
H83	H	-0.350702	1.792675	0.103691
H84	H	-0.349992	1.793343	-0.100193
H85	H	-0.332950	1.595093	-0.221604
O86	O	0.011938	1.651876	0.349083
C87	C	-0.100285	1.821321	0.365270
C88	C	-0.037994	1.727385	0.449532
H89	H	-0.140659	1.882412	0.446445
H90	H	-0.142644	1.767162	0.293546
H91	H	-0.063617	1.883991	0.293419
H92	H	-0.074593	1.664691	0.521462
H93	H	0.004365	1.781622	0.521162
H94	H	0.226236	1.328544	0.360919
