data_functionalizedCrystal
_audit_creation_method	'MofGen! by Chris Wilmer'
_symmetry_space_group_name_H-M	'P1'
_symmetry_Int_Tables_number	1
_symmetry_cell_setting	triclinic
loop_
_symmetry_equiv_pos_as_xyz
  x,y,z
_cell_length_a	29.839131
_cell_length_b	17.639617
_cell_length_c	17.639197
_cell_angle_alpha	92.177485
_cell_angle_beta	78.813192
_cell_angle_gamma	101.225424
loop_
_atom_site_label
_atom_site_type_symbol
_atom_site_fract_x
_atom_site_fract_y
_atom_site_fract_z
Zn1	Zn	-0.132106	1.073843	0.664354
Zn2	Zn	0.367894	1.573843	1.164354
Zn3	Zn	-0.189683	1.099447	0.537360
Zn4	Zn	0.310317	1.599447	1.037360
Zn5	Zn	-0.126170	0.972583	0.511690
Zn6	Zn	0.373830	1.472583	1.011690
Zn7	Zn	-0.218820	0.946791	0.638573
Zn8	Zn	0.281180	1.446791	1.138573
O9	O	-0.166695	1.023166	0.587995
O10	O	0.333305	1.523166	1.087995
O11	O	-0.130034	1.183505	0.669041
O12	O	0.369966	1.683505	1.169041
O13	O	-0.166580	1.104128	0.427707
O14	O	0.333420	1.604128	0.927707
O15	O	-0.064086	0.986095	0.531988
O16	O	0.435914	1.486095	1.031988
O17	O	-0.172336	1.202316	0.575739
O18	O	0.327664	1.702316	1.075739
O19	O	-0.068447	1.060490	0.644149
O20	O	0.431553	1.560490	1.144149
O21	O	-0.119917	1.010922	0.408847
O22	O	0.380083	1.510922	0.908847
O23	O	-0.148169	0.862897	0.506989
O24	O	0.351831	1.362897	1.006989
O25	O	-0.221995	0.942135	0.748241
O26	O	0.278005	1.442135	1.248241
O27	O	-0.216239	0.843947	0.600210
O28	O	0.283761	1.343947	1.100210
O29	O	-0.158286	1.035480	0.767182
O30	O	0.341714	1.535480	1.267182
O31	O	-0.256419	1.079118	0.550740
O32	O	0.243581	1.579118	1.050740
O33	O	-0.277825	0.966962	0.625101
O34	O	0.222175	1.466962	1.125101
C35	C	-0.184722	0.825869	0.548017
C36	C	0.315278	1.325869	1.048017
C37	C	-0.192447	0.741460	0.530932
C38	C	0.307553	1.241460	1.030932
C39	C	-0.108022	0.414784	0.717973
C40	C	0.391978	0.914784	1.217973
C41	C	-0.115290	0.335472	0.701904
C42	C	0.384710	0.835472	1.201904
C43	C	-0.159225	0.355111	0.604609
C44	C	0.340775	0.855111	1.104609
C45	C	-0.151962	0.434425	0.620672
C46	C	0.348038	0.934425	1.120672
C47	C	-0.126360	0.464255	0.677354
C48	C	0.373640	0.964255	1.177354
C49	C	-0.170300	0.483896	0.580054
C50	C	0.329700	0.983896	1.080054
C51	C	-0.163036	0.563204	0.596114
C52	C	0.336964	1.063204	1.096114
C53	C	-0.137433	0.593040	0.652791
C54	C	0.362567	1.093040	1.152791
C55	C	-0.119095	0.543563	0.693414
C56	C	0.380905	1.043563	1.193414
C57	C	-0.195899	0.454065	0.523368
C58	C	0.304101	0.954065	1.023368
C59	C	-0.214237	0.503536	0.482750
C60	C	0.285763	1.003536	0.982750
C61	C	-0.206976	0.582845	0.498813
C62	C	0.293024	1.082845	0.998813
C63	C	-0.181374	0.612681	0.555491
C64	C	0.318626	1.112681	1.055491
C65	C	-0.225314	0.632322	0.458190
C66	C	0.274686	1.132322	0.958190
C67	C	-0.218049	0.711630	0.474250
C68	C	0.281951	1.211630	0.974250
C69	C	-0.174109	0.691989	0.571551
C70	C	0.325891	1.191989	1.071551
C71	C	-0.283424	1.023037	0.587929
C72	C	0.216576	1.523037	1.087929
C73	C	-0.333359	1.023046	0.587941
C74	C	0.166641	1.523046	1.087941
C75	C	-0.631838	1.081640	0.549364
C76	C	-0.131838	1.581640	1.049364
C77	C	-0.819506	1.081727	0.549412
C78	C	-0.319506	1.581727	1.049412
O79	O	-0.834284	1.131443	0.516562
O80	O	-0.334284	1.631443	1.016562
N81	N	-0.854130	1.023312	0.588084
N82	N	-0.354130	1.523312	1.088084
C83	C	-0.841835	0.964873	0.626750
C84	C	-0.341835	1.464873	1.126750
O85	O	-0.875591	0.915194	0.659650
O86	O	-0.375591	1.415194	1.159650
C87	C	-0.654167	0.964789	0.626706
C88	C	-0.154167	1.464789	1.126706
C89	C	-0.619545	1.023204	0.588025
C90	C	-0.119545	1.523204	1.088025
C91	C	-0.597216	1.140050	0.510687
C92	C	-0.097216	1.640050	1.010687
C93	C	-0.550302	1.140026	0.510672
C94	C	-0.050302	1.640026	1.010672
C95	C	-0.538009	1.081590	0.549333
C96	C	-0.038009	1.581590	1.049333
C97	C	-0.572631	1.023179	0.588010
C98	C	-0.072631	1.523179	1.088010
C99	C	-0.641873	0.906354	0.665376
C100	C	-0.141873	1.406354	1.165376
C101	C	-0.594952	0.906339	0.665363
C102	C	-0.094952	1.406339	1.165363
C103	C	-0.560330	0.964754	0.626683
C104	C	-0.060330	1.464754	1.126683
C105	C	-0.513423	0.964719	0.626656
C106	C	-0.013423	1.464719	1.126656
N107	N	-0.478799	1.023134	0.587985
N108	N	0.021201	1.523134	1.087985
C109	C	-0.491092	1.081570	0.549323
C110	C	0.008908	1.581570	1.049323
C111	C	-0.940362	0.964921	0.626769
C112	C	-0.440362	1.464921	1.126769
C113	C	-0.987279	0.964941	0.626779
C114	C	-0.487279	1.464941	1.126779
C115	C	-0.964947	1.081796	0.549443
C116	C	-0.464947	1.581796	1.049443
C117	C	-0.918030	1.081772	0.549428
C118	C	-0.418030	1.581772	1.049428
C119	C	-0.905738	1.023336	0.588098
C120	C	-0.405738	1.523336	1.088098
C121	C	-0.392570	1.081513	0.549294
C122	C	0.107430	1.581513	1.049294
C123	C	-0.345652	1.081481	0.549279
C124	C	0.154348	1.581481	1.049279
C125	C	-0.367988	0.964628	0.626619
C126	C	0.132012	1.464628	1.126619
C127	C	-0.414901	0.964658	0.626630
C128	C	0.085099	1.464658	1.126630
C129	C	-0.427190	1.023107	0.587966
C130	C	0.072810	1.523107	1.087966
O131	O	-0.498612	0.915034	0.659497
O132	O	0.001388	1.415034	1.159497
O133	O	-0.457330	1.131252	0.516442
O134	O	0.042670	1.631252	1.016442
C135	C	-0.678752	1.081665	0.549379
C136	C	-0.178752	1.581665	1.049379
C137	C	-0.713374	1.023254	0.588056
C138	C	-0.213374	1.523254	1.088056
C139	C	-0.701081	0.964818	0.626717
C140	C	-0.201081	1.464818	1.126717
C141	C	-0.760290	1.023274	0.588066
C142	C	-0.260290	1.523274	1.088066
C143	C	-0.772583	1.081709	0.549404
C144	C	-0.272583	1.581709	1.049404
C145	C	-0.737959	1.140125	0.510733
C146	C	-0.237959	1.640125	1.010733
C147	C	-0.691045	1.140100	0.510718
C148	C	-0.191045	1.640100	1.010718
C149	C	-0.735704	0.906403	0.665389
C150	C	-0.235704	1.406403	1.165389
C151	C	-0.782618	0.906432	0.665400
C152	C	-0.282618	1.406432	1.165400
C153	C	-0.794911	0.964868	0.626739
C154	C	-0.294911	1.464868	1.126739
C155	C	-0.049509	1.023313	0.588081
C156	C	0.450491	1.523313	1.088081
C157	C	0.000428	1.023376	0.588118
C158	C	0.500428	1.523376	1.088118
C159	C	-0.194053	0.983074	0.786031
C160	C	0.305947	1.483074	1.286031
C161	C	-0.205711	0.965989	0.870423
C162	C	0.294289	1.465989	1.370423
C163	C	-0.148597	1.221234	0.628129
C164	C	0.351403	1.721234	1.128129
C165	C	-0.140885	1.305639	0.645232
C166	C	0.359115	1.805639	1.145232
C167	C	-0.255310	0.893315	0.979509
C168	C	0.244690	1.393315	1.479509
C169	C	-0.244351	0.909374	0.900212
C170	C	0.255649	1.409374	1.400212
C171	C	-0.178016	1.006572	0.919927
C172	C	0.321984	1.506572	1.419927
C173	C	-0.188971	0.990523	0.999228
C174	C	0.311029	1.490523	1.499228
C175	C	-0.227618	0.933893	1.029012
C176	C	0.272382	1.433893	1.529012
C177	C	-0.161278	1.031102	1.048731
C178	C	0.338722	1.531102	1.548731
C179	C	-0.172231	1.015052	1.128025
C180	C	0.327769	1.515052	1.628025
C181	C	-0.210875	0.958423	1.157815
C182	C	0.289125	1.458423	1.657815
C183	C	-0.238570	0.917843	1.108306
C184	C	0.261430	1.417843	1.608306
C185	C	-0.122629	1.087728	1.018944
C186	C	0.377371	1.587728	1.518944
C187	C	-0.094937	1.128306	1.068448
C188	C	0.405063	1.628306	1.568448
C189	C	-0.105891	1.112260	1.147744
C190	C	0.394109	1.612260	1.647744
C191	C	-0.144536	1.055631	1.177534
C192	C	0.355464	1.555631	1.677534
C193	C	-0.078197	1.152840	1.197253
C194	C	0.421803	1.652840	1.697253
C195	C	-0.089149	1.136790	1.276547
C196	C	0.410851	1.636790	1.776547
C197	C	-0.155489	1.039581	1.256828
C198	C	0.344511	1.539581	1.756828
C199	C	-0.139454	1.063091	1.390726
C200	C	0.360546	1.563091	1.890726
C201	C	-0.127796	1.080160	1.306331
C202	C	0.372204	1.580160	1.806331
H203	H	-0.232982	0.751911	0.441175
H204	H	0.267018	1.251911	0.941175
H205	H	-0.266897	0.876311	0.859904
H206	H	0.233103	1.376311	1.359904
Cl207	Cl	-0.054326	1.187783	1.338780
Cl208	Cl	0.445674	1.687783	1.838780
H209	H	-0.219789	0.945351	1.222381
H210	H	0.280211	1.445351	1.722381
H211	H	-0.662858	1.187667	0.479221
H212	H	-0.162858	1.687667	0.979221
Cl213	Cl	-0.191408	0.317602	0.533352
Cl214	Cl	0.308592	0.817602	1.033352
H215	H	-0.317462	1.129050	0.517778
H216	H	0.182538	1.629050	1.017778
Cl217	Cl	-0.287158	0.846654	1.145756
Cl218	Cl	0.212842	1.346654	1.645756
Cl219	Cl	-0.458427	0.891209	0.675239
Cl220	Cl	0.041573	1.391209	1.175239
Cl221	Cl	-0.128296	0.692744	0.672976
Cl222	Cl	0.371704	1.192744	1.172976
Cl223	Cl	-0.029604	1.224008	1.159795
Cl224	Cl	0.470396	1.724008	1.659795
Cl225	Cl	-0.924918	0.891449	0.675385
Cl226	Cl	-0.424918	1.391449	1.175385
H227	H	-0.201801	0.389490	0.510278
H228	H	0.298199	0.889490	1.010278
H229	H	-0.974964	1.129377	0.517963
H230	H	-0.474964	1.629377	1.017963
Cl231	Cl	-0.685388	0.832920	0.714017
Cl232	Cl	-0.185388	1.332920	1.214017
H233	H	-0.235081	0.479238	0.436597
H234	H	0.264919	0.979238	0.936597
Cl235	Cl	-0.141927	0.729495	0.642816
Cl236	Cl	0.358073	1.229495	1.142816
Cl237	Cl	-0.612660	1.213523	0.462078
Cl238	Cl	-0.112660	1.713523	0.962078
H239	H	-0.889842	1.129339	0.517932
H240	H	-0.389842	1.629339	1.017932
Cl241	Cl	-0.086914	0.581068	0.764679
Cl242	Cl	0.413086	1.081068	1.264679
Cl243	Cl	-0.352525	0.891174	0.675224
Cl244	Cl	0.147475	1.391174	1.175224
Cl245	Cl	-1.030798	0.891494	0.675398
Cl246	Cl	-0.530798	1.391494	1.175398
H247	H	-0.286783	0.847206	1.003762
H248	H	0.213217	1.347206	1.503762
H249	H	-0.402569	1.129109	0.517812
H250	H	0.097431	1.629109	1.017812
Cl251	Cl	-0.075840	0.452289	0.789238
Cl252	Cl	0.424160	0.952289	1.289238
Cl253	Cl	-0.092231	0.273282	0.752970
Cl254	Cl	0.407769	0.773282	1.252970
H255	H	-0.246155	0.608023	0.412035
H256	H	0.253845	1.108023	0.912035
H257	H	-0.522114	1.187594	0.479178
H258	H	-0.022114	1.687594	0.979178
H259	H	-0.146548	1.052678	0.895665
H260	H	0.353452	1.552678	1.395665
Cl261	Cl	-0.579504	0.832873	0.713981
Cl262	Cl	-0.079504	1.332873	1.213981
H263	H	-0.747976	1.187704	0.479251
H264	H	-0.247976	1.687704	0.979251
Cl265	Cl	-0.826139	0.832987	0.714031
Cl266	Cl	-0.326139	1.332987	1.214031
H267	H	-0.113714	1.100796	0.954378
H268	H	0.386286	1.600796	1.454378
H269	H	-0.725700	0.858818	0.696873
H270	H	-0.225700	1.358818	1.196873
Cl271	Cl	-0.046346	1.199480	1.030993
Cl272	Cl	0.453654	1.699480	1.530993
Cl273	Cl	-0.204077	0.968392	1.294278
Cl274	Cl	0.295923	1.468392	1.794278
