data_functionalizedCrystal
_audit_creation_method	'MofGen! by Chris Wilmer'
_symmetry_space_group_name_H-M	'P1'
_symmetry_Int_Tables_number	1
_symmetry_cell_setting	triclinic
loop_
_symmetry_equiv_pos_as_xyz
  x,y,z
_cell_length_a	10.654542
_cell_length_b	10.654550
_cell_length_c	9.730223
_cell_angle_alpha	90.000043
_cell_angle_beta	90.008022
_cell_angle_gamma	84.483476
loop_
_atom_site_label
_atom_site_type_symbol
_atom_site_fract_x
_atom_site_fract_y
_atom_site_fract_z
O1	O	-0.176399	-1.667835	-0.114200
O2	O	0.323601	-1.167835	0.385800
O3	O	-0.193205	-1.302356	-0.114226
O4	O	0.306795	-0.802356	0.385774
O5	O	-0.002062	-1.493503	-0.114190
O6	O	0.497938	-0.993503	0.385810
O7	O	-0.367542	-1.476687	-0.114235
O8	O	0.132458	-0.976687	0.385765
O9	O	-0.002057	-1.493490	0.114389
O10	O	0.497943	-0.993490	0.614389
O11	O	-0.193200	-1.302343	0.114354
O12	O	0.306800	-0.802343	0.614354
O13	O	-0.176394	-1.667822	0.114380
O14	O	0.323606	-1.167822	0.614380
Zn15	Zn	-0.184796	-1.485081	0.150659
Zn16	Zn	0.315204	-0.985081	0.650659
Zn17	Zn	-0.184803	-1.485097	-0.150505
Zn18	Zn	0.315197	-0.985097	0.349495
O19	O	-0.367537	-1.476675	0.114345
O20	O	0.132463	-0.976675	0.614345
C21	C	-0.191969	-1.255552	0.000061
C22	C	0.308031	-0.755552	0.500061
C23	C	-0.188277	-1.116108	0.000052
C24	C	0.311723	-0.616108	0.500052
C25	C	0.044738	-1.492264	0.000102
C26	C	0.544738	-0.992264	0.500102
C27	C	0.184182	-1.488575	0.000110
C28	C	0.684182	-0.988575	0.500110
C29	C	-0.177631	-1.714626	0.000090
C30	C	0.322369	-1.214626	0.500090
C31	C	-0.181322	-1.854069	0.000091
C32	C	0.318678	-1.354069	0.500091
C33	C	0.394697	-1.597644	0.000126
C34	C	0.894697	-1.097644	0.500126
C35	C	0.263676	-1.601119	0.000126
C36	C	0.763676	-1.101119	0.500126
C37	C	0.235715	-1.372549	0.000108
C38	C	0.735715	-0.872549	0.500108
C39	C	0.366733	-1.369075	0.000118
C40	C	0.866733	-0.869075	0.500118
C41	C	0.585663	-1.477920	0.000071
C42	C	1.085663	-0.977920	0.500071
C43	C	0.446222	-1.481627	0.000120
C44	C	0.946222	-0.981627	0.500120
N45	N	-0.184791	-1.485079	0.356195
N46	N	0.315209	-0.985079	0.856195
C47	C	-0.300819	-1.036620	0.000042
C48	C	0.199181	-0.536620	0.500042
C49	C	-0.297342	-0.905599	0.000066
C50	C	0.202658	-0.405599	0.500066
C51	C	-0.068772	-0.933568	0.000105
C52	C	0.431228	-0.433568	0.500105
C53	C	-0.072250	-1.064586	0.000090
C54	C	0.427750	-0.564586	0.500090
N55	N	-0.184799	-1.485109	-0.356041
N56	N	0.315201	-0.985109	0.143959
C57	C	-0.100189	-1.569748	0.428137
C58	C	0.399811	-1.069748	0.928137
C59	C	-0.100189	-1.569760	0.572020
C60	C	0.399811	-1.069760	1.072020
C61	C	-0.269405	-1.400431	0.572007
C62	C	0.230595	-0.900431	1.072007
C63	C	-0.269397	-1.400413	0.428127
C64	C	0.230603	-0.900413	0.928127
H65	H	0.459414	-1.689291	0.000128
H66	H	0.959414	-1.189291	0.500128
H67	H	0.221732	-1.695592	0.000133
H68	H	0.721732	-1.195592	0.500133
N69	N	0.149995	-1.251150	0.000089
N70	N	0.649995	-0.751150	0.500089
H71	H	0.166694	-1.200583	0.084823
H72	H	0.666694	-0.700583	0.584823
H73	H	0.059206	-1.271042	0.000027
H74	H	0.559206	-0.771042	0.500027
H75	H	0.408684	-1.274594	0.000120
H76	H	0.908684	-0.774594	0.500120
H77	H	-0.031297	-1.638704	0.630591
H78	H	0.468703	-1.138704	1.130591
H79	H	0.025693	-0.891603	0.000144
H80	H	0.525693	-0.391603	0.500144
H81	H	-0.395295	-1.078564	0.000021
H82	H	0.104705	-0.578564	0.500021
N83	N	-0.418726	-0.819864	0.000132
N84	N	0.081274	-0.319864	0.500132
H85	H	-0.492751	-0.872388	0.000130
H86	H	0.007249	-0.372388	0.500130
H87	H	-0.422306	-0.764850	-0.084573
H88	H	0.077694	-0.264850	0.415427
N89	N	0.049140	-1.150333	0.000117
N90	N	0.549140	-0.650333	0.500117
H91	H	0.123170	-1.097815	0.000136
H92	H	0.623170	-0.597815	0.500136
H93	H	0.052679	-1.205301	-0.084622
H94	H	0.552679	-0.705301	0.415378
N95	N	-0.008938	-1.661059	0.350551
N96	N	0.491062	-1.161059	0.850551
H97	H	0.044658	-1.714696	0.417964
H98	H	0.544658	-1.214696	0.917964
H99	H	0.047037	-1.612495	0.290873
H100	H	0.547037	-1.112495	0.790873
H101	H	-0.338291	-1.331500	0.630588
H102	H	0.161709	-0.831500	1.130588
H103	H	-0.338291	-1.331459	0.369548
H104	H	0.161709	-0.831459	0.869548
