data_functionalizedCrystal
_audit_creation_method	'MofGen! by Chris Wilmer'
_symmetry_space_group_name_H-M	'P1'
_symmetry_Int_Tables_number	1
_symmetry_cell_setting	triclinic
loop_
_symmetry_equiv_pos_as_xyz
  x,y,z
_cell_length_a	16.120530
_cell_length_b	18.101395
_cell_length_c	16.120297
_cell_angle_alpha	92.872690
_cell_angle_beta	90.128140
_cell_angle_gamma	87.126665
loop_
_atom_site_label
_atom_site_type_symbol
_atom_site_fract_x
_atom_site_fract_y
_atom_site_fract_z
Zn1	Zn	1.247384	-0.375190	-0.534565
Zn2	Zn	1.747384	0.124810	-0.034565
Zn3	Zn	1.254317	-0.493082	-0.395508
Zn4	Zn	1.754317	0.006918	0.104492
Zn5	Zn	1.115376	-0.362676	-0.388483
Zn6	Zn	1.615376	0.137324	0.111517
Zn7	Zn	1.108274	-0.492400	-0.527477
Zn8	Zn	1.608274	0.007600	-0.027477
O9	O	1.181338	-0.430837	-0.461508
O10	O	1.681338	0.069163	0.038492
O11	O	1.364669	-0.396351	-0.522025
O12	O	1.864669	0.103649	-0.022025
O13	O	1.241761	-0.470832	-0.278211
O14	O	1.741761	0.029168	0.221789
O15	O	1.132958	-0.260707	-0.407888
O16	O	1.632958	0.239293	0.092112
O17	O	1.369763	-0.482966	-0.419860
O18	O	1.869763	0.017034	0.080140
O19	O	1.229944	-0.269901	-0.515214
O20	O	1.729944	0.230099	-0.015214
O21	O	1.139681	-0.375023	-0.273050
O22	O	1.639681	0.124977	0.226950
O23	O	0.998069	-0.374361	-0.401015
O24	O	1.498069	0.125639	0.098985
O25	O	1.120853	-0.481804	-0.644783
O26	O	1.620853	0.018196	-0.144783
O27	O	0.992851	-0.469669	-0.503133
O28	O	1.492851	0.030331	-0.003133
O29	O	1.223057	-0.395690	-0.649990
O30	O	1.723057	0.104310	-0.149990
O31	O	1.234873	-0.596620	-0.412987
O32	O	1.734873	-0.096620	0.087013
O33	O	1.127576	-0.596119	-0.509945
O34	O	1.627576	-0.096119	-0.009945
C35	C	0.965287	-0.420584	-0.450543
C36	C	1.465287	0.079416	0.049457
C37	C	0.872859	-0.416216	-0.445872
C38	C	1.372859	0.083784	0.054128
C39	C	0.703631	-0.408225	-0.437350
C40	C	1.203631	0.091775	0.062650
C41	C	0.659883	-0.453506	-0.485727
C42	C	1.159883	0.046494	0.014273
C43	C	0.565718	-0.449060	-0.480986
C44	C	1.065718	0.050940	0.019014
C45	C	0.797804	-0.412671	-0.442091
C46	C	1.297804	0.087329	0.057909
C47	C	1.181228	-0.623241	-0.461478
C48	C	1.681228	-0.123241	0.038522
C49	C	1.181256	-0.705558	-0.461497
C50	C	1.681256	-0.205558	0.038503
C51	C	1.181436	-1.004659	-0.461551
C52	C	1.681436	-0.504659	0.038449
C53	C	1.114068	-0.973063	-0.522721
C54	C	1.614068	-0.473063	-0.022721
C55	C	1.113774	-0.887422	-0.522504
C56	C	1.613774	-0.387422	-0.022504
C57	C	1.181346	-0.856271	-0.461525
C58	C	1.681346	-0.356271	0.038475
C59	C	1.162064	-0.882548	-0.372686
C60	C	1.662064	-0.382548	0.127314
C61	C	1.161632	-0.968190	-0.373050
C62	C	1.661632	-0.468190	0.126950
C63	C	1.268265	-0.978132	-0.488456
C64	C	1.768265	-0.478132	0.011544
C65	C	1.267650	-0.892539	-0.490352
C66	C	1.767650	-0.392539	0.009648
C67	C	1.181297	-0.772409	-0.461505
C68	C	1.681297	-0.272409	0.038495
C69	C	1.181483	-1.088521	-0.461565
C70	C	1.681483	-0.588521	0.038435
C71	C	1.398232	-0.441131	-0.472517
C72	C	1.898232	0.058869	0.027483
C73	C	1.490660	-0.445517	-0.477208
C74	C	1.990660	0.054483	0.022792
C75	C	1.170389	-0.440067	-0.678403
C76	C	1.670389	0.059933	-0.178403
C77	C	1.165724	-0.444000	-0.770830
C78	C	1.665724	0.056000	-0.270830
C79	C	1.181470	-0.237683	-0.461558
C80	C	1.681470	0.262317	0.038442
C81	C	1.181526	-0.155373	-0.461579
C82	C	1.681526	0.344627	0.038421
C83	C	1.157175	-0.451163	-0.940055
C84	C	1.657175	0.048837	-0.440055
C85	C	1.205665	-0.410297	-0.983822
C86	C	1.705665	0.089703	-0.483822
C87	C	1.200908	-0.414283	-1.077985
C88	C	1.700908	0.085717	-0.577985
C89	C	1.161931	-0.447178	-0.845884
C90	C	1.661931	0.052822	-0.345884
C91	C	1.192292	-0.421592	-0.245460
C92	C	1.692292	0.078408	0.254540
C93	C	1.197119	-0.417458	-0.153042
C94	C	1.697119	0.082542	0.346958
H95	H	0.693149	-0.495611	-0.530706
H96	H	1.193149	0.004389	-0.030706
H97	H	1.112094	-0.489140	-0.973300
H98	H	1.612094	0.010860	-0.473300
H99	H	1.209784	-0.862211	-0.325672
H100	H	1.709784	-0.362211	0.174328
H101	H	0.670367	-0.366124	-0.392376
H102	H	1.170367	0.133876	0.107624
H103	H	1.125322	-0.869842	-0.588238
H104	H	1.625322	-0.369842	-0.088238
H105	H	1.125459	-0.997097	-0.588658
H106	H	1.625459	-0.497097	-0.088658
H107	H	1.050005	-0.990950	-0.504755
H108	H	1.550005	-0.490950	-0.004755
H109	H	1.049324	-0.863273	-0.504331
H110	H	1.549324	-0.363273	-0.004331
H111	H	1.098292	-0.984372	-0.350776
H112	H	1.598292	-0.484372	0.149224
H113	H	1.099423	-0.857320	-0.350105
H114	H	1.599423	-0.357320	0.149895
H115	H	1.208812	-0.988900	-0.325680
H116	H	1.708812	-0.488900	0.174320
H117	H	1.286711	-1.003393	-0.552368
H118	H	1.786711	-0.503393	-0.052368
H119	H	1.282271	-0.875783	-0.555755
H120	H	1.782271	-0.375783	-0.055755
H121	H	1.320141	-0.871648	-0.449401
H122	H	1.820141	-0.371648	0.050599
H123	H	1.318402	-0.998637	-0.443958
H124	H	1.818402	-0.498637	0.056042
H125	H	1.250750	-0.372317	-0.950575
H126	H	1.750750	0.127683	-0.450575
