data_functionalizedCrystal
_audit_creation_method	'MofGen! by Chris Wilmer'
_symmetry_space_group_name_H-M	'P1'
_symmetry_Int_Tables_number	1
_symmetry_cell_setting	triclinic
loop_
_symmetry_equiv_pos_as_xyz
  x,y,z
_cell_length_a	11.169417
_cell_length_b	21.295417
_cell_length_c	11.169409
_cell_angle_alpha	90.041341
_cell_angle_beta	90.020564
_cell_angle_gamma	90.031386
loop_
_atom_site_label
_atom_site_type_symbol
_atom_site_fract_x
_atom_site_fract_y
_atom_site_fract_z
Zn1	Zn	1.834803	-0.250544	0.678467
Zn2	Zn	2.168136	0.082789	1.011800
Zn3	Zn	2.501470	0.416123	1.345134
Zn4	Zn	1.834619	-0.355832	0.477752
Zn5	Zn	2.167952	-0.022499	0.811086
Zn6	Zn	2.501286	0.310835	1.144419
Zn7	Zn	1.634086	-0.250582	0.477802
Zn8	Zn	1.967420	0.082751	0.811135
Zn9	Zn	2.300753	0.416085	1.144468
Zn10	Zn	1.634026	-0.355781	0.678397
Zn11	Zn	1.967359	-0.022447	1.011730
Zn12	Zn	2.300692	0.310886	1.345064
O13	O	1.734383	-0.303185	0.578105
O14	O	2.067717	0.030149	0.911438
O15	O	2.401050	0.363482	1.244771
O16	O	2.002728	-0.264516	0.651851
O17	O	2.336062	0.068817	0.985184
O18	O	2.669395	0.402151	1.318517
O19	O	1.807966	-0.341908	0.309809
O20	O	2.141300	-0.008574	0.643142
O21	O	2.474633	0.324759	0.976476
O22	O	1.660814	-0.162488	0.504470
O23	O	1.994147	0.170846	0.837803
O24	O	2.327481	0.504179	1.171137
O25	O	2.002593	-0.341871	0.504386
O26	O	2.335926	-0.008537	0.837720
O27	O	2.669260	0.324796	1.171053
O28	O	1.808280	-0.162460	0.651898
O29	O	2.141613	0.170874	0.985232
O30	O	2.474946	0.504207	1.318565
O31	O	1.660636	-0.264581	0.309845
O32	O	1.993969	0.068752	0.643178
O33	O	2.327302	0.402086	0.976512
O34	O	1.466128	-0.264532	0.504402
O35	O	1.799462	0.068802	0.837736
O36	O	2.132795	0.402135	1.171069
O37	O	1.660711	-0.341783	0.846356
O38	O	1.994044	-0.008450	1.179690
O39	O	2.327377	0.324883	1.513023
O40	O	1.466084	-0.341821	0.651779
O41	O	1.799417	-0.008487	0.985112
O42	O	2.132751	0.324846	1.318446
O43	O	1.808221	-0.264466	0.846408
O44	O	2.141554	0.068867	1.179741
O45	O	2.474888	0.402200	1.513074
O46	O	1.807908	-0.443915	0.504318
O47	O	2.141241	-0.110581	0.837652
O48	O	2.474574	0.222752	1.170985
O49	O	1.660533	-0.443877	0.651731
O50	O	1.993866	-0.110544	0.985065
O51	O	2.327199	0.222790	1.318398
C52	C	1.422559	-0.303175	0.578089
C53	C	1.755892	0.030158	0.911422
C54	C	2.089225	0.363492	1.244756
C55	C	1.289159	-0.303186	0.578111
C56	C	1.622492	0.030147	0.911444
C57	C	1.955825	0.363480	1.244778
C58	C	1.734226	-0.466736	0.578038
C59	C	2.067559	-0.133403	0.911371
C60	C	2.400893	0.199930	1.244705
C61	C	1.734269	-0.536704	0.578050
C62	C	2.067602	-0.203371	0.911383
C63	C	2.400935	0.129962	1.244716
C64	C	1.811075	-0.569570	0.501371
C65	C	2.144408	-0.236236	0.834704
C66	C	2.477742	0.097097	1.168037
C67	C	1.811131	-0.635312	0.501398
C68	C	2.144465	-0.301979	0.834731
C69	C	2.477798	0.031354	1.168064
C70	C	1.734360	-0.668187	0.578091
C71	C	2.067693	-0.334854	0.911424
C72	C	2.401026	-0.001520	1.244758
C73	C	1.657548	-0.635314	0.654785
C74	C	1.990881	-0.301980	0.988119
C75	C	2.324215	0.031353	1.321452
C76	C	1.657502	-0.569572	0.654765
C77	C	1.990836	-0.236239	0.988098
C78	C	2.324169	0.097094	1.321431
N79	N	1.629370	-0.771453	0.587235
N80	N	1.962703	-0.438119	0.920569
N81	N	2.296036	-0.104786	1.253902
N82	N	1.629416	-0.833904	0.587248
N83	N	1.962750	-0.500571	0.920581
N84	N	2.296083	-0.167237	1.253915
C85	C	1.734494	-0.866262	0.578160
C86	C	2.067827	-0.532928	0.911493
C87	C	2.401161	-0.199595	1.244827
N88	N	1.839526	-0.833808	0.569035
N89	N	2.172859	-0.500475	0.902368
N90	N	2.506192	-0.167142	1.235702
N91	N	1.839478	-0.771351	0.569016
N92	N	2.172811	-0.438018	0.902350
N93	N	2.506144	-0.104684	1.235683
C94	C	1.734401	-0.739472	0.578123
C95	C	2.067734	-0.406139	0.911456
C96	C	2.401068	-0.072806	1.244789
C97	C	1.811368	-0.970412	0.501506
C98	C	2.144701	-0.637079	0.834839
C99	C	2.478035	-0.303746	1.168173
C100	C	1.811426	-1.036156	0.501541
C101	C	2.144760	-0.702823	0.834875
C102	C	2.478093	-0.369489	1.168208
C103	C	1.657832	-1.036156	0.654923
C104	C	1.991166	-0.702823	0.988256
C105	C	2.324499	-0.369490	1.321589
C106	C	1.657785	-0.970414	0.654894
C107	C	1.991118	-0.637080	0.988227
C108	C	2.324451	-0.303747	1.321560
C109	C	1.734551	-0.937546	0.578179
C110	C	2.067884	-0.604212	0.911512
C111	C	2.401218	-0.270879	1.244845
C112	C	2.047426	-0.303195	0.578121
C113	C	2.380759	0.030139	0.911454
C114	C	2.714092	0.363472	1.244787
C115	C	2.180826	-0.303199	0.578128
C116	C	2.514159	0.030134	0.911461
C117	C	2.847492	0.363468	1.244794
C118	C	1.734480	-0.303115	0.891147
C119	C	2.067813	0.030218	1.224480
C120	C	2.401146	0.363552	1.557814
C121	C	1.734521	-0.303085	1.024547
C122	C	2.067854	0.030248	1.357881
C123	C	2.401187	0.363581	1.691214
C124	C	1.734574	-0.138994	0.578198
C125	C	2.067907	0.194339	0.911531
C126	C	2.401241	0.527672	1.244864
C127	C	1.734655	-0.069026	0.578237
C128	C	2.067989	0.264307	0.911570
C129	C	2.401322	0.597640	1.244904
C130	C	1.734357	-0.303209	0.266280
C131	C	2.067690	0.030125	0.599613
C132	C	2.401023	0.363458	0.932946
C133	C	1.734548	-0.303061	0.132880
C134	C	2.067882	0.030272	0.466214
C135	C	2.401215	0.363606	0.799547
H136	H	1.873585	-0.542810	0.438908
H137	H	2.206919	-0.209477	0.772241
H138	H	2.540252	0.123856	1.105574
H139	H	1.595042	-0.662084	0.717232
H140	H	1.928375	-0.328751	1.050565
H141	H	2.261709	0.004582	1.383899
H142	H	1.594956	-0.542813	0.717208
H143	H	1.928290	-0.209480	1.050541
H144	H	2.261623	0.123854	1.383874
H145	H	1.873880	-0.943650	0.439044
H146	H	2.207213	-0.610317	0.772377
H147	H	2.540546	-0.276983	1.105710
Br148	Br	1.915686	-1.080761	0.397479
Br149	Br	2.249019	-0.747427	0.730813
Br150	Br	2.582352	-0.414094	1.064146
H151	H	1.595329	-1.062922	0.717374
H152	H	1.928662	-0.729589	1.050707
H153	H	2.261995	-0.396256	1.384040
Br154	Br	1.553539	-0.925808	0.758962
Br155	Br	1.886872	-0.592474	1.092295
Br156	Br	2.220205	-0.259141	1.425628
H157	H	1.873681	-0.662076	0.438956
H158	H	2.207014	-0.328743	0.772290
H159	H	2.540347	0.004590	1.105623
