data_functionalizedCrystal
_audit_creation_method	'MofGen! by Chris Wilmer'
_symmetry_space_group_name_H-M	'P1'
_symmetry_Int_Tables_number	1
_symmetry_cell_setting	triclinic
loop_
_symmetry_equiv_pos_as_xyz
  x,y,z
_cell_length_a	10.489716
_cell_length_b	10.489741
_cell_length_c	9.616153
_cell_angle_alpha	89.998052
_cell_angle_beta	89.993488
_cell_angle_gamma	84.534155
loop_
_atom_site_label
_atom_site_type_symbol
_atom_site_fract_x
_atom_site_fract_y
_atom_site_fract_z
O1	O	1.694077	0.179814	-0.115634
O2	O	1.322877	0.196739	-0.115639
O3	O	1.516923	0.002678	-0.115628
O4	O	1.500030	0.373875	-0.115645
O5	O	1.516897	0.002682	0.115664
O6	O	1.322850	0.196743	0.115653
O7	O	1.694050	0.179818	0.115658
Zn8	Zn	1.508446	0.188281	0.152378
Zn9	Zn	1.508481	0.188276	-0.152359
O10	O	1.500004	0.373879	0.115647
C11	C	1.275332	0.195470	0.000006
C12	C	1.133701	0.191665	0.000004
C13	C	1.036027	0.310669	-0.000004
C14	C	0.958667	0.247787	0.114044
C15	C	0.958700	0.247755	-0.113992
C16	C	1.058207	0.128832	0.114146
C17	C	1.058245	0.128817	-0.113991
C18	C	0.980935	0.065848	0.000085
C19	C	1.515634	-0.044852	0.000017
C20	C	1.511817	-0.186481	0.000014
C21	C	1.388351	-0.254610	0.000003
C22	C	1.446662	-0.346736	0.114042
C23	C	1.446718	-0.346714	-0.113993
C24	C	1.570179	-0.276741	0.114148
C25	C	1.570217	-0.276710	-0.113990
C26	C	1.628618	-0.368808	0.000078
C27	C	1.741596	0.181087	0.000010
C28	C	1.883227	0.184892	0.000002
C29	C	1.501293	0.421409	-0.000001
C30	C	1.505110	0.563038	-0.000008
N31	N	1.508431	0.188284	0.360352
N32	N	1.508506	0.188263	-0.360333
C33	C	1.404312	0.291746	0.580716
C34	C	1.404541	0.292133	0.419549
C35	C	1.641801	0.218567	0.418802
C36	C	1.641234	0.219300	0.580020
C37	C	1.480508	0.054200	0.580269
C38	C	1.477447	0.055069	0.419043
H39	H	1.101752	0.078617	-0.210409
H40	H	1.422539	0.391596	0.380965
O41	O	1.109653	0.068854	0.229340
C42	C	1.011265	0.023286	0.309926
H43	H	0.924947	0.010979	0.240894
H44	H	1.046966	-0.072894	0.357970
H45	H	0.982322	0.094923	0.396077
O46	O	0.952010	-0.057806	0.000232
C47	C	1.066130	-0.140510	0.001391
H48	H	1.147173	-0.087814	0.045720
H49	H	1.052429	-0.227645	0.068669
H50	H	1.091069	-0.172947	-0.109275
H51	H	0.915228	0.298014	-0.210396
H52	H	1.666831	0.315271	0.378407
O53	O	1.632515	-0.240198	0.229343
C54	C	1.672500	-0.349010	0.309920
H55	H	1.680102	-0.437754	0.240880
H56	H	1.769962	-0.336904	0.357962
H57	H	1.599770	-0.360362	0.396072
O58	O	1.267229	-0.195414	0.000376
C59	C	1.202586	-0.230919	0.120823
H60	H	1.275499	-0.263651	0.204445
H61	H	1.137754	-0.145276	0.160621
H62	H	1.142235	-0.312537	0.094801
H63	H	1.379333	0.032115	0.380842
H64	H	1.394409	-0.377741	0.210453
H65	H	1.721230	0.145254	0.380454
O66	O	1.749848	-0.427736	0.000395
C67	C	1.814441	-0.392026	0.120772
H68	H	1.741501	-0.359420	0.204429
H69	H	1.879471	-0.477522	0.160573
H70	H	1.874580	-0.310261	0.094655
H71	H	0.915174	0.298025	0.210456
O72	O	1.632316	-0.239706	-0.229150
C73	C	1.566924	-0.275005	-0.349157
H74	H	1.462829	-0.286218	-0.321836
H75	H	1.570757	-0.197640	-0.431909
H76	H	1.614308	-0.369696	-0.390766
O77	O	1.384221	-0.383497	-0.228974
C78	C	1.257576	-0.324821	-0.228518
H79	H	1.252277	-0.234670	-0.161753
H80	H	1.227258	-0.298204	-0.339423
H81	H	1.190785	-0.394138	-0.184013
H82	H	1.665718	0.317108	0.617604
H83	H	1.385309	0.025379	0.621007
O84	O	1.562124	-0.041061	0.370911
C85	C	1.651620	0.010264	0.282631
H86	H	1.656630	0.115733	0.308467
H87	H	1.749961	-0.044074	0.298260
H88	H	1.620642	0.000636	0.169784
H89	H	1.305445	0.273911	0.380033
O90	O	1.285815	0.270209	0.627200
C91	C	1.295332	0.161176	0.713684
H92	H	1.396557	0.144767	0.757457
H93	H	1.223951	0.176667	0.802891
H94	H	1.273182	0.073928	0.650640
O95	O	1.736500	0.132715	0.626398
C96	C	1.715746	0.009749	0.577272
H97	H	1.653197	0.019123	0.480188
H98	H	1.811603	-0.045379	0.550768
H99	H	1.665657	-0.043931	0.661134
O100	O	1.425317	0.409732	0.629174
C101	C	1.317606	0.461272	0.705279
H102	H	1.261737	0.380209	0.743936
H103	H	1.350464	0.517499	0.797949
H104	H	1.253522	0.527784	0.635496
O105	O	1.065640	0.434102	0.000300
C106	C	1.138740	0.455910	0.119504
H107	H	1.187624	0.360962	0.158681
H108	H	1.214410	0.522901	0.092079
H109	H	1.073300	0.501501	0.204142
H110	H	1.556477	-0.022823	0.618390
