data_functionalizedCrystal
_audit_creation_method	'MofGen! by Chris Wilmer'
_symmetry_space_group_name_H-M	'P1'
_symmetry_Int_Tables_number	1
_symmetry_cell_setting	triclinic
loop_
_symmetry_equiv_pos_as_xyz
  x,y,z
_cell_length_a	13.101039
_cell_length_b	16.992694
_cell_length_c	16.992695
_cell_angle_alpha	90.668223
_cell_angle_beta	93.591022
_cell_angle_gamma	86.418263
loop_
_atom_site_label
_atom_site_type_symbol
_atom_site_fract_x
_atom_site_fract_y
_atom_site_fract_z
O1	O	0.085087	-1.054903	-0.162849
O2	O	0.585087	-0.554903	0.337151
O3	O	0.085117	-0.826504	-0.161017
O4	O	0.585117	-0.326504	0.338983
O5	O	0.085094	-0.939787	-0.047733
O6	O	0.585094	-0.439787	0.452267
O7	O	0.085110	-0.941619	-0.276133
O8	O	0.585110	-0.441619	0.223867
O9	O	-0.085335	-0.931660	-0.055876
O10	O	0.414665	-0.431660	0.444124
O11	O	-0.085311	-0.818377	-0.169159
O12	O	0.414689	-0.318377	0.330841
O13	O	-0.085342	-1.046776	-0.170992
O14	O	0.414658	-0.546776	0.329008
Zn15	Zn	-0.112386	-0.931286	-0.171368
Zn16	Zn	0.387614	-0.431286	0.328632
Zn17	Zn	0.112161	-0.941994	-0.160640
Zn18	Zn	0.612161	-0.441994	0.339360
O19	O	-0.085319	-0.933492	-0.284275
O20	O	0.414681	-0.433492	0.215725
C21	C	-0.000094	-0.793081	-0.162732
C22	C	0.499906	-0.293081	0.337268
C23	C	-0.000082	-0.705597	-0.155703
C24	C	0.499918	-0.205597	0.344297
N25	N	-0.265633	-0.923984	-0.178689
N26	N	0.234367	-0.423984	0.321311
C27	C	-0.000129	-1.080199	-0.169276
C28	C	0.499871	-0.580199	0.330724
C29	C	-0.000134	-1.167684	-0.176305
C30	C	0.499866	-0.667684	0.323695
C31	C	-0.474673	-0.914050	-0.188658
C32	C	0.025327	-0.414050	0.311342
C33	C	-0.525558	-0.959233	-0.143347
C34	C	-0.025558	-0.459233	0.356653
C35	C	-0.641876	-0.953706	-0.148894
C36	C	-0.141876	-0.453706	0.351106
C37	C	-0.358345	-0.919576	-0.183112
C38	C	0.141655	-0.419576	0.316888
N39	N	0.265408	-0.949302	-0.153313
N40	N	0.765408	-0.449302	0.346687
C41	C	-0.000120	-0.933368	-0.022444
C42	C	0.499880	-0.433368	0.477556
C43	C	-0.000119	-0.926339	0.065040
C44	C	0.499881	-0.426339	0.565040
C45	C	-0.000078	-0.659606	-0.223520
C46	C	0.499922	-0.159606	0.276480
C47	C	-0.000093	-0.577404	-0.216912
C48	C	0.499907	-0.077404	0.283088
C49	C	-0.000104	-0.541196	-0.142485
C50	C	0.499896	-0.041196	0.357515
C51	C	-0.000111	-0.587192	-0.074662
C52	C	0.499889	-0.087192	0.425338
C53	C	-0.000104	-0.669392	-0.081272
C54	C	0.499896	-0.169392	0.418728
C55	C	-0.000133	-0.295880	-0.115092
C56	C	0.499867	0.204120	0.384908
C57	C	-0.000138	-0.213674	-0.108488
C58	C	0.499862	0.286326	0.391512
C59	C	-0.000121	-0.203892	-0.250738
C60	C	0.499879	0.296108	0.249262
C61	C	-0.000108	-0.286094	-0.257341
C62	C	0.499892	0.213906	0.242659
C63	C	-0.000120	-0.332083	-0.189518
C64	C	0.499880	0.167917	0.310482
N65	N	-0.000116	-0.457173	-0.135728
N66	N	0.499884	0.042827	0.364272
N67	N	-0.000116	-0.416104	-0.196276
N68	N	0.499884	0.083896	0.303724
C69	C	-0.000103	-0.939912	-0.309564
C70	C	0.499897	-0.439912	0.190436
C71	C	-0.000097	-0.946941	-0.397048
C72	C	0.499903	-0.446941	0.102952
C73	C	-0.000129	-0.994157	0.111031
C74	C	0.499871	-0.494157	0.611031
C75	C	-0.000118	-0.987549	0.193232
C76	C	0.499882	-0.487549	0.693232
C77	C	-0.000105	-0.913122	0.229441
C78	C	0.499895	-0.413122	0.729441
C79	C	-0.000092	-0.845299	0.183445
C80	C	0.499908	-0.345299	0.683445
C81	C	-0.000095	-0.851909	0.101245
C82	C	0.499905	-0.351909	0.601245
C83	C	-0.000087	-0.885728	0.474756
C84	C	0.499913	-0.385728	0.974756
C85	C	-0.000087	-0.879123	0.556961
C86	C	0.499913	-0.379123	1.056961
C87	C	-0.000112	-1.021373	0.566743
C88	C	0.499888	-0.521373	1.066743
C89	C	-0.000121	-1.027976	0.484542
C90	C	0.499879	-0.527976	0.984542
C91	C	-0.000102	-0.960154	0.438553
C92	C	0.499898	-0.460154	0.938553
N93	N	-0.000097	-0.906365	0.313464
N94	N	0.499903	-0.406365	0.813464
N95	N	-0.000103	-0.966912	0.354532
N96	N	0.499897	-0.466912	0.854532
H97	H	-0.481765	-1.002068	-0.100391
H98	H	0.018235	-0.502068	0.399609
H99	H	-0.000113	-0.166439	-0.305955
H100	H	0.499887	0.333561	0.194045
H101	H	-0.518462	-0.871219	-0.231612
H102	H	-0.018462	-0.371219	0.268388
O103	O	0.000018	-1.087315	0.611341
O104	O	0.500018	-0.587315	1.111341
C105	C	0.088337	-1.211059	0.649102
C106	C	0.588337	-0.711059	1.149102
C107	C	0.088299	-1.136424	0.598540
C108	C	0.588299	-0.636424	1.098540
H109	H	0.159715	-1.250776	0.638783
H110	H	0.659715	-0.750776	1.138783
H111	H	0.017058	-1.244091	0.631941
H112	H	0.517058	-0.744091	1.131941
H113	H	0.088293	-1.193533	0.714064
H114	H	0.588293	-0.693533	1.214064
H115	H	0.088379	-1.153882	0.533565
H116	H	0.588379	-0.653882	1.033565
H117	H	0.159572	-1.103410	0.615768
H118	H	0.659572	-0.603410	1.115768
H119	H	-0.000072	-0.830502	0.437321
H120	H	0.499928	-0.330502	0.937321
H121	H	-0.000146	-1.054763	0.081556
H122	H	0.499854	-0.554763	0.581556
H123	H	-0.000068	-0.689081	-0.284127
H124	H	0.499932	-0.189081	0.215873
O125	O	-0.000181	-1.053504	0.237787
O126	O	0.499819	-0.553504	0.737787
C127	C	-0.000160	-1.195296	0.238817
C128	C	0.499840	-0.695296	0.738817
C129	C	-0.000113	-1.120661	0.188264
C130	C	0.499887	-0.620661	0.688264
H131	H	-0.000083	-1.249612	0.198800
H132	H	0.499917	-0.749612	0.698800
H133	H	-0.071499	-1.192406	0.274124
H134	H	0.428501	-0.692406	0.774124
H135	H	0.071149	-1.199121	0.280966
H136	H	0.571149	-0.699121	0.780966
H137	H	-0.071373	-1.116790	0.146071
H138	H	0.428627	-0.616790	0.646071
H139	H	0.071274	-1.123583	0.153011
H140	H	0.571274	-0.623583	0.653011
H141	H	-0.000088	-0.539962	-0.272137
H142	H	0.499912	-0.039962	0.227863
H143	H	-0.000106	-0.706837	-0.026047
H144	H	0.499894	-0.206837	0.473953
H145	H	-0.000144	-0.333315	-0.059866
H146	H	0.499856	0.166685	0.440134
H147	H	-0.000132	-1.088582	0.455066
H148	H	0.499868	-0.588582	0.955066
O149	O	0.000108	-0.321299	-0.329618
O150	O	0.500108	0.178701	0.170382
C151	C	0.088454	-0.412627	-0.415390
C152	C	0.588454	0.087373	0.084610
C153	C	0.088325	-0.372808	-0.333510
C154	C	0.588325	0.127192	0.166490
H155	H	0.159759	-0.454294	-0.418558
H156	H	0.659759	0.045706	0.081442
H157	H	0.088532	-0.365660	-0.462746
H158	H	0.588532	0.134340	0.037254
H159	H	0.017115	-0.447449	-0.425468
H160	H	0.517115	0.052551	0.074532
H161	H	0.159653	-0.337990	-0.323357
H162	H	0.659653	0.162010	0.176643
H163	H	0.088194	-0.419813	-0.286198
H164	H	0.588194	0.080187	0.213802
O165	O	-0.000014	-0.178594	-0.036136
O166	O	0.499986	0.321406	0.463864
C167	C	0.088294	-0.165959	0.091669
C168	C	0.588294	0.334041	0.591669
C169	C	0.088265	-0.205760	0.009776
C170	C	0.588265	0.294240	0.509776
H171	H	0.159672	-0.187895	0.128806
H172	H	0.659672	0.312105	0.628806
H173	H	0.017014	-0.181154	0.122091
H174	H	0.517014	0.318846	0.622091
H175	H	0.088248	-0.099310	0.084713
H176	H	0.588248	0.400690	0.584713
H177	H	0.088348	-0.272416	0.016661
H178	H	0.588348	0.227584	0.516661
H179	H	0.159540	-0.190501	-0.020617
H180	H	0.659540	0.309499	0.479383
O181	O	-0.000030	-0.772942	0.218491
O182	O	0.499970	-0.272942	0.718491
C183	C	-0.000064	-0.632545	0.200104
C184	C	0.499936	-0.132545	0.700104
C185	C	-0.000108	-0.714443	0.160316
C186	C	0.499892	-0.214443	0.660316
H187	H	-0.000149	-0.585226	0.153086
H188	H	0.499851	-0.085226	0.653086
H189	H	0.071278	-0.629247	0.241722
H190	H	0.571278	-0.129247	0.741722
H191	H	-0.071370	-0.622533	0.234964
H192	H	0.428630	-0.122533	0.734964
H193	H	0.071149	-0.724509	0.125415
H194	H	0.571149	-0.224509	0.625415
H195	H	-0.071498	-0.717702	0.118743
H196	H	0.428502	-0.217702	0.618743
H197	H	-0.000135	-0.557704	-0.014063
H198	H	0.499865	-0.057704	0.485937
O199	O	-0.000018	-0.806763	0.592012
O200	O	0.499982	-0.306763	1.092012
C201	C	-0.000031	-0.666365	0.573639
C202	C	0.499969	-0.166365	1.073639
C203	C	-0.000086	-0.748259	0.533843
C204	C	0.499914	-0.248259	1.033843
H205	H	-0.000108	-0.619041	0.526626
H206	H	0.499892	-0.119041	1.026626
H207	H	0.071312	-0.663076	0.615258
H208	H	0.571312	-0.163076	1.115258
H209	H	-0.071336	-0.656350	0.608499
H210	H	0.428664	-0.156350	1.108499
H211	H	0.071170	-0.758327	0.498941
H212	H	0.571170	-0.258327	0.998941
H213	H	-0.071477	-0.751508	0.492269
H214	H	0.428523	-0.251508	0.992269
H215	H	-0.000087	-0.796684	0.063800
H216	H	0.499913	-0.296684	0.563800
