data_functionalizedCrystal
_audit_creation_method	'MofGen! by Chris Wilmer'
_symmetry_space_group_name_H-M	'P1'
_symmetry_Int_Tables_number	1
_symmetry_cell_setting	triclinic
loop_
_symmetry_equiv_pos_as_xyz
  x,y,z
_cell_length_a	8.497365
_cell_length_b	19.805407
_cell_length_c	19.805405
_cell_angle_alpha	89.973590
_cell_angle_beta	90.057082
_cell_angle_gamma	89.964663
loop_
_atom_site_label
_atom_site_type_symbol
_atom_site_fract_x
_atom_site_fract_y
_atom_site_fract_z
Zn1	Zn	-0.892013	1.034841	0.269293
Zn2	Zn	-0.628189	1.034725	0.382537
Zn3	Zn	-0.628227	0.921625	0.269367
Zn4	Zn	-0.891908	0.921619	0.382446
O5	O	-0.760084	0.978202	0.325911
O6	O	-0.857044	1.129542	0.284322
O7	O	-0.407431	1.019675	0.367593
O8	O	-0.663278	0.936694	0.174640
O9	O	-0.663214	1.129457	0.367522
O10	O	-0.857081	1.019874	0.174586
O11	O	-0.407459	0.936581	0.284448
O12	O	-0.663177	0.826907	0.284360
O13	O	-1.112685	0.936685	0.367367
O14	O	-0.856902	0.826903	0.367438
O15	O	-1.112762	1.019868	0.284234
O16	O	-0.663112	1.019670	0.477241
O17	O	-0.856866	0.936572	0.477174
C18	C	-0.760033	0.802346	0.325898
C19	C	-0.760049	0.727114	0.325908
C20	C	-0.860758	0.691786	0.369233
C21	C	-0.860781	0.621097	0.369234
C22	C	-0.760084	0.585739	0.325914
C23	C	-0.659370	0.621072	0.282585
C24	C	-0.659357	0.691759	0.282581
C25	C	-0.659422	0.335999	0.282600
C26	C	-0.659440	0.265307	0.282609
C27	C	-0.860846	0.265337	0.369253
C28	C	-0.860833	0.336024	0.369249
C29	C	-0.760125	0.371351	0.325918
C30	C	-0.760105	0.448000	0.325916
C31	C	-0.760096	0.509092	0.325918
C32	C	-0.760008	0.978126	0.501767
C33	C	-0.760028	0.978156	0.576999
C34	C	-0.350204	0.978153	0.325984
C35	C	-0.171561	0.978250	0.325845
C36	C	-0.760136	1.154745	0.325924
C37	C	-0.760159	1.229977	0.325930
C38	C	-0.760195	0.978297	0.149368
C39	C	-0.760243	0.978338	0.074136
C40	C	-0.659246	1.021467	0.612355
C41	C	-0.659281	1.021496	0.683043
C42	C	-0.760091	0.978209	0.718374
C43	C	-0.860884	0.934896	0.683013
C44	C	-0.860856	0.934871	0.612326
C45	C	-0.861001	0.934996	0.968086
C46	C	-0.861018	0.935023	1.038778
C47	C	-0.659426	1.021620	1.038804
C48	C	-0.659398	1.021595	0.968117
C49	C	-0.760196	0.978285	0.932761
C50	C	-0.760159	0.978255	0.856113
C51	C	-0.760121	0.978235	0.795021
H52	H	-0.942825	0.364810	0.404527
N53	N	-0.550718	1.068345	1.076932
H54	H	-0.437975	1.057840	1.064694
H55	H	-0.566159	1.061779	1.127062
N56	N	-0.550672	1.068284	0.930010
H57	H	-0.486836	1.095729	0.963135
H58	H	-0.614960	1.099585	0.900626
N59	N	-0.969387	0.582996	0.415971
H60	H	-1.042634	0.553701	0.388500
H61	H	-1.033053	0.616167	0.443406
N62	N	-0.969749	0.888331	1.076887
H63	H	-1.033602	0.860891	1.043765
H64	H	-1.042817	0.915885	1.106160
H65	H	-0.942853	0.236565	0.404533
N66	N	-0.550826	0.227167	0.235883
H67	H	-0.487028	0.260273	0.208431
H68	H	-0.615188	0.197868	0.204590
H69	H	-0.577408	0.364754	0.247322
N70	N	-0.550574	1.068209	0.721175
H71	H	-0.477425	1.040723	0.750565
H72	H	-0.614876	1.099571	0.750404
N73	N	-0.550526	1.068158	0.574249
H74	H	-0.477342	1.040654	0.544979
H75	H	-0.486796	1.095593	0.607417
N76	N	-0.969699	0.888279	0.929958
H77	H	-1.033554	0.860859	0.963068
H78	H	-0.905396	0.856956	0.900688
N79	N	-0.550730	0.582939	0.235872
H80	H	-0.566001	0.532798	0.242455
H81	H	-0.438028	0.595268	0.246383
N82	N	-0.550746	0.729867	0.235848
H83	H	-0.486957	0.696743	0.208405
H84	H	-0.477614	0.759166	0.263368
N85	N	-0.969622	0.888210	0.721116
H86	H	-0.954345	0.894795	0.771261
H87	H	-0.944956	0.839869	0.708809
H88	H	-0.942924	0.899604	0.583539
H89	H	-0.942752	0.720570	0.404511
