data_functionalizedCrystal
_audit_creation_method	'MofGen! by Chris Wilmer'
_symmetry_space_group_name_H-M	'P1'
_symmetry_Int_Tables_number	1
_symmetry_cell_setting	triclinic
loop_
_symmetry_equiv_pos_as_xyz
  x,y,z
_cell_length_a	19.188929
_cell_length_b	19.188900
_cell_length_c	10.065918
_cell_angle_alpha	80.103540
_cell_angle_beta	80.135156
_cell_angle_gamma	83.138633
loop_
_atom_site_label
_atom_site_type_symbol
_atom_site_fract_x
_atom_site_fract_y
_atom_site_fract_z
O1	O	-0.096177	-0.935320	0.113834
O2	O	-0.107929	-0.732002	0.113787
O3	O	-0.000390	-0.839521	0.113727
O4	O	-0.203716	-0.827800	0.113893
O5	O	0.017779	-0.821242	-0.113281
O6	O	-0.089761	-0.713722	-0.113221
O7	O	-0.078008	-0.917040	-0.113175
Zn8	Zn	-0.081000	-0.812479	-0.149241
Zn9	Zn	-0.104937	-0.836563	0.149853
O10	O	-0.185547	-0.809521	-0.113115
C11	C	-0.098467	-0.696850	0.000275
C12	C	-0.097333	-0.619343	0.000253
C13	C	-0.106693	-0.592915	0.123997
C14	C	-0.105622	-0.520092	0.124010
C15	C	-0.095177	-0.473701	0.000272
C16	C	-0.085820	-0.500136	-0.123488
C17	C	-0.086898	-0.572957	-0.123498
N18	N	-0.046377	-0.357263	-0.091851
N19	N	-0.045352	-0.288087	-0.091834
C20	C	-0.091930	-0.254296	0.000293
N21	N	-0.139564	-0.292296	0.092423
N22	N	-0.140586	-0.361479	0.092409
C23	C	-0.094007	-0.394738	0.000269
C24	C	-0.100131	-0.148906	0.124060
C25	C	-0.099064	-0.076081	0.124067
C26	C	-0.079254	-0.056126	-0.123435
C27	C	-0.080328	-0.128949	-0.123439
C28	C	-0.090763	-0.175336	0.000312
C29	C	-0.220644	-0.819042	0.000411
C30	C	-0.298154	-0.820188	0.000476
C31	C	-0.343081	-0.757093	0.000434
C32	C	-0.415902	-0.758162	0.000404
C33	C	-0.443791	-0.822328	0.000388
C34	C	-0.398854	-0.885432	0.000437
C35	C	-0.326036	-0.884362	0.000482
N36	N	-0.545565	-0.865149	-0.076943
N37	N	-0.614740	-0.866161	-0.076988
C38	C	-0.663189	-0.825556	0.000257
N39	N	-0.639849	-0.783889	0.077532
N40	N	-0.570668	-0.782875	0.077571
C41	C	-0.522749	-0.823495	0.000341
C42	C	-0.787078	-0.763616	0.000184
C43	C	-0.859901	-0.764688	0.000162
C44	C	-0.842850	-0.891959	0.000182
C45	C	-0.770030	-0.890886	0.000218
C46	C	-0.742148	-0.826712	0.000212
C47	C	0.034707	-0.830000	0.000204
C48	C	0.112216	-0.828855	0.000148
N49	N	-0.064662	-0.796048	-0.353364
C50	C	-0.087474	0.047809	0.000329
C51	C	-0.088620	-0.029695	0.000328
C52	C	-0.099253	-0.830841	-0.421105
C53	C	-0.086673	-0.818201	-0.578286
N54	N	-0.121269	-0.853000	0.353976
H55	H	-0.115190	-0.630679	0.224765
C56	C	-0.070108	-0.157516	-0.257936
C57	C	-0.060713	-0.101307	-0.366301
C58	C	-0.051289	-0.127595	-0.490225
H59	H	-0.110799	-0.180044	-0.263246
H60	H	-0.029385	-0.190943	-0.263189
H61	H	-0.101432	-0.067892	-0.361051
H62	H	-0.020022	-0.078774	-0.361036
H63	H	-0.010566	-0.161022	-0.495478
H64	H	-0.091982	-0.150123	-0.495522
H65	H	-0.044907	-0.089463	-0.563766
C66	C	-0.012809	-0.743851	-0.431423
C67	C	-0.010776	-0.741554	-0.571805
C68	C	0.036977	-0.693470	-0.643750
H69	H	0.033222	-0.758708	-0.408424
H70	H	-0.027836	-0.697927	-0.408014
H71	H	0.004255	-0.787468	-0.595205
H72	H	-0.056795	-0.726688	-0.594846
H73	H	0.021950	-0.647546	-0.620341
H74	H	0.083005	-0.708332	-0.620740
H75	H	0.038358	-0.691900	-0.739006
H76	H	-0.160199	-0.892150	-0.587661
C77	C	-0.908750	-0.696218	-0.000091
C78	C	-0.941680	-0.683724	-0.116884
C79	C	-0.986693	-0.620661	-0.117152
H80	H	-0.881796	-0.657783	-0.000159
H81	H	-0.943911	-0.700354	0.079018
H82	H	-0.906524	-0.679582	-0.195972
H83	H	-0.968647	-0.722142	-0.116840
H84	H	-1.021855	-0.624798	-0.038044
H85	H	-0.959734	-0.582232	-0.117217
H86	H	-1.009047	-0.612179	-0.196388
H87	H	-0.113245	-0.498570	0.224781
H88	H	-0.077317	-0.462359	-0.224237
C89	C	-0.076681	-0.601522	-0.257999
C90	C	-0.067289	-0.545314	-0.366366
C91	C	-0.057863	-0.571603	-0.490289
H92	H	-0.117370	-0.624052	-0.263307
H93	H	-0.035956	-0.634947	-0.263251
H94	H	-0.108010	-0.511901	-0.361116
H95	H	-0.026599	-0.522777	-0.361103
H96	H	-0.017138	-0.605028	-0.495541
H97	H	-0.098554	-0.594134	-0.495583
H98	H	-0.051483	-0.533472	-0.563830
H99	H	-0.733448	-0.942264	0.000243
H100	H	-0.865564	-0.944212	0.000268
H101	H	-0.070754	-0.018355	-0.224185
H102	H	-0.138179	-0.869990	-0.362735
H103	H	-0.108635	-0.186675	0.224825
H104	H	-0.106690	-0.054566	0.224839
H105	H	-0.452489	-0.706781	0.000366
C106	C	-0.312952	-0.687356	0.000510
C107	C	-0.367893	-0.632331	0.000502
C108	C	-0.340166	-0.568081	0.000592
H109	H	-0.278546	-0.677820	-0.078613
H110	H	-0.291290	-0.690630	0.079723
H111	H	-0.389545	-0.629055	-0.078703
H112	H	-0.402303	-0.641842	0.079619
H113	H	-0.318503	-0.571355	0.079805
H114	H	-0.305760	-0.558552	-0.078532
H115	H	-0.377439	-0.530740	0.000599
C116	C	-0.429259	-0.955022	0.000349
C117	C	-0.502644	-0.942452	0.000262
C118	C	-0.530675	-1.006542	0.000169
H119	H	-0.420266	-0.987418	0.079504
H120	H	-0.407493	-0.974622	-0.078832
H121	H	-0.524404	-0.922862	0.079435
H122	H	-0.511657	-0.910067	-0.078887
H123	H	-0.508908	-1.026142	-0.079013
H124	H	-0.521676	-1.038934	0.079325
H125	H	-0.580468	-0.998021	0.000097
H126	H	-0.289455	-0.935744	0.000517
H127	H	-0.047740	-0.779055	-0.636651
H128	H	-0.764375	-0.711361	0.000172
