data_functionalizedCrystal
_audit_creation_method	'MofGen! by Chris Wilmer'
_symmetry_space_group_name_H-M	'P1'
_symmetry_Int_Tables_number	1
_symmetry_cell_setting	triclinic
loop_
_symmetry_equiv_pos_as_xyz
  x,y,z
_cell_length_a	19.805407
_cell_length_b	12.759400
_cell_length_c	19.805399
_cell_angle_alpha	89.977448
_cell_angle_beta	89.979591
_cell_angle_gamma	90.016585
loop_
_atom_site_label
_atom_site_type_symbol
_atom_site_fract_x
_atom_site_fract_y
_atom_site_fract_z
Zn1	Zn	1.034791	-0.418236	-0.382758
Zn2	Zn	1.034729	-0.593930	-0.269580
Zn3	Zn	0.921606	-0.418271	-0.269581
Zn4	Zn	0.921592	-0.593880	-0.382725
O5	O	0.978180	-0.506079	-0.326161
O6	O	1.129499	-0.441549	-0.367758
O7	O	1.019703	-0.570664	-0.174864
O8	O	0.936651	-0.271245	-0.284609
O9	O	1.129454	-0.570630	-0.284607
O10	O	1.019808	-0.271220	-0.367760
O11	O	0.936591	-0.441608	-0.174865
O12	O	0.826887	-0.441560	-0.284577
O13	O	0.936629	-0.570545	-0.477446
O14	O	0.826878	-0.570579	-0.367703
O15	O	1.019795	-0.441500	-0.477471
O16	O	1.019690	-0.740944	-0.284575
O17	O	0.936569	-0.740907	-0.367702
C18	C	0.802324	-0.506068	-0.326137
C19	C	0.727092	-0.506089	-0.326142
C20	C	0.265328	-0.438992	-0.369551
C21	C	0.336016	-0.438994	-0.369546
C22	C	0.371330	-0.506095	-0.326183
C23	C	0.335951	-0.573206	-0.282827
C24	C	0.265264	-0.573209	-0.282836
C25	C	0.621025	-0.573198	-0.282791
C26	C	0.691717	-0.573188	-0.282785
C27	C	0.691777	-0.438984	-0.369501
C28	C	0.621089	-0.438986	-0.369510
C29	C	0.585717	-0.506100	-0.326157
C30	C	0.509069	-0.506099	-0.326164
C31	C	0.447977	-0.506092	-0.326173
C32	C	0.978140	-0.779047	-0.326149
C33	C	0.978184	-0.895823	-0.326167
C34	C	1.021465	-0.950582	-0.369500
C35	C	1.021503	-1.060306	-0.369519
C36	C	0.934978	-1.060503	-0.282864
C37	C	0.934937	-0.950781	-0.282850
C38	C	1.045696	-1.210149	-0.449386
C39	C	1.088987	-1.264912	-0.492713
C40	C	1.155012	-1.229202	-0.503162
C41	C	1.177758	-1.138732	-0.470274
C42	C	1.134470	-1.083975	-0.426941
C43	C	1.068437	-1.119683	-0.416505
C44	C	0.910751	-0.800935	-0.202982
C45	C	0.867466	-0.746177	-0.159645
C46	C	0.801440	-0.781884	-0.149189
C47	C	0.778697	-0.872358	-0.182066
C48	C	0.821981	-0.927116	-0.225402
C49	C	0.888006	-0.891401	-0.235859
C50	C	1.154722	-0.506091	-0.326186
C51	C	1.229954	-0.506096	-0.326197
C52	C	0.978218	-0.506013	-0.502704
C53	C	0.978234	-0.505985	-0.577936
C54	C	0.978238	-0.232046	-0.326188
C55	C	0.978263	-0.115269	-0.326200
C56	C	1.021539	-0.438788	-0.613294
C57	C	1.021546	-0.438757	-0.683983
C58	C	0.978251	-0.505930	-0.719312
C59	C	0.934940	-0.573130	-0.683949
C60	C	0.934930	-0.573154	-0.613262
C61	C	0.934978	-0.573032	-0.969022
C62	C	0.934993	-0.573004	-1.039714
C63	C	1.021594	-0.438635	-1.039743
C64	C	1.021585	-0.438660	-0.969056
C65	C	0.978272	-0.505855	-0.933699
C66	C	0.978264	-0.505886	-0.857051
C67	C	0.978261	-0.505905	-0.795959
C68	C	0.978181	-0.506069	-0.150305
C69	C	0.978296	-0.505801	-0.075074
H70	H	0.592233	-0.627844	-0.247489
H71	H	0.364709	-0.627845	-0.247523
N72	N	1.068261	-0.366275	-0.722106
H73	H	1.099624	-0.408957	-0.751439
H74	H	1.040726	-0.317578	-0.751391
H75	H	0.720467	-0.627834	-0.247472
H76	H	0.236464	-0.627853	-0.247534
H77	H	0.899685	-0.627819	-0.712720
H78	H	1.056798	-0.384092	-0.584534
N79	N	1.068107	-0.891304	-0.416220
H80	H	1.095529	-0.942647	-0.443675
H81	H	1.040520	-0.845787	-0.447510
H82	H	0.899720	-0.627762	-0.940243
N83	N	0.707485	-0.910883	-0.170787
H84	H	0.674422	-0.854999	-0.185300
H85	H	0.699709	-0.976523	-0.198188
H86	H	0.766199	-0.737290	-0.113899
H87	H	0.885991	-0.672511	-0.132873
H88	H	1.231525	-1.109672	-0.478779
N89	N	0.583004	-0.366620	-0.416286
H90	H	0.532856	-0.376805	-0.409713
H91	H	0.595365	-0.291562	-0.405835
H92	H	1.190260	-1.273798	-0.538441
N93	N	0.888216	-0.645620	-0.575122
H94	H	0.860788	-0.688170	-0.608228
H95	H	0.915747	-0.694255	-0.545790
H96	H	1.056843	-0.383964	-0.940294
N97	N	1.158995	-0.986407	-0.391467
H98	H	1.207393	-0.972094	-0.404657
H99	H	1.129851	-0.924954	-0.404999
H100	H	0.236580	-0.384344	-0.404858
N101	N	1.068300	-0.366148	-1.077885
H102	H	1.057803	-0.291086	-1.065586
H103	H	1.116638	-0.382563	-1.065581
H104	H	0.991932	-1.239226	-0.440888
N105	N	0.981962	-0.762408	-0.214273
H106	H	0.989803	-0.696787	-0.186868
H107	H	1.014983	-0.818359	-0.199777
H108	H	0.364814	-0.384355	-0.404851
N109	N	0.888340	-1.119779	-0.236139
H110	H	0.894936	-1.197597	-0.242720
H111	H	0.898902	-1.100623	-0.187809
H112	H	0.899733	-0.627706	-1.068478
N113	N	0.729928	-0.366611	-0.416275
H114	H	0.780067	-0.376795	-0.409697
H115	H	0.717584	-0.383074	-0.464594
H116	H	1.070461	-1.338573	-0.519491
N117	N	0.797454	-1.024701	-0.260863
H118	H	0.749059	-1.039018	-0.247664
H119	H	0.800358	-1.014185	-0.311325
