data_functionalizedCrystal
_audit_creation_method	'MofGen! by Chris Wilmer'
_symmetry_space_group_name_H-M	'P1'
_symmetry_Int_Tables_number	1
_symmetry_cell_setting	triclinic
loop_
_symmetry_equiv_pos_as_xyz
  x,y,z
_cell_length_a	19.121241
_cell_length_b	19.121063
_cell_length_c	18.215399
_cell_angle_alpha	92.409843
_cell_angle_beta	87.536725
_cell_angle_gamma	95.003121
loop_
_atom_site_label
_atom_site_type_symbol
_atom_site_fract_x
_atom_site_fract_y
_atom_site_fract_z
Zn1	Zn	1.063748	-0.234335	-0.474205
Zn2	Zn	1.058635	-0.352008	-0.356162
Zn3	Zn	0.946079	-0.239367	-0.346108
Zn4	Zn	0.941024	-0.356975	-0.474142
O5	O	1.002372	-0.295671	-0.412654
O6	O	1.161536	-0.245761	-0.462780
O7	O	1.043680	-0.337093	-0.251844
O8	O	0.965944	-0.140234	-0.358919
O9	O	1.157779	-0.332214	-0.376054
O10	O	1.052395	-0.136537	-0.453031
O11	O	0.960986	-0.254336	-0.244458
O12	O	0.846943	-0.259152	-0.358858
O13	O	0.957327	-0.340680	-0.577135
O14	O	0.843228	-0.345558	-0.452925
O15	O	1.047493	-0.250577	-0.577181
O16	O	1.038778	-0.451133	-0.375993
O17	O	0.952369	-0.454782	-0.462673
C18	C	0.819555	-0.303441	-0.404794
C19	C	0.741344	-0.306782	-0.401450
C20	C	0.706554	-0.263411	-0.445107
C21	C	0.633067	-0.266546	-0.441958
C22	C	0.594371	-0.313057	-0.395155
C23	C	0.629166	-0.356429	-0.351493
C24	C	0.702652	-0.353290	-0.354639
C25	C	0.372393	-0.324782	-0.383392
C26	C	0.298902	-0.327919	-0.380251
C27	C	0.302808	-0.238035	-0.470715
C28	C	0.376295	-0.234902	-0.473860
C29	C	0.411084	-0.278272	-0.430195
C30	C	0.519255	-0.316265	-0.391937
C31	C	0.486199	-0.275061	-0.433410
C32	C	0.994489	-0.478488	-0.420434
C33	C	0.991182	-0.556694	-0.423790
C34	C	1.034651	-0.591511	-0.380278
C35	C	1.031545	-0.664995	-0.383438
C36	C	0.984965	-0.703660	-0.430108
C37	C	0.941493	-0.668838	-0.473625
C38	C	0.944604	-0.595356	-0.470468
C39	C	0.973323	-0.925626	-0.441900
C40	C	0.970214	-0.999113	-0.445052
C41	C	1.060267	-0.995265	-0.354866
C42	C	1.063370	-0.921782	-0.351709
C43	C	1.019902	-0.886966	-0.395229
C44	C	0.981786	-0.778773	-0.433338
C45	C	1.023084	-0.811855	-0.392003
C46	C	1.185902	-0.287872	-0.420545
C47	C	1.264112	-0.284549	-0.423908
C48	C	1.002416	-0.295621	-0.604607
C49	C	1.002436	-0.295600	-0.686406
C50	C	1.010304	-0.112140	-0.404861
C51	C	1.013684	-0.033930	-0.401540
C52	C	1.049403	-0.248640	-0.874624
C53	C	1.049412	-0.248619	-0.951482
C54	C	0.955523	-0.342448	-0.951423
C55	C	0.955511	-0.342465	-0.874566
C56	C	1.002455	-0.295562	-0.836169
C57	C	1.002476	-0.295524	-0.989884
C58	C	1.002486	-0.295502	-1.073217
C59	C	1.002444	-0.295583	-0.752830
C60	C	1.002369	-0.295669	-0.221448
C61	C	1.002495	-0.295486	-0.139647
H62	H	0.267398	-0.365797	-0.342138
C63	C	0.749113	-0.212249	-0.496590
H64	H	0.717866	-0.186864	-0.522134
H65	H	0.776634	-0.237977	-0.530985
H66	H	0.779087	-0.180329	-0.468406
C67	C	0.528758	-0.223902	-0.484892
H68	H	0.497517	-0.198517	-0.510443
H69	H	0.556280	-0.249637	-0.519280
H70	H	0.558732	-0.191982	-0.456708
H71	H	0.487741	-0.354134	-0.353830
H72	H	0.943859	-0.810262	-0.471335
H73	H	0.400709	-0.360097	-0.347837
C74	C	0.890255	-0.711368	-0.524959
H75	H	0.894621	-0.760119	-0.520602
H76	H	0.901034	-0.698849	-0.574338
H77	H	0.843490	-0.701381	-0.511594
C78	C	0.903867	-0.394079	-0.832259
H79	H	0.910579	-0.387365	-0.780986
H80	H	0.912121	-0.440917	-0.847300
H81	H	0.857034	-0.385784	-0.842381
H82	H	1.087641	-0.210410	-0.982789
C83	C	0.740921	-0.401003	-0.306622
H84	H	0.707351	-0.429159	-0.278304
H85	H	0.770736	-0.372827	-0.274682
H86	H	0.768276	-0.430473	-0.337263
C87	C	0.418856	-0.183734	-0.525336
H88	H	0.387611	-0.158347	-0.550880
H89	H	0.446379	-0.209461	-0.559730
H90	H	0.448828	-0.151816	-0.497147
H91	H	0.597654	-0.394296	-0.313382
H92	H	0.917305	-0.380636	-0.982696
C93	C	1.085891	-0.548986	-0.328942
H94	H	1.111339	-0.580249	-0.303486
H95	H	1.060207	-0.521508	-0.294466
H96	H	1.117752	-0.518974	-0.357209
H97	H	1.066942	-0.693340	-0.348005
C98	C	0.264539	-0.190326	-0.518735
H99	H	0.215232	-0.198851	-0.510156
H100	H	0.276157	-0.200166	-0.569122
H101	H	0.278614	-0.142520	-0.506540
C102	C	1.108083	-1.033560	-0.307001
H103	H	1.136266	-1.000008	-0.278751
H104	H	1.137515	-1.060878	-0.337724
H105	H	1.079965	-1.063413	-0.274985
H106	H	1.087625	-0.210447	-0.843363
H107	H	1.061012	-0.780371	-0.354007
H108	H	1.101300	-0.890301	-0.313707
C109	C	0.918980	-1.041644	-0.496397
H110	H	0.893542	-1.010385	-0.521871
H111	H	0.887119	-1.071659	-0.468139
H112	H	0.944678	-1.069120	-0.530869
H113	H	0.909208	-0.567009	-0.505901
H114	H	0.604744	-0.231231	-0.477510
C115	C	0.925497	-0.887338	-0.489757
H116	H	0.897304	-0.920892	-0.517993
H117	H	0.953602	-0.857481	-0.521773
H118	H	0.896065	-0.860026	-0.459021
