data_functionalizedCrystal
_audit_creation_method	'MofGen! by Chris Wilmer'
_symmetry_space_group_name_H-M	'P1'
_symmetry_Int_Tables_number	1
_symmetry_cell_setting	triclinic
loop_
_symmetry_equiv_pos_as_xyz
  x,y,z
_cell_length_a	17.038278
_cell_length_b	17.038278
_cell_length_c	9.130313
_cell_angle_alpha	89.991350
_cell_angle_beta	89.999504
_cell_angle_gamma	91.110501
loop_
_atom_site_label
_atom_site_type_symbol
_atom_site_fract_x
_atom_site_fract_y
_atom_site_fract_z
O1	O	1.048748	0.170523	-0.121852
O2	O	0.820936	0.167817	-0.121852
O3	O	0.933489	0.055265	-0.121815
O4	O	0.936195	0.283076	-0.121889
O5	O	0.933488	0.055268	0.121784
O6	O	0.820935	0.167821	0.121747
O7	O	1.048746	0.170526	0.121747
Cu8	Cu	0.934841	0.169174	0.143989
Cu9	Cu	0.934842	0.169170	-0.144094
O10	O	0.936194	0.283079	0.121710
C11	C	0.791643	0.165356	-0.000052
C12	C	0.704360	0.158009	-0.000050
C13	C	0.210934	0.112871	-0.000041
C14	C	0.292946	0.119781	-0.000034
C15	C	0.329345	0.194155	-0.000065
C16	C	0.283728	0.261623	-0.000088
C17	C	0.201718	0.254713	-0.000084
C18	C	0.576732	0.218567	-0.000069
C19	C	0.658749	0.225472	-0.000077
C20	C	0.667961	0.083630	-0.000021
C21	C	0.585949	0.076726	-0.000026
C22	C	0.540339	0.144194	-0.000041
C23	C	0.413174	0.201219	-0.000063
C24	C	0.456511	0.137129	-0.000032
C25	C	0.931026	0.025974	-0.000009
C26	C	0.923679	-0.061310	0.000010
C27	C	0.878541	-0.554735	-0.000123
C28	C	0.885451	-0.472724	-0.000109
C29	C	0.959824	-0.436324	-0.000089
C30	C	1.027292	-0.481941	-0.000098
C31	C	1.020382	-0.563952	-0.000123
C32	C	0.984237	-0.188937	-0.000024
C33	C	0.991142	-0.106921	0.000006
C34	C	0.849299	-0.097709	-0.000008
C35	C	0.842396	-0.179721	-0.000024
C36	C	0.909864	-0.225331	-0.000041
C37	C	0.966888	-0.352495	-0.000070
C38	C	0.902799	-0.309158	-0.000070
C39	C	1.078040	0.172987	-0.000056
C40	C	1.165323	0.180335	-0.000068
C41	C	0.938657	0.312370	-0.000099
C42	C	0.946004	0.399654	-0.000128
N43	N	0.934845	0.169176	0.346612
N44	N	0.934843	0.169162	-0.346717
C45	C	0.984698	0.119357	0.423280
C46	C	0.984696	0.119347	0.576617
C47	C	0.884985	0.218983	0.576604
C48	C	0.884984	0.218988	0.423270
C49	C	1.042268	0.061835	0.423290
C50	C	1.042266	0.061825	0.576626
H51	H	0.442819	0.261774	-0.000092
C52	C	1.012335	-0.015674	0.639843
C53	C	0.935287	-0.030130	0.592247
C54	C	0.907701	-0.101522	0.650430
H55	H	1.013287	-0.013107	0.743756
H56	H	1.044930	-0.056870	0.607658
H57	H	0.902701	0.011055	0.624441
H58	H	0.934314	-0.032712	0.488343
H59	H	0.940295	-0.142717	0.618244
H60	H	0.908658	-0.098948	0.754340
H61	H	0.855424	-0.111342	0.618133
H62	H	0.313371	0.322179	-0.000104
H63	H	0.164582	0.309648	-0.000101
H64	H	0.426872	0.076575	-0.000024
H65	H	0.781833	-0.209351	-0.000057
H66	H	1.051709	-0.077288	0.000023
C67	C	0.698172	0.306272	-0.000325
C68	C	0.675432	0.347392	-0.125639
C69	C	0.711728	0.421825	-0.125909
H70	H	0.753550	0.300827	-0.000406
H71	H	0.682825	0.334322	0.084575
H72	H	0.690783	0.319349	-0.210517
H73	H	0.620060	0.352859	-0.125586
H74	H	0.696382	0.449875	-0.041009
H75	H	0.767105	0.416372	-0.125985
H76	H	0.696299	0.449737	-0.210926
C77	C	1.123750	0.084248	0.632216
C78	C	1.152837	0.022940	0.717318
C79	C	1.227898	0.043563	0.768538
H80	H	1.120960	0.130426	0.690110
H81	H	1.157732	0.093634	0.551328
H82	H	1.118864	0.013564	0.798195
H83	H	1.155647	-0.023244	0.659455
H84	H	1.261879	0.052949	0.687650
H85	H	1.225100	0.089742	0.826426
H86	H	1.247646	0.001966	0.826273
C87	C	0.342560	0.046598	-0.000245
C88	C	0.389927	0.046429	-0.125551
C89	C	0.435647	-0.020973	-0.125786
H90	H	0.309228	0.001259	-0.000311
H91	H	0.374789	0.046339	0.084660
H92	H	0.357701	0.046681	-0.210435
H93	H	0.423274	0.091753	-0.125512
H94	H	0.467876	-0.021233	-0.040881
H95	H	0.402309	-0.066308	-0.125848
H96	H	0.467796	-0.021093	-0.210797
C97	C	0.812110	-0.423339	-0.000016
C98	C	0.745498	-0.472769	0.000014
C99	C	0.677920	-0.427305	0.000121
H100	H	0.811744	-0.391131	-0.084931
H101	H	0.811814	-0.391184	0.084977
H102	H	0.745794	-0.504911	-0.084970
H103	H	0.745838	-0.504977	0.084923
H104	H	0.677625	-0.395149	0.085113
H105	H	0.677562	-0.395098	-0.084796
H106	H	0.632717	-0.460836	0.000155
H107	H	0.844382	0.259548	0.360848
C108	C	0.717442	0.010356	-0.000294
C109	C	0.700288	-0.034108	-0.125619
C110	C	0.745862	-0.101610	-0.125926
H111	H	0.705935	-0.020003	0.084568
H112	H	0.771507	0.025089	-0.000380
H113	H	0.646235	-0.048842	-0.125520
H114	H	0.711798	-0.003773	-0.210502
H115	H	0.799927	-0.086877	-0.126011
H116	H	0.734351	-0.131962	-0.041058
H117	H	0.734234	-0.131783	-0.210963
C118	C	0.527127	0.291753	-0.000338
C119	C	0.479763	0.291914	-0.125647
C120	C	0.434047	0.359320	-0.125942
H121	H	0.560462	0.337090	-0.000442
H122	H	0.494897	0.292022	0.084565
H123	H	0.511990	0.291653	-0.210529
H124	H	0.446413	0.246592	-0.125570
H125	H	0.401816	0.359589	-0.041039
H126	H	0.467388	0.404652	-0.126042
H127	H	0.401900	0.359435	-0.210955
H128	H	0.844388	0.259538	0.639035
H129	H	1.100362	0.084248	0.375724
H130	H	1.075318	-0.601088	-0.000133
C131	C	1.057580	-0.238313	0.000053
C132	C	1.124189	-0.188880	0.000125
C133	C	1.191769	-0.234341	0.000221
H134	H	1.057954	-0.270494	-0.084880
H135	H	1.057871	-0.270496	0.085027
H136	H	1.123898	-0.156711	-0.084840
H137	H	1.123840	-0.156699	0.085052
H138	H	1.192060	-0.266524	0.085195
H139	H	1.192136	-0.266519	-0.084714
H140	H	1.236971	-0.200807	0.000283
H141	H	0.817978	-0.584365	-0.000122
C142	C	1.107992	-0.442319	-0.000307
C143	C	1.116100	-0.395467	-0.125596
C144	C	1.190426	-0.358948	-0.125823
H145	H	1.147256	-0.481143	-0.000391
H146	H	1.113641	-0.410488	0.084610
H147	H	1.110459	-0.427295	-0.210491
H148	H	1.076853	-0.356629	-0.125538
H149	H	1.196075	-0.327118	-0.040907
H150	H	1.229684	-0.397778	-0.125904
H151	H	1.195935	-0.327150	-0.210823
C152	C	1.019625	-0.019570	0.367610
C153	C	0.951514	-0.015134	0.282456
C154	C	0.930632	-0.090103	0.231129
H155	H	1.010174	-0.053585	0.448409
H156	H	1.061113	-0.039414	0.309729
H157	H	0.910034	0.004700	0.340335
H158	H	0.960945	0.018866	0.201636
H159	H	0.972121	-0.109948	0.173248
H160	H	0.921185	-0.124113	0.311936
H161	H	0.884421	-0.087103	0.173335
H162	H	0.181304	0.052309	-0.000025
H163	H	1.027444	-0.322850	-0.000005
H164	H	0.556319	0.016163	-0.000000
H165	H	0.794371	-0.060564	0.000004
H166	H	0.842244	-0.338798	-0.000094
