data_functionalizedCrystal
_audit_creation_method	'MofGen! by Chris Wilmer'
_symmetry_space_group_name_H-M	'P1'
_symmetry_Int_Tables_number	1
_symmetry_cell_setting	triclinic
loop_
_symmetry_equiv_pos_as_xyz
  x,y,z
_cell_length_a	10.654550
_cell_length_b	23.532407
_cell_length_c	9.130313
_cell_angle_alpha	89.994125
_cell_angle_beta	89.996220
_cell_angle_gamma	83.666790
loop_
_atom_site_label
_atom_site_type_symbol
_atom_site_fract_x
_atom_site_fract_y
_atom_site_fract_z
O1	O	1.665300	0.079982	-0.121936
O2	O	1.299580	0.087603	-0.121914
O3	O	1.493468	0.000933	-0.121899
O4	O	1.471412	0.166652	-0.121952
O5	O	1.493466	0.000935	0.121700
O6	O	1.299578	0.087605	0.121684
O7	O	1.665298	0.079985	0.121662
Cu8	Cu	1.482437	0.083795	0.143916
Cu9	Cu	1.482440	0.083792	-0.144168
O10	O	1.471409	0.166655	0.121647
C11	C	1.252799	0.087044	-0.000112
C12	C	1.113408	0.085370	-0.000102
C13	C	1.032306	0.136400	-0.000140
C14	C	0.901335	0.134824	-0.000165
C15	C	0.932582	0.031183	-0.000121
C16	C	1.063550	0.032760	-0.000085
C17	C	1.082164	0.189010	-0.000157
C18	C	1.001060	0.240045	-0.000196
C19	C	0.870089	0.238468	-0.000221
C20	C	0.820222	0.185858	-0.000206
C21	C	1.492905	-0.020286	-0.000096
C22	C	1.491217	-0.083514	-0.000085
C23	C	1.595364	-0.481938	-0.000171
C24	C	1.593795	-0.541349	-0.000182
O25	O	1.690341	-0.577464	-0.000242
N26	N	1.478529	-0.564726	-0.000174
C27	C	1.364824	-0.528689	-0.000170
O28	O	1.266636	-0.554029	-0.000166
C29	C	1.366394	-0.469280	-0.000170
C30	C	1.481668	-0.445906	-0.000163
C31	C	1.710629	-0.458564	-0.000166
C32	C	1.712197	-0.399158	-0.000152
C33	C	1.598500	-0.363126	-0.000144
C34	C	1.483236	-0.386500	-0.000149
C35	C	1.252690	-0.433244	-0.000176
C36	C	1.254270	-0.373832	-0.000177
C37	C	1.369544	-0.350458	-0.000170
C38	C	1.371107	-0.291061	-0.000127
N39	N	1.486374	-0.267684	-0.000135
C40	C	1.600070	-0.303716	-0.000143
C41	C	1.361535	-0.653453	-0.000174
C42	C	1.359964	-0.712861	-0.000164
C43	C	1.588936	-0.725517	-0.000179
C44	C	1.590506	-0.666108	-0.000178
C45	C	1.476802	-0.630076	-0.000182
C46	C	1.603355	-0.178958	-0.000113
C47	C	1.604913	-0.119546	-0.000093
C48	C	1.375942	-0.106896	-0.000086
C49	C	1.374383	-0.166303	-0.000098
C50	C	1.488100	-0.202333	-0.000117
O51	O	1.274613	-0.254911	-0.000073
O52	O	1.698241	-0.278369	-0.000167
C53	C	1.712079	0.080543	-0.000143
C54	C	1.851469	0.082217	-0.000163
C55	C	1.471972	0.187873	-0.000159
C56	C	1.473661	0.251101	-0.000180
N57	N	1.482445	0.083797	0.346539
N58	N	1.482443	0.083786	-0.346791
C59	C	1.568320	0.045432	0.423197
C60	C	1.568317	0.045425	0.576534
C61	C	1.396559	0.122152	0.576540
C62	C	1.396557	0.122156	0.423206
C63	C	1.654207	0.007073	0.346530
C64	C	1.740090	-0.031294	0.423189
C65	C	1.740087	-0.031301	0.576526
C66	C	1.654201	0.007059	0.653204
H67	H	0.804057	0.280023	-0.000238
C68	C	1.125887	-0.458942	-0.000196
H69	H	1.058410	-0.428967	-0.000210
H70	H	1.120490	-0.481860	0.084745
H71	H	1.120518	-0.481847	-0.085163
H72	H	1.806065	-0.380133	-0.000153
H73	H	1.283373	-0.077548	-0.000074
C74	C	1.233166	-0.738569	-0.000155
H75	H	1.248503	-0.779112	-0.000153
H76	H	1.186386	-0.726223	-0.085097
H77	H	1.186389	-0.726236	0.084810
C78	C	1.834542	-0.073504	0.660854
H79	H	1.822237	-0.068018	0.763155
H80	H	1.918268	-0.066964	0.635721
H81	H	1.821378	-0.111569	0.635722
H82	H	1.188805	0.190300	-0.000143
C83	C	1.129191	-0.334200	-0.000175
H84	H	1.060322	-0.356633	-0.000169
H85	H	1.125043	-0.310755	-0.085117
H86	H	1.125037	-0.310768	0.084790
H87	H	1.129587	-0.008793	-0.000059
H88	H	1.684372	-0.647081	-0.000174
C89	C	1.654212	0.007082	0.177865
H90	H	1.590772	0.035428	0.143190
H91	H	1.637498	-0.029387	0.143168
H92	H	1.734373	0.015225	0.143184
C93	C	1.302075	0.164338	0.660875
H94	H	1.250915	0.187181	0.593258
H95	H	1.346922	0.188237	0.720701
H96	H	1.250070	0.143615	0.720681
H97	H	0.713576	0.184578	-0.000204
H98	H	1.681514	-0.754865	-0.000191
H99	H	1.041671	0.282878	-0.000195
H100	H	1.695954	-0.208288	-0.000134
H101	H	1.268937	-0.624119	-0.000164
C102	C	1.247586	-0.192015	-0.000109
H103	H	1.180098	-0.162045	-0.000112
H104	H	1.242200	-0.214939	0.084822
H105	H	1.242225	-0.214915	-0.085085
C106	C	1.654188	0.007051	0.821871
H107	H	1.590738	0.035390	0.856553
H108	H	1.734344	0.015181	0.856560
H109	H	1.637452	-0.029423	0.856553
H110	H	1.326628	0.153395	0.360790
H111	H	1.698787	-0.100519	-0.000084
C112	C	0.877736	-0.026684	-0.000120
H113	H	0.944797	-0.056851	-0.000082
H114	H	0.827317	-0.029454	-0.085082
H115	H	0.827273	-0.029452	0.084825
C116	C	1.835706	-0.498191	-0.000163
H117	H	1.904567	-0.475753	-0.000149
H118	H	1.839877	-0.521630	-0.085106
H119	H	1.839853	-0.521629	0.084801
H120	H	1.810010	-0.062529	0.360750
