data_functionalizedCrystal
_audit_creation_method	'MofGen! by Chris Wilmer'
_symmetry_space_group_name_H-M	'P1'
_symmetry_Int_Tables_number	1
_symmetry_cell_setting	triclinic
loop_
_symmetry_equiv_pos_as_xyz
  x,y,z
_cell_length_a	18.215399
_cell_length_b	18.215407
_cell_length_c	18.215405
_cell_angle_alpha	89.975194
_cell_angle_beta	89.969449
_cell_angle_gamma	90.020595
loop_
_atom_site_label
_atom_site_type_symbol
_atom_site_fract_x
_atom_site_fract_y
_atom_site_fract_z
Zn1	Zn	-0.416118	-1.125072	-0.292993
Zn2	Zn	-0.166118	-0.875072	-0.042993
Zn3	Zn	0.083882	-0.625072	0.207007
Zn4	Zn	0.333882	-0.375072	0.457007
Zn5	Zn	-0.293046	-1.124980	-0.416065
Zn6	Zn	-0.043046	-0.874980	-0.166065
Zn7	Zn	0.206954	-0.624980	0.083935
Zn8	Zn	0.456954	-0.374980	0.333935
Zn9	Zn	-0.293063	-1.002005	-0.293016
Zn10	Zn	-0.043063	-0.752005	-0.043016
Zn11	Zn	0.206937	-0.502005	0.206984
Zn12	Zn	0.456937	-0.252005	0.456984
Zn13	Zn	-0.416069	-1.001970	-0.416023
Zn14	Zn	-0.166069	-0.751970	-0.166023
Zn15	Zn	0.083931	-0.501970	0.083977
Zn16	Zn	0.333931	-0.251970	0.333977
O17	O	-0.354574	-1.063507	-0.354524
O18	O	-0.104574	-0.813507	-0.104524
O19	O	0.145426	-0.563507	0.145476
O20	O	0.395426	-0.313507	0.395476
O21	O	-0.399805	-1.228044	-0.309327
O22	O	-0.149805	-0.978044	-0.059327
O23	O	0.100195	-0.728044	0.190673
O24	O	0.350195	-0.478044	0.440673
O25	O	-0.190064	-1.108643	-0.399769
O26	O	0.059936	-0.858643	-0.149769
O27	O	0.309936	-0.608643	0.100231
O28	O	0.559936	-0.358643	0.350231
O29	O	-0.309414	-1.018382	-0.190029
O30	O	-0.059414	-0.768382	0.059971
O31	O	0.190586	-0.518382	0.309971
O32	O	0.440586	-0.268382	0.559971
O33	O	-0.309384	-1.227977	-0.399747
O34	O	-0.059384	-0.977977	-0.149747
O35	O	0.190616	-0.727977	0.100253
O36	O	0.440616	-0.477977	0.350253
O37	O	-0.399822	-1.108799	-0.190012
O38	O	-0.149822	-0.858799	0.059988
O39	O	0.100178	-0.608799	0.309988
O40	O	0.350178	-0.358799	0.559988
O41	O	-0.190077	-1.018293	-0.309366
O42	O	0.059923	-0.768293	-0.059366
O43	O	0.309923	-0.518293	0.190634
O44	O	0.559923	-0.268293	0.440634
O45	O	-0.309367	-0.899016	-0.309325
O46	O	-0.059367	-0.649016	-0.059325
O47	O	0.190633	-0.399016	0.190675
O48	O	0.440633	-0.149016	0.440675
O49	O	-0.519060	-1.018324	-0.399675
O50	O	-0.269060	-0.768324	-0.149675
O51	O	-0.019060	-0.518324	0.100325
O52	O	0.230940	-0.268324	0.350325
O53	O	-0.399739	-0.898991	-0.399697
O54	O	-0.149739	-0.648991	-0.149697
O55	O	0.100261	-0.398991	0.100303
O56	O	0.350261	-0.148991	0.350303
O57	O	-0.519095	-1.108766	-0.309286
O58	O	-0.269095	-0.858766	-0.059286
O59	O	-0.019095	-0.608766	0.190714
O60	O	0.230905	-0.358766	0.440714
O61	O	-0.309337	-1.108610	-0.519043
O62	O	-0.059337	-0.858610	-0.269043
O63	O	0.190663	-0.608610	-0.019043
O64	O	0.440663	-0.358610	0.230957
O65	O	-0.399722	-1.018235	-0.519012
O66	O	-0.149722	-0.768235	-0.269012
O67	O	0.100278	-0.518235	-0.019012
O68	O	0.350278	-0.268235	0.230988
C69	C	-0.354550	-0.872301	-0.354510
C70	C	-0.104550	-0.622301	-0.104510
C71	C	0.145450	-0.372301	0.145490
C72	C	0.395450	-0.122301	0.395490
C73	C	-0.354558	-0.790502	-0.354521
C74	C	-0.104558	-0.540502	-0.104521
C75	C	0.145442	-0.290502	0.145479
C76	C	0.395442	-0.040502	0.395479
C77	C	-0.546527	-1.063552	-0.354473
C78	C	-0.296527	-0.813552	-0.104473
C79	C	-0.046527	-0.563552	0.145527
C80	C	0.203473	-0.313552	0.395527
C81	C	-0.628326	-1.063571	-0.354452
C82	C	-0.378326	-0.813571	-0.104452
C83	C	-0.128326	-0.563571	0.145548
C84	C	0.121674	-0.313571	0.395548
C85	C	-0.401553	-0.602314	-0.401650
C86	C	-0.151553	-0.352314	-0.151650
C87	C	0.098447	-0.102314	0.098350
C88	C	0.348447	0.147686	0.348350
C89	C	-0.401561	-0.525455	-0.401652
C90	C	-0.151561	-0.275455	-0.151652
C91	C	0.098439	-0.025455	0.098348
C92	C	0.348439	0.224545	0.348348
C93	C	-0.307598	-0.525452	-0.307402
C94	C	-0.057598	-0.275452	-0.057402
C95	C	0.192402	-0.025452	0.192598
C96	C	0.442402	0.224548	0.442598
C97	C	-0.307594	-0.602309	-0.307397
C98	C	-0.057594	-0.352309	-0.057397
C99	C	0.192406	-0.102309	0.192603
C100	C	0.442406	0.147691	0.442603
C101	C	-0.354570	-0.640738	-0.354526
C102	C	-0.104570	-0.390738	-0.104526
C103	C	0.145430	-0.140738	0.145474
C104	C	0.395430	0.109262	0.395474
C105	C	-0.354582	-0.487022	-0.354532
C106	C	-0.104582	-0.237022	-0.104532
C107	C	0.145418	0.012978	0.145468
C108	C	0.395418	0.262978	0.395468
C109	C	-0.354591	-0.403688	-0.354533
C110	C	-0.104591	-0.153688	-0.104533
C111	C	0.145409	0.096312	0.145467
C112	C	0.395409	0.346312	0.395467
C113	C	-0.354563	-0.724077	-0.354524
C114	C	-0.104563	-0.474077	-0.104524
C115	C	0.145437	-0.224077	0.145476
C116	C	0.395437	0.025923	0.395476
C117	C	-0.816540	-1.110681	-0.307342
C118	C	-0.566540	-0.860681	-0.057342
C119	C	-0.316540	-0.610681	0.192658
C120	C	-0.066540	-0.360681	0.442658
C121	C	-0.893398	-1.110690	-0.307321
C122	C	-0.643398	-0.860690	-0.057321
C123	C	-0.393398	-0.610690	0.192679
C124	C	-0.143398	-0.360690	0.442679
C125	C	-0.893350	-1.016513	-0.401448
C126	C	-0.643350	-0.766513	-0.151448
C127	C	-0.393350	-0.516513	0.098552
C128	C	-0.143350	-0.266513	0.348552
C129	C	-0.816493	-1.016501	-0.401465
C130	C	-0.566493	-0.766501	-0.151465
C131	C	-0.316493	-0.516501	0.098535
C132	C	-0.066493	-0.266501	0.348535
C133	C	-0.778089	-1.063589	-0.354413
C134	C	-0.528089	-0.813589	-0.104413
C135	C	-0.278089	-0.563589	0.145587
C136	C	-0.028089	-0.313589	0.395587
C137	C	-0.931806	-1.063610	-0.354375
C138	C	-0.681806	-0.813610	-0.104375
C139	C	-0.431806	-0.563610	0.145625
C140	C	-0.181806	-0.313610	0.395625
C141	C	-1.015139	-1.063619	-0.354352
C142	C	-0.765139	-0.813619	-0.104352
C143	C	-0.515139	-0.563619	0.145648
C144	C	-0.265139	-0.313619	0.395648
C145	C	-0.694750	-1.063579	-0.354435
C146	C	-0.444750	-0.813579	-0.104435
C147	C	-0.194750	-0.563579	0.145565
C148	C	0.055250	-0.313579	0.395565
C149	C	-0.163368	-1.063504	-0.354522
C150	C	0.086632	-0.813504	-0.104522
C151	C	0.336632	-0.563504	0.145478
C152	C	0.586632	-0.313504	0.395478
C153	C	-0.081569	-1.063628	-0.354336
C154	C	0.168431	-0.813628	-0.104336
C155	C	0.418431	-0.563628	0.145664
C156	C	0.668431	-0.313628	0.395664
C157	C	-0.354538	-1.063429	-0.545731
C158	C	-0.104538	-0.813429	-0.295731
C159	C	0.145462	-0.563429	-0.045731
C160	C	0.395462	-0.313429	0.204269
C161	C	-0.354548	-1.063463	-0.627529
C162	C	-0.104548	-0.813463	-0.377529
C163	C	0.145452	-0.563463	-0.127529
C164	C	0.395452	-0.313463	0.122471
C165	C	-0.354595	-0.255460	-0.354537
C166	C	-0.104595	-0.005460	-0.104537
C167	C	0.145405	0.244540	0.145463
C168	C	0.395405	0.494540	0.395463
C169	C	-0.354595	-0.337259	-0.354536
C170	C	-0.104595	-0.087259	-0.104536
C171	C	0.145405	0.162741	0.145464
C172	C	0.395405	0.412741	0.395464
C173	C	-0.307571	-1.110632	-0.815715
C174	C	-0.057571	-0.860632	-0.565715
C175	C	0.192429	-0.610632	-0.315715
C176	C	0.442429	-0.360632	-0.065715
C177	C	-0.307589	-1.110665	-0.892574
C178	C	-0.057589	-0.860665	-0.642574
C179	C	0.192411	-0.610665	-0.392574
C180	C	0.442411	-0.360665	-0.142574
C181	C	-0.401629	-1.016476	-0.892581
C182	C	-0.151629	-0.766476	-0.642581
C183	C	0.098371	-0.516476	-0.392581
C184	C	0.348371	-0.266476	-0.142581
C185	C	-0.401615	-1.016447	-0.815724
C186	C	-0.151615	-0.766447	-0.565724
C187	C	0.098385	-0.516447	-0.315724
C188	C	0.348385	-0.266447	-0.065724
C189	C	-0.354581	-1.063524	-0.777293
C190	C	-0.104581	-0.813524	-0.527293
C191	C	0.145419	-0.563524	-0.277293
C192	C	0.395419	-0.313524	-0.027293
C193	C	-0.354614	-1.063586	-0.931009
C194	C	-0.104614	-0.813586	-0.681009
C195	C	0.145386	-0.563586	-0.431009
C196	C	0.395386	-0.313586	-0.181009
C197	C	-0.354634	-1.063621	-1.014343
C198	C	-0.104634	-0.813621	-0.764343
C199	C	0.145366	-0.563621	-0.514343
C200	C	0.395366	-0.313621	-0.264343
C201	C	-0.354563	-1.063490	-0.693954
C202	C	-0.104563	-0.813490	-0.443954
C203	C	0.145437	-0.563490	-0.193954
C204	C	0.395437	-0.313490	0.056046
C205	C	-0.354625	-1.063605	-0.162571
C206	C	-0.104625	-0.813605	0.087429
C207	C	0.145375	-0.563605	0.337429
C208	C	0.395375	-0.313605	0.587429
C209	C	-0.354648	-1.063647	-0.080772
C210	C	-0.104648	-0.813647	0.169228
C211	C	0.145352	-0.563647	0.419228
C212	C	0.395352	-0.313647	0.669228
H213	H	-0.439819	-0.494174	-0.440025
H214	H	-0.189819	-0.244174	-0.190025
H215	H	0.060181	0.005826	0.059975
H216	H	0.310181	0.255826	0.309975
N217	N	-0.934784	-0.965736	-0.452193
N218	N	-0.684784	-0.715736	-0.202193
N219	N	-0.434784	-0.465736	0.047807
N220	N	-0.184784	-0.215736	0.297807
H221	H	-0.921398	-0.977135	-0.504780
H222	H	-0.671398	-0.727135	-0.254780
H223	H	-0.421398	-0.477135	-0.004780
H224	H	-0.171398	-0.227135	0.245220
H225	H	-0.921391	-0.913176	-0.440701
H226	H	-0.671391	-0.663176	-0.190701
H227	H	-0.421391	-0.413176	0.059299
H228	H	-0.171391	-0.163176	0.309299
H229	H	-0.269351	-0.494153	-0.269033
H230	H	-0.019351	-0.244153	-0.019033
H231	H	0.230649	0.005847	0.230967
H232	H	0.480649	0.255847	0.480967
N233	N	-0.452318	-0.965636	-0.774273
N234	N	-0.202318	-0.715636	-0.524273
N235	N	0.047682	-0.465636	-0.274273
N236	N	0.297682	-0.215636	-0.024273
H237	H	-0.504915	-0.977036	-0.787600
H238	H	-0.254915	-0.727036	-0.537600
H239	H	-0.004915	-0.477036	-0.287600
H240	H	0.245085	-0.227036	-0.037600
H241	H	-0.440777	-0.913085	-0.787712
H242	H	-0.190777	-0.663085	-0.537712
H243	H	0.059223	-0.413085	-0.287712
H244	H	0.309223	-0.163085	-0.037712
N245	N	-0.775014	-0.965691	-0.452222
N246	N	-0.525014	-0.715691	-0.202222
N247	N	-0.275014	-0.465691	0.047778
N248	N	-0.025014	-0.215691	0.297778
H249	H	-0.811004	-0.935863	-0.482026
H250	H	-0.561004	-0.685863	-0.232026
H251	H	-0.311004	-0.435863	0.017974
H252	H	-0.061004	-0.185863	0.267974
H253	H	-0.743113	-0.995615	-0.486290
H254	H	-0.493113	-0.745615	-0.236290
H255	H	-0.243113	-0.495615	0.013710
H256	H	0.006887	-0.245615	0.263710
N257	N	-0.452217	-0.643764	-0.452478
N258	N	-0.202217	-0.393764	-0.202478
N259	N	0.047783	-0.143764	0.047522
N260	N	0.297783	0.106236	0.297522
H261	H	-0.481982	-0.607757	-0.482331
H262	H	-0.231982	-0.357757	-0.232331
H263	H	0.018018	-0.107757	0.017669
H264	H	0.268018	0.142243	0.267669
H265	H	-0.486326	-0.675679	-0.422563
H266	H	-0.236326	-0.425679	-0.172563
H267	H	0.013674	-0.175679	0.077437
H268	H	0.263674	0.074321	0.327437
H269	H	-0.269275	-1.148966	-0.784426
H270	H	-0.019275	-0.898966	-0.534426
H271	H	0.230725	-0.648966	-0.284426
H272	H	0.480725	-0.398966	-0.034426
N273	N	-0.256876	-1.161467	-0.934013
N274	N	-0.006876	-0.911467	-0.684013
N275	N	0.243124	-0.661467	-0.434013
N276	N	0.493124	-0.411467	-0.184013
H277	H	-0.264021	-1.154345	-0.988534
H278	H	-0.014021	-0.904345	-0.738534
H279	H	0.235979	-0.654345	-0.488534
H280	H	0.485979	-0.404345	-0.238534
H281	H	-0.268374	-1.214015	-0.920526
H282	H	-0.018374	-0.964015	-0.670526
H283	H	0.231626	-0.714015	-0.420526
H284	H	0.481626	-0.464015	-0.170526
N285	N	-0.256918	-0.643765	-0.256572
N286	N	-0.006918	-0.393765	-0.006572
N287	N	0.243082	-0.143765	0.243428
N288	N	0.493082	0.106235	0.493428
H289	H	-0.286890	-0.675676	-0.222507
H290	H	-0.036890	-0.425676	0.027493
H291	H	0.213110	-0.175676	0.277493
H292	H	0.463110	0.074324	0.527493
H293	H	-0.227163	-0.607718	-0.226768
H294	H	0.022837	-0.357718	0.023232
H295	H	0.272837	-0.107718	0.273232
H296	H	0.522837	0.142282	0.523232
H297	H	-0.439921	-0.978146	-0.923881
H298	H	-0.189921	-0.728146	-0.673881
H299	H	0.060079	-0.478146	-0.423881
H300	H	0.310079	-0.228146	-0.173881
H301	H	-0.785274	-1.149021	-0.269028
H302	H	-0.535274	-0.899021	-0.019028
H303	H	-0.285274	-0.649021	0.230972
H304	H	-0.035274	-0.399021	0.480972
H305	H	-0.924701	-1.149035	-0.268990
H306	H	-0.674701	-0.899035	-0.018990
H307	H	-0.424701	-0.649035	0.231010
H308	H	-0.174701	-0.399035	0.481010
