data_functionalizedCrystal
_audit_creation_method	'MofGen! by Chris Wilmer'
_symmetry_space_group_name_H-M	'P1'
_symmetry_Int_Tables_number	1
_symmetry_cell_setting	triclinic
loop_
_symmetry_equiv_pos_as_xyz
  x,y,z
_cell_length_a	21.395362
_cell_length_b	18.050589
_cell_length_c	21.395355
_cell_angle_alpha	89.987098
_cell_angle_beta	89.956060
_cell_angle_gamma	90.044101
loop_
_atom_site_label
_atom_site_type_symbol
_atom_site_fract_x
_atom_site_fract_y
_atom_site_fract_z
Zn1	Zn	0.957870	-0.295431	-0.354610
Zn2	Zn	1.457870	0.204569	0.145390
Zn3	Zn	0.957777	-0.419603	-0.249843
Zn4	Zn	1.457777	0.080397	0.250157
Zn5	Zn	0.853085	-0.295465	-0.249811
Zn6	Zn	1.353085	0.204535	0.250189
Zn7	Zn	0.853059	-0.419618	-0.354548
Zn8	Zn	1.353059	0.080382	0.145452
O9	O	0.905448	-0.357529	-0.302203
O10	O	1.405448	0.142471	0.197797
O11	O	1.045536	-0.311882	-0.340752
O12	O	1.545536	0.188118	0.159248
O13	O	0.943862	-0.403144	-0.162161
O14	O	1.443862	0.096856	0.337839
O15	O	0.867035	-0.191536	-0.263726
O16	O	1.367035	0.308464	0.236274
O17	O	1.045468	-0.403110	-0.263780
O18	O	1.545468	0.096890	0.236220
O19	O	0.944020	-0.191511	-0.340721
O20	O	1.444020	0.308489	0.159279
O21	O	0.866945	-0.311940	-0.162138
O22	O	1.366945	0.188060	0.337862
O23	O	0.765404	-0.311955	-0.263665
O24	O	1.265404	0.188045	0.236335
O25	O	0.866990	-0.403136	-0.442234
O26	O	1.366990	0.096864	0.057766
O27	O	0.765385	-0.403170	-0.340615
O28	O	1.265385	0.096830	0.159385
O29	O	0.943995	-0.311896	-0.442280
O30	O	1.443995	0.188104	0.057720
O31	O	0.943836	-0.523529	-0.263719
O32	O	1.443836	-0.023529	0.236281
O33	O	0.866900	-0.523540	-0.340645
O34	O	1.366900	-0.023540	0.159355
C35	C	0.742660	-0.357568	-0.302130
C36	C	1.242660	0.142432	0.197870
C37	C	0.673019	-0.357603	-0.302114
C38	C	1.173019	0.142397	0.197886
C39	C	0.640312	-0.405161	-0.342121
C40	C	1.140312	0.094839	0.157879
C41	C	0.574877	-0.405143	-0.342149
C42	C	1.074877	0.094857	0.157851
C43	C	0.542151	-0.357574	-0.302159
C44	C	1.042151	0.142426	0.197841
C45	C	0.574865	-0.310007	-0.262148
C46	C	1.074865	0.189993	0.237852
C47	C	0.640300	-0.310021	-0.262126
C48	C	1.140300	0.189979	0.237874
C49	C	0.438426	-0.351592	-0.245753
C50	C	0.938426	0.148408	0.254247
C51	C	0.372993	-0.351583	-0.245774
C52	C	0.872993	0.148417	0.254226
C53	C	0.340330	-0.357526	-0.302228
C54	C	0.840330	0.142474	0.197772
C55	C	0.373108	-0.363494	-0.358662
C56	C	0.873108	0.136506	0.141338
C57	C	0.438542	-0.363508	-0.358640
C58	C	0.938542	0.136492	0.141360
C59	C	0.471198	-0.357553	-0.302179
C60	C	0.971198	0.142447	0.197821
C61	C	0.236671	-0.405067	-0.342269
C62	C	0.736671	0.094933	0.157731
C63	C	0.171234	-0.405044	-0.342298
C64	C	0.671234	0.094956	0.157702
C65	C	0.171224	-0.309911	-0.262291
C66	C	0.671224	0.190089	0.237709
C67	C	0.236659	-0.309931	-0.262268
C68	C	0.736659	0.190069	0.237732
C69	C	0.269379	-0.357513	-0.302256
C70	C	0.769379	0.142487	0.197744
C71	C	0.905372	-0.550481	-0.302192
C72	C	1.405372	-0.050481	0.197808
C73	C	0.905397	-0.633027	-0.302209
C74	C	1.405397	-0.133027	0.197791
C75	C	0.863601	-0.832511	-0.344027
C76	C	1.363601	-0.332511	0.155973
C77	C	0.848322	-0.881943	-0.286848
C78	C	1.348322	-0.381943	0.213152
C79	C	0.905459	-0.784157	-0.302217
C80	C	1.405459	-0.284157	0.197783
C81	C	0.920768	-0.881806	-0.359402
C82	C	1.420768	-0.381806	0.140598
C83	C	0.905517	-0.930142	-0.302230
C84	C	1.405517	-0.430142	0.197770
C85	C	0.890151	-0.832503	-0.245009
C86	C	1.390151	-0.332503	0.254991
C87	C	0.962623	-0.832361	-0.317601
C88	C	1.462623	-0.332361	0.182399
C89	C	0.947366	-0.881772	-0.260383
C90	C	1.447366	-0.381772	0.239617
C91	C	0.905424	-0.700059	-0.302211
C92	C	1.405424	-0.200059	0.197789
C93	C	0.905552	-1.014239	-0.302230
C94	C	1.405552	-0.514239	0.197770
C95	C	1.068871	-0.357490	-0.302276
C96	C	1.568871	0.142510	0.197724
C97	C	1.138513	-0.357474	-0.302307
C98	C	1.638513	0.142526	0.197693
C99	C	0.905500	-0.357514	-0.465626
C100	C	1.405500	0.142486	0.034374
C101	C	0.905522	-0.357508	-0.535268
C102	C	1.405522	0.142492	-0.035268
C103	C	0.905541	-0.163823	-0.302227
C104	C	1.405541	0.336177	0.197773
C105	C	0.905581	-0.081278	-0.302237
C106	C	1.405581	0.418722	0.197763
C107	C	0.945617	-0.309997	-0.568006
C108	C	1.445617	0.190003	-0.068006
C109	C	0.945616	-0.309965	-0.633441
C110	C	1.445616	0.190035	-0.133441
C111	C	0.905527	-0.357457	-0.666136
C112	C	1.405527	0.142543	-0.166136
C113	C	0.865425	-0.404971	-0.633390
C114	C	1.365425	0.095029	-0.133390
C115	C	0.865422	-0.404996	-0.567956
C116	C	1.365422	0.095004	-0.067956
C117	C	0.900554	-0.424328	-0.769805
C118	C	1.400554	0.075672	-0.269805
C119	C	0.900560	-0.424304	-0.835238
C120	C	1.400560	0.075696	-0.335238
C121	C	0.905531	-0.357379	-0.867957
C122	C	1.405531	0.142621	-0.367957
C123	C	0.910508	-0.290475	-0.835234
C124	C	1.410508	0.209525	-0.335234
C125	C	0.910505	-0.290501	-0.769800
C126	C	1.410505	0.209499	-0.269800
C127	C	0.905525	-0.357435	-0.737088
C128	C	1.405525	0.142565	-0.237088
C129	C	0.945627	-0.309829	-0.971647
C130	C	1.445627	0.190171	-0.471647
C131	C	0.945621	-0.309796	-1.037084
C132	C	1.445621	0.190204	-0.537084
C133	C	0.865434	-0.404809	-1.037032
C134	C	1.365434	0.095191	-0.537032
C135	C	0.865436	-0.404835	-0.971596
C136	C	1.365436	0.095165	-0.471596
C137	C	0.905535	-0.357347	-0.938908
C138	C	1.405535	0.142653	-0.438908
C139	C	0.905432	-0.357490	-0.139415
C140	C	1.405432	0.142510	0.360585
C141	C	0.905531	-0.357288	-0.069774
C142	C	1.405531	0.142712	0.430226
H143	H	0.263312	-0.443807	-0.374833
H144	H	0.763312	0.056193	0.125167
H145	H	0.465014	-0.346749	-0.199778
H146	H	0.965014	0.153251	0.300222
O147	O	0.895191	-0.496516	-0.734519
O148	O	1.395191	0.003484	-0.234519
H149	H	0.852742	-0.495360	-0.704681
H150	H	1.352742	0.004640	-0.204681
H151	H	0.933693	-0.903463	-0.407758
H152	H	1.433693	-0.403463	0.092242
O153	O	0.915872	-0.218346	-0.734508
O154	O	1.415872	0.281654	-0.234508
H155	H	0.873905	-0.210792	-0.704660
H156	H	1.373905	0.289208	-0.204660
H157	H	0.828150	-0.810879	-0.379334
H158	H	1.328150	-0.310879	0.120666
O159	O	1.026627	-0.803488	-0.334772
O160	O	1.526627	-0.303488	0.165228
H161	H	1.061421	-0.824118	-0.300490
H162	H	1.561421	-0.324118	0.199510
H163	H	0.548216	-0.271275	-0.229589
H164	H	1.048216	0.228725	0.270411
H165	H	0.346310	-0.346728	-0.199822
H166	H	0.846310	0.153272	0.300178
H167	H	0.346516	-0.368333	-0.404632
H168	H	0.846516	0.131667	0.095368
O169	O	0.675583	-0.258739	-0.218962
O170	O	1.175583	0.241261	0.281038
H171	H	0.641836	-0.225662	-0.191152
H172	H	1.141836	0.274338	0.308848
H173	H	0.982789	-0.903266	-0.224991
H174	H	1.482789	-0.403266	0.275009
O175	O	0.784324	-0.910793	-0.269608
O176	O	1.284324	-0.410793	0.230392
H177	H	0.749636	-0.891070	-0.304374
H178	H	1.249636	-0.391070	0.195626
O179	O	0.872951	-0.803945	-0.180937
O180	O	1.372951	-0.303945	0.319063
H181	H	0.873036	-0.742457	-0.181442
H182	H	1.373036	-0.242457	0.318558
O183	O	0.675604	-0.456469	-0.385258
O184	O	1.175604	0.043531	0.114742
H185	H	0.641863	-0.489530	-0.413087
H186	H	1.141863	0.010470	0.086913
H187	H	0.978268	-0.271327	-0.541395
H188	H	1.478268	0.228673	-0.041395
O189	O	0.988867	-0.258605	-0.936383
O190	O	1.488867	0.241395	-0.436383
H191	H	1.016740	-0.225552	-0.970144
H192	H	1.516740	0.274448	-0.470144
H193	H	0.832786	-0.443470	-1.063651
H194	H	1.332786	0.056530	-0.563651
O195	O	0.135932	-0.258612	-0.219153
O196	O	0.635932	0.241388	0.280847
H197	H	0.106176	-0.220873	-0.247258
H198	H	0.606176	0.279127	0.252742
O199	O	0.988867	-0.258727	-0.668764
O200	O	1.488867	0.241273	-0.168764
H201	H	1.016753	-0.225714	-0.635041
H202	H	1.516753	0.274286	-0.135041
H203	H	0.914556	-0.235979	-0.861872
H204	H	1.414556	0.264021	-0.361872
O205	O	0.539604	-0.456458	-0.385299
O206	O	1.039604	0.043542	0.114701
H207	H	0.509854	-0.423285	-0.417247
H208	H	1.009854	0.076715	0.082753
O209	O	0.988869	-0.258552	-1.072400
O210	O	1.488869	0.241448	-0.572400
H211	H	1.016755	-0.225542	-1.038674
H212	H	1.516755	0.274458	-0.538674
H213	H	0.832790	-0.443528	-0.944941
H214	H	1.332790	0.056472	-0.444941
O215	O	0.271943	-0.258655	-0.219100
O216	O	0.771943	0.241345	0.280900
H217	H	0.238195	-0.225582	-0.191289
H218	H	0.738195	0.274418	0.308711
H219	H	0.896512	-0.478780	-0.861876
H220	H	1.396512	0.021220	-0.361876
H221	H	0.832782	-0.443637	-0.660014
H222	H	1.332782	0.056363	-0.160014
O223	O	0.822162	-0.456225	-0.532639
O224	O	1.322162	0.043775	-0.032639
H225	H	0.794280	-0.489240	-0.566364
H226	H	1.294280	0.010760	-0.066364
H227	H	0.144605	-0.443770	-0.374881
H228	H	0.644605	0.056230	0.125119
O229	O	0.473899	-0.369930	-0.419502
O230	O	0.973899	0.130070	0.080498
H231	H	0.440199	-0.374053	-0.458766
H232	H	0.940199	0.125947	0.041234
