data_functionalizedCrystal
_audit_creation_method	'MofGen! by Chris Wilmer'
_symmetry_space_group_name_H-M	'P1'
_symmetry_Int_Tables_number	1
_symmetry_cell_setting	triclinic
loop_
_symmetry_equiv_pos_as_xyz
  x,y,z
_cell_length_a	14.519731
_cell_length_b	14.519709
_cell_length_c	9.130307
_cell_angle_alpha	89.995756
_cell_angle_beta	89.998388
_cell_angle_gamma	83.684499
loop_
_atom_site_label
_atom_site_type_symbol
_atom_site_fract_x
_atom_site_fract_y
_atom_site_fract_z
O1	O	1.223852	0.120983	-0.121806
O2	O	0.955377	0.135199	-0.121808
O3	O	1.096733	-0.006147	-0.121794
O4	O	1.082496	0.262329	-0.121820
O5	O	1.096728	-0.006148	0.121805
O6	O	0.955373	0.135198	0.121791
O7	O	1.223847	0.120982	0.121793
Cu8	Cu	1.089609	0.128090	0.144034
Cu9	Cu	1.089615	0.128091	-0.144050
O10	O	1.082492	0.262328	0.121779
C11	C	0.921016	0.134532	-0.000009
C12	C	0.818635	0.132536	-0.000010
C13	C	0.735491	0.130915	-0.000015
C14	C	0.631182	0.128888	-0.000016
C15	C	0.548043	0.127280	-0.000016
C16	C	0.443728	0.125253	-0.000019
C17	C	1.096067	-0.040507	0.000006
C18	C	1.094079	-0.142889	0.000007
C19	C	1.086759	-0.517785	-0.000031
C20	C	1.088792	-0.413477	-0.000020
C21	C	1.090419	-0.330340	-0.000011
C22	C	1.092452	-0.226025	-0.000003
C23	C	1.258209	0.121649	-0.000009
C24	C	1.360589	0.123645	-0.000018
C25	C	1.083157	0.296688	-0.000024
C26	C	1.085146	0.399070	-0.000035
N27	N	1.089612	0.128088	0.346657
N28	N	1.089619	0.128086	-0.346672
C29	C	1.214833	0.002962	0.346660
C30	C	1.277450	-0.059598	0.423328
C31	C	1.277459	-0.059598	0.576662
C32	C	1.214843	0.002966	0.653331
C33	C	1.152227	0.065526	0.576662
C34	C	1.152226	0.065522	0.423325
C35	C	1.027003	0.190646	0.576659
C36	C	1.026996	0.190653	0.423326
C37	C	0.964387	0.253210	0.653328
C38	C	0.901773	0.315777	0.576660
C39	C	0.901767	0.315775	0.423317
C40	C	0.964380	0.253213	0.346658
H41	H	1.328430	-0.110539	0.360891
H42	H	1.214840	0.002964	0.221808
O43	O	0.964241	0.253307	0.802275
C44	C	0.895567	0.321956	0.853499
H45	H	0.840654	0.337905	0.765140
H46	H	0.861935	0.295895	0.956091
H47	H	0.928578	0.387577	0.880688
O48	O	1.338367	-0.120408	0.650918
C49	C	1.393610	-0.175650	0.550379
H50	H	1.394715	-0.137840	0.441069
H51	H	1.467232	-0.189550	0.594684
H52	H	1.363557	-0.244230	0.534085
H53	H	1.214847	0.002954	0.778183
O54	O	0.840825	0.376450	0.651070
C55	C	0.749516	0.361254	0.613582
H56	H	0.748955	0.287418	0.571424
H57	H	0.703255	0.371741	0.714426
H58	H	0.722504	0.412315	0.524586
H59	H	0.850773	0.366716	0.360902
O60	O	0.964279	0.253362	0.197711
C61	C	0.895569	0.321975	0.146474
H62	H	0.879566	0.376879	0.234826
H63	H	0.921594	0.355636	0.043881
H64	H	0.829989	0.288894	0.119282
