data_functionalizedCrystal
_audit_creation_method	'MofGen! by Chris Wilmer'
_symmetry_space_group_name_H-M	'P1'
_symmetry_Int_Tables_number	1
_symmetry_cell_setting	triclinic
loop_
_symmetry_equiv_pos_as_xyz
  x,y,z
_cell_length_a	15.298708
_cell_length_b	15.297327
_cell_length_c	11.169409
_cell_angle_alpha	80.360209
_cell_angle_beta	80.355343
_cell_angle_gamma	107.405650
loop_
_atom_site_label
_atom_site_type_symbol
_atom_site_fract_x
_atom_site_fract_y
_atom_site_fract_z
Zn1	Zn	1.357714	-0.123840	0.395017
Zn2	Zn	1.330667	-0.279418	0.236334
Zn3	Zn	1.202176	-0.150842	0.236306
Zn4	Zn	1.175243	-0.306272	0.478873
O5	O	1.266450	-0.215093	0.336633
O6	O	1.484265	-0.121939	0.338885
O7	O	1.313575	-0.262425	0.068406
O8	O	1.245399	-0.017102	0.222253
O9	O	1.464394	-0.236242	0.222302
O10	O	1.359672	0.002736	0.338858
O11	O	1.219172	-0.167960	0.068385
O12	O	1.068464	-0.193999	0.303565
O13	O	1.199496	-0.282010	0.635674
O14	O	1.048677	-0.308193	0.481778
O15	O	1.333557	-0.147978	0.574065
O16	O	1.287459	-0.413139	0.303614
O17	O	1.173270	-0.432868	0.481806
C18	C	1.024827	-0.256941	0.401769
C19	C	0.921455	-0.274866	0.429669
C20	C	0.671239	-0.087214	0.137584
C21	C	0.768362	-0.070368	0.111370
C22	C	0.806640	-0.121491	0.190942
C23	C	0.747785	-0.189463	0.296733
C24	C	0.650653	-0.206307	0.322955
C25	C	0.786055	-0.240583	0.376313
C26	C	0.727199	-0.308556	0.482104
C27	C	0.630077	-0.325396	0.508320
C28	C	0.591799	-0.274273	0.428748
C29	C	0.883187	-0.223740	0.350092
C30	C	0.862601	-0.342832	0.535463
C31	C	0.765478	-0.359679	0.561676
C32	C	1.224532	-0.456748	0.401832
C33	C	1.206685	-0.560114	0.429741
C34	C	1.394392	-0.810236	0.137465
C35	C	1.411160	-0.713119	0.111236
C36	C	1.360043	-0.674863	0.190860
C37	C	1.292154	-0.733734	0.296717
C38	C	1.275380	-0.830862	0.322943
C39	C	1.241031	-0.695488	0.376338
C40	C	1.173142	-0.754359	0.482195
C41	C	1.156371	-0.851477	0.508417
C42	C	1.207488	-0.889733	0.428793
C43	C	1.257806	-0.598360	0.350113
C44	C	1.138793	-0.618985	0.535591
C45	C	1.122025	-0.716103	0.561819
C46	C	1.509017	-0.173083	0.271243
C47	C	1.612385	-0.155181	0.243378
C48	C	1.266539	-0.214978	0.649628
C49	C	1.266577	-0.214928	0.783008
C50	C	1.308557	0.027509	0.271198
C51	C	1.326500	0.130892	0.243314
C52	C	1.266426	-0.215132	0.024822
C53	C	1.266614	-0.214888	-0.108676
H54	H	0.582160	-0.380737	0.594469
H55	H	1.435998	-0.841395	0.072640
C56	C	1.308330	-0.560698	0.126652
C57	C	1.332429	-0.533657	0.233764
H58	H	1.354407	-0.520755	0.054821
H59	H	1.248599	-0.555659	0.121591
H60	H	1.305654	-0.624017	0.130895
H61	H	1.335098	-0.470339	0.229525
H62	H	1.392176	-0.538687	0.238825
H63	H	0.717544	-0.415022	0.647813
H64	H	0.893767	-0.384458	0.600260
C65	C	1.527119	-0.702494	-0.069451
C66	C	1.485788	-0.648410	-0.005106
H67	H	1.573199	-0.662541	-0.141273
H68	H	1.480067	-0.747449	-0.094241
H69	H	1.556134	-0.734158	-0.016478
H70	H	1.456766	-0.616751	-0.058075
H71	H	1.532847	-0.603437	0.019682
C72	C	1.043472	-0.874145	0.684363
C73	C	1.047396	-0.780822	0.678168
H74	H	0.997395	-0.914099	0.756188
H75	H	1.103207	-0.879167	0.689431
H76	H	1.027135	-0.892464	0.611676
H77	H	1.063740	-0.762501	0.750851
H78	H	0.987648	-0.775796	0.673111
H79	H	0.640064	-0.045592	0.072813
H80	H	1.097167	-0.587839	0.600426
H81	H	1.193841	-0.968813	0.450144
H82	H	1.373699	-0.595785	0.169498
H83	H	0.885723	-0.107770	0.169593
H84	H	0.931098	-0.168393	0.263959
H85	H	0.512713	-0.287990	0.450082
H86	H	1.101081	-0.899410	0.594601
H87	H	0.816275	-0.015027	0.025233
