data_functionalizedCrystal
_audit_creation_method	'MofGen! by Chris Wilmer'
_symmetry_space_group_name_H-M	'P1'
_symmetry_Int_Tables_number	1
_symmetry_cell_setting	triclinic
loop_
_symmetry_equiv_pos_as_xyz
  x,y,z
_cell_length_a	17.019292
_cell_length_b	15.500215
_cell_length_c	14.044220
_cell_angle_alpha	87.067564
_cell_angle_beta	88.278650
_cell_angle_gamma	90.690427
loop_
_atom_site_label
_atom_site_type_symbol
_atom_site_fract_x
_atom_site_fract_y
_atom_site_fract_z
O1	O	-1.054843	-0.006675	-0.120339
O2	O	-0.827099	0.010302	-0.136672
O3	O	-0.937552	0.002060	0.009461
O4	O	-0.944390	0.001567	-0.266472
O5	O	-0.930472	-0.141302	0.017287
O6	O	-0.820020	-0.133060	-0.128846
O7	O	-1.047763	-0.150037	-0.112513
Cu8	Cu	-0.933245	-0.154638	-0.119965
Cu9	Cu	-0.941617	0.014904	-0.129220
O10	O	-0.937310	-0.141795	-0.258646
C11	C	-0.794237	-0.059193	-0.132296
C12	C	-0.706865	-0.052681	-0.130904
N13	N	-0.927362	-0.273886	-0.113455
C14	C	-0.661963	-0.127769	-0.125982
C15	C	-0.579868	-0.121653	-0.124659
C16	C	-0.542677	-0.040446	-0.128265
C17	C	-0.587585	0.034649	-0.133185
C18	C	-0.669679	0.028531	-0.134501
C19	C	-0.295000	-0.018065	-0.124498
C20	C	-0.212901	-0.011952	-0.123184
C21	C	-0.205190	-0.168254	-0.114656
C22	C	-0.287285	-0.174365	-0.115979
C23	C	-0.332186	-0.099270	-0.120893
C24	C	-0.458763	-0.034191	-0.126915
C25	C	-0.416099	-0.105526	-0.122236
C26	C	-0.976830	-0.322843	-0.168235
C27	C	-0.972391	-0.413085	-0.163306
C28	C	-0.918479	-0.454369	-0.103600
C29	C	-0.869009	-0.405405	-0.048813
C30	C	-0.873452	-0.315165	-0.053738
C31	C	-0.902480	-0.726645	-0.085861
C32	C	-0.898038	-0.816893	-0.080942
C33	C	-1.001422	-0.824566	-0.195434
C34	C	-1.005857	-0.734323	-0.200358
C35	C	-0.956390	-0.685368	-0.145567
C36	C	-0.913938	-0.546611	-0.098562
C37	C	-0.960935	-0.593128	-0.150601
C38	C	-0.080626	-0.080538	-0.116884
C39	C	-0.167999	-0.087041	-0.118262
C40	C	-0.931020	-0.069398	0.048672
C41	C	-0.922093	-0.068734	0.153849
N42	N	-0.947506	0.134151	-0.135723
C43	C	-0.943843	-0.070334	-0.297857
C44	C	-0.952770	-0.070993	-0.403034
C45	C	-0.905773	-0.067505	0.346420
C46	C	-0.969086	-0.072222	0.404400
C47	C	-0.960005	-0.071538	0.511553
C48	C	-0.914852	-0.068189	0.239257
H49	H	-0.692237	-0.193897	-0.123053
Br50	Br	-1.068552	-0.891009	-0.269788
Br51	Br	-0.355928	0.083850	-0.131166
Br52	Br	-1.070797	-0.079811	0.353009
Br53	Br	-0.730619	0.130441	-0.141173
H54	H	-0.844755	-0.062954	0.377256
Br55	Br	-1.078990	-0.678299	-0.281438
H56	H	-0.862200	-0.686797	-0.041246
H57	H	-0.317560	-0.240492	-0.113038
Br58	Br	-0.518931	-0.223564	-0.117994
H59	H	-0.833170	-0.275305	-0.009130
Br60	Br	-0.824866	-0.872920	0.000091
H61	H	-0.182622	0.054179	-0.126123
H62	H	-0.168622	-0.229392	-0.110653
H63	H	-0.557298	0.100769	-0.136114
Br64	Br	-1.049997	-0.266824	-0.249272
Br65	Br	-1.039530	-0.479524	-0.237654
Br66	Br	-0.840770	-0.602646	-0.017540
Br67	Br	-0.795845	-0.461432	0.032221
H68	H	-0.446384	-0.171644	-0.119295
H69	H	-0.428472	0.031927	-0.129851
H70	H	-1.004832	-0.559511	-0.199210
