data_functionalizedCrystal
_audit_creation_method	'MofGen! by Chris Wilmer'
_symmetry_space_group_name_H-M	'P1'
_symmetry_Int_Tables_number	1
_symmetry_cell_setting	triclinic
loop_
_symmetry_equiv_pos_as_xyz
  x,y,z
_cell_length_a	14.044191
_cell_length_b	19.188930
_cell_length_c	12.503572
_cell_angle_alpha	93.506241
_cell_angle_beta	86.162165
_cell_angle_gamma	88.168279
loop_
_atom_site_label
_atom_site_type_symbol
_atom_site_fract_x
_atom_site_fract_y
_atom_site_fract_z
O1	O	1.262490	0.164610	-0.089291
O2	O	1.762490	0.664610	0.410709
O3	O	0.986547	0.158532	-0.089304
O4	O	1.486547	0.658532	0.410696
O5	O	1.132480	0.060430	-0.089276
O6	O	1.632480	0.560430	0.410724
O7	O	1.116557	0.262712	-0.089319
O8	O	1.616557	0.762712	0.410681
O9	O	1.121505	0.067821	0.089364
O10	O	1.621505	0.567821	0.589364
O11	O	0.975571	0.165923	0.089336
O12	O	1.475571	0.665923	0.589336
O13	O	1.251515	0.172001	0.089349
O14	O	1.751515	0.672001	0.589349
Cu15	Cu	1.112541	0.169637	0.105654
Cu16	Cu	1.612541	0.669637	0.605654
Cu17	Cu	1.125520	0.160896	-0.105609
Cu18	Cu	1.625520	0.660896	0.394391
O19	O	1.105581	0.270103	0.089321
O20	O	1.605581	0.770103	0.589321
C21	C	0.945756	0.159568	0.000015
C22	C	1.445756	0.659568	0.500015
C23	C	0.840563	0.151637	0.000011
C24	C	1.340563	0.651637	0.500011
C25	C	0.590103	0.193385	0.000013
C26	C	1.090103	0.693385	0.500013
C27	C	0.647965	0.137150	0.000023
C28	C	1.147965	0.637150	0.500023
C29	C	0.755136	0.145213	0.000016
C30	C	1.255136	0.645213	0.500016
C31	C	0.482922	0.185324	0.000020
C32	C	0.982922	0.685324	0.500020
C33	C	1.126477	0.038081	0.000047
C34	C	1.626477	0.538081	0.500047
C35	C	1.124928	-0.039523	0.000056
C36	C	1.624928	0.460477	0.500056
C37	C	1.210557	-0.078919	0.000065
C38	C	1.710557	0.421081	0.500065
C39	C	1.209104	-0.151837	0.000048
C40	C	1.709104	0.348163	0.500048
C41	C	1.122015	-0.185356	0.000043
C42	C	1.622015	0.314644	0.500043
C43	C	1.036374	-0.145950	0.000028
C44	C	1.536374	0.354050	0.500028
C45	C	1.037831	-0.073034	0.000035
C46	C	1.537831	0.426966	0.500035
N47	N	1.051710	-0.295142	0.060835
N48	N	1.551710	0.204858	0.560835
N49	N	1.050332	-0.364410	0.060831
N50	N	1.550332	0.135590	0.560831
C51	C	1.117621	-0.405049	0.000021
C52	C	1.617621	0.094951	0.500021
N53	N	1.186354	-0.373803	-0.060771
N54	N	1.686354	0.126197	0.439229
N55	N	1.187734	-0.304529	-0.060762
N56	N	1.687734	0.195471	0.439238
C57	C	1.120426	-0.264421	0.000036
C58	C	1.620426	0.235579	0.500036
C59	C	1.201681	-0.523512	0.000010
C60	C	1.701681	-0.023512	0.500010
C61	C	1.200224	-0.596432	-0.000014
C62	C	1.700224	-0.096432	0.499986
C63	C	1.027491	-0.590543	-0.000023
C64	C	1.527491	-0.090543	0.499977
C65	C	1.028951	-0.517625	-0.000010
C66	C	1.528951	-0.017625	0.499990
C67	C	1.116048	-0.484114	0.000012
C68	C	1.616048	0.015886	0.500012
C69	C	1.292306	0.170964	0.000028
C70	C	1.792306	0.670964	0.500028
C71	C	1.397499	0.178895	0.000025
C72	C	1.897499	0.678895	0.500025
C73	C	1.111585	0.292451	-0.000004
C74	C	1.611585	0.792451	0.499996
C75	C	1.113134	0.370055	-0.000020
C76	C	1.613134	0.870055	0.499980
N77	N	1.103419	0.175785	0.254244
N78	N	1.603419	0.675785	0.754244
N79	N	1.134650	0.154743	-0.254199
N80	N	1.634650	0.654743	0.245801
C81	C	1.090000	0.184834	0.473357
C82	C	1.590000	0.684834	0.973357
C83	C	1.148066	0.145695	0.526695
C84	C	1.648066	0.645695	1.026695
C85	C	1.140599	0.150731	0.648617
C86	C	1.640599	0.650731	1.148617
C87	C	1.097465	0.179800	0.351424
C88	C	1.597465	0.679800	0.851424
H89	H	0.621053	0.247581	-0.000002
H90	H	1.121053	0.747581	0.499998
C91	C	1.297489	-0.486648	0.000018
C92	C	1.797489	0.013352	0.500018
N93	N	1.369653	-0.458884	0.000020
N94	N	1.869653	0.041116	0.500020
H95	H	0.617018	0.082947	-0.000041
H96	H	1.117018	0.582947	0.499959
H97	H	1.269957	-0.628508	-0.000012
H98	H	1.769957	-0.128508	0.499988
H99	H	1.281479	-0.051639	0.000079
H100	H	1.781479	0.448361	0.500079
H101	H	1.278836	-0.183920	0.000051
H102	H	1.778836	0.316080	0.500051
H103	H	0.965466	-0.173246	0.000022
H104	H	1.465466	0.326754	0.500022
H105	H	1.203386	0.108406	0.480793
H106	H	1.703386	0.608406	0.980793
H107	H	0.956582	-0.617833	-0.000032
H108	H	1.456582	-0.117833	0.499968
H109	H	1.034685	0.222122	0.519254
H110	H	1.534685	0.722122	1.019254
H111	H	0.968099	-0.040958	0.000028
H112	H	1.468099	0.459042	0.500028
H113	H	0.959222	-0.485548	-0.000011
H114	H	1.459222	0.014452	0.499989
