data_functionalizedCrystal
_audit_creation_method	'MofGen! by Chris Wilmer'
_symmetry_space_group_name_H-M	'P1'
_symmetry_Int_Tables_number	1
_symmetry_cell_setting	triclinic
loop_
_symmetry_equiv_pos_as_xyz
  x,y,z
_cell_length_a	16.992694
_cell_length_b	17.699083
_cell_length_c	16.776229
_cell_angle_alpha	90.007545
_cell_angle_beta	90.001346
_cell_angle_gamma	86.975619
loop_
_atom_site_label
_atom_site_type_symbol
_atom_site_fract_x
_atom_site_fract_y
_atom_site_fract_z
O1	O	-1.040088	-0.160469	-0.066191
O2	O	-0.540088	0.339531	0.433809
O3	O	-0.811806	-0.158709	-0.066215
O4	O	-0.311806	0.341291	0.433785
O5	O	-0.932397	-0.049801	-0.066195
O6	O	-0.432397	0.450199	0.433805
O7	O	-0.919498	-0.269377	-0.066211
O8	O	-0.419498	0.230623	0.433789
O9	O	-0.932381	-0.049793	0.066381
O10	O	-0.432381	0.450207	0.566381
O11	O	-0.811790	-0.158701	0.066362
O12	O	-0.311790	0.341299	0.566362
O13	O	-1.040072	-0.160461	0.066385
O14	O	-0.540072	0.339539	0.566385
Zn15	Zn	-0.925929	-0.159580	0.087423
Zn16	Zn	-0.425929	0.340420	0.587423
Zn17	Zn	-0.925950	-0.159590	-0.087252
Zn18	Zn	-0.425950	0.340410	0.412748
O19	O	-0.919482	-0.269369	0.066366
O20	O	-0.419482	0.230631	0.566366
C21	C	-0.782590	-0.156440	0.000071
C22	C	-0.282590	0.343560	0.500071
C23	C	-0.695559	-0.149683	0.000062
C24	C	-0.195559	0.350317	0.500062
C25	C	-0.931927	-0.021572	0.000093
C26	C	-0.431927	0.478428	0.500093
C27	C	-0.930540	0.062533	0.000093
C28	C	-0.430540	0.562533	0.500093
C29	C	-1.069289	-0.162730	0.000098
C30	C	-0.569289	0.337270	0.500098
C31	C	-1.156320	-0.169487	0.000102
C32	C	-0.656320	0.330513	0.500102
C33	C	-0.645194	-0.214881	0.000058
C34	C	-0.145194	0.285119	0.500058
C35	C	-0.563420	-0.208527	0.000069
C36	C	-0.063420	0.291473	0.500069
C37	C	-0.532012	-0.136975	0.000079
C38	C	-0.032012	0.363025	0.500079
C39	C	-0.582383	-0.071772	0.000085
C40	C	-0.082383	0.428228	0.500085
C41	C	-0.664156	-0.078127	0.000080
C42	C	-0.164156	0.421873	0.500080
C43	C	-0.288464	-0.110639	0.000102
C44	C	0.211536	0.389361	0.500102
C45	C	-0.206685	-0.104290	0.000106
C46	C	0.293315	0.395710	0.500106
C47	C	-0.187727	-0.241045	0.000091
C48	C	0.312273	0.258955	0.500091
C49	C	-0.269503	-0.247393	0.000081
C50	C	0.230497	0.252607	0.500081
C51	C	-0.319867	-0.182190	0.000091
C52	C	0.180133	0.317810	0.500091
N53	N	-0.448425	-0.130479	0.000088
N54	N	0.051575	0.369521	0.500088
N55	N	-0.403451	-0.188687	0.000088
N56	N	0.096549	0.311313	0.500088
C57	C	-0.919952	-0.297598	0.000076
C58	C	-0.419952	0.202402	0.500076
C59	C	-0.921339	-0.381703	0.000070
C60	C	-0.421339	0.118297	0.500070
N61	N	-0.925920	-0.159572	0.206634
N62	N	-0.425920	0.340428	0.706634
C63	C	-1.001324	0.106747	0.000102
C64	C	-0.501324	0.606747	0.500102
C65	C	-1.000017	0.185771	0.000094
C66	C	-0.500017	0.685771	0.500094
C67	C	-0.927924	0.220581	0.000085
C68	C	-0.427924	0.720581	0.500085
C69	C	-0.857135	0.176361	0.000074
C70	C	-0.357135	0.676361	0.500074
C71	C	-0.858443	0.097338	0.000075
C72	C	-0.358443	0.597338	0.500075
C73	C	-0.851857	0.495053	0.000067
C74	C	-0.351857	0.995053	0.500067
C75	C	-0.850554	0.574082	0.000068
C76	C	-0.350554	1.074082	0.500068
C77	C	-0.993430	0.583486	0.000086
C78	C	-0.493430	1.083486	0.500086
C79	C	-0.994739	0.504463	0.000087
C80	C	-0.494739	1.004463	0.500087
C81	C	-0.923950	0.460250	0.000072
C82	C	-0.423950	0.960250	0.500072
C83	C	-0.925368	0.374563	0.000079
C84	C	-0.425368	0.874563	0.500079
C85	C	-0.926505	0.306267	0.000084
C86	C	-0.426505	0.806267	0.500084
N87	N	-0.925965	-0.159592	-0.206464
N88	N	-0.425965	0.340408	0.293536
C89	C	-0.979334	-0.111370	0.248360
C90	C	-0.479334	0.388630	0.748360
C91	C	-0.979338	-0.111370	0.331812
C92	C	-0.479338	0.388630	0.831812
C93	C	-0.925932	-0.159576	0.373537
C94	C	-0.425932	0.340424	0.873537
C95	C	-0.872513	-0.207780	0.331806
C96	C	-0.372513	0.292220	0.831806
C97	C	-0.872505	-0.207776	0.248355
C98	C	-0.372505	0.292224	0.748355
C99	C	-0.872541	-0.207797	0.668353
C100	C	-0.372541	0.292203	1.168353
C101	C	-0.872554	-0.207799	0.751809
C102	C	-0.372554	0.292201	1.251809
C103	C	-0.979374	-0.111390	0.751810
C104	C	-0.479374	0.388610	1.251810
C105	C	-0.979367	-0.111386	0.668359
C106	C	-0.479367	0.388614	1.168359
C107	C	-0.925945	-0.159587	0.626635
C108	C	-0.425945	0.340413	1.126635
C109	C	-0.925940	-0.159586	0.536147
C110	C	-0.425940	0.340414	1.036147
C111	C	-0.925940	-0.159582	0.464024
C112	C	-0.425940	0.340418	0.964024
H113	H	-0.670760	-0.273146	0.000050
H114	H	-0.170760	0.226854	0.500050
H115	H	-0.829045	-0.247045	0.634387
H116	H	-0.329045	0.252955	1.134387
H117	H	-0.705162	-0.025036	0.000082
H118	H	-0.205162	0.474964	0.500082
N119	N	-0.814943	-0.259787	0.796818
N120	N	-0.314943	0.240213	1.296818
H121	H	-0.823853	-0.314052	0.782285
H122	H	-0.323853	0.185948	1.282285
H123	H	-0.759346	-0.247599	0.782289
H124	H	-0.259346	0.252401	1.282289
H125	H	-0.791844	0.602420	0.000061
H126	H	-0.291844	1.102420	0.500061
H127	H	-0.295069	-0.305658	0.000063
H128	H	0.204931	0.194342	0.500063
N129	N	-1.079082	0.069205	0.000120
N130	N	-0.579082	0.569205	0.500120
H131	H	-1.123724	0.109209	0.000123
H132	H	-0.623724	0.609209	0.500123
H133	H	-1.082744	0.036615	-0.049026
H134	H	-0.582744	0.536615	0.450974
N135	N	-0.782103	0.049639	0.000083
N136	N	-0.282103	0.549639	0.500083
H137	H	-0.779465	0.016633	-0.049061
H138	H	-0.279465	0.516633	0.450939
H139	H	-0.736272	0.083724	0.000112
H140	H	-0.236272	0.583724	0.500112
H141	H	-0.146713	-0.294129	0.000084
H142	H	0.353287	0.205871	0.500084
N143	N	-1.036924	-0.059360	0.203362
N144	N	-0.536924	0.440640	0.703362
H145	H	-1.028814	-0.066667	0.144164
H146	H	-0.528814	0.433333	0.644164
H147	H	-1.092528	-0.071487	0.217935
H148	H	-0.592528	0.428513	0.717935
N149	N	-0.779380	0.213908	0.000066
N150	N	-0.279380	0.713908	0.500066
H151	H	-0.748370	0.198102	0.049208
H152	H	-0.248370	0.698102	0.549208
H153	H	-0.748443	0.198083	-0.049116
H154	H	-0.248443	0.698083	0.450884
N155	N	-1.076361	0.233461	0.000111
N156	N	-0.576361	0.733461	0.500111
H157	H	-1.107834	0.221757	-0.049027
H158	H	-0.607834	0.721757	0.450973
H159	H	-1.107745	0.221750	0.049298
H160	H	-0.607745	0.721750	0.549298
N161	N	-0.342785	-0.040321	0.000099
N162	N	0.157215	0.459679	0.500099
H163	H	-0.377137	-0.039904	0.049243
H164	H	0.122863	0.460096	0.549243
H165	H	-0.310428	0.005933	0.000071
H166	H	0.189572	0.505933	0.500071
N167	N	-1.069783	0.631176	0.000087
N168	N	-0.569783	1.131176	0.500087
H169	H	-1.115650	0.597132	0.000097
H170	H	-0.615650	1.097132	0.500097
H171	H	-1.072346	0.664176	0.049233
H172	H	-0.572346	1.164176	0.549233
H173	H	-0.522415	-0.261618	0.000065
H174	H	-0.022415	0.238382	0.500065
N175	N	-0.775509	0.447372	0.000054
N176	N	-0.275509	0.947372	0.500054
H177	H	-0.729643	0.481417	0.000052
H178	H	-0.229643	0.981417	0.500052
H179	H	-0.772933	0.414385	0.049201
H180	H	-0.272933	0.914385	0.549201
N181	N	-0.814914	-0.259773	0.376812
N182	N	-0.314914	0.240227	0.876812
H183	H	-0.823834	-0.314035	0.362276
H184	H	-0.323834	0.185965	0.862276
H185	H	-0.759313	-0.247595	0.362285
H186	H	-0.259313	0.252405	0.862285
H187	H	-0.829009	-0.247026	0.214383
H188	H	-0.329009	0.252974	0.714383
N189	N	-0.172806	-0.027112	0.000111
N190	N	0.327194	0.472888	0.500111
H191	H	-0.217119	0.013230	0.000117
H192	H	0.282881	0.513230	0.500117
H193	H	-0.139288	-0.021498	0.049259
H194	H	0.360712	0.478502	0.549259
N195	N	-1.072495	0.466919	0.000105
N196	N	-0.572495	0.966919	0.500105
H197	H	-1.117139	0.506920	0.000108
H198	H	-0.617139	1.006920	0.500108
H199	H	-1.076155	0.434329	-0.049042
H200	H	-0.576155	0.934329	0.450958
N201	N	-0.548511	0.005403	0.000109
N202	N	-0.048511	0.505403	0.500109
H203	H	-0.489066	-0.000463	0.000111
H204	H	0.010934	0.499537	0.500111
H205	H	-0.566943	0.034154	-0.049034
H206	H	-0.066943	0.534154	0.450966
H207	H	-1.022857	-0.072135	0.634389
H208	H	-0.522857	0.427865	1.134389
N209	N	-1.036975	-0.059408	0.376817
N210	N	-0.536975	0.440592	0.876817
H211	H	-1.070819	-0.028883	0.337722
H212	H	-0.570819	0.471117	0.837722
H213	H	-1.071564	-0.090529	0.411416
H214	H	-0.571564	0.409471	0.911416
N215	N	-1.036995	-0.059399	0.796812
N216	N	-0.536995	0.440601	1.296812
H217	H	-1.028897	-0.066711	0.856009
H218	H	-0.528897	0.433289	1.356009
H219	H	-1.028047	-0.005158	0.782234
H220	H	-0.528047	0.494842	1.282234
