data_functionalizedCrystal
_audit_creation_method	'MofGen! by Chris Wilmer'
_symmetry_space_group_name_H-M	'P1'
_symmetry_Int_Tables_number	1
_symmetry_cell_setting	triclinic
loop_
_symmetry_equiv_pos_as_xyz
  x,y,z
_cell_length_a	17.699083
_cell_length_b	16.109302
_cell_length_c	14.586319
_cell_angle_alpha	89.994552
_cell_angle_beta	89.995320
_cell_angle_gamma	83.372398
loop_
_atom_site_label
_atom_site_type_symbol
_atom_site_fract_x
_atom_site_fract_y
_atom_site_fract_z
O1	O	0.097287	1.102963	-0.076283
O2	O	0.109394	0.860880	-0.076276
O3	O	-0.006839	0.988761	-0.076272
O4	O	0.213520	0.975082	-0.076288
O5	O	-0.006841	0.988752	0.076209
O6	O	0.109392	0.860871	0.076204
O7	O	0.097285	1.102954	0.076197
Cu8	Cu	0.103339	0.981912	0.090124
Cu9	Cu	0.103341	0.981922	-0.090203
O10	O	0.213518	0.975073	0.076193
C11	C	0.108902	0.829902	-0.000035
C12	C	0.107432	0.737609	-0.000032
C13	C	0.104030	0.525269	0.083076
C14	C	0.102641	0.438551	0.083073
C15	C	0.102646	0.438571	-0.083170
C16	C	0.104031	0.525288	-0.083166
C17	C	0.104727	0.568634	-0.000040
C18	C	0.101952	0.395200	-0.000047
C19	C	0.100445	0.301177	-0.000051
C20	C	0.106232	0.662664	-0.000036
C21	C	-0.035038	0.988266	-0.000031
C22	C	-0.119058	0.986796	-0.000031
C23	C	-0.167571	1.061859	-0.000032
C24	C	-0.246517	1.060473	-0.000040
C25	C	-0.276947	0.984022	-0.000041
C26	C	-0.228427	0.908953	-0.000042
C27	C	-0.149483	0.910340	-0.000041
C28	C	-0.546798	0.903356	-0.000050
C29	C	-0.625748	0.901974	-0.000048
C30	C	-0.643832	1.053488	-0.000049
C31	C	-0.564888	1.054876	-0.000047
C32	C	-0.516375	0.979807	-0.000054
C33	C	-0.430774	0.981311	-0.000047
C34	C	-0.362547	0.982517	-0.000041
C35	C	0.241717	0.975568	-0.000049
C36	C	0.325737	0.977038	-0.000056
C37	C	0.097777	1.133932	-0.000046
C38	C	0.099247	1.226225	-0.000055
N39	N	0.103337	0.981911	0.216955
N40	N	0.103336	0.981930	-0.217034
C41	C	0.051886	1.038555	0.451964
C42	C	0.051884	1.038557	0.547945
C43	C	0.154789	0.925280	0.547951
C44	C	0.154787	0.925274	0.451971
C45	C	0.103336	0.981916	0.403980
C46	C	0.103337	0.981924	0.595941
C47	C	0.103335	0.981927	0.700008
C48	C	0.103337	0.981913	0.299906
H49	H	-0.142802	1.124114	-0.000026
N50	N	-0.532069	1.137334	-0.000054
H51	H	-0.474697	1.126822	-0.000053
H52	H	-0.549821	1.170173	0.056470
H53	H	0.104597	0.560559	0.150763
H54	H	-0.683341	1.114613	-0.000048
N55	N	-0.003599	1.099658	0.599697
H56	H	-0.057323	1.090206	0.583001
H57	H	0.005214	1.158611	0.582953
N58	N	0.101886	0.391779	0.172720
H59	H	0.102004	0.432476	0.225374
H60	H	0.148472	0.349358	0.176618
N61	N	0.101895	0.391820	-0.172823
H62	H	0.100913	0.330304	-0.160215
H63	H	0.149028	0.400146	-0.209123
H64	H	-0.109983	0.849216	-0.000040
N65	N	-0.658572	0.819513	-0.000044
H66	H	-0.615860	0.772167	-0.000049
H67	H	-0.690933	0.815645	-0.056568
N68	N	-0.003605	1.099643	0.400200
H69	H	-0.036200	1.135522	0.445166
H70	H	-0.037074	1.067881	0.360387
H71	H	0.104596	0.560598	-0.150853
H72	H	0.196681	0.879164	0.587034
N73	N	0.210281	0.864175	0.400217
H74	H	0.264003	0.873637	0.416907
H75	H	0.202404	0.872792	0.332149
N76	N	-0.298843	1.141433	-0.000036
H77	H	-0.267587	1.190075	-0.000027
H78	H	-0.331994	1.144147	0.056491
H79	H	-0.507308	0.842230	-0.000055
H80	H	-0.253209	0.846705	-0.000049
