data_functionalizedCrystal
_audit_creation_method	'MofGen! by Chris Wilmer'
_symmetry_space_group_name_H-M	'P1'
_symmetry_Int_Tables_number	1
_symmetry_cell_setting	triclinic
loop_
_symmetry_equiv_pos_as_xyz
  x,y,z
_cell_length_a	15.995350
_cell_length_b	14.971486
_cell_length_c	14.048226
_cell_angle_alpha	90.001501
_cell_angle_beta	89.995798
_cell_angle_gamma	96.446748
loop_
_atom_site_label
_atom_site_type_symbol
_atom_site_fract_x
_atom_site_fract_y
_atom_site_fract_z
O1	O	0.109116	-1.186822	-0.079046
O2	O	0.609116	-0.686822	0.420954
O3	O	0.122183	-0.926407	-0.079072
O4	O	0.622183	-0.426407	0.420928
O5	O	-0.006231	-1.063733	-0.079057
O6	O	0.493769	-0.563733	0.420943
O7	O	0.237530	-1.049496	-0.079061
O8	O	0.737530	-0.549496	0.420939
O9	O	-0.006238	-1.063717	0.079264
O10	O	0.493762	-0.563717	0.579264
O11	O	0.122176	-0.926391	0.079250
O12	O	0.622176	-0.426391	0.579250
O13	O	0.109109	-1.186806	0.079275
O14	O	0.609109	-0.686806	0.579275
Zn15	Zn	0.115641	-1.056596	0.104399
Zn16	Zn	0.615641	-0.556596	0.604399
Zn17	Zn	0.115651	-1.056617	-0.104196
Zn18	Zn	0.615651	-0.556617	0.395804
O19	O	0.237523	-1.049480	0.079261
O20	O	0.737523	-0.549480	0.579261
C21	C	-0.037430	-1.063137	0.000101
C22	C	0.462570	-0.563137	0.500101
C23	C	-0.130382	-1.061372	0.000096
C24	C	0.369618	-0.561372	0.500096
C25	C	0.121595	-0.893075	0.000086
C26	C	0.621595	-0.393075	0.500086
C27	C	0.119844	-0.793780	0.000076
C28	C	0.619844	-0.293780	0.500076
C29	C	0.109697	-1.220138	0.000116
C30	C	0.609697	-0.720138	0.500116
C31	C	0.111448	-1.319433	0.000119
C32	C	0.611448	-0.819433	0.500119
C33	C	-0.468136	-1.055035	0.000098
C34	C	0.031864	-0.555035	0.500098
C35	C	-0.420800	-0.957234	-0.000266
C36	C	0.079200	-0.457234	0.499734
C37	C	-0.324108	-0.958999	0.000091
C38	C	0.175892	-0.458999	0.500091
C39	C	-0.300572	-1.058178	0.000097
C40	C	0.199428	-0.558178	0.500097
C41	C	-0.341606	-1.106408	0.090509
C42	C	0.158394	-0.606408	0.590509
C43	C	-0.438244	-1.103951	0.090584
C44	C	0.061756	-0.603951	0.590584
C45	C	-0.438591	-1.105990	-0.089456
C46	C	0.061409	-0.605990	0.410544
C47	C	-0.341646	-1.105967	-0.090651
C48	C	0.158354	-0.605967	0.409349
C49	C	-0.205873	-1.059960	0.000099
C50	C	0.294127	-0.559960	0.500099
C51	C	-0.562835	-1.053256	0.000103
C52	C	-0.062835	-0.553256	0.500103
C53	C	0.268722	-1.050077	0.000100
C54	C	0.768722	-0.550077	0.500100
C55	C	0.361674	-1.051841	0.000099
C56	C	0.861674	-0.551841	0.500099
N57	N	0.115634	-1.056587	0.246760
N58	N	0.615634	-0.556587	0.746760
C59	C	0.195284	-0.736468	0.000076
C60	C	0.695284	-0.236468	0.500076
C61	C	0.193633	-0.643171	0.000090
C62	C	0.693633	-0.143171	0.500090
C63	C	0.116542	-0.607187	0.000098
C64	C	0.616542	-0.107187	0.500098
C65	C	0.041097	-0.664505	0.000100
C66	C	0.541097	-0.164505	0.500100
C67	C	0.042748	-0.757801	0.000093
C68	C	0.542748	-0.257801	0.500093
C69	C	0.037660	-0.470047	0.000113
C70	C	0.537660	0.029953	0.500113
C71	C	0.036008	-0.376745	0.000119
C72	C	0.536008	0.123255	0.500119
C73	C	0.188545	-0.355417	0.000111
C74	C	0.688545	0.144583	0.500111
C75	C	0.190197	-0.448712	0.000104
C76	C	0.690197	0.051288	0.500104
C77	C	0.114751	-0.506025	0.000104
C78	C	0.614751	-0.006025	0.500104
N79	N	0.115652	-1.056633	-0.246557
N80	N	0.615652	-0.556633	0.253443
C81	C	0.058795	-1.117414	0.296584
C82	C	0.558795	-0.617414	0.796584
C83	C	0.058795	-1.117421	0.396242
C84	C	0.558795	-0.617421	0.896242
C85	C	0.115637	-1.056603	0.446073
C86	C	0.615637	-0.556603	0.946073
C87	C	0.172478	-0.995769	0.396242
C88	C	0.672478	-0.495769	0.896242
C89	C	0.172474	-0.995760	0.296586
C90	C	0.672474	-0.495760	0.796586
C91	C	0.172484	-0.995795	0.603956
C92	C	0.672484	-0.495795	1.103956
C93	C	0.172490	-0.995806	0.703619
C94	C	0.672490	-0.495806	1.203619
C95	C	0.058805	-1.117456	0.703612
C96	C	0.558805	-0.617456	1.203612
C97	C	0.058801	-1.117446	0.603956
C98	C	0.558801	-0.617446	1.103956
C99	C	0.115643	-1.056614	0.554132
C100	C	0.615643	-0.556614	1.054132
H101	H	-0.439368	-0.918150	-0.065103
H102	H	0.060632	-0.418150	0.434897
H103	H	-0.026766	-0.347450	0.000126
H104	H	0.473234	0.152550	0.500126
H105	H	0.218758	-0.946246	0.436821
H106	H	0.718758	-0.446246	0.936821
N107	N	-0.321208	-1.201774	-0.097877
N108	N	0.178792	-0.701774	0.402123
H109	H	-0.375067	-1.244028	-0.097070
H110	H	0.124933	-0.744028	0.402930
H111	H	-0.289972	-1.209785	-0.159219
H112	H	0.210028	-0.709785	0.340781
H113	H	0.258060	-0.765759	0.000070
H114	H	0.758060	-0.265759	0.500070
N115	N	-0.038623	-0.819613	0.000090
N116	N	0.461377	-0.319613	0.500090
H117	H	-0.041338	-0.858797	-0.058601
H118	H	0.458662	-0.358797	0.441399
H119	H	-0.041291	-0.858739	0.058818
H120	H	0.458709	-0.358739	0.558818
N121	N	-0.002488	-1.183085	0.757347
N122	N	0.497512	-0.683085	1.257347
H123	H	-0.038487	-1.221622	0.710658
H124	H	0.461513	-0.721622	1.210658
H125	H	0.029657	-1.222614	0.798672
H126	H	0.529657	-0.722614	1.298672
N127	N	0.233794	-0.930219	0.757381
N128	N	0.733794	-0.430219	1.257381
H129	H	0.293238	-0.940509	0.740029
H130	H	0.793238	-0.440509	1.240029
H131	H	0.223979	-0.866764	0.740042
H132	H	0.723979	-0.366764	1.240042
N133	N	0.274977	-0.581318	0.000105
N134	N	0.774977	-0.081318	0.500105
H135	H	0.277656	-0.542152	0.058808
H136	H	0.777656	-0.042152	0.558808
H137	H	0.324044	-0.618295	0.000065
H138	H	0.824044	-0.118295	0.500065
N139	N	0.273339	-0.487535	0.000099
N140	N	0.773339	0.012465	0.500099
H141	H	0.277420	-0.525766	-0.058594
H142	H	0.777420	-0.025766	0.441406
H143	H	0.320838	-0.437028	0.000138
H144	H	0.820838	0.062972	0.500138
N145	N	0.233773	-0.930149	0.242842
N146	N	0.733773	-0.430149	0.742842
H147	H	0.269784	-0.891623	0.289530
H148	H	0.769784	-0.391623	0.789530
H149	H	0.270843	-0.964380	0.201480
H150	H	0.770843	-0.464380	0.701480
H151	H	0.012513	-1.166950	0.436809
H152	H	0.512513	-0.666950	0.936809
N153	N	0.269919	-0.293605	0.000204
N154	N	0.769919	0.206395	0.500204
H155	H	0.319006	-0.330557	0.000220
H156	H	0.819006	0.169443	0.500220
H157	H	0.272608	-0.254387	-0.058456
H158	H	0.772608	0.245613	0.441544
H159	H	-0.470280	-1.178098	-0.090060
H160	H	0.029720	-0.678098	0.409940
H161	H	-0.023776	-0.516709	0.000115
H162	H	0.476224	-0.016709	0.500115
H163	H	-0.440436	-0.918310	0.064202
H164	H	0.059564	-0.418310	0.564202
N165	N	-0.287243	-0.908431	0.086078
N166	N	0.212757	-0.408431	0.586078
H167	H	-0.333815	-0.884911	0.123901
H168	H	0.166185	-0.384911	0.623901
H169	H	-0.257355	-0.950173	0.127203
H170	H	0.242645	-0.450173	0.627203
N171	N	-0.462546	-1.057349	0.180098
N172	N	0.037454	-0.557349	0.680098
H173	H	-0.410506	-1.038591	0.219137
H174	H	0.089494	-0.538591	0.719137
H175	H	-0.490553	-1.002452	0.162499
H176	H	0.009447	-0.502452	0.662499
H177	H	0.218769	-0.946256	0.563393
H178	H	0.718769	-0.446256	1.063393
N179	N	-0.480874	-1.199057	0.096030
N180	N	0.019126	-0.699057	0.596030
H181	H	-0.436864	-1.242390	0.098376
H182	H	0.063136	-0.742390	0.598376
H183	H	-0.516754	-1.206209	0.155289
H184	H	-0.016754	-0.706209	0.655289
N185	N	-0.002500	-1.183046	0.550206
N186	N	0.497500	-0.683046	1.050206
H187	H	-0.038510	-1.221584	0.596889
H188	H	0.461490	-0.721584	1.096889
H189	H	-0.039570	-1.148801	0.508867
H190	H	0.460430	-0.648801	1.008867
N191	N	-0.042049	-0.625689	0.000119
N192	N	0.457951	-0.125689	0.500119
H193	H	-0.046133	-0.587454	-0.058568
H194	H	0.453867	-0.087454	0.441432
H195	H	-0.089544	-0.676201	0.000158
H196	H	0.410456	-0.176201	0.500158
H197	H	0.012511	-1.166943	0.256018
H198	H	0.512511	-0.666943	0.756018
H199	H	-0.295721	-0.921086	-0.064720
H200	H	0.204279	-0.421086	0.435280
N201	N	-0.322832	-1.202936	0.094958
N202	N	0.177168	-0.702936	0.594958
H203	H	-0.287458	-1.216361	0.038276
H204	H	0.212542	-0.716361	0.538276
H205	H	-0.291177	-1.212886	0.155545
H206	H	0.208823	-0.712886	0.655545
N207	N	-0.304051	-1.062022	0.179622
N208	N	0.195949	-0.562022	0.679622
H209	H	-0.314697	-0.996797	0.180515
H210	H	0.185303	-0.496797	0.680515
H211	H	-0.330870	-1.093595	0.237369
H212	H	0.169130	-0.593595	0.737369
H213	H	-0.459160	-1.074021	-0.157983
H214	H	0.040840	-0.574021	0.342017
H215	H	-0.314429	-1.070705	-0.157536
H216	H	0.185571	-0.570705	0.342464
