data_functionalizedCrystal
_audit_creation_method	'MofGen! by Chris Wilmer'
_symmetry_space_group_name_H-M	'P1'
_symmetry_Int_Tables_number	1
_symmetry_cell_setting	triclinic
loop_
_symmetry_equiv_pos_as_xyz
  x,y,z
_cell_length_a	14.519731
_cell_length_b	14.519709
_cell_length_c	13.596369
_cell_angle_alpha	89.993066
_cell_angle_beta	90.006433
_cell_angle_gamma	96.315501
loop_
_atom_site_label
_atom_site_type_symbol
_atom_site_fract_x
_atom_site_fract_y
_atom_site_fract_z
O1	O	-1.223856	0.120986	-0.081819
O2	O	-0.890523	0.454320	0.251514
O3	O	-0.557190	0.787653	0.584848
O4	O	-0.955382	0.135202	-0.081816
O5	O	-0.622049	0.468536	0.251518
O6	O	-0.288715	0.801869	0.584851
O7	O	-1.096737	-0.006144	-0.081808
O8	O	-0.763404	0.327190	0.251525
O9	O	-0.430071	0.660523	0.584858
O10	O	-1.082501	0.262332	-0.081826
O11	O	-0.749168	0.595666	0.251507
O12	O	-0.415834	0.928999	0.584841
O13	O	-1.096723	-0.006151	0.081774
O14	O	-0.763390	0.327182	0.415108
O15	O	-0.430057	0.660516	0.748441
O16	O	-0.955368	0.135195	0.081767
O17	O	-0.622035	0.468528	0.415101
O18	O	-0.288701	0.801862	0.748434
O19	O	-1.223842	0.120979	0.081764
O20	O	-0.890509	0.454312	0.415097
O21	O	-0.557176	0.787645	0.748431
Zn22	Zn	-1.089603	0.128086	0.107738
Zn23	Zn	-0.756270	0.461419	0.441071
Zn24	Zn	-0.422936	0.794752	0.774405
Zn25	Zn	-1.089621	0.128096	-0.107790
Zn26	Zn	-0.756288	0.461429	0.225544
Zn27	Zn	-0.422955	0.794762	0.558877
O28	O	-1.082487	0.262325	0.081757
O29	O	-0.749154	0.595658	0.415090
O30	O	-0.415820	0.928991	0.748424
C31	C	-0.921016	0.134532	-0.000024
C32	C	-0.587682	0.467866	0.333310
C33	C	-0.254349	0.801199	0.666643
C34	C	-0.818635	0.132536	-0.000022
C35	C	-0.485302	0.465870	0.333311
C36	C	-0.151969	0.799203	0.666645
C37	C	-0.735491	0.130915	-0.000024
C38	C	-0.402158	0.464248	0.333309
C39	C	-0.068825	0.797581	0.666642
C40	C	-0.631182	0.128888	-0.000023
C41	C	-0.297849	0.462221	0.333311
C42	C	0.035484	0.795555	0.666644
C43	C	-0.548043	0.127280	-0.000021
C44	C	-0.214710	0.460613	0.333313
C45	C	0.118623	0.793946	0.666646
C46	C	-0.443728	0.125253	-0.000021
C47	C	-0.110395	0.458586	0.333312
C48	C	0.222939	0.791920	0.666646
C49	C	-1.096067	-0.040507	-0.000017
C50	C	-0.762734	0.292826	0.333317
C51	C	-0.429400	0.626160	0.666650
C52	C	-1.094079	-0.142889	-0.000016
C53	C	-0.760745	0.190445	0.333317
C54	C	-0.427412	0.523778	0.666650
C55	C	-1.086759	-0.517785	-0.000042
C56	C	-0.753426	-0.184452	0.333292
C57	C	-0.420093	0.148882	0.666625
C58	C	-1.088792	-0.413477	-0.000034
C59	C	-0.755459	-0.080143	0.333299
C60	C	-0.422125	0.253190	0.666632
C61	C	-1.090419	-0.330340	-0.000028
C62	C	-0.757085	0.002993	0.333305
C63	C	-0.423752	0.336327	0.666639
C64	C	-1.092452	-0.226025	-0.000022
C65	C	-0.759118	0.107308	0.333311
C66	C	-0.425785	0.440641	0.666644
C67	C	-0.258209	0.121649	-0.000025
C68	C	0.075125	0.454982	0.333308
C69	C	0.408458	0.788315	0.666641
C70	C	-0.360589	0.123645	-0.000019
C71	C	-0.027256	0.456978	0.333314
C72	C	0.306078	0.790311	0.666648
C73	C	-1.083157	0.296688	-0.000037
C74	C	-0.749824	0.630022	0.333296
C75	C	-0.416491	0.963355	0.666630
C76	C	-1.085146	0.399070	-0.000044
C77	C	-0.751812	0.732403	0.333289
C78	C	-0.418479	1.065736	0.666623
N79	N	-1.089597	0.128078	0.254830
N80	N	-0.756264	0.461412	0.588163
N81	N	-0.422930	0.794745	0.921497
N82	N	-1.089635	0.128096	-0.254881
N83	N	-0.756301	0.461429	0.078452
N84	N	-0.422968	0.794762	0.411785
C85	C	-1.089620	0.128096	0.656121
C86	C	-0.756287	0.461430	0.989454
C87	C	-0.422954	0.794763	1.322787
C88	C	-1.089611	0.128095	0.544469
C89	C	-0.756278	0.461428	0.877803
C90	C	-0.422944	0.794761	1.211136
C91	C	-1.089609	0.128088	0.455479
C92	C	-0.756276	0.461421	0.788812
C93	C	-0.422942	0.794755	1.122146
C94	C	-1.089599	0.128085	0.343820
C95	C	-0.756266	0.461418	0.677154
C96	C	-0.422932	0.794751	1.010487
