data_functionalizedCrystal
_audit_creation_method	'MofGen! by Chris Wilmer'
_symmetry_space_group_name_H-M	'P1'
_symmetry_Int_Tables_number	1
_symmetry_cell_setting	triclinic
loop_
_symmetry_equiv_pos_as_xyz
  x,y,z
_cell_length_a	19.288864
_cell_length_b	15.625429
_cell_length_c	18.366186
_cell_angle_alpha	71.916618
_cell_angle_beta	89.977106
_cell_angle_gamma	83.707361
loop_
_atom_site_label
_atom_site_type_symbol
_atom_site_fract_x
_atom_site_fract_y
_atom_site_fract_z
O1	O	0.921734	0.112464	-0.090473
O2	O	1.421734	0.612464	0.409527
O3	O	0.719524	0.127635	-0.094428
O4	O	1.219524	0.627635	0.405572
O5	O	0.826029	-0.011211	-0.057795
O6	O	1.326029	0.488789	0.442205
O7	O	0.815229	0.251309	-0.127105
O8	O	1.315229	0.751309	0.372895
O9	O	0.826011	-0.011217	0.063306
O10	O	1.326011	0.488783	0.563306
O11	O	0.719506	0.127628	0.026673
O12	O	1.219506	0.627628	0.526673
O13	O	0.921716	0.112457	0.030628
O14	O	1.421716	0.612457	0.530628
Zn15	Zn	0.820608	0.120041	0.047878
Zn16	Zn	1.320608	0.620041	0.547878
Zn17	Zn	0.820632	0.120050	-0.111678
Zn18	Zn	1.320632	0.620050	0.388322
O19	O	0.815211	0.251302	-0.006004
O20	O	1.315211	0.751302	0.493996
C21	C	0.693637	0.127143	-0.033742
C22	C	1.193637	0.627143	0.466258
C23	C	0.616529	0.125678	-0.033336
C24	C	1.116529	0.625678	0.466664
C25	C	0.825530	-0.044800	0.011621
C26	C	1.325530	0.455200	0.511621
C27	C	0.824062	-0.144874	0.038040
C28	C	1.324062	0.355126	0.538040
C29	C	0.572108	0.207146	-0.054857
C30	C	1.072108	0.707146	0.445143
C31	C	0.499657	0.205769	-0.054501
C32	C	0.999657	0.705769	0.445499
C33	C	0.471629	0.122920	-0.032639
C34	C	0.971629	0.622920	0.467361
C35	C	0.516059	0.041441	-0.011111
C36	C	1.016059	0.541441	0.488889
C37	C	0.588509	0.042820	-0.011460
C38	C	1.088509	0.542820	0.488540
C39	C	0.363152	0.057793	-0.057895
C40	C	0.863152	0.557793	0.442105
C41	C	0.290703	0.056418	-0.057552
C42	C	0.790703	0.556418	0.442448
C43	C	0.248169	0.118663	-0.031559
C44	C	0.748169	0.618663	0.468441
C45	C	0.278090	0.182299	-0.005923
C46	C	0.778090	0.682299	0.494077
C47	C	0.350541	0.183678	-0.006272
C48	C	0.850541	0.683678	0.493728
C49	C	0.393069	0.121415	-0.032258
C50	C	0.893069	0.621415	0.467742
C51	C	0.125187	0.198644	-0.052695
C52	C	0.625187	0.698644	0.447305
C53	C	0.052734	0.197264	-0.052334
C54	C	0.552734	0.697264	0.447666
C55	C	0.069138	0.032933	-0.008950
C56	C	0.569138	0.532933	0.491050
C57	C	0.141589	0.034316	-0.009305
C58	C	0.641589	0.534316	0.490695
C59	C	0.169609	0.117174	-0.031181
C60	C	0.669609	0.617174	0.468819
C61	C	0.819264	-0.473990	-0.205108
C62	C	1.319264	0.026010	0.294892
C63	C	0.817881	-0.568025	-0.180261
C64	C	1.317881	-0.068025	0.319739
C65	C	0.817861	-0.568019	-0.048245
C66	C	1.317861	-0.068019	0.451755
C67	C	0.819247	-0.473983	-0.073081
C68	C	1.319247	0.026017	0.426919
C69	C	0.819948	-0.426976	-0.151513
C70	C	1.319948	0.073024	0.348487
C71	C	0.819931	-0.426968	-0.019486
C72	C	1.319931	0.073032	0.480514
C73	C	0.821314	-0.332939	-0.044320
C74	C	1.321314	0.167061	0.455680
C75	C	0.822012	-0.285925	-0.122749
C76	C	1.322012	0.214075	0.377251
C77	C	0.821330	-0.332947	-0.176347
C78	C	1.321330	0.167053	0.323653
C79	C	0.819226	-0.473976	0.058946
C80	C	1.319226	0.026024	0.558946
C81	C	0.819910	-0.426961	0.112541
C82	C	1.319910	0.073039	0.612541
C83	C	0.821298	-0.332932	0.087708
C84	C	1.321298	0.167068	0.587708
C85	C	0.821996	-0.285918	0.009279
C86	C	1.321996	0.214082	0.509279
C87	C	0.821980	-0.285910	0.141306
C88	C	1.321980	0.214090	0.641306
C89	C	0.823362	-0.191882	0.116472
C90	C	1.323362	0.308118	0.616472
C91	C	0.823378	-0.191889	-0.015555
C92	C	1.323378	0.308111	0.484445
C93	C	0.947603	0.112948	-0.030059
C94	C	1.447603	0.612948	0.469941
C95	C	1.024711	0.114414	-0.030470
C96	C	1.524711	0.614414	0.469530
C97	C	0.815710	0.284891	-0.075423
C98	C	1.315710	0.784891	0.424577
C99	C	0.817178	0.384966	-0.101846
C100	C	1.317178	0.884966	0.398154
N101	N	0.820597	0.120035	0.156771
N102	N	1.320597	0.620035	0.656771
N103	N	0.820649	0.120050	-0.220569
N104	N	1.320649	0.620050	0.279431
C105	C	0.867773	0.058584	0.211084
C106	C	1.367773	0.558584	0.711084
C107	C	0.867777	0.058580	0.287313
C108	C	1.367777	0.558580	0.787313
C109	C	0.820612	0.120042	0.309222
C110	C	1.320612	0.620042	0.809222
C111	C	0.773428	0.181497	0.254898
C112	C	1.273428	0.681497	0.754898
C113	C	0.773420	0.181494	0.178673
C114	C	1.273420	0.681494	0.678673
C115	C	0.811592	0.202185	0.408296
C116	C	1.311592	0.702185	0.908296
C117	C	0.811605	0.202190	0.484520
C118	C	1.311605	0.702190	0.984520
C119	C	0.820632	0.120053	0.544326
C120	C	1.320632	0.620053	1.044326
C121	C	0.829661	0.037908	0.527901
C122	C	1.329661	0.537908	1.027901
C123	C	0.829654	0.037905	0.451675
C124	C	1.329654	0.537905	0.951675
C125	C	0.820615	0.120053	0.391874
C126	C	1.320615	0.620053	0.891874
C127	C	0.867815	0.058593	0.681297
C128	C	1.367815	0.558593	1.181297
C129	C	0.867815	0.058588	0.757528
C130	C	1.367815	0.558588	1.257528
C131	C	0.773469	0.181513	0.725109
C132	C	1.273469	0.681513	1.225109
C133	C	0.773466	0.181511	0.648882
C134	C	1.273466	0.681511	1.148882
C135	C	0.820643	0.120052	0.626980
C136	C	1.320643	0.620052	1.126980
H137	H	0.594917	0.274615	-0.072671
H138	H	1.094917	0.774615	0.427329
H139	H	0.819338	-0.465247	0.176401
H140	H	1.319338	0.034753	0.676401
H141	H	0.735064	0.231553	0.742947
H142	H	1.235064	0.731553	1.242947
H143	H	0.821402	-0.324196	0.205165
H144	H	1.321402	0.175804	0.705165
N145	N	0.824095	-0.141164	0.174273
N146	N	1.324095	0.358836	0.674273
H147	H	0.823443	-0.185210	0.227728
H148	H	1.323443	0.314790	0.727728
H149	H	0.867691	-0.109633	0.168808
H150	H	1.367691	0.390367	0.668808
N151	N	0.823509	-0.184510	-0.149536
N152	N	1.323509	0.315490	0.350464
H153	H	0.823849	-0.161867	-0.207354
H154	H	1.323849	0.338133	0.292646
H155	H	0.780814	-0.154441	-0.131515
H156	H	1.280814	0.345559	0.368485
N157	N	0.801862	0.290781	0.343792
N158	N	1.301862	0.790781	0.843792
H159	H	0.758866	0.292899	0.311629
H160	H	1.258866	0.792899	0.811629
H161	H	0.796182	0.342766	0.365823
H162	H	1.296182	0.842766	0.865823
H163	H	0.374900	0.235490	0.014605
H164	H	0.874900	0.735490	0.514605
H165	H	0.817289	-0.606305	0.015614
H166	H	1.317289	-0.106305	0.515614
N167	N	0.722583	0.247789	0.590295
N168	N	1.222583	0.747789	1.090295
H169	H	0.692703	0.286725	0.615739
H170	H	1.192703	0.786725	1.115739
H171	H	0.749204	0.287558	0.548149
H172	H	1.249204	0.787558	1.048149
N173	N	0.451736	0.293643	-0.077726
N174	N	0.951736	0.793643	0.422274
H175	H	0.401588	0.280194	-0.074187
H176	H	0.901588	0.780194	0.425813
H177	H	0.460788	0.329771	-0.042372
H178	H	0.960788	0.829771	0.457628
H179	H	0.804257	0.269077	0.497887
H180	H	1.304257	0.769077	0.997887
N181	N	0.232225	0.249447	0.022109
N182	N	0.732225	0.749447	0.522109
H183	H	0.181788	0.238918	0.018444
H184	H	0.681788	0.738918	0.518444
H185	H	0.245703	0.241259	0.077193
H186	H	0.745703	0.741259	0.577193
N187	N	0.155416	0.288006	-0.076284
N188	N	0.655416	0.788006	0.423716
H189	H	0.116279	0.339409	-0.089858
H190	H	0.616279	0.839409	0.410142
H191	H	0.185096	0.292153	-0.032482
H192	H	0.685096	0.792153	0.467518
H193	H	0.906185	0.008538	0.193256
H194	H	1.406185	0.508538	0.693256
H195	H	0.821906	-0.294672	-0.240214
H196	H	1.321906	0.205328	0.259786
H197	H	0.735024	0.231539	0.272740
H198	H	1.235024	0.731539	0.772740
H199	H	0.819840	-0.435716	-0.268975
H200	H	1.319840	0.064284	0.231025
N201	N	0.918669	-0.007699	0.345899
N202	N	1.418669	0.492301	0.845899
H203	H	0.949451	0.026662	0.368432
H204	H	1.449451	0.526662	0.868432
H205	H	0.892050	-0.047517	0.388017
H206	H	1.392050	0.452483	0.888017
H207	H	0.823954	-0.153614	-0.079422
H208	H	1.323954	0.346386	0.420578
N209	N	0.839389	-0.050686	0.433955
N210	N	1.339389	0.449314	0.933955
H211	H	0.845110	-0.102722	0.483404
H212	H	1.345110	0.397278	0.983404
H213	H	0.797186	-0.055809	0.403705
H214	H	1.297186	0.444191	0.903705
N215	N	0.004820	0.285137	-0.075488
N216	N	0.504820	0.785137	0.424512
H217	H	0.033567	0.337832	-0.089383
H218	H	0.533567	0.837832	0.410617
H219	H	-0.025599	0.288187	-0.121174
H220	H	0.474401	0.788187	0.378826
H221	H	0.177757	-0.032025	0.008216
H222	H	0.677757	0.467975	0.508216
H223	H	0.837012	-0.028975	0.576596
H224	H	1.337012	0.471025	1.076596
N225	N	0.038919	-0.056428	0.014639
N226	N	0.538919	0.443572	0.514639
H227	H	-0.013719	-0.044941	0.011597
H228	H	0.486281	0.455059	0.511597
H229	H	0.055187	-0.092066	-0.020842
H230	H	0.555187	0.407934	0.479158
H231	H	0.906227	0.008547	0.663465
H232	H	1.406227	0.508547	1.163465
N233	N	0.258432	-0.012212	-0.085203
N234	N	0.758432	0.487788	0.414797
H235	H	0.296370	-0.051443	-0.101712
H236	H	0.796370	0.448557	0.398288
H237	H	0.232211	-0.051436	-0.042307
H238	H	0.732211	0.448564	0.457693
N239	N	0.409026	-0.009350	-0.085929
N240	N	0.909026	0.490650	0.414071
H241	H	0.379079	-0.049865	-0.102122
H242	H	0.879079	0.450135	0.397878
H243	H	0.435795	0.024401	-0.131070
H244	H	0.935795	0.524401	0.368930
N245	N	0.485834	-0.047919	0.012478
N246	N	0.985834	0.452081	0.512478
H247	H	0.433196	-0.036432	0.009433
H248	H	0.933196	0.463568	0.509433
H249	H	0.502104	-0.083560	-0.023000
H250	H	1.002104	0.416440	0.477000
H251	H	0.906229	0.008543	0.801754
H252	H	1.406229	0.508543	1.301754
H253	H	0.818093	-0.550539	0.079163
H254	H	1.318093	-0.050539	0.579163
N255	N	0.722533	0.247772	0.120086
N256	N	1.222533	0.747772	0.620086
H257	H	0.692652	0.286706	0.145529
H258	H	1.192652	0.786706	0.645529
H259	H	0.749156	0.287542	0.077942
H260	H	1.249156	0.787542	0.577942
H261	H	0.817318	-0.606300	-0.223911
H262	H	1.317318	-0.106300	0.276089
N263	N	0.636425	-0.045052	0.011756
N264	N	1.136425	0.454948	0.511756
H265	H	0.607679	-0.097749	0.025664
H266	H	1.107679	0.402251	0.525664
H267	H	0.666867	-0.048060	-0.032338
H268	H	1.166867	0.451940	0.467662
