data_functionalizedCrystal
_audit_creation_method	'MofGen! by Chris Wilmer'
_symmetry_space_group_name_H-M	'P1'
_symmetry_Int_Tables_number	1
_symmetry_cell_setting	triclinic
loop_
_symmetry_equiv_pos_as_xyz
  x,y,z
_cell_length_a	20.875641
_cell_length_b	20.016444
_cell_length_c	20.016444
_cell_angle_alpha	90.002879
_cell_angle_beta	62.442235
_cell_angle_gamma	57.592736
loop_
_atom_site_label
_atom_site_type_symbol
_atom_site_fract_x
_atom_site_fract_y
_atom_site_fract_z
Zr1	Zr	0.702135	-0.114501	0.670419
O2	O	0.835944	-0.226286	0.568861
O3	O	0.568319	-0.076687	0.698005
O4	O	0.702132	-0.221173	0.703119
O5	O	0.702137	0.028140	0.563748
O6	O	0.702137	-0.221173	0.813059
O7	O	0.702132	-0.081800	0.563747
O8	O	0.462771	0.037286	0.803911
O9	O	0.941503	-0.230319	0.572896
O10	O	0.623366	-0.064844	0.796103
O11	O	0.623366	0.017203	0.714056
O12	O	0.780913	-0.152910	0.720078
O13	O	0.780913	-0.070863	0.638031
Zr14	Zr	0.702151	0.060840	0.845762
Zr15	Zr	0.702143	-0.114501	0.845761
Zr16	Zr	0.702143	0.060840	0.670420
Zr17	Zr	0.870489	-0.120934	0.676855
Zr18	Zr	0.533797	0.067273	0.839326
O19	O	0.835967	0.023026	0.818176
O20	O	0.835955	-0.226286	0.818175
O21	O	0.835955	0.023027	0.568863
O22	O	0.568342	0.172625	0.947320
O23	O	0.568331	-0.076687	0.947318
O24	O	0.568331	0.172626	0.698006
O25	O	0.702149	-0.081801	0.952434
O26	O	0.702155	0.167512	0.813062
O27	O	0.702149	0.167512	0.703122
O28	O	0.702155	0.028139	0.952434
O29	O	0.941509	-0.230320	0.712270
O30	O	0.462777	0.176659	0.803911
O31	O	0.462783	0.176658	0.943285
O32	O	0.462777	0.037286	0.943284
O33	O	0.941509	-0.090946	0.572897
O34	O	0.941515	-0.090947	0.712270
O35	O	0.623373	0.099250	0.796103
O36	O	0.623373	0.017203	0.878150
O37	O	0.780920	-0.070864	0.802125
O38	O	0.780920	0.011183	0.720078
C39	C	0.491558	-0.018784	0.750041
C40	C	0.420088	-0.016053	0.747309
C41	C	0.702133	-0.026830	0.538765
C42	C	0.702130	-0.026829	0.464328
C43	C	0.702153	0.192495	0.758092
C44	C	0.702157	0.266932	0.758092
C45	C	0.386511	-0.057598	0.788851
C46	C	0.319352	-0.055024	0.786286
C47	C	0.285775	-0.010909	0.742174
C48	C	0.319355	0.030641	0.700631
C49	C	0.386508	0.028071	0.703201
C50	C	0.084932	0.001373	0.729899
C51	C	0.017776	0.003937	0.727330
C52	C	0.017775	-0.081726	0.812987
C53	C	0.084934	-0.084296	0.815549
C54	C	0.118504	-0.042743	0.774010
N55	N	0.217130	-0.008279	0.739549
N56	N	0.187144	-0.045368	0.776639
C57	C	0.912728	-0.034877	0.766140
C58	C	0.984199	-0.037608	0.768872
C59	C	0.702133	-0.246155	0.758089
C60	C	0.702130	-0.320592	0.758089
C61	C	0.784384	0.392229	0.718404
C62	C	0.784380	0.462174	0.718402
C63	C	0.619896	0.554109	0.797778
C64	C	0.619901	0.484164	0.797775
C65	C	0.702147	0.403225	0.758091
C66	C	0.702139	0.543115	0.758090
C67	C	0.702134	0.618953	0.758088
C68	C	0.702152	0.327382	0.758092
C69	C	0.619902	0.019142	0.332745
C70	C	0.619906	0.019144	0.262800
C71	C	0.784390	-0.072804	0.183438
C72	C	0.784386	-0.072801	0.253382
C73	C	0.702139	-0.026830	0.328035
C74	C	0.702147	-0.026831	0.188146
C75	C	0.702152	-0.026829	0.112308
C76	C	0.702134	-0.026830	0.403878
C77	C	0.702153	-0.026831	0.977416
C78	C	0.702157	-0.026831	1.051853
C79	C	0.491568	-0.018784	0.969367
C80	C	0.420101	-0.016054	1.041072
C81	C	0.491568	0.200541	0.750042
C82	C	0.420101	0.277709	0.747310
C83	C	0.491578	0.200541	0.969368
C84	C	0.420115	0.277708	1.041073
C85	C	0.912708	-0.254201	0.546813
C86	C	0.984172	-0.331369	0.475108
C87	C	0.912718	-0.034876	0.546814
C88	C	0.984185	-0.037607	0.475109
C89	C	0.912718	-0.254202	0.766139
C90	C	0.984185	-0.331370	0.768871
C91	C	0.386535	-0.057606	1.031917
C92	C	0.319394	-0.055057	1.099286
C93	C	0.285814	-0.010950	1.175807
C94	C	0.319387	0.030603	1.184960
C95	C	0.386532	0.028049	1.117593
C96	C	0.386543	0.356783	0.788856
C97	C	0.319402	0.429296	0.786286
C98	C	0.285814	0.422735	0.742176
C99	C	0.319379	0.343653	0.700626
C100	C	0.386524	0.271141	0.703191
C101	C	0.386554	0.271119	1.117582
C102	C	0.319416	0.343619	1.184964
C103	C	0.285834	0.422708	1.175836
C104	C	0.319401	0.429295	1.099319
C105	C	0.386543	0.356795	1.031939
C106	C	1.017740	-0.324780	0.398599
C107	C	1.084899	-0.397281	0.331218
C108	C	1.118484	-0.476370	0.340347
C109	C	1.084913	-0.482957	0.416863
C110	C	1.017760	-0.410457	0.484243
C111	C	1.017758	0.003938	0.484264
C112	C	1.084918	0.001369	0.416896
C113	C	1.118500	-0.042741	0.340375
C114	C	1.084924	-0.084291	0.331221
C115	C	1.017770	-0.081726	0.398588
C116	C	1.017751	-0.324781	0.812988
C117	C	1.084893	-0.397281	0.815571
C118	C	1.118473	-0.476370	0.774030
C119	C	1.084900	-0.482956	0.729910
C120	C	1.017755	-0.410457	0.727333
H121	H	0.413848	-0.093524	0.824767
H122	H	0.851355	0.326327	0.686089
F123	F	0.120667	-0.131253	0.862495
F124	F	1.189937	-0.553524	0.776778
H125	H	0.990437	-0.115555	0.391123
H126	H	0.552934	0.620017	0.830089
F127	F	1.120637	0.045597	0.426655
F128	F	0.982036	-0.417482	0.565667
H129	H	0.292013	-0.088852	0.820113
H130	H	1.173181	-0.044822	0.285527
F131	F	0.283701	0.336591	1.266391
F132	F	0.283690	0.513453	0.830514
H133	H	1.112267	-0.547359	0.424286
H134	H	0.231163	0.481735	1.230708
H135	H	0.112253	0.035212	0.696078
F136	F	1.120672	-0.131230	0.249775
H137	H	0.231140	-0.008876	1.230656
H138	H	0.990421	0.039862	0.546566
F139	F	0.982025	-0.240616	0.857206
H140	H	0.413852	0.061891	1.125058
H141	H	0.851356	-0.110235	0.249541
F142	F	0.214351	0.499917	0.739454
H143	H	0.292049	0.493698	1.091898
H144	H	0.413859	0.362172	0.969644
H145	H	0.990398	-0.260389	0.391151
F146	F	0.422275	0.363785	0.835809
H147	H	0.552932	0.056584	0.393528
H148	H	1.112221	-0.391901	0.268922
F149	F	1.120615	-0.390254	0.862526
F150	F	0.283623	0.336683	0.653684
F151	F	0.422227	0.186987	0.658974
F152	F	0.532368	0.495870	0.840012
F153	F	1.189955	-0.553524	0.268627
F154	F	1.120653	-0.567135	0.685697
H155	H	-0.009565	-0.115556	0.846807
F156	F	-0.017955	0.050889	0.680376
F157	F	0.283608	0.077602	0.653694
F158	F	0.532378	0.068076	0.267818
F159	F	0.422286	0.186954	1.127315
F160	F	0.982045	-0.417482	0.680368
H161	H	0.413848	0.061899	0.669371
H162	H	0.851353	-0.110233	0.122648
F163	F	0.422263	-0.104556	0.950483
F164	F	0.871908	0.450466	0.676155
H165	H	0.292036	0.066514	1.247273
F166	F	0.283673	-0.099283	1.089527
