data_functionalizedCrystal
_audit_creation_method	'MofGen! by Chris Wilmer'
_symmetry_space_group_name_H-M	'P1'
_symmetry_Int_Tables_number	1
_symmetry_cell_setting	triclinic
loop_
_symmetry_equiv_pos_as_xyz
  x,y,z
_cell_length_a	19.805407
_cell_length_b	21.295417
_cell_length_c	19.805398
_cell_angle_alpha	89.969179
_cell_angle_beta	89.986879
_cell_angle_gamma	90.029702
loop_
_atom_site_label
_atom_site_type_symbol
_atom_site_fract_x
_atom_site_fract_y
_atom_site_fract_z
Zn1	Zn	1.034677	-0.250617	-0.382709
Zn2	Zn	1.368010	0.082716	-0.049376
Zn3	Zn	1.701344	0.416049	0.283957
Zn4	Zn	1.034598	-0.355888	-0.269517
Zn5	Zn	1.367932	-0.022555	0.063817
Zn6	Zn	1.701265	0.310779	0.397150
Zn7	Zn	0.921504	-0.250637	-0.269534
Zn8	Zn	1.254838	0.082697	0.063800
Zn9	Zn	1.588171	0.416030	0.397133
Zn10	Zn	0.921449	-0.355853	-0.382663
Zn11	Zn	1.254782	-0.022519	-0.049330
Zn12	Zn	1.588115	0.310814	0.284003
O13	O	0.978057	-0.303249	-0.326106
O14	O	1.311390	0.030085	0.007228
O15	O	1.644724	0.363418	0.340561
O16	O	1.129383	-0.264589	-0.367706
O17	O	1.462717	0.068745	-0.034373
O18	O	1.796050	0.402078	0.298961
O19	O	1.019586	-0.341949	-0.174802
O20	O	1.352920	-0.008616	0.158531
O21	O	1.686253	0.324718	0.491864
O22	O	0.936573	-0.162545	-0.284573
O23	O	1.269907	0.170789	0.048760
O24	O	1.603240	0.504122	0.382093
O25	O	1.129325	-0.341930	-0.284544
O26	O	1.462659	-0.008597	0.048790
O27	O	1.795992	0.324736	0.382123
O28	O	1.019721	-0.162531	-0.367723
O29	O	1.353054	0.170803	-0.034389
O30	O	1.686388	0.504136	0.298944
O31	O	0.936497	-0.264621	-0.174815
O32	O	1.269830	0.068712	0.158518
O33	O	1.603164	0.402045	0.491852
O34	O	0.826781	-0.264587	-0.284529
O35	O	1.160114	0.068746	0.048805
O36	O	1.493447	0.402080	0.382138
O37	O	0.936478	-0.341870	-0.477386
O38	O	1.269812	-0.008537	-0.144053
O39	O	1.603145	0.324796	0.189281
O40	O	0.826740	-0.341889	-0.367644
O41	O	1.160073	-0.008556	-0.034311
O42	O	1.493406	0.324778	0.299022
O43	O	1.019667	-0.264554	-0.477420
O44	O	1.353000	0.068779	-0.144086
O45	O	1.686333	0.402112	0.189247
O46	O	1.019532	-0.443973	-0.284499
O47	O	1.352866	-0.110639	0.048834
O48	O	1.686199	0.222694	0.382167
O49	O	0.936402	-0.443947	-0.367628
O50	O	1.269735	-0.110613	-0.034294
O51	O	1.603069	0.222720	0.299039
C52	C	0.802201	-0.303237	-0.326084
C53	C	1.135534	0.030097	0.007249
C54	C	1.468868	0.363430	0.340583
C55	C	0.726969	-0.303247	-0.326091
C56	C	1.060302	0.030087	0.007243
C57	C	1.393636	0.363420	0.340576
C58	C	0.691621	-0.343558	-0.369299
C59	C	1.024955	-0.010225	-0.035966
C60	C	1.358288	0.323108	0.297368
C61	C	0.620933	-0.343559	-0.369308
C62	C	0.954266	-0.010226	-0.035975
C63	C	1.287600	0.323107	0.297358
C64	C	0.585594	-0.303252	-0.326106
C65	C	0.918927	0.030082	0.007228
C66	C	1.252260	0.363415	0.340561
C67	C	0.620946	-0.262936	-0.282895
C68	C	0.954280	0.070398	0.050438
C69	C	1.287613	0.403731	0.383771
C70	C	0.691633	-0.262932	-0.282890
C71	C	1.024967	0.070402	0.050443
C72	C	1.358300	0.403735	0.383777
C73	C	0.335873	-0.262949	-0.282918
C74	C	0.669206	0.070384	0.050415
C75	C	1.002540	0.403717	0.383749
C76	C	0.265181	-0.262958	-0.282925
C77	C	0.598514	0.070376	0.050408
C78	C	0.931848	0.403709	0.383741
C79	C	0.265172	-0.343577	-0.369336
C80	C	0.598506	-0.010244	-0.036003
C81	C	0.931839	0.323090	0.297330
C82	C	0.335860	-0.343573	-0.369331
C83	C	0.669193	-0.010240	-0.035997
C84	C	1.002526	0.323093	0.297336
C85	C	0.371206	-0.303255	-0.326123
C86	C	0.704540	0.030078	0.007210
C87	C	1.037873	0.363411	0.340543
C88	C	0.447855	-0.303254	-0.326114
C89	C	0.781188	0.030080	0.007219
C90	C	1.114521	0.363413	0.340552
C91	C	0.508946	-0.303256	-0.326111
C92	C	0.842280	0.030077	0.007223
C93	C	1.175613	0.363411	0.340556
C94	C	0.977971	-0.466800	-0.326071
C95	C	1.311304	-0.133467	0.007262
C96	C	1.644638	0.199866	0.340595
C97	C	0.977996	-0.536768	-0.326079
C98	C	1.311329	-0.203435	0.007254
C99	C	1.644663	0.129898	0.340587
C100	C	1.021266	-0.569571	-0.369406
C101	C	1.354599	-0.236237	-0.036073
C102	C	1.687933	0.097096	0.297260
C103	C	1.021290	-0.635313	-0.369423
C104	C	1.354623	-0.301980	-0.036090
C105	C	1.687957	0.031354	0.297244
C106	C	0.978051	-0.668251	-0.326101
C107	C	1.311384	-0.334918	0.007233
C108	C	1.644717	-0.001584	0.340566
C109	C	0.934772	-0.635441	-0.282771
C110	C	1.268106	-0.302108	0.050562
C111	C	1.601439	0.031226	0.383896
C112	C	0.934745	-0.569700	-0.282760
C113	C	1.268078	-0.236366	0.050573
C114	C	1.601411	0.096967	0.383906
N115	N	0.972946	-0.771513	-0.266865
N116	N	1.306279	-0.438180	0.066468
N117	N	1.639613	-0.104846	0.399802
N118	N	0.972976	-0.833965	-0.266877
N119	N	1.306309	-0.500631	0.066456
N120	N	1.639643	-0.167298	0.399790
C121	C	0.978130	-0.866326	-0.326131
C122	C	1.311463	-0.532992	0.007202
C123	C	1.644796	-0.199659	0.340535
N124	N	0.983266	-0.833876	-0.385374
N125	N	1.316599	-0.500543	-0.052041
N126	N	1.649932	-0.167209	0.281292
N127	N	0.983239	-0.771419	-0.385362
N128	N	1.316572	-0.438086	-0.052028
N129	N	1.649906	-0.104752	0.281305
C130	C	0.978075	-0.739536	-0.326108
C131	C	1.311409	-0.406203	0.007226
C132	C	1.644742	-0.072870	0.340559
C133	C	1.021428	-0.970413	-0.369480
C134	C	1.354761	-0.637080	-0.036147
C135	C	1.688095	-0.303747	0.297187
C136	C	1.021447	-1.036157	-0.369498
C137	C	1.354781	-0.702824	-0.036164
C138	C	1.688114	-0.369490	0.297169
C139	C	0.934933	-1.036284	-0.282840
C140	C	1.268267	-0.702950	0.050494
C141	C	1.601600	-0.369617	0.383827
C142	C	0.934911	-0.970541	-0.282828
C143	C	1.268244	-0.637208	0.050506
C144	C	1.601577	-0.303874	0.383839
C145	C	0.978162	-0.937610	-0.326147
C146	C	1.311495	-0.604277	0.007186
C147	C	1.644828	-0.270943	0.340520
C148	C	1.154600	-0.303261	-0.326128
C149	C	1.487933	0.030072	0.007205
C150	C	1.821266	0.363405	0.340539
C151	C	1.229832	-0.303267	-0.326138
C152	C	1.563165	0.030067	0.007196
C153	C	1.896498	0.363400	0.340529
C154	C	0.978075	-0.303206	-0.502649
C155	C	1.311409	0.030127	-0.169315
C156	C	1.644742	0.363461	0.164018
C157	C	0.978083	-0.303188	-0.577881
C158	C	1.311416	0.030145	-0.244547
C159	C	1.644750	0.363479	0.088786
C160	C	0.978162	-0.139058	-0.326155
C161	C	1.311495	0.194275	0.007178
C162	C	1.644829	0.527608	0.340512
C163	C	0.978207	-0.069090	-0.326176
C164	C	1.311540	0.264243	0.007157
C165	C	1.644874	0.597576	0.340491
C166	C	1.021454	-0.343352	-1.039663
C167	C	1.354788	-0.010019	-0.706329
C168	C	1.688121	0.323314	-0.372996
C169	C	1.021436	-0.343370	-0.968974
C170	C	1.354769	-0.010036	-0.635641
C171	C	1.688102	0.323297	-0.302308
C172	C	0.978167	-0.303117	-0.933642
C173	C	1.311500	0.030216	-0.600309
C174	C	1.644834	0.363550	-0.266976
C175	C	0.934909	-0.262849	-0.969003
C176	C	1.268243	0.070484	-0.635669
C177	C	1.601576	0.403817	-0.302336
C178	C	0.934925	-0.262836	-1.039690
C179	C	1.268259	0.070497	-0.706357
C180	C	1.601592	0.403831	-0.373023
C181	C	0.934844	-0.262903	-0.683929
C182	C	1.268177	0.070430	-0.350596
C183	C	1.601511	0.403763	-0.017263
C184	C	0.934833	-0.262918	-0.613237
C185	C	1.268166	0.070415	-0.279904
C186	C	1.601500	0.403748	0.053429
C187	C	1.021354	-0.343437	-0.613214
C188	C	1.354688	-0.010104	-0.279880
C189	C	1.688021	0.323230	0.053453
C190	C	1.021370	-0.343423	-0.683901
C191	C	1.354704	-0.010090	-0.350568
C192	C	1.688037	0.323243	-0.017234
C193	C	0.978110	-0.303158	-0.719255
C194	C	1.311444	0.030175	-0.385922
C195	C	1.644777	0.363508	-0.052588
C196	C	0.978130	-0.303141	-0.795903
C197	C	1.311464	0.030192	-0.462570
C198	C	1.644797	0.363526	-0.129237
C199	C	0.978150	-0.303131	-0.856995
C200	C	1.311483	0.030203	-0.523662
C201	C	1.644817	0.363536	-0.190329
C202	C	0.978078	-0.303246	-0.150250
C203	C	1.311411	0.030088	0.183084
C204	C	1.644745	0.363421	0.516417
C205	C	0.978202	-0.303087	-0.075018
C206	C	1.311535	0.030247	0.258315
C207	C	1.644868	0.363580	0.591649
H208	H	0.720413	-0.230103	-0.247709
H209	H	1.053746	0.103231	0.085625
H210	H	1.387079	0.436564	0.418958
H211	H	1.056683	-1.062863	-0.404783
H212	H	1.390016	-0.729530	-0.071450
H213	H	1.723349	-0.396197	0.261884
H214	H	1.056482	-0.542760	-0.404681
H215	H	1.389815	-0.209427	-0.071348
H216	H	1.723148	0.123907	0.261986
H217	H	0.364644	-0.230125	-0.247731
H218	H	0.697977	0.103209	0.085603
H219	H	1.031310	0.436542	0.418936
C220	C	0.582070	-0.218595	-0.235374
C221	C	0.915404	0.114738	0.097960
C222	C	1.248737	0.448072	0.431293
N223	N	0.552790	-0.185198	-0.199578
N224	N	0.886123	0.148135	0.133756
N225	N	1.219456	0.481469	0.467089
H226	H	0.592156	-0.376386	-0.404492
H227	H	0.925489	-0.043052	-0.071159
H228	H	1.258823	0.290281	0.262174
C229	C	0.374729	-0.387916	-0.416856
C230	C	0.708062	-0.054582	-0.083523
C231	C	1.041396	0.278751	0.249811
N232	N	0.404004	-0.421314	-0.452655
N233	N	0.737338	-0.087981	-0.119322
N234	N	1.070671	0.245353	0.214012
C235	C	0.887267	-0.218601	-0.722810
C236	C	1.220600	0.114732	-0.389476
C237	C	1.553934	0.448066	-0.056143
N238	N	0.851433	-0.185227	-0.752097
N239	N	1.184766	0.148106	-0.418764
N240	N	1.518099	0.481439	-0.085430
C241	C	1.068995	-0.934187	-0.417141
C242	C	1.402329	-0.600853	-0.083807
C243	C	1.735662	-0.267520	0.249526
N244	N	1.104822	-0.906903	-0.453041
N245	N	1.438155	-0.573569	-0.119708
N246	N	1.771488	-0.240236	0.213625
H247	H	0.899676	-0.230078	-0.940230
H248	H	1.233010	0.103255	-0.606897
H249	H	1.566343	0.436589	-0.273563
C250	C	0.887140	-0.533616	-0.235098
C251	C	1.220473	-0.200283	0.098236
C252	C	1.553806	0.133050	0.431569
N253	N	0.851282	-0.506437	-0.199198
N254	N	1.184616	-0.173104	0.134135
N255	N	1.517949	0.160229	0.467469
C256	C	1.069054	-0.387635	-1.078521
C257	C	1.402387	-0.054301	-0.745188
C258	C	1.735720	0.279032	-0.411855
N259	N	1.104905	-0.420991	-1.107788
N260	N	1.438238	-0.087658	-0.774454
N261	N	1.771572	0.245675	-0.441121
C262	C	0.887360	-1.072511	-0.235194
C263	C	1.220693	-0.739178	0.098140
C264	C	1.554027	-0.405845	0.431473
N265	N	0.851523	-1.099801	-0.199309
N266	N	1.184856	-0.766468	0.134024
N267	N	1.518189	-0.433135	0.467357
C268	C	1.069050	-0.387635	-0.930087
C269	C	1.402384	-0.054301	-0.596753
C270	C	1.735717	0.279032	-0.263420
N271	N	1.104927	-0.420966	-0.900797
N272	N	1.438261	-0.087633	-0.567464
N273	N	1.771594	0.245700	-0.234130
C274	C	1.068968	-0.387705	-0.722762
C275	C	1.402301	-0.054372	-0.389429
C276	C	1.735634	0.278961	-0.056095
N277	N	1.104817	-0.421062	-0.752031
N278	N	1.438150	-0.087729	-0.418698
N279	N	1.771483	0.245605	-0.085364
C280	C	0.226285	-0.387923	-0.416872
C281	C	0.559618	-0.054590	-0.083538
C282	C	0.892952	0.278743	0.249795
N283	N	0.196996	-0.421324	-0.452673
N284	N	0.530329	-0.087991	-0.119340
N285	N	0.863663	0.245342	0.213993
C286	C	1.068895	-0.671403	-0.417085
C287	C	1.402228	-0.338069	-0.083752
C288	C	1.735562	-0.004736	0.249582
N289	N	1.104753	-0.698583	-0.452983
N290	N	1.438086	-0.365250	-0.119650
N291	N	1.771419	-0.031917	0.213684
H292	H	1.056577	-0.376225	-0.584420
H293	H	1.389910	-0.042891	-0.251086
H294	H	1.723243	0.290442	0.082247
C295	C	0.226309	-0.218609	-0.235402
C296	C	0.559642	0.114724	0.097931
C297	C	0.892976	0.448058	0.431265
N298	N	0.197031	-0.185206	-0.199610
N299	N	0.530364	0.148127	0.133723
N300	N	0.863697	0.481460	0.467057
C301	C	0.730488	-0.387901	-0.416826
C302	C	1.063822	-0.054568	-0.083492
C303	C	1.397155	0.278766	0.249841
N304	N	0.759761	-0.421300	-0.452627
N305	N	1.093094	-0.087966	-0.119293
N306	N	1.426427	0.245367	0.214040
H307	H	0.899705	-0.230046	-1.068475
H308	H	1.233038	0.103287	-0.735142
H309	H	1.566372	0.436620	-0.401809
H310	H	0.899679	-0.943832	-0.247544
H311	H	1.233012	-0.610498	0.085789
H312	H	1.566345	-0.277165	0.419123
C313	C	0.887235	-0.671674	-0.235090
C314	C	1.220569	-0.338340	0.098243
C315	C	1.553902	-0.005007	0.431577
N316	N	0.851437	-0.698964	-0.199167
N317	N	1.184770	-0.365631	0.134166
N318	N	1.518104	-0.032298	0.467499
C319	C	0.887228	-0.218639	-0.574374
C320	C	1.220561	0.114694	-0.241040
C321	C	1.553894	0.448028	0.092293
N322	N	0.851373	-0.185290	-0.545102
N323	N	1.184706	0.148043	-0.211768
N324	N	1.518040	0.481377	0.121565
