data_functionalizedCrystal
_audit_creation_method	'MofGen! by Chris Wilmer'
_symmetry_space_group_name_H-M	'P1'
_symmetry_Int_Tables_number	1
_symmetry_cell_setting	triclinic
loop_
_symmetry_equiv_pos_as_xyz
  x,y,z
_cell_length_a	14.628931
_cell_length_b	12.970454
_cell_length_c	12.970454
_cell_angle_alpha	60.000396
_cell_angle_beta	89.999635
_cell_angle_gamma	59.999968
loop_
_atom_site_label
_atom_site_type_symbol
_atom_site_fract_x
_atom_site_fract_y
_atom_site_fract_z
Zr1	Zr	0.880622	1.128511	-0.135292
O2	O	0.734663	1.343599	-0.299913
O3	O	0.925366	0.913422	-0.084828
O4	O	0.925368	1.128510	-0.299916
O5	O	0.734660	1.128512	0.084841
O6	O	1.075800	1.128510	-0.299916
O7	O	0.734661	1.128511	-0.084825
O8	O	1.075796	0.743757	0.084837
O9	O	0.734664	1.513265	-0.299912
O10	O	1.056715	1.001891	-0.063304
O11	O	0.944448	1.001892	0.063316
O12	O	0.944451	1.255130	-0.189922
O13	O	0.832184	1.255131	-0.063301
Zr14	Zr	1.120542	1.128512	0.135306
Zr15	Zr	1.120544	1.128511	-0.135292
Zr16	Zr	0.880620	1.128512	0.135307
Zr17	Zr	0.880623	1.399108	-0.135289
Zr18	Zr	1.120541	0.857914	0.135304
O19	O	1.075798	1.343601	0.084842
O20	O	1.075801	1.343599	-0.299914
O21	O	0.734661	1.343601	0.084843
O22	O	1.266501	0.913424	0.299928
O23	O	1.266503	0.913422	-0.084828
O24	O	0.925364	0.913424	0.299929
O25	O	1.266504	1.128511	-0.084827
O26	O	1.075796	1.128513	0.299930
O27	O	0.925364	1.128513	0.299930
O28	O	1.266503	1.128512	0.084840
O29	O	0.925369	1.513265	-0.299912
O30	O	1.075795	0.743758	0.299927
O31	O	1.266501	0.743758	0.299926
O32	O	1.266502	0.743757	0.084837
O33	O	0.734662	1.513266	-0.084822
O34	O	0.925368	1.513266	-0.084823
O35	O	1.056713	1.001893	0.189936
O36	O	1.168980	1.001892	0.063316
O37	O	1.056716	1.255131	-0.063302
O38	O	0.944449	1.255131	0.063319
C39	C	1.000581	0.790035	0.000004
C40	C	1.000581	0.675159	0.000003
C41	C	0.700477	1.128511	0.000008
C42	C	0.598624	1.128511	0.000008
C43	C	0.553215	1.128511	-0.088822
C44	C	0.447945	1.128511	-0.088823
C45	C	1.300687	1.128511	0.000007
C46	C	1.402540	1.128511	0.000006
C47	C	1.000584	1.128510	-0.338470
C48	C	1.000585	1.128509	-0.453346
C49	C	1.000583	1.466988	0.000010
C50	C	1.000583	1.581863	0.000011
C51	C	1.000580	1.128513	0.338485
C52	C	1.000579	1.128514	0.453361
C53	C	1.300686	0.790035	0.000004
C54	C	1.402539	0.675159	0.000002
C55	C	1.000579	0.790037	0.338482
C56	C	1.000578	0.675162	0.453357
C57	C	1.300684	0.790037	0.338481
C58	C	1.402536	0.675162	0.453356
C59	C	0.700480	1.466986	-0.338467
C60	C	0.598628	1.581861	-0.453342
C61	C	0.700478	1.466988	0.000011
C62	C	0.598625	1.581863	0.000012
C63	C	1.000585	1.466986	-0.338467
C64	C	1.000586	1.581861	-0.453343
C65	C	1.450370	0.527728	0.093477
C66	C	1.546062	0.419775	0.093480
C67	C	1.593925	0.459256	0.000013
C68	C	1.546085	0.606702	-0.093471
C69	C	1.450391	0.714652	-0.093478
C70	C	1.450374	0.527731	0.507301
C71	C	1.546086	0.419777	0.615226
C72	C	1.593952	0.459256	0.669210
C73	C	1.546110	0.606702	0.615255
C74	C	1.450405	0.714653	0.507327
C75	C	0.550798	1.729292	-0.507296
C76	C	0.455108	1.837246	-0.615245
C77	C	0.407245	1.797766	-0.669233
C78	C	0.455084	1.650320	-0.615273
C79	C	0.550777	1.542369	-0.507331
C80	C	0.550792	1.542337	0.093496
C81	C	0.455100	1.650260	0.093523
C82	C	0.407239	1.797709	0.000060
C83	C	0.455081	1.837235	-0.093429
C84	C	0.550775	1.729313	-0.093450
H85	H	0.408892	1.128518	-0.164878
H86	H	1.671881	0.371341	0.757093
O87	O	1.592696	0.276537	0.667553
C88	C	1.703735	0.208474	0.667207
H89	H	1.713825	0.294032	0.590791
H90	H	1.723479	0.124592	0.647342
H91	H	1.763689	0.151761	0.763207
O92	O	0.408755	1.980398	-0.667448
C93	C	0.471534	1.992079	-0.596649
H94	H	0.519387	1.887720	-0.496763
H95	H	0.412678	2.088627	-0.592613
H96	H	0.533298	2.009336	-0.643322
H97	H	0.416098	1.957302	-0.169523
O98	O	1.592760	0.644790	-0.184132
C99	C	1.687463	0.517882	-0.164079
H100	H	1.720858	0.422823	-0.060789
H101	H	1.755067	0.536521	-0.188551
H102	H	1.663046	0.491682	-0.226681
H103	H	0.559570	1.128504	0.076062
O104	O	1.403858	0.857847	0.455116
C105	C	1.371616	0.888279	0.544333
H106	H	1.359009	0.803905	0.617881
H107	H	1.289997	1.001662	0.494459
H108	H	1.439768	0.883881	0.592800
O109	O	0.408408	1.612233	-0.667846
C110	C	0.313706	1.739141	-0.774699
H111	H	0.280312	1.834201	-0.766467
H112	H	0.246100	1.720505	-0.780531
H113	H	0.338124	1.765339	-0.863500
H114	H	0.592275	1.128503	-0.164868
H115	H	1.585001	0.299726	0.169609
H116	H	0.589711	1.761518	-0.169581
H117	H	1.585098	0.638827	0.659224
O118	O	0.449129	1.128709	0.090577
C119	C	0.448785	1.254325	0.033291
H120	H	0.444464	1.296196	-0.068824
H121	H	0.528648	1.226083	0.086874
H122	H	0.372968	1.342270	0.035502
O123	O	1.403997	0.489104	0.184334
C124	C	1.466763	0.335822	0.266841
H125	H	1.514626	0.286294	0.216474
H126	H	1.407896	0.301637	0.297004
H127	H	1.528518	0.295588	0.353760
O128	O	1.403786	0.857886	-0.184376
C129	C	1.292738	0.925966	-0.252769
H130	H	1.282631	0.840420	-0.243628
H131	H	1.272988	1.009851	-0.356517
H132	H	1.232800	0.982679	-0.213470
H133	H	0.589745	1.422283	0.169604
O134	O	0.597470	1.767485	-0.454854
C135	C	0.708498	1.710663	-0.455240
H136	H	0.741395	1.613327	-0.459993
H137	H	0.763269	1.674334	-0.365219
H138	H	0.710610	1.798378	-0.540815
H139	H	0.329326	1.885681	-0.757126
H140	H	0.589708	1.422325	-0.463404
O141	O	0.408746	1.611594	0.184395
C142	C	0.471524	1.458310	0.266883
H143	H	0.519379	1.408806	0.216497
H144	H	0.412668	1.424107	0.297052
H145	H	0.533288	1.418066	0.353800
O146	O	1.404054	0.489108	0.455007
C147	C	1.466799	0.335827	0.525800
H148	H	1.555373	0.286296	0.579771
H149	H	1.470352	0.301640	0.459410
H150	H	1.425412	0.295596	0.595462
H151	H	1.671843	0.371342	0.000031
H152	H	0.329317	1.885571	0.000090
