data_functionalizedCrystal
_audit_creation_method	'MofGen! by Chris Wilmer'
_symmetry_space_group_name_H-M	'P1'
_symmetry_Int_Tables_number	1
_symmetry_cell_setting	triclinic
loop_
_symmetry_equiv_pos_as_xyz
  x,y,z
_cell_length_a	16.974897
_cell_length_b	7.681481
_cell_length_c	16.992695
_cell_angle_alpha	96.134400
_cell_angle_beta	87.027201
_cell_angle_gamma	87.911497
loop_
_atom_site_label
_atom_site_type_symbol
_atom_site_fract_x
_atom_site_fract_y
_atom_site_fract_z
O1	O	1.041352	0.294672	0.114940
O2	O	0.813504	0.262241	0.126010
O3	O	0.926515	0.278312	0.006326
O4	O	0.928341	0.278600	0.234624
O5	O	0.940423	-0.012567	-0.008439
O6	O	0.827411	-0.028639	0.111245
O7	O	1.055260	0.003792	0.100175
Zn8	Zn	0.943544	-0.058607	0.103366
Zn9	Zn	0.925220	0.324640	0.122819
O10	O	0.942248	-0.012280	0.219859
C11	C	0.791168	0.112632	0.117930
C12	C	0.703895	0.100209	0.115843
C13	C	0.655306	0.252919	0.122912
C14	C	0.573304	0.241220	0.120962
C15	C	0.539893	0.076811	0.111938
C16	C	0.588488	-0.075910	0.104871
C17	C	0.670488	-0.064210	0.106826
C18	C	0.295463	0.024818	0.105232
C19	C	0.213456	0.013129	0.103274
C20	C	0.198278	0.330261	0.119367
C21	C	0.280281	0.341946	0.121317
C22	C	0.328868	0.189225	0.114254
N23	N	0.456074	0.064850	0.109942
N24	N	0.412685	0.201188	0.116256
N25	N	0.956055	-0.320162	0.090090
C26	C	1.077595	0.153405	0.108255
C27	C	1.164868	0.165839	0.110343
C28	C	0.931119	0.132538	-0.030283
C29	C	0.924107	0.131541	-0.117371
N30	N	0.912714	0.586196	0.136090
C31	C	0.991761	0.141168	-0.167193
C32	C	0.985168	0.140247	-0.249019
C33	C	0.910919	0.129684	-0.281023
C34	C	0.843260	0.120061	-0.231195
C35	C	0.849854	0.120995	-0.149369
C36	C	0.883590	0.125819	-0.524789
C37	C	0.877001	0.124880	-0.606621
C38	C	1.018910	0.145069	-0.624440
C39	C	1.025497	0.145992	-0.542612
C40	C	0.957837	0.136377	-0.492791
N41	N	0.904178	0.128736	-0.364663
N42	N	0.964579	0.137338	-0.409152
C43	C	0.937644	0.133498	0.256469
C44	C	0.944656	0.134507	0.343557
H45	H	0.533746	0.365573	0.126719
O46	O	1.050935	0.149832	-0.297321
C47	C	1.088502	0.306864	-0.275103
H48	H	1.070710	0.354896	-0.210608
H49	H	1.155256	0.282239	-0.282172
H50	H	1.069920	0.410435	-0.314562
O51	O	0.817874	0.116781	-0.476355
C52	C	0.810243	0.267350	-0.420828
H53	H	0.843490	0.378092	-0.445193
H54	H	0.745146	0.308997	-0.409460
H55	H	0.835922	0.236716	-0.362933
H56	H	0.868472	-0.344900	0.183042
O57	O	1.008903	-0.402080	0.034056
C58	C	1.047308	-0.275895	-0.006742
H59	H	1.044056	-0.144889	0.031992
H60	H	1.111775	-0.320098	-0.021044
H61	H	1.017148	-0.260661	-0.064163
O62	O	1.063833	0.151657	-0.136002
C63	C	1.064695	0.303475	-0.081567
H64	H	1.001678	0.345068	-0.059020
H65	H	1.100982	0.274527	-0.029520
H66	H	1.092122	0.413590	-0.112142
H67	H	0.186255	-0.120759	0.095947
H68	H	0.682503	0.386799	0.130258
O69	O	1.097679	0.156332	-0.511653
C70	C	1.155983	0.164581	-0.573177
H71	H	1.127854	0.216040	-0.626094
H72	H	1.203480	0.256347	-0.551475
H73	H	1.183763	0.028031	-0.591710
H74	H	1.073994	0.152899	-0.665013
H75	H	0.816538	0.116250	-0.632676
O76	O	0.342739	-0.123409	0.098262
C77	C	0.395240	-0.125505	0.031062
H78	H	0.402485	0.014136	0.015732
H79	H	0.455072	-0.184556	0.044284
H80	H	0.370619	-0.207787	-0.021167
H81	H	0.307478	0.475826	0.128660
O82	O	0.771199	0.109732	-0.262415
C83	C	0.779882	0.111010	-0.345318
H84	H	0.842592	0.064490	-0.366949
H85	H	0.736100	0.019753	-0.375012
H86	H	0.767976	0.249814	-0.361030
H87	H	0.158710	0.454598	0.125119
O88	O	0.784067	0.111866	-0.101037
C89	C	0.732101	0.256170	-0.107946
H90	H	0.745087	0.308581	-0.167341
H91	H	0.668585	0.213025	-0.104311
H92	H	0.740607	0.363589	-0.057773
O93	O	0.556133	-0.235715	0.095996
C94	C	0.585404	-0.328652	0.023732
H95	H	0.644327	-0.274856	0.004826
H96	H	0.594112	-0.473454	0.031693
H97	H	0.541444	-0.312798	-0.023757
H98	H	0.710049	-0.188563	0.101074
