data_functionalizedCrystal
_audit_creation_method	'MofGen! by Chris Wilmer'
_symmetry_space_group_name_H-M	'P1'
_symmetry_Int_Tables_number	1
_symmetry_cell_setting	triclinic
loop_
_symmetry_equiv_pos_as_xyz
  x,y,z
_cell_length_a	13.635800
_cell_length_b	27.923496
_cell_length_c	11.168136
_cell_angle_alpha	84.470894
_cell_angle_beta	108.508683
_cell_angle_gamma	81.036054
loop_
_atom_site_label
_atom_site_type_symbol
_atom_site_fract_x
_atom_site_fract_y
_atom_site_fract_z
V1	V	2.031138	-0.067133	0.394497
O2	O	2.035874	0.003219	0.386166
O3	O	1.995891	-0.133106	0.392589
O4	O	2.019649	-0.066103	0.566191
O5	O	2.011952	-0.064248	0.211363
V6	V	2.272737	-0.058718	0.372497
O7	O	2.162125	-0.085592	0.442757
O8	O	2.366849	-0.040258	0.324238
O9	O	2.196381	0.007255	0.374405
O10	O	2.326700	-0.129069	0.380828
O11	O	2.350622	-0.061603	0.555632
O12	O	2.172623	-0.059747	0.200804
V13	V	2.531138	-0.067133	0.394497
O14	O	2.535874	0.003219	0.386166
O15	O	2.495891	-0.133106	0.392589
O16	O	2.519649	-0.066103	0.566191
O17	O	2.511952	-0.064248	0.211363
V18	V	2.772737	-0.058718	0.372497
O19	O	2.662125	-0.085592	0.442757
O20	O	2.866849	-0.040258	0.324238
O21	O	2.696381	0.007255	0.374405
O22	O	2.826700	-0.129069	0.380828
O23	O	2.850622	-0.061603	0.555632
O24	O	2.672623	-0.059747	0.200804
C25	C	1.915293	-0.149188	0.386570
C26	C	1.927202	-0.203122	0.386154
C27	C	2.092305	-0.540050	0.390044
C28	C	2.137132	-0.742759	0.388541
O29	O	2.220427	-0.771075	0.393786
N30	N	2.051623	-0.765634	0.382018
C31	C	1.954902	-0.737828	0.375878
O32	O	1.883202	-0.761937	0.370308
C33	C	1.910077	-0.535121	0.377390
C34	C	1.995590	-0.512248	0.383901
C35	C	2.177810	-0.517177	0.396556
C36	C	2.166601	-0.466503	0.396925
C37	C	2.069887	-0.438701	0.390782
C38	C	1.984381	-0.461574	0.384270
C39	C	1.813359	-0.507317	0.371260
C40	C	1.802162	-0.456637	0.371642
C41	C	1.887674	-0.433765	0.378152
C42	C	1.876458	-0.383097	0.378495
N43	N	1.961967	-0.360222	0.385019
C44	C	2.058682	-0.388024	0.391162
C45	C	1.978441	-0.844253	0.375082
C46	C	1.989646	-0.894929	0.374702
C47	C	2.171877	-0.899857	0.387368
C48	C	2.160668	-0.849179	0.387739
C49	C	2.063950	-0.821378	0.381606
C50	C	2.035135	-0.281604	0.391935
C51	C	2.023916	-0.230924	0.392297
C52	C	1.841689	-0.226002	0.379638
C53	C	1.852905	-0.276676	0.379269
C54	C	1.949637	-0.304477	0.385422
O55	O	1.793200	-0.354752	0.373269
O56	O	2.130374	-0.363909	0.396759
C57	C	2.103513	-0.590725	0.389676
C58	C	2.018008	-0.613598	0.383164
C59	C	1.921293	-0.585796	0.377021
C60	C	2.029213	-0.664274	0.382784
C61	C	2.125927	-0.692076	0.388927
C62	C	2.211437	-0.669201	0.395450
C63	C	2.200228	-0.618527	0.395819
C64	C	1.835784	-0.608670	0.370497
C65	C	1.847000	-0.659345	0.370128
C66	C	1.943714	-0.687147	0.376271
C67	C	1.945597	-0.063720	0.608014
C68	C	1.976772	-0.063315	0.748380
C69	C	2.108650	0.023336	0.380421
C70	C	2.086360	0.077269	0.380845
C71	C	2.078345	-0.062132	0.158974
C72	C	2.036790	-0.062535	0.018607
C73	C	2.415293	-0.149188	0.386570
C74	C	2.427202	-0.203122	0.386154
C75	C	2.445597	-0.063720	0.608014
C76	C	2.476772	-0.063315	0.748380
C77	C	2.077274	-0.065435	0.817097
C78	C	2.109497	-0.065016	0.962172
C79	C	2.608650	0.023336	0.380421
C80	C	2.586360	0.077269	0.380845
C81	C	2.578345	-0.062132	0.158974
C82	C	2.536790	-0.062535	0.018607
C83	C	2.523916	-0.230924	0.392297
C84	C	2.535125	-0.281602	0.391926
C85	C	2.449616	-0.304477	0.385403
C86	C	2.352894	-0.276671	0.379263
C87	C	2.341689	-0.225995	0.379643
C88	C	2.662140	0.105070	0.374706
C89	C	2.641204	0.155748	0.375083
C90	C	2.544490	0.178623	0.381609
C91	C	2.468704	0.150818	0.387745
C92	C	2.489638	0.100142	0.387359
C93	C	2.577274	-0.065435	0.817097
C94	C	2.609497	-0.065016	0.962172
H95	H	2.093554	-0.212303	0.397595
H96	H	2.527457	0.219887	0.381922
Br97	Br	1.736850	-0.307719	0.370428
H98	H	2.139461	-0.067557	0.768524
Br99	Br	2.793404	0.074038	0.365850
H100	H	1.757028	-0.586039	0.365496
Br101	Br	2.253005	-0.068047	1.060623
H102	H	2.414583	-0.061186	0.796951
Br103	Br	2.337450	0.181870	0.396591
H104	H	2.702925	0.178380	0.370088
H105	H	2.427928	0.077508	0.392370
H106	H	2.639461	-0.067557	0.768524
H107	H	1.899678	-0.821622	0.370086
Br108	Br	2.342691	-0.706942	0.403777
H109	H	2.695595	-0.066834	1.021245
Br110	Br	2.393283	-0.059516	0.920169
Br111	Br	2.666395	-0.319327	0.400255
Br112	Br	1.893283	-0.059516	0.920169
Br113	Br	2.166414	-0.319325	0.400286
H114	H	1.920007	-0.913547	0.369384
H115	H	2.458754	-0.345741	0.385094
H116	H	2.256570	-0.539809	0.401563
Br117	Br	2.282659	-0.435468	0.405743
H118	H	2.230301	-0.830559	0.393038
H119	H	2.250624	-0.922501	0.392356
H120	H	1.762943	-0.203356	0.374631
Br121	Br	2.236854	-0.307723	0.370406
H122	H	1.914583	-0.061186	0.796951
H123	H	2.593552	-0.212306	0.397602
Br124	Br	1.697291	-0.538344	0.362403
Br125	Br	1.670897	-0.418912	0.363326
H126	H	2.262930	-0.203362	0.374634
H127	H	1.777356	-0.677963	0.364817
Br128	Br	2.316287	-0.587492	0.404645
