data_functionalizedCrystal
_audit_creation_method	'MofGen! by Chris Wilmer'
_symmetry_space_group_name_H-M	'P1'
_symmetry_Int_Tables_number	1
_symmetry_cell_setting	triclinic
loop_
_symmetry_equiv_pos_as_xyz
  x,y,z
_cell_length_a	19.288862
_cell_length_b	19.288865
_cell_length_c	9.730217
_cell_angle_alpha	90.000752
_cell_angle_beta	90.012040
_cell_angle_gamma	96.864234
loop_
_atom_site_label
_atom_site_type_symbol
_atom_site_fract_x
_atom_site_fract_y
_atom_site_fract_z
O1	O	-0.086648	0.921344	-0.114266
O2	O	-0.098337	0.719083	-0.114282
O3	O	0.008638	0.826059	-0.114238
O4	O	-0.193623	0.814368	-0.114309
O5	O	0.008642	0.826057	0.114342
O6	O	-0.098333	0.719081	0.114298
O7	O	-0.086644	0.921342	0.114315
Zn8	Zn	-0.092488	0.820212	0.150598
Zn9	Zn	-0.092493	0.820214	-0.150566
O10	O	-0.193619	0.814367	0.114271
C11	C	0.034516	0.825682	0.000058
C12	C	0.111620	0.824554	0.000076
C13	C	-0.097959	0.693206	0.000007
C14	C	-0.096830	0.616102	0.000002
C15	C	0.156316	0.887322	0.000091
C16	C	0.228764	0.886262	0.000075
C17	C	0.256511	0.822430	0.000071
C18	C	0.211805	0.759653	0.000049
C19	C	0.139359	0.760715	0.000051
C20	C	0.364800	0.772251	0.080143
C21	C	0.437245	0.771191	0.080149
C22	C	0.479957	0.819152	0.000058
C23	C	0.450218	0.868184	-0.080021
C24	C	0.377772	0.869246	-0.080019
C25	C	0.335065	0.821271	0.000068
C26	C	0.603209	0.880775	0.000053
C27	C	0.675658	0.879712	0.000029
C28	C	0.658697	0.753102	0.000016
C29	C	0.586251	0.754167	0.000027
C30	C	0.558511	0.818005	0.000052
C31	C	0.780503	0.814745	-0.000009
C32	C	0.703400	0.815880	0.000023
N33	N	-0.092491	0.820215	-0.356102
C34	C	-0.087022	0.947219	0.000023
C35	C	-0.088151	1.024323	0.000018
C36	C	-0.025383	1.069020	0.000029
C37	C	-0.026444	1.141467	0.000036
C38	C	-0.090276	1.169214	0.000006
C39	C	-0.153052	1.124507	0.000004
C40	C	-0.151990	1.052062	0.000010
C41	C	-0.140457	1.277491	-0.080101
C42	C	-0.141517	1.349935	-0.080116
C43	C	-0.093556	1.392659	-0.000006
C44	C	-0.044523	1.362932	0.080100
C45	C	-0.043461	1.290486	0.080106
C46	C	-0.091435	1.247768	0.000000
C47	C	-0.031934	1.515912	0.000014
C48	C	-0.032997	1.588360	0.000030
C49	C	-0.159607	1.571399	-0.000016
C50	C	-0.158542	1.498953	-0.000018
C51	C	-0.094703	1.471214	-0.000010
C52	C	0.002061	0.915127	-0.356054
C53	C	0.049342	0.962580	-0.427970
C54	C	0.049350	0.962580	-0.571850
C55	C	0.002070	0.915122	-0.643817
C56	C	-0.045211	0.867669	-0.571901
C57	C	-0.045212	0.867673	-0.428018
C58	C	-0.139765	0.772762	-0.571949
C59	C	-0.139771	0.772758	-0.428069
C60	C	-0.187045	0.725304	-0.643916
C61	C	-0.234324	0.677847	-0.572000
C62	C	-0.234330	0.677848	-0.428112
C63	C	-0.187052	0.725304	-0.356153
N64	N	-0.092484	0.820215	0.356135
H65	H	0.133736	0.939304	0.000107
C66	C	-0.286328	0.625651	-0.651157
H67	H	-0.314490	0.597390	-0.587724
H68	H	-0.261357	0.596873	-0.707280
H69	H	-0.315231	0.650495	-0.707290
H70	H	0.353561	0.909167	-0.145225
H71	H	-0.181437	1.374134	-0.145354
C72	C	0.044836	1.038510	0.000062
H73	H	0.082067	1.075511	0.000082
H74	H	0.047885	1.010597	-0.079641
H75	H	0.047882	1.010608	0.079791
H76	H	0.020048	1.493326	0.000027
H77	H	-0.211581	1.593990	-0.000032
C78	C	0.572693	0.950993	0.000065
H79	H	0.609691	0.988225	0.000051
H80	H	0.544795	0.954039	0.079780
H81	H	0.544774	0.954038	-0.079652
C82	C	0.042603	1.190642	0.000024
H83	H	0.080774	1.163746	0.000017
H84	H	0.044831	1.219265	0.079724
H85	H	0.044806	1.219246	-0.079708
C86	C	0.036052	1.637528	0.000042
H87	H	0.074221	1.610628	0.000035
H88	H	0.038275	1.666143	0.079752
H89	H	0.038262	1.666139	-0.079680
C90	C	0.469952	0.717261	0.168232
H91	H	0.434139	0.688841	0.215912
H92	H	0.501435	0.740855	0.232633
H93	H	0.494450	0.688802	0.110480
C94	C	-0.227588	1.449784	-0.000051
H95	H	-0.265757	1.476683	-0.000079
H96	H	-0.229806	1.421170	0.079658
H97	H	-0.229803	1.421171	-0.079774
H98	H	0.330029	0.733194	0.145370
C99	C	0.277938	0.955309	0.000101
H100	H	0.251042	0.993480	0.000125
H101	H	0.306546	0.957532	-0.079606
H102	H	0.306556	0.957518	0.079826
H103	H	-0.179518	1.242709	-0.145334
H104	H	0.484993	0.907238	-0.145240
H105	H	-0.003538	1.266285	0.145333
C106	C	0.002070	0.915127	-0.802081
H107	H	-0.032861	0.880072	-0.834641
H108	H	0.046466	0.905849	-0.834618
H109	H	-0.007413	0.959465	-0.834621
C110	C	-0.223266	1.155026	-0.000036
H111	H	-0.214909	1.204574	-0.000054
H112	H	-0.249102	1.139674	0.079666
H113	H	-0.249101	1.139665	-0.079766
H114	H	-0.187050	0.725308	-0.238999
H115	H	-0.272834	0.639209	-0.369565
H116	H	0.712049	0.930828	0.000033
H117	H	-0.203105	1.015669	0.000003
C118	C	0.002057	0.915121	-0.197791
H119	H	-0.032869	0.880060	-0.165268
H120	H	-0.007415	0.959456	-0.165238
H121	H	0.046456	0.905831	-0.165227
C122	C	0.090188	0.691669	0.000038
H123	H	0.043069	0.701444	0.000033
H124	H	0.098586	0.665480	0.079740
H125	H	0.098567	0.665490	-0.079692
H126	H	0.087836	1.001221	-0.369362
C127	C	0.008235	1.409915	0.168235
H128	H	0.037589	1.381835	0.215935
H129	H	-0.016194	1.434957	0.232620
H130	H	0.035868	1.441934	0.110508
C131	C	0.689211	0.682888	0.000008
H132	H	0.738759	0.691245	0.000015
H133	H	0.673844	0.657053	-0.079704
H134	H	0.673865	0.657052	0.079728
H135	H	-0.187040	0.725309	-0.761071
C136	C	0.101358	1.014776	-0.650961
H137	H	0.129518	1.043037	-0.587499
H138	H	0.076391	1.043554	-0.707109
H139	H	0.130264	0.989932	-0.707065
C140	C	0.537080	0.685123	0.000020
H141	H	0.489960	0.694897	0.000009
H142	H	0.545476	0.658934	0.079724
H143	H	0.545461	0.658944	-0.079708
H144	H	0.234402	0.707681	0.000043
