data_functionalizedCrystal
_audit_creation_method	'MofGen! by Chris Wilmer'
_symmetry_space_group_name_H-M	'P1'
_symmetry_Int_Tables_number	1
_symmetry_cell_setting	triclinic
loop_
_symmetry_equiv_pos_as_xyz
  x,y,z
_cell_length_a	6.817900
_cell_length_b	11.452831
_cell_length_c	10.773894
_cell_angle_alpha	83.899974
_cell_angle_beta	96.645922
_cell_angle_gamma	108.696887
loop_
_atom_site_label
_atom_site_type_symbol
_atom_site_fract_x
_atom_site_fract_y
_atom_site_fract_z
V1	V	-3.967650	-0.164839	-0.353163
V2	V	-3.467650	0.335161	0.146837
O3	O	-3.936515	0.012549	-0.384264
O4	O	-3.436515	0.512549	0.115736
O5	O	-3.938588	-0.331299	-0.314370
O6	O	-3.438588	0.168701	0.185630
O7	O	-3.884792	-0.160273	-0.523786
O8	O	-3.384792	0.339727	-0.023786
O9	O	-3.990683	-0.159661	-0.173398
O10	O	-3.490683	0.340339	0.326602
V11	V	-4.453237	-0.143861	-0.336081
V12	V	-3.953237	0.356139	0.163919
O13	O	-4.224380	-0.210855	-0.390634
O14	O	-3.724380	0.289145	0.109366
O15	O	-4.646703	-0.097845	-0.298610
O16	O	-4.146703	0.402155	0.201390
O17	O	-4.259092	0.022599	-0.374874
O18	O	-3.759092	0.522599	0.125126
O19	O	-4.601768	-0.321249	-0.304980
O20	O	-4.101768	0.178751	0.195020
O21	O	-4.547600	-0.149039	-0.515846
O22	O	-4.047600	0.350961	-0.015846
O23	O	-4.312888	-0.148428	-0.165458
O24	O	-3.812888	0.351572	0.334542
C25	C	-3.789408	-0.371942	-0.299412
C26	C	-3.289408	0.128058	0.200588
C27	C	-3.846704	-0.508012	-0.268831
C28	C	-3.346704	-0.008012	0.231169
C29	C	-3.949740	-0.724671	-0.328823
C30	C	-3.449740	-0.224671	0.171177
C31	C	-3.890521	-0.584036	-0.360437
C32	C	-3.390521	-0.084036	0.139563
C33	C	-3.720785	-0.153779	-0.566542
C34	C	-3.220785	0.346221	-0.066542
C35	C	-3.734452	-0.151147	-0.705788
C36	C	-3.234452	0.348853	-0.205788
C37	C	-3.913056	-0.155709	-0.772660
C38	C	-3.413056	0.344291	-0.272660
C39	C	-3.927185	-0.152989	-0.916579
C40	C	-3.427185	0.347011	-0.416579
C41	C	-4.071615	0.063235	-0.389827
C42	C	-3.571615	0.563235	0.110173
C43	C	-3.993556	0.199304	-0.420416
C44	C	-3.493556	0.699304	0.079584
C45	C	-4.140238	-0.154925	-0.122695
C46	C	-3.640238	0.345075	0.377305
C47	C	-4.105810	-0.157551	0.016552
C48	C	-3.605810	0.342449	0.516552
H49	H	-3.884185	-0.545014	-0.462264
H50	H	-3.384185	-0.045014	0.037736
H51	H	-4.055502	-0.161620	-0.723366
H52	H	-3.555502	0.338380	-0.223366
H53	H	-3.784718	-0.147061	-0.965869
H54	H	-3.284718	0.352939	-0.465869
H55	H	-3.956059	-0.763698	-0.227003
H56	H	-3.456059	-0.263698	0.272997
H57	H	-4.248277	-0.163475	-0.934160
H58	H	-3.748277	0.336525	-0.434160
C59	C	-3.855269	-0.560715	-0.131272
C60	C	-3.355269	-0.060715	0.368728
H61	H	-3.893971	-0.648323	-0.128067
H62	H	-3.393971	-0.148323	0.371933
H63	H	-3.722422	-0.529237	-0.087303
H64	H	-3.222422	-0.029237	0.412697
H65	H	-3.954747	-0.537113	-0.093588
H66	H	-3.454747	-0.037113	0.406412
H67	H	-3.591998	-0.145220	-0.755084
H68	H	-3.091998	0.354780	-0.255084
C69	C	-3.984954	-0.747983	-0.557967
C70	C	-3.484954	-0.247983	-0.057967
H71	H	-3.946268	-0.660375	-0.561169
H72	H	-3.446268	-0.160375	-0.061169
H73	H	-3.885491	-0.771593	-0.595644
H74	H	-3.385491	-0.271593	-0.095644
H75	H	-4.117809	-0.779451	-0.601944
H76	H	-3.617809	-0.279451	-0.101944
