data_functionalizedCrystal
_audit_creation_method	'MofGen! by Chris Wilmer'
_symmetry_space_group_name_H-M	'P1'
_symmetry_Int_Tables_number	1
_symmetry_cell_setting	triclinic
loop_
_symmetry_equiv_pos_as_xyz
  x,y,z
_cell_length_a	23.532407
_cell_length_b	27.732048
_cell_length_c	22.010155
_cell_angle_alpha	89.999275
_cell_angle_beta	89.996931
_cell_angle_gamma	82.745667
loop_
_atom_site_label
_atom_site_type_symbol
_atom_site_fract_x
_atom_site_fract_y
_atom_site_fract_z
O1	O	0.755138	0.058672	-0.050456
O2	O	0.589257	0.067162	-0.050475
O3	O	0.677350	-0.007472	-0.050453
O4	O	0.667046	0.133306	-0.050477
O5	O	0.677334	-0.007461	0.050597
O6	O	0.589241	0.067173	0.050576
O7	O	0.755122	0.058683	0.050595
Cu8	Cu	0.672180	0.062929	0.059812
Cu9	Cu	0.672199	0.062916	-0.059692
O10	O	0.667030	0.133317	0.050573
C11	C	0.568033	0.066952	0.000048
C12	C	0.504818	0.066302	0.000042
C13	C	0.105629	0.106391	0.000062
C14	C	0.046230	0.105787	0.000066
O15	O	0.009406	0.142951	0.000082
N16	N	0.023699	0.061418	0.000073
C17	C	0.060570	0.017649	0.000082
O18	O	0.035951	-0.020147	0.000088
C19	C	0.119967	0.018253	0.000082
C20	C	0.142495	0.062626	0.000070
C21	C	0.128158	0.150760	0.000050
C22	C	0.187552	0.151364	0.000045
C23	C	0.224419	0.107599	0.000052
C24	C	0.201890	0.063229	0.000065
C25	C	0.156837	-0.025515	0.000096
C26	C	0.216239	-0.024907	0.000097
C27	C	0.238766	0.019466	0.000084
C28	C	0.298151	0.020068	0.000067
N29	N	0.320683	0.064437	0.000060
C30	C	0.283817	0.108203	0.000053
C31	C	-0.064170	0.016383	0.000082
C32	C	-0.123567	0.015778	0.000077
C33	C	-0.137902	0.103917	0.000062
C34	C	-0.078505	0.104521	0.000063
C35	C	-0.041639	0.060753	0.000075
C36	C	0.408551	0.109467	0.000042
C37	C	0.467951	0.110067	0.000035
C38	C	0.482282	0.021928	0.000052
C39	C	0.422886	0.021328	0.000057
C40	C	0.386021	0.065102	0.000053
O41	O	0.335010	-0.017077	0.000054
O42	O	0.308444	0.145992	0.000054
C43	C	0.677125	-0.025473	0.000074
C44	C	0.676474	-0.079129	0.000079
C45	C	0.724431	-0.417871	0.000053
C46	C	0.722014	-0.619534	0.000044
O47	O	0.765867	-0.650722	0.000023
N48	N	0.669779	-0.638738	0.000039
C49	C	0.618144	-0.607523	0.000032
O50	O	0.573659	-0.628484	0.000021
C51	C	0.620561	-0.405860	0.000036
C52	C	0.672800	-0.386659	0.000048
C53	C	0.776665	-0.398669	0.000064
C54	C	0.777269	-0.348256	0.000069
C55	C	0.725638	-0.317045	0.000064
C56	C	0.673403	-0.336247	0.000053
C57	C	0.568927	-0.374646	0.000025
C58	C	0.569536	-0.324228	0.000024
C59	C	0.621775	-0.305027	0.000036
C60	C	0.622376	-0.254622	0.000053
N61	N	0.674611	-0.235418	0.000059
C62	C	0.726242	-0.266630	0.000064
C63	C	0.616879	-0.713399	0.000031
C64	C	0.616274	-0.763814	0.000031
C65	C	0.720145	-0.775822	0.000042
C66	C	0.720749	-0.725406	0.000046
C67	C	0.669114	-0.694195	0.000036
C68	C	0.727506	-0.160758	0.000076
C69	C	0.728105	-0.110341	0.000084
C70	C	0.624235	-0.098337	0.000069
C71	C	0.623635	-0.148751	0.000065
C72	C	0.675276	-0.179961	0.000066
O73	O	0.578547	-0.223406	0.000068
O74	O	0.770721	-0.245659	0.000061
C75	C	0.723827	-0.468283	0.000047
C76	C	0.671593	-0.487485	0.000037
C77	C	0.619962	-0.456274	0.000031
C78	C	0.670988	-0.537900	0.000037
C79	C	0.722619	-0.569112	0.000042
C80	C	0.774855	-0.549908	0.000047
C81	C	0.775458	-0.499495	0.000053
C82	C	0.567727	-0.475478	0.000026
C83	C	0.567127	-0.525891	0.000021
C84	C	0.618758	-0.557103	0.000026
C85	C	0.776346	0.058894	0.000070
C86	C	0.839562	0.059544	0.000073
C87	C	0.667254	0.151319	0.000045
C88	C	0.667905	0.204975	0.000036
N89	N	0.672171	0.062938	0.143864
N90	N	0.672213	0.062903	-0.143744
C91	C	0.711209	0.029873	0.563653
C92	C	0.711211	0.029869	0.627261
O93	O	0.744380	0.001762	0.660160
N94	N	0.672199	0.062906	0.659071
C95	C	0.633177	0.095945	0.627271
O96	O	0.599994	0.124044	0.660169
C97	C	0.633172	0.095945	0.563665
C98	C	0.672191	0.062910	0.531857
C99	C	0.750224	-0.003160	0.531846
C100	C	0.750222	-0.003156	0.468243
C101	C	0.711205	0.029881	0.436447
C102	C	0.672189	0.062914	0.468254
C103	C	0.594148	0.128981	0.531866
C104	C	0.594147	0.128979	0.468255
C105	C	0.633166	0.095943	0.436447
C106	C	0.633170	0.095955	0.372855
N107	N	0.672182	0.062919	0.341045
C108	C	0.711200	0.029881	0.372840
C109	C	0.633190	0.095940	0.760849
C110	C	0.633197	0.095942	0.824454
C111	C	0.711231	0.029866	0.824440
C112	C	0.711226	0.029867	0.760833
C113	C	0.672202	0.062904	0.729038
C114	C	0.711193	0.029893	0.239269
C115	C	0.711189	0.029901	0.175660
C116	C	0.633153	0.095975	0.175680
C117	C	0.633159	0.095969	0.239284
C118	C	0.672181	0.062924	0.271076
O119	O	0.600017	0.124047	0.339915
O120	O	0.744372	0.001783	0.339935
H121	H	0.770646	-0.094710	0.000095
H122	H	-0.034156	-0.019261	0.000086
H123	H	0.581099	-0.164385	0.000072
H124	H	0.525681	-0.450070	0.000020
H125	H	0.763286	-0.709776	0.000055
N126	N	0.522054	-0.025272	0.000065
H127	H	0.514851	-0.044636	0.037531
H128	H	0.514840	-0.044615	-0.037413
N129	N	0.792316	-0.038791	0.566134
H130	H	0.817368	-0.020423	0.592517
H131	H	0.770715	-0.060097	0.592496
N132	N	0.753310	-0.005763	0.726529
H133	H	0.778027	-0.026690	0.756329
H134	H	0.731697	-0.027042	0.700143
H135	H	0.762185	-0.801243	0.000047
N136	N	0.211846	0.199223	0.000028
H137	H	0.179472	0.226853	0.000024
H138	H	0.236177	0.201403	0.037487
N139	N	0.398592	-0.026533	0.000071
H140	H	0.374272	-0.028743	0.037537
H141	H	0.374292	-0.028730	-0.037407
H142	H	0.769556	-0.186164	0.000075
H143	H	0.098146	0.186402	0.000047
N144	N	0.559932	-0.784521	0.000035
H145	H	0.527319	-0.757095	0.000032
H146	H	0.557419	-0.805178	-0.037425
N147	N	-0.054209	0.152379	0.000047
H148	H	-0.086581	0.180010	0.000040
H149	H	-0.029880	0.154559	0.037508
H150	H	0.743000	0.002965	0.850339
N151	N	0.753276	-0.005730	0.141354
H152	H	0.777992	-0.026659	0.171152
H153	H	0.731664	-0.027006	0.114963
N154	N	0.561181	-0.679743	0.000027
H155	H	0.559109	-0.658558	0.037486
H156	H	0.559148	-0.658589	-0.037458
H157	H	-0.167930	0.139553	0.000059
H158	H	0.601430	0.122848	0.850347
N159	N	0.753283	-0.005745	0.273554
H160	H	0.777997	-0.026666	0.243745
H161	H	0.778296	0.012655	0.299940
H162	H	0.526389	-0.390270	0.000012
N163	N	0.513843	-0.290565	0.000010
H164	H	0.480663	-0.310383	0.000002
H165	H	0.511821	-0.269387	0.037472
N166	N	0.792305	-0.038789	0.433941
H167	H	0.817018	-0.059717	0.463743
H168	H	0.770690	-0.060067	0.407554
N169	N	-0.147862	-0.032081	0.000080
H170	H	-0.115489	-0.059712	0.000083
H171	H	-0.172193	-0.034250	0.037542
N172	N	0.591067	0.131603	0.141382
H173	H	0.597315	0.165885	0.152446
H174	H	0.597008	0.126546	0.096273
H175	H	0.486290	0.146202	0.000024
N176	N	0.591100	0.131576	0.726558
H177	H	0.566389	0.152502	0.756366
H178	H	0.612708	0.152855	0.700164
N179	N	0.552054	0.164605	0.566162
H180	H	0.527335	0.185526	0.536358
H181	H	0.527046	0.146197	0.592547
N182	N	0.832360	-0.432325	0.000076
H183	H	0.834420	-0.453507	0.037537
H184	H	0.834409	-0.453481	-0.037406
H185	H	0.138506	-0.061648	0.000107
H186	H	0.562367	0.155881	0.442371
N187	N	0.368788	0.156675	0.000034
H188	H	0.343824	0.158395	0.037495
H189	H	0.392115	0.184847	0.000001
N190	N	0.830543	-0.583576	0.000059
H191	H	0.822228	-0.618426	0.000054
H192	H	0.853335	-0.577388	-0.037399
H193	H	0.817996	-0.483866	0.000062
N194	N	0.833612	-0.327550	0.000079
H195	H	0.866224	-0.354978	0.000081
H196	H	0.836134	-0.306894	-0.037381
N197	N	0.591084	0.131601	0.273600
H198	H	0.597340	0.165882	0.262535
H199	H	0.550732	0.126169	0.262520
N200	N	0.255997	-0.072118	0.000112
H201	H	0.248794	-0.091495	-0.037341
H202	H	0.297029	-0.064967	0.000132
N203	N	0.568555	-0.064662	0.000075
H204	H	0.566500	-0.043474	-0.037381
H205	H	0.535396	-0.084501	0.000094
H206	H	0.524585	-0.541520	0.000017
