data_functionalizedCrystal
_audit_creation_method	'MofGen! by Chris Wilmer'
_symmetry_space_group_name_H-M	'P1'
_symmetry_Int_Tables_number	1
_symmetry_cell_setting	triclinic
loop_
_symmetry_equiv_pos_as_xyz
  x,y,z
_cell_length_a	10.654541
_cell_length_b	15.944551
_cell_length_c	9.730217
_cell_angle_alpha	89.995798
_cell_angle_beta	89.999932
_cell_angle_gamma	83.991333
loop_
_atom_site_label
_atom_site_type_symbol
_atom_site_fract_x
_atom_site_fract_y
_atom_site_fract_z
O1	O	1.666312	0.117965	-0.114251
O2	O	1.300688	0.129208	-0.114263
O3	O	1.493484	0.001369	-0.114245
O4	O	1.473516	0.245804	-0.114270
O5	O	1.493478	0.001368	0.114335
O6	O	1.300682	0.129206	0.114317
O7	O	1.666306	0.117964	0.114329
Zn8	Zn	1.483493	0.123585	0.150615
Zn9	Zn	1.483501	0.123587	-0.150549
O10	O	1.473510	0.245802	0.114310
C11	C	1.253897	0.128382	0.000025
C12	C	1.114486	0.125914	0.000021
C13	C	1.084537	0.278779	-0.000012
C14	C	1.004069	0.354048	-0.000034
C15	C	0.873081	0.351724	-0.000035
C16	C	0.822560	0.274122	-0.000010
C17	C	0.903028	0.198852	0.000012
C18	C	1.034017	0.201185	0.000009
C19	C	0.932976	0.045989	0.000055
C20	C	1.063965	0.048311	0.000046
C21	C	0.882455	-0.031613	0.000080
C22	C	0.962924	-0.106885	0.000092
C23	C	1.093919	-0.104557	0.000091
C24	C	1.144433	-0.026958	0.000068
C25	C	1.492652	-0.029930	0.000046
C26	C	1.490167	-0.123190	0.000046
C27	C	1.364722	-0.338772	0.000023
C28	C	1.422972	-0.399453	0.112729
C29	C	1.485671	-0.293942	0.000036
C30	C	1.423006	-0.399436	-0.112633
C31	C	1.481319	-0.458880	0.000019
C32	C	1.543954	-0.353395	0.112834
C33	C	1.543971	-0.353371	-0.112629
C34	C	1.602309	-0.414034	0.000104
C35	C	1.488175	-0.198925	0.000046
C36	C	1.478825	-0.553896	0.000019
C37	C	1.713097	0.118790	0.000037
C38	C	1.852508	0.121258	0.000033
C39	C	1.474342	0.277102	0.000017
C40	C	1.476827	0.370362	0.000007
N41	N	1.483497	0.123584	0.356151
N42	N	1.483507	0.123582	-0.356086
C43	C	1.654288	0.010416	0.356159
C44	C	1.739691	-0.046165	0.428102
C45	C	1.739704	-0.046166	0.571982
C46	C	1.654302	0.010420	0.643921
C47	C	1.568898	0.067001	0.571978
C48	C	1.568897	0.066997	0.428095
C49	C	1.398103	0.180163	0.571971
C50	C	1.398094	0.180169	0.428091
C51	C	1.312700	0.236748	0.643910
C52	C	1.227301	0.293335	0.571967
C53	C	1.227292	0.293334	0.428078
C54	C	1.312691	0.236750	0.356147
H55	H	0.807563	0.413015	-0.000043
O56	O	1.362067	-0.423714	0.226539
C57	C	1.424808	-0.399143	0.345181
H58	H	1.481426	-0.344457	0.318920
H59	H	1.491279	-0.454629	0.384537
C60	C	1.257528	-0.438387	0.489347
C61	C	1.327059	-0.371216	0.457094
H62	H	1.197235	-0.421164	0.558383
H63	H	1.215260	-0.454945	0.409416
H64	H	1.312934	-0.484620	0.522135
H65	H	1.271655	-0.324989	0.424290
H66	H	1.369316	-0.354650	0.537022
H67	H	1.312696	0.236747	0.238993
O68	O	1.822487	-0.101211	0.641941
C69	C	1.755240	-0.153433	0.725209
H70	H	1.656209	-0.155475	0.681848
H71	H	1.748652	-0.127177	0.834244
C72	C	1.946087	-0.240680	0.780707
C73	C	1.824459	-0.243194	0.727443
H74	H	1.988787	-0.296047	0.782092
H75	H	1.991395	-0.205495	0.724612
H76	H	1.940581	-0.218796	0.871565
H77	H	1.829968	-0.265067	0.636582
H78	H	1.779154	-0.278384	0.783523
H79	H	1.264329	-0.306045	0.000132
O80	O	1.312699	0.236905	0.783674
C81	C	1.338238	0.316796	0.831724
H82	H	1.312490	0.366120	0.748799
H83	H	1.442887	0.315243	0.857247
C84	C	1.291177	0.278951	1.063601
C85	C	1.259543	0.339534	0.961755
H86	H	1.242640	0.292976	1.143814
H87	H	1.273976	0.225126	1.031231
H88	H	1.378385	0.277663	1.084854
H89	H	1.172341	0.340813	0.940492
H90	H	1.276728	0.393360	0.994125
H91	H	1.595065	-0.333109	0.208223
H92	H	1.045218	0.417231	-0.000051
O93	O	1.144224	0.348323	0.641633
C94	C	1.068867	0.398283	0.547287
H95	H	1.067453	0.363843	0.444722
H96	H	1.109628	0.460941	0.531990
C97	C	0.935135	0.457039	0.729417
C98	C	0.933390	0.414736	0.603447
H99	H	0.851568	0.467192	0.764059
H100	H	0.985907	0.423383	0.792981
H101	H	0.969109	0.509249	0.716651
H102	H	0.899432	0.362522	0.616217
H103	H	0.882609	0.448384	0.539886
O104	O	1.822527	-0.101227	0.358248
C105	C	1.802188	-0.184521	0.393398
H106	H	1.701663	-0.185589	0.432977
H107	H	1.871824	-0.208764	0.476884
C108	C	1.945163	-0.240001	0.216940
C109	C	1.821693	-0.241314	0.265541
H110	H	1.957200	-0.275035	0.138075
H111	H	1.958870	-0.183884	0.193262
H112	H	2.003179	-0.260202	0.286524
H113	H	1.763681	-0.221104	0.195965
H114	H	1.807977	-0.297429	0.289206
H115	H	1.654307	0.010409	0.761076
H116	H	1.157742	0.339406	0.369509
H117	H	0.715901	0.272236	0.000005
O118	O	1.722198	-0.452869	0.000421
C119	C	1.785484	-0.429372	0.119388
H120	H	1.713384	-0.407884	0.202063
H121	H	1.843958	-0.375547	0.093576
C122	C	1.961572	-0.531835	0.070985
C123	C	1.873018	-0.505450	0.172532
H124	H	2.015572	-0.578761	0.103765
H125	H	1.918938	-0.547663	-0.009168
H126	H	2.010288	-0.486973	0.049485
H127	H	1.824294	-0.550308	0.194018
H128	H	1.915646	-0.489631	0.252690
H129	H	1.191193	0.280679	-0.000042
H130	H	0.775797	-0.033501	0.000086
H131	H	0.921778	-0.170062	0.000111
H132	H	1.159430	-0.165851	0.000114
H133	H	1.595086	-0.332944	-0.207914
H134	H	1.371836	-0.419808	-0.207924
H135	H	1.251088	-0.025055	0.000051
H136	H	1.654296	0.010418	0.239004
