data_functionalizedCrystal
_audit_creation_method	'MofGen! by Chris Wilmer'
_symmetry_space_group_name_H-M	'P1'
_symmetry_Int_Tables_number	1
_symmetry_cell_setting	triclinic
loop_
_symmetry_equiv_pos_as_xyz
  x,y,z
_cell_length_a	11.169417
_cell_length_b	16.625546
_cell_length_c	16.625527
_cell_angle_alpha	89.912139
_cell_angle_beta	89.943455
_cell_angle_gamma	90.023347
loop_
_atom_site_label
_atom_site_type_symbol
_atom_site_fract_x
_atom_site_fract_y
_atom_site_fract_z
Zn1	Zn	1.835296	-0.320524	-0.455827
Zn2	Zn	2.335296	0.179476	0.044173
Zn3	Zn	1.835014	-0.455502	-0.320989
Zn4	Zn	2.335014	0.044498	0.179011
Zn5	Zn	1.634453	-0.320690	-0.321015
Zn6	Zn	2.134453	0.179310	0.178985
Zn7	Zn	1.634547	-0.455320	-0.455787
Zn8	Zn	2.134547	0.044680	0.044213
O9	O	1.734828	-0.388009	-0.388405
O10	O	2.234828	0.111991	0.111595
O11	O	2.003209	-0.338436	-0.437946
O12	O	2.503209	0.161564	0.062054
O13	O	1.808252	-0.437765	-0.208160
O14	O	2.308252	0.062235	0.291840
O15	O	1.661174	-0.207835	-0.338926
O16	O	2.161174	0.292165	0.161074
O17	O	2.003002	-0.437604	-0.338881
O18	O	2.503002	0.062396	0.161119
O19	O	1.808733	-0.207714	-0.437972
O20	O	2.308733	0.292286	0.062028
O21	O	1.660901	-0.338718	-0.208179
O22	O	2.160901	0.161282	0.291821
O23	O	1.466516	-0.338542	-0.338887
O24	O	1.966516	0.161458	0.161113
O25	O	1.661334	-0.437294	-0.568625
O26	O	2.161334	0.062706	-0.068625
O27	O	1.466585	-0.437454	-0.437903
O28	O	1.966585	0.062546	0.062097
O29	O	1.808824	-0.338260	-0.568654
O30	O	2.308824	0.161740	-0.068654
O31	O	1.808343	-0.568311	-0.338843
O32	O	2.308343	-0.068311	0.161157
O33	O	1.661061	-0.568177	-0.437878
O34	O	2.161061	-0.068177	0.062122
C35	C	1.423003	-0.387997	-0.388394
C36	C	1.923003	0.112003	0.111606
C37	C	1.289603	-0.388011	-0.388409
C38	C	1.789603	0.111989	0.111591
C39	C	1.734714	-0.597500	-0.388371
C40	C	2.234714	-0.097500	0.111629
C41	C	1.734775	-0.687121	-0.388383
C42	C	2.234775	-0.187121	0.111617
C43	C	1.734985	-1.015297	-0.388467
C44	C	2.234985	-0.515297	0.111533
C45	C	1.734923	-0.923988	-0.388446
C46	C	2.234923	-0.423988	0.111554
C47	C	1.734879	-0.851212	-0.388425
C48	C	2.234879	-0.351212	0.111575
C49	C	1.734819	-0.759898	-0.388405
C50	C	2.234819	-0.259898	0.111595
C51	C	2.047870	-0.388022	-0.388415
C52	C	2.547870	0.111978	0.111585
C53	C	2.181270	-0.388027	-0.388420
C54	C	2.681270	0.111973	0.111580
C55	C	1.735121	-0.387738	-0.598714
C56	C	2.235121	0.112262	-0.098714
C57	C	1.735246	-0.387623	-0.688335
C58	C	2.235246	0.112377	-0.188335
C59	C	1.734975	-0.177700	-0.388456
C60	C	2.234975	0.322300	0.111544
C61	C	1.735037	-0.088079	-0.388478
C62	C	2.235037	0.411921	0.111522
C63	C	1.734605	-0.388221	-0.178913
C64	C	2.234605	0.111779	0.321087
C65	C	1.734713	-0.388109	-0.089292
C66	C	2.234713	0.111891	0.410708
C67	C	1.735158	-0.387714	0.238882
C68	C	2.235158	0.112286	0.738882
C69	C	1.735038	-0.387827	0.147574
C70	C	2.235038	0.112173	0.647574
C71	C	1.734935	-0.387912	0.074798
C72	C	2.234935	0.112088	0.574798
C73	C	1.734816	-0.388024	-0.016516
C74	C	2.234816	0.111976	0.483484
