data_functionalizedCrystal
_audit_creation_method	'MofGen! by Chris Wilmer'
_symmetry_space_group_name_H-M	'P1'
_symmetry_Int_Tables_number	1
_symmetry_cell_setting	triclinic
loop_
_symmetry_equiv_pos_as_xyz
  x,y,z
_cell_length_a	6.817900
_cell_length_b	17.513329
_cell_length_c	17.110486
_cell_angle_alpha	95.942660
_cell_angle_beta	99.060439
_cell_angle_gamma	106.556532
loop_
_atom_site_label
_atom_site_type_symbol
_atom_site_fract_x
_atom_site_fract_y
_atom_site_fract_z
V1	V	-3.992678	-0.110090	-0.247454
O2	O	-3.964580	0.005535	-0.241987
O3	O	-3.960067	-0.218525	-0.246489
O4	O	-3.922278	-0.108290	-0.355045
O5	O	-4.002631	-0.105464	-0.132679
V6	V	-4.477111	-0.096273	-0.233638
O7	O	-4.251941	-0.140400	-0.277761
O8	O	-4.668046	-0.065963	-0.203330
O9	O	-4.286516	0.012162	-0.234602
O10	O	-4.622606	-0.211898	-0.239105
O11	O	-4.584556	-0.100899	-0.348412
O12	O	-4.324305	-0.098073	-0.126046
C13	C	-3.809621	-0.244963	-0.242774
C14	C	-3.864097	-0.333610	-0.242702
C15	C	-4.181362	-0.835167	-0.242407
C16	C	-4.130164	-0.751876	-0.242485
C17	C	-3.922671	-0.706178	-0.238554
C18	C	-3.766363	-0.743775	-0.234536
C19	C	-3.817560	-0.827064	-0.234453
C20	C	-3.758987	-0.454495	-0.238601
C21	C	-3.707801	-0.371201	-0.238688
C22	C	-4.071606	-0.379308	-0.246635
C23	C	-4.122789	-0.462599	-0.246556
C24	C	-3.966477	-0.500187	-0.242534
C25	C	-3.870335	-0.621041	-0.238635
C26	C	-4.018812	-0.585322	-0.242447
C27	C	-3.761416	-0.104345	-0.381246
C28	C	-3.785244	-0.103590	-0.469207
C29	C	-3.978305	-0.107216	-0.514589
C30	C	-4.000682	-0.106506	-0.597238
C31	C	-3.829999	-0.102177	-0.634504
C32	C	-3.636921	-0.098549	-0.589115
C33	C	-3.614543	-0.099253	-0.506467
C34	C	-3.888464	-0.099847	-0.883843
C35	C	-3.910860	-0.099146	-0.966497
C36	C	-4.274618	-0.107102	-0.974614
C37	C	-4.252226	-0.107810	-0.891965
C38	C	-4.059149	-0.104178	-0.846583
C39	C	-3.852869	-0.101454	-0.718984
C40	C	-4.036278	-0.104895	-0.762103
C41	C	-4.100305	0.038596	-0.238316
C42	C	-4.025066	0.127241	-0.238393
C43	C	-4.148510	-0.102021	-0.099841
C44	C	-4.103920	-0.102771	-0.011879
H45	H	-4.291748	-0.499801	-0.249758
F46	F	-3.409058	-0.095389	-0.458168
F47	F	-4.480093	-0.110965	-1.022918
H48	H	-3.771857	-0.095618	-0.996836
F49	F	-3.671231	-0.096857	-0.758654
F50	F	-3.545527	-0.695136	-0.230342
H51	H	-4.117301	-0.110746	-0.484255
H52	H	-4.198861	-0.348694	-0.249907
F53	F	-4.206167	-0.110373	-0.645535
H54	H	-3.538832	-0.333996	-0.235491
H55	H	-3.631696	-0.485088	-0.235317
F56	F	-3.651206	-0.867070	-0.230179
F57	F	-4.239633	-0.633957	-0.246624
H58	H	-4.391218	-0.111334	-0.861629
H59	H	-4.257442	-0.721273	-0.245757
F60	F	-3.649504	-0.572398	-0.234446
F61	F	-3.682988	-0.095998	-0.835557
F62	F	-4.402205	-0.883796	-0.246597
F63	F	-3.455267	-0.093941	-0.628778
H64	H	-4.175243	-0.108417	-0.731758
