data_functionalizedCrystal
_audit_creation_method	'MofGen! by Chris Wilmer'
_symmetry_space_group_name_H-M	'P1'
_symmetry_Int_Tables_number	1
_symmetry_cell_setting	triclinic
loop_
_symmetry_equiv_pos_as_xyz
  x,y,z
_cell_length_a	15.944551
_cell_length_b	15.995350
_cell_length_c	15.072220
_cell_angle_alpha	90.008851
_cell_angle_beta	89.997918
_cell_angle_gamma	96.504443
loop_
_atom_site_label
_atom_site_type_symbol
_atom_site_fract_x
_atom_site_fract_y
_atom_site_fract_z
O1	O	0.108264	-1.111002	-0.073709
O2	O	0.441598	-0.777669	0.259624
O3	O	0.774931	-0.444335	0.592957
O4	O	0.121634	-0.867227	-0.073728
O5	O	0.454967	-0.533894	0.259606
O6	O	0.788301	-0.200561	0.592939
O7	O	-0.007326	-0.995772	-0.073710
O8	O	0.326007	-0.662438	0.259623
O9	O	0.659341	-0.329105	0.592957
O10	O	0.237224	-0.982458	-0.073727
O11	O	0.570558	-0.649124	0.259606
O12	O	0.903891	-0.315791	0.592940
O13	O	-0.007319	-0.995740	0.073855
O14	O	0.326014	-0.662406	0.407188
O15	O	0.659348	-0.329073	0.740522
O16	O	0.121641	-0.867196	0.073837
O17	O	0.454975	-0.533862	0.407171
O18	O	0.788308	-0.200529	0.740504
O19	O	0.108271	-1.110970	0.073856
O20	O	0.441605	-0.777637	0.407189
O21	O	0.774938	-0.444303	0.740523
Zn22	Zn	0.114957	-0.989078	0.097276
Zn23	Zn	0.448291	-0.655744	0.430609
Zn24	Zn	0.781624	-0.322411	0.763942
Zn25	Zn	0.114948	-0.989120	-0.097148
Zn26	Zn	0.448281	-0.655786	0.236186
Zn27	Zn	0.781615	-0.322453	0.569519
O28	O	0.237232	-0.982426	0.073838
O29	O	0.570565	-0.649093	0.407171
O30	O	0.903898	-0.315759	0.740505
C31	C	-0.038616	-0.995203	0.000073
C32	C	0.294717	-0.661870	0.333406
C33	C	0.628050	-0.328536	0.666739
C34	C	-0.131862	-0.993546	0.000073
C35	C	0.201471	-0.660213	0.333406
C36	C	0.534804	-0.326879	0.666740
C37	C	0.121085	-0.836017	0.000053
C38	C	0.454418	-0.502683	0.333386
C39	C	0.787752	-0.169350	0.666719
C40	C	0.119428	-0.743066	0.000046
C41	C	0.452761	-0.409733	0.333379
C42	C	0.786095	-0.076400	0.666712
C43	C	0.108821	-1.142181	0.000074
C44	C	0.442154	-0.808847	0.333407
C45	C	0.775487	-0.475514	0.666740
C46	C	0.110478	-1.235131	0.000075
C47	C	0.443811	-0.901798	0.333408
C48	C	0.777144	-0.568465	0.666741
C49	C	-0.346714	-0.909908	0.000054
C50	C	-0.013381	-0.576574	0.333388
C51	C	0.319952	-0.243241	0.666721
C52	C	-0.407730	-0.948731	0.072816
C53	C	-0.074397	-0.615397	0.406149
C54	C	0.258936	-0.282064	0.739483
C55	C	-0.302588	-0.990548	0.000066
C56	C	0.030745	-0.657215	0.333399
C57	C	0.364079	-0.323882	0.666733
C58	C	-0.407721	-0.948781	-0.072672
C59	C	-0.074387	-0.615448	0.260662
C60	C	0.258946	-0.282114	0.593995
C61	C	-0.467501	-0.987647	0.000055
C62	C	-0.134167	-0.654313	0.333389
C63	C	0.199166	-0.320980	0.666722
C64	C	-0.362376	-1.029394	0.072888
C65	C	-0.029042	-0.696060	0.406221
C66	C	0.304291	-0.362727	0.739554
C67	C	-0.362360	-1.029433	-0.072665
C68	C	-0.029027	-0.696099	0.260668
C69	C	0.304307	-0.362766	0.594001
C70	C	-0.423358	-1.068315	0.000114
C71	C	-0.090025	-0.734981	0.333447
C72	C	0.243308	-0.401648	0.666780
C73	C	-0.207586	-0.992217	0.000073
C74	C	0.125747	-0.658884	0.333406
C75	C	0.459081	-0.325551	0.666740
C76	C	-0.562502	-0.985984	0.000055
C77	C	-0.229168	-0.652650	0.333388
C78	C	0.104165	-0.319317	0.666721
C79	C	0.268522	-0.982995	0.000053
C80	C	0.601855	-0.649661	0.333387
C81	C	0.935188	-0.316328	0.666720
C82	C	0.361768	-0.984652	0.000047
C83	C	0.695101	-0.651318	0.333381
C84	C	1.028434	-0.317985	0.666714
N85	N	0.114963	-0.989055	0.229965
N86	N	0.448297	-0.655722	0.563298
N87	N	0.781630	-0.322389	0.896631
C88	C	0.113477	-0.405318	0.000065
C89	C	0.446810	-0.071985	0.333398
C90	C	0.780143	0.261348	0.666731
C91	C	0.021634	-0.452747	0.000400
C92	C	0.354967	-0.119414	0.333733
C93	C	0.688300	0.213919	0.667067
C94	C	0.023291	-0.549438	0.000061
C95	C	0.356625	-0.216104	0.333395
C96	C	0.689958	0.117229	0.666728
C97	C	0.116429	-0.572879	0.000056
C98	C	0.449762	-0.239546	0.333389
C99	C	0.783095	0.093788	0.666722
C100	C	0.161725	-0.531813	-0.084211
C101	C	0.495058	-0.198479	0.249123
C102	C	0.828391	0.134854	0.582456
C103	C	0.159417	-0.435177	-0.084275
C104	C	0.492751	-0.101843	0.249058
C105	C	0.826084	0.231490	0.582392
C106	C	0.161323	-0.434802	0.083534
C107	C	0.494657	-0.101469	0.416867
C108	C	0.827990	0.231865	0.750201
C109	C	0.161301	-0.531747	0.084642
C110	C	0.494635	-0.198414	0.417975
C111	C	0.827968	0.134920	0.751308
C112	C	0.118102	-0.667577	0.000048
C113	C	0.451435	-0.334243	0.333381
C114	C	0.784768	-0.000910	0.666714
C115	C	0.111806	-0.310620	0.000067
C116	C	0.445140	0.022713	0.333400
C117	C	0.778473	0.356046	0.666733
N118	N	0.114935	-0.989149	-0.229836
N119	N	0.448269	-0.655815	0.103497
N120	N	0.781602	-0.322482	0.436830
C121	C	0.114945	-0.989118	0.589166
C122	C	0.448278	-0.655785	0.922499
C123	C	0.781611	-0.322451	1.255833
C124	C	0.183717	-0.920105	0.551550
C125	C	0.517051	-0.586772	0.884883
C126	C	0.850384	-0.253439	1.218216
C127	C	0.183968	-0.920264	0.448724
C128	C	0.517302	-0.586930	0.782057
C129	C	0.850635	-0.253597	1.115391
C130	C	0.114954	-0.989086	0.410962
C131	C	0.448287	-0.655753	0.744295
C132	C	0.781621	-0.322420	1.077629
C133	C	0.134096	-1.076452	0.448258
C134	C	0.467430	-0.743119	0.781592
C135	C	0.800763	-0.409785	1.114925
C136	C	0.134585	-1.076065	0.551116
C137	C	0.467918	-0.742732	0.884450
C138	C	0.801252	-0.409399	1.217783
C139	C	0.026826	-0.971544	0.551271
C140	C	0.360159	-0.638210	0.884604
C141	C	0.693493	-0.304877	1.217938
C142	C	0.027414	-0.969539	0.448407
C143	C	0.360747	-0.636206	0.781741
C144	C	0.694080	-0.302872	1.115074
C145	C	0.114958	-0.989074	0.310249
C146	C	0.448291	-0.655740	0.643582
C147	C	0.781624	-0.322407	0.976915
C148	C	0.114943	-0.989136	0.689879
C149	C	0.448276	-0.655803	1.023213
C150	C	0.781610	-0.322470	1.356546
H151	H	-0.313403	-0.842972	0.000122
H152	H	0.019930	-0.509639	0.333455
H153	H	0.353264	-0.176305	0.666789
Br154	Br	0.292970	-0.938930	0.407685
Br155	Br	0.626304	-0.605596	0.741018
Br156	Br	0.959637	-0.272263	1.074352
Br157	Br	-0.039553	-0.421848	0.101125
Br158	Br	0.293781	-0.088514	0.434458
Br159	Br	0.627114	0.244819	0.767791
Br160	Br	0.274509	-0.557353	0.093119
Br161	Br	0.607843	-0.224020	0.426452
Br162	Br	0.941176	0.109313	0.759786
Br163	Br	-0.058475	-1.055425	0.591812
Br164	Br	0.274858	-0.722092	0.925145
Br165	Br	0.608191	-0.388758	1.258479
Br166	Br	0.054181	-1.164144	0.592594
Br167	Br	0.387515	-0.830810	0.925927
Br168	Br	0.720848	-0.497477	1.259260
Br169	Br	-0.003838	-0.867649	0.594552
Br170	Br	0.329495	-0.534315	0.927885
Br171	Br	0.662829	-0.200982	1.261219
Br172	Br	0.111282	-0.400554	0.189993
Br173	Br	0.444615	-0.067221	0.523326
Br174	Br	0.777948	0.266112	0.856659
Br175	Br	-0.478634	-1.179974	0.000184
Br176	Br	-0.145301	-0.846641	0.333518
Br177	Br	0.188033	-0.513308	0.666851
H178	H	0.172500	-0.854955	0.576307
H179	H	0.505833	-0.521622	0.909640
H180	H	0.839167	-0.188288	1.242974
H181	H	0.085338	-1.129033	0.423796
H182	H	0.418672	-0.795700	0.757130
H183	H	0.752005	-0.462367	1.090463
H184	H	0.198850	-1.091551	0.575095
H185	H	0.532183	-0.758218	0.908428
H186	H	0.865516	-0.424885	1.241761
Br187	Br	-0.441237	-0.891864	0.175337
Br188	Br	-0.107903	-0.558531	0.508671
Br189	Br	0.225430	-0.225198	0.842004
H190	H	-0.014912	-0.433164	-0.059693
H191	H	0.318421	-0.099831	0.273641
H192	H	0.651755	0.233502	0.606974
H193	H	-0.427799	-0.914676	-0.134190
H194	H	-0.094465	-0.581343	0.199143
H195	H	0.238868	-0.248009	0.532477
H196	H	-0.012314	-0.577852	0.060467
H197	H	0.321019	-0.244518	0.393801
H198	H	0.654352	0.088815	0.727134
Br199	Br	-0.328814	-1.086257	-0.175190
Br200	Br	0.004520	-0.752924	0.158143
Br201	Br	0.337853	-0.419591	0.491476
H202	H	-0.012561	-0.577307	-0.060445
H203	H	0.320773	-0.243973	0.272888
H204	H	0.654106	0.089360	0.606222
H205	H	0.128236	-0.559048	0.146982
H206	H	0.461569	-0.225715	0.480315
H207	H	0.794902	0.107618	0.813648
H208	H	0.012886	-0.905272	0.424031
H209	H	0.346220	-0.571938	0.757365
H210	H	0.679553	-0.238605	1.090698
H211	H	-0.026161	-1.016539	0.422706
H212	H	0.307172	-0.683205	0.756039
H213	H	0.640505	-0.349872	1.089373
H214	H	-0.342384	-1.063459	0.134469
H215	H	-0.009051	-0.730126	0.467803
H216	H	0.324282	-0.396793	0.801136
H217	H	0.197628	-1.092308	0.422486
H218	H	0.530962	-0.758974	0.755820
H219	H	0.864295	-0.425641	1.089153
H220	H	0.126380	-0.416880	-0.147262
H221	H	0.459713	-0.083547	0.186071
H222	H	0.793046	0.249787	0.519404
H223	H	0.226847	-0.402933	-0.088103
H224	H	0.560180	-0.069600	0.245230
H225	H	0.893514	0.263734	0.578564
H226	H	0.230150	-0.545942	-0.087348
H227	H	0.563484	-0.212609	0.245985
H228	H	0.896817	0.120725	0.579319
H229	H	0.130258	-0.560199	-0.146920
H230	H	0.463591	-0.226865	0.186414
H231	H	0.796925	0.106468	0.519747
Br232	Br	0.274186	-0.381874	0.084478
Br233	Br	0.607520	-0.048540	0.417811
Br234	Br	0.940853	0.284793	0.751144
Br235	Br	0.165018	-0.812009	0.406692
Br236	Br	0.498351	-0.478675	0.740026
Br237	Br	0.831685	-0.145342	1.073359
H238	H	0.248741	-0.931174	0.577385
H239	H	0.582074	-0.597840	0.910718
H240	H	0.915407	-0.264507	1.244051
