data_functionalizedCrystal
_audit_creation_method	'MofGen! by Chris Wilmer'
_symmetry_space_group_name_H-M	'P1'
_symmetry_Int_Tables_number	1
_symmetry_cell_setting	triclinic
loop_
_symmetry_equiv_pos_as_xyz
  x,y,z
_cell_length_a	13.897449
_cell_length_b	12.594516
_cell_length_c	13.897441
_cell_angle_alpha	89.972920
_cell_angle_beta	89.978743
_cell_angle_gamma	90.012642
loop_
_atom_site_label
_atom_site_type_symbol
_atom_site_fract_x
_atom_site_fract_y
_atom_site_fract_z
Zn1	Zn	1.474722	-0.423695	-0.545467
Zn2	Zn	1.724722	-0.173695	-0.295467
Zn3	Zn	1.974722	0.076305	-0.045467
Zn4	Zn	2.224722	0.326305	0.204533
Zn5	Zn	1.474638	-0.601703	-0.384175
Zn6	Zn	1.724638	-0.351703	-0.134175
Zn7	Zn	1.974638	-0.101703	0.115825
Zn8	Zn	2.224638	0.148297	0.365825
Zn9	Zn	1.313417	-0.423741	-0.384178
Zn10	Zn	1.563417	-0.173741	-0.134178
Zn11	Zn	1.813417	0.076259	0.115822
Zn12	Zn	2.063417	0.326259	0.365822
Zn13	Zn	1.313409	-0.601634	-0.545420
Zn14	Zn	1.563409	-0.351634	-0.295420
Zn15	Zn	1.813409	-0.101634	-0.045420
Zn16	Zn	2.063409	0.148366	0.204580
O17	O	1.394046	-0.512693	-0.464810
O18	O	1.644046	-0.262693	-0.214810
O19	O	1.894046	-0.012693	0.035190
O20	O	2.144046	0.237307	0.285190
O21	O	1.609692	-0.447317	-0.524090
O22	O	1.859692	-0.197317	-0.274090
O23	O	2.109692	0.052683	-0.024090
O24	O	2.359692	0.302683	0.225910
O25	O	1.453220	-0.578144	-0.249194
O26	O	1.703220	-0.328144	0.000806
O27	O	1.953220	-0.078144	0.250806
O28	O	2.203220	0.171856	0.500806
O29	O	1.334852	-0.274789	-0.405593
O30	O	1.584852	-0.024789	-0.155593
O31	O	1.834852	0.225211	0.094407
O32	O	2.084852	0.475211	0.344407
O33	O	1.609631	-0.578099	-0.405589
O34	O	1.859631	-0.328099	-0.155589
O35	O	2.109631	-0.078099	0.094411
O36	O	2.359631	0.171901	0.344411
O37	O	1.453362	-0.274755	-0.524092
O38	O	1.703362	-0.024755	-0.274092
O39	O	1.953362	0.225245	-0.024092
O40	O	2.203362	0.475245	0.225908
O41	O	1.334772	-0.447396	-0.249196
O42	O	1.584772	-0.197396	0.000804
O43	O	1.834772	0.052604	0.250804
O44	O	2.084772	0.302604	0.500804
O45	O	1.178434	-0.447330	-0.405548
O46	O	1.428434	-0.197330	-0.155548
O47	O	1.678434	0.052670	0.094452
O48	O	1.928434	0.302670	0.344452
O49	O	1.334839	-0.577982	-0.680408
O50	O	1.584839	-0.327982	-0.430408
O51	O	1.834839	-0.077982	-0.180408
O52	O	2.084839	0.172018	0.069592
O53	O	1.178428	-0.578027	-0.524013
O54	O	1.428428	-0.328027	-0.274013
O55	O	1.678428	-0.078027	-0.024013
O56	O	1.928428	0.171973	0.225987
O57	O	1.453355	-0.447251	-0.680442
O58	O	1.703355	-0.197251	-0.430442
O59	O	1.953355	0.052749	-0.180442
O60	O	2.203355	0.302749	0.069558
O61	O	1.453213	-0.750639	-0.405544
O62	O	1.703213	-0.500639	-0.155544
O63	O	1.953213	-0.250639	0.094456
O64	O	2.203213	-0.000639	0.344456
O65	O	1.334758	-0.750589	-0.524011
O66	O	1.584758	-0.500589	-0.274011
O67	O	1.834758	-0.250589	-0.024011
O68	O	2.084758	-0.000589	0.225989
C69	C	1.143432	-0.512677	-0.464776
C70	C	1.393432	-0.262677	-0.214776
C71	C	1.643432	-0.012677	0.035224
C72	C	1.893432	0.237323	0.285224
C73	C	1.036218	-0.512695	-0.464785
C74	C	1.286218	-0.262695	-0.214785
C75	C	1.536218	-0.012695	0.035215
C76	C	1.786218	0.237305	0.285215
C77	C	1.394002	-0.789234	-0.464793
C78	C	1.644002	-0.539234	-0.214793
C79	C	1.894002	-0.289234	0.035207
C80	C	2.144002	-0.039234	0.285207
C81	C	1.394071	-0.907540	-0.464818
C82	C	1.644071	-0.657540	-0.214818
C83	C	1.894071	-0.407540	0.035182
C84	C	2.144071	-0.157540	0.285182
C85	C	0.949148	-0.512699	-0.464801
C86	C	1.199148	-0.262699	-0.214801
C87	C	1.449148	-0.012699	0.035199
C88	C	1.699148	0.237301	0.285199
C89	C	0.839916	-0.512706	-0.464830
C90	C	1.089916	-0.262706	-0.214830
C91	C	1.339916	-0.012706	0.035170
C92	C	1.589916	0.237294	0.285170
C93	C	1.458573	-0.976781	-0.400453
C94	C	1.708573	-0.726781	-0.150453
C95	C	1.958573	-0.476781	0.099547
C96	C	2.208573	-0.226781	0.349547
C97	C	1.482143	-1.047479	-0.488495
C98	C	1.732143	-0.797479	-0.238495
C99	C	1.982143	-0.547479	0.011505
C100	C	2.232143	-0.297479	0.261505
C101	C	1.370621	-1.047641	-0.376833
C102	C	1.620621	-0.797641	-0.126833
C103	C	1.870621	-0.547641	0.123167
C104	C	2.120621	-0.297641	0.373167
C105	C	1.417686	-0.976679	-0.552906
C106	C	1.667686	-0.726679	-0.302906
C107	C	1.917686	-0.476679	-0.052906
C108	C	2.167686	-0.226679	0.197094
C109	C	1.306123	-0.976835	-0.441184
C110	C	1.556123	-0.726835	-0.191184
C111	C	1.806123	-0.476835	0.058816
C112	C	2.056123	-0.226835	0.308816
C113	C	1.329660	-1.047500	-0.529287
C114	C	1.579660	-0.797500	-0.279287
C115	C	1.829660	-0.547500	-0.029287
C116	C	2.079660	-0.297500	0.220713
C117	C	1.645639	-0.512710	-0.464844
C118	C	1.895639	-0.262710	-0.214844
C119	C	2.145639	-0.012710	0.035156
C120	C	2.395639	0.237290	0.285156
C121	C	1.752853	-0.512718	-0.464859
C122	C	2.002853	-0.262718	-0.214859
C123	C	2.252853	-0.012718	0.035141
C124	C	2.502853	0.237282	0.285141
C125	C	1.394105	-0.512604	-0.716403
C126	C	1.644105	-0.262604	-0.466403
C127	C	1.894105	-0.012604	-0.216403
C128	C	2.144105	0.237396	0.033597
C129	C	1.394131	-0.512566	-0.823617
C130	C	1.644131	-0.262566	-0.573617
C131	C	1.894131	-0.012566	-0.323617
C132	C	2.144131	0.237434	-0.073617
C133	C	1.394118	-0.235072	-0.464848
C134	C	1.644118	0.014928	-0.214848
C135	C	1.894118	0.264928	0.035152
C136	C	2.144118	0.514928	0.285152
C137	C	1.394148	-0.116767	-0.464864
C138	C	1.644148	0.133233	-0.214864
C139	C	1.894148	0.383233	0.035136
C140	C	2.144148	0.633233	0.285136
C141	C	1.394150	-0.512536	-0.910687
C142	C	1.644150	-0.262536	-0.660687
C143	C	1.894150	-0.012536	-0.410687
C144	C	2.144150	0.237464	-0.160687
C145	C	1.394178	-0.512488	-1.019920
C146	C	1.644178	-0.262488	-0.769920
C147	C	1.894178	-0.012488	-0.519920
C148	C	2.144178	0.237512	-0.269920
C149	C	1.394043	-0.512705	-0.214196
C150	C	1.644043	-0.262705	0.035804
C151	C	1.894043	-0.012705	0.285804
C152	C	2.144043	0.237295	0.535804
C153	C	1.394205	-0.512444	-0.106982
C154	C	1.644205	-0.262444	0.143018
C155	C	1.894205	-0.012444	0.393018
C156	C	2.144205	0.237556	0.643018
H157	H	1.513129	-0.945729	-0.346071
H158	H	1.763129	-0.695729	-0.096071
H159	H	2.013129	-0.445729	0.153929
H160	H	2.263129	-0.195729	0.403929
H161	H	1.350756	-1.078810	-0.302405
H162	H	1.600756	-0.828810	-0.052405
H163	H	1.850756	-0.578810	0.197595
H164	H	2.100756	-0.328810	0.447595
F165	F	1.208890	-0.936246	-0.414992
F166	F	1.458890	-0.686246	-0.164992
F167	F	1.708890	-0.436246	0.085008
F168	F	1.958890	-0.186246	0.335008
H169	H	1.556551	-1.078513	-0.508511
H170	H	1.806551	-0.828513	-0.258511
H171	H	2.056551	-0.578513	-0.008511
H172	H	2.306551	-0.328513	0.241489
H173	H	1.437478	-0.945641	-0.627398
H174	H	1.687478	-0.695641	-0.377398
H175	H	1.937478	-0.445641	-0.127398
H176	H	2.187478	-0.195641	0.122602
H177	H	1.275146	-1.078356	-0.583801
H178	H	1.525146	-0.828356	-0.333801
H179	H	1.775146	-0.578356	-0.083801
H180	H	2.025146	-0.328356	0.166199
