data_functionalizedCrystal
_audit_creation_method	'MofGen! by Chris Wilmer'
_symmetry_space_group_name_H-M	'P1'
_symmetry_Int_Tables_number	1
_symmetry_cell_setting	triclinic
loop_
_symmetry_equiv_pos_as_xyz
  x,y,z
_cell_length_a	17.699083
_cell_length_b	16.109301
_cell_length_c	14.586319
_cell_angle_alpha	90.005214
_cell_angle_beta	89.997475
_cell_angle_gamma	83.372248
loop_
_atom_site_label
_atom_site_type_symbol
_atom_site_fract_x
_atom_site_fract_y
_atom_site_fract_z
O1	O	-1.004225	-0.105136	-0.076115
O2	O	-0.783866	-0.118815	-0.076145
O3	O	-0.900099	0.009065	-0.076120
O4	O	-0.887992	-0.233017	-0.076140
O5	O	-0.900091	0.009067	0.076361
O6	O	-0.783858	-0.118813	0.076336
O7	O	-1.004217	-0.105135	0.076366
Cu8	Cu	-0.894037	-0.111974	0.090274
Cu9	Cu	-0.894046	-0.111976	-0.090053
O10	O	-0.887984	-0.233015	0.076341
C11	C	-0.899604	0.040040	0.000121
C12	C	-0.898134	0.132333	0.000122
C13	C	-0.755664	-0.118324	0.000091
C14	C	-0.671644	-0.116854	0.000080
C15	C	-1.032419	-0.105626	0.000127
C16	C	-1.116439	-0.107096	0.000133
C17	C	-0.623130	-0.191917	0.000074
C18	C	-0.544185	-0.190531	0.000086
C19	C	-0.513755	-0.114080	0.000098
C20	C	-0.562275	-0.039011	0.000106
C21	C	-0.641219	-0.040398	0.000101
C22	C	-0.243904	-0.033414	0.000130
C23	C	-0.164954	-0.032032	0.000132
C24	C	-0.146870	-0.183546	0.000115
C25	C	-0.225814	-0.184934	0.000109
C26	C	-0.274327	-0.109865	0.000123
C27	C	-0.359928	-0.111369	0.000112
C28	C	-0.428155	-0.112575	0.000102
C29	C	-0.888478	-0.263990	0.000098
C30	C	-0.889949	-0.356283	0.000091
N31	N	-0.894035	-0.111972	0.217105
C32	C	-0.963686	0.354719	0.000117
C33	C	-0.962298	0.441437	0.000109
C34	C	-0.824392	0.421325	0.000093
C35	C	-0.825780	0.334608	0.000095
C36	C	-0.895429	0.301308	0.000111
C37	C	-0.892654	0.474742	0.000102
C38	C	-0.891149	0.568766	0.000094
C39	C	-0.896934	0.207278	0.000118
N40	N	-0.894053	-0.111972	-0.216884
C41	C	-0.945520	-0.055365	0.452123
C42	C	-0.945523	-0.055363	0.548104
C43	C	-0.842563	-0.168581	0.548091
C44	C	-0.842558	-0.168578	0.452112
C45	C	-0.894041	-0.111971	0.404130
C46	C	-0.894048	-0.111972	0.596091
C47	C	-0.894050	-0.111970	0.700158
C48	C	-0.894038	-0.111972	0.300056
H49	H	-0.647900	-0.254172	0.000064
H50	H	-0.767686	0.448449	0.000082
H51	H	-0.140182	0.030227	0.000143
H52	H	-0.770194	0.291119	0.000087
C53	C	-0.740784	-0.280483	0.538437
C54	C	-0.785975	-0.230802	0.600835
H55	H	-0.705845	-0.318892	0.570999
H56	H	-0.772275	-0.310346	0.501000
H57	H	-0.713573	-0.245900	0.501004
H58	H	-0.813190	-0.265384	0.638264
H59	H	-0.754479	-0.200937	0.638287
C60	C	-0.826100	-0.281750	0.344153
C61	C	-0.785970	-0.230808	0.399350
H62	H	-0.791164	-0.320161	0.311576
H63	H	-0.857589	-0.311612	0.381591
H64	H	-0.856754	-0.248024	0.301845
H65	H	-0.755320	-0.264533	0.441662
H66	H	-0.754467	-0.200943	0.361908
C67	C	-0.253839	0.116493	0.000142
C68	C	-0.297223	0.049101	0.000137
H69	H	-0.286760	0.167436	0.000141
H70	H	-0.222676	0.113881	0.053312
H71	H	-0.222667	0.113874	-0.053035
H72	H	-0.328391	0.051717	0.053318
H73	H	-0.328399	0.051715	-0.053039
C74	C	-0.740492	0.045938	-0.078279
C75	C	-0.694552	0.042112	0.000104
H76	H	-0.773420	0.096876	-0.078269
H77	H	-0.709316	0.043336	-0.131442
H78	H	-0.769906	0.000203	-0.078276
H79	H	-0.665133	0.087844	0.000098
H80	H	-0.725731	0.044722	0.053281
C81	C	-0.483989	0.050451	-0.078268
C82	C	-0.528829	0.045027	0.000117
H83	H	-0.463346	0.102336	-0.078264
H84	H	-0.443800	0.005950	-0.078264
H85	H	-0.514415	0.046759	-0.131435
H86	H	-0.498401	0.048713	0.053285
H87	H	-0.569023	0.089540	0.000121
C88	C	-0.534239	-0.340438	0.000055
C89	C	-0.490858	-0.273043	0.000075
H90	H	-0.501316	-0.391379	0.000044
H91	H	-0.565410	-0.337830	0.053222
H92	H	-0.565402	-0.337818	-0.053126
H93	H	-0.459699	-0.275660	0.053259
H94	H	-0.459674	-0.275652	-0.053097
C95	C	-1.047284	0.056552	0.461780
C96	C	-1.002102	0.006864	0.399381
H97	H	-1.082212	0.094975	0.429219
H98	H	-1.074501	0.021983	0.499207
H99	H	-1.015780	0.086408	0.499223
H100	H	-1.033606	-0.022996	0.361942
H101	H	-0.974883	0.041438	0.361938
C102	C	-0.991243	-0.005088	0.695237
C103	C	-1.002111	0.006860	0.600859
H104	H	-1.026177	0.033332	0.727803
H105	H	-0.999449	-0.060558	0.710957
H106	H	-0.940734	0.003872	0.710957
H107	H	-1.052619	-0.002107	0.585138
H108	H	-0.993910	0.062343	0.585133
C109	C	-0.234685	-0.314511	-0.078290
C110	C	-0.259255	-0.268974	0.000095
H111	H	-0.255324	-0.366398	-0.078292
H112	H	-0.251340	-0.283613	-0.131451
H113	H	-0.180724	-0.324417	-0.078277
H114	H	-0.313215	-0.259064	0.000079
H115	H	-0.242603	-0.299879	0.053270
C116	C	-0.017823	-0.248710	0.000127
C117	C	-0.093542	-0.266066	0.000112
H118	H	0.015096	-0.299654	0.000129
H119	H	-0.008598	-0.217360	-0.053037
H120	H	-0.008614	-0.217356	0.053310
H121	H	-0.102752	-0.297414	-0.053074
H122	H	-0.102770	-0.297429	0.053282
C123	C	-1.099860	0.383311	0.000114
C124	C	-1.040243	0.318114	0.000118
H125	H	-1.147123	0.360713	0.000106
H126	H	-1.096453	0.416717	0.053285
H127	H	-1.096440	0.416713	-0.053062
H128	H	-1.043659	0.284716	0.053298
H129	H	-1.043651	0.284694	-0.053059
H130	H	-1.017880	0.484921	0.000112
