data_functionalizedCrystal
_audit_creation_method	'MofGen! by Chris Wilmer'
_symmetry_space_group_name_H-M	'P1'
_symmetry_Int_Tables_number	1
_symmetry_cell_setting	triclinic
loop_
_symmetry_equiv_pos_as_xyz
  x,y,z
_cell_length_a	14.044220
_cell_length_b	14.044209
_cell_length_c	12.503552
_cell_angle_alpha	93.839236
_cell_angle_beta	93.839943
_cell_angle_gamma	86.811585
loop_
_atom_site_label
_atom_site_type_symbol
_atom_site_fract_x
_atom_site_fract_y
_atom_site_fract_z
O1	O	0.225112	-1.282206	-0.089195
O2	O	0.725112	-0.782206	0.410805
O3	O	0.216806	-1.005537	-0.089225
O4	O	0.716806	-0.505537	0.410775
O5	O	0.082624	-1.139718	-0.089200
O6	O	0.582624	-0.639718	0.410800
O7	O	0.359294	-1.148025	-0.089220
O8	O	0.859294	-0.648025	0.410780
O9	O	0.092724	-1.129615	0.089441
O10	O	0.592724	-0.629615	0.589441
O11	O	0.226906	-0.995433	0.089416
O12	O	0.726906	-0.495433	0.589416
O13	O	0.235211	-1.272103	0.089446
O14	O	0.735211	-0.772103	0.589446
Cu15	Cu	0.231981	-1.132846	0.105742
Cu16	Cu	0.731981	-0.632846	0.605742
Cu17	Cu	0.220037	-1.144794	-0.105521
Cu18	Cu	0.720037	-0.644794	0.394479
O19	O	0.369394	-1.137922	0.089421
O20	O	0.869394	-0.637922	0.589421
C21	C	0.052052	-1.131031	0.000121
C22	C	0.552052	-0.631031	0.500121
C23	C	-0.054091	-1.120186	0.000121
C24	C	0.445909	-0.620186	0.500121
C25	C	0.218221	-0.964863	0.000092
C26	C	0.718221	-0.464863	0.500092
C27	C	0.207376	-0.858721	0.000080
C28	C	0.707376	-0.358721	0.500080
N29	N	0.240382	-1.124449	0.254333
N30	N	0.740382	-0.624449	0.754333
C31	C	-0.248429	-1.100361	0.000103
C32	C	0.251571	-0.600361	0.500103
C33	C	-0.299559	-1.177275	0.000108
C34	C	0.200441	-0.677275	0.500108
C35	C	-0.407696	-1.166244	0.000099
C36	C	0.092304	-0.666244	0.500099
C37	C	-0.140283	-1.111391	0.000113
C38	C	0.359717	-0.611391	0.500113
C39	C	0.399966	-1.146609	0.000098
C40	C	0.899966	-0.646609	0.500098
C41	C	0.506108	-1.157454	0.000091
C42	C	1.006108	-0.657454	0.500091
C43	C	0.187553	-0.664382	0.000101
C44	C	0.687553	-0.164382	0.500101
C45	C	0.264468	-0.613252	0.000099
C46	C	0.764468	-0.113252	0.500099
C47	C	0.253437	-0.505116	0.000110
C48	C	0.753437	-0.005116	0.500110
C49	C	0.198581	-0.772529	0.000089
C50	C	0.698581	-0.272529	0.500089
C51	C	0.233799	-0.312777	0.000124
C52	C	0.733799	0.187223	0.500124
C53	C	0.244648	-0.418919	0.000119
C54	C	0.744648	0.081081	0.500119
N55	N	0.211629	-1.153198	-0.254112
N56	N	0.711629	-0.653198	0.245888
C57	C	0.199267	-1.165544	0.526774
C58	C	0.699267	-0.665544	1.026774
C59	C	0.252741	-1.112105	0.473440
C60	C	0.752741	-0.612105	0.973440
C61	C	0.245863	-1.118975	0.351518
C62	C	0.745863	-0.618975	0.851518
C63	C	0.206144	-1.158676	0.648708
C64	C	0.706144	-0.658676	1.148708
H65	H	-0.285866	-1.026234	0.000093
H66	H	0.214134	-0.526234	0.500093
H67	H	0.338600	-0.650692	0.000089
H68	H	0.838600	-0.150692	0.500089
H69	H	0.113426	-0.626945	0.000111
H70	H	0.613426	-0.126945	0.500111
N71	N	0.131769	-1.232961	0.465979
N72	N	0.631769	-0.732961	0.965979
H73	H	0.136357	-1.228366	0.386238
H74	H	0.636357	-0.728366	0.886238
H75	H	0.149596	-1.300548	0.485552
H76	H	0.649596	-0.800548	0.985552
N77	N	0.320227	-1.044667	0.534236
N78	N	0.820227	-0.544667	1.034236
H79	H	0.315641	-1.049255	0.613978
H80	H	0.815641	-0.549255	1.113978
H81	H	0.387796	-1.062555	0.514642
H82	H	0.887796	-0.562555	1.014642
N83	N	-0.249966	-1.275470	0.000139
N84	N	0.250034	-0.775470	0.500139
H85	H	-0.265291	-1.307578	0.066368
H86	H	0.234709	-0.807578	0.566368
H87	H	-0.272775	-1.315013	-0.066120
H88	H	0.227225	-0.815013	0.433880
