data_functionalizedCrystal
_audit_creation_method	'MofGen! by Chris Wilmer'
_symmetry_space_group_name_H-M	'P1'
_symmetry_Int_Tables_number	1
_symmetry_cell_setting	triclinic
loop_
_symmetry_equiv_pos_as_xyz
  x,y,z
_cell_length_a	14.044220
_cell_length_b	14.971486
_cell_length_c	14.048226
_cell_angle_alpha	89.993360
_cell_angle_beta	89.998644
_cell_angle_gamma	88.401503
loop_
_atom_site_label
_atom_site_type_symbol
_atom_site_fract_x
_atom_site_fract_y
_atom_site_fract_z
O1	O	1.257954	0.215664	-0.079060
O2	O	0.981976	0.207881	-0.079084
O3	O	1.127361	0.082155	-0.079065
O4	O	1.112568	0.341390	-0.079080
O5	O	1.127344	0.082146	0.079256
O6	O	0.981958	0.207872	0.079237
O7	O	1.257936	0.215654	0.079261
Zn8	Zn	1.119944	0.211762	0.104386
Zn9	Zn	1.119967	0.211774	-0.104209
O10	O	1.112550	0.341380	0.079241
C11	C	0.946648	0.204470	0.000073
C12	C	0.841411	0.194309	0.000064
C13	C	1.126691	0.048774	0.000095
C14	C	1.124708	-0.050680	0.000094
C15	C	1.210119	-0.101176	0.000102
C16	C	1.208250	-0.194623	0.000093
C17	C	1.120970	-0.237571	0.000082
C18	C	1.035554	-0.187067	0.000071
C19	C	1.037423	-0.093623	0.000074
C20	C	1.031663	-0.381836	0.000067
C21	C	1.029793	-0.475288	0.000066
C22	C	1.202490	-0.482837	0.000086
C23	C	1.204360	-0.389392	0.000089
C24	C	1.118942	-0.338895	0.000080
C25	C	0.648729	0.175732	0.000084
C26	C	0.591177	0.247799	0.000084
C27	C	0.483962	0.237463	0.000095
C28	C	0.755954	0.186067	0.000073
C29	C	1.293263	0.219065	0.000101
C30	C	1.398500	0.229227	0.000104
C31	C	1.113220	0.374762	0.000079
C32	C	1.115203	0.474215	0.000074
N33	N	1.119935	0.211753	0.246746
N34	N	1.119984	0.211776	-0.246570
C35	C	1.184333	0.156108	0.296573
C36	C	1.184339	0.156108	0.396231
C37	C	1.119952	0.211758	0.446060
C38	C	1.055548	0.267406	0.396226
C39	C	1.055538	0.267400	0.296570
C40	C	1.055575	0.267414	0.603941
C41	C	1.055587	0.267421	0.703603
C42	C	1.184377	0.156122	0.703601
C43	C	1.184366	0.156117	0.603945
C44	C	1.119963	0.211766	0.554118
H45	H	1.277800	-0.235734	0.000101
N46	N	0.609519	0.088604	0.000096
N47	N	0.521214	0.080227	0.000104
H48	H	0.493511	0.018694	0.000110
H49	H	0.962107	-0.340724	0.000057
H50	H	1.236768	0.110795	0.256009
N51	N	0.989801	0.324260	0.754490
N52	N	0.932292	0.373928	0.709994
H53	H	0.885825	0.414068	0.745931
N54	N	1.250122	0.099259	0.447112
N55	N	1.307608	0.049578	0.402611
H56	H	1.354070	0.009424	0.438545
N57	N	1.250191	0.099318	0.553059
N58	N	1.307716	0.049666	0.597555
H59	H	1.354221	0.009566	0.561617
N60	N	1.250160	0.099261	0.754477
N61	N	1.307644	0.049579	0.709976
H62	H	1.354105	0.009424	0.745910
N63	N	0.989780	0.324259	0.553057
N64	N	0.932298	0.373946	0.597556
H65	H	0.885833	0.414095	0.561620
H66	H	1.003118	0.312714	0.436803
H67	H	1.003098	0.312711	0.256002
H68	H	1.281192	-0.066215	0.000117
H69	H	1.275430	-0.354427	0.000105
H70	H	1.272040	-0.523957	0.000090
H71	H	0.964489	-0.222043	0.000056
N72	N	0.940644	-0.519167	0.000076
N73	N	0.883030	-0.506215	0.066809
H74	H	0.820069	-0.537207	0.066821
N75	N	0.950170	-0.042052	0.000053
N76	N	0.872246	-0.080406	0.000038
H77	H	0.810620	-0.043986	0.000017
H78	H	0.622427	0.317261	0.000075
