data_functionalizedCrystal
_audit_creation_method	'MofGen! by Chris Wilmer'
_symmetry_space_group_name_H-M	'P1'
_symmetry_Int_Tables_number	1
_symmetry_cell_setting	triclinic
loop_
_symmetry_equiv_pos_as_xyz
  x,y,z
_cell_length_a	14.853567
_cell_length_b	14.519731
_cell_length_c	13.330367
_cell_angle_alpha	89.994378
_cell_angle_beta	89.995418
_cell_angle_gamma	83.661892
loop_
_atom_site_label
_atom_site_type_symbol
_atom_site_fract_x
_atom_site_fract_y
_atom_site_fract_z
O1	O	1.196425	0.120404	-0.083357
O2	O	0.933972	0.134747	-0.083374
O3	O	1.072147	-0.006665	-0.083356
O4	O	1.058250	0.261815	-0.083375
O5	O	1.072127	-0.006668	0.083491
O6	O	0.933952	0.134743	0.083473
O7	O	1.196404	0.120400	0.083491
Cu8	Cu	1.065176	0.127572	0.098716
Cu9	Cu	1.065200	0.127575	-0.098600
O10	O	1.058229	0.261812	0.083472
C11	C	0.900373	0.134095	0.000047
C12	C	0.800288	0.132148	0.000041
C13	C	0.387712	0.039914	0.000070
C14	C	0.366508	0.207914	0.000057
C15	C	0.460543	0.209745	0.000054
C16	C	0.518166	0.126659	0.000057
C17	C	0.481755	0.041742	0.000064
C18	C	0.496961	0.294660	0.000037
C19	C	0.591001	0.296495	0.000032
C20	C	0.648626	0.213408	0.000043
C21	C	0.612210	0.128488	0.000051
C22	C	0.669833	0.045402	0.000054
C23	C	0.633419	-0.039519	0.000069
C24	C	0.539380	-0.041344	0.000074
C25	C	0.742665	0.215233	0.000038
C26	C	0.763877	0.047231	0.000048
C27	C	1.071485	-0.041026	0.000068
C28	C	1.069534	-0.143405	0.000068
C29	C	1.067949	-0.226549	0.000066
C30	C	1.065968	-0.330857	0.000058
C31	C	1.064395	-0.413995	0.000052
C32	C	1.062414	-0.518310	0.000046
C33	C	1.230004	0.121052	0.000067
C34	C	1.330088	0.122999	0.000067
C35	C	1.058891	0.296173	0.000046
C36	C	1.060842	0.398552	0.000039
N37	N	1.065166	0.127568	0.237498
N38	N	1.065217	0.127571	-0.237381
C39	C	1.004013	0.190168	0.710113
C40	C	1.126411	0.064976	0.710097
C41	C	1.126401	0.064973	0.605078
C42	C	1.065197	0.127569	0.552572
C43	C	1.004003	0.190169	0.605084
C44	C	1.187599	0.002381	0.552558
C45	C	1.187592	0.002376	0.447534
C46	C	1.126383	0.064969	0.395026
C47	C	1.065187	0.127570	0.447544
C48	C	1.003983	0.190167	0.395038
C49	C	0.942781	0.252764	0.447555
C50	C	0.942794	0.252761	0.552576
C51	C	1.126370	0.064972	0.290004
C52	C	1.003972	0.190168	0.290010
H53	H	0.509723	-0.110483	0.000110
O54	O	0.310573	0.288642	-0.000128
C55	C	0.327120	0.340204	-0.086530
H56	H	0.359183	0.291561	-0.146923
H57	H	0.260467	0.377101	-0.115538
H58	H	0.375088	0.393646	-0.066997
O59	O	0.819941	-0.033420	-0.000084
C60	C	0.874952	-0.037401	-0.086515
H61	H	0.879834	0.035804	-0.115334
H62	H	0.945569	-0.071667	-0.067087
H63	H	0.843940	-0.079558	-0.147015
O64	O	0.689269	-0.120312	0.000024
C65	C	0.636972	-0.195659	0.000066
H66	H	0.566825	-0.172346	-0.031511
H67	H	0.671562	-0.253875	-0.048375
H68	H	0.630241	-0.221685	0.080114
O69	O	0.352194	-0.042495	0.000039
C70	C	0.256837	-0.026300	0.000075
H71	H	0.234876	0.045640	-0.031517
H72	H	0.227871	-0.080644	-0.048355
H73	H	0.230657	-0.030803	0.080124
O74	O	0.441023	0.375386	-0.000149
C75	C	0.457559	0.426944	-0.086558
H76	H	0.489620	0.378299	-0.146950
H77	H	0.390902	0.463834	-0.115562
H78	H	0.505525	0.480391	-0.067035
H79	H	0.892967	0.303727	0.595342
O80	O	0.626407	0.378963	-0.000164
C81	C	0.680186	0.385037	-0.086569
H82	H	0.657872	0.336808	-0.146953
H83	H	0.671865	0.459348	-0.115591
H84	H	0.754306	0.363868	-0.067034
O85	O	0.778083	0.297691	-0.000154
C86	C	0.831869	0.303762	-0.086554
H87	H	0.809550	0.255542	-0.146944
H88	H	0.823561	0.378075	-0.115569
H89	H	0.905986	0.282579	-0.067015
H90	H	0.954129	0.241138	0.247266
H91	H	0.954181	0.241131	0.752874
H92	H	0.892952	0.303735	0.404792
H93	H	1.176246	0.014016	0.752851
O94	O	1.246919	-0.058510	0.603614
C95	C	1.198539	-0.115475	0.664392
H96	H	1.127445	-0.117167	0.632740
H97	H	1.235198	-0.188709	0.665600
H98	H	1.193854	-0.086614	0.743981
O99	O	1.247069	-0.058521	0.396679
C100	C	1.301106	-0.113752	0.465545
H101	H	1.264154	-0.114858	0.540418
H102	H	1.314733	-0.187379	0.435211
H103	H	1.368126	-0.083683	0.476691
O104	O	1.185725	0.004056	0.239023
C105	C	1.170960	-0.087274	0.264704
H106	H	1.098791	-0.087880	0.293600
H107	H	1.181246	-0.133526	0.195631
H108	H	1.220901	-0.114268	0.325646
