data_functionalizedCrystal
_audit_creation_method	'MofGen! by Chris Wilmer'
_symmetry_space_group_name_H-M	'P1'
_symmetry_Int_Tables_number	1
_symmetry_cell_setting	triclinic
loop_
_symmetry_equiv_pos_as_xyz
  x,y,z
_cell_length_a	14.908782
_cell_length_b	14.908178
_cell_length_c	14.908308
_cell_angle_alpha	89.778379
_cell_angle_beta	96.759680
_cell_angle_gamma	90.210875
loop_
_atom_site_label
_atom_site_type_symbol
_atom_site_fract_x
_atom_site_fract_y
_atom_site_fract_z
Zn1	Zn	1.329186	-0.459296	-0.406715
Zn2	Zn	1.330096	-0.601055	-0.247621
Zn3	Zn	1.187450	-0.442980	-0.265011
Zn4	Zn	1.170072	-0.601006	-0.407684
O5	O	1.254201	-0.526084	-0.331758
O6	O	1.455594	-0.484950	-0.377928
O7	O	1.318828	-0.573279	-0.123637
O8	O	1.213143	-0.319684	-0.290681
O9	O	1.456263	-0.589100	-0.261042
O10	O	1.317276	-0.331671	-0.394791
O11	O	1.214027	-0.457142	-0.136414
O12	O	1.058858	-0.457094	-0.291620
O13	O	1.183525	-0.589015	-0.533846
O14	O	1.046090	-0.573194	-0.396442
O15	O	1.300425	-0.484902	-0.533135
O16	O	1.301977	-0.726509	-0.261981
O17	O	1.184408	-0.726473	-0.379579
C18	C	1.019729	-0.513369	-0.346024
C19	C	0.919418	-0.507952	-0.352147
C20	C	0.731638	-0.606057	-0.241772
C21	C	0.637388	-0.600970	-0.247522
C22	C	0.636664	-0.492696	-0.369402
C23	C	0.730914	-0.497783	-0.363651
C24	C	0.778399	-0.554464	-0.299833
C25	C	0.872652	-0.559546	-0.294079
C26	C	0.871926	-0.451278	-0.415962
C27	C	0.777675	-0.446191	-0.421713
C28	C	1.241429	-0.759024	-0.319016
C29	C	1.236046	-0.858683	-0.313590
C30	C	1.334268	-1.058287	-0.411932
C31	C	1.329213	-1.151925	-0.406837
C32	C	1.220877	-1.139601	-0.298310
C33	C	1.225932	-1.045962	-0.303405
C34	C	1.282630	-1.005308	-0.360217
C35	C	1.287690	-0.911668	-0.365307
C36	C	1.179349	-0.899345	-0.256785
C37	C	1.174294	-0.992984	-0.251690
C38	C	1.489589	-0.538850	-0.317437
C39	C	1.589897	-0.544290	-0.311334
C40	C	1.239935	-0.538773	-0.567152
C41	C	1.233856	-0.544180	-0.667463
C42	C	1.267046	-0.292237	-0.344568
C43	C	1.272520	-0.192586	-0.350027
C44	C	1.344158	-0.445906	-0.855219
C45	C	1.338449	-0.450984	-0.949470
C46	C	1.216725	-0.559407	-0.950218
C47	C	1.222434	-0.554330	-0.855967
C48	C	1.286154	-0.497578	-0.808471
C49	C	1.291866	-0.492506	-0.714218
C50	C	1.170138	-0.600924	-0.714967
C51	C	1.164429	-0.606002	-0.809218
C52	C	1.268467	-0.513383	-0.097280
C53	C	1.274735	-0.507733	0.003027
H54	H	0.739000	-0.400045	-0.473674
C55	C	0.783874	-0.668402	-0.171569
N56	N	0.823216	-0.715363	-0.118692
C57	C	1.122543	-0.841061	-0.199894
N58	N	1.079760	-0.797161	-0.157044
H59	H	0.599319	-0.642983	-0.200244
C60	C	1.386024	-1.210198	-0.463723
N61	N	1.428818	-1.254090	-0.506571
C62	C	0.924883	-0.621898	-0.223881
N63	N	0.964220	-0.668867	-0.171008
H64	H	1.122909	-0.643002	-0.676894
C65	C	0.923369	-0.394524	-0.479836
N66	N	0.962118	-0.351777	-0.527943
H67	H	1.128129	-1.026097	-0.205437
H68	H	1.333859	-0.878569	-0.411564
C69	C	1.414253	-0.383485	-0.802971
N70	N	1.467050	-0.336467	-0.763619
H71	H	1.385680	-0.408904	-0.987530
C72	C	1.158626	-1.184336	-0.235708
N73	N	1.111782	-1.218032	-0.188513
H74	H	1.343751	-0.446298	-0.675548
H75	H	1.380441	-1.025186	-0.458185
C76	C	1.146617	-0.621805	-1.002482
N77	N	1.093806	-0.668797	-1.041850
C78	C	1.094335	-0.668418	-0.861475
N79	N	1.041538	-0.715431	-0.900835
H80	H	0.597985	-0.446557	-0.421366
