data_functionalizedCrystal
_audit_creation_method	'MofGen! by Chris Wilmer'
_symmetry_space_group_name_H-M	'P1'
_symmetry_Int_Tables_number	1
_symmetry_cell_setting	triclinic
loop_
_symmetry_equiv_pos_as_xyz
  x,y,z
_cell_length_a	12.759401
_cell_length_b	19.805405
_cell_length_c	12.759393
_cell_angle_alpha	90.034941
_cell_angle_beta	90.018496
_cell_angle_gamma	90.026887
loop_
_atom_site_label
_atom_site_type_symbol
_atom_site_fract_x
_atom_site_fract_y
_atom_site_fract_z
Zn1	Zn	1.606168	-0.269420	0.593957
Zn2	Zn	1.606025	-0.382625	0.418266
Zn3	Zn	1.430470	-0.269456	0.418296
Zn4	Zn	1.430421	-0.382573	0.593908
O5	O	1.518271	-0.326019	0.506107
O6	O	1.753170	-0.284444	0.570659
O7	O	1.582698	-0.367650	0.271249
O8	O	1.453856	-0.174735	0.441631
O9	O	1.753065	-0.367615	0.441580
O10	O	1.582941	-0.174708	0.570688
O11	O	1.453718	-0.284505	0.271271
O12	O	1.283442	-0.284454	0.441583
O13	O	1.453774	-0.367526	0.740936
O14	O	1.283407	-0.367561	0.570605
O15	O	1.582894	-0.284394	0.740971
O16	O	1.582651	-0.477335	0.441533
O17	O	1.453636	-0.477297	0.570576
C18	C	1.245304	-0.326006	0.506093
C19	C	1.128527	-0.326017	0.506111
C20	C	1.073674	-0.369360	0.573182
C21	C	0.963950	-0.369369	0.573193
C22	C	0.963941	-0.282689	0.439055
C23	C	1.073663	-0.282678	0.439050
C24	C	1.073678	-0.419406	0.650622
C25	C	0.963954	-0.419414	0.650633
C26	C	1.518151	-0.501875	0.506069
C27	C	1.518196	-0.577107	0.506088
C28	C	1.585371	-0.612379	0.573340
C29	C	1.585409	-0.683067	0.573360
C30	C	1.518276	-0.718482	0.506121
C31	C	1.451094	-0.683205	0.438865
C32	C	1.451052	-0.612518	0.438851
C33	C	1.451263	-0.968278	0.438919
C34	C	1.451313	-1.038970	0.438935
C35	C	1.585620	-1.038828	0.573427
C36	C	1.585577	-0.968141	0.573414
C37	C	1.518392	-0.932870	0.506162
C38	C	1.518350	-0.856221	0.506143
C39	C	1.518323	-0.795129	0.506134
C40	C	1.792304	-0.326032	0.506122
C41	C	1.909081	-0.326037	0.506128
C42	C	1.518344	-0.325950	0.780140
C43	C	1.518376	-0.325921	0.896917
C44	C	1.518420	-0.149476	0.506168
C45	C	1.518483	-0.074244	0.506194
C46	C	1.518258	-0.326038	0.233139
C47	C	1.518430	-0.325876	0.116363
C48	C	1.585618	-0.282630	0.951799
C49	C	1.585643	-0.282605	1.061524
C50	C	1.451181	-0.369170	1.061473
C51	C	1.451151	-0.369190	0.951751
C52	C	1.663252	-0.232655	0.951829
C53	C	1.663277	-0.232630	1.061553
H54	H	0.934141	-0.471823	0.628696
O55	O	1.118728	-0.485326	0.611828
H56	H	1.091834	-0.527065	0.663240
O57	O	1.657791	-0.574185	0.645854
H58	H	1.639736	-0.587717	0.728300
O59	O	1.765603	-0.257533	0.906733
H60	H	1.780157	-0.309987	0.933615
O61	O	1.657862	-0.721114	0.645895
H62	H	1.704544	-0.684612	0.692638
O63	O	1.657999	-0.929941	0.645919
H64	H	1.704718	-0.966345	0.692689
O65	O	1.378682	-0.415837	1.120621
H66	H	1.296231	-0.404220	1.099563
O67	O	1.624742	-0.166658	1.106667
H68	H	1.626341	-0.169362	1.193539
H69	H	1.641500	-0.180237	0.922078
H70	H	1.103491	-0.405426	0.732030
O71	O	1.771045	-0.251234	1.101013
H72	H	1.823782	-0.260369	1.033313
H73	H	1.118321	-0.247379	0.384441
H74	H	0.919258	-0.247404	0.384456
O75	O	1.378695	-0.721407	0.366341
H76	H	1.296216	-0.707887	0.384289
H77	H	1.396350	-0.583800	0.384089
H78	H	1.640322	-1.067554	0.628190
O79	O	1.378895	-1.077172	0.366419
H80	H	1.332160	-1.040771	0.319660
H81	H	1.396561	-0.939566	0.384159
O82	O	1.378573	-0.415847	0.892551
H83	H	1.331825	-0.445923	0.949117
H84	H	0.929962	-0.400703	0.727987
