data_functionalizedCrystal
_audit_creation_method	'MofGen! by Chris Wilmer'
_symmetry_space_group_name_H-M	'P1'
_symmetry_Int_Tables_number	1
_symmetry_cell_setting	triclinic
loop_
_symmetry_equiv_pos_as_xyz
  x,y,z
_cell_length_a	18.050591
_cell_length_b	19.121063
_cell_length_c	18.050582
_cell_angle_alpha	92.415032
_cell_angle_beta	89.979078
_cell_angle_gamma	92.465257
loop_
_atom_site_label
_atom_site_type_symbol
_atom_site_fract_x
_atom_site_fract_y
_atom_site_fract_z
Zn1	Zn	1.122676	-0.279734	-0.432630
Zn2	Zn	1.456010	0.053600	-0.099296
Zn3	Zn	1.789343	0.386933	0.234037
Zn4	Zn	1.117290	-0.397178	-0.313729
Zn5	Zn	1.450623	-0.063845	0.019604
Zn6	Zn	1.783957	0.269489	0.352938
Zn7	Zn	0.998495	-0.279737	-0.308441
Zn8	Zn	1.331829	0.053597	0.024892
Zn9	Zn	1.665162	0.386930	0.358226
Zn10	Zn	0.993148	-0.397141	-0.437863
Zn11	Zn	1.326482	-0.063807	-0.104530
Zn12	Zn	1.659815	0.269526	0.228804
O13	O	1.057903	-0.338447	-0.373166
O14	O	1.391236	-0.005114	-0.039832
O15	O	1.724569	0.328219	0.293501
O16	O	1.225886	-0.295327	-0.416880
O17	O	1.559219	0.038006	-0.083547
O18	O	1.892552	0.371339	0.249786
O19	O	1.101515	-0.381616	-0.209104
O20	O	1.434849	-0.048282	0.124230
O21	O	1.768182	0.285051	0.457563
O22	O	1.019460	-0.181452	-0.320512
O23	O	1.352793	0.151882	0.012822
O24	O	1.686127	0.485215	0.346155
O25	O	1.221929	-0.381613	-0.329524
O26	O	1.555262	-0.048280	0.003809
O27	O	1.888595	0.285054	0.337142
O28	O	1.110695	-0.181449	-0.411753
O29	O	1.444029	0.151884	-0.078419
O30	O	1.777362	0.485217	0.254914
O31	O	1.014237	-0.295332	-0.205219
O32	O	1.347571	0.038001	0.128115
O33	O	1.680904	0.371334	0.461448
O34	O	0.893862	-0.295296	-0.325586
O35	O	1.227195	0.038037	0.007747
O36	O	1.560529	0.371370	0.341081
O37	O	1.010347	-0.381550	-0.541093
O38	O	1.343680	-0.048216	-0.207759
O39	O	1.677013	0.285117	0.125574
O40	O	0.889934	-0.381552	-0.420672
O41	O	1.223267	-0.048219	-0.087338
O42	O	1.556600	0.285114	0.245995
O43	O	1.105510	-0.295291	-0.537248
O44	O	1.438844	0.038042	-0.203914
O45	O	1.772177	0.371375	0.129419
O46	O	1.096331	-0.495458	-0.334599
O47	O	1.429664	-0.162124	-0.001265
O48	O	1.762997	0.171209	0.332068
O49	O	1.005124	-0.495430	-0.425799
O50	O	1.338457	-0.162097	-0.092466
O51	O	1.671791	0.171236	0.240867
C52	C	0.864952	-0.338421	-0.373123
C53	C	1.198285	-0.005088	-0.039790
C54	C	1.531618	0.328246	0.293543
C55	C	0.782406	-0.338427	-0.373124
C56	C	1.115739	-0.005093	-0.039790
C57	C	1.449072	0.328240	0.293543
C58	C	0.585072	-0.291466	-0.321528
C59	C	0.918405	0.041867	0.011805
C60	C	1.251739	0.375200	0.345139
C61	C	0.532763	-0.355526	-0.306137
C62	C	0.866097	-0.022193	0.027196
C63	C	1.199430	0.311140	0.360530
C64	C	0.631274	-0.338448	-0.373158
C65	C	0.964608	-0.005115	-0.039825
C66	C	1.297941	0.328219	0.293508
C67	C	0.536500	-0.274410	-0.388548
C68	C	0.869834	0.058923	-0.055215
C69	C	1.203167	0.392256	0.278118
C70	C	0.485288	-0.338463	-0.373190
C71	C	0.818622	-0.005130	-0.039857
C72	C	1.151955	0.328204	0.293477
C73	C	0.580051	-0.402542	-0.357733
C74	C	0.913384	-0.069208	-0.024400
C75	C	1.246718	0.264125	0.308933
C76	C	0.583794	-0.321383	-0.440174
C77	C	0.917128	0.011951	-0.106841
C78	C	1.250461	0.345284	0.226492
C79	C	0.531506	-0.385487	-0.424811
C80	C	0.864839	-0.052154	-0.091478
C81	C	1.198173	0.281180	0.241856
C82	C	0.715373	-0.338439	-0.373138
C83	C	1.048706	-0.005105	-0.039805
C84	C	1.382040	0.328228	0.293529
C85	C	0.401191	-0.338480	-0.373211
C86	C	0.734524	-0.005147	-0.039877
C87	C	1.067858	0.328187	0.293456
C88	C	1.049583	-0.520928	-0.381357
C89	C	1.382916	-0.187595	-0.048024
C90	C	1.716249	0.145739	0.285310
C91	C	1.046092	-0.598994	-0.384886
C92	C	1.379425	-0.265661	-0.051553
C93	C	1.712758	0.067672	0.281781
C94	C	1.091975	-0.635661	-0.339100
C95	C	1.425308	-0.302327	-0.005767
C96	C	1.758641	0.031006	0.327567
C97	C	1.088695	-0.709012	-0.342424
C98	C	1.422029	-0.375679	-0.009090
C99	C	1.755362	-0.042346	0.324243
C100	C	1.039529	-0.745696	-0.391530
C101	C	1.372862	-0.412362	-0.058197
C102	C	1.706196	-0.079029	0.275137
C103	C	0.993644	-0.709024	-0.437321
C104	C	1.326977	-0.375691	-0.103987
C105	C	1.660311	-0.042357	0.229346
C106	C	0.996928	-0.635674	-0.434001
C107	C	1.330261	-0.302341	-0.100667
C108	C	1.663594	0.030993	0.232666
C109	C	1.027241	-0.967166	-0.403932
C110	C	1.360575	-0.633833	-0.070599
C111	C	1.693908	-0.300499	0.262735
C112	C	1.023960	-1.040521	-0.407247
C113	C	1.357293	-0.707188	-0.073914
C114	C	1.690626	-0.373854	0.259420
C115	C	1.119012	-1.040504	-0.312351
C116	C	1.452346	-0.707171	0.020983
C117	C	1.785679	-0.373838	0.354316
C118	C	1.122288	-0.967153	-0.309032
C119	C	1.455622	-0.633819	0.024302
C120	C	1.788955	-0.300486	0.357635
C121	C	1.076406	-0.930487	-0.354825
C122	C	1.409740	-0.597154	-0.021492
C123	C	1.743073	-0.263821	0.311841
C124	C	1.036174	-0.820673	-0.394927
C125	C	1.369508	-0.487339	-0.061593
C126	C	1.702841	-0.154006	0.271740
C127	C	1.079765	-0.855512	-0.351432
C128	C	1.413098	-0.522179	-0.018098
C129	C	1.746432	-0.188845	0.315235
C130	C	1.251607	-0.338474	-0.373208
C131	C	1.584940	-0.005141	-0.039875
C132	C	1.918274	0.328193	0.293458
C133	C	1.334152	-0.338485	-0.373227
C134	C	1.667485	-0.005152	-0.039893
C135	C	2.000819	0.328181	0.293440
C136	C	1.057933	-0.338416	-0.566870
C137	C	1.391266	-0.005083	-0.233537
C138	C	1.724600	0.328251	0.099797
C139	C	1.057946	-0.338403	-0.649415
C140	C	1.391279	-0.005069	-0.316082
C141	C	1.724613	0.328264	0.017252
C142	C	1.066275	-0.155254	-0.364959
C143	C	1.399608	0.178080	-0.031625
C144	C	1.732942	0.511413	0.301708
C145	C	1.069843	-0.077188	-0.361461
C146	C	1.403176	0.256146	-0.028128
C147	C	1.736509	0.589479	0.305205
C148	C	1.006237	-0.385246	-0.850954
C149	C	1.339570	-0.051913	-0.517620
C150	C	1.672904	0.281421	-0.184287
C151	C	1.073218	-0.402419	-0.901126
C152	C	1.406551	-0.069086	-0.567792
C153	C	1.739884	0.264248	-0.234459
C154	C	1.057985	-0.338349	-0.800543
C155	C	1.391318	-0.005016	-0.467210
C156	C	1.724652	0.328317	-0.133877
C157	C	0.991042	-0.321157	-0.897452
C158	C	1.324376	0.012176	-0.564119
C159	C	1.657709	0.345510	-0.230786
C160	C	1.058017	-0.338299	-0.946526
C161	C	1.391350	-0.004965	-0.613193
C162	C	1.724683	0.328368	-0.279859
C163	C	1.125000	-0.355556	-0.849629
C164	C	1.458333	-0.022222	-0.516296
C165	C	1.791666	0.311111	-0.182963
C166	C	1.042780	-0.274264	-0.845950
C167	C	1.376114	0.059069	-0.512617
C168	C	1.709447	0.392403	-0.179284
C169	C	1.109809	-0.291412	-0.896099
C170	C	1.443142	0.041921	-0.562765
C171	C	1.776476	0.375254	-0.229432
C172	C	1.057966	-0.338380	-0.716446
C173	C	1.391299	-0.005047	-0.383113
C174	C	1.724632	0.328287	-0.049780
C175	C	1.058044	-0.338268	-1.030621
C176	C	1.391377	-0.004934	-0.697288
C177	C	1.724710	0.328399	-0.363955
C178	C	1.057917	-0.338428	-0.180213
C179	C	1.391250	-0.005094	0.153121
C180	C	1.724584	0.328239	0.486454
C181	C	1.058057	-0.338243	-0.097659
C182	C	1.391390	-0.004910	0.235674
C183	C	1.724724	0.328424	0.569008
H184	H	0.608520	-0.251778	-0.277822
H185	H	0.941853	0.081555	0.055511
H186	H	1.275186	0.414889	0.388844
N187	N	0.951398	-0.435071	-0.825996
N188	N	1.284732	-0.101737	-0.492663
N189	N	1.618065	0.231596	-0.159329
N190	N	0.970130	-0.484375	-0.787738
N191	N	1.303463	-0.151042	-0.454405
N192	N	1.636796	0.182292	-0.121072
H193	H	0.931405	-0.519567	-0.770111
H194	H	1.264738	-0.186233	-0.436778
H195	H	1.598071	0.147100	-0.103444
N196	N	1.165888	-1.077946	-0.265578
N197	N	1.499222	-0.744613	0.067756
N198	N	1.832555	-0.411280	0.401089
N199	N	1.209784	-1.045185	-0.221737
N200	N	1.543117	-0.711851	0.111596
N201	N	1.876451	-0.378518	0.444929
H202	H	1.242893	-1.071627	-0.188702
H203	H	1.576227	-0.738294	0.144632
H204	H	1.909560	-0.404960	0.477965
H205	H	0.606202	-0.306918	-0.496817
H206	H	0.939536	0.026415	-0.163483
H207	H	1.272869	0.359749	0.169850
H208	H	0.599186	-0.456720	-0.344666
H209	H	0.932519	-0.123387	-0.011333
H210	H	1.265853	0.209947	0.322000
H211	H	0.517235	-0.220255	-0.401527
H212	H	0.850568	0.113078	-0.068194
H213	H	1.183902	0.446411	0.265140
H214	H	1.132008	-0.605798	-0.299109
H215	H	1.465341	-0.272465	0.034224
H216	H	1.798674	0.060869	0.367557
H217	H	1.086097	-0.456593	-0.925266
H218	H	1.419430	-0.123260	-0.591933
H219	H	1.752764	0.210074	-0.258599
H220	H	0.983931	-1.070387	-0.447248
H221	H	1.317265	-0.737054	-0.113915
H222	H	1.650598	-0.403720	0.219418
N223	N	1.026607	-0.206318	-0.815651
N224	N	1.359941	0.127015	-0.482318
N225	N	1.693274	0.460349	-0.148985
N226	N	1.014514	-0.157906	-0.857876
N227	N	1.347848	0.175427	-0.524543
N228	N	1.681181	0.508761	-0.191210
H229	H	1.003086	-0.109918	-0.836478
H230	H	1.336419	0.223416	-0.503144
H231	H	1.669752	0.556749	-0.169811
N232	N	0.943432	-0.746504	-0.487485
N233	N	1.276766	-0.413170	-0.154151
N234	N	1.610099	-0.079837	0.179182
N235	N	0.940506	-0.811994	-0.490444
N236	N	1.273840	-0.478661	-0.157110
N237	N	1.607173	-0.145327	0.176223
H238	H	0.905043	-0.838464	-0.525872
H239	H	1.238376	-0.505131	-0.192539
H240	H	1.571709	-0.171798	0.140794
N241	N	1.135580	-0.746455	-0.295660
N242	N	1.468914	-0.413122	0.037673
N243	N	1.802247	-0.079788	0.371007
N244	N	1.179479	-0.713694	-0.251822
N245	N	1.512812	-0.380360	0.081511
N246	N	1.846145	-0.047027	0.414845
H247	H	1.212598	-0.740137	-0.218796
H248	H	1.545931	-0.406803	0.114537
H249	H	1.879264	-0.073470	0.447870
N250	N	1.172513	-0.929695	-0.258863
N251	N	1.505846	-0.596361	0.074470
N252	N	1.839179	-0.263028	0.407803
N253	N	1.213476	-0.962442	-0.217985
N254	N	1.546810	-0.629108	0.115348
N255	N	1.880143	-0.295775	0.448681
H256	H	1.248946	-0.935987	-0.182551
H257	H	1.582280	-0.602654	0.150782
H258	H	1.915613	-0.269321	0.484116
N259	N	0.504685	-0.373646	-0.235054
N260	N	0.838018	-0.040312	0.098279
N261	N	1.171351	0.293021	0.431613
N262	N	0.522166	-0.336313	-0.178731
N263	N	0.855500	-0.002980	0.154603
N264	N	1.188833	0.330353	0.487936
H265	H	0.502340	-0.349106	-0.128526
H266	H	0.835674	-0.015773	0.204808
H267	H	1.169007	0.317560	0.538141
N268	N	0.502262	-0.435398	-0.479603
N269	N	0.835596	-0.102064	-0.146270
N270	N	1.168929	0.231269	0.187064
N271	N	0.515364	-0.498784	-0.475537
N272	N	0.848697	-0.165450	-0.142204
N273	N	1.182031	0.167883	0.191130
H274	H	0.494711	-0.534035	-0.514232
H275	H	0.828044	-0.200702	-0.180898
H276	H	1.161377	0.132631	0.152435
H277	H	0.989881	-0.937319	-0.441218
H278	H	1.323214	-0.603985	-0.107884
H279	H	1.656547	-0.270652	0.225449
H280	H	0.959566	-0.605821	-0.471285
H281	H	1.292899	-0.272487	-0.137952
H282	H	1.626232	0.060846	0.195381
N283	N	1.129974	-0.818034	-0.301269
N284	N	1.463308	-0.484700	0.032064
N285	N	1.796641	-0.151367	0.365398
N286	N	1.105695	-0.777148	-0.252075
N287	N	1.439028	-0.443814	0.081258
N288	N	1.772362	-0.110481	0.414591
H289	H	1.141153	-0.750672	-0.216645
H290	H	1.474486	-0.417339	0.116689
H291	H	1.807819	-0.084006	0.450022
N292	N	0.985949	-0.858159	-0.445072
N293	N	1.319282	-0.524825	-0.111738
N294	N	1.652616	-0.191492	0.221595
N295	N	0.936817	-0.899142	-0.420740
N296	N	1.270150	-0.565808	-0.087407
N297	N	1.603484	-0.232475	0.245926
H298	H	0.901346	-0.925620	-0.456155
H299	H	1.234680	-0.592287	-0.122822
H300	H	1.568013	-0.258953	0.210511
H301	H	1.181639	-0.370137	-0.828690
H302	H	1.514973	-0.036804	-0.495356
H303	H	1.848306	0.296529	-0.162023
H304	H	1.153633	-0.251732	-0.915852
H305	H	1.486966	0.081602	-0.582519
H306	H	1.820299	0.414935	-0.249186
H307	H	0.934417	-0.306637	-0.918486
H308	H	1.267750	0.026697	-0.585153
H309	H	1.601083	0.360030	-0.251820
