data_functionalizedCrystal
_audit_creation_method	'MofGen! by Chris Wilmer'
_symmetry_space_group_name_H-M	'P1'
_symmetry_Int_Tables_number	1
_symmetry_cell_setting	triclinic
loop_
_symmetry_equiv_pos_as_xyz
  x,y,z
_cell_length_a	17.038272
_cell_length_b	17.038272
_cell_length_c	15.186229
_cell_angle_alpha	90.000406
_cell_angle_beta	90.000221
_cell_angle_gamma	91.111556
loop_
_atom_site_label
_atom_site_type_symbol
_atom_site_fract_x
_atom_site_fract_y
_atom_site_fract_z
O1	O	1.048756	0.170532	0.073119
O2	O	1.382089	0.503865	0.406453
O3	O	1.715423	0.837198	0.739786
O4	O	0.820945	0.167824	0.073145
O5	O	1.154278	0.501157	0.406478
O6	O	1.487611	0.834490	0.739812
O7	O	0.933496	0.055272	0.073125
O8	O	1.266830	0.388605	0.406459
O9	O	1.600163	0.721939	0.739792
O10	O	0.936204	0.283083	0.073139
O11	O	1.269538	0.616417	0.406472
O12	O	1.602871	0.949750	0.739806
O13	O	0.933483	0.055278	-0.073332
O14	O	1.266816	0.388611	0.260001
O15	O	1.600149	0.721944	0.593335
O16	O	0.820931	0.167830	-0.073312
O17	O	1.154264	0.501163	0.260021
O18	O	1.487598	0.834496	0.593354
O19	O	1.048742	0.170538	-0.073338
O20	O	1.382076	0.503871	0.259995
O21	O	1.715409	0.837204	0.593329
Zn22	Zn	0.934834	0.169185	-0.096578
Zn23	Zn	1.268168	0.502518	0.236755
Zn24	Zn	1.601501	0.835851	0.570088
Zn25	Zn	0.934852	0.169177	0.096385
Zn26	Zn	1.268186	0.502510	0.429719
Zn27	Zn	1.601519	0.835843	0.763052
O28	O	0.936191	0.283089	-0.073318
O29	O	1.269524	0.616423	0.260015
O30	O	1.602857	0.949756	0.593348
C31	C	0.791645	0.165364	-0.000080
C32	C	1.124978	0.498697	0.333253
C33	C	1.458312	0.832030	0.666586
C34	C	0.704361	0.158016	-0.000071
C35	C	1.037695	0.491349	0.333263
C36	C	1.371028	0.824682	0.666596
C37	C	0.658752	0.225479	-0.000067
C38	C	0.992086	0.558813	0.333266
C39	C	1.325419	0.892146	0.666599
C40	C	0.576740	0.218570	-0.000080
C41	C	0.910074	0.551904	0.333254
C42	C	1.243407	0.885237	0.666587
C43	C	0.540339	0.144197	-0.000089
C44	C	0.873672	0.477530	0.333244
C45	C	1.207006	0.810864	0.666577
C46	C	0.585954	0.076728	-0.000095
C47	C	0.919288	0.410062	0.333238
C48	C	1.252621	0.743395	0.666571
C49	C	0.667965	0.083638	-0.000089
C50	C	1.001298	0.416971	0.333244
C51	C	1.334631	0.750305	0.666578
C52	C	0.292951	0.119787	-0.000114
C53	C	0.626285	0.453120	0.333219
C54	C	0.959618	0.786453	0.666552
C55	C	0.210935	0.112882	-0.000118
C56	C	0.544268	0.446215	0.333215
C57	C	0.877601	0.779549	0.666549
C58	C	0.201726	0.254725	-0.000104
C59	C	0.535060	0.588058	0.333229
C60	C	0.868393	0.921391	0.666563
C61	C	0.283739	0.261628	-0.000093
C62	C	0.617072	0.594961	0.333241
C63	C	0.950405	0.928294	0.666574
C64	C	0.329347	0.194159	-0.000103
C65	C	0.662680	0.527492	0.333230
C66	C	0.996013	0.860826	0.666564
C67	C	0.456510	0.137133	-0.000099
C68	C	0.789843	0.470467	0.333234
C69	C	1.123177	0.803800	0.666567
C70	C	0.413174	0.201224	-0.000099
C71	C	0.746508	0.534557	0.333234
C72	C	1.079841	0.867890	0.666567
C73	C	0.931027	0.025982	-0.000103
C74	C	1.264360	0.359315	0.333230
C75	C	1.597693	0.692649	0.666564
C76	C	0.923679	-0.061301	-0.000102
C77	C	1.257012	0.272032	0.333231
C78	C	1.590345	0.605365	0.666565
C79	C	0.991142	-0.106911	-0.000110
C80	C	1.324476	0.226423	0.333223
C81	C	1.657809	0.559756	0.666556
C82	C	0.984233	-0.188923	-0.000101
C83	C	1.317567	0.144411	0.333232
C84	C	1.650900	0.477744	0.666565
C85	C	0.909860	-0.225324	-0.000090
C86	C	1.243193	0.108010	0.333243
C87	C	1.576527	0.441343	0.666577
C88	C	0.842391	-0.179708	-0.000079
C89	C	1.175725	0.153625	0.333255
C90	C	1.509058	0.486958	0.666588
C91	C	0.849301	-0.097698	-0.000081
C92	C	1.182634	0.235635	0.333252
C93	C	1.515968	0.568969	0.666585
C94	C	0.885449	-0.472712	-0.000075
C95	C	1.218783	-0.139378	0.333258
C96	C	1.552116	0.193955	0.666592
C97	C	0.878545	-0.554728	-0.000075
C98	C	1.211878	-0.221395	0.333258
C99	C	1.545211	0.111939	0.666592
C100	C	1.020387	-0.563937	-0.000096
C101	C	1.353721	-0.230603	0.333237
C102	C	1.687054	0.102730	0.666571
C103	C	1.027291	-0.481924	-0.000104
C104	C	1.360624	-0.148591	0.333229
C105	C	1.693957	0.184742	0.666563
C106	C	0.959822	-0.436316	-0.000088
C107	C	1.293155	-0.102983	0.333245
C108	C	1.626489	0.230351	0.666579
C109	C	0.902796	-0.309153	-0.000083
C110	C	1.236130	0.024180	0.333250
C111	C	1.569463	0.357514	0.666583
C112	C	0.966886	-0.352488	-0.000088
C113	C	1.300220	-0.019155	0.333245
C114	C	1.633553	0.314178	0.666578
C115	C	1.078042	0.172997	-0.000111
C116	C	1.411375	0.506331	0.333223
C117	C	1.744709	0.839664	0.666556
C118	C	1.165326	0.180346	-0.000115
C119	C	1.498659	0.513679	0.333219
C120	C	1.831992	0.847012	0.666552
C121	C	0.938660	0.312379	-0.000088
C122	C	1.271994	0.645712	0.333245
C123	C	1.605327	0.979046	0.666579
C124	C	0.946008	0.399663	-0.000083
C125	C	1.279342	0.732996	0.333250
C126	C	1.612675	1.066329	0.666583
N127	N	0.934828	0.169190	-0.228271
N128	N	1.268161	0.502523	0.105062
N129	N	1.601495	0.835856	0.438396
C130	C	0.985639	0.220005	-0.453997
C131	C	1.318972	0.553338	-0.120663
C132	C	1.652306	0.886672	0.212670
C133	C	0.985647	0.220000	-0.546186
C134	C	1.318981	0.553333	-0.212853
C135	C	1.652314	0.886666	0.120480
C136	C	0.884051	0.118345	-0.546190
C137	C	1.217385	0.451678	-0.212857
C138	C	1.550718	0.785012	0.120477
C139	C	0.884048	0.118347	-0.454002
C140	C	1.217381	0.451680	-0.120669
C141	C	1.550714	0.785013	0.212665
C142	C	0.934840	0.169181	-0.407908
C143	C	1.268174	0.502514	-0.074574
C144	C	1.601507	0.835848	0.258759
C145	C	0.934852	0.169174	-0.592285
C146	C	1.268186	0.502508	-0.258952
C147	C	1.601519	0.835841	0.074381
C148	C	0.934861	0.169168	-0.692241
C149	C	1.268194	0.502502	-0.358908
C150	C	1.601527	0.835835	-0.025575
C151	C	0.934833	0.169186	-0.307945
C152	C	1.268167	0.502519	0.025388
C153	C	1.601500	0.835853	0.358721
N154	N	0.934865	0.169166	0.228078
N155	N	1.268198	0.502499	0.561411
N156	N	1.601532	0.835832	0.894745
H157	H	0.164583	0.309653	-0.000097
H158	H	0.497917	0.642987	0.333236
H159	H	0.831250	0.976320	0.666569
F160	F	0.829977	0.064251	-0.404948
F161	F	1.163310	0.397585	-0.071615
F162	F	1.496643	0.730918	0.261719
H163	H	1.026998	0.261397	-0.416469
H164	H	1.360331	0.594731	-0.083136
H165	H	1.693665	0.928064	0.250197
H166	H	1.051705	-0.077279	-0.000125
H167	H	1.385038	0.256054	0.333208
H168	H	1.718372	0.589387	0.666542
H169	H	0.830511	-0.435587	-0.000062
H170	H	1.163844	-0.102254	0.333271
H171	H	1.497178	0.231080	0.666604
H172	H	1.087853	-0.452293	-0.000113
H173	H	1.421186	-0.118959	0.333220
H174	H	1.754520	0.214374	0.666553
F175	F	0.697485	0.304638	-0.000051
F176	F	1.030819	0.637972	0.333282
F177	F	1.364152	0.971305	0.666616
H178	H	0.313370	0.322190	-0.000075
H179	H	0.646704	0.655524	0.333259
H180	H	0.980037	0.988857	0.666592
F181	F	0.172196	0.033720	-0.000144
F182	F	0.505529	0.367053	0.333190
F183	F	0.838863	0.700387	0.666523
H184	H	1.027441	-0.322847	-0.000078
H185	H	1.360774	0.010486	0.333255
H186	H	1.694107	0.343820	0.666588
F187	F	0.823644	-0.347901	-0.000067
F188	F	1.156978	-0.014568	0.333266
F189	F	1.490311	0.318766	0.666599
H190	H	0.781835	-0.209353	-0.000064
H191	H	1.115168	0.123981	0.333270
H192	H	1.448501	0.457314	0.666603
H193	H	0.539608	0.273507	-0.000076
H194	H	0.872942	0.606840	0.333257
H195	H	1.206275	0.940173	0.666591
F196	F	0.829993	0.064251	-0.595255
F197	F	1.163326	0.397584	-0.261921
F198	F	1.496660	0.730917	0.071412
F199	F	0.777497	-0.049157	-0.000070
F200	F	1.110830	0.284176	0.333264
F201	F	1.444163	0.617509	0.666597
H202	H	1.075316	-0.601079	-0.000107
H203	H	1.408650	-0.267746	0.333226
H204	H	1.741983	0.065587	0.666560
F205	F	0.341480	0.047979	-0.000126
F206	F	0.674814	0.381313	0.333208
F207	F	1.008147	0.714646	0.666541
H208	H	1.027014	0.261385	-0.583708
H209	H	1.360347	0.594718	-0.250374
H210	H	1.693680	0.928051	0.082959
H211	H	0.817978	-0.584363	-0.000080
H212	H	1.151311	-0.251030	0.333254
H213	H	1.484645	0.082304	0.666587
F214	F	0.547212	-0.002426	-0.000111
F215	F	0.880545	0.330908	0.333222
F216	F	1.213878	0.664241	0.666555
F217	F	0.451917	0.280375	-0.000093
F218	F	0.785250	0.613708	0.333241
F219	F	1.118583	0.947041	0.666574
F220	F	0.716505	0.011834	-0.000096
F221	F	1.049839	0.345167	0.333238
F222	F	1.383172	0.678500	0.666571
H223	H	0.426863	0.076578	-0.000132
H224	H	0.760196	0.409911	0.333201
H225	H	1.093530	0.743245	0.666534
H226	H	1.039170	-0.226054	-0.000110
H227	H	1.372503	0.107279	0.333223
H228	H	1.705836	0.440612	0.666556
