data_functionalizedCrystal
_audit_creation_method	'MofGen! by Chris Wilmer'
_symmetry_space_group_name_H-M	'P1'
_symmetry_Int_Tables_number	1
_symmetry_cell_setting	triclinic
loop_
_symmetry_equiv_pos_as_xyz
  x,y,z
_cell_length_a	14.519709
_cell_length_b	18.366186
_cell_length_c	19.288874
_cell_angle_alpha	90.005656
_cell_angle_beta	83.410185
_cell_angle_gamma	90.003469
loop_
_atom_site_label
_atom_site_type_symbol
_atom_site_fract_x
_atom_site_fract_y
_atom_site_fract_z
O1	O	1.223300	0.060456	0.091049
O2	O	1.556634	0.393789	0.424383
O3	O	1.889967	0.727122	0.757716
O4	O	0.954756	0.060478	0.101772
O5	O	1.288089	0.393811	0.435105
O6	O	1.621422	0.727145	0.768438
O7	O	1.096783	0.060461	-0.004692
O8	O	1.430116	0.393794	0.328642
O9	O	1.763450	0.727127	0.661975
O10	O	1.081273	0.060473	0.197512
O11	O	1.414606	0.393807	0.530846
O12	O	1.747940	0.727140	0.864179
O13	O	1.096758	-0.060639	-0.004695
O14	O	1.430092	0.272694	0.328639
O15	O	1.763425	0.606028	0.661972
O16	O	0.954731	-0.060621	0.101769
O17	O	1.288065	0.272712	0.435102
O18	O	1.621398	0.606045	0.768435
O19	O	1.223276	-0.060644	0.091046
O20	O	1.556609	0.272690	0.424380
O21	O	1.889942	0.606023	0.757713
Zn22	Zn	1.089000	-0.079860	0.096407
Zn23	Zn	1.422333	0.253474	0.429740
Zn24	Zn	1.755666	0.586807	0.763074
Zn25	Zn	1.089032	0.079694	0.096411
Zn26	Zn	1.422365	0.413027	0.429744
Zn27	Zn	1.755699	0.746361	0.763078
O28	O	1.081249	-0.060626	0.197509
O29	O	1.414582	0.272707	0.530843
O30	O	1.747915	0.606041	0.864176
C31	C	0.920387	-0.000069	0.101270
C32	C	1.253720	0.333265	0.434604
C33	C	1.587054	0.666598	0.767937
C34	C	0.818015	-0.000060	0.099773
C35	C	1.151348	0.333273	0.433106
C36	C	1.484682	0.666606	0.766440
C37	C	0.443154	-0.000094	0.094260
C38	C	0.776487	0.333239	0.427594
C39	C	1.109821	0.666573	0.760927
C40	C	0.547452	-0.000084	0.095791
C41	C	0.880786	0.333249	0.429124
C42	C	1.214119	0.666582	0.762458
C43	C	0.630581	-0.000076	0.097016
C44	C	0.963915	0.333257	0.430350
C45	C	1.297248	0.666590	0.763683
C46	C	0.734886	-0.000068	0.098548
C47	C	1.068219	0.333265	0.431881
C48	C	1.401553	0.666598	0.765214
N49	N	1.088984	-0.188751	0.096404
N50	N	1.422318	0.144583	0.429737
N51	N	1.755651	0.477916	0.763070
C52	C	1.144734	-0.226847	0.138628
C53	C	1.478067	0.106486	0.471961
C54	C	1.811401	0.439819	0.805295
C55	C	1.144749	-0.303075	0.138626
C56	C	1.478082	0.030258	0.471959
C57	C	1.811416	0.363592	0.805293
C58	C	1.088997	-0.341203	0.096408
C59	C	1.422331	-0.007870	0.429741
C60	C	1.755664	0.325463	0.763075
C61	C	1.033244	-0.303098	0.054175
C62	C	1.366577	0.030235	0.387509
C63	C	1.699911	0.363569	0.720842
C64	C	1.033238	-0.226871	0.054173
C65	C	1.366571	0.106462	0.387506
C66	C	1.699904	0.439795	0.720840
C67	C	1.005866	-0.461978	0.094352
C68	C	1.339200	-0.128644	0.427685
C69	C	1.672533	0.204689	0.761019
C70	C	1.005871	-0.538203	0.094359
C71	C	1.339204	-0.204869	0.427693
C72	C	1.672538	0.128464	0.761026
C73	C	1.089018	-0.576311	0.096410
C74	C	1.422351	-0.242978	0.429744
C75	C	1.755685	0.090356	0.763077
C76	C	1.172162	-0.538185	0.098469
C77	C	1.505495	-0.204852	0.431803
C78	C	1.838829	0.128482	0.765136
C79	C	1.172155	-0.461959	0.098467
C80	C	1.505489	-0.128625	0.431800
C81	C	1.838822	0.204708	0.765134
C82	C	1.088998	-0.423858	0.096405
C83	C	1.422332	-0.090525	0.429739
C84	C	1.755665	0.242808	0.763072
C85	C	1.144789	-0.697062	0.138635
C86	C	1.478122	-0.363729	0.471968
C87	C	1.811455	-0.030396	0.805302
C88	C	1.144806	-0.773292	0.138628
C89	C	1.478139	-0.439958	0.471961
C90	C	1.811472	-0.106625	0.805295
C91	C	1.033292	-0.773313	0.054181
C92	C	1.366626	-0.439980	0.387514
C93	C	1.699959	-0.106646	0.720848
C94	C	1.033284	-0.697085	0.054184
C95	C	1.366617	-0.363752	0.387517
C96	C	1.699951	-0.030419	0.720851
C97	C	1.089031	-0.658964	0.096415
C98	C	1.422364	-0.325631	0.429748
C99	C	1.755697	0.007702	0.763081
C100	C	1.257645	-0.000095	0.091548
C101	C	1.590978	0.333238	0.424881
C102	C	1.924311	0.666571	0.758214
C103	C	1.360016	-0.000099	0.093045
C104	C	1.693350	0.333235	0.426378
C105	C	2.026683	0.666568	0.759712
C106	C	1.096270	-0.000089	-0.030571
C107	C	1.429604	0.333244	0.302762
C108	C	1.762937	0.666578	0.636096
C109	C	1.094768	-0.000089	-0.107680
C110	C	1.428101	0.333245	0.225654
C111	C	1.761434	0.666578	0.558987
N112	N	1.089055	0.188585	0.096409
N113	N	1.422388	0.521919	0.429742
N114	N	1.755721	0.855252	0.763075
C115	C	1.083966	-0.066081	-0.663290
C116	C	1.417299	0.267252	-0.329956
C117	C	1.750632	0.600585	0.003377
C118	C	1.085367	-0.066085	-0.590837
C119	C	1.418701	0.267248	-0.257503
C120	C	1.752034	0.600581	0.075830
C121	C	1.086086	-0.000075	-0.554601
C122	C	1.419419	0.333258	-0.221268
C123	C	1.752753	0.666592	0.112065
C124	C	1.085379	0.065945	-0.590822
C125	C	1.418712	0.399278	-0.257489
C126	C	1.752046	0.732611	0.075844
C127	C	1.083968	0.065947	-0.663273
C128	C	1.417301	0.399280	-0.329940
C129	C	1.750635	0.732613	0.003394
C130	C	1.142345	0.050492	-0.445066
C131	C	1.475679	0.383825	-0.111733
C132	C	1.809012	0.717158	0.221600
C133	C	1.143762	0.050487	-0.372618
C134	C	1.477096	0.383820	-0.039284
C135	C	1.810429	0.717153	0.294049
C136	C	1.090434	-0.000079	-0.331140
C137	C	1.423767	0.333255	0.002194
C138	C	1.757101	0.666588	0.335527
C139	C	1.035701	-0.050652	-0.362120
C140	C	1.369034	0.282682	-0.028787
C141	C	1.702368	0.616015	0.304547
C142	C	1.034290	-0.050649	-0.434571
C143	C	1.367623	0.282684	-0.101237
C144	C	1.700957	0.616017	0.232096
C145	C	1.087616	-0.000070	-0.476041
C146	C	1.420949	0.333263	-0.142708
C147	C	1.754282	0.666597	0.190626
C148	C	1.092654	-0.066098	-0.216365
C149	C	1.425988	0.267235	0.116968
C150	C	1.759321	0.600568	0.450302
C151	C	1.094051	-0.066100	-0.143910
C152	C	1.427384	0.267234	0.189423
C153	C	1.760717	0.600567	0.522756
C154	C	1.094071	0.065932	-0.143898
C155	C	1.427405	0.399265	0.189435
C156	C	1.760738	0.732599	0.522768
C157	C	1.092666	0.065931	-0.216351
C158	C	1.425999	0.399265	0.116983
C159	C	1.759333	0.732598	0.450316
C160	C	1.091962	-0.000086	-0.252580
C161	C	1.425295	0.333247	0.080753
C162	C	1.758629	0.666581	0.414087
C163	C	1.081761	-0.000075	0.223389
C164	C	1.415095	0.333258	0.556722
C165	C	1.748428	0.666592	0.890056
C166	C	1.083264	-0.000071	0.300498
C167	C	1.416597	0.333263	0.633831
C168	C	1.749931	0.666596	0.967164
H169	H	1.190131	-0.195814	0.173013
H170	H	1.523464	0.137519	0.506346
H171	H	1.856798	0.470853	0.839679
Cl172	Cl	1.083088	0.148939	-0.708800
Cl173	Cl	1.416421	0.482272	-0.375467
Cl174	Cl	1.749755	0.815605	-0.042134
H175	H	1.094646	0.119679	-0.114395
H176	H	1.427979	0.453012	0.218938
H177	H	1.761312	0.786346	0.552272
Cl178	Cl	1.214840	-0.350978	0.191712
Cl179	Cl	1.548174	-0.017644	0.525045
Cl180	Cl	1.881507	0.315689	0.858378
H181	H	1.085961	0.119691	-0.561315
H182	H	1.419294	0.453024	-0.227981
H183	H	1.752627	0.786357	0.105352
H184	H	1.085922	-0.119841	-0.561345
H185	H	1.419255	0.213493	-0.228011
H186	H	1.752588	0.546826	0.105322
Cl187	Cl	1.214902	-0.821185	0.191712
Cl188	Cl	1.548236	-0.487852	0.525045
Cl189	Cl	1.881569	-0.154518	0.858378
H190	H	1.092101	0.119685	-0.245836
H191	H	1.425434	0.453018	0.087497
H192	H	1.758768	0.786351	0.420831
Cl193	Cl	1.276674	-0.414031	0.101054
Cl194	Cl	1.610007	-0.080698	0.434387
Cl195	Cl	1.943340	0.252635	0.767720
H196	H	1.083391	-0.119838	-0.692783
H197	H	1.416725	0.213496	-0.359450
H198	H	1.750058	0.546829	-0.026116
H199	H	1.239868	-0.569211	0.100143
H200	H	1.573201	-0.235878	0.433476
H201	H	1.906534	0.097456	0.766810
Cl202	Cl	1.212572	0.114060	-0.333678
Cl203	Cl	1.545905	0.447394	-0.000345
Cl204	Cl	1.879238	0.780727	0.332988
H205	H	1.190182	-0.666023	0.173021
H206	H	1.523515	-0.332689	0.506354
H207	H	1.856848	0.000644	0.839688
Cl208	Cl	1.209374	0.114079	-0.497201
Cl209	Cl	1.542707	0.447412	-0.163868
Cl210	Cl	1.876040	0.780746	0.169465
Cl211	Cl	0.968660	-0.114228	-0.309985
Cl212	Cl	1.301994	0.219106	0.023349
Cl213	Cl	1.635327	0.552439	0.356682
Cl214	Cl	0.963214	-0.821239	0.001098
Cl215	Cl	1.296548	-0.487905	0.334431
Cl216	Cl	1.629881	-0.154572	0.667765
Cl217	Cl	0.963176	-0.649190	0.001113
Cl218	Cl	1.296509	-0.315857	0.334446
Cl219	Cl	1.629843	0.017477	0.667779
Cl220	Cl	1.091764	-0.149090	-0.261913
Cl221	Cl	1.425097	0.184244	0.071420
Cl222	Cl	1.758431	0.517577	0.404753
H223	H	0.987838	-0.195854	0.019788
H224	H	1.321171	0.137480	0.353122
H225	H	1.654504	0.470813	0.686455
Cl226	Cl	0.901348	-0.586125	0.091778
Cl227	Cl	1.234681	-0.252791	0.425112
Cl228	Cl	1.568014	0.080542	0.758445
H229	H	0.938152	-0.430956	0.092686
H230	H	1.271486	-0.097623	0.426020
H231	H	1.604819	0.235710	0.759353
Cl232	Cl	1.094916	-0.149093	-0.098383
Cl233	Cl	1.428249	0.184241	0.234950
Cl234	Cl	1.761582	0.517574	0.568284
Cl235	Cl	0.963159	-0.351030	0.001099
Cl236	Cl	1.296492	-0.017696	0.334432
Cl237	Cl	1.629826	0.315637	0.667765
Cl238	Cl	0.965480	-0.114219	-0.473515
Cl239	Cl	1.298814	0.219114	-0.140182
Cl240	Cl	1.632147	0.552448	0.193152
