data_functionalizedCrystal
_audit_creation_method	'MofGen! by Chris Wilmer'
_symmetry_space_group_name_H-M	'P1'
_symmetry_Int_Tables_number	1
_symmetry_cell_setting	triclinic
loop_
_symmetry_equiv_pos_as_xyz
  x,y,z
_cell_length_a	12.827893
_cell_length_b	10.686285
_cell_length_c	12.827885
_cell_angle_alpha	94.397093
_cell_angle_beta	89.980728
_cell_angle_gamma	94.368299
loop_
_atom_site_label
_atom_site_type_symbol
_atom_site_fract_x
_atom_site_fract_y
_atom_site_fract_z
Zn1	Zn	1.629641	0.502288	-0.558997
Zn2	Zn	1.642968	0.713328	-0.370874
Zn3	Zn	1.454887	0.502350	-0.384266
Zn4	Zn	1.468295	0.713233	-0.545580
O5	O	1.548948	0.607800	-0.464929
O6	O	1.777646	0.530296	-0.534052
O7	O	1.617985	0.685407	-0.226410
O8	O	1.466879	0.325765	-0.418664
O9	O	1.787437	0.685347	-0.395839
O10	O	1.595271	0.325719	-0.547038
O11	O	1.479802	0.530402	-0.236249
O12	O	1.310428	0.530310	-0.405655
O13	O	1.489732	0.685185	-0.693600
O14	O	1.320279	0.685246	-0.524171
O15	O	1.608272	0.530204	-0.703457
O16	O	1.630987	0.889892	-0.382829
O17	O	1.502655	0.889822	-0.511185
C18	C	1.277436	0.607775	-0.464911
C19	C	1.161285	0.607795	-0.464926
C20	C	1.569750	0.935642	-0.444121
C21	C	1.578745	1.075894	-0.435254
C22	C	1.549011	0.607677	-0.737507
C23	C	1.549038	0.607625	-0.853664
C24	C	1.114410	0.684582	-0.523466
C25	C	0.994361	0.684604	-0.523483
C26	C	1.821520	0.607825	-0.464948
C27	C	1.937673	0.607836	-0.464956
C28	C	1.528093	0.278678	-0.485842
C29	C	1.519205	0.138425	-0.494753
C30	C	1.617420	0.684295	-0.900582
C31	C	1.617450	0.684243	-1.020635
C32	C	1.548939	0.607830	-0.193417
C33	C	1.549092	0.607527	-0.077284
H34	H	1.163154	0.750301	-0.573576
H35	H	0.954031	0.750348	-0.573598
H36	H	1.461350	1.084666	-0.552478
H37	H	1.636597	1.129661	-0.377519
H38	H	1.490541	0.541888	-1.036924
C39	C	1.059352	0.590218	-0.325625
C40	C	0.992104	0.519082	-0.397291
H41	H	1.092965	0.535423	-0.283857
H42	H	1.020237	0.645084	-0.282065
H43	H	1.110472	0.638375	-0.362353
H44	H	0.940979	0.470932	-0.360563
H45	H	1.031222	0.464194	-0.440856
C46	C	1.681104	0.755857	-0.728630
C47	C	1.696427	0.772967	-0.834834
H48	H	1.729878	0.810608	-0.688044
H49	H	1.691009	0.671076	-0.716190
H50	H	1.612035	0.774305	-0.709628
H51	H	1.765495	0.754509	-0.853838
H52	H	1.686531	0.857768	-0.847280
C53	C	1.759046	0.701591	-1.142402
C54	C	1.696495	0.772857	-1.075115
H55	H	1.807852	0.756300	-1.176030
H56	H	1.716163	0.653472	-1.193502
H57	H	1.795557	0.646682	-1.103301
H58	H	1.659978	0.827759	-1.114218
H59	H	1.739384	0.820997	-1.024009
C60	C	1.407503	0.590170	-0.977631
C61	C	1.470023	0.518959	-0.919407
H62	H	1.358716	0.535429	-1.018209
H63	H	1.450409	0.638248	-1.022622
H64	H	1.370970	0.645115	-0.931544
H65	H	1.506562	0.464021	-0.965494
H66	H	1.427111	0.470860	-0.874412
H67	H	1.112540	0.542067	-0.414825
