data_functionalizedCrystal
_audit_creation_method	'MofGen! by Chris Wilmer'
_symmetry_space_group_name_H-M	'P1'
_symmetry_Int_Tables_number	1
_symmetry_cell_setting	triclinic
loop_
_symmetry_equiv_pos_as_xyz
  x,y,z
_cell_length_a	10.723024
_cell_length_b	10.540539
_cell_length_c	9.198806
_cell_angle_alpha	89.998955
_cell_angle_beta	89.996352
_cell_angle_gamma	84.496680
loop_
_atom_site_label
_atom_site_type_symbol
_atom_site_fract_x
_atom_site_fract_y
_atom_site_fract_z
O1	O	1.657276	0.178046	-0.120876
O2	O	1.294132	0.195088	-0.120880
O3	O	1.483989	0.001856	-0.120876
O4	O	1.467419	0.371278	-0.120880
O5	O	1.483974	0.001856	0.120909
O6	O	1.294117	0.195088	0.120905
O7	O	1.657261	0.178045	0.120909
Cu8	Cu	1.475688	0.186567	0.142984
Cu9	Cu	1.475706	0.186567	-0.142955
O10	O	1.467404	0.371277	0.120905
C11	C	1.247624	0.193848	0.000012
C12	C	1.109068	0.190137	0.000010
C13	C	1.034139	0.298260	0.000008
C14	C	0.890934	0.294427	0.000006
C15	C	1.482739	-0.045446	0.000014
C16	C	1.479021	-0.186392	0.000006
C17	C	1.336563	-0.369746	-0.000538
C18	C	1.340332	-0.223130	0.000006
C19	C	1.545756	-0.248085	0.138078
C20	C	1.541023	-0.394627	0.138194
C21	C	1.543861	-0.395146	-0.136760
C22	C	1.545138	-0.248164	-0.138586
C23	C	1.703769	0.179286	0.000014
C24	C	1.842325	0.182997	0.000007
C25	C	1.468654	0.418580	0.000012
C26	C	1.472372	0.559526	0.000011
N27	N	1.475684	0.186565	0.344098
N28	N	1.475719	0.186558	-0.344069
C29	C	1.555399	0.105075	0.416297
C30	C	1.555419	0.105071	0.583709
H31	H	1.067199	0.094732	-0.000026
N32	N	1.086671	0.417941	0.000023
N33	N	1.202927	0.420884	0.000032
H34	H	1.240028	0.505412	0.000044
N35	N	0.810154	0.410540	-0.000005
N36	N	0.693938	0.407263	-0.000008
H37	H	0.636882	0.489271	-0.000015
N38	N	1.487563	-0.194629	0.266967
N39	N	1.374102	-0.204762	0.290268
H40	H	1.332994	-0.167011	0.381293
N41	N	1.484000	-0.196721	-0.266720
N42	N	1.543910	-0.139067	-0.358039
H43	H	1.500734	-0.102711	-0.448527
N44	N	1.390080	0.274104	0.422000
N45	N	1.315137	0.350720	0.354207
H46	H	1.254675	0.412548	0.409220
N47	N	1.390078	0.274089	0.578086
N48	N	1.315145	0.350696	0.645914
H49	H	1.254659	0.412515	0.590928
N50	N	1.274004	-0.170682	0.124377
N51	N	1.265261	-0.053144	0.146392
H52	H	1.218415	-0.016101	0.234236
H53	H	0.906704	0.090430	-0.000001
N54	N	1.274451	-0.169660	-0.124158
N55	N	1.225358	-0.240620	-0.211822
H56	H	1.178821	-0.202863	-0.299515
H57	H	1.281784	-0.398318	-0.099552
H58	H	1.281995	-0.399926	0.097920
H59	H	1.491690	-0.422801	0.241405
N60	N	1.666150	-0.454857	0.146074
N61	N	1.756691	-0.388625	0.151479
H62	H	1.845061	-0.431156	0.157054
H63	H	1.623629	0.035306	0.354172
H64	H	1.647605	-0.225783	0.143213
N65	N	1.487560	-0.434718	-0.268033
N66	N	1.394051	-0.496817	-0.262377
H67	H	1.354277	-0.524769	-0.355081
H68	H	1.646253	-0.223995	-0.146922
H69	H	1.644035	-0.442423	-0.137688
H70	H	1.623671	0.035308	0.645797
