data_functionalizedCrystal
_audit_creation_method	'MofGen! by Chris Wilmer'
_symmetry_space_group_name_H-M	'P1'
_symmetry_Int_Tables_number	1
_symmetry_cell_setting	triclinic
loop_
_symmetry_equiv_pos_as_xyz
  x,y,z
_cell_length_a	12.759401
_cell_length_b	21.295417
_cell_length_c	12.759393
_cell_angle_alpha	90.037048
_cell_angle_beta	90.020938
_cell_angle_gamma	90.031227
loop_
_atom_site_label
_atom_site_type_symbol
_atom_site_fract_x
_atom_site_fract_y
_atom_site_fract_z
Zn1	Zn	1.606157	-0.250553	0.593972
Zn2	Zn	1.606002	-0.355835	0.418272
Zn3	Zn	1.430456	-0.250587	0.418307
Zn4	Zn	1.430401	-0.355791	0.593909
O5	O	1.518254	-0.303192	0.506115
O6	O	1.753157	-0.264523	0.570677
O7	O	1.582673	-0.341906	0.271256
O8	O	1.453850	-0.162493	0.441651
O9	O	1.753043	-0.341874	0.441591
O10	O	1.582937	-0.162468	0.570711
O11	O	1.453700	-0.264581	0.271282
O12	O	1.283427	-0.264538	0.441590
O13	O	1.453758	-0.341799	0.740939
O14	O	1.283388	-0.341831	0.570604
O15	O	1.582885	-0.264481	0.740985
O16	O	1.582621	-0.443919	0.441530
O17	O	1.453608	-0.443886	0.570570
C18	C	1.245287	-0.303184	0.506095
C19	C	1.128510	-0.303196	0.506111
C20	C	1.073655	-0.343504	0.573182
C21	C	0.963931	-0.343506	0.573203
C22	C	0.963927	-0.262891	0.439071
C23	C	1.073649	-0.262886	0.439057
C24	C	0.814025	-0.366093	0.697059
C25	C	0.759166	-0.406411	0.764122
C26	C	0.794737	-0.467844	0.780058
C27	C	0.885165	-0.488971	0.728916
C28	C	0.940018	-0.448657	0.661846
C29	C	0.904449	-0.387215	0.645930
C30	C	1.223557	-0.240305	0.315199
C31	C	1.278412	-0.199993	0.248122
C32	C	1.242843	-0.138559	0.232176
C33	C	1.152412	-0.117434	0.283299
C34	C	1.097556	-0.157746	0.350375
C35	C	1.133133	-0.219179	0.366324
C36	C	1.518120	-0.466743	0.506062
C37	C	1.518159	-0.536711	0.506075
C38	C	1.585336	-0.569508	0.573324
C39	C	1.585373	-0.635250	0.573350
C40	C	1.518244	-0.668194	0.506108
C41	C	1.451054	-0.635389	0.438853
C42	C	1.451011	-0.569648	0.438837
N43	N	1.510303	-0.771462	0.414161
N44	N	1.510350	-0.833913	0.414180
C45	C	1.518367	-0.866268	0.506155
N46	N	1.526356	-0.833813	0.598113
N47	N	1.526315	-0.771356	0.598093
C48	C	1.518282	-0.739479	0.506119
C49	C	1.585588	-0.970351	0.573439
C50	C	1.585617	-1.036094	0.573466
C51	C	1.451304	-1.036232	0.438960
C52	C	1.451269	-0.970489	0.438942
C53	C	1.518416	-0.937553	0.506180
C54	C	1.792287	-0.303200	0.506137
C55	C	1.909064	-0.303203	0.506146
C56	C	1.518333	-0.303131	0.780149
C57	C	1.518366	-0.303105	0.896926
C58	C	1.518417	-0.139001	0.506192
C59	C	1.518486	-0.069033	0.506224
C60	C	1.518236	-0.303206	0.233148
C61	C	1.518406	-0.303055	0.116372
C62	C	1.585607	-0.262839	0.951813
C63	C	1.585625	-0.262812	1.061537
C64	C	1.451157	-0.343322	1.061477
C65	C	1.451135	-0.343346	0.951754
C66	C	1.623270	-0.188542	1.211530
C67	C	1.690527	-0.148282	1.266421
C68	C	1.793044	-0.138629	1.230832
C69	C	1.828325	-0.169246	1.140352
C70	C	1.761072	-0.209511	1.085467
C71	C	1.658541	-0.219152	1.121055
C72	C	1.413501	-0.417617	0.801760
C73	C	1.346254	-0.457885	0.746872
C74	C	1.243735	-0.467545	0.782460
C75	C	1.208459	-0.436939	0.872942
C76	C	1.275706	-0.396670	0.927830
C77	C	1.378224	-0.387010	0.892235
H78	H	1.013642	-0.465858	0.620207
C79	C	1.377104	-0.533571	0.364857
N80	N	1.321435	-0.506396	0.309136
C81	C	0.659703	-0.383167	0.820383
N82	N	0.584786	-0.365662	0.862758
H83	H	1.539790	-0.196393	1.240510
H84	H	0.914113	-0.538998	0.741888
H85	H	1.640321	-1.062796	0.628234
C86	C	1.799873	-0.243185	0.985941
N87	N	1.829098	-0.268544	0.910972
C88	C	1.659554	-0.218568	0.891505
N89	N	1.715249	-0.185219	0.846085
C90	C	1.377899	-0.223231	0.191898
N91	N	1.452838	-0.240731	0.149558
C92	C	1.385065	-0.491556	0.647342
N93	N	1.414297	-0.516915	0.572375
C94	C	0.734389	-0.512191	0.853832
N95	N	0.688934	-0.545590	0.909403
C96	C	1.659280	-0.671334	0.647329
N97	N	1.714950	-0.698510	0.703047
H98	H	1.640260	-0.943533	0.628191
C99	C	0.903569	-0.218556	0.365310
N100	N	0.858109	-0.185163	0.309749
H101	H	1.023927	-0.140539	0.392010
H102	H	1.396639	-1.063054	0.384216
C103	C	0.774895	-0.298512	0.679545
N104	N	0.745416	-0.247608	0.666352
C105	C	1.526280	-0.406995	0.762607
N106	N	1.611227	-0.398999	0.733118
C107	C	1.113283	-0.049853	0.265759
N108	N	1.083814	0.001050	0.252544
C109	C	1.303169	-0.094224	0.158357
N110	N	1.348598	-0.060832	0.102753
C111	C	1.377361	-0.934412	0.364967
N112	N	1.321684	-0.907238	0.309252
H113	H	1.252532	-0.290328	0.328187
C114	C	1.659207	-0.533281	0.647282
N115	N	1.714849	-0.505995	0.702985
C116	C	1.941105	-0.158627	1.101213
N117	N	2.026052	-0.150627	1.071729
H118	H	1.396395	-0.662216	0.384106
H119	H	1.124981	-0.444806	0.901922
H120	H	1.847806	-0.105848	1.275532
C121	C	1.133998	-0.387841	0.646951
N122	N	1.179446	-0.421235	0.702520
H123	H	1.661793	-0.123354	1.340090
C124	C	1.377205	-0.387583	1.121798
N125	N	1.321503	-0.420922	1.167232
C126	C	1.169765	-0.511845	0.722080
N127	N	1.114050	-0.545210	0.676603
H128	H	1.246976	-0.371750	1.001506
