data_functionalizedCrystal
_audit_creation_method	'MofGen! by Chris Wilmer'
_symmetry_space_group_name_H-M	'P1'
_symmetry_Int_Tables_number	1
_symmetry_cell_setting	triclinic
loop_
_symmetry_equiv_pos_as_xyz
  x,y,z
_cell_length_a	12.759400
_cell_length_b	12.759401
_cell_length_c	12.759393
_cell_angle_alpha	89.980387
_cell_angle_beta	89.968436
_cell_angle_gamma	90.014916
loop_
_atom_site_label
_atom_site_type_symbol
_atom_site_fract_x
_atom_site_fract_y
_atom_site_fract_z
Zn1	Zn	-0.418198	1.606256	-0.594013
Zn2	Zn	-0.593917	1.606150	-0.418333
Zn3	Zn	-0.418253	1.430557	-0.418349
Zn4	Zn	-0.593836	1.430546	-0.593971
O5	O	-0.506051	1.518377	-0.506166
O6	O	-0.441518	1.753263	-0.570719
O7	O	-0.570671	1.582818	-0.271314
O8	O	-0.271225	1.453913	-0.441675
O9	O	-0.570618	1.753185	-0.441648
O10	O	-0.271184	1.582998	-0.570735
O11	O	-0.441612	1.453811	-0.271325
O12	O	-0.441534	1.283535	-0.441634
O13	O	-0.570480	1.453894	-0.740998
O14	O	-0.570534	1.283527	-0.570663
O15	O	-0.441440	1.582987	-0.741028
O16	O	-0.740927	1.582807	-0.441607
O17	O	-0.740868	1.453791	-0.570648
C18	C	-0.506032	1.245410	-0.506147
C19	C	-0.506049	1.128633	-0.506163
C20	C	-0.573164	1.073734	-0.438864
C21	C	-0.573182	0.964010	-0.438882
C22	C	-0.438962	0.964094	-0.573502
C23	C	-0.438950	1.073816	-0.573488
C24	C	-0.640263	1.128552	-0.371539
C25	C	-0.707382	1.073653	-0.304234
C26	C	-0.707400	0.963929	-0.304252
C27	C	-0.640299	0.909104	-0.371576
C28	C	-0.779018	1.518315	-0.506144
C29	C	-0.895795	1.518384	-0.506170
C30	C	-0.950653	1.585637	-0.439053
C31	C	-1.060377	1.585702	-0.439085
C32	C	-1.060375	1.451252	-0.573355
C33	C	-0.950653	1.451193	-0.573327
C34	C	-0.895795	1.652828	-0.371896
C35	C	-0.950653	1.720086	-0.304773
C36	C	-1.060377	1.720150	-0.304805
C37	C	-1.115243	1.652957	-0.371961
C38	C	-0.232018	1.518468	-0.506211
C39	C	-0.115241	1.518507	-0.506230
C40	C	-0.505945	1.518451	-0.780200
C41	C	-0.505900	1.518482	-0.896976
C42	C	-0.506071	1.792411	-0.506187
C43	C	-0.506079	1.909187	-0.506195
C44	C	-0.438702	1.585710	-0.951856
C45	C	-0.438664	1.585735	-1.061580
C46	C	-0.573031	1.451301	-1.061535
C47	C	-0.573063	1.451272	-0.951813
C48	C	-0.371539	1.652920	-0.897019
C49	C	-0.304337	1.720155	-0.951899
C50	C	-0.304299	1.720180	-1.061623
C51	C	-0.371463	1.652970	-1.116468
C52	C	-0.506081	1.518364	-0.233199
C53	C	-0.505830	1.518537	-0.116423
H54	H	-0.384297	1.118515	-0.628286
H55	H	-0.371565	1.652910	-0.807677
F56	F	-0.232846	1.791665	-0.893529
H57	H	-0.806452	1.652780	-0.371859
F58	F	-0.778837	0.905504	-0.232625
H59	H	-0.640327	0.819759	-0.371592
F60	F	-1.118771	1.379744	-0.644820
F61	F	-0.778800	1.132003	-0.232596
H62	H	-0.627765	1.396513	-0.907129
H63	H	-1.105039	1.774922	-0.250158
F64	F	-0.367552	0.905741	-0.645146
F65	F	-0.892266	1.379617	-0.644762
F66	F	-0.232778	1.791735	-1.120028
F67	F	-0.892259	1.791602	-0.233314
H68	H	-0.371415	1.652984	-1.205813
F69	F	-1.232021	1.652690	-0.371652
H70	H	-0.640254	1.217895	-0.371515
F71	F	-0.644509	1.379780	-1.119908
