data_functionalizedCrystal
_audit_creation_method	'MofGen! by Chris Wilmer'
_symmetry_space_group_name_H-M	'P1'
_symmetry_Int_Tables_number	1
_symmetry_cell_setting	triclinic
loop_
_symmetry_equiv_pos_as_xyz
  x,y,z
_cell_length_a	15.944545
_cell_length_b	15.944545
_cell_length_c	9.730217
_cell_angle_alpha	89.994648
_cell_angle_beta	90.001375
_cell_angle_gamma	83.496173
loop_
_atom_site_label
_atom_site_type_symbol
_atom_site_fract_x
_atom_site_fract_y
_atom_site_fract_z
O1	O	1.114521	0.108306	-0.114208
O2	O	0.869971	0.121668	-0.114231
O3	O	0.998927	-0.007289	-0.114202
O4	O	0.985565	0.237262	-0.114236
O5	O	0.998923	-0.007290	0.114378
O6	O	0.869967	0.121666	0.114349
O7	O	1.114517	0.108305	0.114373
Zn8	Zn	0.992242	0.114985	0.150653
Zn9	Zn	0.992247	0.114987	-0.150511
O10	O	0.985561	0.237261	0.114344
C11	C	0.838675	0.121113	0.000057
C12	C	0.745428	0.119453	0.000048
C13	C	0.474798	0.034559	0.000075
C14	C	0.525376	0.075488	0.112774
C15	C	0.409785	0.113532	0.000073
C16	C	0.525361	0.075510	-0.112588
C17	C	0.574698	0.116437	0.000059
C18	C	0.459135	0.154440	0.112865
C19	C	0.459116	0.154451	-0.112598
C20	C	0.509662	0.195437	0.000129
C21	C	0.314783	0.111857	0.000082
C22	C	0.669698	0.118119	0.000059
C23	C	0.998371	-0.038583	0.000089
C24	C	0.996711	-0.131830	0.000093
C25	C	0.911817	-0.402460	0.000057
C26	C	0.952748	-0.351875	-0.112642
C27	C	0.990790	-0.467473	0.000053
C28	C	0.952765	-0.351903	0.112720
C29	C	0.993695	-0.302560	0.000075
C30	C	1.031700	-0.418116	-0.112739
C31	C	1.031706	-0.418148	0.112725
C32	C	1.072695	-0.367596	-0.000001
C33	C	0.989115	-0.562475	0.000040
C34	C	0.995377	-0.207560	0.000079
C35	C	1.145813	0.108859	0.000082
C36	C	1.239060	0.110519	0.000081
C37	C	0.986117	0.268556	0.000050
C38	C	0.987777	0.361802	0.000037
N39	N	0.992244	0.114984	0.356190
N40	N	0.992251	0.114982	-0.356048
C41	C	1.106481	0.000826	0.356205
C42	C	1.163605	-0.056251	0.428153
C43	C	1.163614	-0.056251	0.572033
C44	C	1.106490	0.000829	0.643968
C45	C	1.049366	0.057906	0.572020
C46	C	1.049366	0.057902	0.428137
C47	C	0.935127	0.172058	0.572005
C48	C	0.935121	0.172064	0.428125
C49	C	0.878003	0.229139	0.643940
C50	C	0.820882	0.286221	0.571992
C51	C	0.820876	0.286220	0.428103
C52	C	0.877997	0.229141	0.356177
H53	H	0.430323	0.187767	0.208246
N54	N	1.221870	-0.114648	0.354695
N55	N	1.272806	-0.165667	0.418951
H56	H	1.313919	-0.206948	0.367077
H57	H	1.065030	-0.446923	-0.208122
N58	N	0.561624	0.033663	-0.232125
N59	N	0.539271	0.059803	-0.349099
H60	H	0.564879	0.030244	-0.433518
H61	H	0.919398	-0.322989	0.207996
H62	H	0.525153	0.263502	0.000186
N63	N	1.221975	-0.114541	0.645533
N64	N	1.274109	-0.087845	0.725807
H65	H	1.315328	-0.129011	0.777717
H66	H	1.106487	0.000828	0.239051
H67	H	1.140760	-0.352106	-0.000059
H68	H	1.106494	0.000818	0.761123
H69	H	1.065027	-0.447099	0.208014
H70	H	0.878009	0.229132	0.761094
H71	H	0.878000	0.229138	0.239022
N72	N	0.422811	0.196251	-0.232148
N73	N	0.444212	0.169310	-0.349083
H74	H	0.418572	0.198827	-0.433527
H75	H	0.774372	0.332688	0.630570
H76	H	0.459146	-0.033453	0.000194
N77	N	0.826505	-0.422119	-0.000068
N78	N	0.800162	-0.463538	0.096730
H79	H	0.739912	-0.477425	0.096638
N80	N	0.910904	-0.315581	-0.232173
N81	N	0.834780	-0.323542	-0.252263
H82	H	0.805223	-0.297912	-0.336679
H83	H	0.774356	0.332695	0.369531
H84	H	0.554306	0.042135	0.208062
