data_functionalizedCrystal
_audit_creation_method	'MofGen! by Chris Wilmer'
_symmetry_space_group_name_H-M	'P1'
_symmetry_Int_Tables_number	1
_symmetry_cell_setting	triclinic
loop_
_symmetry_equiv_pos_as_xyz
  x,y,z
_cell_length_a	12.759401
_cell_length_b	12.759394
_cell_length_c	12.759393
_cell_angle_alpha	89.970474
_cell_angle_beta	89.979062
_cell_angle_gamma	90.015381
loop_
_atom_site_label
_atom_site_type_symbol
_atom_site_fract_x
_atom_site_fract_y
_atom_site_fract_z
Zn1	Zn	1.606273	-0.418173	-0.594027
Zn2	Zn	1.606166	-0.593889	-0.418350
Zn3	Zn	1.430571	-0.418229	-0.418362
Zn4	Zn	1.430566	-0.593815	-0.593988
O5	O	1.518394	-0.506026	-0.506182
O6	O	1.753279	-0.441489	-0.570735
O7	O	1.582831	-0.570641	-0.271331
O8	O	1.453925	-0.271200	-0.441686
O9	O	1.753201	-0.570587	-0.441666
O10	O	1.583012	-0.271159	-0.570747
O11	O	1.453822	-0.441585	-0.271340
O12	O	1.283550	-0.441513	-0.441648
O13	O	1.453916	-0.570462	-0.741014
O14	O	1.283545	-0.570516	-0.570679
O15	O	1.583007	-0.441418	-0.741043
O16	O	1.582826	-0.740900	-0.441627
O17	O	1.453813	-0.740846	-0.570667
C18	C	1.245427	-0.506013	-0.506161
C19	C	1.128650	-0.506033	-0.506177
C20	C	1.518336	-0.778994	-0.506165
C21	C	1.518407	-0.895771	-0.506192
C22	C	1.073813	-0.573307	-0.573258
C23	C	0.964089	-0.573311	-0.573279
C24	C	0.964048	-0.438765	-0.439129
C25	C	1.073770	-0.438756	-0.439114
C26	C	1.652724	-0.895570	-0.640683
C27	C	1.719916	-0.950330	-0.707937
C28	C	1.719979	-1.060051	-0.707960
C29	C	1.652840	-1.115015	-0.640724
C30	C	1.585648	-1.060255	-0.573470
C31	C	1.585595	-0.950531	-0.573453
C32	C	1.451326	-1.060456	-0.438986
C33	C	1.451268	-0.950734	-0.438956
C34	C	1.384187	-1.115420	-0.371750
C35	C	1.316999	-1.060659	-0.304490
C36	C	1.316940	-0.950931	-0.304469
C37	C	1.384076	-0.895974	-0.371703
C38	C	1.792427	-0.506040	-0.506203
C39	C	1.909204	-0.506046	-0.506213
C40	C	1.518473	-0.505925	-0.780215
C41	C	1.518506	-0.505882	-0.896992
C42	C	1.518481	-0.231993	-0.506222
C43	C	1.518518	-0.115216	-0.506239
C44	C	1.585729	-0.438679	-0.951871
C45	C	1.585747	-0.438633	-1.061595
C46	C	1.451316	-0.573005	-1.061552
C47	C	1.451294	-0.573044	-0.951830
C48	C	1.518376	-0.506051	-0.233214
C49	C	1.518546	-0.505798	-0.116438
H50	H	1.118493	-0.628086	-0.627867
H51	H	1.118419	-0.383967	-0.384489
H52	H	1.774578	-0.905569	-0.762682
C53	C	1.410816	-0.738838	-0.271757
C54	C	1.384013	-0.775366	-0.371683
H55	H	1.410783	-0.664380	-0.271753
H56	H	1.361216	-0.763726	-0.222102
H57	H	1.478636	-0.763624	-0.253655
H58	H	1.316189	-0.750587	-0.389782
H59	H	1.433615	-0.750467	-0.421354
C60	C	1.400051	-0.750963	-0.917995
C61	C	1.377401	-0.646923	-0.891495
H62	H	1.354437	-0.796566	-0.880740
H63	H	1.390439	-0.760549	-0.991179
H64	H	1.470636	-0.766335	-0.900019
H65	H	1.306818	-0.631548	-0.909478
H66	H	1.387005	-0.637331	-0.818295
H67	H	1.262221	-0.906351	-0.249707
H68	H	0.919446	-0.628091	-0.627904
H69	H	0.919352	-0.383991	-0.384527
H70	H	1.652690	-0.806228	-0.640662
H71	H	1.384239	-1.204761	-0.371777
H72	H	1.774681	-1.104637	-0.762734
H73	H	1.652888	-1.204356	-0.640757
C74	C	1.257447	-1.228945	-0.244818
C75	C	1.243208	-1.121076	-0.230590
H76	H	1.211895	-1.266244	-0.199189
H77	H	1.242044	-1.246875	-0.315393
H78	H	1.328057	-1.246873	-0.229505
H79	H	1.172599	-1.103147	-0.245911
H80	H	1.258603	-1.103138	-0.159999
C81	C	1.718598	-0.305845	-0.962939
C82	C	1.659597	-0.364845	-0.891592
H83	H	1.764195	-0.260257	-0.925725
H84	H	1.758780	-0.351606	-1.005730
H85	H	1.672831	-0.265646	-1.005736
H86	H	1.705364	-0.405051	-0.848800
H87	H	1.619412	-0.319079	-0.848783
C88	C	1.600413	-0.297255	-1.184991
C89	C	1.659639	-0.364756	-1.121913
H90	H	1.646033	-0.251638	-1.222221
H91	H	1.560406	-0.337246	-1.233355
H92	H	1.554646	-0.257090	-1.142169
H93	H	1.705401	-0.404926	-1.164736
H94	H	1.699663	-0.324760	-1.073544
H95	H	1.396596	-0.627687	-1.106214
