data_functionalizedCrystal
_audit_creation_method	'MofGen! by Chris Wilmer'
_symmetry_space_group_name_H-M	'P1'
_symmetry_Int_Tables_number	1
_symmetry_cell_setting	triclinic
loop_
_symmetry_equiv_pos_as_xyz
  x,y,z
_cell_length_a	17.699097
_cell_length_b	17.699082
_cell_length_c	16.176319
_cell_angle_alpha	89.991642
_cell_angle_beta	90.007315
_cell_angle_gamma	83.285456
loop_
_atom_site_label
_atom_site_type_symbol
_atom_site_fract_x
_atom_site_fract_y
_atom_site_fract_z
O1	O	1.004070	0.095747	0.068812
O2	O	1.504070	0.595747	0.568812
O3	O	0.783693	0.108189	0.068798
O4	O	1.283693	0.608189	0.568798
O5	O	0.900108	-0.008221	0.068804
O6	O	1.400108	0.491779	0.568804
O7	O	0.887654	0.212157	0.068806
O8	O	1.387654	0.712157	0.568806
O9	O	0.900097	-0.008200	-0.068689
O10	O	1.400097	0.491800	0.431311
O11	O	0.783681	0.108210	-0.068695
O12	O	1.283681	0.608210	0.431305
O13	O	1.004058	0.095768	-0.068682
O14	O	1.504058	0.595768	0.431318
Cu15	Cu	0.893869	0.101991	-0.081243
Cu16	Cu	1.393869	0.601991	0.418757
Cu17	Cu	0.893882	0.101966	0.081359
Cu18	Cu	1.393882	0.601966	0.581359
O19	O	0.887643	0.212178	-0.068687
O20	O	1.387643	0.712178	0.431313
C21	C	0.755490	0.107752	0.000049
C22	C	1.255490	0.607752	0.500049
C23	C	0.671473	0.106409	0.000044
C24	C	1.171473	0.606409	0.500044
C25	C	0.155760	0.098168	0.075025
C26	C	0.655760	0.598168	0.575025
C27	C	0.234705	0.099425	0.075021
C28	C	0.734705	0.599425	0.575021
C29	C	0.274164	0.100065	0.000070
C30	C	0.774164	0.600065	0.500070
C31	C	0.234677	0.099442	-0.074882
C32	C	0.734677	0.599442	0.425118
C33	C	0.155735	0.098180	-0.074877
C34	C	0.655735	0.598180	0.425123
C35	C	0.553041	0.104530	-0.074903
C36	C	1.053041	0.604530	0.425097
C37	C	0.631988	0.105794	-0.074903
C38	C	1.131988	0.605794	0.425097
C39	C	0.632011	0.105774	0.074994
C40	C	1.132011	0.605774	0.574994
C41	C	0.553069	0.104512	0.074999
C42	C	1.053069	0.604512	0.574999
C43	C	0.513589	0.103885	0.000048
C44	C	1.013589	0.603885	0.500048
C45	C	0.427989	0.102521	0.000053
C46	C	0.927989	0.602521	0.500053
C47	C	0.359762	0.101435	0.000064
C48	C	0.859762	0.601435	0.500064
C49	C	0.899656	-0.036408	0.000059
C50	C	1.399656	0.463592	0.500059
C51	C	0.898318	-0.120426	0.000063
C52	C	1.398318	0.379574	0.500063
C53	C	1.032261	0.096205	0.000069
C54	C	1.532261	0.596205	0.500069
C55	C	1.116278	0.097547	0.000079
C56	C	1.616278	0.597547	0.500079
C57	C	0.888095	0.240364	0.000060
C58	C	1.388095	0.740364	0.500060
C59	C	0.889433	0.324382	0.000061
C60	C	1.389433	0.824382	0.500061
N61	N	0.893865	0.102008	-0.195608
N62	N	1.393865	0.602008	0.304392
C63	C	0.890069	0.363840	0.075009
C64	C	1.390069	0.863840	0.575009
C65	C	0.891336	0.442783	0.075010
C66	C	1.391336	0.942783	0.575010
C67	C	0.891962	0.482267	0.000062
C68	C	1.391962	0.982267	0.500062
C69	C	0.891328	0.442804	-0.074892
C70	C	1.391328	0.942804	0.425108
C71	C	0.890067	0.363862	-0.074892
C72	C	1.390067	0.863862	0.425108
C73	C	0.896418	0.761168	-0.074893
C74	C	1.396418	1.261168	0.425107
C75	C	0.897677	0.840116	-0.074887
C76	C	1.397677	1.340116	0.425113
C77	C	0.897686	0.840089	0.075010
C78	C	1.397686	1.340089	0.575010
C79	C	0.896425	0.761147	0.075010
C80	C	1.396425	1.261147	0.575010
C81	C	0.895796	0.721690	0.000056
C82	C	1.395796	1.221690	0.500056
C83	C	0.894423	0.636091	0.000056
C84	C	1.394423	1.136091	0.500056
C85	C	0.893329	0.567865	0.000062
C86	C	1.393329	1.067865	0.500062
C87	C	0.848075	0.056100	-0.761001
C88	C	1.348075	0.556100	-0.261001
C89	C	0.848073	0.056105	-0.674454
C90	C	1.348073	0.556105	-0.174454
C91	C	0.893885	0.101959	-0.631183
C92	C	1.393885	0.601959	-0.131183
C93	C	0.939708	0.147804	-0.674464
C94	C	1.439708	0.647804	-0.174464
C95	C	0.939713	0.147794	-0.761009
C96	C	1.439713	0.647794	-0.261009
C97	C	0.939689	0.147847	-0.325436
C98	C	1.439689	0.647847	0.174564
C99	C	0.939679	0.147856	-0.238884
C100	C	1.439679	0.647856	0.261116
C101	C	0.848049	0.056159	-0.238880
C102	C	1.348049	0.556159	0.261120
C103	C	0.848054	0.056148	-0.325426
C104	C	1.348054	0.556148	0.174574
C105	C	0.893880	0.101990	-0.368699
C106	C	1.393880	0.601990	0.131301
C107	C	0.893882	0.101982	-0.462543
C108	C	1.393882	0.601982	0.037457
C109	C	0.893880	0.101972	-0.537341
C110	C	1.393880	0.601972	-0.037341
N111	N	0.893892	0.101943	0.195724
N112	N	1.393892	0.601943	0.695724
H113	H	0.266812	0.099959	-0.135908
H114	H	0.766812	0.599959	0.364092
H115	H	0.664114	0.106315	-0.135940
H116	H	1.164114	0.606315	0.364060
C117	C	0.889365	0.320459	-0.157342
C118	C	1.389365	0.820459	0.342658
N119	N	0.888838	0.287769	-0.219445
N120	N	1.388838	0.787769	0.280555
C121	C	0.509668	0.103802	0.157451
C122	C	1.009668	0.603802	0.657451
N123	N	0.476980	0.103262	0.219555
N124	N	0.976980	0.603262	0.719555
H125	H	0.123637	0.097652	0.136059
H126	H	0.623637	0.597652	0.636059
H127	H	0.123589	0.097683	-0.135905
H128	H	0.623589	0.597683	0.364095
H129	H	0.889552	0.331699	0.136041
H130	H	1.389552	0.831699	0.636041
C131	C	0.797676	0.005656	-0.808591
C132	C	1.297676	0.505656	-0.308591
N133	N	0.759717	-0.032341	-0.844434
N134	N	1.259717	0.467659	-0.344434
H135	H	0.977002	0.185175	-0.360658
H136	H	1.477002	0.685175	0.139342
C137	C	0.892034	0.486183	0.157460
C138	C	1.392034	0.986183	0.657460
N139	N	0.892561	0.518871	0.219565
N140	N	1.392561	1.018871	0.719565
H141	H	0.520908	0.104008	-0.135933
H142	H	1.020908	0.604008	0.364067
C143	C	0.797656	0.005707	-0.373019
C144	C	1.297656	0.505707	0.126981
N145	N	0.759697	-0.032288	-0.408865
N146	N	1.259697	0.467712	0.091135
H147	H	0.810739	0.018830	-0.203637
H148	H	1.310739	0.518830	0.296363
H149	H	0.976987	0.185197	-0.203655
H150	H	1.476987	0.685197	0.296345
C151	C	0.892014	0.486240	-0.157336
C152	C	1.392014	0.986240	0.342664
N153	N	0.892525	0.518956	-0.219435
N154	N	1.392525	1.018956	0.280565
C155	C	0.898371	0.883546	-0.157340
C156	C	1.398371	1.383546	0.342660
N157	N	0.898895	0.916258	-0.219440
N158	N	1.398895	1.416258	0.280560
H159	H	0.895911	0.729003	0.136040
H160	H	1.395911	1.229003	0.636040
C161	C	0.990108	0.198238	-0.626863
C162	C	1.490108	0.698238	-0.126863
N163	N	1.028070	0.236225	-0.591010
N164	N	1.528070	0.736225	-0.091010
H165	H	0.898201	0.872224	0.136041
H166	H	1.398201	1.372224	0.636041
H167	H	0.895906	0.729051	-0.135925
H168	H	1.395906	1.229051	0.364075
C169	C	0.990112	0.198228	-0.808611
C170	C	1.490112	0.698228	-0.308611
N171	N	1.028075	0.236216	-0.844463
N172	N	1.528075	0.736216	-0.344463
C173	C	0.797667	0.005678	-0.626856
C174	C	1.297667	0.505678	-0.126856
N175	N	0.759699	-0.032306	-0.591006
N176	N	1.259699	0.467694	-0.091006
H177	H	0.664165	0.106281	0.136023
H178	H	1.164165	0.606281	0.636023
C179	C	0.278133	0.100097	0.157468
C180	C	0.778133	0.600097	0.657468
N181	N	0.310843	0.100600	0.219570
N182	N	0.810843	0.600600	0.719570
