data_functionalizedCrystal
_audit_creation_method	'MofGen! by Chris Wilmer'
_symmetry_space_group_name_H-M	'P1'
_symmetry_Int_Tables_number	1
_symmetry_cell_setting	triclinic
loop_
_symmetry_equiv_pos_as_xyz
  x,y,z
_cell_length_a	17.699083
_cell_length_b	17.699083
_cell_length_c	16.776229
_cell_angle_alpha	89.992455
_cell_angle_beta	89.998886
_cell_angle_gamma	83.283015
loop_
_atom_site_label
_atom_site_type_symbol
_atom_site_fract_x
_atom_site_fract_y
_atom_site_fract_z
O1	O	1.004078	0.095713	-0.066178
O2	O	0.783700	0.108165	-0.066204
O3	O	0.900116	-0.008250	-0.066183
O4	O	0.887663	0.212128	-0.066199
O5	O	0.900100	-0.008257	0.066393
O6	O	0.783685	0.108158	0.066372
O7	O	1.004063	0.095706	0.066398
Zn8	Zn	0.893871	0.101931	0.087435
Zn9	Zn	0.893892	0.101940	-0.087241
O10	O	0.887648	0.212121	0.066378
C11	C	0.755495	0.107716	0.000081
C12	C	0.671477	0.106377	0.000071
C13	C	0.622856	0.174710	0.000066
C14	C	0.543913	0.173448	0.000077
C15	C	0.513592	0.103852	0.000086
C16	C	0.562219	0.035513	0.000093
C17	C	0.641161	0.036776	0.000088
C18	C	0.243856	0.030418	0.000113
C19	C	0.164908	0.029160	0.000115
C20	C	0.146608	0.167090	0.000101
C21	C	0.225550	0.168353	0.000097
C22	C	0.274170	0.100015	0.000108
C23	C	0.359769	0.101384	0.000098
C24	C	0.427995	0.102481	0.000090
C25	C	0.899662	-0.036451	0.000105
C26	C	0.898323	-0.120469	0.000105
C27	C	0.966656	-0.169090	0.000114
C28	C	0.965394	-0.248033	0.000107
C29	C	0.895798	-0.278354	0.000096
C30	C	0.827459	-0.229727	0.000085
C31	C	0.828722	-0.150785	0.000086
C32	C	0.822364	-0.548090	0.000078
C33	C	0.821106	-0.627038	0.000078
C34	C	0.959036	-0.645338	0.000099
C35	C	0.960299	-0.566396	0.000100
C36	C	0.891961	-0.517776	0.000084
C37	C	0.893330	-0.432177	0.000090
C38	C	0.894427	-0.363951	0.000096
C39	C	1.032268	0.096156	0.000112
C40	C	1.116286	0.097494	0.000116
C41	C	0.888102	0.240322	0.000087
C42	C	0.889440	0.324340	0.000082
N43	N	0.893863	0.101924	0.206646
N44	N	0.893906	0.101941	-0.206452
C45	C	0.945428	0.050396	0.248372
C46	C	0.945432	0.050396	0.331824
C47	C	0.893875	0.101927	0.373549
C48	C	0.842305	0.153457	0.331817
C49	C	0.842297	0.153454	0.248366
C50	C	0.842332	0.153472	0.668364
C51	C	0.842345	0.153473	0.751820
C52	C	0.945466	0.050414	0.751822
C53	C	0.945459	0.050411	0.668372
C54	C	0.893887	0.101938	0.626647
C55	C	0.893882	0.101937	0.536158
C56	C	0.893882	0.101932	0.464036
H57	H	0.250232	0.225025	0.000085
H58	H	1.014680	-0.684934	0.000107
H59	H	0.800308	0.195412	0.214393
H60	H	0.107012	0.222734	0.000097
C61	C	0.491250	0.247722	0.000030
C62	C	0.534700	0.308941	-0.000005
C63	C	0.486213	0.377376	-0.000057
H64	H	0.460061	0.250205	0.046253
H65	H	0.460081	0.250138	-0.046218
H66	H	0.565856	0.306525	0.046238
H67	H	0.565887	0.306483	-0.046224
H68	H	0.455045	0.379793	-0.046304
H69	H	0.455027	0.379851	0.046167
H70	H	0.515687	0.418921	-0.000088
H71	H	0.537526	-0.021154	0.000112
C72	C	1.001536	-0.005576	0.796981
C73	C	1.046698	-0.050690	0.742578
C74	C	1.098362	-0.102268	0.784146
H75	H	0.974460	-0.037122	0.829544
H76	H	1.033034	0.021590	0.829513
H77	H	1.015204	-0.077854	0.710060
H78	H	1.073790	-0.019166	0.710013
H79	H	1.129861	-0.075102	0.816678
H80	H	1.071280	-0.133808	0.816707
H81	H	1.129016	-0.132879	0.747240
H82	H	0.770792	-0.254420	0.000071
H83	H	1.023330	-0.144409	0.000128
C84	C	0.786274	0.209453	0.796979
C85	C	0.741092	0.254563	0.742578
C86	C	0.689429	0.306129	0.784149
H87	H	0.813351	0.241002	0.829526
H88	H	0.754789	0.182279	0.829526
H89	H	0.772573	0.281735	0.710045
H90	H	0.713999	0.223035	0.710029
H91	H	0.657944	0.278955	0.816696
H92	H	0.716511	0.337673	0.816695
H93	H	0.658762	0.336738	0.747244
C94	C	1.001440	-0.005638	0.203219
C95	C	1.046584	-0.050778	0.257628
C96	C	1.098183	-0.102415	0.216065
H97	H	1.032963	0.021458	0.170653
H98	H	0.974290	-0.037155	0.170692
H99	H	1.073731	-0.019266	0.290141
H100	H	1.015081	-0.077891	0.290196
H101	H	1.071033	-0.133931	0.183538
H102	H	1.129701	-0.075313	0.183500
H103	H	1.128814	-0.133053	0.252974
C104	C	0.748230	-0.495216	0.000190
C105	C	0.744925	-0.449353	0.068385
C106	C	0.676646	-0.400625	0.068510
H107	H	0.706537	-0.524484	0.000227
H108	H	0.745856	-0.463993	-0.046020
H109	H	0.747291	-0.480573	0.114583
H110	H	0.786601	-0.420069	0.068362
H111	H	0.674272	-0.369401	0.022300
H112	H	0.634959	-0.429899	0.068545
H113	H	0.674397	-0.369496	0.114775
C114	C	0.745462	-0.659812	0.000019
C115	C	0.685884	-0.600337	-0.000019
C116	C	0.616195	-0.630500	-0.000084
H117	H	0.741985	-0.690220	0.046238
H118	H	0.742075	-0.690201	-0.046233
H119	H	0.689269	-0.569960	0.046228
H120	H	0.689335	-0.569924	-0.046234
H121	H	0.612808	-0.660890	-0.046336
H122	H	0.612726	-0.660908	0.046136
H123	H	0.575763	-0.590152	-0.000117
C124	C	0.693827	-0.037497	0.000048
C125	C	0.650379	-0.098718	0.000034
C126	C	0.698868	-0.167152	-0.000011
H127	H	0.725022	-0.039982	0.046266
H128	H	0.724990	-0.039910	-0.046205
H129	H	0.619230	-0.096306	0.046282
H130	H	0.619186	-0.096258	-0.046181
H131	H	0.730031	-0.169564	-0.046264
H132	H	0.730061	-0.169629	0.046208
H133	H	0.669396	-0.208698	-0.000028
C134	C	0.132134	-0.046484	0.000171
C135	C	0.191609	-0.106062	0.000203
C136	C	0.161446	-0.175751	0.000264
H137	H	0.101731	-0.049952	-0.046047
H138	H	0.101740	-0.049880	0.046424
H139	H	0.221990	-0.102668	-0.046044
H140	H	0.222017	-0.102620	0.046418
H141	H	0.131052	-0.179147	0.046516
H142	H	0.131043	-0.179211	-0.045955
H143	H	0.201794	-0.216183	0.000293
H144	H	0.283434	-0.025228	0.000123
H145	H	1.021038	-0.287618	0.000116
H146	H	1.016971	-0.541714	0.000113
H147	H	0.987419	0.008438	0.365798
H148	H	0.773078	-0.111198	0.000078
C149	C	1.001247	-0.005707	0.623048
C150	C	0.960911	-0.051963	0.575232
C151	C	1.012246	-0.103722	0.533497
H152	H	1.031910	-0.036462	0.659823
H153	H	1.032763	0.021321	0.590383
H154	H	0.929408	-0.078988	0.607894
H155	H	0.930251	-0.021228	0.538442
H156	H	1.043761	-0.076695	0.500832
H157	H	1.042906	-0.134472	0.570278
H158	H	0.984885	-0.135108	0.501044
H159	H	0.800322	0.195412	0.365793
C160	C	0.786471	0.209464	0.622973
C161	C	0.826697	0.255732	0.575038
C162	C	0.775263	0.307321	0.533203
H163	H	0.755753	0.240228	0.659689
H164	H	0.755018	0.182305	0.590380
H165	H	0.858137	0.282888	0.607628
H166	H	0.857412	0.224989	0.538307
H167	H	0.743810	0.280162	0.500611
H168	H	0.744548	0.338079	0.569925
H169	H	0.802549	0.338714	0.500670
H170	H	0.647537	0.231384	0.000058
