data_functionalizedCrystal
_audit_creation_method	'MofGen! by Chris Wilmer'
_symmetry_space_group_name_H-M	'P1'
_symmetry_Int_Tables_number	1
_symmetry_cell_setting	triclinic
loop_
_symmetry_equiv_pos_as_xyz
  x,y,z
_cell_length_a	18.215407
_cell_length_b	18.215404
_cell_length_c	18.215399
_cell_angle_alpha	89.970747
_cell_angle_beta	90.014360
_cell_angle_gamma	89.979339
loop_
_atom_site_label
_atom_site_type_symbol
_atom_site_fract_x
_atom_site_fract_y
_atom_site_fract_z
Zn1	Zn	1.125059	0.293025	0.416073
Zn2	Zn	1.625059	0.793025	0.916073
Zn3	Zn	1.124977	0.416101	0.293009
Zn4	Zn	1.624977	0.916101	0.793009
Zn5	Zn	1.001998	0.293047	0.293026
Zn6	Zn	1.501998	0.793047	0.793026
Zn7	Zn	1.001961	0.416048	0.416039
Zn8	Zn	1.501961	0.916048	0.916039
O9	O	1.063498	0.354555	0.354537
O10	O	1.563498	0.854555	0.854537
O11	O	1.228032	0.309363	0.399756
O12	O	1.728032	0.809363	0.899756
O13	O	1.108645	0.399809	0.190027
O14	O	1.608645	0.899809	0.690027
O15	O	1.018372	0.190060	0.309369
O16	O	1.518372	0.690060	0.809369
O17	O	1.227972	0.399787	0.309341
O18	O	1.727972	0.899787	0.809341
O19	O	1.108784	0.190043	0.399772
O20	O	1.608784	0.690043	0.899772
O21	O	1.018292	0.309402	0.190039
O22	O	1.518292	0.809402	0.690039
O23	O	0.899008	0.309351	0.309337
O24	O	1.399008	0.809351	0.809337
O25	O	1.018308	0.399697	0.519028
O26	O	1.518308	0.899697	1.019028
O27	O	0.898981	0.399720	0.399714
O28	O	1.398981	0.899720	0.899714
O29	O	1.108748	0.309312	0.519053
O30	O	1.608748	0.809312	1.019053
O31	O	1.108609	0.519078	0.309308
O32	O	1.608609	1.019078	0.809308
O33	O	1.018229	0.519040	0.399698
O34	O	1.518229	1.019040	0.899698
C35	C	0.872292	0.354533	0.354524
C36	C	1.372292	0.854533	0.854524
C37	C	0.790493	0.354541	0.354536
C38	C	1.290493	0.854541	0.854536
C39	C	1.063426	0.545762	0.354514
C40	C	1.563426	1.045762	0.854514
C41	C	1.063463	0.627560	0.354529
C42	C	1.563463	1.127560	0.854529
C43	C	0.602330	0.307554	0.401689
C44	C	1.102330	0.807554	0.901689
C45	C	0.525471	0.307560	0.401692
C46	C	1.025471	0.807560	0.901692
C47	C	0.525419	0.401577	0.307398
C48	C	1.025419	0.901577	0.807398
C49	C	0.602277	0.401567	0.307392
C50	C	1.102277	0.901567	0.807392
C51	C	0.640730	0.354556	0.354542
C52	C	1.140730	0.854556	0.854542
C53	C	0.487014	0.354573	0.354550
C54	C	0.987014	0.854573	0.854550
C55	C	0.403680	0.354580	0.354552
C56	C	0.903680	0.854580	0.854552
C57	C	0.724069	0.354548	0.354539
C58	C	1.224069	0.854548	0.854539
C59	C	1.110664	0.892614	0.307574
C60	C	1.610664	1.392614	0.807574
C61	C	1.110633	0.815755	0.307554
C62	C	1.610633	1.315755	0.807554
C63	C	1.016434	0.815756	0.401595
C64	C	1.516434	1.315756	0.901595
C65	C	1.016462	0.892613	0.401611
C66	C	1.516462	1.392613	0.901611
C67	C	1.063581	0.931040	0.354601
C68	C	1.563581	1.431040	0.854601
C69	C	1.063522	0.777324	0.354565
C70	C	1.563522	1.277324	0.854565
C71	C	1.063488	0.693990	0.354543
C72	C	1.563488	1.193990	0.854543
C73	C	1.063615	1.014379	0.354622
C74	C	1.563615	1.514379	0.854622
C75	C	1.255451	0.354579	0.354550
C76	C	1.755451	0.854579	0.854550
C77	C	1.337250	0.354588	0.354556
C78	C	1.837250	0.854588	0.854556
C79	C	1.063533	0.354497	0.546490
C80	C	1.563533	0.854497	1.046490
C81	C	1.063548	0.354471	0.628289
C82	C	1.563548	0.854471	1.128289
C83	C	1.063594	1.162602	0.354587
C84	C	1.563594	1.662602	0.854587
C85	C	1.063641	1.080803	0.354638
C86	C	1.563641	1.580803	0.854638
C87	C	1.063506	0.354561	0.163331
C88	C	1.563506	0.854561	0.663331
C89	C	1.063634	0.354379	0.081532
C90	C	1.563634	0.854379	0.581532
C91	C	1.016541	0.307365	0.816490
C92	C	1.516541	0.807365	1.316490
C93	C	1.016554	0.307350	0.893349
C94	C	1.516554	0.807350	1.393349
C95	C	1.110643	0.401490	0.893325
C96	C	1.610643	0.901490	1.393325
C97	C	1.110626	0.401508	0.816468
C98	C	1.610626	0.901508	1.316468
C99	C	1.063576	0.354441	0.778052
C100	C	1.563576	0.854441	1.278052
C101	C	1.063606	0.354409	0.931769
C102	C	1.563606	0.854409	1.431769
C103	C	1.063620	0.354393	1.015102
C104	C	1.563620	0.854393	1.515102
C105	C	1.063561	0.354458	0.694713
C106	C	1.563561	0.854458	1.194713
H107	H	0.494209	0.269285	0.440082
H108	H	0.994209	0.769285	0.940082
H109	H	1.148949	0.439810	0.924613
H110	H	1.648949	0.939810	1.424613
C111	C	1.162484	0.934885	0.255860
C112	C	1.662484	1.434885	0.755860
H113	H	1.155763	0.986162	0.262608
H114	H	1.655763	1.486162	0.762608
H115	H	1.151741	0.922331	0.206402
H116	H	1.651741	1.422331	0.706402
H117	H	1.211922	0.922245	0.266677
H118	H	1.711922	1.422245	0.766677
H119	H	0.978119	0.923901	0.439907
H120	H	1.478119	1.423901	0.939907
H121	H	1.148929	0.439847	0.785171
H122	H	1.648929	0.939847	1.285171
H123	H	0.633543	0.439842	0.268995
H124	H	1.133543	0.939842	0.768995
H125	H	0.978253	0.269016	0.924641
H126	H	1.478253	0.769016	1.424641
C127	C	0.483119	0.453291	0.255544
C128	C	0.983119	0.953291	0.755544
H129	H	0.431845	0.446572	0.262304
H130	H	0.931845	0.946572	0.762304
H131	H	0.495699	0.442463	0.206114
H132	H	0.995699	0.942463	0.706114
H133	H	0.495709	0.502751	0.266235
H134	H	0.995709	1.002751	0.766235
H135	H	1.148971	0.784470	0.269259
H136	H	1.648971	1.284470	0.769259
C137	C	0.644626	0.255839	0.453546
C138	C	1.144626	0.755839	0.953546
H139	H	0.610745	0.227843	0.481620
H140	H	1.110745	0.727843	0.981620
H141	H	0.674613	0.284022	0.485562
H142	H	1.174613	0.784022	0.985562
H143	H	0.674604	0.223733	0.425441
H144	H	1.174604	0.723733	0.925441
C145	C	0.964615	0.773484	0.453307
C146	C	1.464615	1.273484	0.953307
H147	H	0.971346	0.722206	0.446569
H148	H	1.471346	1.222206	0.946569
H149	H	0.915179	0.786121	0.442496
H150	H	1.415179	1.286121	0.942496
H151	H	0.975363	0.786038	0.502769
H152	H	1.475363	1.286038	1.002769
H153	H	0.978230	0.269040	0.785214
H154	H	1.478230	0.769040	1.285214
