data_functionalizedCrystal
_audit_creation_method	'MofGen! by Chris Wilmer'
_symmetry_space_group_name_H-M	'P1'
_symmetry_Int_Tables_number	1
_symmetry_cell_setting	triclinic
loop_
_symmetry_equiv_pos_as_xyz
  x,y,z
_cell_length_a	15.297475
_cell_length_b	21.295417
_cell_length_c	15.296720
_cell_angle_alpha	99.638166
_cell_angle_beta	91.617114
_cell_angle_gamma	80.332118
loop_
_atom_site_label
_atom_site_type_symbol
_atom_site_fract_x
_atom_site_fract_y
_atom_site_fract_z
Zn1	Zn	1.253315	-0.489896	-0.726513
Zn2	Zn	1.278561	-0.580536	-0.580012
Zn3	Zn	1.132199	-0.454534	-0.554760
Zn4	Zn	1.106789	-0.574348	-0.701142
O5	O	1.192716	-0.524829	-0.640607
O6	O	1.379239	-0.519309	-0.728265
O7	O	1.280346	-0.551612	-0.454090
O8	O	1.148333	-0.371150	-0.577592
O9	O	1.397787	-0.585901	-0.620632
O10	O	1.237317	-0.397130	-0.703779
O11	O	1.172814	-0.459039	-0.435537
O12	O	1.006253	-0.453039	-0.552991
O13	O	1.105026	-0.575355	-0.827080
O14	O	0.987585	-0.541066	-0.660538
O15	O	1.212678	-0.513309	-0.845720
O16	O	1.255707	-0.667790	-0.596031
O17	O	1.129506	-0.663244	-0.685025
C18	C	0.965136	-0.492545	-0.601272
C19	C	0.867773	-0.478750	-0.584465
C20	C	1.192609	-0.688359	-0.640538
C21	C	1.192639	-0.758333	-0.640552
C22	C	0.554602	-0.623422	-0.760730
C23	C	0.646080	-0.636386	-0.776518
C24	C	0.701507	-0.596978	-0.728507
C25	C	0.665449	-0.544604	-0.664703
C26	C	0.573963	-0.531641	-0.648908
C27	C	0.720868	-0.505198	-0.616685
C28	C	0.684809	-0.452823	-0.552882
C29	C	0.593332	-0.439862	-0.537090
C30	C	0.537904	-0.479270	-0.585102
C31	C	0.812354	-0.518160	-0.632480
C32	C	0.831715	-0.426380	-0.520659
C33	C	0.740237	-0.413415	-0.504870
C34	C	1.258392	-0.793558	-0.594279
C35	C	1.258429	-0.859308	-0.594306
C36	C	1.192700	-0.889827	-0.640594
C37	C	1.126942	-0.854594	-0.686877
C38	C	1.126911	-0.788847	-0.686856
N39	N	1.114918	-0.982893	-0.634027
N40	N	1.114951	-1.045351	-0.634042
C41	C	1.192790	-1.087921	-0.640661
N42	N	1.270600	-1.065673	-0.647247
N43	N	1.270567	-1.003210	-0.647228
C44	C	1.192726	-0.961119	-0.640622
C45	C	1.258588	-1.194441	-0.594415
C46	C	1.258626	-1.260193	-0.594448
C47	C	1.127132	-1.255477	-0.687013
C48	C	1.127101	-1.189727	-0.686986
C49	C	1.192829	-1.159213	-0.640682
C50	C	1.421184	-0.557239	-0.680096
C51	C	1.518543	-0.571051	-0.696923
C52	C	1.153201	-0.547586	-0.869070
C53	C	1.136362	-0.557284	-0.966428
C54	C	1.192843	-0.360665	-0.640699
C55	C	1.192898	-0.290708	-0.640738
C56	C	1.313098	-0.455410	-1.279682
C57	C	1.328925	-0.446300	-1.188211
C58	C	1.280785	-0.474045	-1.132761
C59	C	1.216817	-0.510902	-1.168791
C60	C	1.200994	-0.520017	-1.260272
C61	C	1.168681	-0.538652	-1.113350
C62	C	1.104713	-0.575509	-1.149380
C63	C	1.088892	-0.584622	-1.240852
C64	C	1.137031	-0.556877	-1.296302
C65	C	1.184504	-0.529537	-1.021869
C66	C	1.072400	-0.594144	-1.002458
C67	C	1.056573	-0.603254	-1.093930
C68	C	1.232127	-0.502121	-0.413041
C69	C	1.249136	-0.492270	-0.315713
H70	H	0.841704	-0.560804	-0.684430
O71	O	1.296001	-0.465194	-1.043879
C72	C	1.217366	-0.434067	-0.998795
H73	H	1.157777	-0.442889	-1.042784
H74	H	1.218373	-0.379967	-0.982236
C75	C	1.283790	-0.450392	-0.858468
C76	C	1.210602	-0.461232	-0.912493
H77	H	1.279619	-0.467146	-0.805230
H78	H	1.336769	-0.471360	-0.888841
H79	H	1.284621	-0.405308	-0.844678
H80	H	1.209778	-0.506315	-0.926291
H81	H	1.157622	-0.440271	-0.882120
O82	O	0.790344	-0.609642	-0.743982
C83	C	0.810288	-0.664328	-0.810576
H84	H	0.748727	-0.670831	-0.852626
H85	H	0.832518	-0.709011	-0.778518
C86	C	0.960816	-0.646933	-0.818176
C87	C	0.885207	-0.654916	-0.869827
H88	H	1.007032	-0.641130	-0.854723
H89	H	0.947381	-0.610091	-0.773308
H90	H	0.979329	-0.684170	-0.791464
H91	H	0.866689	-0.617676	-0.896528
H92	H	0.898641	-0.691752	-0.914701
O93	O	0.994560	-0.639148	-1.128995
C94	C	1.035243	-0.692135	-1.190522
H95	H	1.108995	-0.703065	-1.174874
H96	H	1.026288	-0.680008	-1.260382
C97	C	0.901569	-0.738209	-1.203718
C98	C	0.992152	-0.751637	-1.184494
H99	H	0.874987	-0.774912	-1.200004
H100	H	0.874159	-0.702510	-1.162269
H101	H	0.894119	-0.728102	-1.261934
H102	H	0.999601	-0.761736	-1.126276
H103	H	1.019563	-0.787339	-1.225934
H104	H	1.381010	-0.416293	-1.158883
O105	O	1.359753	-0.428488	-1.333667
C106	C	1.332089	-0.444455	-1.422133
H107	H	1.262311	-0.456718	-1.422927
H108	H	1.379524	-0.487934	-1.457046
C109	C	1.417753	-0.371538	-1.469562
C110	C	1.332048	-0.386594	-1.470536
H111	H	1.417731	-0.335848	-1.499421
H112	H	1.436394	-0.360782	-1.409961
H113	H	1.457273	-0.407775	-1.498654
H114	H	1.292532	-0.350360	-1.441434
H115	H	1.313400	-0.397342	-1.530133
O116	O	1.246730	-0.493830	-0.986848
C117	C	1.312419	-0.532407	-0.943668
H118	H	1.313030	-0.585493	-0.972137
H119	H	1.297323	-0.523824	-0.869658
C120	C	1.402991	-0.449230	-0.923052
C121	C	1.403747	-0.514431	-0.958024
H122	H	1.459326	-0.438141	-0.931903
H123	H	1.358734	-0.423239	-0.952140
H124	H	1.390407	-0.442086	-0.861380
H125	H	1.416319	-0.521573	-1.019697
H126	H	1.448008	-0.540424	-0.928946
O127	O	1.121664	-0.565843	-1.385161
C128	C	1.138848	-0.632397	-1.419587
H129	H	1.132972	-0.661279	-1.364268
H130	H	1.208719	-0.645657	-1.448377
C131	C	1.078390	-0.612698	-1.560969
C132	C	1.071165	-0.648172	-1.493027
H133	H	1.036643	-0.622429	-1.606274
H134	H	1.066815	-0.567859	-1.537778
H135	H	1.136619	-0.623751	-1.584951
H136	H	1.012941	-0.637112	-1.469039
H137	H	1.082728	-0.693010	-1.516216
H138	H	0.675432	-0.679031	-0.828465
H139	H	1.033202	-0.616738	-0.957311
O140	O	0.500631	-0.661617	-0.807308
C141	C	0.412161	-0.638956	-0.779665
H142	H	0.404631	-0.585731	-0.748954
H143	H	0.394259	-0.667900	-0.728431
C144	C	0.359121	-0.712371	-0.897881
C145	C	0.349872	-0.646998	-0.860168
H146	H	0.320697	-0.717334	-0.947537
H147	H	0.418726	-0.727641	-0.916503
H148	H	0.344205	-0.736484	-0.855178
H149	H	0.364799	-0.622887	-0.902868
H150	H	0.290269	-0.631724	-0.841555
H151	H	0.563978	-0.397221	-0.485129
O152	O	0.705183	-0.362618	-0.442788
C153	C	0.662016	-0.385247	-0.376996
H154	H	0.690516	-0.438170	-0.376211
H155	H	0.588006	-0.380323	-0.392108
C156	C	0.641334	-0.280129	-0.286740
C157	C	0.676344	-0.345128	-0.285770
H158	H	0.650168	-0.255380	-0.230467
H159	H	0.670413	-0.264882	-0.331066
H160	H	0.579661	-0.276034	-0.299337
H161	H	0.738017	-0.349222	-0.273184
H162	H	0.647275	-0.360374	-0.241439
H163	H	0.876845	-0.394291	-0.481562
O164	O	1.063200	-1.155415	-0.731798
C165	C	1.015270	-1.104459	-0.672094
H166	H	1.057690	-1.092392	-0.611086
H167	H	0.952050	-1.119674	-0.651207
C168	C	0.938908	-1.059363	-0.792434
C169	C	0.991012	-1.044539	-0.717506
H170	H	0.923941	-1.022403	-0.820447
H171	H	0.971197	-1.093695	-0.832658
H172	H	0.886231	-1.072044	-0.775018
H173	H	1.043692	-1.031867	-0.734925
H174	H	0.958731	-1.010204	-0.677286
H175	H	0.463414	-0.468716	-0.572252
O176	O	1.322332	-0.764026	-0.549298
C177	C	1.380364	-0.809218	-0.508446
H178	H	1.377178	-0.860071	-0.544856
H179	H	1.359858	-0.805081	-0.436362
C180	C	1.479673	-0.733021	-0.467289
C181	C	1.475766	-0.795479	-0.512014
H182	H	1.538521	-0.724545	-0.469486
H183	H	1.440575	-0.702573	-0.494809
H184	H	1.462580	-0.729581	-0.407223
H185	H	1.492848	-0.798916	-0.572081
H186	H	1.514870	-0.825928	-0.484504
O187	O	1.322356	-0.893592	-0.549479
C188	C	1.370268	-0.944580	-0.609150
H189	H	1.363722	-0.932377	-0.679064
H190	H	1.342663	-0.990874	-0.607489
C191	C	1.476778	-0.969213	-0.496263
C192	C	1.468744	-0.954222	-0.582132
H193	H	1.537522	-0.975164	-0.479596
H194	H	1.444497	-0.934863	-0.456060
H195	H	1.453768	-1.007790	-0.494890
H196	H	1.491743	-0.915642	-0.583500
H197	H	1.501031	-0.988566	-0.622335
O198	O	1.063397	-1.285205	-0.732045
C199	C	1.103448	-1.335877	-0.797299
H200	H	1.175191	-1.352039	-0.777940
H201	H	1.101782	-1.318331	-0.863862
C202	C	0.964418	-1.373246	-0.828593
C203	C	1.052532	-1.393100	-0.804811
H204	H	0.933010	-1.408543	-0.833231
H205	H	0.937434	-1.339106	-0.784633
H206	H	0.963042	-1.358624	-0.884060
H207	H	1.053908	-1.407714	-0.749341
H208	H	1.079516	-1.427244	-0.848763
H209	H	1.073426	-0.879448	-0.724567
H210	H	1.073367	-0.760165	-0.724538
H211	H	1.312110	-1.169596	-0.556715
H212	H	1.312175	-1.288874	-0.556770
H213	H	1.036812	-0.614639	-1.270186
