data_functionalizedCrystal
_audit_creation_method	'MofGen! by Chris Wilmer'
_symmetry_space_group_name_H-M	'P1'
_symmetry_Int_Tables_number	1
_symmetry_cell_setting	triclinic
loop_
_symmetry_equiv_pos_as_xyz
  x,y,z
_cell_length_a	12.759401
_cell_length_b	18.050590
_cell_length_c	12.759393
_cell_angle_alpha	89.964247
_cell_angle_beta	89.981433
_cell_angle_gamma	90.017597
loop_
_atom_site_label
_atom_site_type_symbol
_atom_site_fract_x
_atom_site_fract_y
_atom_site_fract_z
Zn1	Zn	1.606227	-0.295635	-0.593953
Zn2	Zn	1.606110	-0.419845	-0.418260
Zn3	Zn	1.430529	-0.295671	-0.418292
Zn4	Zn	1.430506	-0.419785	-0.593901
O5	O	1.518343	-0.357734	-0.506101
O6	O	1.753233	-0.312121	-0.570655
O7	O	1.582779	-0.403413	-0.271243
O8	O	1.453895	-0.191742	-0.441629
O9	O	1.753146	-0.403378	-0.441574
O10	O	1.582979	-0.191715	-0.570686
O11	O	1.453781	-0.312183	-0.271267
O12	O	1.283505	-0.312125	-0.441579
O13	O	1.453855	-0.403276	-0.740929
O14	O	1.283488	-0.403312	-0.570598
O15	O	1.582957	-0.312063	-0.740967
O16	O	1.582757	-0.523761	-0.441524
O17	O	1.453741	-0.523718	-0.570567
C18	C	1.245376	-0.357716	-0.506087
C19	C	1.128599	-0.357727	-0.506106
C20	C	1.073775	-0.310299	-0.573422
C21	C	0.964051	-0.310313	-0.573429
C22	C	0.963985	-0.405189	-0.438799
C23	C	1.073707	-0.405171	-0.438788
C24	C	1.073812	-0.255525	-0.651152
C25	C	0.964088	-0.255540	-0.651159
C26	C	1.518262	-0.550686	-0.506060
C27	C	1.518324	-0.633232	-0.506077
C28	C	1.588628	-0.832679	-0.436001
C29	C	1.614296	-0.882003	-0.531888
C30	C	1.518384	-0.784362	-0.506119
C31	C	1.492823	-0.882120	-0.410275
C32	C	1.518443	-0.930347	-0.506151
C33	C	1.544100	-0.832599	-0.602056
C34	C	1.422583	-0.832711	-0.480379
C35	C	1.448214	-0.882013	-0.576331
C36	C	1.518352	-0.700264	-0.506099
C37	C	1.518475	-1.014444	-0.506181
C38	C	1.792376	-0.357752	-0.506117
C39	C	1.909153	-0.357760	-0.506123
C40	C	1.518417	-0.357659	-0.780135
C41	C	1.518448	-0.357627	-0.896912
C42	C	1.518453	-0.164028	-0.506167
C43	C	1.518500	-0.081482	-0.506194
C44	C	1.585680	-0.310128	-0.951795
C45	C	1.585705	-0.310101	-1.061519
C46	C	1.451263	-0.405079	-1.061467
C47	C	1.451233	-0.405101	-0.951745
C48	C	1.663303	-0.255295	-0.951826
C49	C	1.663328	-0.255269	-1.061550
C50	C	1.518330	-0.357755	-0.233134
C51	C	1.518502	-0.357578	-0.116358
H52	H	1.648052	-0.811017	-0.376766
C53	C	0.918895	-0.182592	-0.612518
C54	C	1.000800	-0.134252	-0.586903
C55	C	0.959206	-0.067047	-0.551314
H56	H	0.876982	-0.191269	-0.552205
H57	H	0.877045	-0.161110	-0.666081
H58	H	1.042632	-0.155730	-0.533344
H59	H	1.042720	-0.125555	-0.647200
H60	H	0.917356	-0.045565	-0.604878
H61	H	0.917293	-0.075731	-0.491004
H62	H	1.014771	-0.034238	-0.533939
C63	C	1.722428	-0.910843	-0.560744
C64	C	1.795627	-0.885869	-0.487058
C65	C	1.895247	-0.912426	-0.513590
H66	H	1.741234	-0.893177	-0.628325
H67	H	1.721548	-0.963472	-0.561127
H68	H	1.796510	-0.833251	-0.486685
H69	H	1.776856	-0.903533	-0.419471
H70	H	1.894367	-0.965054	-0.513974
H71	H	1.914042	-0.894757	-0.581173
H72	H	1.944923	-0.895490	-0.463594
H73	H	1.396482	-0.443777	-0.907063
H74	H	0.934342	-0.271017	-0.732493
H75	H	1.396536	-0.443729	-1.106125
C76	C	1.573126	-0.803581	-0.710095
C77	C	1.572824	-0.726021	-0.708798
C78	C	1.599575	-0.699263	-0.808297
H79	H	1.523603	-0.820788	-0.760044
H80	H	1.641015	-0.820827	-0.728513
H81	H	1.504945	-0.708782	-0.690394
H82	H	1.622348	-0.708794	-0.658871
H83	H	1.667464	-0.716509	-0.826715
H84	H	1.550049	-0.716474	-0.858238
H85	H	1.599383	-0.646636	-0.807428
H86	H	1.641540	-0.197781	-0.922076
C87	C	1.766431	-0.282765	-0.906631
C88	C	1.834777	-0.300948	-0.988535
C89	C	1.929792	-0.326246	-0.946941
H90	H	1.754055	-0.325391	-0.864720
H91	H	1.796909	-0.244955	-0.864778
H92	H	1.804306	-0.338754	-1.030370
H93	H	1.847184	-0.258332	-1.030453
H94	H	1.960269	-0.288437	-0.905088
H95	H	1.917405	-0.368871	-0.905030
H96	H	1.976179	-0.338580	-1.002506
C97	C	1.369055	-0.910868	-0.655408
C98	C	1.369313	-0.988428	-0.653965
C99	C	1.296402	-1.015037	-0.726789
H100	H	1.387311	-0.893897	-0.723494
H101	H	1.301154	-0.893284	-0.637687
H102	H	1.437199	-1.006005	-0.671693
H103	H	1.351046	-1.005418	-0.585897
H104	H	1.228501	-0.997453	-0.709067
H105	H	1.314665	-0.998061	-0.794870
H106	H	1.296561	-1.067663	-0.725813
H107	H	1.118340	-0.443784	-0.383963
C108	C	1.314591	-0.803849	-0.451072
C109	C	1.288201	-0.828882	-0.350587
C110	C	1.188733	-0.802300	-0.323537
H111	H	1.264430	-0.821458	-0.500095
H112	H	1.315187	-0.751220	-0.451846
H113	H	1.287596	-0.881500	-0.349821
H114	H	1.338335	-0.811275	-0.301542
H115	H	1.189329	-0.749671	-0.324311
H116	H	1.138581	-0.819911	-0.372566
H117	H	1.170819	-0.819276	-0.255352
H118	H	1.471179	-0.903871	-0.329209
C119	C	1.624553	-0.182333	-1.106767
C120	C	1.598830	-0.134043	-1.024877
C121	C	1.563118	-0.066849	-1.066492
H122	H	1.564264	-0.191039	-1.148647
H123	H	1.678082	-0.160796	-1.148654
H124	H	1.545305	-0.155577	-0.983007
H125	H	1.659103	-0.125316	-0.982990
H126	H	1.616647	-0.045311	-1.108379
H127	H	1.502832	-0.075562	-1.108371
H128	H	1.545670	-0.034074	-1.010937
H129	H	0.919278	-0.443817	-0.383992
H130	H	1.103585	-0.197984	-0.629505
H131	H	1.744697	-0.270674	-1.091327
H132	H	1.107876	-0.276189	-0.728388
