data_functionalizedCrystal
_audit_creation_method	'MofGen! by Chris Wilmer'
_symmetry_space_group_name_H-M	'P1'
_symmetry_Int_Tables_number	1
_symmetry_cell_setting	triclinic
loop_
_symmetry_equiv_pos_as_xyz
  x,y,z
_cell_length_a	26.809956
_cell_length_b	11.026607
_cell_length_c	11.026607
_cell_angle_alpha	71.413983
_cell_angle_beta	89.992486
_cell_angle_gamma	89.989925
loop_
_atom_site_label
_atom_site_type_symbol
_atom_site_fract_x
_atom_site_fract_y
_atom_site_fract_z
O1	O	0.041478	-1.726739	0.533608
O2	O	0.041479	-1.360160	0.472844
O3	O	0.041477	-1.513068	0.319936
O4	O	0.041481	-1.573831	0.686516
O5	O	-0.041482	-1.513037	0.319958
O6	O	-0.041480	-1.360129	0.472866
O7	O	-0.041481	-1.726709	0.533630
Zn8	Zn	-0.054652	-1.543414	0.503251
Zn9	Zn	0.054650	-1.543454	0.503223
O10	O	-0.041479	-1.573801	0.686538
C11	C	-0.000000	-1.312485	0.461645
C12	C	-0.000000	-1.170471	0.428228
N13	N	-0.129248	-1.543396	0.503272
C14	C	-0.000002	-1.501843	0.272287
C15	C	-0.000000	-1.468426	0.130273
C16	C	-0.473875	-1.611156	0.435534
C17	C	-0.682753	-1.611182	0.435521
O18	O	-0.709757	-1.668743	0.377924
N19	N	-0.708875	-1.543455	0.503196
C20	C	-0.682775	-1.475710	0.570872
O21	O	-0.709786	-1.418095	0.628423
C22	C	-0.473898	-1.475678	0.570877
C23	C	-0.447778	-1.543419	0.503208
C24	C	-0.447755	-1.678890	0.367869
C25	C	-0.395539	-1.678889	0.367879
C26	C	-0.369442	-1.611153	0.435553
C27	C	-0.395562	-1.543418	0.503217
C28	C	-0.447799	-1.407927	0.638545
C29	C	-0.395576	-1.407922	0.638537
C30	C	-0.369457	-1.475663	0.570868
C31	C	-0.317249	-1.475680	0.570901
N32	N	-0.291127	-1.543407	0.503226
C33	C	-0.317223	-1.611143	0.435552
C34	C	-0.792438	-1.475734	0.570867
C35	C	-0.844657	-1.475744	0.570868
C36	C	-0.844631	-1.611214	0.435515
C37	C	-0.792411	-1.611210	0.435522
C38	C	-0.766316	-1.543461	0.503192
C39	C	-0.207565	-1.611135	0.435578
C40	C	-0.155345	-1.611132	0.435598
C41	C	-0.155375	-1.475658	0.570945
C42	C	-0.207591	-1.475666	0.570931
C43	C	-0.233685	-1.543407	0.503238
O44	O	-0.290212	-1.418137	0.628456
O45	O	-0.290203	-1.668727	0.377987
C46	C	-0.526091	-1.611157	0.435524
C47	C	-0.552211	-1.543422	0.503189
C48	C	-0.526114	-1.475686	0.570863
C49	C	-0.604430	-1.543432	0.503190
C50	C	-0.630527	-1.611168	0.435516
C51	C	-0.604404	-1.678895	0.367841
C52	C	-0.552188	-1.678893	0.367850
C53	C	-0.552237	-1.407960	0.638538
C54	C	-0.604453	-1.407968	0.638524
C55	C	-0.630550	-1.475704	0.570850
N56	N	0.129246	-1.543480	0.503194
C57	C	-0.000000	-1.774384	0.544828
C58	C	0.000003	-1.916398	0.578245
C59	C	0.000001	-1.116821	0.520498
C60	C	0.000001	-0.970043	0.485962
C61	C	0.000000	-1.560695	0.076624
C62	C	0.000002	-1.526160	-0.070155
C63	C	0.000001	-1.585026	0.734187
C64	C	0.000003	-1.618443	0.876200
H65	H	-0.134079	-1.666300	0.380495
H66	H	0.000040	-1.723013	-0.061072
H67	H	-0.228805	-1.666295	0.380454
F68	F	-0.367745	-1.750981	0.295850
F69	F	0.000007	-1.389478	-0.152141
H70	H	-0.771195	-1.420563	0.625975
F71	F	0.000005	-1.331751	0.048283
H72	H	0.000013	-0.907314	0.381393
F73	F	-0.475522	-1.750989	0.295834
F74	F	-0.764618	-1.683308	0.363498
H75	H	0.000012	-1.107738	0.323666
F76	F	-0.872450	-1.403664	0.642909
F77	F	-0.872415	-1.683304	0.363491
F78	F	-0.000002	-0.998382	0.714928
F79	F	-0.475588	-1.335825	0.710565
F80	F	0.000003	-1.697370	0.158615
F81	F	-0.235389	-1.403583	0.642970
F82	F	-0.367807	-1.335807	0.710560
F83	F	-0.524395	-1.750992	0.295826
F84	F	-0.632187	-1.750990	0.295822
F85	F	-0.632247	-1.335871	0.710559
F86	F	-0.127593	-1.403574	0.642969
H87	H	-0.530993	-1.352799	0.693645
H88	H	-0.000001	-1.179555	0.625061
