data_functionalizedCrystal
_audit_creation_method	'MofGen! by Chris Wilmer'
_symmetry_space_group_name_H-M	'P1'
_symmetry_Int_Tables_number	1
_symmetry_cell_setting	triclinic
loop_
_symmetry_equiv_pos_as_xyz
  x,y,z
_cell_length_a	6.817900
_cell_length_b	16.417823
_cell_length_c	16.306216
_cell_angle_alpha	95.377939
_cell_angle_beta	103.467292
_cell_angle_gamma	103.385419
loop_
_atom_site_label
_atom_site_type_symbol
_atom_site_fract_x
_atom_site_fract_y
_atom_site_fract_z
V1	V	-4.025933	-0.116541	-0.263319
O2	O	-4.013959	0.004926	-0.258007
O3	O	-3.976978	-0.230432	-0.261807
O4	O	-3.977389	-0.115044	-0.378030
O5	O	-4.013545	-0.111261	-0.140979
V6	V	-4.509652	-0.101977	-0.248651
O7	O	-4.286763	-0.148488	-0.295495
O8	O	-4.699020	-0.070030	-0.216476
O9	O	-4.335400	0.011915	-0.250163
O10	O	-4.639023	-0.223444	-0.253964
O11	O	-4.639437	-0.107257	-0.370992
O12	O	-4.334989	-0.103474	-0.133940
C13	C	-3.821849	-0.258187	-0.257728
C14	C	-3.863108	-0.351297	-0.257256
C15	C	-3.956798	-0.640866	-0.178487
C16	C	-3.918004	-0.553377	-0.178916
C17	C	-3.998160	-0.577664	-0.333493
C18	C	-4.036939	-0.665150	-0.333062
C19	C	-4.016266	-0.696749	-0.255557
C20	C	-3.938692	-0.521774	-0.256417
C21	C	-3.896630	-0.426914	-0.256884
C22	C	-4.058328	-0.791615	-0.255090
C23	C	-3.822372	-0.110997	-0.405981
C24	C	-3.863962	-0.110527	-0.499759
C25	C	-4.014926	-0.108839	-0.840507
C26	C	-4.219322	-0.114396	-0.810073
C27	C	-4.176051	-0.114563	-0.712482
C28	C	-3.940033	-0.109677	-0.671458
C29	C	-3.804683	-0.026602	-0.691456
C30	C	-3.849312	-0.026086	-0.789053
C31	C	-3.928007	-0.186062	-0.814585
C32	C	-3.889434	-0.187701	-0.717272
C33	C	-3.897693	-0.110147	-0.575918
C34	C	-4.057257	-0.108363	-0.936046
C35	C	-4.153872	0.039665	-0.254241
C36	C	-4.091851	0.132774	-0.254718
C37	C	-4.153349	-0.107523	-0.105986
C38	C	-4.090997	-0.107989	-0.012206
H39	H	-4.281122	-0.174276	-0.699764
H40	H	-3.869578	-0.507880	-0.116158
H41	H	-3.776154	-0.182651	-0.833736
N42	N	-4.236893	-0.040883	-0.672068
H43	H	-4.110559	-0.002320	-0.628881
H44	H	-4.348980	-0.062863	-0.642643
H45	H	-4.085358	-0.710653	-0.395826
H46	H	-4.286353	-0.058928	-0.827484
H47	H	-3.905850	0.032328	-0.804066
H48	H	-3.939956	-0.666591	-0.115376
H49	H	-3.696430	-0.018600	-0.808259
N50	N	-4.387219	-0.193221	-0.856057
H51	H	-4.332427	-0.226098	-0.897065
H52	H	-4.513287	-0.176588	-0.888745
N53	N	-3.574582	-0.017935	-0.655163
H54	H	-3.555821	-0.067885	-0.625318
H55	H	-3.510813	0.036239	-0.612991
H56	H	-3.838665	0.031352	-0.659272
N57	N	-4.020446	-0.543581	-0.417085
H58	H	-3.986858	-0.479679	-0.405665
H59	H	-4.168560	-0.567082	-0.453637
H60	H	-4.040997	-0.248488	-0.850585
H61	H	-3.989757	-0.249117	-0.705504
H62	H	-3.720543	-0.188984	-0.689865
