data_functionalizedCrystal
_audit_creation_method	'MofGen! by Chris Wilmer'
_symmetry_space_group_name_H-M	'P1'
_symmetry_Int_Tables_number	1
_symmetry_cell_setting	triclinic
loop_
_symmetry_equiv_pos_as_xyz
  x,y,z
_cell_length_a	21.395364
_cell_length_b	21.395361
_cell_length_c	21.395355
_cell_angle_alpha	89.978489
_cell_angle_beta	89.975448
_cell_angle_gamma	90.045659
loop_
_atom_site_label
_atom_site_type_symbol
_atom_site_fract_x
_atom_site_fract_y
_atom_site_fract_z
Zn1	Zn	0.957859	-0.249261	-0.354248
Zn2	Zn	1.457859	0.250739	0.145752
Zn3	Zn	0.957762	-0.354021	-0.249466
Zn4	Zn	1.457762	0.145979	0.250534
Zn5	Zn	0.853074	-0.249289	-0.249485
Zn6	Zn	1.353074	0.250711	0.250515
Zn7	Zn	0.853043	-0.354032	-0.354206
Zn8	Zn	1.353043	0.145968	0.145794
O9	O	0.905435	-0.301651	-0.301851
O10	O	1.405435	0.198349	0.198149
O11	O	1.045524	-0.263142	-0.340358
O12	O	1.545524	0.236858	0.159642
O13	O	0.943847	-0.340135	-0.161790
O14	O	1.443847	0.159865	0.338210
O15	O	0.867028	-0.161607	-0.263408
O16	O	1.367028	0.338393	0.236592
O17	O	1.045453	-0.340108	-0.263375
O18	O	1.545453	0.159892	0.236625
O19	O	0.944013	-0.161587	-0.340378
O20	O	1.444013	0.338413	0.159622
O21	O	0.866933	-0.263188	-0.161805
O22	O	1.366933	0.236812	0.338195
O23	O	0.765392	-0.263199	-0.263367
O24	O	1.265392	0.236801	0.236633
O25	O	0.866975	-0.340127	-0.441889
O26	O	1.366975	0.159873	0.058111
O27	O	0.765370	-0.340154	-0.340305
O28	O	1.265370	0.159846	0.159695
O29	O	0.943983	-0.263152	-0.441921
O30	O	1.443983	0.236848	0.058079
O31	O	0.943817	-0.441700	-0.263333
O32	O	1.443817	0.058300	0.236667
O33	O	0.866881	-0.441709	-0.340286
O34	O	1.366881	0.058291	0.159714
C35	C	0.742647	-0.301681	-0.301834
C36	C	1.242647	0.198319	0.198166
C37	C	0.673006	-0.301709	-0.301841
C38	C	1.173006	0.198291	0.198159
C39	C	0.640352	-0.261698	-0.341988
C40	C	1.140352	0.238302	0.158012
C41	C	0.574917	-0.261682	-0.341991
C42	C	1.074917	0.238318	0.158009
C43	C	0.542137	-0.301687	-0.301852
C44	C	1.042137	0.198313	0.198148
C45	C	0.574799	-0.341701	-0.261697
C46	C	1.074799	0.158299	0.238303
C47	C	0.640233	-0.341712	-0.261692
C48	C	1.140233	0.158288	0.238308
C49	C	0.438413	-0.358112	-0.296812
C50	C	0.938413	0.141888	0.203188
C51	C	0.372980	-0.358102	-0.296822
C52	C	0.872980	0.141898	0.203178
C53	C	0.340317	-0.301653	-0.301866
C54	C	0.840317	0.198347	0.198134
C55	C	0.373094	-0.245212	-0.306914
C56	C	0.873094	0.254788	0.193086
C57	C	0.438528	-0.245223	-0.306908
C58	C	0.938528	0.254777	0.193092
C59	C	0.471185	-0.301679	-0.301854
C60	C	0.971185	0.198321	0.198146
C61	C	0.236711	-0.261620	-0.342018
C62	C	0.736711	0.238380	0.157982
C63	C	0.171274	-0.261603	-0.342016
C64	C	0.671274	0.238397	0.157984
C65	C	0.171157	-0.341627	-0.261726
C66	C	0.671157	0.158373	0.238274
C67	C	0.236593	-0.341640	-0.261725
C68	C	0.736593	0.158360	0.238275
C69	C	0.269365	-0.301637	-0.301874
C70	C	0.769365	0.198363	0.198126
C71	C	0.905352	-0.464438	-0.301816
C72	C	1.405352	0.035562	0.198184
C73	C	0.905374	-0.534080	-0.301822
C74	C	1.405374	-0.034080	0.198178
C75	C	0.945470	-0.566768	-0.261794
C76	C	1.445470	-0.066768	0.238206
C77	C	0.945499	-0.632203	-0.261808
C78	C	1.445499	-0.132203	0.238192
C79	C	0.905421	-0.664948	-0.301844
C80	C	1.405421	-0.164948	0.198156
C81	C	0.865322	-0.632252	-0.341880
C82	C	1.365322	-0.132252	0.158120
C83	C	0.865298	-0.566818	-0.341869
C84	C	1.365298	-0.066818	0.158131
C85	C	0.849006	-0.768678	-0.306754
C86	C	1.349006	-0.268678	0.193246
C87	C	0.849029	-0.834111	-0.306760
C88	C	1.349029	-0.334111	0.193240
C89	C	0.905494	-0.866769	-0.301881
C90	C	1.405494	-0.366769	0.198119
C91	C	0.961938	-0.833986	-0.296982
C92	C	1.461938	-0.333986	0.203018
C93	C	0.961915	-0.768551	-0.296971
C94	C	1.461915	-0.268551	0.203029
C95	C	0.905442	-0.735900	-0.301860
C96	C	1.405442	-0.235900	0.198140
C97	C	0.945625	-0.970409	-0.261866
C98	C	1.445625	-0.470409	0.238134
C99	C	0.945655	-1.035846	-0.261884
C100	C	1.445655	-0.535846	0.238116
C101	C	0.865473	-1.035893	-0.341952
C102	C	1.365473	-0.535893	0.158048
C103	C	0.865448	-0.970458	-0.341937
C104	C	1.365448	-0.470458	0.158063
C105	C	0.905523	-0.937720	-0.301890
C106	C	1.405523	-0.437720	0.198110
C107	C	1.068858	-0.301621	-0.301869
C108	C	1.568858	0.198379	0.198131
C109	C	1.138499	-0.301608	-0.301877
C110	C	1.638499	0.198392	0.198123
C111	C	0.905487	-0.301638	-0.465275
C112	C	1.405487	0.198362	0.034725
C113	C	0.905509	-0.301633	-0.534916
C114	C	1.405509	0.198367	-0.034916
C115	C	0.905535	-0.138227	-0.301900
C116	C	1.405535	0.361773	0.198100
C117	C	0.905577	-0.068586	-0.301921
C118	C	1.405577	0.431414	0.198079
C119	C	0.945605	-0.261550	-0.567646
C120	C	1.445605	0.238450	-0.067646
C121	C	0.945604	-0.261523	-0.633082
C122	C	1.445604	0.238477	-0.133082
C123	C	0.905514	-0.301590	-0.665784
C124	C	1.405514	0.198410	-0.165784
C125	C	0.865410	-0.341675	-0.633046
C126	C	1.365410	0.158325	-0.133046
C127	C	0.865407	-0.341697	-0.567612
C128	C	1.365407	0.158303	-0.067612
C129	C	0.900538	-0.358007	-0.769447
C130	C	1.400538	0.141993	-0.269447
C131	C	0.900545	-0.357986	-0.834880
C132	C	1.400545	0.142014	-0.334880
C133	C	0.905518	-0.301524	-0.867605
C134	C	1.405518	0.198476	-0.367605
C135	C	0.910497	-0.245080	-0.834889
C136	C	1.410497	0.254920	-0.334889
C137	C	0.910494	-0.245101	-0.769455
C138	C	1.410494	0.254899	-0.269455
C139	C	0.905512	-0.301571	-0.736737
C140	C	1.405512	0.198429	-0.236737
C141	C	0.945615	-0.261409	-0.971288
C142	C	1.445615	0.238591	-0.471288
C143	C	0.945610	-0.261381	-1.036725
C144	C	1.445610	0.238619	-0.536725
C145	C	0.865419	-0.341538	-1.036688
C146	C	1.365419	0.158462	-0.536688
C147	C	0.865421	-0.341561	-0.971252
C148	C	1.365421	0.158439	-0.471252
C149	C	0.905522	-0.301497	-0.938556
C150	C	1.405522	0.198503	-0.438556
C151	C	0.905419	-0.301618	-0.139064
C152	C	1.405419	0.198382	0.360936
C153	C	0.905518	-0.301447	-0.069423
C154	C	1.405518	0.198553	0.430577
H155	H	0.978103	-0.540114	-0.229188
H156	H	1.478103	-0.040114	0.270812
O157	O	0.337874	-0.184322	-0.312354
O158	O	0.837874	0.315678	0.187646
H159	H	0.350450	-0.153501	-0.272573
H160	H	0.850450	0.346499	0.227427
H161	H	0.346298	-0.404059	-0.292715
H162	H	0.846298	0.095941	0.207285
O163	O	0.822168	-0.384888	-0.668317
O164	O	1.322168	0.115112	-0.168317
H165	H	0.794280	-0.412760	-0.634561
H166	H	1.294280	0.087240	-0.134561
H167	H	0.263396	-0.229044	-0.374706
H168	H	0.763396	0.270956	0.125294
H169	H	1.007873	-0.741861	-0.292984
H170	H	1.507873	-0.241861	0.207016
H171	H	0.548106	-0.374273	-0.229016
H172	H	1.048106	0.125727	0.270984
H173	H	0.667032	-0.229125	-0.374681
H174	H	1.167032	0.270875	0.125319
H175	H	0.978310	-1.062459	-0.229290
H176	H	1.478310	-0.562459	0.270710
O177	O	0.895167	-0.418863	-0.870160
O178	O	1.395167	0.081137	-0.370160
H179	H	0.934979	-0.449632	-0.857609
H180	H	1.434979	0.050368	-0.357609
O181	O	1.022848	-0.869197	-0.291723
O182	O	1.522848	-0.369197	0.208277
H183	H	1.013386	-0.920205	-0.292563
H184	H	1.513386	-0.420205	0.207437
O185	O	0.822240	-1.071200	-0.385132
O186	O	1.322240	-0.571200	0.114868
H187	H	0.828989	-1.122193	-0.378413
H188	H	1.328989	-0.622193	0.121587
H189	H	0.144469	-0.374200	-0.229045
H190	H	0.644469	0.125800	0.270955
H191	H	0.978152	-0.658823	-0.229213
H192	H	1.478152	-0.158823	0.270787
O193	O	0.895170	-0.418908	-0.734150
O194	O	1.395170	0.081092	-0.234150
H195	H	0.850580	-0.442287	-0.746695
H196	H	1.350580	0.057713	-0.246695
H197	H	0.914547	-0.199103	-0.861533
H198	H	1.414547	0.300897	-0.361533
O199	O	0.473642	-0.419000	-0.291375
O200	O	0.973642	0.081000	0.208625
H201	H	0.439859	-0.458244	-0.287879
H202	H	0.939859	0.041756	0.212121
O203	O	0.822094	-0.667564	-0.385063
O204	O	1.322094	-0.167564	0.114937
H205	H	0.772921	-0.655060	-0.374273
H206	H	1.272921	-0.155060	0.125727
O207	O	0.988857	-0.218193	-0.936016
O208	O	1.488857	0.281807	-0.436016
H209	H	1.016732	-0.190307	-0.969772
H210	H	1.516732	0.309693	-0.469772
H211	H	0.978260	-0.228737	-1.063373
H212	H	1.478260	0.271263	-0.563373
H213	H	0.832770	-0.374155	-1.063313
H214	H	1.332770	0.125845	-0.563313
H215	H	0.803068	-0.860798	-0.310743
H216	H	1.303068	-0.360798	0.189257
O217	O	0.822177	-0.384790	-0.935936
O218	O	1.322177	0.115210	-0.435936
H219	H	0.790321	-0.356750	-0.906120
H220	H	1.290321	0.143250	-0.406120
H221	H	0.548325	-0.229097	-0.374682
H222	H	1.048325	0.270903	0.125318
H223	H	0.666819	-0.374295	-0.228998
H224	H	1.166819	0.125705	0.271002
O225	O	0.822145	-0.384916	-0.532303
O226	O	1.322145	0.115084	-0.032303
H227	H	0.794262	-0.412769	-0.566033
H228	H	1.294262	0.087231	-0.066033
O229	O	0.988857	-0.935086	-0.218691
O230	O	1.488857	-0.435086	0.281309
H231	H	0.978154	-0.947682	-0.169506
H232	H	1.478154	-0.447682	0.330494
O233	O	0.473879	-0.184350	-0.312336
O234	O	0.973879	0.315650	0.187664
H235	H	0.461366	-0.161027	-0.356952
H236	H	0.961366	0.338973	0.143048
O237	O	0.136050	-0.218444	-0.385318
O238	O	0.636050	0.281556	0.114682
H239	H	0.169835	-0.190635	-0.413237
H240	H	0.669835	0.309365	0.086763
H241	H	0.263179	-0.374223	-0.229035
H242	H	0.763179	0.125777	0.270965
H243	H	0.832795	-0.943842	-0.374529
H244	H	1.332795	-0.443842	0.125471
H245	H	0.803022	-0.742094	-0.310730
H246	H	1.303022	-0.242094	0.189270
O247	O	0.822039	-0.531555	-0.385032
O248	O	1.322039	-0.031555	0.114968
H249	H	0.794169	-0.565315	-0.412870
H250	H	1.294169	-0.065315	0.087130
O251	O	0.988853	-0.218338	-0.532380
O252	O	1.488853	0.281662	-0.032380
H253	H	1.016732	-0.190459	-0.566137
H254	H	1.516732	0.309541	-0.066137
H255	H	0.978254	-0.228880	-0.659736
H256	H	1.478254	0.271120	-0.159736
O257	O	0.915861	-0.184229	-0.734166
O258	O	1.415861	0.315771	-0.234166
H259	H	0.919318	-0.144960	-0.767909
H260	H	1.419318	0.355040	-0.267909
