data_functionalizedCrystal
_audit_creation_method	'MofGen! by Chris Wilmer'
_symmetry_space_group_name_H-M	'P1'
_symmetry_Int_Tables_number	1
_symmetry_cell_setting	triclinic
loop_
_symmetry_equiv_pos_as_xyz
  x,y,z
_cell_length_a	14.908571
_cell_length_b	18.050589
_cell_length_c	14.908308
_cell_angle_alpha	86.730698
_cell_angle_beta	89.824947
_cell_angle_gamma	86.724558
loop_
_atom_site_label
_atom_site_type_symbol
_atom_site_fract_x
_atom_site_fract_y
_atom_site_fract_z
Zn1	Zn	1.345230	-0.387558	0.587600
Zn2	Zn	1.845230	0.112442	1.087600
Zn3	Zn	1.353791	-0.505024	0.437245
Zn4	Zn	1.853791	-0.005024	0.937245
Zn5	Zn	1.203548	-0.373294	0.428597
Zn6	Zn	1.703548	0.126706	0.928597
Zn7	Zn	1.194819	-0.504142	0.578897
Zn8	Zn	1.694819	-0.004142	1.078897
O9	O	1.274347	-0.442504	0.508085
O10	O	1.774347	0.057496	1.008085
O11	O	1.472191	-0.409479	0.574916
O12	O	1.972191	0.090521	1.074916
O13	O	1.341097	-0.481949	0.310273
O14	O	1.841097	0.018051	0.810273
O15	O	1.222413	-0.271266	0.449712
O16	O	1.722413	0.228734	0.949712
O17	O	1.478480	-0.495781	0.464452
O18	O	1.978480	0.004219	0.964452
O19	O	1.326506	-0.281746	0.566530
O20	O	1.826506	0.218254	1.066530
O21	O	1.230714	-0.385168	0.303919
O22	O	1.730714	0.114832	0.803919
O23	O	1.076565	-0.384312	0.441273
O24	O	1.576565	0.115688	0.941273
O25	O	1.207536	-0.494277	0.705876
O26	O	1.707536	0.005723	1.205876
O27	O	1.070152	-0.480446	0.551698
O28	O	1.570152	0.019554	1.051698
O29	O	1.318042	-0.408624	0.712270
O30	O	1.818042	0.091376	1.212270
O31	O	1.332633	-0.608827	0.456013
O32	O	1.832633	-0.108827	0.956013
O33	O	1.215836	-0.608179	0.560084
O34	O	1.715836	-0.108179	1.060084
C35	C	1.040734	-0.430736	0.494603
C36	C	1.540734	0.069264	0.994603
C37	C	0.940791	-0.425720	0.488857
C38	C	1.440791	0.074280	0.988857
C39	C	1.274239	-0.635451	0.508063
C40	C	1.774239	-0.135451	1.008063
C41	C	1.274274	-0.717999	0.508089
C42	C	1.774274	-0.217999	1.008089
C43	C	0.746369	-0.516539	0.592890
C44	C	1.246369	-0.016539	1.092890
C45	C	0.652464	-0.511829	0.587494
C46	C	1.152464	-0.011829	1.087494
C47	C	0.659075	-0.411586	0.472674
C48	C	1.159075	0.088414	0.972674
C49	C	0.752980	-0.416296	0.478070
C50	C	1.252980	0.083704	0.978070
C51	C	0.796623	-0.468775	0.538179
C52	C	1.296623	0.031225	1.038179
C53	C	0.890530	-0.473489	0.543570
C54	C	1.390530	0.026511	1.043570
C55	C	0.897139	-0.373243	0.428755
C56	C	1.397139	0.126757	0.928755
C57	C	0.803235	-0.368533	0.423359
C58	C	1.303235	0.131467	0.923359
C59	C	1.210820	-0.917126	0.564665
C60	C	1.710820	-0.417126	1.064665
C61	C	1.193639	-0.961795	0.481356
C62	C	1.693639	-0.461795	0.981356
C63	C	1.274362	-0.869134	0.508106
C64	C	1.774362	-0.369134	1.008106
C65	C	1.291586	-0.971550	0.591427
C66	C	1.791586	-0.471550	1.091427
C67	C	1.274444	-1.015125	0.508129
C68	C	1.774444	-0.515125	1.008129
C69	C	1.257140	-0.912712	0.424750
C70	C	1.757140	-0.412712	0.924750
C71	C	1.355122	-0.922467	0.534880
C72	C	1.855122	-0.422467	1.034880
C73	C	1.337975	-0.967112	0.451515
C74	C	1.837975	-0.467112	0.951515
C75	C	1.274312	-0.785033	0.508094
C76	C	1.774312	-0.285033	1.008094
C77	C	1.274495	-1.099224	0.508132
C78	C	1.774495	-0.599224	1.008132
C79	C	1.508873	-0.454320	0.521619
C80	C	2.008873	0.045680	1.021619
C81	C	1.608814	-0.459355	0.527387
C82	C	2.108814	0.040645	1.027387
C83	C	1.260860	-0.452943	0.742610
C84	C	1.760860	0.047057	1.242610
C85	C	1.255113	-0.457391	0.842551
C86	C	1.755113	0.042609	1.342551
C87	C	1.274479	-0.248807	0.508127
C88	C	1.774479	0.251193	1.008127
C89	C	1.274535	-0.166265	0.508145
C90	C	1.774535	0.333735	1.008145
C91	C	1.287833	-0.432055	0.274474
C92	C	1.787833	0.067945	0.774474
C93	C	1.293755	-0.427407	0.174544
C94	C	1.793755	0.072593	0.674544
C95	C	1.359381	-0.376542	1.037010
C96	C	1.859381	0.123458	1.537010
C97	C	1.353984	-0.380719	1.130914
C98	C	1.853984	0.119281	1.630914
C99	C	1.238917	-0.469919	1.124263
C100	C	1.738917	0.030081	1.624263
C101	C	1.244314	-0.465741	1.030360
C102	C	1.744314	0.034259	1.530360
C103	C	1.304549	-0.419052	0.986737
C104	C	1.804549	0.080948	1.486737
C105	C	1.309951	-0.414880	0.892832
C106	C	1.809951	0.085120	1.392832
C107	C	1.194880	-0.504075	0.886183
C108	C	1.694880	-0.004075	1.386183
C109	C	1.189483	-0.508252	0.980086
C110	C	1.689483	-0.008252	1.480086
H111	H	0.781904	-0.559273	0.641828
H112	H	1.281904	-0.059273	1.141828
C113	C	1.370282	-1.035222	0.320405
C114	C	1.870282	-0.535222	0.820405
C115	C	1.410565	-0.996552	0.386886
C116	C	1.910565	-0.496552	0.886886
H117	H	1.415095	-1.053401	0.280508
H118	H	1.915095	-0.553401	0.780508
H119	H	1.328069	-1.002742	0.287882
H120	H	1.828069	-0.502742	0.787882
H121	H	1.340376	-1.075758	0.347740
H122	H	1.840376	-0.575758	0.847740
H123	H	1.440466	-0.956013	0.359550
H124	H	1.940466	-0.456013	0.859550
H125	H	1.452794	-1.029034	0.419412
H126	H	1.952794	-0.529034	0.919412
C127	C	0.505581	-0.549116	0.630207
C128	C	1.005581	-0.049116	1.130207
C129	C	0.597222	-0.564332	0.647632
C130	C	1.097222	-0.064332	1.147632
H131	H	0.471478	-0.581528	0.667342
H132	H	0.971478	-0.081528	1.167342
H133	H	0.493652	-0.556451	0.568895
H134	H	0.993652	-0.056451	1.068895
H135	H	0.489461	-0.499051	0.642584
H136	H	0.989461	0.000949	1.142584
H137	H	0.613343	-0.614395	0.635250
H138	H	1.113343	-0.114395	1.135250
H139	H	0.609156	-0.557003	0.708959
H140	H	1.109156	-0.057003	1.208959
C141	C	1.064238	-1.030581	0.518922
C142	C	1.564238	-0.530581	1.018922
C143	C	1.101493	-0.985348	0.450790
C144	C	1.601493	-0.485348	0.950790
H145	H	1.007353	-1.045122	0.500053
H146	H	1.507353	-0.545122	1.000053
H147	H	1.057053	-1.003772	0.571718
H148	H	1.557053	-0.503772	1.071718
H149	H	1.103038	-1.073533	0.531192
H150	H	1.603038	-0.573533	1.031192
H151	H	1.062696	-0.942393	0.438525
H152	H	1.562696	-0.442393	0.938525
H153	H	1.108674	-1.012157	0.397979
H154	H	1.608674	-0.512157	0.897979
C155	C	0.518053	-0.359819	0.413482
C156	C	1.018053	0.140181	0.913482
C157	C	0.611089	-0.353877	0.406643
C158	C	1.111089	0.146123	0.906643
H159	H	0.488430	-0.324186	0.372722
H160	H	0.988430	0.175814	0.872722
H161	H	0.499237	-0.350971	0.473042
H162	H	0.999237	0.149029	0.973042
H163	H	0.503396	-0.408329	0.399305
H164	H	1.003396	0.091671	0.899305
H165	H	0.625747	-0.305369	0.420826
H166	H	1.125747	0.194631	0.920826
H167	H	0.629912	-0.362720	0.347070
H168	H	1.129912	0.137280	0.847070
H169	H	1.423362	-0.905010	0.557544
H170	H	1.923362	-0.405010	1.057544
H171	H	0.767687	-0.325804	0.374423
H172	H	1.267687	0.174196	0.874423
H173	H	1.306123	-0.997236	0.661882
H174	H	1.806123	-0.497236	1.161882
C175	C	1.044023	-0.335951	0.386037
C176	C	1.544023	0.164049	0.886037
C177	C	0.952382	-0.320736	0.368612
C178	C	1.452382	0.179264	0.868612
H179	H	1.078125	-0.303535	0.348908
H180	H	1.578125	0.196465	0.848908
H181	H	1.060143	-0.386009	0.373661
H182	H	1.560143	0.113991	0.873661
H183	H	1.055950	-0.328617	0.447358
H184	H	1.555950	0.171383	0.947358
H185	H	0.940453	-0.328076	0.307291
H186	H	1.440453	0.171924	0.807291
H187	H	0.936255	-0.270667	0.380981
H188	H	1.436255	0.229333	0.880981
H189	H	1.150234	-0.538692	0.845240
H190	H	1.650234	-0.038692	1.345240
C191	C	1.084974	-0.499703	1.144381
C192	C	1.584974	0.000297	1.644381
C193	C	1.172702	-0.521231	1.172218
C194	C	1.672702	-0.021231	1.672218
H195	H	1.044095	-0.531379	1.173989
H196	H	1.544095	-0.031379	1.673989
H197	H	1.080352	-0.503306	1.081268
H198	H	1.580352	-0.003306	1.581268
H199	H	1.070976	-0.449827	1.159020
H200	H	1.570976	0.050173	1.659020
H201	H	1.186702	-0.571106	1.157572
H202	H	1.686702	-0.071106	1.657572
H203	H	1.177327	-0.517635	1.235345
H204	H	1.677327	-0.017635	1.735345
C205	C	1.155369	-0.918398	0.716093
C206	C	1.655369	-0.418398	1.216093
C207	C	1.138190	-0.887498	0.629133
C208	C	1.638190	-0.387498	1.129133
H209	H	1.110526	-0.900109	0.755887
H210	H	1.610526	-0.400109	1.255887
H211	H	1.212674	-0.905060	0.735241
H212	H	1.712674	-0.405060	1.235241
H213	H	1.154543	-0.970983	0.716129
H214	H	1.654543	-0.470983	1.216129
H215	H	1.139023	-0.834913	0.629096
H216	H	1.639023	-0.334913	1.129096
H217	H	1.080871	-0.900831	0.609981
H218	H	1.580871	-0.400831	1.109981
H219	H	1.242524	-0.887110	0.354272
H220	H	1.742524	-0.387110	0.854272
C221	C	1.360465	-0.286149	1.237244
C222	C	1.860465	0.213851	1.737244
C223	C	1.414256	-0.333989	1.186173
C224	C	1.914256	0.166011	1.686173
H225	H	1.397677	-0.257294	1.271354
H226	H	1.897677	0.242706	1.771354
H227	H	1.323834	-0.314552	1.276665
H228	H	1.823834	0.185448	1.776665
H229	H	1.323414	-0.254146	1.198346
H230	H	1.823414	0.245854	1.698346
H231	H	1.451303	-0.365995	1.225072
H232	H	1.951303	0.134005	1.725072
H233	H	1.450903	-0.305583	1.146748
H234	H	1.950903	0.194417	1.646748
H235	H	1.408431	-0.338530	1.001492
H236	H	1.908431	0.161470	1.501492
C237	C	1.423137	-0.327123	0.908840
C238	C	1.923137	0.172877	1.408840
C239	C	1.376155	-0.363557	0.844878
C240	C	1.876155	0.136443	1.344878
H241	H	1.464004	-0.295433	0.879235
H242	H	1.964004	0.204567	1.379235
H243	H	1.455407	-0.362837	0.947441
H244	H	1.955407	0.137163	1.447441
H245	H	1.381860	-0.298378	0.943213
H246	H	1.881860	0.201622	1.443213
H247	H	1.417431	-0.392305	0.810510
H248	H	1.917431	0.107695	1.310510
H249	H	1.343883	-0.327838	0.806262
H250	H	1.843883	0.172162	1.306262
C251	C	1.143948	-0.633083	1.006450
C252	C	1.643948	-0.133083	1.506450
C253	C	1.123276	-0.559572	1.028041
C254	C	1.623276	-0.059572	1.528041
H255	H	1.103071	-0.664766	1.036050
H256	H	1.603071	-0.164766	1.536050
H257	H	1.203463	-0.647668	1.025328
H258	H	1.703463	-0.147668	1.525328
H259	H	1.139315	-0.636670	0.943327
H260	H	1.639315	-0.136670	1.443327
H261	H	1.127917	-0.555984	1.091163
H262	H	1.627917	-0.055984	1.591163
H263	H	1.063747	-0.544984	1.009168
H264	H	1.563747	-0.044984	1.509168
H265	H	0.926063	-0.516221	0.592512
H266	H	1.426063	-0.016221	1.092512
