data_functionalizedCrystal
_audit_creation_method	'MofGen! by Chris Wilmer'
_symmetry_space_group_name_H-M	'P1'
_symmetry_Int_Tables_number	1
_symmetry_cell_setting	triclinic
loop_
_symmetry_equiv_pos_as_xyz
  x,y,z
_cell_length_a	17.666332
_cell_length_b	17.038272
_cell_length_c	17.038272
_cell_angle_alpha	88.888444
_cell_angle_beta	90.005119
_cell_angle_gamma	89.996446
loop_
_atom_site_label
_atom_site_type_symbol
_atom_site_fract_x
_atom_site_fract_y
_atom_site_fract_z
O1	O	0.062854	-1.048760	0.170537
O2	O	0.396188	-0.715427	0.503870
O3	O	0.729521	-0.382093	0.837204
O4	O	0.062877	-0.820948	0.167829
O5	O	0.396210	-0.487615	0.501162
O6	O	0.729543	-0.154282	0.834496
O7	O	0.062860	-0.933500	0.055277
O8	O	0.396193	-0.600167	0.388611
O9	O	0.729526	-0.266834	0.721944
O10	O	0.062871	-0.936208	0.283089
O11	O	0.396205	-0.602875	0.616422
O12	O	0.729538	-0.269541	0.949756
O13	O	-0.063037	-0.933479	0.055272
O14	O	0.270296	-0.600145	0.388606
O15	O	0.603629	-0.266812	0.721939
O16	O	-0.063020	-0.820927	0.167824
O17	O	0.270313	-0.487594	0.501158
O18	O	0.603646	-0.154260	0.834491
O19	O	-0.063042	-1.048738	0.170532
O20	O	0.270291	-0.715405	0.503865
O21	O	0.603624	-0.382072	0.837199
Cu22	Cu	-0.074527	-0.934831	0.169178
Cu23	Cu	0.258807	-0.601497	0.502511
Cu24	Cu	0.592140	-0.268164	0.835844
Cu25	Cu	0.074361	-0.934856	0.169184
Cu26	Cu	0.407694	-0.601523	0.502517
Cu27	Cu	0.741027	-0.268189	0.835850
O28	O	-0.063025	-0.936187	0.283084
O29	O	0.270308	-0.602853	0.616417
O30	O	0.603641	-0.269520	0.949751
C31	C	-0.000069	-0.791645	0.165364
C32	C	0.333264	-0.458312	0.498697
C33	C	0.666598	-0.124978	0.832030
C34	C	-0.000061	-0.704361	0.158016
C35	C	0.333273	-0.371028	0.491349
C36	C	0.666606	-0.037695	0.824682
C37	C	-0.000088	-0.931027	0.025982
C38	C	0.333245	-0.597693	0.359315
C39	C	0.666578	-0.264360	0.692649
C40	C	-0.000088	-0.923679	-0.061301
C41	C	0.333246	-0.590345	0.272032
C42	C	0.666579	-0.257012	0.605365
N43	N	-0.179246	-0.934819	0.169173
N44	N	0.154087	-0.601485	0.502507
N45	N	0.487421	-0.268152	0.835840
C46	C	-0.218852	-0.985610	0.220003
C47	C	0.114481	-0.652277	0.553337
C48	C	0.447815	-0.318944	0.886670
C49	C	-0.298099	-0.985623	0.220002
C50	C	0.035234	-0.652289	0.553335
C51	C	0.368567	-0.318956	0.886669
C52	C	-0.337738	-0.934829	0.169179
C53	C	-0.004405	-0.601496	0.502512
C54	C	0.328928	-0.268163	0.835845
C55	C	-0.298123	-0.884034	0.118339
C56	C	0.035210	-0.550701	0.451672
C57	C	0.368544	-0.217367	0.785006
C58	C	-0.218877	-0.884029	0.118336
C59	C	0.114456	-0.550695	0.451670
C60	C	0.447790	-0.217362	0.785003
N61	N	-0.462171	-0.865902	0.162459
N62	N	-0.128838	-0.532568	0.495792
N63	N	0.204495	-0.199235	0.829125
N64	N	-0.537452	-0.865909	0.162466
N65	N	-0.204118	-0.532576	0.495799
N66	N	0.129215	-0.199242	0.829132
C67	C	-0.576502	-0.934844	0.169182
C68	C	-0.243169	-0.601511	0.502516
C69	C	0.090164	-0.268177	0.835849
N70	N	-0.537429	-1.003773	0.175907
N71	N	-0.204095	-0.670439	0.509240
N72	N	0.129238	-0.337106	0.842574
N73	N	-0.462141	-1.003764	0.175904
N74	N	-0.128808	-0.670431	0.509237
N75	N	0.204526	-0.337098	0.842571
C76	C	-0.423667	-0.934830	0.169176
C77	C	-0.090334	-0.601497	0.502509
C78	C	0.242999	-0.268163	0.835842
C79	C	-0.702037	-0.985653	0.220014
C80	C	-0.368704	-0.652320	0.553347
C81	C	-0.035371	-0.318987	0.886680
C82	C	-0.781286	-0.985667	0.220007
C83	C	-0.447953	-0.652334	0.553340
C84	C	-0.114620	-0.319000	0.886673
C85	C	-0.781308	-0.884071	0.118348
C86	C	-0.447975	-0.550738	0.451681
C87	C	-0.114642	-0.217405	0.785014
C88	C	-0.702061	-0.884065	0.118351
C89	C	-0.368728	-0.550731	0.451684
C90	C	-0.035394	-0.217398	0.785017
C91	C	-0.662430	-0.934855	0.169188
C92	C	-0.329097	-0.601521	0.502521
C93	C	0.004237	-0.268188	0.835854
N94	N	0.179080	-0.934874	0.169182
N95	N	0.512414	-0.601541	0.502515
N96	N	0.845747	-0.268207	0.835849
C97	C	-0.000095	-1.078042	0.172997
C98	C	0.333238	-0.744709	0.506331
C99	C	0.666571	-0.411375	0.839664
C100	C	-0.000099	-1.165326	0.180346
C101	C	0.333235	-0.831992	0.513679
C102	C	0.666568	-0.498659	0.847012
C103	C	-0.000058	-0.658752	0.225479
C104	C	0.333276	-0.325419	0.558813
C105	C	0.666609	0.007914	0.892146
C106	C	-0.000069	-0.576740	0.218570
C107	C	0.333265	-0.243407	0.551904
C108	C	0.666598	0.089926	0.885237
C109	C	-0.000077	-0.540339	0.144197
C110	C	0.333256	-0.207006	0.477530
C111	C	0.666590	0.126328	0.810864
C112	C	-0.000082	-0.585954	0.076728
C113	C	0.333251	-0.252621	0.410062
C114	C	0.666585	0.080712	0.743395
C115	C	-0.000077	-0.667965	0.083638
C116	C	0.333257	-0.334631	0.416971
C117	C	0.666590	-0.001298	0.750305
C118	C	-0.000098	-0.292951	0.119787
C119	C	0.333235	0.040382	0.453120
C120	C	0.666568	0.373715	0.786453
C121	C	-0.000101	-0.210935	0.112882
C122	C	0.333232	0.122399	0.446215
C123	C	0.666565	0.455732	0.779549
C124	C	-0.000089	-0.201726	0.254725
C125	C	0.333244	0.131607	0.588058
C126	C	0.666577	0.464940	0.921391
C127	C	-0.000080	-0.283739	0.261628
C128	C	0.333254	0.049595	0.594961
C129	C	0.666587	0.382928	0.928294
C130	C	-0.000089	-0.329347	0.194159
C131	C	0.333245	0.003987	0.527492
C132	C	0.666578	0.337320	0.860826
C133	C	-0.000086	-0.456510	0.137133
C134	C	0.333248	-0.123177	0.470467
C135	C	0.666581	0.210157	0.803800
C136	C	-0.000085	-0.413174	0.201224
C137	C	0.333248	-0.079841	0.534557
C138	C	0.666581	0.253492	0.867890
C139	C	-0.000095	-0.991142	-0.106911
C140	C	0.333238	-0.657809	0.226423
C141	C	0.666572	-0.324476	0.559756
C142	C	-0.000087	-0.984233	-0.188923
C143	C	0.333246	-0.650900	0.144411
C144	C	0.666580	-0.317567	0.477744
C145	C	-0.000077	-0.909860	-0.225324
C146	C	0.333256	-0.576527	0.108010
C147	C	0.666589	-0.243193	0.441343
C148	C	-0.000068	-0.842391	-0.179708
C149	C	0.333266	-0.509058	0.153625
C150	C	0.666599	-0.175725	0.486958
C151	C	-0.000070	-0.849301	-0.097698
C152	C	0.333263	-0.515968	0.235635
C153	C	0.666597	-0.182634	0.568969
C154	C	-0.000065	-0.885449	-0.472712
C155	C	0.333269	-0.552116	-0.139378
C156	C	0.666602	-0.218783	0.193955
C157	C	-0.000064	-0.878545	-0.554728
C158	C	0.333269	-0.545211	-0.221395
C159	C	0.666602	-0.211878	0.111939
C160	C	-0.000082	-1.020387	-0.563937
C161	C	0.333251	-0.687054	-0.230603
C162	C	0.666584	-0.353721	0.102730
C163	C	-0.000089	-1.027291	-0.481924
C164	C	0.333244	-0.693957	-0.148591
C165	C	0.666577	-0.360624	0.184742
C166	C	-0.000076	-0.959822	-0.436316
C167	C	0.333258	-0.626489	-0.102983
C168	C	0.666591	-0.293155	0.230350
C169	C	-0.000072	-0.902796	-0.309153
C170	C	0.333262	-0.569463	0.024180
C171	C	0.666595	-0.236129	0.357514
C172	C	-0.000076	-0.966886	-0.352488
C173	C	0.333257	-0.633553	-0.019155
C174	C	0.666591	-0.300220	0.314178
C175	C	-0.000076	-0.938660	0.312379
C176	C	0.333258	-0.605327	0.645712
C177	C	0.666591	-0.271994	0.979046
C178	C	-0.000072	-0.946008	0.399663
C179	C	0.333262	-0.612675	0.732996
C180	C	0.666595	-0.279342	1.066329
H181	H	-0.186589	-1.026970	0.261396
H182	H	0.146744	-0.693637	0.594729
H183	H	0.480077	-0.360304	0.928063
F184	F	-0.823490	-0.830020	0.064250
F185	F	-0.490156	-0.496687	0.397584
F186	F	-0.156823	-0.163353	0.730917
F187	F	-0.000096	-1.056038	-0.237460
F188	F	0.333237	-0.722705	0.095873
F189	F	0.666570	-0.389371	0.429207
H190	H	-0.000092	-1.075316	-0.601079
H191	H	0.333241	-0.741983	-0.267746
H192	H	0.666575	-0.408650	0.065587
F193	F	-0.659857	-1.039720	0.274105
F194	F	-0.326523	-0.706387	0.607438
F195	F	0.006810	-0.373054	0.940772
F196	F	-0.659908	-0.829993	0.064261
F197	F	-0.326575	-0.496659	0.397595
F198	F	0.006759	-0.163326	0.730928
F199	F	-0.000049	-0.763237	-0.218451
F200	F	0.333285	-0.429904	0.114882
F201	F	0.666618	-0.096570	0.448215
F202	F	-0.000081	-1.106449	-0.443190
F203	F	0.333253	-0.773115	-0.109856
F204	F	0.666586	-0.439782	0.223477
F205	F	-0.000123	-0.172196	0.033720
F206	F	0.333210	0.161137	0.367053
F207	F	0.666543	0.494471	0.700387
F208	F	-0.000044	-0.697485	0.304638
F209	F	0.333289	-0.364152	0.637972
F210	F	0.666623	-0.030819	0.971305
F211	F	-0.000060	-0.777497	-0.049157
F212	F	0.333273	-0.444163	0.284176
F213	F	0.666607	-0.110830	0.617509
F214	F	-0.000062	-0.528203	0.290375
F215	F	0.333271	-0.194869	0.623708
F216	F	0.666604	0.138464	0.957042
H217	H	-0.000067	-1.027441	-0.322847
H218	H	0.333266	-0.694107	0.010486
H219	H	0.666599	-0.360774	0.343819
F220	F	-0.340310	-0.829978	0.064247
F221	F	-0.006977	-0.496645	0.397581
F222	F	0.326356	-0.163312	0.730914
H223	H	-0.000064	-0.313370	0.322190
H224	H	0.333269	0.019963	0.655524
H225	H	0.666603	0.353296	0.988857
H226	H	-0.330353	-1.026984	0.261396
H227	H	0.002981	-0.693651	0.594729
H228	H	0.336314	-0.360317	0.928063
F229	F	-0.000058	-0.823644	-0.347901
F230	F	0.333275	-0.490311	-0.014568
F231	F	0.666609	-0.156978	0.318766
F232	F	-0.000080	-0.451917	0.280375
F233	F	0.333254	-0.118583	0.613708
F234	F	0.666587	0.214750	0.947041
F235	F	-0.000081	-0.153181	0.326524
F236	F	0.333252	0.180152	0.659858
F237	F	0.666585	0.513485	0.993191
F238	F	-0.823438	-1.039733	0.274106
F239	F	-0.490104	-0.706400	0.607440
F240	F	-0.156771	-0.373067	0.940773
F241	F	-0.000108	-0.341480	0.047979
F242	F	0.333225	-0.008147	0.381313
F243	F	0.666559	0.325186	0.714646
F244	F	-0.000058	-0.799383	-0.593467
F245	F	0.333276	-0.466050	-0.260133
F246	F	0.666609	-0.132716	0.073200
F247	F	-0.176724	-0.829963	0.064237
F248	F	0.156609	-0.496630	0.397570
F249	F	0.489942	-0.163297	0.730903
H250	H	-0.000100	-0.556310	0.016172
H251	H	0.333234	-0.222977	0.349505
H252	H	0.666567	0.110356	0.682839
H253	H	-0.000079	-0.705099	0.028702
H254	H	0.333255	-0.371766	0.362035
H255	H	0.666588	-0.038433	0.695368
F256	F	-0.000092	-0.417762	0.057982
F257	F	0.333242	-0.084429	0.391315
F258	F	0.666575	0.248905	0.724648
H259	H	-0.000108	-1.051705	-0.077279
H260	H	0.333226	-0.718371	0.256054
H261	H	0.666559	-0.385038	0.589387
H262	H	-0.000054	-0.830511	-0.435587
H263	H	0.333280	-0.497178	-0.102254
H264	H	0.666613	-0.163844	0.231080
