data_functionalizedCrystal
_audit_creation_method	'MofGen! by Chris Wilmer'
_symmetry_space_group_name_H-M	'P1'
_symmetry_Int_Tables_number	1
_symmetry_cell_setting	triclinic
loop_
_symmetry_equiv_pos_as_xyz
  x,y,z
_cell_length_a	14.853567
_cell_length_b	17.699083
_cell_length_c	16.176319
_cell_angle_alpha	90.001389
_cell_angle_beta	89.996997
_cell_angle_gamma	96.541028
loop_
_atom_site_label
_atom_site_type_symbol
_atom_site_fract_x
_atom_site_fract_y
_atom_site_fract_z
O1	O	0.114008	-1.004375	-0.068624
O2	O	0.128841	-0.784035	-0.068650
O3	O	-0.009827	-0.900090	-0.068639
O4	O	0.252676	-0.888319	-0.068635
O5	O	-0.009836	-0.900074	0.068855
O6	O	0.128832	-0.784019	0.068843
O7	O	0.113999	-1.004359	0.068869
Cu8	Cu	0.121415	-0.894187	0.081411
Cu9	Cu	0.121425	-0.894206	-0.081191
O10	O	0.252667	-0.888303	0.068858
C11	C	-0.043418	-0.899549	0.000106
C12	C	-0.143496	-0.897951	0.000098
C13	C	0.128305	-0.755828	0.000093
C14	C	0.126711	-0.671806	0.000083
C15	C	0.114535	-1.032565	0.000125
C16	C	0.116130	-1.116587	0.000129
C17	C	-0.555751	-0.822255	0.000105
C18	C	-0.577539	-0.960131	0.000121
C19	C	-0.483511	-0.961634	0.000117
C20	C	-0.425598	-0.893446	0.000107
C21	C	-0.461714	-0.823756	0.000103
C22	C	-0.447389	-1.031324	0.000129
C23	C	-0.353355	-1.032829	0.000126
C24	C	-0.295441	-0.964641	0.000111
C25	C	-0.331561	-0.894947	0.000105
C26	C	-0.273648	-0.826759	0.000096
C27	C	-0.309767	-0.757065	0.000084
C28	C	-0.403799	-0.755567	0.000088
C29	C	-0.201409	-0.966139	0.000107
C30	C	-0.179611	-0.828260	0.000094
C31	C	0.286258	-0.888844	0.000112
C32	C	0.386336	-0.890443	0.000114
N33	N	0.121407	-0.894179	0.195776
C34	C	0.208106	-0.623396	0.000084
C35	C	0.206602	-0.544449	0.000095
C36	C	0.123703	-0.513913	0.000098
C37	C	0.042301	-0.562329	0.000099
C38	C	0.043806	-0.641275	0.000095
C39	C	0.036232	-0.243950	0.000120
C40	C	0.034734	-0.164999	0.000122
C41	C	0.199028	-0.147125	0.000120
C42	C	0.200533	-0.226070	0.000115
C43	C	0.119132	-0.274479	0.000121
C44	C	0.120763	-0.360083	0.000111
C45	C	0.122070	-0.428311	0.000102
N46	N	0.121426	-0.894220	-0.195556
C47	C	0.060030	-0.945584	0.239045
C48	C	0.060029	-0.945588	0.325592
C49	C	0.121410	-0.894190	0.368868
C50	C	0.182790	-0.842780	0.325593
C51	C	0.182786	-0.842773	0.239048
C52	C	0.182807	-0.842806	0.674621
C53	C	0.182808	-0.842818	0.761173
C54	C	0.060050	-0.945621	0.761166
C55	C	0.060046	-0.945614	0.674620
C56	C	0.121422	-0.894201	0.631353
C57	C	0.121422	-0.894197	0.537508
C58	C	0.121416	-0.894198	0.462711
H59	H	-0.132463	-0.772732	0.000082
H60	H	0.232765	-0.800927	0.360834
C61	C	-0.246057	-0.682063	0.000073
H62	H	-0.184885	-0.692943	0.000070
H63	H	-0.256989	-0.653480	0.048013
H64	H	-0.256983	-0.653500	-0.047887
C65	C	-0.007477	-1.002141	0.373185
H66	H	-0.044024	-1.032758	0.335016
H67	H	-0.044971	-0.974889	0.406955
H68	H	0.024922	-1.033679	0.406936
C69	C	0.250304	-0.786231	0.191452
H70	H	0.286868	-0.755625	0.229619
H71	H	0.217919	-0.754691	0.157697
H72	H	0.287794	-0.813495	0.157684
H73	H	0.010071	-0.987482	0.796404
H74	H	-0.585163	-0.765511	0.000092
C75	C	-0.007476	-1.002149	0.627021
H76	H	-0.044037	-1.032761	0.665186
H77	H	0.024903	-1.033684	0.593249
H78	H	-0.044967	-0.974876	0.593270
C79	C	-0.007491	-1.002122	0.191448
H80	H	-0.044051	-1.032732	0.229617
H81	H	0.024887	-1.033658	0.157679
H82	H	-0.044985	-0.974851	0.157697
H83	H	-0.624697	-1.015647	0.000135
H84	H	-0.032777	-0.140140	0.000126
C85	C	-0.048886	-0.528742	0.000102
H86	H	-0.038126	-0.474791	0.000096
H87	H	-0.082399	-0.545353	0.048047
H88	H	-0.082387	-0.545353	-0.047853
C89	C	0.250314	-0.786264	0.808776
H90	H	0.286858	-0.755635	0.770613
H91	H	0.287811	-0.813517	0.842535
H92	H	0.217908	-0.754737	0.842539
C93	C	0.250326	-0.786261	0.627038
H94	H	0.286888	-0.755659	0.665209
H95	H	0.217945	-0.754718	0.593283
H96	H	0.287816	-0.813525	0.593271
H97	H	-0.172005	-1.022883	0.000122
H98	H	-0.433216	-0.698825	0.000079
C99	C	0.299297	-0.656979	0.000080
H100	H	0.347556	-0.616838	0.000090
H101	H	0.303304	-0.687403	-0.047868
H102	H	0.303295	-0.687404	0.048032
C103	C	-0.511087	-1.106325	0.000139
H104	H	-0.476111	-1.148046	0.000153
H105	H	-0.548219	-1.108610	-0.047808
H106	H	-0.548224	-1.108597	0.048092
C107	C	-0.313628	-1.109486	0.000135
H108	H	-0.249331	-1.100616	0.000137
H109	H	-0.333517	-1.137574	-0.047805
H110	H	-0.333514	-1.137556	0.048095
C111	C	0.296137	-0.491202	0.000094
H112	H	0.345723	-0.520695	0.000081
H113	H	0.298967	-0.460036	0.048043
H114	H	0.298965	-0.460032	-0.047857
C115	C	-0.053305	-0.297190	0.000120
H116	H	-0.102889	-0.267695	0.000114
H117	H	-0.056139	-0.328359	0.048066
H118	H	-0.056133	-0.328357	-0.047834
H119	H	0.268038	-0.250928	0.000109
C120	C	0.288569	-0.093873	0.000125
H121	H	0.275805	-0.042482	0.000138
H122	H	0.322571	-0.103136	-0.047823
H123	H	0.322565	-0.103143	0.048077
C124	C	-0.045729	-0.694526	0.000085
H125	H	-0.095317	-0.665034	0.000079
H126	H	-0.048563	-0.725698	0.048028
H127	H	-0.048550	-0.725689	-0.047871
