data_functionalizedCrystal
_audit_creation_method	'MofGen! by Chris Wilmer'
_symmetry_space_group_name_H-M	'P1'
_symmetry_Int_Tables_number	1
_symmetry_cell_setting	triclinic
loop_
_symmetry_equiv_pos_as_xyz
  x,y,z
_cell_length_a	18.426585
_cell_length_b	23.196402
_cell_length_c	23.196402
_cell_angle_alpha	90.005244
_cell_angle_beta	60.005504
_cell_angle_gamma	59.998591
loop_
_atom_site_label
_atom_site_type_symbol
_atom_site_fract_x
_atom_site_fract_y
_atom_site_fract_z
Zr1	Zr	0.794338	0.555361	-0.075626
O2	O	0.945737	0.463301	-0.167672
O3	O	0.642938	0.583583	-0.047412
O4	O	0.794335	0.583572	-0.167676
O5	O	0.794342	0.463320	0.047462
O6	O	0.794333	0.678443	-0.167675
O7	O	0.794340	0.463312	-0.047408
O8	O	0.523512	0.678462	0.047455
O9	O	1.065164	0.463300	-0.167669
O10	O	0.705210	0.666420	-0.035375
O11	O	0.705212	0.595624	0.035425
O12	O	0.883463	0.595612	-0.106170
O13	O	0.883466	0.524816	-0.035370
Zr14	Zr	0.794338	0.706683	0.075682
Zr15	Zr	0.794335	0.706670	-0.075625
Zr16	Zr	0.794341	0.555374	0.075681
Zr17	Zr	0.984809	0.555360	-0.075620
Zr18	Zr	0.603866	0.706683	0.075676
O19	O	0.945737	0.678461	0.047468
O20	O	0.945733	0.678443	-0.167671
O21	O	0.945741	0.463319	0.047466
O22	O	0.642938	0.798743	0.167728
O23	O	0.642934	0.798724	-0.047410
O24	O	0.642942	0.583601	0.167727
O25	O	0.794333	0.798724	-0.047406
O26	O	0.794340	0.678472	0.167732
O27	O	0.794342	0.583600	0.167731
O28	O	0.794335	0.798732	0.047464
O29	O	1.065161	0.583571	-0.167668
O30	O	0.523514	0.678473	0.167724
O31	O	0.523512	0.798743	0.167724
O32	O	0.523509	0.798733	0.047456
O33	O	1.065166	0.463310	-0.047400
O34	O	1.065164	0.583581	-0.047399
O35	O	0.705212	0.666432	0.106226
O36	O	0.705210	0.737227	0.035426
O37	O	0.883463	0.666419	-0.035369
O38	O	0.883466	0.595624	0.035430
C39	C	0.556087	0.631023	0.000021
C40	C	0.475227	0.631023	0.000018
C41	C	0.794341	0.631038	0.189289
C42	C	0.794343	0.631043	0.253523
C43	C	0.794334	0.820286	0.000029
C44	C	0.794333	0.884521	0.000030
C45	C	0.179117	0.631019	0.000039
C46	C	0.261504	0.631018	0.000035
C47	C	0.327170	0.631020	0.000028
C48	C	0.409561	0.631021	0.000025
C49	C	1.032588	0.631021	0.000035
C50	C	1.113449	0.631020	0.000037
C51	C	0.794341	0.441757	0.000027
C52	C	0.794343	0.377523	0.000026
C53	C	0.701289	0.951655	0.036988
C54	C	0.701288	1.012010	0.036984
C55	C	0.794335	1.005227	0.000032
C56	C	0.887391	0.938081	-0.036934
C57	C	0.887390	0.877728	-0.036936
C58	C	0.865623	1.072528	0.005313
C59	C	0.865621	1.132882	0.005320
C60	C	0.794343	1.191375	0.000032
C61	C	0.723051	1.189513	-0.005248
C62	C	0.723050	1.129160	-0.005249
C63	C	0.794347	1.070666	0.000029
C64	C	0.701292	1.323955	0.036988
C65	C	0.701294	1.384310	0.036980
C66	C	0.887400	1.310379	-0.036934
C67	C	0.887395	1.250026	-0.036930
C68	C	0.794338	1.256819	0.000035
C69	C	0.794334	0.631006	-0.189234
C70	C	0.794333	0.631000	-0.253467
C71	C	0.887386	0.594085	0.246744
C72	C	0.887388	0.594075	0.307098
C73	C	0.794340	0.631036	0.374231
C74	C	0.701284	0.667996	0.381008
C75	C	0.701285	0.667999	0.320654
C76	C	0.723052	0.692939	0.498167
C77	C	0.723055	0.692938	0.558518
C78	C	0.794332	0.631024	0.560385
C79	C	0.865624	0.569113	0.501886
C80	C	0.865626	0.569117	0.441532
C81	C	0.794328	0.631036	0.439679
C82	C	0.887384	0.594052	0.619046
C83	C	0.887381	0.594039	0.679403
C84	C	0.701275	0.667967	0.753313
C85	C	0.701280	0.667973	0.692957
C86	C	0.794337	0.631017	0.625826
C87	C	0.556083	0.820287	0.000022
C88	C	0.475222	0.884522	0.000020
C89	C	0.556091	0.631039	0.189282
C90	C	0.475232	0.631044	0.253513
C91	C	0.556087	0.820303	0.189284
C92	C	0.475227	0.884543	0.253515
C93	C	1.032588	0.441740	-0.189228
C94	C	1.113449	0.377500	-0.253459
C95	C	1.032592	0.441756	0.000034
C96	C	1.113453	0.377521	0.000036
C97	C	1.032585	0.631005	-0.189227
C98	C	1.113444	0.630999	-0.253458
C99	C	0.437248	0.877727	-0.036944
C100	C	0.361281	0.938076	-0.036960
C101	C	0.323283	1.005221	-0.000007
C102	C	0.361264	1.012015	0.036958
C103	C	0.437235	0.951666	0.036970
C104	C	0.437260	0.668008	0.320641
C105	C	0.361295	0.668011	0.380999
C106	C	0.323298	0.631054	0.374228
C107	C	0.361278	0.594086	0.307093
C108	C	0.437247	0.594079	0.246737
C109	C	0.437253	0.951672	0.246722
C110	C	0.361286	1.012039	0.307069
C111	C	0.323291	1.005275	0.374208
C112	C	0.361272	0.938139	0.380999
C113	C	0.437242	0.877774	0.320653
C114	C	1.151432	0.310371	-0.246667
C115	C	1.227422	0.250005	-0.307013
C116	C	1.265421	0.256769	-0.374152
C117	C	1.227435	0.323905	-0.380944
C118	C	1.151452	0.384269	-0.320598
C119	C	1.151435	0.384317	0.036994
C120	C	1.227423	0.323967	0.036993
C121	C	1.265424	0.256823	0.000038
C122	C	1.227439	0.250029	-0.036925
C123	C	1.151457	0.310378	-0.036928
C124	C	1.151416	0.667963	-0.246664
C125	C	1.227381	0.667972	-0.307010
C126	C	1.265378	0.631011	-0.374150
C127	C	1.227398	0.594046	-0.380942
C128	C	1.151429	0.594042	-0.320596
H129	H	0.625515	0.957192	0.067086
F130	F	0.477647	0.554739	0.175297
H131	H	0.665009	0.743350	0.606143
H132	H	0.261431	1.054433	0.423340
F133	F	0.242444	0.631067	0.438471
H134	H	0.330315	1.066692	0.067044
F135	F	1.110990	0.707305	-0.175215
F136	F	1.111031	0.554691	-0.327838
H137	H	0.468185	0.823060	-0.067045
F138	F	1.267832	0.331213	0.076338
H139	H	0.330330	0.563996	0.301591
F140	F	1.267885	0.331092	-0.452404
H141	H	1.258347	0.563954	-0.435615
F142	F	0.986426	0.554748	0.175300
F143	F	1.111029	0.455711	-0.327838
H144	H	0.330325	0.932642	0.435672
F145	F	0.602249	0.707312	0.700173
H146	H	1.327238	0.631020	-0.423281
H147	H	0.923673	1.024903	0.009617
F148	F	0.602254	1.083470	0.076322
F149	F	0.320870	0.930831	-0.076303
H150	H	1.258297	0.698072	-0.301466
H151	H	0.330369	1.066698	0.301527
H152	H	0.468178	0.957193	0.192060
H153	H	0.468151	0.823117	0.326194
H154	H	0.963161	1.195361	-0.067022
H155	H	1.258391	0.195352	-0.067013
H156	H	1.120501	0.438984	0.067092
F157	F	0.941494	0.503227	0.379278
F158	F	0.242426	1.069444	-0.000025
H159	H	0.923685	1.134386	0.009604
F160	F	1.111002	0.303156	-0.175218
H161	H	1.327293	0.207688	0.000046
H162	H	0.665003	1.127647	-0.009550
H163	H	1.258337	0.195346	-0.301470
F164	F	1.111037	0.303135	-0.076262
F165	F	0.602251	0.707337	0.327872
F166	F	0.602254	1.331183	0.076323
F167	F	0.602259	1.455764	0.076314
F168	F	0.647222	1.251748	-0.010914
F169	F	0.986429	1.303155	-0.076275
F170	F	0.986419	0.930862	-0.076261
F171	F	0.986424	0.806273	-0.076272
H172	H	0.963157	0.563976	0.301578
H173	H	0.923666	0.518697	0.503402
H174	H	0.963156	0.563956	0.564385
F175	F	0.986416	0.554687	0.672183
H176	H	0.468188	0.698103	0.326167
H177	H	0.625514	0.698057	0.807974
H178	H	0.664999	0.743358	0.496659
F179	F	1.346290	0.192516	-0.438372
H180	H	0.625524	0.698088	0.435672
F181	F	0.477636	0.958909	0.076319
H182	H	0.330381	0.698117	0.435656
