data_functionalizedCrystal
_audit_creation_method	'MofGen! by Chris Wilmer'
_symmetry_space_group_name_H-M	'P1'
_symmetry_Int_Tables_number	1
_symmetry_cell_setting	triclinic
loop_
_symmetry_equiv_pos_as_xyz
  x,y,z
_cell_length_a	6.817900
_cell_length_b	15.866433
_cell_length_c	16.015572
_cell_angle_alpha	95.311397
_cell_angle_beta	104.485554
_cell_angle_gamma	102.657169
loop_
_atom_site_label
_atom_site_type_symbol
_atom_site_fract_x
_atom_site_fract_y
_atom_site_fract_z
V1	V	-3.996849	-0.034802	-0.280480
O2	O	-3.966436	0.088704	-0.236005
O3	O	-3.966359	-0.152710	-0.316201
O4	O	-3.927287	0.003922	-0.385635
O5	O	-4.005779	-0.069012	-0.166091
V6	V	-4.480898	-0.024541	-0.262226
O7	O	-4.256953	-0.057309	-0.320523
O8	O	-4.670992	-0.002034	-0.222184
O9	O	-4.288182	0.093367	-0.226505
O10	O	-4.628708	-0.148047	-0.306701
O11	O	-4.589365	0.009669	-0.376615
O12	O	-4.327254	-0.063265	-0.157071
C13	C	-3.816401	-0.182647	-0.321489
C14	C	-3.872618	-0.278793	-0.351396
C15	C	-3.979885	-0.401788	-0.468679
C16	C	-3.927059	-0.311446	-0.440568
C17	C	-3.870975	-0.336477	-0.290299
C18	C	-3.923787	-0.426823	-0.318397
C19	C	-3.978242	-0.459471	-0.407588
C20	C	-3.922144	-0.484505	-0.257307
C21	C	-3.974963	-0.574844	-0.285403
C22	C	-4.029425	-0.607499	-0.374590
C23	C	-4.031061	-0.549809	-0.435685
C24	C	-3.867703	-0.451856	-0.168117
C25	C	-3.866060	-0.509539	-0.107026
C26	C	-3.918865	-0.599878	-0.135122
C27	C	-3.973327	-0.632534	-0.224309
C28	C	-3.917230	-0.657568	-0.074027
C29	C	-3.970049	-0.747907	-0.102124
C30	C	-4.026146	-0.722872	-0.252406
C31	C	-3.766560	0.017153	-0.410057
C32	C	-3.791087	0.048034	-0.496269
C33	C	-4.121356	-0.226061	-0.961224
C34	C	-4.144403	-0.197016	-1.042220
C35	C	-4.044590	-0.046747	-0.969640
C36	C	-4.021523	-0.075780	-0.888636
C37	C	-4.059912	-0.165438	-0.884436
C38	C	-3.960080	-0.015156	-0.811848
C39	C	-3.937026	-0.044187	-0.730851
C40	C	-3.975416	-0.133841	-0.726642
C41	C	-4.036859	-0.194468	-0.803439
C42	C	-3.921706	0.074501	-0.816050
C43	C	-3.860263	0.135125	-0.739262
C44	C	-3.837194	0.106095	-0.658263
C45	C	-3.875584	0.016441	-0.654054
C46	C	-3.775751	0.166722	-0.581466
C47	C	-3.752698	0.137692	-0.500469
C48	C	-3.852530	-0.012590	-0.573058
C49	C	-4.101482	0.123299	-0.221217
C50	C	-4.024503	0.219445	-0.191315
C51	C	-4.151324	-0.076501	-0.132646
C52	C	-4.106035	-0.107377	-0.046431
H53	H	-3.824705	-0.378296	-0.145244
H54	H	-3.821725	-0.482944	-0.034407
H55	H	-3.883763	-0.085598	-0.569638
H56	H	-4.075377	-0.576392	-0.508312
Br57	Br	-3.808174	0.256800	-0.744972
H58	H	-4.024201	-0.428371	-0.541306
H59	H	-3.968706	-0.794874	-0.052378
Br60	Br	-3.723692	0.288396	-0.587180
H61	H	-3.956648	-0.157476	-0.660688
H62	H	-3.826640	-0.309882	-0.217680
H63	H	-4.072437	-0.681059	-0.397465
H64	H	-3.928440	-0.264482	-0.490323
H65	H	-3.872907	-0.630972	-0.001409
H66	H	-4.070463	-0.749455	-0.325033
Br67	Br	-4.088899	-0.316148	-0.797729
Br68	Br	-4.173396	-0.347741	-0.955514
Br69	Br	-4.227811	-0.279302	-1.146437
H70	H	-4.013346	0.026252	-0.973073
H71	H	-3.940449	0.098136	-0.882004
H72	H	-3.702666	0.187058	-0.437944
