data_functionalizedCrystal
_audit_creation_method	'MofGen! by Chris Wilmer'
_symmetry_space_group_name_H-M	'P1'
_symmetry_Int_Tables_number	1
_symmetry_cell_setting	triclinic
loop_
_symmetry_equiv_pos_as_xyz
  x,y,z
_cell_length_a	10.685661
_cell_length_b	10.685194
_cell_length_c	19.076919
_cell_angle_alpha	92.275516
_cell_angle_beta	91.910086
_cell_angle_gamma	89.666413
loop_
_atom_site_label
_atom_site_type_symbol
_atom_site_fract_x
_atom_site_fract_y
_atom_site_fract_z
Zn1	Zn	1.845152	-0.676334	0.447758
Zn2	Zn	1.838743	-0.877761	0.321179
Zn3	Zn	1.645023	-0.651989	0.322579
Zn4	Zn	1.620670	-0.868786	0.429915
O5	O	1.737397	-0.768717	0.380358
O6	O	2.019320	-0.716998	0.437849
O7	O	1.820555	-0.841380	0.223471
O8	O	1.684444	-0.480189	0.347238
O9	O	2.014612	-0.864986	0.344852
O10	O	1.831478	-0.498076	0.439206
O11	O	1.678230	-0.675506	0.224500
O12	O	1.466773	-0.666803	0.329936
O13	O	1.642938	-0.849689	0.530175
O14	O	1.448882	-0.826083	0.408795
O15	O	1.807864	-0.708295	0.543285
O16	O	1.796942	-1.051599	0.327550
O17	O	1.636724	-1.045005	0.407437
C18	C	1.412447	-0.742828	0.367581
C19	C	1.273428	-0.731784	0.362131
C20	C	1.713528	-1.093689	0.365422
C21	C	1.703429	-1.232724	0.359060
C22	C	2.063616	-0.794709	0.393185
C23	C	2.202631	-0.805785	0.398651
C24	C	1.723400	-0.780706	0.562822
C25	C	1.717435	-0.785816	0.640578
C26	C	1.761392	-0.442481	0.395369
C27	C	1.771617	-0.303458	0.401765
C28	C	1.751418	-0.756690	0.198610
C29	C	1.757651	-0.751248	0.120881
C30	C	1.800496	-0.714603	0.683934
C31	C	1.794877	-0.719397	0.756993
C32	C	1.706201	-0.795412	0.786695
C33	C	1.623131	-0.866627	0.743333
C34	C	1.628745	-0.861825	0.670275
C35	C	1.680196	-0.817661	1.004461
C36	C	1.674590	-0.822461	1.077525
C37	C	1.846335	-0.675229	1.091180
C38	C	1.851946	-0.670439	1.018120
C39	C	1.768872	-0.741649	0.974765
N40	N	1.700457	-0.800318	0.861373
N41	N	1.774611	-0.736736	0.900088
H42	H	1.227688	-0.659971	0.326700
Cl43	Cl	1.899353	-0.629928	0.811495
H44	H	1.637308	-1.278536	0.317631
Cl45	Cl	1.963430	-0.574874	0.980786
Cl46	Cl	1.911986	-0.619043	0.646602
Cl47	Cl	1.873684	-1.232740	0.465735
H48	H	1.913968	-0.617252	1.126487
H49	H	1.602375	-0.884364	1.101705
Cl50	Cl	1.575759	-0.907184	0.949967
H51	H	1.550925	-0.928515	0.767522
Cl52	Cl	1.524317	-0.951350	0.615770
H53	H	1.248377	-0.877592	0.434091
