data_functionalizedCrystal
_audit_creation_method	'MofGen! by Chris Wilmer'
_symmetry_space_group_name_H-M	'P1'
_symmetry_Int_Tables_number	1
_symmetry_cell_setting	triclinic
loop_
_symmetry_equiv_pos_as_xyz
  x,y,z
_cell_length_a	14.519709
_cell_length_b	17.038272
_cell_length_c	13.596369
_cell_angle_alpha	89.993837
_cell_angle_beta	90.000291
_cell_angle_gamma	87.395851
loop_
_atom_site_label
_atom_site_type_symbol
_atom_site_fract_x
_atom_site_fract_y
_atom_site_fract_z
O1	O	1.231711	0.102502	-0.081664
O2	O	0.964158	0.114573	-0.081694
O3	O	1.096344	-0.005280	-0.081671
O4	O	1.099525	0.222356	-0.081686
O5	O	1.096330	-0.005286	0.081912
O6	O	0.964143	0.114567	0.081889
O7	O	1.231696	0.102496	0.081919
Zn8	Zn	1.097918	0.108530	0.107877
Zn9	Zn	1.097937	0.108539	-0.107651
O10	O	1.099510	0.222349	0.081897
C11	C	0.929748	0.114008	0.000094
C12	C	0.827237	0.112322	0.000083
C13	C	0.451867	0.106116	0.000128
C14	C	0.556307	0.107839	0.000115
C15	C	0.639549	0.109219	0.000104
C16	C	0.743995	0.110942	0.000093
C17	C	1.093444	-0.034416	0.000120
C18	C	1.084814	-0.121223	0.000119
C19	C	1.164047	-0.171209	0.000129
C20	C	1.155933	-0.252773	0.000118
C21	C	1.068585	-0.284349	0.000105
C22	C	0.989347	-0.234357	0.000092
C23	C	0.997462	-0.152795	0.000096
C24	C	1.039916	-0.530153	0.000089
C25	C	1.031807	-0.611722	0.000088
C26	C	1.198394	-0.630132	0.000112
C27	C	1.206502	-0.548568	0.000122
C28	C	1.127263	-0.498583	0.000104
C29	C	1.060289	-0.367720	0.000098
C30	C	1.135560	-0.415213	0.000104
C31	C	1.266107	0.103062	0.000129
C32	C	1.368617	0.104748	0.000134
C33	C	1.102410	0.251486	0.000103
C34	C	1.111040	0.338292	0.000098
N35	N	1.097911	0.108524	0.254968
N36	N	1.097950	0.108539	-0.254743
C37	C	1.097936	0.108540	0.656259
C38	C	1.097926	0.108538	0.544608
C39	C	1.097924	0.108533	0.455617
C40	C	1.097913	0.108530	0.343959
H41	H	1.235175	-0.145506	0.000145
H42	H	0.975394	-0.489465	0.000074
C43	C	0.935722	-0.646464	0.000065
C44	C	0.868100	-0.627669	0.084991
C45	C	0.772023	-0.662416	0.084968
C46	C	0.743568	-0.715958	0.000020
C47	C	0.811191	-0.734755	-0.084913
C48	C	0.907268	-0.700008	-0.084890
H49	H	0.889163	-0.588032	0.147880
H50	H	0.721964	-0.648501	0.147841
H51	H	0.672446	-0.741679	0.000003
H52	H	0.790128	-0.774392	-0.147802
H53	H	0.957327	-0.713924	-0.147763
H54	H	0.918226	-0.260072	0.000075
H55	H	0.989170	-0.393438	0.000089
C56	C	1.285553	-0.685115	0.000122
C57	C	1.355390	-0.681484	-0.084815
C58	C	1.442554	-0.736467	-0.084809
C59	C	1.459880	-0.795081	0.000133
C60	C	1.390041	-0.798715	0.085076
C61	C	1.302878	-0.743732	0.085070
H62	H	1.342566	-0.638092	-0.147700
H63	H	1.494253	-0.733776	-0.147690
H64	H	1.524404	-0.835783	0.000136
H65	H	1.402866	-0.842107	0.147960
H66	H	1.251178	-0.746423	0.147951
C67	C	0.910305	-0.097806	0.000086
C68	C	0.840484	-0.101418	-0.084868
C69	C	0.753325	-0.046430	-0.084883
C70	C	0.735987	0.012170	0.000056
C71	C	0.805810	0.015785	0.085016
C72	C	0.892969	-0.039203	0.085032
H73	H	0.853318	-0.144800	-0.147751
H74	H	0.701638	-0.049106	-0.147777
H75	H	0.671466	0.052876	0.000044
H76	H	0.792976	0.059166	0.147899
H77	H	0.944656	-0.036527	0.147925
C78	C	1.302589	-0.513842	0.000121
C79	C	1.370188	-0.532663	0.085065
C80	C	1.466278	-0.497940	0.085065
C81	C	1.494769	-0.444395	0.000120
C82	C	1.427168	-0.425571	-0.084830
C83	C	1.331078	-0.460294	-0.084830
H84	H	1.349099	-0.572303	0.147952
H85	H	1.516320	-0.511875	0.147951
H86	H	1.565900	-0.418690	0.000120
H87	H	1.448257	-0.385931	-0.147717
H88	H	1.281036	-0.446359	-0.147716
H89	H	1.220453	-0.293468	0.000129
C90	C	1.231640	-0.380481	0.000121
C91	C	1.299227	-0.399293	0.085080
C92	C	1.395307	-0.364553	0.085102
C93	C	1.423802	-0.311001	0.000167
C94	C	1.356214	-0.292187	-0.084798
C95	C	1.260133	-0.326927	-0.084821
H96	H	1.278135	-0.438938	0.147960
H97	H	1.445340	-0.378481	0.147999
H98	H	1.494926	-0.285284	0.000183
H99	H	1.377306	-0.252542	-0.147678
H100	H	1.210100	-0.312999	-0.147718
