data_functionalizedCrystal
_audit_creation_method	'MofGen! by Chris Wilmer'
_symmetry_space_group_name_H-M	'P1'
_symmetry_Int_Tables_number	1
_symmetry_cell_setting	triclinic
loop_
_symmetry_equiv_pos_as_xyz
  x,y,z
_cell_length_a	17.640112
_cell_length_b	25.639239
_cell_length_c	17.640968
_cell_angle_alpha	101.231111
_cell_angle_beta	87.860920
_cell_angle_gamma	101.263838
loop_
_atom_site_label
_atom_site_type_symbol
_atom_site_fract_x
_atom_site_fract_y
_atom_site_fract_z
Zn1	Zn	1.247772	-0.015023	0.195080
Zn2	Zn	1.221957	-0.122899	0.068099
Zn3	Zn	1.095090	-0.049036	0.093726
Zn4	Zn	1.120701	-0.116017	0.220680
O5	O	1.171380	-0.075744	0.144396
O6	O	1.350622	-0.017980	0.156797
O7	O	1.183606	-0.130216	-0.034775
O8	O	1.115429	0.028654	0.107183
O9	O	1.331655	-0.097236	0.063504
O10	O	1.227604	0.053643	0.181647
O11	O	1.090397	-0.075949	-0.015946
O12	O	0.992213	-0.069275	0.132006
O13	O	1.159079	-0.085505	0.323557
O14	O	1.011029	-0.118485	0.225279
O15	O	1.252438	-0.011306	0.304749
O16	O	1.208439	-0.195165	0.088327
O17	O	1.134047	-0.190108	0.200429
C18	C	0.974065	-0.096824	0.184202
C19	C	0.889657	-0.105852	0.201249
C20	C	1.171245	-0.211606	0.144387
C21	C	1.171262	-0.269716	0.144395
C22	C	0.563036	-0.007149	0.014898
C23	C	0.483724	-0.015641	0.030927
C24	C	0.503337	-0.067003	0.127884
C25	C	0.582654	-0.058513	0.111866
C26	C	0.612496	-0.028586	0.055372
C27	C	0.632114	-0.079950	0.152340
C28	C	0.711422	-0.071463	0.136320
C29	C	0.741271	-0.041538	0.079827
C30	C	0.691805	-0.020099	0.039352
C31	C	0.602269	-0.109880	0.208830
C32	C	0.651729	-0.131317	0.249304
C33	C	0.731040	-0.122827	0.233288
C34	C	0.760888	-0.092902	0.176795
C35	C	0.780506	-0.144266	0.273763
C36	C	0.859815	-0.135779	0.257743
C37	C	0.840197	-0.084415	0.160775
C38	C	1.210259	-0.632657	0.086082
C39	C	1.210291	-0.687257	0.086087
O40	O	1.243308	-0.717705	0.036496
N41	N	1.171523	-0.711960	0.144420
C42	C	1.132728	-0.682060	0.202757
O43	O	1.099757	-0.708086	0.252374
C44	C	1.132702	-0.627461	0.202755
C45	C	1.171465	-0.602761	0.144414
C46	C	1.249020	-0.607957	0.027746
C47	C	1.248988	-0.553362	0.027742
C48	C	1.210194	-0.523466	0.086073
C49	C	1.171433	-0.548166	0.144409
C50	C	1.093912	-0.597561	0.261094
C51	C	1.093890	-0.542958	0.261088
C52	C	1.132653	-0.518258	0.202747
C53	C	1.132606	-0.463675	0.202735
N54	N	1.171373	-0.438971	0.144402
C55	C	1.210167	-0.468867	0.086071
C56	C	1.132788	-0.796723	0.202757
C57	C	1.132809	-0.851323	0.202756
C58	C	1.210373	-0.856515	0.086087
C59	C	1.210347	-0.801915	0.086085
C60	C	1.171556	-0.772019	0.144424
C61	C	1.210095	-0.354212	0.086065
C62	C	1.210056	-0.299612	0.086064
C63	C	1.132496	-0.294424	0.202735
C64	C	1.132531	-0.349020	0.202735
C65	C	1.171336	-0.378912	0.144396
O66	O	1.099609	-0.433192	0.252303
O67	O	1.243141	-0.442832	0.036467
C68	C	1.369465	-0.054581	0.104436
C69	C	1.453877	-0.045563	0.087407
C70	C	1.211495	-0.043844	0.342479
C71	C	1.228589	-0.030250	0.426890
C72	C	1.171539	0.060653	0.144418
C73	C	1.171607	0.118778	0.144427
C74	C	1.131465	-0.107478	-0.052925
C75	C	1.114517	-0.120908	-0.137365
C76	C	1.041806	-0.178700	0.753464
C77	C	1.057885	-0.165918	0.832778
C78	C	1.155091	-0.088661	0.813184
C79	C	1.139017	-0.101435	0.733867
C80	C	1.082375	-0.146456	0.704014
C81	C	1.179586	-0.069190	0.684417
C82	C	1.163517	-0.081965	0.605107
C83	C	1.106878	-0.126985	0.575247
C84	C	1.066305	-0.159230	0.624704
C85	C	1.236233	-0.024172	0.714271
C86	C	1.276802	0.008072	0.664821
C87	C	1.260728	-0.004700	0.585510
C88	C	1.204090	-0.049719	0.555650
C89	C	1.301302	0.027546	0.536054
C90	C	1.285232	0.014771	0.456743
C91	C	1.188020	-0.062494	0.476340
H92	H	0.864498	-0.060036	0.114783
H93	H	1.318266	0.041029	0.416480
O94	O	0.818309	-0.033390	0.064255
C95	C	0.840788	-0.083809	0.039255
H96	H	0.797684	-0.116754	0.061391
H97	H	0.842073	-0.093496	-0.026601
C98	C	0.974774	-0.040831	0.043813
C99	C	0.921836	-0.081295	0.071008
H100	H	1.024770	-0.039280	0.063397
H101	H	0.959630	-0.006863	0.060654
H102	H	0.975835	-0.048909	-0.011065
H103	H	0.920769	-0.073214	0.125884
H104	H	0.936982	-0.115262	0.054177
H105	H	1.280615	-0.632292	-0.019755
O106	O	0.986881	-0.222498	0.724464
C107	C	1.007346	-0.269718	0.740502
H108	H	1.072427	-0.262354	0.750081
H109	H	0.975928	-0.280334	0.794741
C110	C	0.904295	-0.325950	0.660049
C111	C	0.984229	-0.316907	0.671807
H112	H	0.890032	-0.355059	0.617677
H113	H	0.890504	-0.294137	0.649246
H114	H	0.878123	-0.334794	0.705253
H115	H	1.010400	-0.308056	0.626607
H116	H	0.998024	-0.348719	0.682601
O117	O	0.907855	-0.156530	0.297175
C118	C	0.903825	-0.135069	0.376806
H119	H	0.882846	-0.095000	0.385148
H120	H	0.861787	-0.164864	0.405890
C121	C	1.010317	-0.174715	0.402992
C122	C	0.984556	-0.125500	0.413236
H123	H	1.060115	-0.168814	0.425465
H124	H	1.013031	-0.189175	0.349343
H125	H	0.975279	-0.199539	0.427228
H126	H	1.019589	-0.100679	0.388992
H127	H	0.981851	-0.111035	0.466882
O128	O	1.248071	-0.778001	0.029376
C129	C	1.282294	-0.816107	-0.022117
H130	H	1.291213	-0.849728	0.008472
H131	H	1.242845	-0.834207	-0.074213
C132	C	1.349963	-0.746569	-0.086880
C133	C	1.360924	-0.787861	-0.049308
H134	H	1.398464	-0.729146	-0.103657
H135	H	1.326904	-0.720896	-0.052191
H136	H	1.317086	-0.761658	-0.130289
H137	H	1.393792	-0.772770	-0.005895
H138	H	1.383990	-0.813531	-0.083992
H139	H	1.062302	-0.518618	0.308597
H140	H	1.241621	-0.279504	0.038553
O141	O	1.286525	-0.529374	-0.028987
C142	C	1.233385	-0.510343	-0.069359
H143	H	1.172620	-0.533990	-0.062034
H144	H	1.235490	-0.465458	-0.045361
C145	C	1.329210	-0.489202	-0.164770
C146	C	1.254577	-0.518249	-0.155779
H147	H	1.342283	-0.494076	-0.218077
H148	H	1.365013	-0.502021	-0.137570
H149	H	1.330955	-0.451800	-0.144767
H150	H	1.252836	-0.555650	-0.175773
H151	H	1.218774	-0.505436	-0.182985
O152	O	1.095028	-0.767770	0.259465
C153	C	1.060837	-0.801285	0.310956
H154	H	1.051959	-0.845501	0.280367
H155	H	1.100288	-0.794800	0.363056
C156	C	0.993095	-0.732617	0.375713
C157	C	0.982184	-0.786924	0.338141
H158	H	0.944579	-0.723758	0.392486
H159	H	1.016132	-0.710037	0.341025
H160	H	1.025973	-0.727221	0.419125
H161	H	0.949315	-0.792319	0.294726
H162	H	0.959139	-0.809505	0.372823
H163	H	1.020163	-0.195880	0.600400
O164	O	1.091404	-0.139384	0.498178
C165	C	1.158796	-0.149320	0.456986
H166	H	1.211812	-0.128350	0.493859
H167	H	1.157504	-0.194805	0.442586
C168	C	1.097425	-0.152815	0.336345
C169	C	1.162541	-0.127055	0.381630
H170	H	1.099734	-0.139084	0.289860
H171	H	1.052020	-0.146123	0.364096
H172	H	1.096356	-0.190718	0.324353
H173	H	1.163604	-0.089155	0.393630
H174	H	1.207946	-0.133741	0.353880
H175	H	1.347425	0.064198	0.560372
O176	O	0.622716	-0.160300	0.304270
C177	C	0.586802	-0.127579	0.362641
H178	H	0.611704	-0.083072	0.362600
H179	H	0.521938	-0.135966	0.351303
C180	C	0.570972	-0.195289	0.441823
C181	C	0.601561	-0.140626	0.441777
H182	H	0.580072	-0.203339	0.490638
H183	H	0.595165	-0.217335	0.402496
H184	H	0.516920	-0.202272	0.432371
H185	H	0.655613	-0.133645	0.451219
H186	H	0.577377	-0.118579	0.481107
H187	H	1.241696	-0.378544	0.038561
O188	O	1.331922	0.051755	0.693768
C189	C	1.403669	0.045302	0.659093
H190	H	1.403043	0.000424	0.636511
H191	H	1.414219	0.068044	0.609054
C192	C	1.469403	0.123273	0.747052
C193	C	1.468637	0.068153	0.719322
H194	H	1.509480	0.137370	0.784202
H195	H	1.421066	0.127622	0.770412
H196	H	1.478192	0.142217	0.705347
H197	H	1.459838	0.049208	0.761026
H198	H	1.516974	0.063801	0.695971
H199	H	1.100970	-0.369130	0.250243
O200	O	1.018584	-0.197278	0.880831
C201	C	1.071077	-0.219032	0.917995
H202	H	1.126043	-0.219727	0.882022
H203	H	1.085891	-0.192900	0.977575
C204	C	0.966647	-0.276307	0.970885
C205	C	1.034154	-0.277164	0.926699
H206	H	0.943870	-0.312165	0.976257
H207	H	0.931280	-0.261650	0.945849
H208	H	0.979001	-0.254528	1.020530
H209	H	1.021797	-0.298938	0.877052
H210	H	1.069517	-0.291827	0.951726
H211	H	1.249316	-0.013774	0.778851
H212	H	1.201211	-0.052007	0.837501
H213	H	0.716106	0.004281	-0.006640
O214	O	0.525212	-0.118224	0.224313
C215	C	0.494714	-0.174316	0.210044
H216	H	0.533692	-0.196342	0.167658
H217	H	0.491506	-0.189887	0.266589
C218	C	0.365209	-0.157750	0.227387
C219	C	0.413078	-0.184802	0.175323
H220	H	0.314850	-0.164219	0.205974
H221	H	0.385755	-0.119960	0.237004
H222	H	0.362544	-0.170729	0.274505
H223	H	0.415750	-0.171819	0.128211
H224	H	0.392530	-0.222590	0.165698
H225	H	0.587337	0.017230	-0.031094
H226	H	0.479028	-0.091371	0.173879
O227	O	0.435734	0.005154	-0.008506
C228	C	0.439728	-0.016324	-0.088135
H229	H	0.496968	-0.030521	-0.101401
H230	H	0.389874	-0.052088	-0.104758
C231	C	0.363809	0.045141	-0.118449
C232	C	0.434116	0.027709	-0.134743
H233	H	0.360344	0.072301	-0.147200
H234	H	0.361116	0.059610	-0.064801
H235	H	0.322272	0.015333	-0.132302
H236	H	0.475651	0.057514	-0.120881
H237	H	0.436817	0.013246	-0.188390
O238	O	0.751491	-0.173253	0.328724
C239	C	0.715572	-0.140537	0.387097
H240	H	0.740473	-0.096029	0.387065
H241	H	0.650708	-0.148925	0.375755
C242	C	0.699737	-0.208256	0.466266
C243	C	0.730325	-0.153591	0.466231
H244	H	0.708834	-0.216310	0.515079
H245	H	0.723933	-0.230299	0.426938
H246	H	0.645686	-0.215239	0.456810
H247	H	0.784376	-0.146610	0.475677
H248	H	0.706138	-0.131547	0.505562
H249	H	1.100907	-0.270075	0.250226
O250	O	1.095262	-0.875353	0.259442
C251	C	1.148419	-0.894355	0.299833
H252	H	1.200583	-0.900657	0.261482
H253	H	1.168107	-0.863336	0.354439
C254	C	1.045359	-0.940758	0.369099
C255	C	1.109424	-0.948503	0.321993
H256	H	1.021305	-0.974157	0.382773
H257	H	1.009545	-0.927955	0.341889
H258	H	1.061775	-0.914907	0.414598
H259	H	1.093007	-0.974348	0.276491
H260	H	1.145234	-0.961312	0.349196
H261	H	1.241964	-0.880865	0.038592
H262	H	1.062342	-0.617662	0.308599
H263	H	1.141878	-0.099144	0.452036
