data_functionalizedCrystal
_audit_creation_method	'MofGen! by Chris Wilmer'
_symmetry_space_group_name_H-M	'P1'
_symmetry_Int_Tables_number	1
_symmetry_cell_setting	triclinic
loop_
_symmetry_equiv_pos_as_xyz
  x,y,z
_cell_length_a	12.759401
_cell_length_b	15.297327
_cell_length_c	12.759393
_cell_angle_alpha	99.641342
_cell_angle_beta	89.982620
_cell_angle_gamma	99.706546
loop_
_atom_site_label
_atom_site_type_symbol
_atom_site_fract_x
_atom_site_fract_y
_atom_site_fract_z
Zn1	Zn	1.533786	-0.359100	-0.666296
Zn2	Zn	1.503239	-0.509988	-0.521002
Zn3	Zn	1.358082	-0.359148	-0.490645
Zn4	Zn	1.327646	-0.509918	-0.696629
O5	O	1.430688	-0.434539	-0.593643
O6	O	1.676753	-0.379125	-0.647032
O7	O	1.483937	-0.490028	-0.369964
O8	O	1.406912	-0.232897	-0.488547
O9	O	1.654310	-0.489982	-0.540285
O10	O	1.536001	-0.232862	-0.617597
O11	O	1.377291	-0.379207	-0.347661
O12	O	1.207026	-0.379139	-0.517960
O13	O	1.355037	-0.489863	-0.839617
O14	O	1.184664	-0.489909	-0.669295
O15	O	1.506488	-0.379057	-0.817331
O16	O	1.454424	-0.636224	-0.569698
O17	O	1.325417	-0.636172	-0.698730
C18	C	1.157724	-0.434522	-0.593625
C19	C	1.040945	-0.434537	-0.593647
C20	C	0.974448	-0.492307	-0.672355
C21	C	0.864722	-0.492319	-0.672369
C22	C	0.887999	-0.376787	-0.514957
C23	C	0.997724	-0.376771	-0.514949
C24	C	1.017669	-0.550072	-0.751053
C25	C	0.951171	-0.607848	-0.829767
C26	C	0.841444	-0.607860	-0.829781
C27	C	0.798216	-0.550095	-0.751081
C28	C	1.383331	-0.668932	-0.640823
C29	C	1.363168	-0.769206	-0.661041
C30	C	1.575233	-1.051845	-0.449495
C31	C	1.594176	-0.957632	-0.430493
C32	C	1.536426	-0.910521	-0.488128
C33	C	1.459728	-0.957632	-0.564769
C34	C	1.440776	-1.051854	-0.583767
C35	C	1.401970	-0.910530	-0.622401
C36	C	1.325272	-0.957641	-0.699041
C37	C	1.306324	-1.051854	-0.718036
C38	C	1.364075	-1.098965	-0.660401
C39	C	1.420922	-0.816308	-0.603403
C40	C	1.286466	-0.816317	-0.737675
C41	C	1.267522	-0.910530	-0.756677
C42	C	1.704718	-0.434556	-0.593661
C43	C	1.821493	-0.434563	-0.593669
C44	C	1.430775	-0.434447	-0.867658
C45	C	1.430812	-0.434408	-0.984427
C46	C	1.478259	-0.199230	-0.546302
C47	C	1.498531	-0.098956	-0.526128
C48	C	1.375312	-0.376692	-1.027680
C49	C	1.375349	-0.376665	-1.137398
C50	C	1.486395	-0.492072	-1.160602
C51	C	1.486351	-0.492103	-1.050886
C52	C	1.319773	-0.318997	-0.961220
C53	C	1.264270	-0.261276	-1.004472
C54	C	1.264307	-0.261250	-1.114191
C55	C	1.319848	-0.318944	-1.180658
C56	C	1.430675	-0.434565	-0.320681
C57	C	1.430893	-0.434350	-0.203862
H58	H	1.107012	-0.550071	-0.751050
O59	O	1.319981	-0.318729	-1.298961
H60	H	1.402956	-0.300431	-1.324092
O61	O	1.343635	-1.200584	-0.680882
H62	H	1.417887	-1.225357	-0.707169
O63	O	1.224174	-0.765519	-0.799853
H64	H	1.250246	-0.692090	-0.773777
O65	O	0.997789	-0.670131	-0.914667
H66	H	1.085260	-0.660419	-0.901437
O67	O	0.769697	-0.670265	-0.914580
H68	H	0.818182	-0.710467	-0.969260
O69	O	0.679866	-0.550113	-0.751081
H70	H	0.640884	-0.599995	-0.819028
O71	O	0.841376	-0.314511	-0.430053
H72	H	0.753903	-0.324241	-0.443270
O73	O	1.204449	-0.198997	-1.160848
H74	H	1.165833	-0.158881	-1.096198
O75	O	1.069456	-0.314472	-0.430052
H76	H	1.020968	-0.274318	-0.375318
H77	H	1.483370	-0.777959	-0.541001
H78	H	1.551854	-0.833809	-0.472651
O79	O	1.676903	-0.906819	-0.347847
H80	H	1.713886	-0.955403	-0.310970
H81	H	1.319739	-0.319011	-0.871880
O82	O	1.204373	-0.199048	-0.932790
H83	H	1.142744	-0.239427	-0.890909
H84	H	1.205073	-0.948901	-0.819078
H85	H	1.531616	-0.539042	-1.214727
O86	O	1.546219	-0.554344	-1.004221
H87	H	1.584862	-0.594446	-1.068862
H88	H	1.243859	-1.090209	-0.780430
O89	O	1.637541	-1.102653	-0.387361
H90	H	1.611489	-1.176081	-0.413462
