data_functionalizedCrystal
_audit_creation_method	'MofGen! by Chris Wilmer'
_symmetry_space_group_name_H-M	'P1'
_symmetry_Int_Tables_number	1
_symmetry_cell_setting	triclinic
loop_
_symmetry_equiv_pos_as_xyz
  x,y,z
_cell_length_a	15.944545
_cell_length_b	15.944493
_cell_length_c	14.421503
_cell_angle_alpha	90.010165
_cell_angle_beta	89.995153
_cell_angle_gamma	83.485608
loop_
_atom_site_label
_atom_site_type_symbol
_atom_site_fract_x
_atom_site_fract_y
_atom_site_fract_z
O1	O	1.114510	0.108298	-0.077039
O2	O	0.869957	0.121660	-0.077053
O3	O	0.998937	-0.007299	-0.077053
O4	O	0.985530	0.237258	-0.077039
O5	O	0.998916	-0.007280	0.077170
O6	O	0.869935	0.121680	0.077171
O7	O	1.114489	0.108317	0.077184
Cu8	Cu	0.992210	0.115000	0.091259
Cu9	Cu	0.992235	0.114978	-0.091128
O10	O	0.985508	0.237277	0.077185
C11	C	0.838652	0.121116	0.000057
C12	C	0.745406	0.119456	0.000051
C13	C	0.474791	0.034560	0.000056
C14	C	0.525354	0.075499	0.076101
C15	C	0.409764	0.113535	0.000067
C16	C	0.525355	0.075502	-0.075951
C17	C	0.574677	0.116440	0.000057
C18	C	0.459098	0.154453	0.076174
C19	C	0.459096	0.154444	-0.075946
C20	C	0.509626	0.195442	0.000117
C21	C	0.314762	0.111860	0.000073
C22	C	0.669676	0.118122	0.000058
C23	C	0.998378	-0.038584	0.000054
C24	C	0.996735	-0.131833	0.000042
C25	C	1.072656	-0.367594	0.000064
C26	C	1.031726	-0.418171	-0.075978
C27	C	0.993691	-0.302554	0.000054
C28	C	1.031686	-0.418128	0.076074
C29	C	0.990757	-0.467463	0.000068
C30	C	0.952782	-0.351902	-0.076051
C31	C	0.952754	-0.351856	0.076069
C32	C	0.911766	-0.402400	0.000009
C33	C	0.995384	-0.207554	0.000044
C34	C	0.989058	-0.562460	0.000071
C35	C	1.145793	0.108862	0.000072
C36	C	1.239039	0.110522	0.000072
C37	C	0.986067	0.268562	0.000075
C38	C	0.987710	0.361811	0.000081
N39	N	0.992198	0.115016	0.219540
N40	N	0.992254	0.114956	-0.219409
C41	C	0.932548	0.174620	0.469194
C42	C	1.008444	0.190926	0.531003
C43	C	0.992219	0.114996	0.408702
C44	C	0.916342	0.098709	0.530987
C45	C	0.992232	0.114978	0.591423
C46	C	1.068154	0.131339	0.469149
C47	C	0.976001	0.039090	0.469129
C48	C	1.051953	0.055364	0.530909
C49	C	0.992210	0.115008	0.303441
C50	C	0.992249	0.114965	0.696682
H51	H	0.554289	0.042127	-0.140237
H52	H	0.852168	0.084942	0.558153
C53	C	1.076124	-0.456938	-0.161663
C54	C	1.073277	-0.544380	-0.160950
C55	C	1.114162	-0.580115	-0.239871
H56	H	1.133272	-0.445387	-0.161666
H57	H	1.048627	-0.433423	-0.215684
H58	H	1.100776	-0.567887	-0.106942
H59	H	1.016140	-0.555955	-0.160960
H60	H	1.086665	-0.556600	-0.293892
H61	H	1.171307	-0.568557	-0.239867
H62	H	1.112229	-0.639446	-0.239402
H63	H	0.459152	-0.033454	0.000126
C64	C	0.821061	-0.423201	-0.000000
C65	C	0.820462	-0.510940	0.000780
C66	C	0.736922	-0.530136	0.000779
H67	H	0.793066	-0.400382	-0.054040
H68	H	0.792797	-0.399533	0.053525
H69	H	0.848714	-0.534599	-0.052740
H70	H	0.848440	-0.533779	0.054816
H71	H	0.708658	-0.506468	0.054304
H72	H	0.708934	-0.507312	-0.053262
H73	H	0.736504	-0.589668	0.001317
C74	C	1.153813	0.149774	0.433274
C75	C	1.206999	0.161180	0.508375
C76	C	1.285914	0.178155	0.475361
H77	H	1.147188	0.199592	0.396642
H78	H	1.177900	0.103722	0.396576
H79	H	1.182917	0.207229	0.545058
H80	H	1.213648	0.111372	0.545014
H81	H	1.310001	0.132103	0.438663
H82	H	1.279280	0.227972	0.438730
H83	H	1.322012	0.185889	0.526312
C84	C	1.076155	-0.456854	0.161716
C85	C	1.073354	-0.544302	0.161002
C86	C	1.114326	-0.580004	0.239868
H87	H	1.048715	-0.433363	0.215780
H88	H	1.133299	-0.445255	0.161624
H89	H	1.016221	-0.555895	0.161103
H90	H	1.100799	-0.567817	0.106955
H91	H	1.171470	-0.568405	0.239776
H92	H	1.086881	-0.556507	0.293926
H93	H	1.112437	-0.639342	0.239389
C94	C	0.420827	0.198970	0.162029
C95	C	0.484948	0.228174	0.215301
C96	C	0.449723	0.269193	0.294390
H97	H	0.392694	0.160592	0.197676
H98	H	0.381576	0.245377	0.143892
H99	H	0.524185	0.181774	0.233439
H100	H	0.513086	0.266563	0.179682
H101	H	0.410472	0.315599	0.276253
H102	H	0.421591	0.230809	0.330028
H103	H	0.493222	0.289019	0.330540
H104	H	0.525104	0.263508	0.000166
C105	C	0.908457	-0.313284	0.161899
C106	C	0.950090	-0.346989	0.241309
C107	C	0.909323	-0.311468	0.320399
H108	H	0.851613	-0.325783	0.162573
H109	H	0.909420	-0.253822	0.161016
H110	H	0.949119	-0.406438	0.242192
H111	H	1.006933	-0.334491	0.240666
H112	H	0.910286	-0.252005	0.319516
H113	H	0.852479	-0.323969	0.321063
H114	H	0.937569	-0.334325	0.374287
C115	C	1.026586	0.276574	0.567198
C116	C	0.963911	0.338767	0.535956
C117	C	0.980583	0.417676	0.569287
H118	H	1.080048	0.288665	0.545137
H119	H	1.026931	0.275827	0.633070
H120	H	0.963574	0.339517	0.470098
H121	H	0.910443	0.326705	0.558015
H122	H	0.980929	0.416928	0.635159
H123	H	1.034047	0.429758	0.547224
H124	H	0.938057	0.459882	0.548102
H125	H	0.919462	-0.323090	-0.140407
H126	H	0.430152	0.187760	-0.140234
C127	C	0.564060	0.030951	0.161705
C128	C	0.622465	-0.036827	0.134511
C129	C	0.658141	-0.077883	0.213340
H130	H	0.520876	0.010519	0.197813
H131	H	0.591842	0.069511	0.197512
H132	H	0.594684	-0.075380	0.098719
H133	H	0.665665	-0.016418	0.098413
H134	H	0.685923	-0.039323	0.249147
H135	H	0.614951	-0.098309	0.249443
H136	H	0.697778	-0.123870	0.194900
C137	C	1.163350	-0.346760	-0.000243
C138	C	1.204323	-0.380456	-0.080057
C139	C	1.287859	-0.361252	-0.080393
H140	H	1.191795	-0.370401	0.053160
H141	H	1.163776	-0.287226	0.000251
H142	H	1.203902	-0.439978	-0.080542
H143	H	1.175903	-0.356820	-0.133472
H144	H	1.288285	-0.301718	-0.079899
H145	H	1.316296	-0.384895	-0.026987
H146	H	1.315667	-0.384105	-0.134549
C147	C	0.865349	0.241826	0.432867
C148	C	0.865700	0.240455	0.335793
C149	C	0.803806	0.302346	0.302295
H150	H	0.876940	0.295766	0.453955
H151	H	0.811526	0.230789	0.454896
H152	H	0.919510	0.251498	0.313774
H153	H	0.854098	0.186530	0.314681
H154	H	0.749983	0.291309	0.324323
H155	H	0.815403	0.356281	0.323389
H156	H	0.804031	0.301419	0.236428
H157	H	1.102476	0.004931	0.557837
C158	C	0.957492	-0.046425	0.432903
C159	C	0.877926	-0.063138	0.464161
C160	C	0.860831	-0.141900	0.430796
H161	H	0.999257	-0.088978	0.454931
H162	H	0.958090	-0.045957	0.367031
H163	H	0.877334	-0.063613	0.530019
H164	H	0.836144	-0.020606	0.442136
H165	H	0.861429	-0.141432	0.364924
H166	H	0.902601	-0.184446	0.452826
H167	H	0.806841	-0.153247	0.451993
