data_functionalizedCrystal
_audit_creation_method	'MofGen! by Chris Wilmer'
_symmetry_space_group_name_H-M	'P1'
_symmetry_Int_Tables_number	1
_symmetry_cell_setting	triclinic
loop_
_symmetry_equiv_pos_as_xyz
  x,y,z
_cell_length_a	17.699083
_cell_length_b	15.538191
_cell_length_c	16.176319
_cell_angle_alpha	89.995479
_cell_angle_beta	90.000958
_cell_angle_gamma	114.722446
loop_
_atom_site_label
_atom_site_type_symbol
_atom_site_fract_x
_atom_site_fract_y
_atom_site_fract_z
O1	O	-0.971508	0.119201	-0.068618
O2	O	-0.746892	0.134709	-0.068647
O3	O	-0.902923	-0.010274	-0.068631
O4	O	-0.815476	0.264185	-0.068634
O5	O	-0.902910	-0.010284	0.068862
O6	O	-0.746878	0.134700	0.068846
O7	O	-0.971494	0.119192	0.068875
Cu8	Cu	-0.859185	0.126945	0.081415
Cu9	Cu	-0.859201	0.126956	-0.081187
O10	O	-0.815463	0.264175	0.068859
C11	C	-0.718840	0.134149	0.000096
C12	C	-0.635277	0.132482	0.000085
C13	C	-0.912066	-0.045395	0.000114
C14	C	-0.939318	-0.150032	0.000109
C15	C	-0.563403	0.217584	0.000084
C16	C	-0.484889	0.216012	0.000094
C17	C	-0.478252	0.129337	0.000099
C18	C	-0.550134	0.044228	0.000103
C19	C	-0.628646	0.045801	0.000099
C20	C	-0.233505	0.037882	0.000121
C21	C	-0.154985	0.036316	0.000123
C22	C	-0.089748	0.208094	0.000116
C23	C	-0.168260	0.209667	0.000112
C24	C	-0.240135	0.124558	0.000120
C25	C	-0.325269	0.126264	0.000111
C26	C	-0.393120	0.127630	0.000103
C27	C	-0.668571	-0.437202	0.000093
C28	C	-0.694198	-0.535527	0.000098
C29	C	-0.838344	-0.558300	0.000116
C30	C	-0.812729	-0.459975	0.000107
C31	C	-0.727842	-0.399434	0.000096
C32	C	-0.872000	-0.422207	0.000110
C33	C	-0.846387	-0.323891	0.000105
C34	C	-0.761503	-0.263343	0.000097
C35	C	-0.702229	-0.301118	0.000091
C36	C	-0.956887	-0.482750	0.000126
C37	C	-1.016158	-0.444981	0.000130
C38	C	-0.990545	-0.346663	0.000119
C39	C	-0.905661	-0.286116	0.000111
C40	C	-1.049819	-0.308889	0.000125
C41	C	-1.024206	-0.210573	0.000120
C42	C	-0.880048	-0.187800	0.000106
C43	C	0.000454	0.119752	0.000128
C44	C	-0.083109	0.121419	0.000127
C45	C	-0.806321	0.299297	0.000112
C46	C	-0.779068	0.403933	0.000112
N47	N	-0.859180	0.126937	0.195780
N48	N	-0.859215	0.126957	-0.195552
C49	C	-0.928279	0.062764	0.239051
C50	C	-0.928283	0.062763	0.325598
C51	C	-0.859189	0.126940	0.368873
C52	C	-0.790084	0.191116	0.325595
C53	C	-0.790078	0.191111	0.239050
C54	C	-0.790105	0.191133	0.674624
C55	C	-0.790117	0.191135	0.761175
C56	C	-0.928310	0.062785	0.761172
C57	C	-0.928304	0.062781	0.674627
C58	C	-0.859197	0.126953	0.631357
C59	C	-0.859193	0.126952	0.537513
C60	C	-0.859195	0.126946	0.462715
H61	H	-0.568797	0.288165	0.000079
N62	N	-0.012214	0.299883	0.000133
H63	H	-0.011626	0.337697	0.051103
H64	H	-0.011643	0.337646	-0.050868
N65	N	-0.715566	0.260348	0.627971
H66	H	-0.705905	0.327235	0.643025
H67	H	-0.726083	0.250532	0.566591
H68	H	-0.149589	-0.034270	0.000128
N69	N	-1.088132	-0.169832	0.000128
H70	H	-1.080709	-0.129555	0.051100
H71	H	-1.145761	-0.223158	0.000105
N72	N	-1.002790	-0.006464	0.192371
H73	H	-1.026419	0.029494	0.156450
H74	H	-1.046511	-0.047110	0.232964
H75	H	-0.292019	-0.031418	0.000128
H76	H	-0.733850	0.243397	0.796408
N77	N	-1.002827	-0.006434	0.627952
H78	H	-1.046603	-0.047089	0.668498
H79	H	-0.985286	-0.048061	0.592052
N80	N	-1.002828	-0.006419	0.372270
H81	H	-1.046605	-0.047059	0.331724
H82	H	-1.026361	0.029657	0.408155
N83	N	-1.002848	-0.006433	0.807841
H84	H	-0.992371	0.003301	0.869234
H85	H	-1.012479	-0.073291	0.792719
H86	H	-0.740650	-0.183289	0.000098
N87	N	-0.715552	0.260333	0.192377
H88	H	-0.726031	0.250591	0.130985
H89	H	-0.664834	0.249526	0.207514
N90	N	-0.630268	-0.576266	0.000087
H91	H	-0.637676	-0.616550	0.051058
H92	H	-0.572638	-0.522941	0.000048
H93	H	-0.173657	0.280246	0.000104
H94	H	-1.085273	-0.494287	0.000141
H95	H	-0.733824	0.243367	0.360834
H96	H	-0.544725	-0.026345	0.000119
H97	H	-0.687169	-0.023498	0.000099
H98	H	-0.426369	0.285311	0.000092
H99	H	-0.907460	-0.607605	0.000128
N100	N	-0.610671	-0.235809	0.000067
H101	H	-0.577006	-0.274651	0.000060
H102	H	-0.596897	-0.194520	0.051034
N103	N	-0.577017	-0.371881	0.000098
H104	H	-0.563180	-0.330573	-0.050868
H105	H	-0.543402	-0.410777	0.000129
H106	H	-0.810924	-0.138503	0.000091
H107	H	-0.977738	-0.562804	0.000123
H108	H	-1.118934	-0.358196	0.000141
