data_functionalizedCrystal
_audit_creation_method	'MofGen! by Chris Wilmer'
_symmetry_space_group_name_H-M	'P1'
_symmetry_Int_Tables_number	1
_symmetry_cell_setting	triclinic
loop_
_symmetry_equiv_pos_as_xyz
  x,y,z
_cell_length_a	12.645331
_cell_length_b	29.839131
_cell_length_c	12.645323
_cell_angle_alpha	89.967288
_cell_angle_beta	89.977178
_cell_angle_gamma	90.041634
loop_
_atom_site_label
_atom_site_type_symbol
_atom_site_fract_x
_atom_site_fract_y
_atom_site_fract_z
Zn1	Zn	1.620556	-0.178847	-0.599393
Zn2	Zn	1.620365	-0.253979	-0.422108
Zn3	Zn	1.443271	-0.178864	-0.422137
Zn4	Zn	1.443179	-0.253951	-0.599323
O5	O	1.531843	-0.216410	-0.510740
O6	O	1.768878	-0.188818	-0.575893
O7	O	1.596831	-0.244033	-0.273765
O8	O	1.466907	-0.115995	-0.445691
O9	O	1.768737	-0.244017	-0.445643
O10	O	1.597158	-0.115982	-0.575920
O11	O	1.466721	-0.188847	-0.273785
O12	O	1.294912	-0.188820	-0.445624
O13	O	1.466751	-0.243970	-0.747680
O14	O	1.294844	-0.243986	-0.575802
O15	O	1.597069	-0.188791	-0.747731
O16	O	1.596742	-0.316842	-0.445576
O17	O	1.466565	-0.316822	-0.575775
C18	C	1.256413	-0.216402	-0.510709
C19	C	1.138583	-0.216410	-0.510721
C20	C	1.093708	-0.181650	-0.428959
C21	C	0.971148	-0.181522	-0.429239
C22	C	0.970766	-0.203784	-0.622632
C23	C	1.093364	-0.203524	-0.622122
C24	C	1.093322	-0.263898	-0.481627
C25	C	0.970714	-0.263650	-0.479201
C26	C	1.531651	-0.333133	-0.510688
C27	C	1.531667	-0.383067	-0.510701
C28	C	1.599749	-0.692709	-0.443045
C29	C	1.599880	-0.880382	-0.443086
O30	O	1.657615	-0.904645	-0.385522
N31	N	1.532063	-0.903852	-0.510820
C32	C	1.464212	-0.880402	-0.578554
O33	O	1.406540	-0.904671	-0.636175
C34	C	1.464088	-0.692730	-0.578517
C35	C	1.531902	-0.669261	-0.510771
C36	C	1.667559	-0.669240	-0.375305
C37	C	1.667522	-0.622325	-0.375291
C38	C	1.599675	-0.598878	-0.443017
C39	C	1.531865	-0.622346	-0.510757
C40	C	1.396244	-0.669280	-0.646256
C41	C	1.396220	-0.622359	-0.646243
C42	C	1.464035	-0.598891	-0.578496
C43	C	1.463980	-0.551983	-0.578470
N44	N	1.531798	-0.528513	-0.510736
C45	C	1.599645	-0.551960	-0.443009
C46	C	1.464281	-0.978933	-0.578567
C47	C	1.464311	-1.025850	-0.578575
C48	C	1.599980	-1.025827	-0.443108
C49	C	1.599945	-0.978908	-0.443095
C50	C	1.532099	-0.955462	-0.510833
C51	C	1.599560	-0.453434	-0.442985
C52	C	1.599514	-0.406515	-0.442974
C53	C	1.463849	-0.406542	-0.578445
C54	C	1.463891	-0.453458	-0.578452
C55	C	1.531755	-0.476902	-0.510719
O56	O	1.406284	-0.527691	-0.636012
O57	O	1.657325	-0.527682	-0.385414
C58	C	1.599787	-0.739624	-0.443058
C59	C	1.531977	-0.763092	-0.510798
C60	C	1.464130	-0.739645	-0.578525
C61	C	1.532007	-0.810010	-0.510806
C62	C	1.599854	-0.833457	-0.443080
C63	C	1.667672	-0.809987	-0.375346
C64	C	1.667634	-0.763071	-0.375332
C65	C	1.396312	-0.763116	-0.646259
C66	C	1.396354	-0.810031	-0.646266
C67	C	1.464202	-0.833479	-0.578540
C68	C	1.808348	-0.216419	-0.510772
C69	C	1.926178	-0.216422	-0.510786
C70	C	1.531921	-0.216376	-0.787246
C71	C	1.531954	-0.216361	-0.905076
C72	C	1.532064	-0.099232	-0.510816
C73	C	1.532158	-0.049298	-0.510849
C74	C	1.449718	-0.250910	-1.072608
C75	C	1.449934	-0.251081	-0.950048
C76	C	1.643641	-0.229209	-0.949592
C77	C	1.643190	-0.229426	-1.072190
C78	C	1.503560	-0.168770	-1.072289
C79	C	1.501067	-0.169055	-0.949682
C80	C	1.531826	-0.216413	-0.235310
C81	C	1.531998	-0.216301	-0.117481
H82	H	0.940090	-0.290922	-0.534376
H83	H	1.366652	-0.242947	-1.102084
H84	H	1.706571	-0.205312	-1.101876
H85	H	1.563489	-0.142985	-1.101311
H86	H	1.668166	-0.263591	-0.918892
H87	H	1.655225	-1.044926	-0.387963
H88	H	1.122016	-0.168818	-0.646713
H89	H	1.123055	-0.227751	-0.685151
H90	H	1.556621	-0.141906	-0.919070
H91	H	0.940120	-0.169463	-0.647663
H92	H	0.941642	-0.228331	-0.685244
H93	H	1.654824	-0.472517	-0.387832
H94	H	1.124176	-0.275438	-0.401423
H95	H	1.722855	-0.743967	-0.320167
H96	H	1.367112	-0.243041	-0.919948
H97	H	1.468306	-0.285927	-1.103416
H98	H	1.706588	-0.204799	-0.920465
H99	H	1.722814	-0.688326	-0.320153
H100	H	0.941566	-0.273183	-0.396886
H101	H	1.122336	-0.289793	-0.541178
H102	H	1.654736	-0.387408	-0.387803
H103	H	1.468704	-0.286318	-0.920722
H104	H	1.667301	-0.264172	-1.100790
H105	H	1.722745	-0.603220	-0.320129
H106	H	1.408605	-0.387444	-0.633584
H107	H	1.722912	-0.829086	-0.320197
H108	H	1.418876	-0.159366	-0.920586
H109	H	1.655165	-0.959803	-0.387931
H110	H	1.409080	-1.044954	-0.633731
H111	H	1.341122	-0.829135	-0.701433
H112	H	1.341064	-0.744029	-0.701412
H113	H	1.409030	-0.959846	-0.633728
H114	H	1.341017	-0.688380	-0.701417
H115	H	1.423538	-0.157058	-1.103197
H116	H	1.123104	-0.189445	-0.345759
H117	H	0.940997	-0.189407	-0.346320
H118	H	1.340973	-0.603271	-0.701406
H119	H	1.408674	-0.472566	-0.633620
H120	H	0.941874	-0.146337	-0.448562
H121	H	1.124569	-0.146662	-0.448028
