data_functionalizedCrystal
_audit_creation_method	'MofGen! by Chris Wilmer'
_symmetry_space_group_name_H-M	'P1'
_symmetry_Int_Tables_number	1
_symmetry_cell_setting	triclinic
loop_
_symmetry_equiv_pos_as_xyz
  x,y,z
_cell_length_a	16.625548
_cell_length_b	21.295417
_cell_length_c	21.295411
_cell_angle_alpha	89.978356
_cell_angle_beta	89.975478
_cell_angle_gamma	90.031575
loop_
_atom_site_label
_atom_site_type_symbol
_atom_site_fract_x
_atom_site_fract_y
_atom_site_fract_z
Zn1	Zn	1.232667	-0.250663	-0.355911
Zn2	Zn	1.232542	-0.355915	-0.250636
Zn3	Zn	1.097819	-0.250665	-0.250656
Zn4	Zn	1.097780	-0.355900	-0.355868
O5	O	1.165202	-0.303286	-0.303268
O6	O	1.345483	-0.264630	-0.341956
O7	O	1.214635	-0.341960	-0.162549
O8	O	1.115776	-0.162576	-0.264644
O9	O	1.345391	-0.341958	-0.264611
O10	O	1.214848	-0.162574	-0.341975
O11	O	1.115655	-0.264634	-0.162564
O12	O	0.984982	-0.264620	-0.264603
O13	O	1.115709	-0.341933	-0.443963
O14	O	0.984953	-0.341936	-0.341902
O15	O	1.214810	-0.264616	-0.443995
O16	O	1.214597	-0.444002	-0.264569
O17	O	1.115588	-0.443992	-0.341883
C18	C	0.955711	-0.303277	-0.303250
C19	C	0.866090	-0.303288	-0.303257
C20	C	0.537914	-0.303292	-0.303284
C21	C	0.629223	-0.303289	-0.303275
C22	C	0.701999	-0.303291	-0.303270
C23	C	0.793314	-0.303287	-0.303262
C24	C	1.165096	-0.466838	-0.303233
C25	C	1.165125	-0.536806	-0.303239
C26	C	1.216725	-0.569657	-0.263023
C27	C	1.216762	-0.635399	-0.263037
C28	C	1.165186	-0.668288	-0.303261
C29	C	1.113583	-0.635429	-0.343484
C30	C	1.113552	-0.569688	-0.343473
N31	N	1.094652	-0.771556	-0.308054
N32	N	1.094683	-0.834007	-0.308060
C33	C	1.165276	-0.866363	-0.303297
N34	N	1.235839	-0.833908	-0.298514
N35	N	1.235807	-0.771451	-0.298504
C36	C	1.165214	-0.739573	-0.303277
C37	C	1.216921	-0.970500	-0.263094
C38	C	1.216961	-1.036243	-0.263113
C39	C	1.113774	-1.036271	-0.343556
C40	C	1.113742	-0.970529	-0.343541
C41	C	1.165315	-0.937647	-0.303307
C42	C	1.375511	-0.303295	-0.303286
C43	C	1.465132	-0.303299	-0.303293
C44	C	1.165269	-0.303273	-0.467458
C45	C	1.165297	-0.303267	-0.537426
C46	C	1.165330	-0.139096	-0.303316
C47	C	1.165385	-0.069127	-0.303337
C48	C	1.216897	-0.263006	-0.570310
C49	C	1.216896	-0.262979	-0.636053
C50	C	1.165304	-0.303224	-0.668909
C51	C	1.113694	-0.343487	-0.636017
C52	C	1.113691	-0.343509	-0.570275
N53	N	1.159083	-0.358291	-0.772124
N54	N	1.159091	-0.358269	-0.834576
C55	C	1.165309	-0.303160	-0.866984
N56	N	1.171535	-0.248072	-0.834581
N57	N	1.171531	-0.248096	-0.772124
C58	C	1.165301	-0.303204	-0.740194
C59	C	1.216910	-0.262866	-0.971153
C60	C	1.216903	-0.262837	-1.036897
C61	C	1.113706	-0.343352	-1.036860
C62	C	1.113708	-0.343374	-0.971117
C63	C	1.165315	-0.303132	-0.938268
C64	C	1.165182	-0.303254	-0.139716
C65	C	1.165310	-0.303082	-0.069748
H66	H	1.258784	-0.662152	-0.230289
C67	C	1.056849	-0.671603	-0.387727
H68	H	1.064251	-0.715462	-0.381970
H69	H	1.068617	-0.660800	-0.430030
H70	H	1.002672	-0.660872	-0.378470
H71	H	1.071690	-0.376114	-1.063610
C72	C	1.056786	-0.533550	-0.387709
H73	H	1.026070	-0.562550	-0.411666
H74	H	1.087598	-0.507864	-0.415153
H75	H	1.021653	-0.507946	-0.363594
H76	H	1.071685	-0.376253	-0.662772
C77	C	1.056941	-0.387807	-0.534102
H78	H	1.026217	-0.411776	-0.563083
H79	H	1.021827	-0.363740	-0.508440
H80	H	1.087776	-0.415246	-0.508470
C81	C	1.056957	-0.387666	-0.934940
H82	H	1.064339	-0.381912	-0.891082
H83	H	1.068723	-0.429959	-0.945715
H84	H	1.002786	-0.378443	-0.945697
H85	H	1.258918	-0.230237	-0.543568
C86	C	1.273660	-0.218592	-0.935016
H87	H	1.304381	-0.194601	-0.964019
H88	H	1.308775	-0.242677	-0.909379
H89	H	1.242825	-0.191172	-0.909364
H90	H	1.258720	-0.542886	-0.230263
C91	C	1.057041	-1.072438	-0.387805
H92	H	1.026307	-1.043454	-0.411757
H93	H	1.021937	-1.098125	-0.363706
H94	H	1.087887	-1.098044	-0.415262
H95	H	1.258920	-0.230048	-1.063670
C96	C	1.273656	-0.934324	-0.218848
H97	H	1.266242	-0.890465	-0.224596
H98	H	1.327830	-0.945053	-0.228105
H99	H	1.261887	-0.945130	-0.176544
C100	C	1.273723	-1.072380	-0.218873
H101	H	1.304425	-1.043379	-0.194907
H102	H	1.308856	-1.097987	-0.242979
H103	H	1.242900	-1.098063	-0.191428
C104	C	1.056971	-0.934391	-0.387771
H105	H	1.026254	-0.963392	-0.411725
H106	H	1.087781	-0.908706	-0.415217
H107	H	1.021841	-0.908786	-0.363655
H108	H	1.258913	-0.230190	-0.662832
