data_functionalizedCrystal
_audit_creation_method	'MofGen! by Chris Wilmer'
_symmetry_space_group_name_H-M	'P1'
_symmetry_Int_Tables_number	1
_symmetry_cell_setting	triclinic
loop_
_symmetry_equiv_pos_as_xyz
  x,y,z
_cell_length_a	6.817900
_cell_length_b	14.125369
_cell_length_c	14.125465
_cell_angle_alpha	96.221150
_cell_angle_beta	100.398878
_cell_angle_gamma	100.397648
loop_
_atom_site_label
_atom_site_type_symbol
_atom_site_fract_x
_atom_site_fract_y
_atom_site_fract_z
V1	V	-3.975802	-0.132288	-0.299601
O2	O	-3.980353	0.007207	-0.294287
O3	O	-3.912214	-0.263123	-0.297177
O4	O	-3.912227	-0.129880	-0.430437
O5	O	-3.980341	-0.126958	-0.160104
V6	V	-4.463364	-0.115647	-0.282961
O7	O	-4.228200	-0.168792	-0.336101
O8	O	-4.661164	-0.079143	-0.246461
O9	O	-4.303746	0.015188	-0.285384
O10	O	-4.576210	-0.255142	-0.288275
O11	O	-4.576223	-0.120977	-0.422458
O12	O	-4.303733	-0.118055	-0.152124
C13	C	-3.754011	-0.295029	-0.292354
C14	C	-3.783206	-0.401986	-0.291245
C15	C	-4.021785	-0.650121	-0.293315
C16	C	-3.836760	-0.597814	-0.289250
C17	C	-3.806963	-0.488845	-0.290360
C18	C	-4.051590	-0.759100	-0.292205
C19	C	-3.754026	-0.125063	-0.462340
C20	C	-3.783229	-0.123960	-0.569297
C21	C	-3.836757	-0.121937	-0.765126
C22	C	-4.021778	-0.125995	-0.817436
C23	C	-4.051564	-0.124870	-0.926402
C24	C	-3.806964	-0.123063	-0.656150
C25	C	-4.125291	0.047089	-0.290205
C26	C	-4.075333	0.154045	-0.291320
C27	C	-4.125276	-0.122874	-0.120217
C28	C	-4.075312	-0.123973	-0.013258
H29	H	-4.157801	-0.613066	-0.297627
H30	H	-4.157814	-0.130325	-0.780385
O31	O	-3.674711	-0.116839	-0.809481
C32	C	-3.741000	-0.116824	-0.909978
H33	H	-3.910112	-0.151379	-0.932464
H34	H	-3.715428	-0.038795	-0.926402
C35	C	-3.411805	-0.133095	-0.939578
C36	C	-3.619508	-0.175543	-0.967197
H37	H	-3.336859	-0.169311	-0.974874
H38	H	-3.367141	-0.133101	-0.871870
H39	H	-3.390524	-0.068072	-0.953265
H40	H	-3.640789	-0.240560	-0.953498
H41	H	-3.664173	-0.175549	-1.034903
O42	O	-3.674263	-0.641866	-0.284136
C43	C	-3.496338	-0.571766	-0.280545
H44	H	-3.539389	-0.506196	-0.313266
H45	H	-3.412905	-0.547750	-0.201667
C46	C	-3.303659	-0.696742	-0.298781
C47	C	-3.356533	-0.616211	-0.338978
H48	H	-3.217415	-0.724158	-0.334822
H49	H	-3.423527	-0.743970	-0.301197
H50	H	-3.234142	-0.676717	-0.233051
H51	H	-3.426071	-0.636239	-0.404703
H52	H	-3.236673	-0.568987	-0.336575
