data_functionalizedCrystal
_audit_creation_method	'MofGen! by Chris Wilmer'
_symmetry_space_group_name_H-M	'P1'
_symmetry_Int_Tables_number	1
_symmetry_cell_setting	triclinic
loop_
_symmetry_equiv_pos_as_xyz
  x,y,z
_cell_length_a	14.908520
_cell_length_b	19.805407
_cell_length_c	19.805399
_cell_angle_alpha	90.019197
_cell_angle_beta	93.270609
_cell_angle_gamma	86.683092
loop_
_atom_site_label
_atom_site_type_symbol
_atom_site_fract_x
_atom_site_fract_y
_atom_site_fract_z
Zn1	Zn	-0.359272	-1.019200	-0.398267
Zn2	Zn	-0.510138	-1.012591	-0.291610
Zn3	Zn	-0.359287	-0.906014	-0.285093
Zn4	Zn	-0.510079	-0.899456	-0.404755
O5	O	-0.434694	-0.959315	-0.344931
O6	O	-0.379303	-1.113039	-0.384131
O7	O	-0.490157	-0.998431	-0.196030
O8	O	-0.233040	-0.926538	-0.294663
O9	O	-0.490143	-1.108183	-0.305770
O10	O	-0.233030	-1.009695	-0.377811
O11	O	-0.379328	-0.920130	-0.191242
O12	O	-0.379272	-0.810428	-0.300954
O13	O	-0.490044	-0.915362	-0.498609
O14	O	-0.490058	-0.805610	-0.388869
O15	O	-0.379247	-1.003337	-0.493843
O16	O	-0.636375	-0.992073	-0.312061
O17	O	-0.636332	-0.908954	-0.395188
C18	C	-0.434661	-0.783460	-0.344909
C19	C	-0.434669	-0.708228	-0.344916
C20	C	-0.377055	-0.675409	-0.385788
C21	C	-0.377058	-0.604720	-0.385789
C22	C	-0.434680	-0.566852	-0.344921
C23	C	-0.492295	-0.599676	-0.304045
C24	C	-0.492287	-0.670364	-0.304041
C25	C	-0.492328	-0.314602	-0.304060
C26	C	-0.492334	-0.243909	-0.304069
C27	C	-0.377099	-0.248958	-0.385808
C28	C	-0.377091	-0.319645	-0.385804
C29	C	-0.434703	-0.352464	-0.344926
C30	C	-0.434698	-0.429112	-0.344924
C31	C	-0.434690	-0.490204	-0.344926
C32	C	-0.669087	-0.949103	-0.355051
C33	C	-0.769361	-0.944796	-0.359403
C34	C	-0.957771	-1.023344	-0.281090
C35	C	-1.051987	-1.019300	-0.285177
C36	C	-1.052013	-0.932667	-0.371667
C37	C	-0.957796	-0.936711	-0.367580
C38	C	-0.910678	-0.982051	-0.322289
C39	C	-0.816460	-0.986091	-0.318199
C40	C	-0.816487	-0.899462	-0.404692
C41	C	-0.910704	-0.895418	-0.408779
C42	C	-0.199386	-0.969585	-0.334786
C43	C	-0.099112	-0.973962	-0.330463
C44	C	-0.434637	-0.959355	-0.521471
C45	C	-0.434613	-0.959373	-0.596702
C46	C	-0.434721	-0.135857	-0.344947
C47	C	-0.434715	-0.211089	-0.344938
C48	C	-0.376918	-1.005182	-0.629565
C49	C	-0.376892	-1.005190	-0.700253
C50	C	-0.434566	-0.959392	-0.738076
C51	C	-0.492264	-0.913577	-0.705208
C52	C	-0.492285	-0.913566	-0.634522
C53	C	-0.492179	-0.913619	-0.990278
C54	C	-0.492156	-0.913635	-1.060969
C55	C	-0.376787	-1.005243	-1.056009
C56	C	-0.376808	-1.005232	-0.985322
C57	C	-0.434502	-0.959416	-0.952461
C58	C	-0.434528	-0.959407	-0.875813
C59	C	-0.434545	-0.959403	-0.814722
C60	C	-0.434686	-0.959317	-0.169075
C61	C	-0.434456	-0.959441	-0.093833
H62	H	-0.539258	-0.213079	-0.270788
O63	O	-0.906939	-1.072251	-0.232255
H64	H	-0.864070	-1.043825	-0.195927
O65	O	-0.314898	-0.716248	-0.429863
H66	H	-0.330454	-0.702021	-0.483638
H67	H	-0.778098	-1.023007	-0.281320
O68	O	-0.554428	-0.705768	-0.259959
H69	H	-0.594503	-0.667561	-0.231546
H70	H	-0.330173	-0.350474	-0.419085
O71	O	-0.554467	-0.349988	-0.259970
H72	H	-0.600416	-0.380214	-0.292183
O73	O	-0.554441	-0.558838	-0.259960
H74	H	-0.600404	-0.524650	-0.292182
H75	H	-0.330146	-0.578002	-0.419072
O76	O	-0.314949	-0.213556	-0.429890
H77	H	-0.330520	-0.226460	-0.483665
O78	O	-1.102784	-1.063833	-0.240738
H79	H	-1.054188	-1.096034	-0.208557
H80	H	-1.090392	-0.895758	-0.408544
O81	O	-0.554360	-0.864230	-1.101765
H82	H	-0.513956	-0.831573	-1.132227
H83	H	-0.329807	-1.042547	-1.082773
H84	H	-0.778134	-0.865836	-0.438237
H85	H	-0.949080	-0.858506	-0.445654
O86	O	-0.314712	-1.054580	-0.588771
H87	H	-0.274583	-1.086431	-0.623501
O88	O	-0.554357	-0.864173	-0.954835
H89	H	-0.594444	-0.832322	-0.993013
H90	H	-0.329913	-1.042495	-0.727006
O91	O	-0.314604	-1.054629	-0.944525
H92	H	-0.274474	-1.086482	-0.979253
O93	O	-0.554467	-0.864174	-0.745998
H94	H	-0.544765	-0.871879	-0.800672
O95	O	-0.554500	-0.864149	-0.599070
H96	H	-0.594602	-0.832304	-0.637245
