data_functionalizedCrystal
_audit_creation_method	'MofGen! by Chris Wilmer'
_symmetry_space_group_name_H-M	'P1'
_symmetry_Int_Tables_number	1
_symmetry_cell_setting	triclinic
loop_
_symmetry_equiv_pos_as_xyz
  x,y,z
_cell_length_a	29.839134
_cell_length_b	29.839131
_cell_length_c	17.077396
_cell_angle_alpha	89.967252
_cell_angle_beta	89.982719
_cell_angle_gamma	90.021992
loop_
_atom_site_label
_atom_site_type_symbol
_atom_site_fract_x
_atom_site_fract_y
_atom_site_fract_z
Zn1	Zn	0.686742	-0.179083	-0.443825
Zn2	Zn	1.020075	0.154251	-0.110491
Zn3	Zn	1.353409	0.487584	0.222842
Zn4	Zn	0.686668	-0.254214	-0.312551
Zn5	Zn	1.020001	0.079119	0.020783
Zn6	Zn	1.353334	0.412452	0.354116
Zn7	Zn	0.611618	-0.179074	-0.312572
Zn8	Zn	0.944952	0.154260	0.020761
Zn9	Zn	1.278285	0.487593	0.354094
Zn10	Zn	0.611573	-0.254161	-0.443774
Zn11	Zn	0.944906	0.079173	-0.110441
Zn12	Zn	1.278239	0.412506	0.222893
O13	O	0.649150	-0.216633	-0.378180
O14	O	0.982483	0.116701	-0.044847
O15	O	1.315817	0.450034	0.288486
O16	O	0.749599	-0.189075	-0.426423
O17	O	1.082933	0.144258	-0.093089
O18	O	1.416266	0.477592	0.240244
O19	O	0.676700	-0.244265	-0.202707
O20	O	1.010033	0.089068	0.130627
O21	O	1.343367	0.422401	0.463960
O22	O	0.621634	-0.116208	-0.330013
O23	O	0.954967	0.217126	0.003320
O24	O	1.288300	0.550459	0.336653
O25	O	0.749545	-0.244274	-0.329976
O26	O	1.082878	0.089059	0.003357
O27	O	1.416211	0.422393	0.336690
O28	O	0.676827	-0.116214	-0.426444
O29	O	1.010160	0.217119	-0.093110
O30	O	1.343494	0.550452	0.240223
O31	O	0.621562	-0.189060	-0.202723
O32	O	0.954895	0.144273	0.130611
O33	O	1.288228	0.477607	0.463944
O34	O	0.548745	-0.189008	-0.329965
O35	O	0.882078	0.144325	0.003369
O36	O	1.215412	0.477659	0.336702
O37	O	0.621556	-0.244183	-0.553628
O38	O	0.954889	0.089151	-0.220294
O39	O	1.288223	0.422484	0.113039
O40	O	0.548712	-0.244174	-0.426358
O41	O	0.882045	0.089159	-0.093025
O42	O	1.215378	0.422493	0.240309
O43	O	0.676783	-0.189023	-0.553665
O44	O	1.010116	0.144310	-0.220331
O45	O	1.343449	0.477644	0.113002
O46	O	0.676656	-0.317074	-0.329928
O47	O	1.009989	0.016259	0.003406
O48	O	1.343322	0.349592	0.336739
O49	O	0.621484	-0.317035	-0.426337
O50	O	0.954817	0.016298	-0.093004
O51	O	1.288151	0.349632	0.240330
C52	C	0.532428	-0.216585	-0.378159
C53	C	0.865761	0.116749	-0.044825
C54	C	1.199094	0.450082	0.288508
C55	C	0.482493	-0.216575	-0.378168
C56	C	0.815827	0.116759	-0.044835
C57	C	1.149160	0.450092	0.288499
C58	C	0.125930	-0.187951	-0.428499
C59	C	0.459264	0.145383	-0.095166
C60	C	0.792597	0.478716	0.238168
C61	C	0.313603	-0.187914	-0.428481
C62	C	0.646937	0.145419	-0.095147
C63	C	0.980270	0.478752	0.238186
O64	O	0.337889	-0.163520	-0.471270
O65	O	0.671222	0.169814	-0.137937
O66	O	1.004555	0.503147	0.195396
N67	N	0.337048	-0.216604	-0.378186
N68	N	0.670381	0.116729	-0.044853
N69	N	1.003715	0.450062	0.288480
C70	C	0.313571	-0.245307	-0.327897
C71	C	0.646905	0.088026	0.005437
C72	C	0.980238	0.421359	0.338770
O73	O	0.337819	-0.269712	-0.285124
O74	O	0.671152	0.063621	0.048210
O75	O	1.004485	0.396955	0.381543
C76	C	0.125899	-0.245345	-0.327919
C77	C	0.459233	0.087988	0.005414
C78	C	0.792566	0.421321	0.338747
C79	C	0.102457	-0.216650	-0.378211
C80	C	0.435790	0.116683	-0.044878
C81	C	0.769124	0.450016	0.288455
C82	C	0.102488	-0.159258	-0.478787
C83	C	0.435821	0.174075	-0.145454
C84	C	0.769155	0.507408	0.187879
C85	C	0.055573	-0.159266	-0.478788
C86	C	0.388906	0.174067	-0.145455
C87	C	0.722239	0.507401	0.187878
C88	C	0.032099	-0.187966	-0.428501
C89	C	0.365433	0.145368	-0.095168
C90	C	0.698766	0.478701	0.238166
C91	C	0.055542	-0.216658	-0.378212
C92	C	0.388875	0.116675	-0.044879
C93	C	0.722208	0.450009	0.288454
C94	C	0.102424	-0.274050	-0.277634
C95	C	0.435757	0.059283	0.055699
C96	C	0.769090	0.392616	0.389033
C97	C	0.055502	-0.274058	-0.277646
C98	C	0.388836	0.059275	0.055688
C99	C	0.722169	0.392609	0.389021
C100	C	0.032060	-0.245363	-0.327938
C101	C	0.365394	0.087970	0.005396
C102	C	0.698727	0.421304	0.338729
C103	C	-0.014847	-0.245365	-0.327926
C104	C	0.318486	0.087968	0.005407
C105	C	0.651820	0.421301	0.338741
N106	N	-0.038292	-0.216676	-0.378220
N107	N	0.295042	0.116658	-0.044887
N108	N	0.628375	0.449991	0.288447
C109	C	-0.014818	-0.187976	-0.428508
C110	C	0.318515	0.145358	-0.095174
C111	C	0.651848	0.478691	0.238159
C112	C	0.412102	-0.245285	-0.327887
C113	C	0.745435	0.088049	0.005446
C114	C	1.078769	0.421382	0.338779
C115	C	0.459020	-0.245275	-0.327880
C116	C	0.792353	0.088059	0.005453
C117	C	1.125687	0.421392	0.338786
C118	C	0.459049	-0.187882	-0.428466
C119	C	0.792382	0.145451	-0.095132
C120	C	1.125715	0.478784	0.238201
C121	C	0.412130	-0.187890	-0.428468
C122	C	0.745463	0.145443	-0.095135
C123	C	1.078797	0.478776	0.238199
C124	C	0.388657	-0.216595	-0.378182
C125	C	0.721991	0.116739	-0.044848
C126	C	1.055324	0.450072	0.288485
C127	C	-0.113344	-0.187994	-0.428505
C128	C	0.219989	0.145340	-0.095172
C129	C	0.553322	0.478673	0.238161
C130	C	-0.160264	-0.188002	-0.428500
C131	C	0.173069	0.145331	-0.095166
C132	C	0.506403	0.478664	0.238167
C133	C	-0.160289	-0.245396	-0.327918
C134	C	0.173045	0.087937	0.005416
C135	C	0.506378	0.421270	0.338749
C136	C	-0.113373	-0.245386	-0.327920
C137	C	0.219960	0.087947	0.005413
C138	C	0.553294	0.421281	0.338746
C139	C	-0.089902	-0.216683	-0.378220
C140	C	0.243431	0.116650	-0.044887
C141	C	0.576765	0.449984	0.288446
O142	O	-0.039161	-0.269751	-0.285165
O143	O	0.294172	0.063583	0.048168
O144	O	0.627505	0.396916	0.381502
O145	O	-0.039074	-0.163582	-0.471287
O146	O	0.294260	0.169752	-0.137953
O147	O	0.627593	0.503085	0.195380
C148	C	0.172846	-0.187943	-0.428498
C149	C	0.506179	0.145390	-0.095164
C150	C	0.839512	0.478724	0.238169
C151	C	0.196288	-0.216635	-0.378209
C152	C	0.529621	0.116698	-0.044876
C153	C	0.862955	0.450031	0.288457
C154	C	0.172815	-0.245335	-0.327922
C155	C	0.506148	0.087998	0.005412
C156	C	0.839481	0.421332	0.338745
C157	C	0.243206	-0.216625	-0.378203
C158	C	0.576539	0.116708	-0.044869
C159	C	0.909872	0.450041	0.288464
C160	C	0.266679	-0.187925	-0.428490
C161	C	0.600012	0.145408	-0.095157
C162	C	0.933346	0.478741	0.238177
C163	C	0.243235	-0.159236	-0.478784
C164	C	0.576568	0.174098	-0.145451
C165	C	0.909901	0.507431	0.187882
C166	C	0.196319	-0.159243	-0.478785
C167	C	0.529652	0.174090	-0.145452
C168	C	0.862986	0.507424	0.187881
C169	C	0.196259	-0.274025	-0.277628
C170	C	0.529593	0.059308	0.055706
C171	C	0.862926	0.392642	0.389039
C172	C	0.243175	-0.274015	-0.277630
C173	C	0.576508	0.059319	0.055703
C174	C	0.909841	0.392652	0.389037
C175	C	0.266648	-0.245315	-0.327917
C176	C	0.599981	0.088019	0.005416
C177	C	0.933315	0.421352	0.338749
C178	C	0.649069	-0.333355	-0.378141
C179	C	0.982402	-0.000022	-0.044808
C180	C	1.315736	0.333311	0.288525
C181	C	0.649075	-0.383290	-0.378151
C182	C	0.982409	-0.049956	-0.044818
C183	C	1.315742	0.283377	0.288516
C184	C	0.677930	-0.692941	-0.328053
C185	C	1.011264	-0.359608	0.005280
C186	C	1.344597	-0.026274	0.338613
C187	C	0.677986	-0.880614	-0.328084
C188	C	1.011319	-0.547281	0.005249
C189	C	1.344652	-0.213947	0.338583
O190	O	0.702455	-0.904886	-0.285459
O191	O	1.035788	-0.571552	0.047874
O192	O	1.369122	-0.238219	0.381208
N193	N	0.649243	-0.904075	-0.378240
N194	N	0.982577	-0.570741	-0.044906
N195	N	1.315910	-0.237408	0.288427
C196	C	0.620487	-0.880614	-0.428395
C197	C	0.953820	-0.547281	-0.095062
C198	C	1.287154	-0.213948	0.238272
O199	O	0.596044	-0.904876	-0.471062
O200	O	0.929377	-0.571542	-0.137729
O201	O	1.262711	-0.238209	0.195605
C202	C	0.620434	-0.692942	-0.428368
C203	C	0.953767	-0.359609	-0.095035
C204	C	1.287101	-0.026276	0.238299
C205	C	0.649175	-0.669484	-0.378203
C206	C	0.982509	-0.336151	-0.044870
C207	C	1.315842	-0.002817	0.288463
C208	C	0.706670	-0.669483	-0.277893
C209	C	1.040003	-0.336149	0.055440
C210	C	1.373336	-0.002816	0.388773
C211	C	0.706654	-0.622567	-0.277883
C212	C	1.039987	-0.289234	0.055450
C213	C	1.373320	0.044100	0.388783
C214	C	0.677899	-0.599110	-0.328033
C215	C	1.011232	-0.265777	0.005300
C216	C	1.344565	0.067557	0.338634
C217	C	0.649159	-0.622568	-0.378193
C218	C	0.982493	-0.289235	-0.044860
C219	C	1.315826	0.044098	0.288474
C220	C	0.591680	-0.669483	-0.478527
C221	C	0.925014	-0.336149	-0.145193
C222	C	1.258347	-0.002816	0.188140
C223	C	0.591670	-0.622562	-0.478517
C224	C	0.925004	-0.289228	-0.145183
C225	C	1.258337	0.044105	0.188150
C226	C	0.620412	-0.599103	-0.428352
C227	C	0.953745	-0.265770	-0.095019
C228	C	1.287078	0.067563	0.238315
C229	C	0.620388	-0.552196	-0.428333
C230	C	0.953722	-0.218863	-0.094999
C231	C	1.287055	0.114471	0.238334
N232	N	0.649131	-0.528735	-0.378177
N233	N	0.982464	-0.195402	-0.044844
N234	N	1.315798	0.137931	0.288490
C235	C	0.677886	-0.552192	-0.328027
C236	C	1.011219	-0.218859	0.005306
C237	C	1.344553	0.114474	0.338639
C238	C	0.620516	-0.979145	-0.428405
C239	C	0.953849	-0.645812	-0.095071
C240	C	1.287183	-0.312478	0.238262
C241	C	0.620529	-1.026063	-0.428410
C242	C	0.953862	-0.692730	-0.095077
C243	C	1.287195	-0.359396	0.238256
C244	C	0.678028	-1.026059	-0.328100
C245	C	1.011362	-0.692726	0.005233
C246	C	1.344695	-0.359393	0.338566
C247	C	0.678013	-0.979141	-0.328091
C248	C	1.011346	-0.645807	0.005242
C249	C	1.344680	-0.312474	0.338576
C250	C	0.649259	-0.955684	-0.378249
C251	C	0.982592	-0.622351	-0.044915
C252	C	1.315925	-0.289018	0.288418
C253	C	0.677850	-0.453666	-0.328009
C254	C	1.011184	-0.120333	0.005324
C255	C	1.344517	0.213000	0.338657
C256	C	0.677830	-0.406747	-0.328001
C257	C	1.011164	-0.073413	0.005332
C258	C	1.344497	0.259920	0.338665
C259	C	0.620333	-0.406755	-0.428314
C260	C	0.953666	-0.073421	-0.094981
C261	C	1.286999	0.259912	0.238353
C262	C	0.620351	-0.453670	-0.428319
C263	C	0.953684	-0.120337	-0.094986
C264	C	1.287017	0.212997	0.238347
C265	C	0.649113	-0.477125	-0.378164
C266	C	0.982446	-0.143792	-0.044831
C267	C	1.315780	0.189542	0.288502
O268	O	0.595936	-0.527896	-0.470941
O269	O	0.929269	-0.194562	-0.137608
O270	O	1.262602	0.138771	0.195725
O271	O	0.702332	-0.527923	-0.285379
O272	O	1.035666	-0.194590	0.047954
O273	O	1.368999	0.138744	0.381288
C274	C	0.677946	-0.739856	-0.328064
C275	C	1.011280	-0.406523	0.005270
C276	C	1.344613	-0.073190	0.338603
C277	C	0.649207	-0.763315	-0.378223
C278	C	0.982540	-0.429982	-0.044890
C279	C	1.315874	-0.096648	0.288443
C280	C	0.620452	-0.739858	-0.428373
C281	C	0.953785	-0.406524	-0.095040
C282	C	1.287119	-0.073191	0.238293
C283	C	0.649220	-0.810233	-0.378229
C284	C	0.982553	-0.476899	-0.044896
C285	C	1.315886	-0.143566	0.288437
C286	C	0.677975	-0.833690	-0.328080
C287	C	1.011308	-0.500356	0.005254
C288	C	1.344641	-0.167023	0.338587
C289	C	0.706717	-0.810229	-0.277924
C290	C	1.040051	-0.476896	0.055409
C291	C	1.373384	-0.143562	0.388743
C292	C	0.706701	-0.763313	-0.277914
C293	C	1.040035	-0.429980	0.055420
C294	C	1.373368	-0.096647	0.388753
C295	C	0.591709	-0.763319	-0.478529
C296	C	0.925043	-0.429985	-0.145196
C297	C	1.258376	-0.096652	0.188138
C298	C	0.591727	-0.810234	-0.478534
C299	C	0.925061	-0.476901	-0.145201
C300	C	1.258394	-0.143567	0.188132
C301	C	0.620482	-0.833691	-0.428385
C302	C	0.953816	-0.500358	-0.095051
C303	C	1.287149	-0.167024	0.238282
C304	C	0.766328	-0.216681	-0.378203
C305	C	1.099662	0.116652	-0.044869
C306	C	1.432995	0.449985	0.288464
C307	C	0.816263	-0.216702	-0.378212
C308	C	1.149596	0.116631	-0.044879
C309	C	1.482930	0.449964	0.288454
C310	C	0.649173	-0.216598	-0.582925
C311	C	0.982506	0.116735	-0.249591
C312	C	1.315839	0.450069	0.083742
C313	C	0.649182	-0.216583	-0.670175
C314	C	0.982516	0.116750	-0.336841
C315	C	1.315849	0.450084	-0.003508
C316	C	0.649244	-0.099454	-0.378237
C317	C	0.982577	0.233879	-0.044903
C318	C	1.315910	0.567212	0.288430
C319	C	0.649284	-0.049520	-0.378261
C320	C	0.982617	0.283813	-0.044927
C321	C	1.315950	0.617147	0.288406
C322	C	0.620480	-0.187834	-0.711173
C323	C	0.953814	0.145499	-0.377839
C324	C	1.287147	0.478832	-0.044506
C325	C	0.620488	-0.187824	-0.793153
C326	C	0.953821	0.145509	-0.459820
C327	C	1.287154	0.478843	-0.126486
C328	C	0.649200	-0.216561	-0.834134
C329	C	0.982533	0.116773	-0.500801
C330	C	1.315866	0.450106	-0.167467
C331	C	0.677903	-0.245313	-0.793131
C332	C	1.011236	0.088020	-0.459797
C333	C	1.344569	0.421354	-0.126464
C334	C	0.677893	-0.245325	-0.711152
C335	C	1.011226	0.088008	-0.377818
C336	C	1.344559	0.421342	-0.044485
C337	C	0.677922	-0.245285	-0.964001
C338	C	1.011255	0.088048	-0.630667
C339	C	1.344589	0.421382	-0.297334
C340	C	0.677933	-0.245272	-1.045985
C341	C	1.011266	0.088061	-0.712652
C342	C	1.344599	0.421394	-0.379319
C343	C	0.620517	-0.187784	-1.046002
C344	C	0.953851	0.145550	-0.712669
C345	C	1.287184	0.478883	-0.379336
C346	C	0.620507	-0.187796	-0.964023
C347	C	0.953841	0.145537	-0.630690
C348	C	1.287174	0.478871	-0.297357
C349	C	0.649211	-0.216548	-0.923025
C350	C	0.982544	0.116786	-0.589692
C351	C	1.315878	0.450119	-0.256359
C352	C	0.649153	-0.216635	-0.174233
C353	C	0.982487	0.116698	0.159101
C354	C	1.315820	0.450032	0.492434
C355	C	0.649231	-0.216523	-0.086983
C356	C	0.982564	0.116810	0.246350
C357	C	1.315898	0.450143	0.579683
H358	H	0.393046	-0.164524	-0.469419
H359	H	0.726380	0.168809	-0.136086
H360	H	1.059713	0.502143	0.197247
H361	H	0.597146	-0.164373	-1.079387
H362	H	0.930479	0.168961	-0.746053
H363	H	1.263813	0.502294	-0.412720
H364	H	0.701312	-0.268672	-1.079350
H365	H	1.034646	0.064661	-0.746017
H366	H	1.367979	0.397994	-0.412683
H367	H	0.121595	-0.135887	-0.519742
H368	H	0.454928	0.197446	-0.186408
H369	H	0.788262	0.530779	0.146925
H370	H	0.597114	-0.164415	-0.826530
H371	H	0.930448	0.168918	-0.493197
H372	H	1.263781	0.502251	-0.159863
H373	H	0.701268	-0.268732	-0.677772
H374	H	1.034601	0.064601	-0.344439
H375	H	1.367935	0.397935	-0.011105
H376	H	0.701278	-0.268713	-0.826504
H377	H	1.034611	0.064620	-0.493171
H378	H	1.367945	0.397953	-0.159837
H379	H	0.478169	-0.164513	-0.469410
H380	H	0.811502	0.168821	-0.136077
H381	H	1.144835	0.502154	0.197257
H382	H	0.701300	-0.268694	-0.930623
H383	H	1.034633	0.064640	-0.597289
H384	H	1.367966	0.397973	-0.263956
H385	H	-0.179348	-0.164633	-0.469453
H386	H	0.153985	0.168700	-0.136120
H387	H	0.487318	0.502033	0.197213
H388	H	0.730059	-0.603470	-0.237037
H389	H	1.063392	-0.270137	0.096296
H390	H	1.396725	0.063197	0.429629
H391	H	0.597130	-0.164394	-0.930659
H392	H	0.930463	0.168939	-0.597325
H393	H	1.263796	0.502273	-0.263992
H394	H	0.036490	-0.135901	-0.519745
H395	H	0.369824	0.197432	-0.186411
H396	H	0.703157	0.530765	0.146922
H397	H	-0.094240	-0.164621	-0.469464
H398	H	0.239094	0.168713	-0.136131
H399	H	0.572427	0.502046	0.197202
H400	H	0.392995	-0.268660	-0.286935
H401	H	0.726328	0.064673	0.046398
H402	H	1.059662	0.398006	0.379732
H403	H	0.597103	-0.164431	-0.677812
H404	H	0.930436	0.168903	-0.344478
H405	H	1.263769	0.502236	-0.011145
H406	H	0.121502	-0.297417	-0.236681
H407	H	0.454835	0.035917	0.096652
H408	H	0.788169	0.369250	0.429986
H409	H	0.036394	-0.297434	-0.236698
H410	H	0.369727	0.035899	0.096636
H411	H	0.703060	0.369232	0.429969
H412	H	0.568294	-0.744223	-0.519368
H413	H	0.901627	-0.410890	-0.186035
H414	H	1.234961	-0.077557	0.147299
H415	H	0.478103	-0.268636	-0.286919
H416	H	0.811436	0.064697	0.046414
H417	H	1.144769	0.398031	0.379748
H418	H	-0.094285	-0.268748	-0.286961
H419	H	0.239048	0.064586	0.046372
H420	H	0.572381	0.397919	0.379705
H421	H	0.568255	-0.603466	-0.519364
H422	H	0.901589	-0.270133	-0.186031
H423	H	1.234922	0.063201	0.147303
H424	H	-0.179409	-0.268761	-0.286972
H425	H	0.153924	0.064572	0.046362
H426	H	0.487258	0.397906	0.379695
H427	H	0.596949	-0.472771	-0.469170
H428	H	0.930282	-0.139438	-0.135837
H429	H	1.263615	0.193896	0.197497
H430	H	0.262355	-0.135865	-0.519727
H431	H	0.595688	0.197468	-0.186394
H432	H	0.929021	0.530801	0.146940
H433	H	0.177237	-0.135877	-0.519738
H434	H	0.510570	0.197457	-0.186405
H435	H	0.843903	0.530790	0.146928
H436	H	0.177152	-0.297397	-0.236677
H437	H	0.510485	0.035937	0.096656
H438	H	0.843819	0.369270	0.429989
H439	H	0.701235	-0.387648	-0.287148
H440	H	1.034568	-0.054315	0.046185
H441	H	1.367902	0.279018	0.379518
H442	H	0.262257	-0.297381	-0.236669
H443	H	0.595591	0.035953	0.096665
H444	H	0.928924	0.369286	0.429998
H445	H	0.730088	-0.688576	-0.237055
H446	H	1.063421	-0.355243	0.096278
H447	H	1.396755	-0.021910	0.429611
H448	H	0.701272	-0.472758	-0.287170
H449	H	1.034606	-0.139424	0.046163
H450	H	1.367939	0.193909	0.379497
H451	H	0.701417	-0.960043	-0.287243
H452	H	1.034750	-0.626710	0.046090
H453	H	1.368084	-0.293377	0.379424
H454	H	0.701442	-1.045166	-0.287266
H455	H	1.034775	-0.711833	0.046067
H456	H	1.368109	-0.378499	0.379400
H457	H	0.597100	-0.960050	-0.469250
H458	H	0.930433	-0.626717	-0.135917
H459	H	1.263766	-0.293383	0.197417
H460	H	0.597120	-1.045159	-0.469252
H461	H	0.930454	-0.711825	-0.135919
H462	H	1.263787	-0.378492	0.197414
H463	H	0.568274	-0.688575	-0.519372
H464	H	0.901607	-0.355241	-0.186039
H465	H	1.234941	-0.021908	0.147294
H466	H	0.596919	-0.387649	-0.469143
H467	H	0.930253	-0.054315	-0.135810
H468	H	1.263586	0.279018	0.197523
H469	H	0.730105	-0.744217	-0.237065
H470	H	1.063439	-0.410884	0.096268
H471	H	1.396772	-0.077550	0.429601
H472	H	0.730129	-0.829336	-0.237088
H473	H	1.063463	-0.496003	0.096245
H474	H	1.396796	-0.162669	0.429579
H475	H	0.568319	-0.829330	-0.519384
H476	H	0.901652	-0.495997	-0.186050
H477	H	1.234985	-0.162663	0.147283
