data_functionalizedCrystal
_audit_creation_method	'MofGen! by Chris Wilmer'
_symmetry_space_group_name_H-M	'P1'
_symmetry_Int_Tables_number	1
_symmetry_cell_setting	triclinic
loop_
_symmetry_equiv_pos_as_xyz
  x,y,z
_cell_length_a	14.853558
_cell_length_b	10.540539
_cell_length_c	13.330367
_cell_angle_alpha	89.997527
_cell_angle_beta	89.992972
_cell_angle_gamma	84.078313
loop_
_atom_site_label
_atom_site_type_symbol
_atom_site_fract_x
_atom_site_fract_y
_atom_site_fract_z
O1	O	1.197293	0.165671	-0.083406
O2	O	0.934942	0.185426	-0.083411
O3	O	1.072103	-0.009224	-0.083407
O4	O	1.060132	0.360321	-0.083410
O5	O	1.072083	-0.009229	0.083440
O6	O	0.934922	0.185421	0.083437
O7	O	1.197273	0.165667	0.083441
Cu8	Cu	1.066096	0.175544	0.098673
Cu9	Cu	1.066120	0.175549	-0.098643
O10	O	1.060112	0.360317	0.083437
C11	C	0.901338	0.184531	0.000012
C12	C	0.801239	0.181855	0.000011
C13	C	0.754223	0.180602	-0.090941
C14	C	0.754200	0.180582	0.090962
C15	C	0.660152	0.178061	0.090963
C16	C	0.613136	0.176809	0.000011
C17	C	0.660167	0.178077	-0.090943
C18	C	0.613115	0.176780	0.181916
C19	C	0.519061	0.174257	0.181921
C20	C	0.472043	0.173014	0.090968
C21	C	0.519080	0.174284	0.000010
C22	C	0.472064	0.173031	-0.090942
C23	C	0.519098	0.174310	-0.181901
C24	C	0.613149	0.176834	-0.181896
C25	C	0.377992	0.170490	0.090963
C26	C	0.378007	0.170506	-0.090943
C27	C	1.071195	-0.056519	0.000015
C28	C	1.068510	-0.197438	0.000009
C29	C	0.965592	-0.379728	-0.000367
C30	C	0.968314	-0.233139	0.000009
C31	C	1.116716	-0.259631	0.095288
C32	C	1.113297	-0.406137	0.095368
C33	C	1.115358	-0.406673	-0.094368
C34	C	1.116281	-0.259701	-0.095628
C35	C	1.230877	0.166562	0.000016
C36	C	1.330976	0.169238	0.000011
C37	C	1.061020	0.407612	0.000013
C38	C	1.063706	0.548530	0.000012
N39	N	1.066086	0.175539	0.237455
N40	N	1.066137	0.175543	-0.237424
C41	C	1.005382	0.261706	0.710076
C42	C	1.126882	0.089382	0.710047
C43	C	1.126871	0.089378	0.605029
C44	C	1.066116	0.175541	0.552529
C45	C	1.005372	0.261707	0.605048
C46	C	1.187621	0.003222	0.552502
C47	C	1.187614	0.003215	0.447477
C48	C	1.126854	0.089373	0.394976
C49	C	1.066106	0.175542	0.447501
C50	C	1.005351	0.261705	0.395001
C51	C	0.944598	0.347869	0.447525
C52	C	0.944612	0.347865	0.552546
C53	C	1.126841	0.089377	0.289954
C54	C	1.005341	0.261706	0.289973
H55	H	0.651453	0.177873	-0.255949
N56	N	0.802245	0.181918	-0.183859
N57	N	0.783998	0.271049	-0.244752
H58	H	0.817912	0.271980	-0.310378
H59	H	1.190296	-0.238090	0.098831
N60	N	0.920398	-0.180218	0.085843
N61	N	0.960424	-0.119763	0.149698
H62	H	0.926583	-0.082386	0.210324
N63	N	1.068581	-0.441011	0.184717
N64	N	1.040109	-0.357187	0.246580
H65	H	1.008526	-0.381809	0.309685
N66	N	1.203694	-0.467302	0.100806
N67	N	1.269104	-0.401746	0.104536
H68	H	1.332947	-0.444937	0.108384
N69	N	0.802227	0.181913	0.183855
N70	N	0.783981	0.271056	0.244736
H71	H	0.817907	0.272010	0.310345
H72	H	0.955915	0.331856	0.752843
H73	H	1.083213	-0.216663	0.166190
H74	H	0.651403	0.177788	0.255964
N75	N	1.188952	0.001412	0.763685
N76	N	1.188966	0.001442	0.857454
H77	H	1.232810	-0.060683	0.895341
N78	N	1.188813	0.001249	0.236319
N79	N	1.242999	-0.075750	0.283205
H80	H	1.286736	-0.138044	0.245327
H81	H	1.082938	-0.437866	-0.166583
N82	N	0.882549	0.435871	0.606186
N83	N	0.799210	0.433913	0.594483
H84	H	0.755378	0.496066	0.632369
N85	N	0.471021	0.172999	0.274830
N86	N	0.410810	0.261012	0.295122
H87	H	0.376880	0.260133	0.360741
N88	N	1.072082	-0.207855	-0.184047
N89	N	1.005647	-0.125352	-0.176733
H90	H	0.974429	-0.088728	-0.239178
H91	H	1.187728	-0.454699	-0.095008
H92	H	0.339700	0.169461	0.165020
N93	N	0.920709	-0.179147	-0.085654
N94	N	0.853468	-0.098860	-0.074236
H95	H	0.819841	-0.060730	-0.134735
N96	N	0.329973	0.169210	-0.183842
N97	N	0.246000	0.166944	-0.183834
H98	H	0.212074	0.166027	-0.249443
H99	H	1.189331	-0.236287	-0.101380
H100	H	0.926021	-0.407889	-0.068693
H101	H	0.955863	0.331866	0.247235
N102	N	0.916137	-0.417087	0.084866
N103	N	0.952836	-0.496320	0.145888
H104	H	0.917911	-0.522709	0.206085
H105	H	0.895135	0.418029	0.404768
H106	H	1.237091	-0.066924	0.595250
N107	N	1.249691	-0.084799	0.393865
N108	N	1.247735	-0.202137	0.405610
H109	H	1.291586	-0.264295	0.367753
N110	N	0.471055	0.173013	-0.274795
N111	N	0.387083	0.170745	-0.274772
H112	H	0.353149	0.169826	-0.340376
