data_functionalizedCrystal
_audit_creation_method	'MofGen! by Chris Wilmer'
_symmetry_space_group_name_H-M	'P1'
_symmetry_Int_Tables_number	1
_symmetry_cell_setting	triclinic
loop_
_symmetry_equiv_pos_as_xyz
  x,y,z
_cell_length_a	14.044220
_cell_length_b	15.944551
_cell_length_c	13.101039
_cell_angle_alpha	93.361595
_cell_angle_beta	86.340132
_cell_angle_gamma	88.343808
loop_
_atom_site_label
_atom_site_type_symbol
_atom_site_fract_x
_atom_site_fract_y
_atom_site_fract_z
O1	O	1.262927	0.198266	-0.085109
O2	O	1.762927	0.698266	0.414891
O3	O	0.986959	0.190957	-0.085135
O4	O	1.486959	0.690957	0.414865
O5	O	1.132479	0.072901	-0.085112
O6	O	1.632479	0.572901	0.414888
O7	O	1.117408	0.316322	-0.085132
O8	O	1.617408	0.816322	0.414868
O9	O	1.122038	0.081387	0.085316
O10	O	1.622038	0.581387	0.585316
O11	O	0.976518	0.199443	0.085293
O12	O	1.476518	0.699443	0.585293
O13	O	1.252486	0.206752	0.085319
O14	O	1.752486	0.706752	0.585319
Zn15	Zn	1.112845	0.204444	0.112365
Zn16	Zn	1.612845	0.704444	0.612365
Zn17	Zn	1.126601	0.193264	-0.112181
Zn18	Zn	1.626601	0.693264	0.387819
O19	O	1.106967	0.324807	0.085296
O20	O	1.606967	0.824807	0.585296
C21	C	0.946424	0.192001	0.000076
C22	C	1.446424	0.692001	0.500076
C23	C	0.841198	0.182459	0.000066
C24	C	1.341198	0.682459	0.500066
C25	C	0.648535	0.165017	0.000088
C26	C	1.148535	0.665017	0.500088
C27	C	0.590906	0.232688	0.000087
C28	C	1.090906	0.732688	0.500087
C29	C	0.483701	0.222982	0.000099
C30	C	0.983701	0.722982	0.500099
C31	C	0.755749	0.174721	0.000076
C32	C	1.255749	0.674721	0.500076
C33	C	1.126633	0.045803	0.000102
C34	C	1.626633	0.545803	0.500102
C35	C	1.124757	-0.047583	0.000102
C36	C	1.624757	0.452417	0.500102
C37	C	1.030074	-0.269531	0.000079
C38	C	1.530074	0.230469	0.500079
C39	C	1.068894	-0.323071	0.084115
C40	C	1.568894	0.176929	0.584115
C41	C	1.121364	-0.218563	0.000094
C42	C	1.621364	0.281437	0.500094
C43	C	1.079209	-0.331419	-0.083914
C44	C	1.579209	0.168581	0.416086
C45	C	1.118080	-0.383723	0.000082
C46	C	1.618080	0.116277	0.500082
C47	C	1.160204	-0.270871	0.084199
C48	C	1.660204	0.229129	0.584199
C49	C	1.170512	-0.279217	-0.083905
C50	C	1.670512	0.220783	0.416095
C51	C	1.209397	-0.332734	0.000151
C52	C	1.709397	0.167266	0.500151
C53	C	1.123253	-0.123419	0.000102
C54	C	1.623253	0.376581	0.500102
C55	C	1.116197	-0.478865	0.000081
C56	C	1.616197	0.021135	0.500081
C57	C	1.293021	0.205707	0.000106
C58	C	1.793021	0.705707	0.500106
C59	C	1.398248	0.215249	0.000108
C60	C	1.898248	0.715249	0.500108
C61	C	1.112813	0.351905	0.000079
C62	C	1.612813	0.851905	0.500079
C63	C	1.114689	0.445291	0.000072
C64	C	1.614689	0.945291	0.500072
N65	N	1.103463	0.212075	0.265612
N66	N	1.603463	0.712075	0.765612
N67	N	1.135990	0.185628	-0.265429
N68	N	1.635990	0.685628	0.234571
C69	C	1.090699	0.222464	0.474653
C70	C	1.590699	0.722464	0.974653
C71	C	1.148750	0.175242	0.525537
C72	C	1.648750	0.675242	1.025537
C73	C	1.141649	0.181022	0.641855
C74	C	1.641649	0.681022	1.141855
C75	C	1.097800	0.216684	0.358325
C76	C	1.597800	0.716684	0.858325
H77	H	0.954293	-0.241893	0.000156
H78	H	1.454293	0.258107	0.500156
N79	N	1.014988	-0.347484	0.173227
N80	N	1.514988	0.152516	0.673227
N81	N	0.928877	-0.325354	0.188192
N82	N	1.428877	0.174646	0.688192
H83	H	0.890800	-0.342593	0.251124
H84	H	1.390800	0.157407	0.751124
H85	H	1.035671	0.267230	0.518441
H86	H	1.535671	0.767230	1.018441
H87	H	1.213443	-0.259735	-0.154947
H88	H	1.713443	0.240265	0.345053
H89	H	0.622082	0.297911	0.000076
H90	H	1.122082	0.797911	0.500076
H91	H	1.044938	-0.357926	-0.154965
H92	H	1.544938	0.142074	0.345035
N93	N	0.609418	0.083204	0.000102
N94	N	1.109418	0.583204	0.500102
N95	N	0.521121	0.075339	0.000110
N96	N	1.021121	0.575339	0.500110
H97	H	0.493483	0.017559	0.000118
H98	H	0.993483	0.517559	0.500118
N99	N	1.217837	0.119113	0.470624
N100	N	1.717837	0.619113	0.970624
N101	N	1.272446	0.074737	0.518400
N102	N	1.772446	0.574737	1.018400
H103	H	1.321252	0.035111	0.479615
H104	H	1.821252	0.535111	0.979615
H105	H	1.194427	-0.244450	0.155322
H106	H	1.694427	0.255550	0.655322
N107	N	1.304525	-0.367229	0.000205
N108	N	1.804525	0.132771	0.500205
N109	N	1.336964	-0.416797	-0.071953
N110	N	1.836964	0.083203	0.428047
H111	H	1.404147	-0.441162	-0.071912
H112	H	1.904147	0.058838	0.428088
