data_functionalizedCrystal
_audit_creation_method	'MofGen! by Chris Wilmer'
_symmetry_space_group_name_H-M	'P1'
_symmetry_Int_Tables_number	1
_symmetry_cell_setting	triclinic
loop_
_symmetry_equiv_pos_as_xyz
  x,y,z
_cell_length_a	14.044190
_cell_length_b	14.044220
_cell_length_c	13.101039
_cell_angle_alpha	93.659868
_cell_angle_beta	93.663707
_cell_angle_gamma	86.809672
loop_
_atom_site_label
_atom_site_type_symbol
_atom_site_fract_x
_atom_site_fract_y
_atom_site_fract_z
O1	O	0.225348	-1.281975	-0.085126
O2	O	0.475348	-1.031975	0.164874
O3	O	0.725348	-0.781975	0.414874
O4	O	0.975348	-0.531975	0.664874
O5	O	0.217041	-1.005305	-0.085151
O6	O	0.467041	-0.755305	0.164849
O7	O	0.717041	-0.505305	0.414849
O8	O	0.967041	-0.255305	0.664849
O9	O	0.082859	-1.139483	-0.085118
O10	O	0.332859	-0.889483	0.164882
O11	O	0.582859	-0.639483	0.414882
O12	O	0.832859	-0.389483	0.664882
O13	O	0.359530	-1.147797	-0.085158
O14	O	0.609530	-0.897797	0.164842
O15	O	0.859530	-0.647797	0.414842
O16	O	1.109530	-0.397797	0.664842
O17	O	0.092504	-1.129857	0.085309
O18	O	0.342504	-0.879857	0.335309
O19	O	0.592504	-0.629857	0.585309
O20	O	0.842504	-0.379857	0.835309
O21	O	0.226686	-0.995679	0.085277
O22	O	0.476686	-0.745679	0.335277
O23	O	0.726686	-0.495679	0.585277
O24	O	0.976686	-0.245679	0.835277
O25	O	0.234993	-1.272349	0.085302
O26	O	0.484993	-1.022349	0.335302
O27	O	0.734993	-0.772349	0.585302
O28	O	0.984993	-0.522349	0.835302
Zn29	Zn	0.232371	-1.132486	0.112348
Zn30	Zn	0.482371	-0.882486	0.362348
Zn31	Zn	0.732371	-0.632486	0.612348
Zn32	Zn	0.982371	-0.382486	0.862348
Zn33	Zn	0.219663	-1.145168	-0.112197
Zn34	Zn	0.469663	-0.895168	0.137803
Zn35	Zn	0.719663	-0.645168	0.387803
Zn36	Zn	0.969663	-0.395168	0.637803
O37	O	0.369174	-1.138172	0.085270
O38	O	0.619174	-0.888172	0.335270
O39	O	0.869174	-0.638172	0.585270
O40	O	1.119174	-0.388172	0.835270
C41	C	0.052060	-1.131033	0.000098
C42	C	0.302060	-0.881033	0.250098
C43	C	0.552060	-0.631033	0.500098
C44	C	0.802060	-0.381033	0.750098
C45	C	-0.054083	-1.120185	0.000106
C46	C	0.195917	-0.870185	0.250106
C47	C	0.445917	-0.620185	0.500106
C48	C	0.695917	-0.370185	0.750106
C49	C	0.218228	-0.964870	0.000060
C50	C	0.468228	-0.714870	0.250060
C51	C	0.718228	-0.464870	0.500060
C52	C	0.968228	-0.214870	0.750060
C53	C	0.207382	-0.858728	0.000051
C54	C	0.457382	-0.608728	0.250051
C55	C	0.707382	-0.358728	0.500051
C56	C	0.957382	-0.108728	0.750051
C57	C	0.233806	-1.312784	0.000089
C58	C	0.483806	-1.062784	0.250089
C59	C	0.733806	-0.812784	0.500089
C60	C	0.983806	-0.562784	0.750089
C61	C	0.244651	-1.418927	0.000091
C62	C	0.494651	-1.168927	0.250091
C63	C	0.744651	-0.918927	0.500091
C64	C	0.994651	-0.668927	0.750091
C65	C	-0.299543	-1.177288	0.000071
C66	C	-0.049543	-0.927288	0.250071
C67	C	0.200457	-0.677288	0.500071
C68	C	0.450457	-0.427288	0.750071
C69	C	-0.248418	-1.100371	0.000071
C70	C	0.001582	-0.850371	0.250071
C71	C	0.251582	-0.600371	0.500071
C72	C	0.501582	-0.350371	0.750071
C73	C	-0.140280	-1.111398	0.000091
C74	C	0.109720	-0.861398	0.250091
C75	C	0.359720	-0.611398	0.500091
C76	C	0.609720	-0.361398	0.750091
C77	C	-0.407691	-1.166262	0.000052
C78	C	-0.157691	-0.916262	0.250052
C79	C	0.092309	-0.666262	0.500052
C80	C	0.342309	-0.416262	0.750052
C81	C	0.399974	-1.146621	0.000051
C82	C	0.649974	-0.896621	0.250051
C83	C	0.899974	-0.646621	0.500051
C84	C	1.149974	-0.396621	0.750051
C85	C	0.506116	-1.157470	0.000036
C86	C	0.756116	-0.907470	0.250036
C87	C	1.006116	-0.657470	0.500036
C88	C	1.256116	-0.407470	0.750036
N89	N	0.241043	-1.123838	0.265595
N90	N	0.491043	-0.873838	0.515595
N91	N	0.741043	-0.623838	0.765595
N92	N	0.991043	-0.373838	1.015595
C93	C	0.187557	-0.664388	0.000075
C94	C	0.437557	-0.414388	0.250075
C95	C	0.687557	-0.164388	0.500075
C96	C	0.937557	0.085612	0.750075
C97	C	0.264472	-0.613261	0.000068
C98	C	0.514472	-0.363261	0.250068
C99	C	0.764472	-0.113261	0.500068
C100	C	1.014472	0.136739	0.750068
C101	C	0.253441	-0.505123	0.000081
C102	C	0.503441	-0.255123	0.250081
C103	C	0.753441	-0.005123	0.500081
C104	C	1.003441	0.244877	0.750081
C105	C	0.198587	-0.772535	0.000062
C106	C	0.448587	-0.522535	0.250062
C107	C	0.698587	-0.272535	0.500062
C108	C	0.948587	-0.022535	0.750062
N109	N	0.210984	-1.153824	-0.265444
N110	N	0.460984	-0.903824	-0.015444
N111	N	0.710984	-0.653824	0.234556
N112	N	0.960984	-0.403824	0.484556
C113	C	0.252851	-1.112072	0.474635
C114	C	0.502851	-0.862072	0.724635
C115	C	0.752851	-0.612072	0.974635
C116	C	1.002851	-0.362072	1.224635
C117	C	0.199179	-1.165586	0.525523
C118	C	0.449179	-0.915586	0.775523
C119	C	0.699179	-0.665586	1.025523
C120	C	0.949179	-0.415586	1.275523
C121	C	0.205749	-1.159040	0.641840
C122	C	0.455749	-0.909040	0.891840
C123	C	0.705749	-0.659040	1.141840
C124	C	0.955749	-0.409040	1.391840
C125	C	0.246282	-1.118618	0.358307
C126	C	0.496282	-0.868618	0.608307
C127	C	0.746282	-0.618618	0.858307
C128	C	0.996282	-0.368618	1.108307
H129	H	-0.285862	-1.026240	0.000059
H130	H	-0.035862	-0.776240	0.250059
H131	H	0.214138	-0.526240	0.500059
H132	H	0.464138	-0.276240	0.750059
H133	H	0.338605	-0.650703	0.000052
H134	H	0.588605	-0.400703	0.250052
H135	H	0.838605	-0.150703	0.500052
H136	H	1.088605	0.099297	0.750052
H137	H	-0.262101	-1.251413	0.000088
H138	H	-0.012101	-1.001413	0.250088
H139	H	0.237899	-0.751413	0.500088
H140	H	0.487899	-0.501413	0.750088
H141	H	0.113431	-0.626948	0.000091
H142	H	0.363431	-0.376948	0.250091
H143	H	0.613431	-0.126948	0.500091
H144	H	0.863431	0.123052	0.750091
H145	H	0.148295	-1.216319	0.481733
H146	H	0.398295	-0.966319	0.731733
H147	H	0.648295	-0.716319	0.981733
H148	H	0.898295	-0.466319	1.231733
H149	H	0.303733	-1.061345	0.518419
H150	H	0.553733	-0.811345	0.768419
H151	H	0.803733	-0.561345	1.018419
H152	H	1.053733	-0.311345	1.268419
