data_functionalizedCrystal
_audit_creation_method	'MofGen! by Chris Wilmer'
_symmetry_space_group_name_H-M	'P1'
_symmetry_Int_Tables_number	1
_symmetry_cell_setting	triclinic
loop_
_symmetry_equiv_pos_as_xyz
  x,y,z
_cell_length_a	6.817900
_cell_length_b	19.551136
_cell_length_c	12.200875
_cell_angle_alpha	94.925484
_cell_angle_beta	107.143593
_cell_angle_gamma	101.650842
loop_
_atom_site_label
_atom_site_type_symbol
_atom_site_fract_x
_atom_site_fract_y
_atom_site_fract_z
V1	V	-4.059339	-0.096836	-0.358227
O2	O	-4.055456	0.004490	-0.350826
O3	O	-4.001763	-0.191852	-0.356336
O4	O	-4.029194	-0.095418	-0.514207
O5	O	-4.027835	-0.092611	-0.191862
V6	V	-4.541791	-0.084707	-0.338260
O7	O	-4.322948	-0.123440	-0.402025
O8	O	-4.728380	-0.058103	-0.294462
O9	O	-4.376161	0.010309	-0.340151
O10	O	-4.663071	-0.186033	-0.345661
O11	O	-4.690692	-0.088932	-0.504625
O12	O	-4.348730	-0.086125	-0.182280
C13	C	-3.843941	-0.215012	-0.350829
C14	C	-3.878274	-0.292689	-0.350323
C15	C	-3.842883	-0.319133	-0.244962
C16	C	-3.875210	-0.392117	-0.244451
C17	C	-3.942889	-0.438655	-0.349305
C18	C	-3.978294	-0.412204	-0.454680
C19	C	-3.945987	-0.339221	-0.455189
C20	C	-3.916297	-0.559699	-0.425333
C21	C	-3.948590	-0.632680	-0.424819
C22	C	-4.042547	-0.663758	-0.347741
C23	C	-4.104172	-0.621844	-0.271156
C24	C	-4.071865	-0.548862	-0.271665
C25	C	-3.977928	-0.517793	-0.348766
C26	C	-4.042207	-0.769339	-0.241820
C27	C	-4.074549	-0.842325	-0.241314
C28	C	-4.177614	-0.862410	-0.451545
C29	C	-4.145292	-0.789426	-0.452049
C30	C	-4.077579	-0.742894	-0.347182
C31	C	-3.878931	-0.092000	-0.552207
C32	C	-3.935506	-0.091470	-0.679726
C33	C	-4.039048	-0.090499	-0.913194
C34	C	-3.981421	-0.091039	-0.783275
C35	C	-4.197324	0.033466	-0.345655
C36	C	-4.142230	0.111142	-0.346169
C37	C	-4.162334	-0.089545	-0.144274
C38	C	-4.084997	-0.090072	-0.016754
H39	H	-3.787762	-0.281251	-0.159572
C40	C	-4.139646	-0.502759	-0.187421
N41	N	-4.190701	-0.468035	-0.123967
H42	H	-4.232721	-0.900301	-0.536919
H43	H	-4.033403	-0.450100	-0.540053
C44	C	-3.836260	-0.421212	-0.128542
N45	N	-3.806915	-0.443123	-0.041238
H46	H	-4.174097	-0.767896	-0.537844
H47	H	-3.974815	-0.317693	-0.540989
C48	C	-4.035615	-0.871412	-0.125403
N49	N	-4.006284	-0.893320	-0.038096
H50	H	-3.987071	-0.731451	-0.156432
C51	C	-3.880792	-0.678778	-0.509062
N52	N	-3.829725	-0.713498	-0.572516
H53	H	-3.839788	-0.534403	-0.488104
C54	C	-4.207515	-0.656023	-0.186357
N55	N	-4.285343	-0.681770	-0.122485
