data_functionalizedCrystal
_audit_creation_method	'MofGen! by Chris Wilmer'
_symmetry_space_group_name_H-M	'P1'
_symmetry_Int_Tables_number	1
_symmetry_cell_setting	triclinic
loop_
_symmetry_equiv_pos_as_xyz
  x,y,z
_cell_length_a	8.597213
_cell_length_b	8.559649
_cell_length_c	14.586319
_cell_angle_alpha	89.997419
_cell_angle_beta	82.294001
_cell_angle_gamma	77.624681
loop_
_atom_site_label
_atom_site_type_symbol
_atom_site_fract_x
_atom_site_fract_y
_atom_site_fract_z
O1	O	2.053780	0.238041	-0.238461
O2	O	1.594637	0.256302	-0.202196
O3	O	1.864659	0.015202	-0.223523
O4	O	1.783758	0.479142	-0.217134
O5	O	1.864640	0.015196	-0.071040
O6	O	1.594618	0.256297	-0.049713
O7	O	2.053760	0.238036	-0.085979
Cu8	Cu	1.824187	0.247166	-0.053923
Cu9	Cu	1.824210	0.247172	-0.234251
O10	O	1.783738	0.479136	-0.064652
C11	C	1.536391	0.254338	-0.121355
C12	C	1.362868	0.248475	-0.107649
C13	C	1.870780	-0.044235	-0.147767
C14	C	1.889030	-0.221330	-0.149214
C15	C	2.112006	0.240000	-0.166822
C16	C	2.285529	0.245863	-0.180534
C17	C	1.777617	0.538573	-0.140409
C18	C	1.759367	0.715668	-0.138969
N19	N	1.824182	0.247160	0.072909
C20	C	1.943783	0.140438	0.394456
C21	C	1.943779	0.140439	0.298475
C22	C	1.704615	0.353902	0.317376
C23	C	1.704626	0.353908	0.413354
C24	C	1.824209	0.247167	0.451892
C25	C	1.824195	0.247162	0.259933
C26	C	1.824190	0.247163	0.155866
C27	C	1.824216	0.247168	0.555965
N28	N	1.824222	0.247169	0.638916
H29	H	1.634396	-0.202787	-0.129095
O30	O	2.038017	-0.318839	-0.161020
C31	C	2.023692	-0.479885	-0.159856
H32	H	1.901377	-0.488037	-0.179059
H33	H	2.122751	-0.553951	-0.211948
H34	H	2.035367	-0.527894	-0.087623
H35	H	1.296323	0.246232	-0.034762
H36	H	1.352062	0.248124	-0.253415
H37	H	1.607251	0.440806	0.285989
H38	H	2.041156	0.053525	0.425831
H39	H	2.041148	0.053532	0.251713
H40	H	1.607253	0.440828	0.460123
