data_functionalizedCrystal
_audit_creation_method	'MofGen! by Chris Wilmer'
_symmetry_space_group_name_H-M	'P1'
_symmetry_Int_Tables_number	1
_symmetry_cell_setting	triclinic
loop_
_symmetry_equiv_pos_as_xyz
  x,y,z
_cell_length_a	14.908571
_cell_length_b	14.908520
_cell_length_c	14.908308
_cell_angle_alpha	83.639235
_cell_angle_beta	89.824947
_cell_angle_gamma	90.205961
loop_
_atom_site_label
_atom_site_type_symbol
_atom_site_fract_x
_atom_site_fract_y
_atom_site_fract_z
Zn1	Zn	1.316651	-0.470613	0.613065
Zn2	Zn	1.316549	-0.613252	0.470429
Zn3	Zn	1.176020	-0.453291	0.453125
Zn4	Zn	1.157642	-0.612180	0.612023
O5	O	1.241715	-0.537334	0.537161
O6	O	1.441995	-0.497231	0.601822
O7	O	1.305556	-0.585232	0.341941
O8	O	1.202409	-0.329399	0.467536
O9	O	1.441920	-0.602028	0.497029
O10	O	1.305730	-0.342124	0.585043
O11	O	1.202310	-0.467710	0.329228
O12	O	1.048225	-0.466671	0.466525
O13	O	1.171086	-0.600202	0.738354
O14	O	1.034722	-0.583406	0.583267
O15	O	1.287909	-0.496192	0.739120
O16	O	1.287736	-0.739300	0.496018
O17	O	1.170987	-0.738513	0.600046
C18	C	1.008970	-0.523043	0.522906
C19	C	0.909397	-0.516953	0.516830
C20	C	1.227379	-0.771629	0.549818
C21	C	1.221326	-0.871868	0.555268
C22	C	0.708277	-0.627234	0.626831
C23	C	0.614720	-0.621514	0.621125
C24	C	0.628723	-0.499789	0.499719
C25	C	0.722281	-0.505509	0.505424
C26	C	0.762054	-0.569235	0.568981
C27	C	0.855613	-0.574958	0.574682
C28	C	0.869615	-0.453230	0.453280
C29	C	0.776058	-0.447510	0.447575
C30	C	1.331634	-1.060998	0.457284
C31	C	1.325950	-1.155181	0.462402
C32	C	1.204279	-1.154420	0.570626
C33	C	1.209963	-1.060237	0.565508
C34	C	1.273642	-1.013529	0.508834
C35	C	1.279321	-0.919343	0.503712
C36	C	1.157655	-0.918584	0.611940
C37	C	1.151970	-1.012768	0.617058
C38	C	1.475370	-0.551681	0.551472
C39	C	1.574939	-0.557795	0.557571
C40	C	1.227459	-0.550010	0.772372
C41	C	1.221383	-0.555411	0.872606
C42	C	1.256131	-0.302127	0.524476
C43	C	1.262274	-0.201896	0.519070
C44	C	1.255972	-0.524646	0.302864
C45	C	1.262236	-0.519001	0.202628
C46	C	1.331614	-0.457236	1.061752
C47	C	1.325908	-0.462308	1.155930
C48	C	1.204264	-0.570623	1.155141
C49	C	1.209969	-0.565551	1.060963
C50	C	1.273647	-0.508856	1.014272
C51	C	1.279356	-0.503789	0.920093
C52	C	1.157708	-0.612099	0.919305
C53	C	1.152002	-0.617171	1.013483
H54	H	0.887995	-0.626848	0.626432
F55	F	1.399394	-1.011285	0.396957
F56	F	1.347129	-0.443453	0.870402
H57	H	0.743661	-0.395624	0.395831
F58	F	0.926855	-0.391504	0.391703
H59	H	1.373109	-0.420271	1.194585
H60	H	1.110431	-0.879924	0.653913
F61	F	1.399391	-0.396907	1.012059
F62	F	0.557489	-0.683244	0.682698
H63	H	1.373175	-1.193828	0.420427
H64	H	0.740661	-0.679126	0.678577
H65	H	1.152420	-0.616780	1.193173
F66	F	1.347090	-0.869634	0.443392
F67	F	1.136522	-1.204146	0.630947
H68	H	1.110509	-0.654134	0.880636
H69	H	0.596323	-0.447902	0.447979
F70	F	1.084206	-1.062487	0.677374
F71	F	1.084234	-0.677504	1.063184
