data_functionalizedCrystal
_audit_creation_method	'MofGen! by Chris Wilmer'
_symmetry_space_group_name_H-M	'P1'
_symmetry_Int_Tables_number	1
_symmetry_cell_setting	triclinic
loop_
_symmetry_equiv_pos_as_xyz
  x,y,z
_cell_length_a	14.044209
_cell_length_b	17.699077
_cell_length_c	16.776229
_cell_angle_alpha	90.007527
_cell_angle_beta	89.991211
_cell_angle_gamma	88.234265
loop_
_atom_site_label
_atom_site_type_symbol
_atom_site_fract_x
_atom_site_fract_y
_atom_site_fract_z
O1	O	-0.119823	-1.012331	0.066283
O2	O	0.380177	-0.512331	0.566283
O3	O	-0.135422	-0.793028	0.066287
O4	O	0.364578	-0.293028	0.566287
O5	O	0.010354	-0.899388	0.066274
O6	O	0.510354	-0.399388	0.566274
O7	O	-0.265600	-0.905970	0.066296
O8	O	0.234400	-0.405970	0.566296
O9	O	0.010364	-0.899403	-0.066303
O10	O	0.510364	-0.399403	0.433697
O11	O	-0.135413	-0.793043	-0.066289
O12	O	0.364587	-0.293043	0.433711
O13	O	-0.119814	-1.012346	-0.066294
O14	O	0.380186	-0.512346	0.433706
Zn15	Zn	-0.127612	-0.902697	-0.087341
Zn16	Zn	0.372388	-0.402697	0.412659
Zn17	Zn	-0.127624	-0.902677	0.087334
Zn18	Zn	0.372376	-0.402677	0.587334
O19	O	-0.265590	-0.905985	-0.066280
O20	O	0.234410	-0.405985	0.433720
C21	C	0.045667	-0.896514	-0.000016
C22	C	0.545667	-0.396514	0.499984
C23	C	0.150873	-0.887919	-0.000019
C24	C	0.650873	-0.387919	0.499981
C25	C	-0.134859	-0.764800	-0.000000
C26	C	0.365141	-0.264800	0.500000
C27	C	-0.133185	-0.680666	0.000001
C28	C	0.366815	-0.180666	0.500001
C29	C	-0.120377	-1.040574	-0.000004
C30	C	0.379623	-0.540574	0.499996
C31	C	-0.122051	-1.124708	-0.000000
C32	C	0.377949	-0.624708	0.500000
C33	C	0.343498	-0.872205	-0.000012
C34	C	0.843498	-0.372205	0.499988
C35	C	0.401273	-0.933171	-0.000012
C36	C	0.901273	-0.433171	0.499988
C37	C	0.508456	-0.924428	-0.000008
C38	C	1.008456	-0.424428	0.499992
C39	C	0.236304	-0.880947	-0.000016
C40	C	0.736304	-0.380947	0.499984
C41	C	0.699097	-0.908861	0.000005
C42	C	1.199097	-0.408861	0.500005
C43	C	0.593892	-0.917461	-0.000005
C44	C	1.093892	-0.417461	0.499995
N45	N	-0.127603	-0.902715	-0.206552
N46	N	0.372397	-0.402715	0.293448
C47	C	-0.132392	-0.641152	-0.072268
C48	C	0.367608	-0.141152	0.427732
C49	C	-0.130804	-0.562100	-0.072268
C50	C	0.369196	-0.062100	0.427732
C51	C	-0.130016	-0.522563	-0.000000
C52	C	0.369984	-0.022563	0.500000
C53	C	-0.130807	-0.562082	0.072274
C54	C	0.369193	-0.062082	0.572274
C55	C	-0.132389	-0.641133	0.072274
C56	C	0.367611	-0.141133	0.572274
C57	C	-0.124430	-0.243279	0.072275
C58	C	0.375570	0.256721	0.572275
C59	C	-0.122851	-0.164222	0.072269
C60	C	0.377149	0.335778	0.572269
C61	C	-0.122845	-0.164246	-0.072268
C62	C	0.377155	0.335754	0.427732
C63	C	-0.124426	-0.243297	-0.072267
C64	C	0.375574	0.256703	0.427733
C65	C	-0.125212	-0.282809	0.000006
C66	C	0.374788	0.217191	0.500006
C67	C	-0.126932	-0.368527	0.000006
C68	C	0.373068	0.131473	0.500006
C69	C	-0.128303	-0.436847	0.000000
C70	C	0.371697	0.063153	0.500000
N71	N	-0.127626	-0.902663	0.206546
N72	N	0.372374	-0.402663	0.706546
C73	C	-0.063188	-0.949916	0.751704
C74	C	0.436812	-0.449916	1.251704
C75	C	-0.063187	-0.949906	0.668252
C76	C	0.436813	-0.449906	1.168252
C77	C	-0.127607	-0.902700	0.626545
C78	C	0.372393	-0.402700	1.126545
C79	C	-0.192025	-0.855494	0.668294
C80	C	0.307975	-0.355494	1.168294
C81	C	-0.192021	-0.855500	0.751745
C82	C	0.307979	-0.355500	1.251745
C83	C	-0.192045	-0.855467	0.331747
C84	C	0.307955	-0.355467	0.831747
C85	C	-0.192046	-0.855466	0.248291
C86	C	0.307954	-0.355466	0.748291
C87	C	-0.063211	-0.949874	0.248254
C88	C	0.436789	-0.449874	0.748254
C89	C	-0.063206	-0.949880	0.331705
C90	C	0.436794	-0.449880	0.831705
C91	C	-0.127621	-0.902671	0.373447
C92	C	0.372379	-0.402671	0.873447
C93	C	-0.127620	-0.902681	0.463935
C94	C	0.372380	-0.402681	0.963935
C95	C	-0.127613	-0.902693	0.536058
C96	C	0.372387	-0.402693	1.036058
H97	H	0.370239	-0.991933	0.000041
H98	H	0.870239	-0.491933	0.500041
N99	N	-0.257843	-0.807239	0.374366
N100	N	0.242157	-0.307239	0.874366
N101	N	-0.315353	-0.765095	0.337115
N102	N	0.184647	-0.265095	0.837115
H103	H	-0.361826	-0.731031	0.367217
H104	H	0.138174	-0.231031	0.867217
N105	N	0.382406	-0.798487	-0.000030
N106	N	0.882406	-0.298487	0.499970
N107	N	0.328152	-0.741159	-0.000042
N108	N	0.828152	-0.241159	0.499958
H109	H	0.355639	-0.689095	-0.000060
H110	H	0.855639	-0.189095	0.499940
N111	N	-0.133218	-0.681522	-0.146096
N112	N	0.366782	-0.181522	0.353904
N113	N	-0.132516	-0.646229	-0.210616
N114	N	0.367484	-0.146229	0.289384
H115	H	-0.133102	-0.674737	-0.262761
H116	H	0.366898	-0.174737	0.237239
N117	N	-0.257847	-0.807248	0.205674
N118	N	0.242153	-0.307248	0.705674
N119	N	-0.316711	-0.835132	0.159111
N120	N	0.183289	-0.335132	0.659111
H121	H	-0.363181	-0.801081	0.129011
H122	H	0.136819	-0.301081	0.629011
N123	N	-0.257816	-0.807271	0.625682
N124	N	0.242184	-0.307271	1.125682
N125	N	-0.257813	-0.807271	0.551173
N126	N	0.242187	-0.307271	1.051173
H127	H	-0.304280	-0.773214	0.521078
H128	H	0.195720	-0.273214	1.021078
N129	N	-0.129985	-0.521750	-0.146096
N130	N	0.370015	-0.021750	0.353904
N131	N	-0.130691	-0.557060	-0.210616
N132	N	0.369309	-0.057060	0.289384
H133	H	-0.130111	-0.528564	-0.262761
H134	H	0.369889	-0.028564	0.237239
H135	H	-0.125072	-0.275484	-0.131116
H136	H	0.374928	0.224516	0.368884
H137	H	-0.122209	-0.132033	0.131122
H138	H	0.377791	0.367967	0.631122
N139	N	-0.122043	-0.123872	-0.146089
N140	N	0.377957	0.376128	0.353911
N141	N	-0.120632	-0.053292	-0.146084
N142	N	0.379368	0.446708	0.353916
H143	H	-0.120070	-0.024777	-0.198219
H144	H	0.379930	0.475223	0.301781
N145	N	0.002600	-0.998079	0.205604
N146	N	0.502600	-0.498079	0.705604
N147	N	0.061462	-0.970184	0.159038
N148	N	0.561462	-0.470184	0.659038
H149	H	0.107940	-1.004228	0.128917
H150	H	0.607940	-0.504228	0.628917
H151	H	-0.125067	-0.275441	0.131124
H152	H	0.374933	0.224559	0.631124
N153	N	0.002641	-0.998086	0.625600
N154	N	0.502641	-0.498086	1.125600
N155	N	0.002662	-0.998049	0.551092
N156	N	0.502662	-0.498049	1.051092
H157	H	0.049172	-1.032063	0.520967
H158	H	0.549172	-0.532063	1.020967
N159	N	0.002608	-0.998104	0.374291
N160	N	0.502608	-0.498104	0.874291
N161	N	0.090228	-0.991291	0.364955
N162	N	0.590228	-0.491291	0.864955
H163	H	0.136714	-1.025351	0.395028
H164	H	0.636714	-0.525351	0.895028
N165	N	-0.129993	-0.521687	0.146088
N166	N	0.370007	-0.021687	0.646088
N167	N	-0.128581	-0.451107	0.146079
N168	N	0.371419	0.048893	0.646079
H169	H	-0.128008	-0.422578	0.198212
H170	H	0.371992	0.077422	0.698212
H171	H	-0.133037	-0.673304	0.131122
H172	H	0.366963	-0.173304	0.631122
H173	H	-0.010733	-0.988361	0.785657
H174	H	0.489267	-0.488361	1.285657
H175	H	-0.244473	-0.817064	0.785732
H176	H	0.255527	-0.317064	1.285732
