data_functionalizedCrystal
_audit_creation_method	'MofGen! by Chris Wilmer'
_symmetry_space_group_name_H-M	'P1'
_symmetry_Int_Tables_number	1
_symmetry_cell_setting	triclinic
loop_
_symmetry_equiv_pos_as_xyz
  x,y,z
_cell_length_a	10.968094
_cell_length_b	10.065918
_cell_length_c	8.559649
_cell_angle_alpha	79.193516
_cell_angle_beta	102.585609
_cell_angle_gamma	87.802429
loop_
_atom_site_label
_atom_site_type_symbol
_atom_site_fract_x
_atom_site_fract_y
_atom_site_fract_z
O1	O	1.600898	-0.262988	-0.175140
O2	O	2.100898	0.237012	0.324860
O3	O	1.246120	-0.179555	-0.212024
O4	O	1.746120	0.320445	0.287976
O5	O	1.454765	-0.228623	0.040029
O6	O	1.954765	0.271377	0.540029
O7	O	1.392253	-0.213919	-0.427193
O8	O	1.892253	0.286081	0.072807
O9	O	1.426859	-0.449049	0.080836
O10	O	1.926859	0.050951	0.580836
O11	O	1.218213	-0.399980	-0.171217
O12	O	1.718213	0.100020	0.328783
O13	O	1.572992	-0.483414	-0.134333
O14	O	2.072992	0.016586	0.365667
Zn15	Zn	1.391172	-0.476694	-0.146296
Zn16	Zn	1.891172	0.023306	0.353704
Zn17	Zn	1.427940	-0.186274	-0.200061
Zn18	Zn	1.927940	0.313726	0.299939
O19	O	1.364346	-0.434345	-0.386386
O20	O	1.864346	0.065655	0.113614
C21	C	1.187167	-0.279185	-0.192021
C22	C	1.687167	0.220815	0.307979
C23	C	1.053087	-0.247653	-0.193197
C24	C	1.553087	0.252347	0.306803
N25	N	1.366088	-0.674901	-0.109601
N26	N	1.866088	-0.174901	0.390399
C27	C	0.840269	-0.315184	-0.173781
C28	C	1.340269	0.184816	0.326219
C29	C	0.978845	-0.347787	-0.172575
C30	C	1.478845	0.152213	0.327425
C31	C	1.419204	-0.755171	-0.187295
C32	C	1.919204	-0.255171	0.312705
C33	C	1.399910	-0.907801	-0.159038
C34	C	1.899910	-0.407801	0.340962
C35	C	1.631944	-0.383781	-0.154336
C36	C	2.131944	0.116219	0.345664
C37	C	1.766026	-0.415304	-0.153162
C38	C	2.266026	0.084696	0.346838
C39	C	1.445549	-0.339948	0.120115
C40	C	1.945549	0.160052	0.620115
C41	C	1.459652	-0.343257	0.297949
C42	C	1.959652	0.156743	0.797949
N43	N	1.453035	0.011930	-0.236743
N44	N	1.953035	0.511930	0.263257
C45	C	1.373562	-0.323018	-0.466472
C46	C	1.873562	0.176982	0.033528
C47	C	1.359461	-0.319700	-0.644308
C48	C	1.859461	0.180300	-0.144308
H49	H	0.801242	-0.205332	-0.192316
H50	H	1.301242	0.294668	0.307684
Cl51	Cl	1.511477	-0.686830	-0.322284
Cl52	Cl	2.011477	-0.186830	0.177716
H53	H	0.805057	-0.525157	-0.134609
H54	H	1.305057	-0.025157	0.365391
Cl55	Cl	1.608752	-0.378339	0.431681
Cl56	Cl	2.108752	0.121661	0.931681
H57	H	1.017870	-0.457648	-0.154021
H58	H	1.517870	0.042352	0.345979
H59	H	1.262895	-0.296995	0.269080
H60	H	1.762895	0.203005	0.769080
H61	H	1.340152	-0.952070	-0.071592
H62	H	1.840152	-0.452070	0.428408
Cl63	Cl	0.992841	-0.078032	-0.221870
Cl64	Cl	1.492841	0.421968	0.278130
H65	H	1.306333	-0.719176	-0.022161
H66	H	1.806333	-0.219176	0.477839
Cl67	Cl	1.545313	-0.919739	-0.371738
Cl68	Cl	2.045313	-0.419739	0.128262
