data_functionalizedCrystal
_audit_creation_method	'MofGen! by Chris Wilmer'
_symmetry_space_group_name_H-M	'P1'
_symmetry_Int_Tables_number	1
_symmetry_cell_setting	triclinic
loop_
_symmetry_equiv_pos_as_xyz
  x,y,z
_cell_length_a	16.120490
_cell_length_b	16.120484
_cell_length_c	11.169409
_cell_angle_alpha	87.139270
_cell_angle_beta	92.919204
_cell_angle_gamma	90.164100
loop_
_atom_site_label
_atom_site_type_symbol
_atom_site_fract_x
_atom_site_fract_y
_atom_site_fract_z
Zn1	Zn	1.254512	-0.395595	0.798882
Zn2	Zn	1.247346	-0.534674	0.607804
Zn3	Zn	1.115442	-0.388576	0.587559
Zn4	Zn	1.108364	-0.527541	0.797789
O5	O	1.181416	-0.461597	0.698009
O6	O	1.369927	-0.419968	0.782466
O7	O	1.229812	-0.515342	0.437169
O8	O	1.139850	-0.273145	0.607576
O9	O	1.364663	-0.522148	0.642081
O10	O	1.242025	-0.278302	0.762835
O11	O	1.132902	-0.408004	0.422295
O12	O	0.998137	-0.401087	0.606516
O13	O	1.127788	-0.509990	0.965883
O14	O	0.992937	-0.503184	0.760971
O15	O	1.235162	-0.413050	0.966686
O16	O	1.222949	-0.650090	0.641021
O17	O	1.120839	-0.644849	0.780602
C18	C	0.965364	-0.450600	0.681429
C19	C	0.872935	-0.445916	0.674365
C20	C	1.170371	-0.677642	0.712918
C21	C	1.165722	-0.770071	0.719342
C22	C	0.659968	-0.485888	0.734648
C23	C	0.703711	-0.437371	0.661469
C24	C	0.797876	-0.442127	0.668647
C25	C	0.565795	-0.481134	0.727471
C26	C	1.157240	-0.939300	0.731096
C27	C	1.205741	-0.983060	0.664953
C28	C	1.201022	-1.077225	0.671492
C29	C	1.161958	-0.845127	0.724557
C30	C	1.398311	-0.472636	0.714654
C31	C	1.490739	-0.477341	0.721747
C32	C	1.181485	-0.461508	1.011050
C33	C	1.181514	-0.461470	1.144449
C34	C	1.192526	-0.244709	0.683069
C35	C	1.197261	-0.152284	0.676703
C36	C	1.181399	-0.461628	0.386185
C37	C	1.181542	-0.461440	0.252782
H38	H	0.670441	-0.392263	0.593428
H39	H	0.693237	-0.530993	0.802682
N40	N	1.262262	-0.941355	0.587714
N41	N	1.256290	-0.950782	0.477205
H42	H	1.296202	-0.921327	0.422648
N43	N	1.100698	-0.980997	0.808298
N44	N	1.106638	-0.971586	0.918812
H45	H	1.066703	-1.001041	0.973334
