data_functionalizedCrystal
_audit_creation_method	'MofGen! by Chris Wilmer'
_symmetry_space_group_name_H-M	'P1'
_symmetry_Int_Tables_number	1
_symmetry_cell_setting	triclinic
loop_
_symmetry_equiv_pos_as_xyz
  x,y,z
_cell_length_a	23.532407
_cell_length_b	15.625950
_cell_length_c	14.184957
_cell_angle_alpha	85.711972
_cell_angle_beta	103.078482
_cell_angle_gamma	96.420930
loop_
_atom_site_label
_atom_site_type_symbol
_atom_site_fract_x
_atom_site_fract_y
_atom_site_fract_z
O1	O	-0.124272	1.115930	-0.322429
O2	O	-0.119566	0.875003	-0.234809
O3	O	-0.039429	1.002734	-0.281249
O4	O	-0.204409	0.988198	-0.275988
O5	O	-0.063111	0.964981	-0.434375
O6	O	-0.143248	0.837249	-0.387934
O7	O	-0.147954	1.078176	-0.475554
Cu8	Cu	-0.147763	0.954266	-0.445726
Cu9	Cu	-0.119757	0.998913	-0.264637
O10	O	-0.228091	0.950445	-0.429114
C11	C	-0.129271	0.825308	-0.300164
C12	C	-0.122899	0.733482	-0.266768
C13	C	-0.166500	0.328514	-0.574162
C14	C	-0.160517	0.242237	-0.542738
C15	C	-0.134703	0.283437	-0.375822
C16	C	-0.140687	0.369718	-0.407232
C17	C	-0.156585	0.392249	-0.506403
C18	C	-0.130771	0.433454	-0.339473
C19	C	-0.136752	0.519728	-0.370881
C20	C	-0.152647	0.542267	-0.470048
C21	C	-0.162565	0.478524	-0.537811
C22	C	-0.114869	0.410922	-0.240303
C23	C	-0.104954	0.474657	-0.172544
C24	C	-0.110938	0.560933	-0.203951
C25	C	-0.126834	0.583472	-0.303118
C26	C	-0.101021	0.624676	-0.136189
C27	C	-0.107001	0.710951	-0.167597
C28	C	-0.132814	0.669746	-0.334526
C29	C	-0.237489	0.969691	-0.352689
C30	C	-0.300775	0.970801	-0.353102
C31	C	-0.695682	0.902203	-0.328103
C32	C	-0.755145	0.903238	-0.328472
O33	O	-0.788001	0.839645	-0.305308
N34	N	-0.782407	0.979173	-0.356089
C35	C	-0.750202	1.054079	-0.383329
O36	O	-0.778851	1.118762	-0.406853
C37	C	-0.690740	1.053045	-0.382953
C38	C	-0.663483	0.977103	-0.355344
C39	C	-0.668424	0.826268	-0.300495
C40	C	-0.608967	0.825233	-0.300127
C41	C	-0.576767	0.900133	-0.327368
C42	C	-0.604025	0.976068	-0.354976
C43	C	-0.658535	1.127952	-0.410186
C44	C	-0.599069	1.126911	-0.409807
C45	C	-0.571812	1.050970	-0.382197
C46	C	-0.512367	1.049933	-0.381849
N47	N	-0.485104	0.973999	-0.354232
C48	C	-0.517304	0.899099	-0.326992
C49	C	-0.875077	1.056246	-0.384116
C50	C	-0.934539	1.057279	-0.384499
C51	C	-0.939477	0.906438	-0.329640
C52	C	-0.880015	0.905404	-0.329264
C53	C	-0.847815	0.980311	-0.356499
C54	C	-0.392438	0.896930	-0.326223
C55	C	-0.332975	0.895901	-0.325861
C56	C	-0.328042	1.046743	-0.380715
C57	C	-0.387500	1.047771	-0.381081
C58	C	-0.419697	0.972859	-0.353830
O59	O	-0.479473	1.113494	-0.404998
O60	O	-0.488646	0.834429	-0.303460
C61	C	-0.030031	0.983489	-0.357673
C62	C	0.033256	0.982380	-0.357253
C63	C	-0.138249	1.127871	-0.410198
C64	C	-0.144620	1.219699	-0.443588
N65	N	-0.167462	0.922869	-0.573096
C66	C	-0.042238	1.122545	-1.013253
C67	C	-0.057142	1.098765	-1.109640
C68	C	-0.128081	0.985624	-1.068516
C69	C	-0.113184	1.009397	-0.972125
C70	C	-0.070262	1.077858	-0.944502
C71	C	-0.141208	0.964710	-0.903374
C72	C	-0.126311	0.988479	-0.806991
C73	C	-0.083389	1.056935	-0.779358
C74	C	-0.055364	1.101626	-0.848118
C75	C	-0.184128	0.896246	-0.930998
C76	C	-0.212152	0.851559	-0.862247
C77	C	-0.197257	0.875332	-0.765863
C78	C	-0.154335	0.943787	-0.738231
C79	C	-0.225282	0.830640	-0.697103
C80	C	-0.210384	0.854409	-0.600720
C81	C	-0.139437	0.967556	-0.641847
N82	N	-0.100054	1.030316	-0.137270
H83	H	-0.121756	0.265080	-0.295077
C84	C	0.013269	1.211094	-0.898445
C85	C	-0.008184	1.176882	-0.817746
H86	H	0.042397	1.257547	-0.879689
H87	H	-0.017951	1.231380	-0.946796
H88	H	0.029918	1.167556	-0.923568
H89	H	-0.024838	1.220418	-0.792627
H90	H	0.023041	1.156598	-0.769378
C91	C	-0.108289	0.670892	-0.490004
C92	C	-0.150290	0.694526	-0.443537
H93	H	-0.119076	0.686198	-0.557298
H94	H	-0.106154	0.610394	-0.481006
H95	H	-0.071152	0.700070	-0.463231
H96	H	-0.187426	0.665343	-0.470306
H97	H	-0.152431	0.755035	-0.452542
H98	H	-0.071258	1.076284	-0.700875
H99	H	-0.233204	0.818019	-0.544740
C100	C	-0.938400	0.757228	-0.275371
C101	C	-0.974878	0.824105	-0.299689
H102	H	-0.960258	0.706402	-0.256889
H103	H	-0.906844	0.773123	-0.222972
H104	H	-0.923367	0.746794	-0.329770
H105	H	-0.989907	0.834543	-0.245289
H106	H	-1.006445	0.808207	-0.352094
C107	C	-0.187482	0.429137	-0.699672
C108	C	-0.180040	0.503298	-0.646823
H109	H	-0.198265	0.444436	-0.766967
H110	H	-0.217428	0.389775	-0.681571
H111	H	-0.151796	0.402913	-0.686328
H112	H	-0.215727	0.529519	-0.660161
H113	H	-0.150092	0.542675	-0.664931
H114	H	-0.007290	1.178298	-0.990765
H115	H	-0.157516	0.612518	-0.495619
H116	H	-0.301815	1.107723	-0.402898
H117	H	-0.196254	0.876894	-1.009481
H118	H	-0.110004	0.340670	-0.214734
C119	C	0.014493	1.212985	-1.140604
C120	C	-0.026329	1.147883	-1.185211
H121	H	0.033515	1.243305	-1.187259
H122	H	0.042755	1.187990	-1.090533
H123	H	-0.005110	1.251821	-1.113780
H124	H	-0.006725	1.109044	-1.212029
H125	H	-0.054595	1.172879	-1.235299
H126	H	-0.092007	0.456300	-0.091799
H127	H	-0.088071	0.606319	-0.055444
H128	H	-0.586778	0.763395	-0.277637
H129	H	-0.418646	0.835930	-0.304031
H130	H	-0.163028	0.929881	-1.091018
C131	C	-0.266494	0.764886	-0.991737
C132	C	-0.259334	0.776313	-0.892619
H133	H	-0.295626	0.718436	-1.010485
H134	H	-0.230429	0.752319	-1.004356
H135	H	-0.278292	0.816153	-1.027591
H136	H	-0.247532	0.725049	-0.856764
H137	H	-0.295406	0.788876	-0.879991
C138	C	-0.186637	0.210176	-0.710901
C139	C	-0.171420	0.172175	-0.617227
H140	H	-0.193369	0.166921	-0.756884
H141	H	-0.155619	0.251254	-0.722062
H142	H	-0.221249	0.238113	-0.717290
H143	H	-0.136805	0.144243	-0.610836
H144	H	-0.202440	0.131082	-0.606063
H145	H	-0.179454	0.346857	-0.654916
C146	C	-0.747479	1.196544	-0.435107
C147	C	-0.688486	1.211433	-0.440526
H148	H	-0.765967	1.248085	-0.453842
H149	H	-0.749977	1.178889	-0.370509
H150	H	-0.766503	1.152569	-0.477310
H151	H	-0.669460	1.255404	-0.398317
H152	H	-0.685984	1.229100	-0.505134
C153	C	-0.876180	1.205447	-0.438395
C154	C	-0.839688	1.138587	-0.414074
H155	H	-0.854334	1.256278	-0.456894
H156	H	-0.891211	1.215877	-0.384004
H157	H	-0.907740	1.189532	-0.490795
H158	H	-0.808130	1.154500	-0.361668
H159	H	-0.824648	1.128157	-0.468471
H160	H	-0.098929	0.762846	-0.112420
C161	C	-0.255044	0.679837	-0.674601
C162	C	-0.272455	0.755384	-0.727477
H163	H	-0.284166	0.633376	-0.693358
H164	H	-0.250192	0.687602	-0.607370
H165	H	-0.218971	0.667294	-0.687229
H166	H	-0.308526	0.767931	-0.714843
H167	H	-0.277315	0.747619	-0.794723
H168	H	-0.310786	0.834057	-0.303382
H169	H	-0.104490	1.023309	-0.619359
H170	H	-0.857827	0.843565	-0.306786
C171	C	-0.667320	0.677067	-0.246250
C172	C	-0.703814	0.743926	-0.270556
H173	H	-0.689167	0.626227	-0.227778
H174	H	-0.635767	0.692967	-0.193847
H175	H	-0.652282	0.666655	-0.300651
H176	H	-0.718848	0.754342	-0.216153
H177	H	-0.735376	0.728022	-0.322964
C178	C	-0.986357	1.165365	-0.338031
C179	C	-0.964500	1.140753	-0.414857
H180	H	-1.004854	1.216898	-0.356774
H181	H	-0.955000	1.174988	-0.283360
H182	H	-1.014047	1.120903	-0.321870
H183	H	-0.936806	1.185212	-0.431015
H184	H	-0.995860	1.131134	-0.469546
H185	H	-0.572854	1.187913	-0.431980
H186	H	-0.409696	1.109606	-0.403576
