data_functionalizedCrystal
_audit_creation_method	'MofGen! by Chris Wilmer'
_symmetry_space_group_name_H-M	'P1'
_symmetry_Int_Tables_number	1
_symmetry_cell_setting	triclinic
loop_
_symmetry_equiv_pos_as_xyz
  x,y,z
_cell_length_a	6.394989
_cell_length_b	11.026660
_cell_length_c	9.482900
_cell_angle_alpha	78.636107
_cell_angle_beta	99.609925
_cell_angle_gamma	97.541273
loop_
_atom_site_label
_atom_site_type_symbol
_atom_site_fract_x
_atom_site_fract_y
_atom_site_fract_z
O1	O	0.853961	1.642125	-0.120878
O2	O	0.753792	1.287289	-0.120882
O3	O	0.501706	1.469744	-0.120881
O4	O	1.106047	1.459670	-0.120879
O5	O	0.553173	1.432687	0.120911
O6	O	0.805259	1.250233	0.120911
O7	O	0.905428	1.605068	0.120914
Cu8	Cu	0.860043	1.424267	0.142990
Cu9	Cu	0.799177	1.468091	-0.142958
O10	O	1.157515	1.422614	0.120914
C11	C	0.761046	1.223268	0.000014
C12	C	0.705957	1.087713	0.000012
N13	N	0.902855	1.393453	0.344110
C14	C	0.801149	0.876129	0.000008
C15	C	0.858091	1.016232	0.000011
C16	C	1.210350	1.443135	0.000011
C17	C	1.448872	1.449222	0.000007
C18	C	0.898173	1.669090	0.000015
C19	C	0.953260	1.804647	0.000008
N20	N	0.756352	1.498914	-0.344078
C21	C	0.811790	1.458993	0.416309
C22	C	0.847430	1.433364	0.583727
H23	H	0.628771	0.833602	0.000029
C24	C	1.197337	0.989726	-0.000012
C25	C	1.185976	0.862042	-0.000006
H26	H	1.341008	1.025156	-0.000033
H27	H	1.147338	1.002390	0.084307
H28	H	1.111392	1.028228	-0.084330
H29	H	1.271909	0.823538	0.084318
H30	H	1.236002	0.849368	-0.084334
C31	C	1.194535	1.360621	0.630887
C32	C	0.988306	1.331989	0.667575
H33	H	1.281494	1.298031	0.682647
H34	H	1.252932	1.438681	0.655754
H35	H	1.189038	1.364547	0.529377
H36	H	0.993800	1.328072	0.769084
H37	H	0.929894	1.253908	0.642718
C38	C	0.606621	1.605659	0.422453
C39	C	0.614914	1.600011	0.572072
H40	H	0.519148	1.667994	0.370691
H41	H	0.548679	1.527463	0.397786
H42	H	0.746417	1.625372	0.397411
H43	H	0.475119	1.580288	0.597115
H44	H	0.672849	1.678224	0.596749
C45	C	0.957584	1.177011	0.391317
C46	C	1.043719	1.292083	0.427973
H47	H	1.044544	1.114429	0.443096
H48	H	0.952134	1.180943	0.289824
H49	H	0.817665	1.157615	0.416196
H50	H	1.183633	1.311484	0.403084
H51	H	1.049192	1.288153	0.529489
H52	H	1.030487	1.058749	0.000022
H53	H	0.533542	1.045210	-0.000085
H54	H	0.707431	1.534075	0.354181
