data_functionalizedCrystal
_audit_creation_method	'MofGen! by Chris Wilmer'
_symmetry_space_group_name_H-M	'P1'
_symmetry_Int_Tables_number	1
_symmetry_cell_setting	triclinic
loop_
_symmetry_equiv_pos_as_xyz
  x,y,z
_cell_length_a	16.959455
_cell_length_b	13.897448
_cell_length_c	16.959447
_cell_angle_alpha	89.973219
_cell_angle_beta	90.014322
_cell_angle_gamma	89.983484
loop_
_atom_site_label
_atom_site_type_symbol
_atom_site_fract_x
_atom_site_fract_y
_atom_site_fract_z
Zn1	Zn	1.208387	0.384074	0.446928
Zn2	Zn	1.208310	0.545393	0.314758
Zn3	Zn	1.076215	0.384105	0.314766
Zn4	Zn	1.076181	0.545321	0.446896
O5	O	1.142273	0.464723	0.380837
O6	O	1.318987	0.405491	0.429405
O7	O	1.190770	0.524040	0.204148
O8	O	1.093794	0.249119	0.332314
O9	O	1.318931	0.524011	0.332300
O10	O	1.190900	0.249097	0.429413
O11	O	1.093720	0.405543	0.204154
O12	O	0.965600	0.405473	0.332283
O13	O	1.093736	0.523888	0.557511
O14	O	0.965575	0.523917	0.429359
O15	O	1.190867	0.405421	0.557535
O16	O	1.190737	0.680365	0.332270
O17	O	1.093662	0.680312	0.429351
C18	C	0.936907	0.464691	0.380819
C19	C	0.849050	0.464701	0.380830
C20	C	1.142209	0.715337	0.380823
C21	C	1.142254	0.822551	0.380844
C22	C	0.477563	0.402998	0.330395
C23	C	0.477586	0.526527	0.431324
C24	C	0.560132	0.526513	0.431319
C25	C	0.601397	0.464742	0.380851
C26	C	0.560117	0.402985	0.330387
C27	C	0.601419	0.588276	0.481776
C28	C	0.683970	0.588266	0.481773
C29	C	0.725236	0.526489	0.431308
C30	C	0.683951	0.464728	0.380843
C31	C	0.725216	0.402957	0.330374
C32	C	0.683932	0.341191	0.279912
C33	C	0.601384	0.341208	0.279922
C34	C	0.807785	0.526472	0.431298
C35	C	0.807770	0.402944	0.330366
C36	C	1.142331	1.018846	0.380901
C37	C	1.142286	0.909614	0.380872
C38	C	1.348441	0.464756	0.380856
C39	C	1.436298	0.464770	0.380864
C40	C	1.142306	0.464643	0.587005
C41	C	1.142320	0.464609	0.674862
C42	C	1.142353	1.213130	0.380877
C43	C	1.142369	1.105916	0.380918
C44	C	1.142286	0.464733	0.175471
C45	C	1.142425	0.464495	0.087615
C46	C	1.091843	0.526188	1.046328
C47	C	1.192986	0.402827	1.046347
C48	C	1.192965	0.402848	0.963802
C49	C	1.142383	0.464540	0.922515
C50	C	1.091822	0.526212	0.963774
C51	C	1.243531	0.341184	0.922536
C52	C	1.243513	0.341203	0.839985
C53	C	1.192926	0.402891	0.798697
C54	C	1.142362	0.464564	0.839961
C55	C	1.091780	0.526257	0.798675
C56	C	1.041212	0.587926	0.839938
C57	C	1.041235	0.587900	0.922486
C58	C	1.192902	0.402917	0.716148
C59	C	1.091759	0.526281	0.716121
H60	H	0.717541	0.290901	0.238818
H61	H	1.284688	0.290987	0.806396
H62	H	1.050669	0.576395	1.079928
H63	H	0.443946	0.352707	0.289313
C64	C	0.776829	0.601802	0.588074
C65	C	0.729346	0.656147	0.537246
H66	H	0.804845	0.643710	0.622319
H67	H	0.744636	0.559836	0.618363
H68	H	0.813217	0.565018	0.558008
H69	H	0.692953	0.692927	0.567311
H70	H	0.761541	0.698131	0.506954
C71	C	0.900603	0.656224	0.442083
C72	C	0.853162	0.594361	0.486759
H73	H	0.928612	0.698141	0.476326
H74	H	0.936991	0.619431	0.412038
H75	H	0.868376	0.693068	0.407595
H76	H	0.885390	0.557512	0.521243
H77	H	0.816770	0.631159	0.516818
H78	H	0.567814	0.638574	0.522859
H79	H	1.050561	0.576511	0.682512
H80	H	1.234172	0.352606	1.079968
C81	C	1.002665	0.751268	0.814478
C82	C	0.985625	0.655747	0.794544
H83	H	0.968355	0.793136	0.786445
H84	H	0.995423	0.760077	0.869537
H85	H	1.055773	0.765375	0.800958
H86	H	0.932518	0.641637	0.808070
H87	H	0.992860	0.646934	0.739472
C88	C	1.288471	0.286385	1.049087
C89	C	1.299135	0.273384	0.967918
H90	H	1.322799	0.244523	1.077105
H91	H	1.300013	0.351188	1.062596
H92	H	1.235370	0.272244	1.062608
H93	H	1.352235	0.287531	0.954395
H94	H	1.287599	0.208565	0.954403
H95	H	1.234076	0.352709	0.682556
H96	H	0.443983	0.576824	0.472408
C97	C	1.030238	0.717622	1.015292
C98	C	0.985659	0.655688	0.967845
H99	H	0.995927	0.759473	1.043293
H100	H	1.060360	0.680875	1.051687
H101	H	1.064649	0.754531	0.983071
H102	H	0.951251	0.618773	1.000067
H103	H	0.955523	0.692438	0.931445
C104	C	0.833143	0.355754	0.196582
C105	C	0.853129	0.335046	0.274886
H106	H	0.861151	0.313841	0.162332
H107	H	0.778079	0.346915	0.189373
H108	H	0.846660	0.420548	0.184932
H109	H	0.839607	0.270254	0.286538
H110	H	0.908205	0.343877	0.282099
C111	C	0.474834	0.286375	0.235128
C112	C	0.556003	0.273315	0.224462
H113	H	0.446817	0.244462	0.200887
H114	H	0.461334	0.272348	0.288254
H115	H	0.461301	0.351171	0.223462
H116	H	0.569537	0.208521	0.236134
H117	H	0.569508	0.287335	0.171324
