data_functionalizedCrystal
_audit_creation_method	'MofGen! by Chris Wilmer'
_symmetry_space_group_name_H-M	'P1'
_symmetry_Int_Tables_number	1
_symmetry_cell_setting	triclinic
loop_
_symmetry_equiv_pos_as_xyz
  x,y,z
_cell_length_a	16.992694
_cell_length_b	16.109301
_cell_length_c	15.455313
_cell_angle_alpha	87.337130
_cell_angle_beta	87.142206
_cell_angle_gamma	92.935148
loop_
_atom_site_label
_atom_site_type_symbol
_atom_site_fract_x
_atom_site_fract_y
_atom_site_fract_z
O1	O	1.043779	-0.172886	-0.072027
O2	O	0.815495	-0.170951	-0.072052
O3	O	0.935908	-0.051306	-0.072030
O4	O	0.923366	-0.292530	-0.072049
O5	O	0.929022	-0.058118	0.072231
O6	O	0.808610	-0.177762	0.072209
O7	O	1.036893	-0.179698	0.072234
Cu8	Cu	0.922123	-0.179352	0.085394
Cu9	Cu	0.930266	-0.171296	-0.085211
O10	O	0.916481	-0.299342	0.072212
C11	C	0.782841	-0.171868	0.000075
C12	C	0.695799	-0.164444	0.000066
C13	C	0.645540	-0.236070	0.000061
C14	C	0.563755	-0.229091	0.000073
C15	C	0.532230	-0.150485	0.000085
C16	C	0.582495	-0.078853	0.000092
C17	C	0.664278	-0.085834	0.000086
C18	C	0.288638	-0.121553	0.000110
C19	C	0.206849	-0.114578	0.000114
C20	C	0.188114	-0.264816	0.000097
C21	C	0.269900	-0.271789	0.000085
C22	C	0.320158	-0.200158	0.000097
N23	N	0.448632	-0.143348	0.000095
N24	N	0.403753	-0.207296	0.000093
C25	C	0.931957	-0.023703	0.000101
C26	C	0.930434	0.068694	0.000102
C27	C	1.069548	-0.178780	0.000105
C28	C	1.156590	-0.186203	0.000109
C29	C	0.920432	-0.326945	0.000079
C30	C	0.921955	-0.419342	0.000073
N31	N	0.916401	-0.185018	0.205388
C32	C	0.998343	0.286435	0.000096
C33	C	0.996906	0.373251	0.000089
C34	C	0.854040	0.362911	0.000076
C35	C	0.855478	0.276096	0.000077
C36	C	0.927632	0.237860	0.000092
C37	C	0.924757	0.411492	0.000083
C38	C	0.923198	0.505622	0.000075
C39	C	0.929191	0.143724	0.000098
N40	N	0.935994	-0.165624	-0.205206
C41	C	0.967574	-0.134210	0.250792
C42	C	0.963254	-0.138503	0.341599
C43	C	0.907764	-0.193608	0.387001
C44	C	0.856586	-0.244419	0.341591
C45	C	0.860902	-0.240121	0.250785
C46	C	0.889132	-0.212137	0.658579
C47	C	0.884821	-0.216432	0.749391
C48	C	0.991489	-0.110515	0.749392
C49	C	0.995804	-0.106226	0.658585
C50	C	0.944622	-0.157033	0.613183
N51	N	0.903349	-0.198000	0.479820
N52	N	0.949034	-0.152637	0.520365
H53	H	0.671201	-0.300080	0.000051
H54	H	0.181185	-0.050564	0.000122
H55	H	0.795295	0.394053	0.000066
H56	H	0.819231	-0.281493	0.213819
H57	H	1.033157	-0.069149	0.786367
H58	H	1.054487	0.412797	0.000090
H59	H	1.057095	0.255306	0.000106
H60	H	0.147186	-0.323133	0.000088
H61	H	0.811401	-0.289284	0.378562
H62	H	0.522837	-0.287416	0.000068
H63	H	0.797893	0.236545	0.000071
N64	N	1.027429	-0.074779	0.201826
H65	H	1.059190	-0.043243	0.244371
H66	H	0.999216	-0.034228	0.164161
N67	N	0.303887	-0.356579	0.000079
H68	H	0.334857	-0.365353	0.053553
H69	H	0.339907	-0.360248	-0.053438
H70	H	0.839632	-0.261309	0.786353
N71	N	0.342838	-0.044298	0.000129
H72	H	0.310455	0.006556	0.000136
H73	H	0.379729	-0.041389	-0.053349
N74	N	1.055661	-0.046797	0.609621
H75	H	1.050636	-0.051790	0.545206
H76	H	1.110519	-0.060898	0.625492
N77	N	1.018475	-0.083733	0.390571
H78	H	1.054295	-0.048187	0.348030
H79	H	1.051321	-0.119703	0.428219
N80	N	0.833926	-0.266937	0.609627
H81	H	0.842187	-0.327297	0.625418
H82	H	0.845096	-0.255788	0.545227
N83	N	0.548488	0.005926	0.000115
H84	H	0.517519	0.014699	-0.053360
H85	H	0.592777	0.050192	0.000154
N86	N	0.718490	-0.008582	0.000098
H87	H	0.686110	0.042275	0.000105
H88	H	0.755378	-0.005676	-0.053381
