data_functionalizedCrystal
_audit_creation_method	'MofGen! by Chris Wilmer'
_symmetry_space_group_name_H-M	'P1'
_symmetry_Int_Tables_number	1
_symmetry_cell_setting	triclinic
loop_
_symmetry_equiv_pos_as_xyz
  x,y,z
_cell_length_a	18.101398
_cell_length_b	18.101395
_cell_length_c	18.101389
_cell_angle_alpha	89.983159
_cell_angle_beta	89.985654
_cell_angle_gamma	90.029256
loop_
_atom_site_label
_atom_site_type_symbol
_atom_site_fract_x
_atom_site_fract_y
_atom_site_fract_z
Zn1	Zn	1.132121	-0.294944	-0.418650
Zn2	Zn	1.132017	-0.418770	-0.294812
Zn3	Zn	1.008280	-0.294942	-0.294832
Zn4	Zn	1.008231	-0.418744	-0.418622
O5	O	1.070162	-0.356850	-0.356729
O6	O	1.235740	-0.311381	-0.402225
O7	O	1.115580	-0.402354	-0.191181
O8	O	1.024772	-0.191310	-0.311277
O9	O	1.235663	-0.402355	-0.311242
O10	O	1.115757	-0.191311	-0.402245
O11	O	1.024671	-0.311378	-0.191197
O12	O	0.904640	-0.311354	-0.311250
O13	O	1.024688	-0.402312	-0.522258
O14	O	0.904604	-0.402310	-0.402198
O15	O	1.115710	-0.311356	-0.522279
O16	O	1.115532	-0.522399	-0.311215
O17	O	1.024587	-0.522380	-0.402178
C18	C	0.877752	-0.356830	-0.356724
C19	C	0.795437	-0.356839	-0.356739
C20	C	0.644729	-0.356852	-0.356738
C21	C	0.613377	-0.414168	-0.413871
C22	C	0.527759	-0.414400	-0.413702
C23	C	0.496346	-0.356866	-0.356738
C24	C	0.527399	-0.377679	-0.278597
C25	C	0.613044	-0.378087	-0.278927
C26	C	0.613208	-0.278582	-0.377064
C27	C	0.527558	-0.279011	-0.378785
C28	C	0.412487	-0.356873	-0.356733
C29	C	0.728588	-0.356848	-0.356737
C30	C	1.070063	-0.549261	-0.356707
C31	C	1.070088	-0.631575	-0.356722
C32	C	1.070251	-0.930665	-0.356762
C33	C	1.013163	-0.899359	-0.414136
C34	C	1.012892	-0.813741	-0.413956
C35	C	1.070170	-0.782283	-0.356743
C36	C	1.049041	-0.813419	-0.278695
C37	C	1.048673	-0.899065	-0.279039
C38	C	1.148593	-0.899015	-0.376750
C39	C	1.148132	-0.813365	-0.378461
C40	C	1.070126	-0.698424	-0.356728
C41	C	1.070293	-1.014525	-0.356773
C42	C	1.263324	-0.356871	-0.356734
C43	C	1.345638	-0.356880	-0.356737
C44	C	1.070205	-0.356831	-0.549891
C45	C	1.070223	-0.356823	-0.632205
C46	C	1.070282	-0.163688	-0.356767
C47	C	1.070333	-0.081374	-0.356783
C48	C	1.070266	-0.356684	-0.931296
C49	C	1.012801	-0.413729	-0.899958
C50	C	1.012956	-0.413994	-0.814340
C51	C	1.070244	-0.356753	-0.782913
C52	C	1.148270	-0.377940	-0.814006
C53	C	1.147949	-0.378314	-0.899651
C54	C	1.050385	-0.278326	-0.899722
C55	C	1.048649	-0.278779	-0.814071
C56	C	1.070237	-0.356791	-0.699054
C57	C	1.070279	-0.356649	-1.015156
C58	C	1.070162	-0.356815	-0.164318
C59	C	1.070287	-0.356615	-0.082005
H60	H	1.026111	-0.792688	-0.471828
N61	N	0.976615	-0.258743	-0.788576
N62	N	0.941272	-0.301689	-0.747609
H63	H	0.890397	-0.287541	-0.729600
H64	H	0.633784	-0.338125	-0.234898
N65	N	0.502019	-0.487167	-0.396790
N66	N	0.547309	-0.537939	-0.385069
H67	H	0.529132	-0.589334	-0.373124
N68	N	1.102888	-0.225012	-0.925159
N69	N	1.110785	-0.213879	-0.992857
H70	H	1.147867	-0.176232	-1.010827
N71	N	0.940035	-0.788117	-0.397390
N72	N	0.906222	-0.748576	-0.442783
H73	H	0.854757	-0.730486	-0.431095
N74	N	0.940378	-0.397369	-0.787948
N75	N	0.928075	-0.394725	-0.720048
H76	H	0.876813	-0.382986	-0.701410
N77	N	0.500468	-0.448664	-0.256678
N78	N	0.544860	-0.499921	-0.243705
H79	H	0.525841	-0.550057	-0.228228
N80	N	0.639249	-0.398058	-0.486767
N81	N	0.706998	-0.397969	-0.500147
H82	H	0.725274	-0.386586	-0.551631
N83	N	0.640347	-0.486510	-0.397162
N84	N	0.682556	-0.496038	-0.343359
H85	H	0.701608	-0.547128	-0.331557
N86	N	1.097306	-0.222622	-0.787219
N87	N	1.072196	-0.169943	-0.750329
H88	H	1.106563	-0.130284	-0.731357
N89	N	1.029629	-0.925140	-0.486964
N90	N	1.029834	-0.992876	-0.500373
H91	H	1.041483	-1.011081	-0.551808
N92	N	0.638068	-0.449844	-0.257366
N93	N	0.620897	-0.475273	-0.195488
H94	H	0.638568	-0.525954	-0.180259
N95	N	1.172777	-0.926051	-0.446925
N96	N	1.231026	-0.962821	-0.451550
H97	H	1.248101	-0.981915	-0.501114
N98	N	1.169093	-0.450165	-0.924739
N99	N	1.225167	-0.457776	-0.964322
H100	H	1.240099	-0.508522	-0.982040
H101	H	0.634834	-0.259564	-0.433084
N102	N	1.203482	-0.328453	-0.925653
N103	N	1.242355	-0.293493	-0.880544
H104	H	1.281576	-0.258279	-0.898904
H105	H	1.192236	-0.337697	-0.793651
H106	H	0.507053	-0.337213	-0.234859
N107	N	1.029117	-0.486145	-0.926958
N108	N	1.090174	-0.515212	-0.913047
H109	H	1.101702	-0.566355	-0.932117
N110	N	0.980240	-0.254119	-0.926792
N111	N	0.929016	-0.240429	-0.882551
H112	H	0.879472	-0.223341	-0.901669
H113	H	1.165415	-0.434612	-0.792562
N114	N	0.501427	-0.398108	-0.486376
N115	N	0.546304	-0.386487	-0.537577
H116	H	0.527712	-0.374982	-0.588908
H117	H	0.992380	-0.792030	-0.261460
H118	H	1.164065	-0.793013	-0.435900
N119	N	1.098556	-0.925040	-0.223568
N120	N	1.133526	-0.879913	-0.184722
H121	H	1.168747	-0.898254	-0.145538
N122	N	0.976832	-0.924196	-0.257792
N123	N	0.927313	-0.878482	-0.242816
H124	H	0.876572	-0.896227	-0.227809
H125	H	1.192915	-0.791947	-0.339719
H126	H	0.506177	-0.234054	-0.340239
N127	N	0.502093	-0.259327	-0.450928
N128	N	0.434382	-0.253997	-0.463358
H129	H	0.416394	-0.240102	-0.514311
N130	N	0.638647	-0.225022	-0.324862
N131	N	0.679811	-0.244311	-0.272895
H132	H	0.697781	-0.206490	-0.236024
N133	N	0.939999	-0.397258	-0.925792
N134	N	0.929614	-0.343287	-0.967605
H135	H	0.878197	-0.331654	-0.985857
H136	H	1.026082	-0.472075	-0.793856
N137	N	0.940761	-0.926429	-0.397722
N138	N	0.911734	-0.912564	-0.336619
H139	H	0.860601	-0.931684	-0.325022
N140	N	1.099567	-0.787857	-0.223612
N141	N	1.151835	-0.746306	-0.241305
H142	H	1.187521	-0.728251	-0.202404
H143	H	1.191125	-0.919259	-0.334963
