data_functionalizedCrystal
_audit_creation_method	'MofGen! by Chris Wilmer'
_symmetry_space_group_name_H-M	'P1'
_symmetry_Int_Tables_number	1
_symmetry_cell_setting	triclinic
loop_
_symmetry_equiv_pos_as_xyz
  x,y,z
_cell_length_a	11.792241
_cell_length_b	11.792241
_cell_length_c	14.586319
_cell_angle_alpha	89.996059
_cell_angle_beta	90.000696
_cell_angle_gamma	84.193416
loop_
_atom_site_label
_atom_site_type_symbol
_atom_site_fract_x
_atom_site_fract_y
_atom_site_fract_z
O1	O	1.506907	0.155566	-0.076152
O2	O	1.176566	0.171599	-0.076173
O3	O	1.349753	-0.001588	-0.076155
O4	O	1.333720	0.328753	-0.076169
O5	O	1.349741	-0.001590	0.076325
O6	O	1.176554	0.171597	0.076308
O7	O	1.506895	0.155564	0.076329
Cu8	Cu	1.341724	0.163580	0.090241
Cu9	Cu	1.341738	0.163583	-0.090085
O10	O	1.333708	0.328751	0.076311
C11	C	1.134269	0.170591	0.000065
C12	C	1.008255	0.167576	0.000057
C13	C	0.777543	0.162034	0.000083
C14	C	0.905928	0.165113	0.000069
C15	C	1.348740	-0.043880	0.000085
C16	C	1.345726	-0.169894	0.000084
C17	C	1.340183	-0.400606	0.000068
C18	C	1.343262	-0.272221	0.000076
C19	C	1.549192	0.156572	0.000089
C20	C	1.675206	0.159587	0.000091
C21	C	1.334721	0.371043	0.000069
C22	C	1.337736	0.497057	0.000064
N23	N	1.341722	0.163577	0.217073
N24	N	1.341749	0.163577	-0.216917
C25	C	1.418435	0.086916	0.452087
C26	C	1.418438	0.086913	0.548068
C27	C	1.265027	0.240242	0.548062
C28	C	1.265020	0.240238	0.452083
C29	C	1.341730	0.163577	0.404098
C30	C	1.341741	0.163578	0.596058
C31	C	1.341744	0.163575	0.700126
C32	C	1.341726	0.163577	0.300024
H33	H	1.480897	0.024488	0.587139
H34	H	1.202573	0.302660	0.587141
H35	H	1.202552	0.302665	0.413007
N36	N	1.501140	0.004204	0.400333
H37	H	1.489495	0.015828	0.332248
H38	H	1.581744	0.017836	0.417099
