data_functionalizedCrystal
_audit_creation_method	'MofGen! by Chris Wilmer'
_symmetry_space_group_name_H-M	'P1'
_symmetry_Int_Tables_number	1
_symmetry_cell_setting	triclinic
loop_
_symmetry_equiv_pos_as_xyz
  x,y,z
_cell_length_a	6.817900
_cell_length_b	11.452831
_cell_length_c	12.200875
_cell_angle_alpha	81.382333
_cell_angle_beta	107.143593
_cell_angle_gamma	108.696887
loop_
_atom_site_label
_atom_site_type_symbol
_atom_site_fract_x
_atom_site_fract_y
_atom_site_fract_z
V1	V	-4.076243	-0.169164	-0.323894
V2	V	-3.576243	0.330836	0.176106
O3	O	-4.054672	0.007844	-0.352418
O4	O	-3.554672	0.507844	0.147582
O5	O	-4.035253	-0.335149	-0.288316
O6	O	-3.535253	0.164851	0.211684
O7	O	-4.045850	-0.166687	-0.480377
O8	O	-3.545850	0.333313	0.019623
O9	O	-4.044001	-0.161784	-0.159028
O10	O	-3.544001	0.338216	0.340972
V11	V	-4.556578	-0.147977	-0.308228
V12	V	-4.056578	0.352023	0.191772
O13	O	-4.344496	-0.215639	-0.358260
O14	O	-3.844496	0.284361	0.141740
O15	O	-4.738522	-0.101501	-0.273862
O16	O	-4.238522	0.398499	0.226138
O17	O	-4.374361	0.018008	-0.343806
O18	O	-3.874361	0.518008	0.156194
O19	O	-4.695546	-0.324984	-0.279704
O20	O	-4.195546	0.175016	0.220296
O21	O	-4.706216	-0.155356	-0.473095
O22	O	-4.206216	0.344644	0.026905
O23	O	-4.363764	-0.150454	-0.151745
O24	O	-3.863764	0.349546	0.348255
C25	C	-3.881474	-0.375608	-0.274598
C26	C	-3.381474	0.124392	0.225402
C27	C	-3.929366	-0.511304	-0.246552
C28	C	-3.429366	-0.011304	0.253448
C29	C	-4.050849	-0.728697	-0.301572
C30	C	-3.550849	-0.228697	0.198428
C31	C	-4.001351	-0.588450	-0.330566
C32	C	-3.501351	-0.088450	0.169434
C33	C	-3.894990	-0.160717	-0.519590
C34	C	-3.394990	0.339283	-0.019590
C35	C	-3.951473	-0.159790	-0.647296
C36	C	-3.451473	0.340210	-0.147296
C37	C	-4.054845	-0.158095	-0.881108
C38	C	-3.554845	0.341905	-0.381108
C39	C	-3.997313	-0.159037	-0.750998
C40	C	-3.497313	0.340963	-0.250998
C41	C	-4.191482	0.058462	-0.357520
C42	C	-3.691482	0.558462	0.142480
C43	C	-4.122829	0.194156	-0.385573
C44	C	-3.622829	0.694156	0.114427
C45	C	-4.177965	-0.156427	-0.112526
C46	C	-3.677965	0.343573	0.387474
C47	C	-4.100721	-0.157348	0.015180
C48	C	-3.600721	0.342652	0.515180
H49	H	-3.904363	-0.549077	-0.153163
H50	H	-3.404363	-0.049077	0.346837
N51	N	-4.032692	-0.541095	-0.447728
N52	N	-3.532692	-0.041095	0.052272
N53	N	-3.931799	-0.562170	-0.509351
N54	N	-3.431799	-0.062170	-0.009351
H55	H	-3.953931	-0.528726	-0.592097
H56	H	-3.453931	-0.028726	-0.092097
H57	H	-4.147798	-0.768063	-0.478955
H58	H	-3.647798	-0.268063	0.021045
N59	N	-4.019541	-0.776105	-0.184429
N60	N	-3.519541	-0.276105	0.315571
N61	N	-4.174392	-0.848202	-0.150614
N62	N	-3.674392	-0.348202	0.349386
H63	H	-4.152284	-0.881685	-0.067880
H64	H	-3.652284	-0.381685	0.432120
