data_functionalizedCrystal
_audit_creation_method	'MofGen! by Chris Wilmer'
_symmetry_space_group_name_H-M	'P1'
_symmetry_Int_Tables_number	1
_symmetry_cell_setting	triclinic
loop_
_symmetry_equiv_pos_as_xyz
  x,y,z
_cell_length_a	12.594517
_cell_length_b	18.050589
_cell_length_c	18.050582
_cell_angle_alpha	89.981795
_cell_angle_beta	89.984776
_cell_angle_gamma	90.028021
loop_
_atom_site_label
_atom_site_type_symbol
_atom_site_fract_x
_atom_site_fract_y
_atom_site_fract_z
Zn1	Zn	1.627113	-0.295711	-0.419941
Zn2	Zn	1.626985	-0.419894	-0.295761
Zn3	Zn	1.449136	-0.295722	-0.295765
Zn4	Zn	1.449061	-0.419863	-0.419908
O5	O	1.538074	-0.357797	-0.357844
O6	O	1.776042	-0.312192	-0.403480
O7	O	1.603370	-0.403440	-0.191836
O8	O	1.472829	-0.191796	-0.312252
O9	O	1.775948	-0.403429	-0.312245
O10	O	1.603589	-0.191787	-0.403484
O11	O	1.472705	-0.312211	-0.191839
O12	O	1.300180	-0.312181	-0.312220
O13	O	1.472702	-0.403376	-0.523837
O14	O	1.300125	-0.403387	-0.403428
O15	O	1.603516	-0.312162	-0.523861
O16	O	1.603298	-0.523814	-0.312214
O17	O	1.472578	-0.523792	-0.403425
C18	C	1.261533	-0.357782	-0.357822
C19	C	1.143227	-0.357794	-0.357830
C20	C	1.073973	-0.308119	-0.308317
C21	C	1.003144	-0.375858	-0.290051
C22	C	1.003257	-0.290088	-0.376109
C23	C	1.073957	-0.425569	-0.339529
C24	C	1.074076	-0.339752	-0.425618
C25	C	1.003279	-0.407538	-0.407378
C26	C	1.537945	-0.550749	-0.357831
C27	C	1.537988	-0.633295	-0.357851
C28	C	1.466972	-0.832760	-0.407434
C29	C	1.441034	-0.882194	-0.339667
C30	C	1.538092	-0.784426	-0.357861
C31	C	1.564082	-0.882073	-0.425636
C32	C	1.538191	-0.930411	-0.357876
C33	C	1.512103	-0.832772	-0.290057
C34	C	1.635197	-0.832647	-0.376072
C35	C	1.609295	-0.882058	-0.308258
C36	C	1.538032	-0.700327	-0.357853
C37	C	1.538251	-1.014507	-0.357876
C38	C	1.815694	-0.357813	-0.357866
C39	C	1.934000	-0.357819	-0.357876
C40	C	1.538115	-0.357764	-0.551549
C41	C	1.538133	-0.357750	-0.634095
C42	C	1.538232	-0.164092	-0.357872
C43	C	1.538299	-0.081546	-0.357884
C44	C	1.467051	-0.407285	-0.833533
C45	C	1.564158	-0.425439	-0.882926
C46	C	1.538186	-0.357694	-0.785226
C47	C	1.441131	-0.339519	-0.882914
C48	C	1.538228	-0.357640	-0.931211
C49	C	1.635344	-0.375883	-0.833531
C50	C	1.512251	-0.289932	-0.833515
C51	C	1.609426	-0.308060	-0.882886
C52	C	1.538160	-0.357726	-0.701127
C53	C	1.538264	-0.357608	-1.015307
C54	C	1.538093	-0.357777	-0.164892
C55	C	1.538282	-0.357581	-0.082346
H56	H	1.105013	-0.266152	-0.266393
C57	C	0.961032	-0.396491	-0.212641
H58	H	0.919520	-0.440324	-0.215947
H59	H	0.918470	-0.357209	-0.194115
H60	H	1.019133	-0.404678	-0.180104
H61	H	1.406740	-0.811113	-0.449297
C62	C	1.330235	-0.318776	-0.912220
H63	H	1.335094	-0.274946	-0.941178
H64	H	1.283649	-0.310562	-0.871653
H65	H	1.303552	-0.358029	-0.941923
C66	C	1.690602	-0.911126	-0.251575
H67	H	1.742636	-0.940052	-0.276360
H68	H	1.655307	-0.940799	-0.215736
H69	H	1.724036	-0.870455	-0.227667
C70	C	1.115727	-0.502955	-0.318576
H71	H	1.191156	-0.502467	-0.318662
H72	H	1.090956	-0.538276	-0.353543
H73	H	1.090851	-0.515856	-0.270583
C74	C	0.961597	-0.464364	-0.463966
H75	H	0.985935	-0.512425	-0.450876
H76	H	0.986957	-0.451950	-0.511959
H77	H	0.886172	-0.463783	-0.463960
H78	H	1.105256	-0.324456	-0.482909
C79	C	0.961307	-0.212725	-0.396975
H80	H	0.985526	-0.177486	-0.361730
H81	H	0.885890	-0.213396	-0.397286
H82	H	0.986648	-0.199560	-0.444777
C83	C	1.330161	-0.911598	-0.318860
H84	H	1.279674	-0.894724	-0.354125
H85	H	1.311243	-0.893993	-0.271060
H86	H	1.331163	-0.964223	-0.318577
H87	H	1.586026	-0.903729	-0.482946
C88	C	1.482320	-0.803644	-0.212616
H89	H	1.482428	-0.751014	-0.213091
H90	H	1.532554	-0.820916	-0.177377
H91	H	1.413584	-0.821022	-0.199613
C92	C	1.746061	-0.803249	-0.396891
H93	H	1.764395	-0.820107	-0.445076
H94	H	1.796767	-0.820880	-0.362162
H95	H	1.745414	-0.750625	-0.396291
C96	C	1.385861	-0.464005	-0.804251
H97	H	1.333857	-0.439227	-0.775289
H98	H	1.421251	-0.499758	-0.774571
H99	H	1.352373	-0.488015	-0.844833
C100	C	1.593824	-0.502817	-0.912253
H101	H	1.543199	-0.538015	-0.895360
H102	H	1.662296	-0.516051	-0.894619
H103	H	1.594253	-0.502122	-0.964878
H104	H	1.717463	-0.391297	-0.811930
C105	C	1.690804	-0.251378	-0.911985
H106	H	1.759700	-0.264391	-0.894984
H107	H	1.672955	-0.203406	-0.894318
H108	H	1.689975	-0.251382	-0.964611
C109	C	1.482547	-0.212574	-0.804167
H110	H	1.413516	-0.199752	-0.821045
H111	H	1.532389	-0.177203	-0.821800
H112	H	1.483385	-0.213049	-0.751542
