data_functionalizedCrystal
_audit_creation_method	'MofGen! by Chris Wilmer'
_symmetry_space_group_name_H-M	'P1'
_symmetry_Int_Tables_number	1
_symmetry_cell_setting	triclinic
loop_
_symmetry_equiv_pos_as_xyz
  x,y,z
_cell_length_a	12.811457
_cell_length_b	10.489711
_cell_length_c	11.295483
_cell_angle_alpha	94.140209
_cell_angle_beta	91.289320
_cell_angle_gamma	84.283859
loop_
_atom_site_label
_atom_site_type_symbol
_atom_site_fract_x
_atom_site_fract_y
_atom_site_fract_z
O1	O	1.390324	0.176210	0.051130
O2	O	1.087199	0.192067	0.018394
O3	O	1.245676	-0.001438	0.035505
O4	O	1.231848	0.369715	0.034019
O5	O	1.231756	0.015531	0.232053
O6	O	1.073280	0.209037	0.214941
O7	O	1.376405	0.193179	0.247678
Cu8	Cu	1.223571	0.202657	0.249256
Cu9	Cu	1.240033	0.182589	0.016816
O10	O	1.217928	0.386685	0.230566
C11	C	1.041425	0.199143	0.112475
C12	C	0.925768	0.194931	0.099984
C13	C	0.693262	0.205493	0.290813
C14	C	0.584593	0.201535	0.279083
C15	C	0.599758	0.183048	0.064794
C16	C	0.708428	0.187006	0.076525
C17	C	0.755176	0.198231	0.189538
C18	C	0.863846	0.202198	0.201267
C19	C	0.879011	0.183701	-0.013020
C20	C	0.770341	0.179743	-0.024750
C21	C	1.237678	-0.040490	0.133664
C22	C	1.234574	-0.182133	0.133319
C23	C	1.329876	-0.364192	0.143623
C24	C	1.275408	-0.263844	0.235389
C25	C	1.289106	-0.280599	0.041606
C26	C	1.174515	-0.334132	0.224584
C27	C	1.188233	-0.350904	0.030715
C28	C	1.133690	-0.250581	0.122497
C29	C	1.422180	0.186103	0.153594
C30	C	1.537836	0.190315	0.166077
C31	C	1.225926	0.425736	0.132405
C32	C	1.229031	0.567378	0.132743
N33	N	1.212001	0.216772	0.412743
N34	N	1.251611	0.168465	-0.146670
C35	C	1.334902	0.066790	0.675303
C36	C	1.326165	0.077466	0.799023
C37	C	1.185787	0.248791	0.783906
C38	C	1.194524	0.238116	0.660186
C39	C	1.269084	0.147114	0.605889
C40	C	1.277825	0.136445	0.482167
C41	C	1.137443	0.307764	0.467051
C42	C	1.128706	0.318439	0.590771
H43	H	0.731323	0.214650	0.382832
C44	C	0.915275	0.214547	0.325575
C45	C	0.883067	0.332155	0.411174
C46	C	0.934493	0.344503	0.535485
C47	C	1.018129	0.239243	0.574196
C48	C	1.050342	0.121627	0.488596
C49	C	0.998915	0.109279	0.364285
H50	H	0.821151	0.410082	0.382519
H51	H	0.910647	0.431571	0.598852
H52	H	1.056198	0.248384	0.666219
H53	H	1.112258	0.043700	0.517251
H54	H	1.022762	0.022211	0.300918
H55	H	1.338539	0.062350	0.437960
H56	H	1.395619	-0.007299	0.631095
C57	C	1.441836	-0.430942	0.155840
C58	C	1.486259	-0.529237	0.057318
C59	C	1.598215	-0.595989	0.069541
C60	C	1.665748	-0.564445	0.180285
C61	C	1.621327	-0.466144	0.278814
C62	C	1.509371	-0.399393	0.266591
H63	H	1.436266	-0.552593	-0.024668
H64	H	1.631098	-0.668757	-0.003398
H65	H	1.748625	-0.613858	0.189333
H66	H	1.671320	-0.442789	0.360800
H67	H	1.476487	-0.326625	0.339530
C68	C	1.138473	-0.402577	-0.086186
C69	C	1.189567	-0.385987	-0.205502
C70	C	1.139817	-0.437666	-0.322413
C71	C	1.038973	-0.505935	-0.320010
C72	C	0.987874	-0.522528	-0.200689
C73	C	1.037624	-0.470850	-0.083778
H74	H	1.264222	-0.335447	-0.207285
H75	H	1.177644	-0.425382	-0.410742
H76	H	1.002146	-0.544190	-0.406555
H77	H	0.913219	-0.573068	-0.198906
H78	H	0.999796	-0.483134	0.004551
C79	C	0.548319	0.170693	-0.059508
C80	C	0.486705	0.054895	-0.095840
C81	C	0.435263	0.042539	-0.220141
C82	C	0.445433	0.145980	-0.308111
C83	C	0.507049	0.261786	-0.271781
C84	C	0.558492	0.274142	-0.147480
H85	H	0.479174	-0.021685	-0.030717
H86	H	0.389650	-0.043189	-0.247034
H87	H	0.407352	0.136833	-0.400127
H88	H	0.514580	0.338367	-0.336903
H89	H	0.604104	0.359870	-0.120586
C90	C	1.398568	-0.010887	0.875381
C91	C	1.480593	-0.110964	0.815653
C92	C	1.552999	-0.199322	0.892011
C93	C	1.543379	-0.187604	1.028097
C94	C	1.461350	-0.087524	1.087833
C95	C	1.388945	0.000835	1.011475
H96	H	1.487718	-0.119642	0.714907
H97	H	1.613722	-0.273408	0.847790
H98	H	1.596977	-0.253012	1.084622
H99	H	1.454226	-0.078845	1.188579
H100	H	1.328222	0.074921	1.055696
C101	C	0.718911	0.167401	-0.149058
C102	C	0.657296	0.051611	-0.185414
C103	C	0.605867	0.039273	-0.309724
C104	C	0.616053	0.142725	-0.397678
C105	C	0.677671	0.258523	-0.361325
C106	C	0.729100	0.270861	-0.237015
H107	H	0.649753	-0.024978	-0.120303
H108	H	0.560253	-0.046449	-0.336634
H109	H	0.577982	0.133592	-0.489700
H110	H	0.685213	0.335112	-0.426436
H111	H	0.774713	0.356583	-0.210104
C112	C	1.109077	-0.366371	0.329176
C113	C	1.094038	-0.507239	0.348224
C114	C	1.028605	-0.539482	0.452815
C115	C	0.978212	-0.430856	0.538360
C116	C	0.993249	-0.289979	0.519315
C117	C	1.058682	-0.257736	0.414723
H118	H	1.131343	-0.587659	0.284896
H119	H	1.017474	-0.643769	0.466913
H120	H	0.929774	-0.454724	0.615785
H121	H	0.955944	-0.209559	0.582642
H122	H	1.069814	-0.153449	0.400625
H123	H	0.534185	0.207456	0.361552
H124	H	0.929432	0.177795	-0.095486
H125	H	1.312277	-0.225638	0.321926
H126	H	1.050725	-0.201395	0.113591
H127	H	1.337596	-0.256567	-0.035710
H128	H	1.067997	0.392528	0.634994
H129	H	1.125074	0.322875	0.828130
H130	H	1.083852	0.373172	0.410520
