data_functionalizedCrystal
_audit_creation_method	'MofGen! by Chris Wilmer'
_symmetry_space_group_name_H-M	'P1'
_symmetry_Int_Tables_number	1
_symmetry_cell_setting	triclinic
loop_
_symmetry_equiv_pos_as_xyz
  x,y,z
_cell_length_a	14.908558
_cell_length_b	14.908520
_cell_length_c	11.169409
_cell_angle_alpha	93.260332
_cell_angle_beta	86.684205
_cell_angle_gamma	90.204982
loop_
_atom_site_label
_atom_site_type_symbol
_atom_site_fract_x
_atom_site_fract_y
_atom_site_fract_z
Zn1	Zn	1.354005	-0.437347	-0.815909
Zn2	Zn	1.345213	-0.587731	-0.626076
Zn3	Zn	1.203630	-0.428708	-0.603048
Zn4	Zn	1.194933	-0.578968	-0.814524
O5	O	1.274445	-0.508188	-0.714889
O6	O	1.478664	-0.464578	-0.800945
O7	O	1.326391	-0.566687	-0.455073
O8	O	1.230897	-0.304033	-0.622227
O9	O	1.472204	-0.575064	-0.661475
O10	O	1.341377	-0.310380	-0.778615
O11	O	1.222371	-0.449854	-0.438154
O12	O	1.076651	-0.441358	-0.620883
O13	O	1.216074	-0.560131	-0.982656
O14	O	1.070261	-0.551754	-0.776253
O15	O	1.332944	-0.456082	-0.983674
O16	O	1.317959	-0.712389	-0.660132
O17	O	1.207549	-0.705952	-0.798583
C18	C	1.040831	-0.494668	-0.695920
C19	C	0.940888	-0.488905	-0.687835
C20	C	0.803329	-0.423222	-0.595666
C21	C	0.897234	-0.428632	-0.603257
C22	C	0.890630	-0.543771	-0.764828
C23	C	0.796725	-0.538361	-0.757237
C24	C	0.753078	-0.478086	-0.672652
C25	C	0.659171	-0.472681	-0.665055
C26	C	0.652569	-0.587815	-0.826631
C27	C	0.746474	-0.593225	-0.834222
C28	C	1.260880	-0.741796	-0.731734
C29	C	1.255159	-0.841739	-0.738988
C30	C	1.359497	-1.036191	-0.608581
C31	C	1.354125	-1.130096	-0.615393
C32	C	1.239048	-1.123457	-0.759428
C33	C	1.244420	-1.029551	-0.752616
C34	C	1.304646	-0.985922	-0.677189
C35	C	1.310013	-0.892014	-0.670372
C36	C	1.194941	-0.885377	-0.814413
C37	C	1.189568	-0.979282	-0.821224
C38	C	1.508972	-0.521762	-0.733933
C39	C	1.608913	-0.527547	-0.742049
C40	C	1.274520	-0.508093	-1.027930
C41	C	1.274552	-0.508052	-1.161330
C42	C	1.288088	-0.273670	-0.698006
C43	C	1.293901	-0.173733	-0.690812
C44	C	1.274426	-0.508222	-0.403066
C45	C	1.274583	-0.508020	-0.269663
H46	H	0.782025	-0.642297	-0.903092
O47	O	0.756242	-0.358217	-0.504441
H48	H	0.806962	-0.320972	-0.452184
O49	O	1.135771	-0.831145	-0.888399
H50	H	1.064179	-0.845163	-0.863293
O51	O	0.937738	-0.608753	-0.856066
H52	H	0.915643	-0.678277	-0.838994
O53	O	0.612081	-0.407689	-0.573815
H54	H	0.571952	-0.359530	-0.620868
O55	O	0.598372	-0.646993	-0.909679
H56	H	0.525741	-0.633104	-0.890197
H57	H	1.398792	-1.171022	-0.559527
H58	H	1.190021	-1.158997	-0.820845
H59	H	0.938146	-0.383953	-0.540572
H60	H	1.359049	-0.856492	-0.608952
H61	H	1.408529	-1.000667	-0.547157
O62	O	1.124600	-1.026340	-0.902558
H63	H	1.130071	-1.100083	-0.895760
