data_functionalizedCrystal
_audit_creation_method	'MofGen! by Chris Wilmer'
_symmetry_space_group_name_H-M	'P1'
_symmetry_Int_Tables_number	1
_symmetry_cell_setting	triclinic
loop_
_symmetry_equiv_pos_as_xyz
  x,y,z
_cell_length_a	23.532355
_cell_length_b	14.519709
_cell_length_c	12.996460
_cell_angle_alpha	90.007090
_cell_angle_beta	90.000230
_cell_angle_gamma	96.746178
loop_
_atom_site_label
_atom_site_type_symbol
_atom_site_fract_x
_atom_site_fract_y
_atom_site_fract_z
O1	O	0.755784	-0.111723	-0.085429
O2	O	1.089117	0.221610	0.247904
O3	O	1.422450	0.554944	0.581238
O4	O	0.589989	-0.127971	-0.085462
O5	O	0.923323	0.205362	0.247871
O6	O	1.256656	0.538696	0.581204
O7	O	0.677282	0.014445	-0.085436
O8	O	1.010616	0.347778	0.247898
O9	O	1.343949	0.681111	0.581231
O10	O	0.668491	-0.254139	-0.085456
O11	O	1.001824	0.079194	0.247878
O12	O	1.335157	0.412528	0.581211
O13	O	0.677273	0.014452	0.085698
O14	O	1.010606	0.347786	0.419032
O15	O	1.343940	0.681119	0.752365
O16	O	0.589980	-0.127963	0.085672
O17	O	0.923314	0.205370	0.419005
O18	O	1.256647	0.538703	0.752338
O19	O	0.755774	-0.111715	0.085705
O20	O	1.089108	0.221618	0.419038
O21	O	1.422441	0.554951	0.752371
Cu22	Cu	0.672876	-0.119839	0.101314
Cu23	Cu	1.006210	0.213495	0.434647
Cu24	Cu	1.339543	0.546828	0.767981
Cu25	Cu	0.672887	-0.119848	-0.101072
Cu26	Cu	1.006221	0.213486	0.232262
Cu27	Cu	1.339554	0.546819	0.565595
O28	O	0.668482	-0.254131	0.085678
O29	O	1.001815	0.079202	0.419011
O30	O	1.335148	0.412536	0.752345
C31	C	0.568766	-0.127561	0.000101
C32	C	0.902100	0.205772	0.333434
C33	C	1.235433	0.539105	0.666767
C34	C	0.505542	-0.126340	0.000088
C35	C	0.838876	0.206993	0.333422
C36	C	1.172209	0.540327	0.666755
C37	C	0.113489	-0.118663	0.093417
C38	C	0.446822	0.214670	0.426750
C39	C	0.780155	0.548003	0.760084
C40	C	0.054084	-0.117502	0.093421
C41	C	0.387417	0.215832	0.426754
C42	C	0.720751	0.549165	0.760088
O43	O	0.023358	-0.116866	0.172755
O44	O	0.356692	0.216467	0.506089
O45	O	0.690025	0.549801	0.839422
N46	N	0.024378	-0.116930	0.000136
N47	N	0.357711	0.216403	0.333470
N48	N	0.691045	0.549737	0.666803
C49	C	0.054080	-0.117510	-0.093158
C50	C	0.387414	0.215823	0.240175
C51	C	0.720747	0.549156	0.573508
O52	O	0.023358	-0.116917	-0.172504
O53	O	0.356692	0.216417	0.160829
O54	O	0.690025	0.549750	0.494163
C55	C	0.113484	-0.118666	-0.093161
C56	C	0.446818	0.214668	0.240172
C57	C	0.780151	0.548001	0.573505
C58	C	0.143187	-0.119247	0.000129
C59	C	0.476520	0.214087	0.333463
C60	C	0.809853	0.547420	0.666796
C61	C	0.143191	-0.119244	0.186700
C62	C	0.476525	0.214090	0.520033
C63	C	0.809858	0.547423	0.853367
C64	C	0.202592	-0.120407	0.186696
C65	C	0.535925	0.212926	0.520029
C66	C	0.869258	0.546260	0.853362
C67	C	0.232290	-0.120990	0.093408
C68	C	0.565623	0.212343	0.426741
C69	C	0.898956	0.545676	0.760075
C70	C	0.202587	-0.120410	0.000125
C71	C	0.535921	0.212923	0.333458
C72	C	0.869254	0.546256	0.666792
C73	C	0.143186	-0.119239	-0.186455
C74	C	0.476520	0.214094	0.146878
C75	C	0.809853	0.547427	0.480211
C76	C	0.202595	-0.120394	-0.186450
C77	C	0.535928	0.212939	0.146883
C78	C	0.869261	0.546273	0.480217
C79	C	0.232297	-0.120975	-0.093159
C80	C	0.565630	0.212358	0.240174
C81	C	0.898963	0.545692	0.573507
C82	C	0.291686	-0.122157	-0.093167
C83	C	0.625019	0.211176	0.240166
C84	C	0.958352	0.544510	0.573499
N85	N	0.321392	-0.122729	0.000117
N86	N	0.654725	0.210605	0.333451
N87	N	0.988058	0.543938	0.666784
C88	C	0.291694	-0.122145	0.093405
C89	C	0.625027	0.211188	0.426738
C90	C	0.958360	0.544521	0.760072
C91	C	-0.070672	-0.115083	-0.093145
C92	C	0.262661	0.218250	0.240188
C93	C	0.595995	0.551584	0.573522
C94	C	-0.130076	-0.113935	-0.093143
C95	C	0.203258	0.219399	0.240190
C96	C	0.536591	0.552732	0.573524
C97	C	-0.130068	-0.113924	0.093437
C98	C	0.203266	0.219409	0.426770
C99	C	0.536599	0.552743	0.760103
C100	C	-0.070664	-0.115079	0.093434
C101	C	0.262670	0.218254	0.426767
C102	C	0.596003	0.551587	0.760100
C103	C	-0.040966	-0.115655	0.000140
C104	C	0.292367	0.217678	0.333473
C105	C	0.625701	0.551012	0.666806
C106	C	0.416439	-0.124589	0.093389
C107	C	0.749772	0.208744	0.426722
C108	C	1.083105	0.542077	0.760055
C109	C	0.475844	-0.125757	0.093376
C110	C	0.809178	0.207576	0.426709
C111	C	1.142511	0.540910	0.760043
C112	C	0.475831	-0.125762	-0.093203
C113	C	0.809165	0.207571	0.240130
C114	C	1.142498	0.540904	0.573463
C115	C	0.416431	-0.124600	-0.093191
C116	C	0.749764	0.208733	0.240142
C117	C	1.083098	0.542067	0.573475
C118	C	0.386736	-0.124010	0.000113
C119	C	0.720070	0.209323	0.333446
C120	C	1.053403	0.542656	0.666780
O121	O	0.322449	-0.122790	-0.172461
O122	O	0.655783	0.210544	0.160872
O123	O	0.989116	0.543877	0.494206
O124	O	0.322424	-0.122727	0.172737
O125	O	0.655757	0.210606	0.506071
O126	O	0.989091	0.543939	0.839404
C127	C	0.676868	0.048803	0.000131
C128	C	1.010201	0.382137	0.333465
C129	C	1.343535	0.715470	0.666798
C130	C	0.675640	0.151170	0.000132
C131	C	1.008973	0.484503	0.333465
C132	C	1.342307	0.817836	0.666798
C133	C	0.776997	-0.112125	0.000140
C134	C	1.110331	0.221208	0.333473
C135	C	1.443664	0.554541	0.666806
C136	C	0.840222	-0.113346	0.000145
C137	C	1.173555	0.219987	0.333479
C138	C	1.506888	0.553320	0.666812
C139	C	0.668896	-0.288490	0.000109
C140	C	1.002229	0.044844	0.333442
C141	C	1.335562	0.378177	0.666775
C142	C	0.670124	-0.390856	0.000102
C143	C	1.003457	-0.057523	0.333435
C144	C	1.336790	0.275811	0.666768
N145	N	0.672873	-0.119832	0.243661
N146	N	1.006206	0.213502	0.576994
N147	N	1.339540	0.546835	0.910328
C148	C	0.671120	0.526011	0.000104
C149	C	1.004453	0.859344	0.333437
C150	C	1.337787	1.192677	0.666771
C151	C	0.672375	0.421718	0.000112
C152	C	1.005709	0.755051	0.333446
C153	C	1.339042	1.088385	0.666779
C154	C	0.673380	0.338594	0.000119
C155	C	1.006713	0.671927	0.333452
C156	C	1.340047	1.005260	0.666786
C157	C	0.674635	0.234294	0.000125
C158	C	1.007969	0.567628	0.333458
C159	C	1.341302	0.900961	0.666792
N160	N	0.672895	-0.119847	-0.243419
N161	N	1.006229	0.213486	0.089915
N162	N	1.339562	0.546819	0.423248
C163	C	0.672886	-0.119849	0.663475
C164	C	1.006220	0.213485	0.996809
C165	C	1.339553	0.546818	1.330142
C166	C	0.672881	-0.119847	0.546670
C167	C	1.006214	0.213486	0.880004
C168	C	1.339548	0.546820	1.213337
C169	C	0.672880	-0.119841	0.453572
C170	C	1.006213	0.213492	0.786905
C171	C	1.339547	0.546826	1.120239
C172	C	0.672874	-0.119838	0.336759
C173	C	1.006207	0.213496	0.670093
C174	C	1.339541	0.546829	1.003426
H175	H	0.119018	-0.118767	0.262670
H176	H	0.452351	0.214567	0.596004
H177	H	0.785684	0.547900	0.929337
H178	H	0.392245	-0.124142	-0.169156
H179	H	0.725578	0.209192	0.164177
H180	H	1.058911	0.542525	0.497511
F181	F	0.111588	-0.118619	-0.285750
F182	F	0.444921	0.214714	0.047583
F183	F	0.778254	0.548048	0.380917
F184	F	0.507452	-0.126378	0.192673
F185	F	0.840785	0.206955	0.526006
F186	F	1.174119	0.540288	0.859340
F187	F	0.384844	-0.123960	0.192694
F188	F	0.718177	0.209373	0.526027
F189	F	1.051511	0.542706	0.859360
H190	H	0.226771	-0.120863	-0.262423
H191	H	0.560104	0.212470	0.070910
H192	H	0.893438	0.545804	0.404243
H193	H	-0.154258	-0.113448	0.169397
H194	H	0.179075	0.219886	0.502730
H195	H	0.512408	0.553219	0.836063
F196	F	0.507449	-0.126380	-0.192482
F197	F	0.840782	0.206953	0.140852
F198	F	1.174115	0.540286	0.474185
H199	H	-0.046484	-0.115553	0.169399
H200	H	0.286849	0.217780	0.502733
H201	H	0.620183	0.551113	0.836066
F202	F	-0.161682	-0.113333	-0.192436
F203	F	0.171651	0.220000	0.140897
F204	F	0.504985	0.553333	0.474231
F205	F	0.234196	-0.121021	0.285989
F206	F	0.567529	0.212312	0.619323
F207	F	0.900863	0.545646	0.952656
H208	H	-0.046497	-0.115560	-0.169121
H209	H	0.286837	0.217773	0.164212
H210	H	0.620170	0.551106	0.497546
