data_functionalizedCrystal
_audit_creation_method	'MofGen! by Chris Wilmer'
_symmetry_space_group_name_H-M	'P1'
_symmetry_Int_Tables_number	1
_symmetry_cell_setting	triclinic
loop_
_symmetry_equiv_pos_as_xyz
  x,y,z
_cell_length_a	17.699083
_cell_length_b	15.995350
_cell_length_c	16.176319
_cell_angle_alpha	89.995430
_cell_angle_beta	89.998611
_cell_angle_gamma	83.387695
loop_
_atom_site_label
_atom_site_type_symbol
_atom_site_fract_x
_atom_site_fract_y
_atom_site_fract_z
O1	O	1.004255	0.105885	-0.068627
O2	O	0.783899	0.119661	-0.068653
O3	O	0.900101	-0.009127	-0.068638
O4	O	0.888054	0.234673	-0.068641
O5	O	0.900085	-0.009135	0.068855
O6	O	0.783883	0.119653	0.068840
O7	O	1.004239	0.105877	0.068867
Cu8	Cu	0.894060	0.112764	0.081408
Cu9	Cu	0.894079	0.112774	-0.081194
O10	O	0.888038	0.234665	0.068852
C11	C	0.755694	0.119163	0.000090
C12	C	0.671673	0.117683	0.000080
C13	C	0.623178	0.193278	0.000079
C14	C	0.544232	0.191882	0.000090
C15	C	0.513783	0.114889	0.000095
C16	C	0.562285	0.039287	0.000098
C17	C	0.641229	0.040685	0.000094
C18	C	0.243912	0.033651	0.000119
C19	C	0.164962	0.032259	0.000121
C20	C	0.146916	0.184848	0.000115
C21	C	0.225860	0.186245	0.000110
C22	C	0.274354	0.110644	0.000118
C23	C	0.359956	0.112159	0.000108
C24	C	0.428183	0.113373	0.000099
C25	C	0.899595	-0.040324	0.000107
C26	C	0.898101	-0.133272	0.000102
C27	C	0.892739	-0.471008	0.000104
C28	C	0.809983	-0.423406	-0.000214
C29	C	0.811476	-0.326719	0.000096
C30	C	0.895399	-0.303453	0.000102
C31	C	0.936208	-0.344618	0.078621
C32	C	0.934129	-0.441250	0.078687
C33	C	0.935857	-0.441602	-0.077669
C34	C	0.935838	-0.344657	-0.078706
C35	C	0.896907	-0.208759	0.000104
C36	C	0.891234	-0.565703	0.000108
C37	C	1.032445	0.106375	0.000122
C38	C	1.116465	0.107856	0.000126
C39	C	0.888544	0.265863	0.000105
C40	C	0.890037	0.358810	0.000104
N41	N	0.894052	0.112757	0.195773
N42	N	0.894092	0.112775	-0.195559
C43	C	0.945521	0.055753	0.239043
C44	C	0.945525	0.055752	0.325591
C45	C	0.894063	0.112760	0.368865
C46	C	0.842588	0.169767	0.325589
C47	C	0.842581	0.169763	0.239043
C48	C	0.842614	0.169782	0.674617
C49	C	0.842626	0.169783	0.761168
C50	C	0.945558	0.055772	0.761164
C51	C	0.945551	0.055768	0.674619
C52	C	0.894074	0.112771	0.631350
C53	C	0.894069	0.112770	0.537505
C54	C	0.894070	0.112765	0.462708
H55	H	0.537487	-0.023402	0.000115
C56	C	1.056197	-0.458083	-0.147852
C57	C	1.018226	-0.484644	-0.078382
H58	H	1.107046	-0.484655	-0.148283
H59	H	1.030826	-0.472814	-0.196552
H60	H	1.056479	-0.398767	-0.145827
H61	H	1.017939	-0.543961	-0.080410
H62	H	1.043603	-0.469919	-0.029670
H63	H	0.504750	0.253440	0.000088
C64	C	0.706818	-0.231451	0.050377
C65	C	0.767868	-0.289015	0.076203
H66	H	0.679895	-0.208181	0.097367
H67	H	0.725529	-0.187691	0.019514
H68	H	0.673622	-0.259448	0.016744
H69	H	0.801067	-0.261016	0.109831
H70	H	0.749157	-0.332782	0.107079
H71	H	0.140174	-0.030442	0.000127
H72	H	0.906001	-0.317344	-0.136792
H73	H	0.800716	0.216208	0.796401
H74	H	0.283388	-0.027909	0.000126
H75	H	0.107421	0.246406	0.000113
C76	C	1.047306	-0.056934	0.752465
C77	C	1.002136	-0.006900	0.808727
H78	H	1.082236	-0.095619	0.781829
H79	H	1.015801	-0.087005	0.718716
H80	H	1.074524	-0.022107	0.718704
H81	H	0.974913	-0.041726	0.842485
H82	H	1.033645	0.023173	0.842491
C83	C	0.304153	0.276346	-0.070594
C84	C	0.259322	0.270882	0.000094
H85	H	0.324804	0.328601	-0.070606
H86	H	0.344333	0.231532	-0.070587
H87	H	0.273719	0.272622	-0.118531
H88	H	0.289757	0.274598	0.048030
H89	H	0.219136	0.315707	0.000094
C90	C	0.943778	-0.521959	0.204174
C91	C	0.893930	-0.465886	0.157907
H92	H	0.918957	-0.537160	0.253083
H93	H	0.958690	-0.570963	0.172310
H94	H	0.987487	-0.495773	0.218519
H95	H	0.850223	-0.492074	0.143557
H96	H	0.879006	-0.416874	0.189777
H97	H	0.800700	0.216198	0.639394
C98	C	0.680926	-0.088941	-0.070592
C99	C	0.694541	-0.042411	0.000088
H100	H	0.713843	-0.140239	-0.070594
H101	H	0.629560	-0.100792	-0.070582
H102	H	0.690156	-0.057350	-0.118534
H103	H	0.685305	-0.073999	0.048030
H104	H	0.745919	-0.030562	0.000086
H105	H	0.997038	-0.329419	-0.083442
C106	C	0.796897	0.220405	0.458257
C107	C	0.786020	0.232433	0.373154
H108	H	0.761978	0.259099	0.487619
H109	H	0.788679	0.164542	0.472446
H110	H	0.847411	0.229430	0.472422
H111	H	0.735508	0.223402	0.358989
H112	H	0.794232	0.288309	0.358959
C113	C	0.740841	0.282470	0.247734
C114	C	0.786007	0.232427	0.191477
H115	H	0.705916	0.321158	0.218368
H116	H	0.713623	0.247655	0.281496
H117	H	0.772353	0.312545	0.281484
H118	H	0.754495	0.202348	0.157731
H119	H	0.813227	0.267246	0.157700
H120	H	0.647962	0.255975	0.000074
H121	H	0.987435	0.009335	0.360821
H122	H	0.987431	0.009334	0.203815
C123	C	0.874029	-0.398144	-0.205255
C124	C	0.899344	-0.469244	-0.158013
H125	H	0.851487	-0.415211	-0.254854
H126	H	0.837509	-0.362607	-0.174604
H127	H	0.915929	-0.368403	-0.218356
H128	H	0.857443	-0.498982	-0.144907
H129	H	0.935867	-0.504795	-0.188670
H130	H	0.779397	-0.298228	-0.056190
C131	C	0.961799	-0.058340	0.577478
C132	C	1.002050	-0.007044	0.627132
H133	H	0.996659	-0.097159	0.548184
H134	H	0.930232	-0.088260	0.611307
H135	H	0.931217	-0.024389	0.539259
H136	H	1.032628	-0.040995	0.665356
H137	H	1.033630	0.022878	0.593301
H138	H	0.776912	-0.441867	-0.056522
C139	C	0.761426	-0.536622	0.072637
C140	C	0.765520	-0.449763	0.075369
H141	H	0.733983	-0.552894	0.119304
H142	H	0.736160	-0.550222	0.023476
H143	H	0.811362	-0.565657	0.073294
H144	H	0.715584	-0.420728	0.074706
H145	H	0.790785	-0.436156	0.124543
H146	H	0.994887	-0.473622	0.082254
H147	H	0.997864	-0.330618	0.081546
C148	C	0.934927	-0.343566	0.227043
C149	C	0.897928	-0.306242	0.157499
H150	H	0.911293	-0.319870	0.275736
H151	H	0.931747	-0.402433	0.226226
H152	H	0.986831	-0.333693	0.226336
H153	H	0.846025	-0.316119	0.158203
H154	H	0.901100	-0.247361	0.158317
