data_functionalizedCrystal
_audit_creation_method	'MofGen! by Chris Wilmer'
_symmetry_space_group_name_H-M	'P1'
_symmetry_Int_Tables_number	1
_symmetry_cell_setting	triclinic
loop_
_symmetry_equiv_pos_as_xyz
  x,y,z
_cell_length_a	19.288864
_cell_length_b	23.532357
_cell_length_c	22.010155
_cell_angle_alpha	90.016389
_cell_angle_beta	90.006397
_cell_angle_gamma	82.982267
loop_
_atom_site_label
_atom_site_type_symbol
_atom_site_fract_x
_atom_site_fract_y
_atom_site_fract_z
O1	O	0.921101	0.071052	0.050727
O2	O	0.718808	0.080637	0.050687
O3	O	0.826073	-0.007077	0.050696
O4	O	0.813836	0.158766	0.050718
O5	O	0.826089	-0.007092	-0.050355
O6	O	0.718825	0.080621	-0.050364
O7	O	0.921117	0.071037	-0.050323
Cu8	Cu	0.819973	0.075828	-0.059570
Cu9	Cu	0.819953	0.075846	0.059934
O10	O	0.813853	0.158750	-0.050332
C11	C	0.692941	0.080320	0.000156
C12	C	0.615841	0.079395	0.000140
C13	C	0.825775	-0.028301	0.000169
C14	C	0.824855	-0.091522	0.000163
C15	C	0.570975	0.130861	0.000157
C16	C	0.498530	0.129991	0.000163
C17	C	0.470956	0.077652	0.000165
C18	C	0.515832	0.026180	0.000145
C19	C	0.588274	0.027051	0.000133
C20	C	0.362824	0.036514	0.035583
C21	C	0.290382	0.035645	0.035599
C22	C	0.247519	0.074963	0.000202
C23	C	0.277105	0.115161	-0.035204
C24	C	0.349547	0.116032	-0.035217
C25	C	0.392405	0.076702	0.000179
C26	C	0.124100	0.125490	0.000225
C27	C	0.051655	0.124618	0.000228
C28	C	0.068958	0.020805	0.000216
C29	C	0.141401	0.021678	0.000207
C30	C	0.168968	0.074022	0.000214
C31	C	0.819069	-0.483537	0.055277
C32	C	0.818194	-0.542938	0.055280
O33	O	0.817710	-0.573648	0.102126
N34	N	0.817769	-0.572659	0.000198
C35	C	0.818212	-0.542974	-0.054891
O36	O	0.817770	-0.573708	-0.101742
C37	C	0.819082	-0.483573	-0.054893
C38	C	0.819514	-0.453857	0.000192
C39	C	0.819500	-0.453820	0.110358
C40	C	0.820376	-0.394423	0.110354
C41	C	0.820821	-0.364743	0.055270
C42	C	0.820390	-0.394460	0.000189
C43	C	0.819520	-0.453889	-0.109981
C44	C	0.820389	-0.394484	-0.109979
C45	C	0.820821	-0.364768	-0.054894
C46	C	0.821711	-0.305382	-0.054899
N47	N	0.822136	-0.275662	0.000183
C48	C	0.821690	-0.305342	0.055267
C49	C	0.816385	-0.667719	-0.054881
C50	C	0.815520	-0.727119	-0.054879
C51	C	0.815500	-0.727079	0.055292
C52	C	0.816370	-0.667679	0.055290
C53	C	0.816809	-0.637999	0.000201
C54	C	0.823531	-0.180604	0.055256
C55	C	0.824410	-0.121202	0.055247
C56	C	0.824426	-0.121247	-0.054923
C57	C	0.823550	-0.180644	-0.054915
C58	C	0.823101	-0.210321	0.000179
O59	O	0.822192	-0.274634	-0.101721
O60	O	0.822124	-0.274600	0.102110
C61	C	0.946984	0.071353	0.000209
C62	C	1.024085	0.072279	0.000229
C63	C	0.814151	0.179975	0.000196
C64	C	0.815071	0.243196	0.000206
N65	N	0.819992	0.075815	-0.143623
N66	N	0.819940	0.075855	0.143986
C67	C	0.867568	0.037073	0.563770
C68	C	0.867573	0.037070	0.627377
O69	O	0.908059	0.004119	0.660272
N70	N	0.819987	0.075828	0.659193
C71	C	0.772398	0.114595	0.627398
O72	O	0.731924	0.147561	0.660301
C73	C	0.772397	0.114599	0.563792
C74	C	0.819981	0.075835	0.531979
C75	C	0.915149	-0.001688	0.531957
C76	C	0.915143	-0.001686	0.468353
C77	C	0.867556	0.037077	0.436563
C78	C	0.819975	0.075837	0.468376
C79	C	0.724812	0.153368	0.531998
C80	C	0.724815	0.153370	0.468388
C81	C	0.772399	0.114606	0.436575
C82	C	0.772383	0.114602	0.372982
N83	N	0.819968	0.075844	0.341166
C84	C	0.867555	0.037082	0.372957
C85	C	0.772405	0.114582	0.760976
C86	C	0.772402	0.114575	0.824581
C87	C	0.867578	0.037052	0.824556
C88	C	0.867577	0.037056	0.760949
C89	C	0.819991	0.075825	0.729160
C90	C	0.867538	0.037088	0.239385
C91	C	0.867526	0.037092	0.175776
C92	C	0.772353	0.114617	0.175808
C93	C	0.772363	0.114612	0.239411
C94	C	0.819961	0.075845	0.271198
O95	O	0.731920	0.147538	0.340047
O96	O	0.908029	0.004126	0.340046
H97	H	0.593414	0.173483	0.000164
N98	N	0.450131	0.185505	0.000183
H99	H	0.458970	0.208349	0.037647
H100	H	0.400076	0.176962	0.000169
N101	N	0.918860	-0.004713	0.141466
H102	H	0.911256	-0.045141	0.152522
H103	H	0.968055	0.001880	0.152560
N104	N	0.409049	-0.005896	0.073767
H105	H	0.459430	0.000753	0.068385
H106	H	0.403056	-0.046102	0.060529
H107	H	0.815179	-0.751311	-0.099735
H108	H	0.733649	0.146151	0.735096
H109	H	0.953892	-0.033249	0.442455
H110	H	0.816720	-0.643487	0.100145
N111	N	0.819030	-0.485826	0.169777
H112	H	0.818416	-0.527967	0.161432
H113	H	0.776116	-0.470703	0.193825
N114	N	0.815020	-0.759097	0.114707
H115	H	0.814401	-0.801236	0.106346
H116	H	0.772102	-0.743978	0.138753
H117	H	0.686065	0.184934	0.557891
H118	H	0.906298	0.005522	0.265259
H119	H	0.733609	0.146172	0.265313
H120	H	0.824763	-0.097010	0.100106
H121	H	0.816744	-0.643558	-0.099743
N122	N	0.966480	-0.043498	0.566239
H123	H	0.996617	-0.068047	0.536425
H124	H	0.940137	-0.068673	0.592615
H125	H	0.242207	0.147177	-0.064028
N126	N	0.824896	-0.089226	-0.114333
H127	H	0.824489	-0.117061	-0.149231
H128	H	0.868322	-0.069310	-0.116728
H129	H	0.906324	0.005492	0.735051
N130	N	0.258474	-0.007710	0.073782
H131	H	0.224944	0.012845	0.104068
H132	H	0.296660	-0.032479	0.096157
N133	N	0.381460	0.159381	-0.073403
H134	H	0.343319	0.184159	-0.095827
H135	H	0.414999	0.138777	-0.103648
N136	N	0.673489	0.195185	0.434101
H137	H	0.643348	0.219738	0.463910
H138	H	0.642993	0.173395	0.407702
N139	N	0.918905	-0.004759	0.858850
H140	H	0.911682	0.001124	0.903971
H141	H	0.968104	0.001795	0.847741
N142	N	0.636669	-0.028462	0.000124
H143	H	0.686744	-0.019968	0.000119
H144	H	0.627775	-0.051287	-0.037337
H145	H	0.733648	0.146135	0.850479
H146	H	0.819170	-0.478074	-0.154838
N147	N	0.721036	0.156424	0.141507
H148	H	0.728655	0.196850	0.152589
H149	H	0.671834	0.149847	0.152577
H150	H	0.146545	0.168111	0.000222
N151	N	0.003280	0.180142	0.000209
H152	H	0.012110	0.203005	0.037662
H153	H	-0.046782	0.171621	0.000179
N154	N	0.039227	-0.035647	0.000211
H155	H	-0.013473	-0.028391	0.000220
H156	H	0.055678	-0.058157	0.037667
H157	H	0.823161	-0.204760	0.100119
H158	H	0.820725	-0.370233	0.155211
N159	N	0.820866	-0.362469	-0.169395
H160	H	0.777653	-0.368084	-0.193483
H161	H	0.863809	-0.377563	-0.193421
N162	N	0.189798	-0.033832	0.000189
H163	H	0.161340	-0.067121	0.000191
H164	H	0.220246	-0.035728	0.037643
H165	H	0.823205	-0.204841	-0.099770
H166	H	0.493376	-0.016435	0.000156
