data_functionalizedCrystal
_audit_creation_method	'MofGen! by Chris Wilmer'
_symmetry_space_group_name_H-M	'P1'
_symmetry_Int_Tables_number	1
_symmetry_cell_setting	triclinic
loop_
_symmetry_equiv_pos_as_xyz
  x,y,z
_cell_length_a	29.999520
_cell_length_b	29.998686
_cell_length_c	29.995014
_cell_angle_alpha	60.005185
_cell_angle_beta	60.010401
_cell_angle_gamma	59.993433
loop_
_atom_site_label
_atom_site_type_symbol
_atom_site_fract_x
_atom_site_fract_y
_atom_site_fract_z
O1	O	0.061772	-0.651300	0.544623
O2	O	0.023267	-0.507084	0.438819
O3	O	0.114589	-0.598332	0.438743
O4	O	-0.029550	-0.560051	0.544699
O5	O	0.144886	-0.568039	0.468961
O6	O	0.053564	-0.476791	0.469038
O7	O	0.092069	-0.621007	0.574841
Zn8	Zn	0.077627	-0.544089	0.526737
Zn9	Zn	0.037709	-0.584002	0.486923
O10	O	0.000748	-0.529758	0.574918
N11	N	0.104871	-0.516854	0.553912
N12	N	0.010470	-0.611242	0.459748
C13	C	0.143162	-0.478782	0.827124
C14	C	0.378203	-0.478734	0.591892
C15	C	0.143005	-0.478752	0.591997
C16	C	0.142986	-0.243586	0.592008
C17	C	0.180857	-0.357087	0.629814
C18	C	0.180866	-0.440920	0.629807
C19	C	0.201840	-0.419964	0.650755
C20	C	0.293272	-0.404201	0.602606
C21	C	0.350426	-0.423248	0.583534
C22	C	0.350451	-0.515727	0.618798
C23	C	0.293297	-0.496678	0.637872
C24	C	0.194628	-0.328499	0.573626
C25	C	0.175551	-0.271340	0.554591
C26	C	0.128936	-0.271362	0.647935
C27	C	0.148014	-0.328521	0.666970
C28	C	0.124672	-0.427119	0.643641
C29	C	0.105611	-0.446170	0.624592
C30	C	0.198934	-0.492820	0.577889
C31	C	0.217998	-0.473770	0.596931
C32	C	0.124740	-0.427136	0.742229
C33	C	0.105728	-0.446202	0.799386
C34	C	0.199085	-0.492863	0.799337
C35	C	0.218096	-0.473798	0.742178
C36	C	0.180923	-0.440933	0.713626
C37	C	0.264710	-0.440915	0.629773
C38	C	0.121509	-0.499370	0.889991
C39	C	0.441068	-0.498953	0.570621
C40	C	0.121297	-0.499349	0.571429
C41	C	0.121653	-0.180715	0.571802
C42	C	-0.111071	-0.648912	0.421584
C43	C	-0.027286	-0.649018	0.421777
C44	C	-0.048200	-0.669944	0.400740
C45	C	-0.064036	-0.761340	0.448814
C46	C	-0.045033	-0.818500	0.467893
C47	C	0.047447	-0.818609	0.432797
C48	C	0.028444	-0.761451	0.413717
C49	C	-0.139731	-0.662677	0.477755
C50	C	-0.196885	-0.643554	0.496701
C51	C	-0.196717	-0.596907	0.403303
C52	C	-0.139562	-0.616030	0.384357
C53	C	-0.041053	-0.592827	0.407952
C54	C	-0.022041	-0.573809	0.427083
C55	C	0.024504	-0.667167	0.473848
C56	C	0.005492	-0.686188	0.454725
C57	C	-0.040886	-0.592836	0.309259
C58	C	-0.021740	-0.573821	0.252102
C59	C	0.024886	-0.667185	0.252163
C60	C	0.005743	-0.686199	0.309322
C61	C	-0.027145	-0.649023	0.337868
C62	C	-0.027299	-0.732818	0.421728
N63	N	0.492511	-0.516826	0.553742
O64	O	0.679283	-0.525926	0.419277
O65	O	0.679465	-0.632059	0.563349
O66	O	0.679393	-0.631817	0.471975
O67	O	0.679355	-0.526168	0.510650
O68	O	0.588593	-0.601610	0.502313
O69	O	0.588665	-0.601852	0.593686
O70	O	0.588483	-0.495720	0.449614
Zn71	Zn	0.574158	-0.543990	0.526467
Zn72	Zn	0.693790	-0.583788	0.486496
O73	O	0.588555	-0.495962	0.540987
N74	N	0.775436	-0.610952	0.459215
N75	N	0.104844	-0.129269	0.553931
O76	O	-0.029548	0.057600	0.544709
O77	O	0.114530	0.057617	0.438578
O78	O	0.023130	0.057594	0.438850
O79	O	0.061852	0.057623	0.544437
O80	O	0.053431	-0.033213	0.469115
O81	O	0.144831	-0.033190	0.468843
O82	O	0.000753	-0.033207	0.574974
Zn83	Zn	0.077603	-0.047616	0.526714
Zn84	Zn	0.037680	0.072026	0.486838
O85	O	0.092153	-0.033184	0.574702
N86	N	0.010432	0.153679	0.459622
N87	N	0.105130	-0.516904	0.941437
O88	O	0.095923	-0.651280	1.128292
O89	O	-0.010184	-0.507155	1.128318
O90	O	-0.009938	-0.598539	1.128284
O91	O	0.095677	-0.559897	1.128326
O92	O	0.020315	-0.568257	1.037481
O93	O	0.020068	-0.476874	1.037515
O94	O	0.126176	-0.620999	1.037489
Zn95	Zn	0.077925	-0.544128	1.023085
Zn96	Zn	0.038066	-0.584026	1.142722
O97	O	0.125929	-0.529616	1.037523
N98	N	0.010860	-0.611256	1.224371
C99	C	0.034807	-0.473765	0.439352
C100	C	0.147897	-0.586765	0.439257
C101	C	0.080529	-0.654326	0.574308
C102	C	-0.032561	-0.541326	0.574403
C103	C	0.634087	-0.631571	0.596668
C104	C	0.633999	-0.631272	0.483513
C105	C	0.633858	-0.496206	0.416295
C106	C	0.633949	-0.496507	0.529449
C107	C	0.147793	0.012327	0.439058
C108	C	0.034644	0.012187	0.439432
C109	C	-0.032548	0.012195	0.574457
C110	C	0.080639	0.012222	0.574120
C111	C	-0.009670	-0.473857	1.082920
C112	C	-0.009359	-0.587018	1.082860
C113	C	0.125662	-0.654297	1.082887
C114	C	0.125358	-0.541129	1.082927
H115	H	0.059977	-0.434960	0.822668
O116	O	0.088553	-0.395236	0.714578
C117	C	-0.006052	-0.350937	0.720660
C118	C	0.034867	-0.387076	0.752043
H119	H	-0.049466	-0.344319	0.750937
H120	H	0.000476	-0.371868	0.693917
H121	H	0.000548	-0.309834	0.693888
H122	H	0.028292	-0.428184	0.778844
H123	H	0.028329	-0.366102	0.778752
O124	O	-0.072746	-0.556704	0.336970
C125	C	-0.080063	-0.482762	0.354476
C126	C	-0.043926	-0.523653	0.323066
H127	H	-0.056781	-0.456021	0.343238
H128	H	-0.091366	-0.505982	0.400246
H129	H	-0.118817	-0.455985	0.343167
H130	H	-0.005150	-0.550440	0.334329
H131	H	-0.032667	-0.500399	0.277304
H132	H	0.634133	-0.664888	0.638048
O133	O	0.024681	0.012138	0.399930
C134	C	-0.040205	0.012115	0.374986
C135	C	-0.028994	0.012169	0.419771
H136	H	-0.083604	0.012152	0.391008
H137	H	-0.010008	-0.025904	0.363070
H138	H	-0.035311	0.050102	0.337708
H139	H	-0.033895	-0.025792	0.457079
H140	H	-0.059189	0.050213	0.431641
H141	H	0.634015	-0.664461	0.475235
H142	H	-0.042983	-0.432464	1.082928
O143	O	-0.048860	-0.596942	1.082775
C144	C	-0.073814	-0.661788	1.082709
C145	C	-0.029028	-0.650618	1.082792
H146	H	-0.057801	-0.705188	1.082735
H147	H	-0.085721	-0.631580	1.044686
H148	H	-0.111095	-0.656872	1.120687
H149	H	0.008283	-0.655541	1.044840
H150	H	-0.017167	-0.680824	1.120841
H151	H	0.088756	-0.695753	0.607538
H152	H	0.158977	-0.695688	1.082873
H153	H	0.158538	-0.532861	1.082933
H154	H	0.229358	-0.519614	0.822579
H155	H	0.263847	-0.485039	0.718893
H156	H	0.088930	0.012231	0.607291
O157	O	0.051005	-0.432740	0.638102
C158	C	-0.039552	-0.384446	0.686423
C159	C	0.022272	-0.399622	0.671173
H160	H	-0.062800	-0.357659	0.713153
H161	H	-0.050808	-0.423222	0.709723
H162	H	-0.050815	-0.361192	0.647644
H163	H	0.033581	-0.422863	0.709923
H164	H	0.033496	-0.360826	0.647851
O165	O	0.235079	-0.524709	0.545943
C166	C	0.329659	-0.568999	0.501661
C167	C	0.288783	-0.532871	0.537835
H168	H	0.373088	-0.575619	0.495103
H169	H	0.323087	-0.548057	0.460534
H170	H	0.323057	-0.610101	0.522600
H171	H	0.295361	-0.491763	0.516944
H172	H	0.295365	-0.553856	0.578960
H173	H	0.633799	-0.462884	0.374920
O174	O	0.097099	-0.243664	0.684076
C175	C	0.089855	-0.226145	0.757981
C176	C	0.125965	-0.257556	0.717092
H177	H	0.113183	-0.237357	0.784678
H178	H	0.051088	-0.237404	0.784799
H179	H	0.078570	-0.180386	0.734707
H180	H	0.137292	-0.303323	0.740322
H181	H	0.164706	-0.246252	0.690275
H182	H	-0.073925	0.012190	0.607776
O183	O	-0.224644	-0.656999	0.551287
C184	C	-0.218782	-0.705268	0.641928
C185	C	-0.187279	-0.690089	0.580127
H186	H	-0.188586	-0.732014	0.665263
H187	H	-0.245532	-0.728530	0.653139
H188	H	-0.245558	-0.666458	0.653134
H189	H	-0.160474	-0.728871	0.568877
H190	H	-0.160564	-0.666807	0.568949
H191	H	0.094434	-0.400372	0.670409
H192	H	0.633941	-0.463320	0.537725
O193	O	0.265635	-0.532414	0.664229
C194	C	0.271694	-0.626156	0.697219
C195	C	0.303088	-0.585743	0.667348
H196	H	0.301960	-0.669281	0.699760
H197	H	0.244929	-0.614722	0.673864
H198	H	0.244943	-0.624382	0.740184
H199	H	0.329868	-0.587495	0.624383
H200	H	0.329818	-0.597189	0.690744
O201	O	0.197006	0.012701	0.399138
C202	C	0.245353	0.060195	0.308116
C203	C	0.189582	0.059838	0.353273
H204	H	0.239370	0.098307	0.271027
H205	H	0.265111	0.022298	0.295998
H206	H	0.272873	0.060259	0.323912
H207	H	0.162019	0.059793	0.337516
H208	H	0.169867	0.097732	0.365384
O209	O	-0.081971	-0.531498	0.614048
C210	C	-0.171888	-0.466817	0.639283
C211	C	-0.115954	-0.477871	0.594341
H212	H	-0.199384	-0.423464	0.623363
H213	H	-0.166198	-0.471703	0.676515
H214	H	-0.191505	-0.497121	0.651234
H215	H	-0.096308	-0.447576	0.582345
H216	H	-0.121680	-0.473004	0.557139
H217	H	0.263756	-0.485001	0.585661
H218	H	0.026581	-0.432337	0.406123
H219	H	0.221368	-0.351757	0.543370
H220	H	0.373680	-0.393351	0.561411
O221	O	0.378251	-0.569879	0.626562
C222	C	0.442799	-0.639027	0.584433
C223	C	0.411340	-0.577688	0.575562
H224	H	0.469567	-0.645359	0.543207
H225	H	0.412593	-0.662023	0.607096
H226	H	0.469555	-0.655106	0.609571
H227	H	0.384583	-0.561559	0.550410
H228	H	0.441575	-0.554729	0.552923
O229	O	0.265589	-0.350018	0.594715
C230	C	0.271600	-0.260299	0.557690
C231	C	0.303020	-0.321649	0.566603
H232	H	0.301850	-0.237343	0.534951
H233	H	0.244878	-0.253902	0.598893
H234	H	0.244805	-0.244229	0.532595
H235	H	0.329845	-0.337760	0.591679
H236	H	0.329708	-0.328010	0.525381
H237	H	0.136793	-0.351798	0.712725
O238	O	0.188901	-0.243625	0.499994
C239	C	0.184457	-0.226091	0.414408
C240	C	0.169314	-0.257521	0.476228
H241	H	0.168618	-0.237305	0.395177
H242	H	0.230733	-0.237330	0.395089
H243	H	0.165198	-0.180334	0.407201
H244	H	0.188537	-0.303285	0.483485
H245	H	0.123034	-0.246236	0.495517
O246	O	-0.035193	-0.519231	0.224342
C247	C	-0.107590	-0.433572	0.206749
C248	C	-0.092430	-0.495387	0.238212
H249	H	-0.153867	-0.414273	0.217960
H250	H	-0.088304	-0.426329	0.160987
H251	H	-0.091817	-0.414344	0.218037
H252	H	-0.108200	-0.514656	0.226970
H253	H	-0.111709	-0.502591	0.283966
O254	O	0.056838	-0.703372	0.224522
C255	C	0.101026	-0.797985	0.230623
C256	C	0.064846	-0.757061	0.261995
H257	H	0.107501	-0.841402	0.260906
H258	H	0.142187	-0.791502	0.203952
H259	H	0.080140	-0.791343	0.203780
H260	H	0.085684	-0.763679	0.288867
H261	H	0.023686	-0.763555	0.288632
H262	H	0.016937	-0.731954	0.332612
H263	H	-0.067739	-0.562558	0.381123
H264	H	-0.033252	-0.528055	0.415829
H265	H	0.051198	-0.697438	0.500669
H266	H	0.058362	-0.738230	0.391661
O267	O	0.018840	-0.740781	0.468226
C268	C	0.014328	-0.826362	0.540661
C269	C	-0.000814	-0.764549	0.525461
H270	H	-0.001565	-0.845595	0.586935
H271	H	0.060607	-0.845712	0.525002
H272	H	-0.004880	-0.833534	0.521289
H273	H	0.018357	-0.757328	0.544828
H274	H	-0.047097	-0.745230	0.541111
O275	O	0.101617	-0.846342	0.424951
C276	C	0.191338	-0.840424	0.388153
C277	C	0.130008	-0.808949	0.396993
H278	H	0.214308	-0.810205	0.365559
H279	H	0.207488	-0.867178	0.362991
H280	H	0.197613	-0.867196	0.429407
H281	H	0.123686	-0.782147	0.355765
H282	H	0.113888	-0.782230	0.422181
H283	H	-0.109425	-0.738032	0.455342
O284	O	-0.080792	-0.846120	0.494179
C285	C	-0.148018	-0.863513	0.489045
C286	C	-0.107531	-0.832205	0.459187
H287	H	-0.169639	-0.852283	0.460762
H288	H	-0.179466	-0.852181	0.527109
H289	H	-0.124889	-0.909289	0.501359
H290	H	-0.130613	-0.786422	0.446836
H291	H	-0.076083	-0.843583	0.421146
O292	O	-0.224312	-0.564958	0.367069
C293	C	-0.218116	-0.520752	0.272430
C294	C	-0.186798	-0.556929	0.313405
H295	H	-0.187800	-0.514259	0.229034
H296	H	-0.244846	-0.479595	0.278935
H297	H	-0.244894	-0.541655	0.278992
H298	H	-0.159990	-0.536075	0.306868
H299	H	-0.160103	-0.598085	0.306890
H300	H	-0.116534	-0.689457	0.508068
H301	H	-0.116227	-0.604815	0.338615
H302	H	0.189295	-0.594927	0.405983
