data_functionalizedCrystal
_audit_creation_method	'MofGen! by Chris Wilmer'
_symmetry_space_group_name_H-M	'P1'
_symmetry_Int_Tables_number	1
_symmetry_cell_setting	triclinic
loop_
_symmetry_equiv_pos_as_xyz
  x,y,z
_cell_length_a	19.077105
_cell_length_b	16.120484
_cell_length_c	19.076919
_cell_angle_alpha	95.046610
_cell_angle_beta	90.076224
_cell_angle_gamma	90.738523
loop_
_atom_site_label
_atom_site_type_symbol
_atom_site_fract_x
_atom_site_fract_y
_atom_site_fract_z
Zn1	Zn	1.040337	-0.403262	-0.456942
Zn2	Zn	1.540337	0.096738	0.043058
Zn3	Zn	1.039017	-0.537287	-0.344927
Zn4	Zn	1.539017	-0.037287	0.155073
Zn5	Zn	0.928051	-0.392095	-0.334278
Zn6	Zn	1.428051	0.107905	0.165722
Zn7	Zn	0.916861	-0.536784	-0.457659
Zn8	Zn	1.416861	-0.036784	0.042341
O9	O	0.981066	-0.467357	-0.398451
O10	O	1.481066	0.032643	0.101549
O11	O	1.138276	-0.425924	-0.446240
O12	O	1.638276	0.074076	0.053760
O13	O	1.028428	-0.513564	-0.245000
O14	O	1.528428	-0.013564	0.255000
O15	O	0.948182	-0.276934	-0.345793
O16	O	1.448182	0.223066	0.154207
O17	O	1.137306	-0.524392	-0.363943
O18	O	1.637306	-0.024392	0.136057
O19	O	1.030678	-0.285138	-0.435913
O20	O	1.530678	0.214862	0.064087
O21	O	0.946902	-0.406892	-0.237176
O22	O	1.446902	0.093108	0.262824
O23	O	0.828452	-0.406405	-0.346488
O24	O	1.328452	0.093595	0.153512
O25	O	0.929109	-0.523535	-0.556078
O26	O	1.429109	-0.023535	-0.056078
O27	O	0.820230	-0.512707	-0.437136
O28	O	1.320230	-0.012707	0.062864
O29	O	1.019827	-0.425436	-0.555551
O30	O	1.519827	0.074564	-0.055551
O31	O	1.017576	-0.653863	-0.364638
O32	O	1.517576	-0.153863	0.135362
O33	O	0.927829	-0.653494	-0.447462
O34	O	1.427829	-0.153494	0.052538
C35	C	0.798901	-0.458290	-0.390734
C36	C	1.298901	0.041710	0.109266
C37	C	0.720969	-0.454433	-0.387451
C38	C	1.220969	0.045567	0.112549
C39	C	0.971363	-0.683924	-0.407299
C40	C	1.471363	-0.183924	0.092701
C41	C	0.967276	-0.776577	-0.411111
C42	C	1.467276	-0.276577	0.088889
C43	C	0.680093	-0.508043	-0.433036
C44	C	1.180093	-0.008043	0.066964
C45	C	0.606867	-0.504408	-0.429953
C46	C	1.106867	-0.004408	0.070047
C47	C	0.574519	-0.447165	-0.381281
C48	C	1.074519	0.052835	0.118719
C49	C	0.615400	-0.393548	-0.335694
C50	C	1.115400	0.106452	0.164306
C51	C	0.688624	-0.397180	-0.338781
C52	C	1.188624	0.102820	0.161219
C53	C	0.355979	-0.430354	-0.367000
C54	C	0.855979	0.069646	0.133000
C55	C	0.282749	-0.426728	-0.363916
C56	C	0.782749	0.073272	0.136084
C57	C	0.274222	-0.537586	-0.458176
C58	C	0.774222	-0.037586	0.041824
C59	C	0.347448	-0.541217	-0.461255
C60	C	0.847448	-0.041217	0.038745
C61	C	0.388323	-0.487598	-0.415670
C62	C	0.888323	0.012402	0.084330
N63	N	0.499670	-0.443449	-0.378128
N64	N	0.999670	0.056551	0.121872
N65	N	0.463169	-0.491310	-0.418828
N66	N	0.963169	0.008690	0.081172
C67	C	0.959816	-0.946215	-0.418084
C68	C	1.459816	-0.446215	0.081916
C69	C	1.002442	-0.987665	-0.378836
C70	C	1.502442	-0.487665	0.121164
C71	C	0.998291	-1.082058	-0.382716
C72	C	1.498291	-0.582058	0.117284
C73	C	0.963966	-0.851814	-0.414205
C74	C	1.463966	-0.351814	0.085795
C75	C	1.163943	-0.476459	-0.406199
C76	C	1.663943	0.023541	0.093801
C77	C	1.241874	-0.480338	-0.409501
C78	C	1.741874	0.019662	0.090499
C79	C	0.973367	-0.475675	-0.582072
C80	C	1.473367	0.024325	-0.082072
C81	C	0.970086	-0.479220	-0.660321
C82	C	1.470086	0.020780	-0.160321
C83	C	0.990826	-0.249946	-0.389585
C84	C	1.490826	0.250054	0.110415
C85	C	0.994984	-0.157298	-0.385807
C86	C	1.494984	0.342702	0.114193
C87	C	1.015774	-0.429813	-0.696809
C88	C	1.515774	0.070187	-0.196809
C89	C	1.012683	-0.433140	-0.770331
C90	C	1.512683	0.066860	-0.270331
C91	C	0.963906	-0.485879	-0.807364
C92	C	1.463906	0.014121	-0.307364
C93	C	0.918214	-0.535288	-0.770871
C94	C	1.418214	-0.035288	-0.270871
C95	C	0.921302	-0.531956	-0.697350
C96	C	1.421302	-0.031956	-0.197350
C97	C	0.949602	-0.501317	-1.027278
C98	C	1.449602	-0.001317	-0.527278
C99	C	0.946518	-0.504647	-1.100804
C100	C	1.446518	-0.004647	-0.600804
C101	C	1.040987	-0.402498	-1.100259
C102	C	1.540987	0.097502	-0.600259
C103	C	1.044074	-0.399174	-1.026737
C104	C	1.544074	0.100826	-0.526737
C105	C	0.998378	-0.448580	-0.990250
C106	C	1.498378	0.051420	-0.490250
N107	N	0.960747	-0.489283	-0.882516
N108	N	1.460747	0.010717	-0.382516
N109	N	1.001535	-0.445171	-0.915099
N110	N	1.501535	0.054829	-0.415099
C111	C	0.988779	-0.459013	-0.215544
C112	C	1.488779	0.040987	0.284456
C113	C	0.992206	-0.455240	-0.137292
C114	C	1.492206	0.044760	0.362708
H115	H	0.573589	-0.548064	-0.467073
H116	H	1.073589	-0.048064	0.032927
H117	H	0.373781	-0.587832	-0.500887
H118	H	0.873781	-0.087832	-0.000887
N119	N	0.900310	-0.554613	-0.987949
N120	N	1.400310	-0.054613	-0.487949
H121	H	0.928338	-0.593285	-0.960225
H122	H	1.428338	-0.093285	-0.460225
H123	H	0.870622	-0.517687	-0.954729
H124	H	1.370622	-0.017687	-0.454729
H125	H	0.706425	-0.554659	-0.472667
H126	H	1.206425	-0.054659	0.027333
H127	H	1.042052	-0.952260	-0.342319
H128	H	1.542052	-0.452260	0.157681
N129	N	0.865589	-0.592152	-0.810808
N130	N	1.365589	-0.092152	-0.310808
H131	H	0.870562	-0.586764	-0.862920
H132	H	1.370562	-0.086764	-0.362920
H133	H	0.874355	-0.651648	-0.800852
H134	H	1.374355	-0.151648	-0.300852
H135	H	0.920208	-0.981617	-0.454597
H136	H	1.420208	-0.481617	0.045403
H137	H	0.240934	-0.581239	-0.495289
H138	H	0.740934	-0.081239	0.004711
N139	N	0.247857	-0.364987	-0.311416
N140	N	0.747857	0.135013	0.188584
H141	H	0.284861	-0.331569	-0.283006
H142	H	0.784861	0.168431	0.216994
H143	H	0.217998	-0.326264	-0.337273
H144	H	0.717998	0.173736	0.162727
N145	N	1.068387	-0.372936	-0.656869
N146	N	1.568387	0.127064	-0.156869
H147	H	1.096860	-0.342141	-0.691143
H148	H	1.596860	0.157859	-0.191143
H149	H	1.042862	-0.331558	-0.623580
H150	H	1.542862	0.168442	-0.123580
H151	H	1.049888	-0.392910	-0.800037
H152	H	1.549888	0.107090	-0.300037
N153	N	1.096684	-0.342294	-0.986796
N154	N	1.596684	0.157706	-0.486796
H155	H	1.125159	-0.311499	-1.021068
H156	H	1.625159	0.188501	-0.521068
H157	H	1.071159	-0.300917	-0.953506
H158	H	1.571159	0.199083	-0.453506
N159	N	0.872019	-0.585236	-0.657990
N160	N	1.372019	-0.085236	-0.157990
H161	H	0.840649	-0.619151	-0.692605
H162	H	1.340649	-0.119151	-0.192605
H163	H	0.900102	-0.623850	-0.630265
H164	H	1.400102	-0.123850	-0.130265
H165	H	0.389251	-0.386700	-0.329877
H166	H	0.889251	0.113300	0.170123
H167	H	0.589056	-0.346936	-0.296068
H168	H	1.089056	0.153064	0.203932
H169	H	0.721905	-0.353521	-0.301664
H170	H	1.221905	0.146479	0.198336
N171	N	1.090268	-0.349211	-1.139612
N172	N	1.590268	0.150789	-0.639612
H173	H	1.080913	-0.359322	-1.191807
H174	H	1.580913	0.140678	-0.691807
H175	H	1.082566	-0.288556	-1.123870
H176	H	1.582566	0.211444	-0.623870
H177	H	0.906796	-0.547595	-1.130954
H178	H	1.406796	-0.047595	-0.630954
