data_functionalizedCrystal
_audit_creation_method	'MofGen! by Chris Wilmer'
_symmetry_space_group_name_H-M	'P1'
_symmetry_Int_Tables_number	1
_symmetry_cell_setting	triclinic
loop_
_symmetry_equiv_pos_as_xyz
  x,y,z
_cell_length_a	18.215407
_cell_length_b	16.625546
_cell_length_c	18.215398
_cell_angle_alpha	90.026650
_cell_angle_beta	90.019464
_cell_angle_gamma	90.022916
loop_
_atom_site_label
_atom_site_type_symbol
_atom_site_fract_x
_atom_site_fract_y
_atom_site_fract_z
Zn1	Zn	1.125082	-0.321020	0.416110
Zn2	Zn	1.458415	0.012313	0.749443
Zn3	Zn	1.791748	0.345646	1.082776
Zn4	Zn	1.124996	-0.455855	0.293041
Zn5	Zn	1.458329	-0.122521	0.626374
Zn6	Zn	1.791663	0.210812	0.959707
Zn7	Zn	1.002015	-0.321041	0.293057
Zn8	Zn	1.335348	0.012293	0.626390
Zn9	Zn	1.668682	0.345626	0.959724
Zn10	Zn	1.001985	-0.455816	0.416066
Zn11	Zn	1.335319	-0.122482	0.749399
Zn12	Zn	1.668652	0.210851	1.082732
O13	O	1.063519	-0.388433	0.354568
O14	O	1.396853	-0.055100	0.687902
O15	O	1.730186	0.278234	1.021235
O16	O	1.228055	-0.338914	0.399796
O17	O	1.561388	-0.005581	0.733129
O18	O	1.894721	0.327753	1.066463
O19	O	1.108659	-0.437996	0.190059
O20	O	1.441992	-0.104663	0.523392
O21	O	1.775326	0.228671	0.856725
O22	O	1.018388	-0.208206	0.309405
O23	O	1.351722	0.125128	0.642739
O24	O	1.685055	0.458461	0.976072
O25	O	1.227992	-0.437976	0.309378
O26	O	1.561325	-0.104643	0.642711
O27	O	1.894658	0.228690	0.976044
O28	O	1.108805	-0.208191	0.399812
O29	O	1.442138	0.125143	0.733145
O30	O	1.775472	0.458476	1.066478
O31	O	1.018305	-0.338949	0.190070
O32	O	1.351639	-0.005616	0.523404
O33	O	1.684972	0.327718	0.856737
O34	O	0.899027	-0.338911	0.309363
O35	O	1.232360	-0.005578	0.642696
O36	O	1.565693	0.327755	0.976029
O37	O	1.018338	-0.437910	0.519056
O38	O	1.351671	-0.104577	0.852389
O39	O	1.685004	0.228757	1.185722
O40	O	0.899005	-0.437930	0.399737
O41	O	1.232338	-0.104596	0.733070
O42	O	1.565672	0.228737	1.066403
O43	O	1.108776	-0.338876	0.519088
O44	O	1.442109	-0.005543	0.852421
O45	O	1.775443	0.327790	1.185755
O46	O	1.108630	-0.568682	0.309335
O47	O	1.441963	-0.235349	0.642668
O48	O	1.775297	0.097985	0.976002
O49	O	1.018255	-0.568653	0.399721
O50	O	1.351588	-0.235320	0.733054
O51	O	1.684921	0.098013	1.066387
C52	C	0.872313	-0.388419	0.354547
C53	C	1.205647	-0.055086	0.687880
C54	C	1.538980	0.278248	1.021214
C55	C	0.790514	-0.388433	0.354556
C56	C	1.123848	-0.055099	0.687889
C57	C	1.457181	0.278234	1.021222
C58	C	0.602328	-0.440073	0.401554
C59	C	0.935662	-0.106739	0.734887
C60	C	1.268995	0.226594	1.068221
C61	C	0.525470	-0.440075	0.401563
C62	C	0.858803	-0.106742	0.734897
C63	C	1.192136	0.226592	1.068230
C64	C	0.525463	-0.336808	0.307598
C65	C	0.858796	-0.003474	0.640932
C66	C	1.192129	0.329859	0.974265
C67	C	0.602320	-0.336802	0.307593
C68	C	0.935653	-0.003468	0.640927
C69	C	1.268987	0.329865	0.974260
C70	C	0.640751	-0.388439	0.354570
C71	C	0.974084	-0.055105	0.687904
C72	C	1.307417	0.278228	1.021237
C73	C	0.487035	-0.388447	0.354584
C74	C	0.820368	-0.055114	0.687918
C75	C	1.153701	0.278219	1.021251
C76	C	0.403701	-0.388450	0.354594
C77	C	0.737034	-0.055116	0.687927
C78	C	1.070368	0.278217	1.021261
C79	C	0.724090	-0.388436	0.354562
C80	C	1.057423	-0.055102	0.687895
C81	C	1.390756	0.278231	1.021228
C82	C	1.063450	-0.597924	0.354537
C83	C	1.396783	-0.264590	0.687871
C84	C	1.730116	0.068743	1.021204
C85	C	1.063487	-0.687545	0.354549
C86	C	1.396821	-0.354212	0.687882
C87	C	1.730154	-0.020878	1.021215
C88	C	1.063616	-1.015720	0.354625
C89	C	1.396949	-0.682387	0.687959
C90	C	1.730282	-0.349054	1.021292
C91	C	1.063578	-0.924412	0.354606
C92	C	1.396911	-0.591079	0.687940
C93	C	1.730244	-0.257745	1.021273
C94	C	1.063551	-0.851636	0.354587
C95	C	1.396884	-0.518302	0.687920
C96	C	1.730218	-0.184969	1.021253
C97	C	1.063514	-0.760321	0.354568
C98	C	1.396847	-0.426988	0.687902
C99	C	1.730181	-0.093655	1.021235
C100	C	1.255472	-0.388447	0.354590
C101	C	1.588806	-0.055114	0.687923
C102	C	1.922139	0.278219	1.021256
C103	C	1.337271	-0.388453	0.354599
C104	C	1.670605	-0.055120	0.687932
C105	C	2.003938	0.278213	1.021266
C106	C	1.063563	-0.388387	0.546521
C107	C	1.396896	-0.055053	0.879855
C108	C	1.730230	0.278280	1.213188
C109	C	1.063582	-0.388367	0.628320
C110	C	1.396915	-0.055033	0.961653
C111	C	1.730248	0.278300	1.294987
C112	C	1.063609	-0.178124	0.354615
C113	C	1.396943	0.155209	0.687949
C114	C	1.730276	0.488543	1.021282
C115	C	1.063648	-0.088503	0.354635
C116	C	1.396981	0.244831	0.687969
C117	C	1.730314	0.578164	1.021302
C118	C	1.063518	-0.388421	0.163362
C119	C	1.396852	-0.055088	0.496695
C120	C	1.730185	0.278246	0.830029
C121	C	1.063642	-0.388213	0.081563
C122	C	1.396976	-0.054880	0.414897
C123	C	1.730309	0.278453	0.748230
C124	C	1.110662	-0.439841	0.893376
C125	C	1.443996	-0.106508	1.226709
C126	C	1.777329	0.226826	1.560043
C127	C	1.110651	-0.439869	0.816517
C128	C	1.443984	-0.106536	1.149851
C129	C	1.777318	0.226798	1.483184
C130	C	1.016556	-0.336737	0.816513
C131	C	1.349890	-0.003404	1.149846
C132	C	1.683223	0.329930	1.483180
C133	C	1.016565	-0.336714	0.893370
C134	C	1.349898	-0.003380	1.226704
C135	C	1.683231	0.329953	1.560037
C136	C	1.063622	-0.388264	0.931800
C137	C	1.396955	-0.054931	1.265133
C138	C	1.730288	0.278402	1.598467
C139	C	1.063602	-0.388316	0.778084
C140	C	1.396936	-0.054982	1.111417
C141	C	1.730269	0.278351	1.444750
C142	C	1.063590	-0.388346	0.694750
C143	C	1.396923	-0.055012	1.028083
C144	C	1.730257	0.278321	1.361417
C145	C	1.063633	-0.388236	1.015139
C146	C	1.396967	-0.054902	1.348472
C147	C	1.730300	0.278431	1.681806
H148	H	0.494189	-0.482119	0.439823
H149	H	0.827523	-0.148786	0.773157
H150	H	1.160856	0.184547	1.106490
H151	H	0.978245	-0.294765	0.785214
H152	H	1.311579	0.038568	1.118548
H153	H	1.644912	0.371902	1.451881
H154	H	0.494163	-0.294768	0.269350
H155	H	0.827496	0.038565	0.602684
H156	H	1.160830	0.371899	0.936017
F157	F	0.643215	-0.281839	0.257588
F158	F	0.976548	0.051495	0.590921
F159	F	1.309881	0.384828	0.924255
F160	F	0.966486	-0.281825	0.934266
F161	F	1.299819	0.051508	1.267600
F162	F	1.633152	0.384841	1.600933
H163	H	1.148979	-0.481818	0.924663
H164	H	1.482312	-0.148485	1.257996
H165	H	1.815645	0.184849	1.591330
F166	F	1.160717	-0.494765	0.775627
F167	F	1.494051	-0.161432	1.108960
F168	F	1.827384	0.171901	1.442294
H169	H	0.633616	-0.482117	0.439808
H170	H	0.966950	-0.148783	0.773141
H171	H	1.300283	0.184550	1.106474
