data_functionalizedCrystal
_audit_creation_method	'MofGen! by Chris Wilmer'
_symmetry_space_group_name_H-M	'P1'
_symmetry_Int_Tables_number	1
_symmetry_cell_setting	triclinic
loop_
_symmetry_equiv_pos_as_xyz
  x,y,z
_cell_length_a	6.817900
_cell_length_b	10.773890
_cell_length_c	14.858572
_cell_angle_alpha	96.150028
_cell_angle_beta	104.524003
_cell_angle_gamma	96.645716
loop_
_atom_site_label
_atom_site_type_symbol
_atom_site_fract_x
_atom_site_fract_y
_atom_site_fract_z
V1	V	-4.003650	-0.173375	-0.288438
O2	O	-4.027117	0.007524	-0.284507
O3	O	-3.921170	-0.342997	-0.284966
O4	O	-3.960753	-0.171063	-0.414920
O5	O	-3.987260	-0.165601	-0.153653
V6	V	-4.490981	-0.151696	-0.272499
O7	O	-4.256556	-0.220931	-0.323403
O8	O	-4.688273	-0.104140	-0.237535
O9	O	-4.350255	0.017926	-0.275971
O10	O	-4.584911	-0.332595	-0.276431
O11	O	-4.624768	-0.159470	-0.407284
O12	O	-4.310672	-0.154008	-0.146017
C13	C	-3.757702	-0.384337	-0.280029
C14	C	-3.771588	-0.523007	-0.278034
C15	C	-3.808193	-0.165016	-0.445797
C16	C	-3.854177	-0.164247	-0.549187
C17	C	-3.949814	-0.590879	-0.281501
C18	C	-3.964170	-0.734203	-0.279439
C19	C	-4.022481	-0.161439	-0.927780
C20	C	-3.975645	-0.162221	-0.822444
C21	C	-3.938330	-0.162845	-0.738487
C22	C	-3.891492	-0.163624	-0.633144
C23	C	-4.177064	0.059259	-0.280906
C24	C	-4.142416	0.197928	-0.282907
C25	C	-4.126573	-0.160060	-0.115135
C26	C	-4.059828	-0.160822	-0.011745
H27	H	-3.822202	-0.782197	-0.274948
C28	C	-4.331888	-0.738201	-0.289097
C29	C	-4.482100	-0.790659	-0.371653
C30	C	-4.656654	-0.731841	-0.377394
H31	H	-4.383101	-0.750533	-0.236364
H32	H	-4.297189	-0.650378	-0.289741
H33	H	-4.516800	-0.878461	-0.371002
H34	H	-4.430954	-0.778328	-0.424401
H35	H	-4.621954	-0.644018	-0.378037
H36	H	-4.707847	-0.744177	-0.324656
H37	H	-4.758586	-0.767417	-0.433411
C38	C	-3.582055	-0.586798	-0.271890
C39	C	-3.431808	-0.534299	-0.189356
C40	C	-3.257167	-0.593015	-0.183670
H41	H	-3.616559	-0.674622	-0.271245
H42	H	-3.530979	-0.574394	-0.324662
H43	H	-3.482876	-0.546714	-0.136597
H44	H	-3.397244	-0.446481	-0.189982
H45	H	-3.206091	-0.580611	-0.236442
H46	H	-3.291692	-0.680837	-0.183028
H47	H	-3.155197	-0.557396	-0.127676
H48	H	-4.091774	-0.542882	-0.286002
