data_functionalizedCrystal
_audit_creation_method	'MofGen! by Chris Wilmer'
_symmetry_space_group_name_H-M	'P1'
_symmetry_Int_Tables_number	1
_symmetry_cell_setting	triclinic
loop_
_symmetry_equiv_pos_as_xyz
  x,y,z
_cell_length_a	21.395362
_cell_length_b	21.295417
_cell_length_c	21.395356
_cell_angle_alpha	89.969378
_cell_angle_beta	89.957023
_cell_angle_gamma	90.046383
loop_
_atom_site_label
_atom_site_type_symbol
_atom_site_fract_x
_atom_site_fract_y
_atom_site_fract_z
Zn1	Zn	0.957854	-0.250358	-0.354573
Zn2	Zn	1.291188	0.082975	-0.021240
Zn3	Zn	1.624521	0.416308	0.312094
Zn4	Zn	0.957759	-0.355627	-0.249790
Zn5	Zn	1.291092	-0.022293	0.083543
Zn6	Zn	1.624426	0.311040	0.416877
Zn7	Zn	0.853071	-0.250404	-0.249774
Zn8	Zn	1.186404	0.082929	0.083559
Zn9	Zn	1.519738	0.416262	0.416893
Zn10	Zn	0.853039	-0.355623	-0.354495
Zn11	Zn	1.186372	-0.022289	-0.021161
Zn12	Zn	1.519706	0.311044	0.312172
O13	O	0.905431	-0.303003	-0.302158
O14	O	1.238764	0.030330	0.031175
O15	O	1.572098	0.363664	0.364509
O16	O	1.045520	-0.264305	-0.340713
O17	O	1.378853	0.069029	-0.007379
O18	O	1.712186	0.402362	0.325954
O19	O	0.943846	-0.341690	-0.162110
O20	O	1.277179	-0.008356	0.171223
O21	O	1.610512	0.324977	0.504557
O22	O	0.867024	-0.162309	-0.263702
O23	O	1.200358	0.171024	0.069631
O24	O	1.533691	0.504358	0.402965
O25	O	1.045450	-0.341645	-0.263729
O26	O	1.378783	-0.008312	0.069604
O27	O	1.712116	0.325022	0.402938
O28	O	0.944008	-0.162275	-0.340697
O29	O	1.277341	0.171058	-0.007364
O30	O	1.610675	0.504392	0.325970
O31	O	0.866932	-0.264383	-0.162098
O32	O	1.200265	0.068950	0.171235
O33	O	1.533598	0.402283	0.504568
O34	O	0.765389	-0.264380	-0.263626
O35	O	1.098722	0.068954	0.069707
O36	O	1.432056	0.402287	0.403041
O37	O	0.866969	-0.341638	-0.442183
O38	O	1.200303	-0.008305	-0.108850
O39	O	1.533636	0.325028	0.224484
O40	O	0.765365	-0.341683	-0.340564
O41	O	1.098699	-0.008350	-0.007231
O42	O	1.432032	0.324984	0.326103
O43	O	0.943977	-0.264301	-0.442240
O44	O	1.277310	0.069032	-0.108907
O45	O	1.610644	0.402366	0.224426
O46	O	0.943814	-0.443716	-0.263653
O47	O	1.277148	-0.110382	0.069680
O48	O	1.610481	0.222951	0.403013
O49	O	0.866877	-0.443713	-0.340579
O50	O	1.200210	-0.110379	-0.007246
O51	O	1.533544	0.222954	0.326087
C52	C	0.742643	-0.303036	-0.302085
C53	C	1.075977	0.030297	0.031248
C54	C	1.409310	0.363630	0.364581
C55	C	0.673002	-0.303066	-0.302069
C56	C	1.006335	0.030268	0.031264
C57	C	1.339669	0.363601	0.364598
C58	C	0.640293	-0.343371	-0.342070
C59	C	0.973626	-0.010038	-0.008737
C60	C	1.306960	0.323296	0.324596
C61	C	0.574858	-0.343356	-0.342098
C62	C	0.908191	-0.010022	-0.008765
C63	C	1.241524	0.323311	0.324568
C64	C	0.542134	-0.303042	-0.302114
C65	C	0.875467	0.030292	0.031220
C66	C	1.208800	0.363625	0.364553
C67	C	0.574851	-0.262728	-0.262109
C68	C	0.908184	0.070605	0.071224
C69	C	1.241517	0.403938	0.404557
C70	C	0.640285	-0.262741	-0.262087
C71	C	0.973618	0.070593	0.071246
C72	C	1.306951	0.403926	0.404580
C73	C	0.438410	-0.297979	-0.245709
C74	C	0.771743	0.035354	0.087625
C75	C	1.105077	0.368687	0.420958
C76	C	0.372977	-0.297972	-0.245730
C77	C	0.706310	0.035362	0.087603
C78	C	1.039644	0.368695	0.420937
C79	C	0.340313	-0.303000	-0.302183
C80	C	0.673646	0.030333	0.031151
C81	C	1.006980	0.363666	0.364484
C82	C	0.373090	-0.308050	-0.358616
C83	C	0.706423	0.025283	-0.025283
C84	C	1.039757	0.358617	0.308051
C85	C	0.438524	-0.308062	-0.358594
C86	C	0.771858	0.025271	-0.025261
C87	C	1.105191	0.358604	0.308073
C88	C	0.471181	-0.303024	-0.302134
C89	C	0.804515	0.030310	0.031200
C90	C	1.137848	0.363643	0.364533
C91	C	0.236651	-0.343291	-0.342218
C92	C	0.569985	-0.009958	-0.008885
C93	C	0.903318	0.323376	0.324449
C94	C	0.171215	-0.343271	-0.342247
C95	C	0.504548	-0.009938	-0.008914
C96	C	0.837882	0.323395	0.324420
C97	C	0.171209	-0.262647	-0.262252
C98	C	0.504543	0.070686	0.071081
C99	C	0.837876	0.404019	0.404414
C100	C	0.236645	-0.262664	-0.262229
C101	C	0.569978	0.070669	0.071104
C102	C	0.903311	0.404003	0.404438
C103	C	0.269362	-0.302989	-0.302211
C104	C	0.602695	0.030344	0.031122
C105	C	0.936028	0.363678	0.364456
C106	C	0.905349	-0.466555	-0.302123
C107	C	1.238682	-0.133221	0.031210
C108	C	1.572015	0.200112	0.364543
C109	C	0.905371	-0.536523	-0.302129
C110	C	1.238704	-0.203189	0.031204
C111	C	1.572038	0.130144	0.364537
C112	C	0.945468	-0.569370	-0.262115
C113	C	1.278801	-0.236037	0.071218
C114	C	1.612135	0.097297	0.404552
C115	C	0.945497	-0.635113	-0.262129
C116	C	1.278831	-0.301779	0.071204
C117	C	1.612164	0.031554	0.404538
C118	C	0.905418	-0.668005	-0.302151
C119	C	1.238752	-0.334672	0.031182
C120	C	1.572085	-0.001339	0.364516
C121	C	0.865319	-0.635150	-0.342173
C122	C	1.198652	-0.301817	-0.008840
C123	C	1.531985	0.031517	0.324494
C124	C	0.865295	-0.569409	-0.342162
C125	C	1.198628	-0.236076	-0.008829
C126	C	1.531962	0.097258	0.324504
N127	N	0.850609	-0.771286	-0.306903
N128	N	1.183942	-0.437953	0.026430
N129	N	1.517275	-0.104620	0.359764
N130	N	0.850633	-0.833738	-0.306910
N131	N	1.183966	-0.500405	0.026424
N132	N	1.517300	-0.167071	0.359757
C133	C	0.905489	-0.866080	-0.302187
C134	C	1.238822	-0.532747	0.031146
C135	C	1.572155	-0.199413	0.364480
N136	N	0.960320	-0.833611	-0.297445
N137	N	1.293654	-0.500278	0.035888
N138	N	1.626987	-0.166945	0.369222
N139	N	0.960295	-0.771154	-0.297435
N140	N	1.293629	-0.437821	0.035898
N141	N	1.626962	-0.104488	0.369231
C142	C	0.905440	-0.739291	-0.302167
C143	C	1.238773	-0.405957	0.031166
C144	C	1.572107	-0.072624	0.364499
C145	C	0.945621	-0.970213	-0.262186
C146	C	1.278954	-0.636879	0.071148
C147	C	1.612287	-0.303546	0.404481
C148	C	0.945651	-1.035956	-0.262204
C149	C	1.278985	-0.702623	0.071129
C150	C	1.612318	-0.369290	0.404463
C151	C	0.865467	-1.035993	-0.342245
C152	C	1.198801	-0.702659	-0.008912
C153	C	1.532134	-0.369326	0.324422
C154	C	0.865442	-0.970250	-0.342230
C155	C	1.198776	-0.636917	-0.008896
C156	C	1.532109	-0.303584	0.324437
C157	C	0.905518	-0.937364	-0.302197
C158	C	1.238852	-0.604031	0.031137
C159	C	1.572185	-0.270698	0.364470
C160	C	1.068854	-0.302970	-0.302231
C161	C	1.402188	0.030363	0.031102
C162	C	1.735521	0.363697	0.364435
C163	C	1.138496	-0.302956	-0.302262
C164	C	1.471829	0.030377	0.031071
C165	C	1.805162	0.363711	0.364404
C166	C	0.905480	-0.302964	-0.465581
C167	C	1.238814	0.030369	-0.132248
C168	C	1.572147	0.363703	0.201085
C169	C	0.905501	-0.302947	-0.535223
C170	C	1.238835	0.030386	-0.201889
C171	C	1.572168	0.363719	0.131444
C172	C	0.905530	-0.138813	-0.302206
C173	C	1.238864	0.194521	0.031127
C174	C	1.572197	0.527854	0.364460
C175	C	0.905573	-0.068845	-0.302227
C176	C	1.238906	0.264489	0.031106
C177	C	1.572240	0.597822	0.364439
C178	C	0.865463	-0.262689	-0.567920
C179	C	1.198796	0.070644	-0.234586
C180	C	1.532130	0.403977	0.098747
C181	C	0.865461	-0.262678	-0.633355
C182	C	1.198794	0.070656	-0.300022
C183	C	1.532127	0.403989	0.033311
C184	C	0.905508	-0.302917	-0.666091
C185	C	1.238841	0.030416	-0.332758
C186	C	1.572175	0.363749	0.000576
C187	C	0.945549	-0.343183	-0.633386
C188	C	1.278883	-0.009850	-0.300053
C189	C	1.612216	0.323483	0.033281
C190	C	0.945546	-0.343198	-0.567952
C191	C	1.278879	-0.009865	-0.234618
C192	C	1.612212	0.323468	0.098715
C193	C	0.961960	-0.307851	-0.769796
C194	C	1.295293	0.025483	-0.436463
C195	C	1.628627	0.358816	-0.103129
C196	C	0.961965	-0.307831	-0.835229
C197	C	1.295298	0.025502	-0.501896
C198	C	1.628631	0.358835	-0.168562
C199	C	0.905518	-0.302875	-0.867912
C200	C	1.238852	0.030458	-0.534578
C201	C	1.572185	0.363792	-0.201245
C202	C	0.849066	-0.297925	-0.835153
C203	C	1.182399	0.035409	-0.501820
C204	C	1.515733	0.368742	-0.168487
C205	C	0.849063	-0.297940	-0.769719
C206	C	1.182396	0.035394	-0.436386
C207	C	1.515729	0.368727	-0.103053
C208	C	0.905516	-0.302906	-0.737043
C209	C	1.238849	0.030427	-0.403710
C210	C	1.572183	0.363761	-0.070377
C211	C	0.865474	-0.262602	-0.971562
C212	C	1.198808	0.070731	-0.638228
C213	C	1.532141	0.404064	-0.304895
C214	C	0.865471	-0.262595	-1.036998
C215	C	1.198805	0.070738	-0.703665
C216	C	1.532138	0.404072	-0.370332
C217	C	0.945565	-0.343097	-1.037028
C218	C	1.278899	-0.009764	-0.703694
C219	C	1.612232	0.323570	-0.370361
C220	C	0.945563	-0.343108	-0.971592
C221	C	1.278896	-0.009774	-0.638259
C222	C	1.612230	0.323559	-0.304926
C223	C	0.905518	-0.302857	-0.938863
C224	C	1.238852	0.030476	-0.605530
C225	C	1.572185	0.363810	-0.272196
C226	C	0.905418	-0.302997	-0.139370
C227	C	1.238751	0.030337	0.193963
C228	C	1.572085	0.363670	0.527296
C229	C	0.905518	-0.302836	-0.069729
C230	C	1.238852	0.030498	0.263604
C231	C	1.572185	0.363831	0.596937
H232	H	0.464999	-0.293882	-0.199735
H233	H	0.798333	0.039452	0.133599
H234	H	1.131666	0.372785	0.466932
C235	C	0.821183	-0.533275	-0.386176
C236	C	1.154516	-0.199942	-0.052843
C237	C	1.487850	0.133391	0.280490
H238	H	0.797315	-0.562278	-0.410013
H239	H	1.130648	-0.228945	-0.076680
H240	H	1.463981	0.104388	0.256653
H241	H	0.845126	-0.507579	-0.413500
H242	H	1.178459	-0.174246	-0.080167
H243	H	1.511793	0.159088	0.253167
H244	H	0.793883	-0.507682	-0.362164
H245	H	1.127216	-0.174349	-0.028831
H246	H	1.460550	0.158984	0.304502
H247	H	0.548203	-0.229903	-0.229555
H248	H	0.881536	0.103430	0.103779
H249	H	1.214869	0.436763	0.437112
H250	H	0.346497	-0.312144	-0.404586
H251	H	0.679830	0.021189	-0.071252
H252	H	1.013163	0.354523	0.262081
C253	C	0.821232	-0.671329	-0.386195
C254	C	1.154566	-0.337996	-0.052861
C255	C	1.487899	-0.004663	0.280472
H256	H	0.826984	-0.715187	-0.380466
H257	H	1.160318	-0.381854	-0.047133
H258	H	1.493651	-0.048521	0.286201
H259	H	0.830376	-0.660517	-0.428302
H260	H	1.163709	-0.327183	-0.094969
H261	H	1.497042	0.006150	0.238364
H262	H	0.779133	-0.660610	-0.376966
H263	H	1.112467	-0.327276	-0.043633
H264	H	1.445800	0.006057	0.289700
H265	H	0.666927	-0.376206	-0.374628
H266	H	1.000261	-0.042873	-0.041295
H267	H	1.333594	0.290461	0.292039
H268	H	0.978174	-0.375860	-1.063680
H269	H	1.311507	-0.042526	-0.730347
H270	H	1.644841	0.290807	-0.397014
C271	C	0.821382	-1.072164	-0.386271
C272	C	1.154715	-0.738831	-0.052938
C273	C	1.488049	-0.405497	0.280395
H274	H	0.797499	-1.043182	-0.410103
H275	H	1.130832	-0.709849	-0.076770
H276	H	1.464166	-0.376516	0.256563
H277	H	0.794104	-1.097861	-0.362276
H278	H	1.127437	-0.764528	-0.028943
H279	H	1.460771	-0.431194	0.304390
H280	H	0.845351	-1.097759	-0.413608
H281	H	1.178684	-0.764426	-0.080275
H282	H	1.512017	-0.431092	0.253058
H283	H	0.832853	-0.229916	-0.541276
H284	H	1.166186	0.103417	-0.207942
H285	H	1.499520	0.436750	0.125391
H286	H	0.832789	-0.943504	-0.374811
H287	H	1.166122	-0.610171	-0.041477
H288	H	1.499456	-0.276838	0.291856
C289	C	0.989601	-0.671252	-0.218107
C290	C	1.322934	-0.337919	0.115227
C291	C	1.656267	-0.004586	0.448560
H292	H	1.013461	-0.642251	-0.194261
H293	H	1.346794	-0.308917	0.139073
H294	H	1.680128	0.024416	0.472406
H295	H	1.016899	-0.696852	-0.242107
H296	H	1.350232	-0.363519	0.091226
H297	H	1.683565	-0.030186	0.424559
H298	H	0.965645	-0.696941	-0.190783
H299	H	1.298978	-0.363608	0.142551
H300	H	1.632311	-0.030275	0.475884
H301	H	0.263291	-0.376123	-0.374777
H302	H	0.596625	-0.042790	-0.041444
H303	H	0.929958	0.290544	0.291890
C304	C	0.821414	-0.218344	-0.935557
C305	C	1.154747	0.114989	-0.602224
C306	C	1.488081	0.448323	-0.268890
H307	H	0.797558	-0.194375	-0.964405
H308	H	1.130891	0.138959	-0.631071
H309	H	1.464225	0.472292	-0.297738
H310	H	0.845388	-0.190913	-0.910053
H311	H	1.178721	0.142421	-0.576720
H312	H	1.512054	0.475754	-0.243386
H313	H	0.794101	-0.242448	-0.910008
H314	H	1.127434	0.090886	-0.576675
H315	H	1.460767	0.424219	-0.243342
H316	H	0.978255	-0.943436	-0.229590
H317	H	1.311589	-0.610102	0.103743
H318	H	1.644922	-0.276769	0.437076
H319	H	0.666916	-0.229917	-0.229513
H320	H	1.000249	0.103416	0.103821
H321	H	1.333583	0.436749	0.437154
C322	C	0.786972	-0.292502	-0.733684
C323	C	1.120305	0.040831	-0.400351
C324	C	1.453639	0.374165	-0.067018
H325	H	0.795057	-0.293217	-0.690034
H326	H	1.128391	0.040116	-0.356701
H327	H	1.461724	0.373449	-0.023368
H328	H	0.760596	-0.326748	-0.744378
H329	H	1.093930	0.006585	-0.411045
H330	H	1.427263	0.339918	-0.077711
H331	H	0.766961	-0.254177	-0.744403
H332	H	1.100294	0.079156	-0.411069
H333	H	1.433627	0.412489	-0.077736
H334	H	0.978307	-1.062699	-0.229621
H335	H	1.311640	-0.729366	0.103712
H336	H	1.644974	-0.396033	0.437046
H337	H	0.832858	-0.229892	-0.659982
H338	H	1.166191	0.103441	-0.326649
H339	H	1.499525	0.436775	0.006684
C340	C	0.786970	-0.292491	-0.871095
C341	C	1.120304	0.040843	-0.537762
C342	C	1.453637	0.374176	-0.204429
H343	H	0.795054	-0.293203	-0.914757
H344	H	1.128387	0.040130	-0.581424
H345	H	1.461720	0.373464	-0.248090
H346	H	0.766947	-0.254179	-0.860378
H347	H	1.100280	0.079154	-0.527044
H348	H	1.433613	0.412488	-0.193711
H349	H	0.760605	-0.326752	-0.860333
H350	H	1.093939	0.006581	-0.527000
H351	H	1.427272	0.339915	-0.193666
C352	C	0.474580	-0.313614	-0.420663
C353	C	0.807913	0.019719	-0.087330
C354	C	1.141246	0.353053	0.246004
H355	H	0.518227	-0.312906	-0.412561
H356	H	0.851560	0.020428	-0.079228
H357	H	1.184893	0.353761	0.254106
H358	H	0.463922	-0.279405	-0.447088
H359	H	0.797255	0.053928	-0.113755
H360	H	1.130588	0.387262	0.219579
H361	H	0.463841	-0.351966	-0.440628
H362	H	0.797174	-0.018632	-0.107295
H363	H	1.130508	0.314701	0.226038
C364	C	0.989593	-0.387480	-0.531983
C365	C	1.322927	-0.054147	-0.198650
C366	C	1.656260	0.279187	0.134683
H367	H	1.013447	-0.411443	-0.560849
H368	H	1.346780	-0.078110	-0.227515
H369	H	1.680114	0.255224	0.105818
H370	H	0.965609	-0.414916	-0.506429
H371	H	1.298943	-0.081583	-0.173096
H372	H	1.632276	0.251750	0.160238
H373	H	1.016910	-0.363394	-0.506488
H374	H	1.350243	-0.030061	-0.173154
H375	H	1.683576	0.303272	0.160179
C376	C	0.821427	-0.218308	-1.072965
C377	C	1.154761	0.115025	-0.739632
C378	C	1.488094	0.448358	-0.406299
H379	H	0.797584	-0.194336	-1.044099
H380	H	1.130918	0.138997	-0.710766
H381	H	1.464251	0.472330	-0.377432
H382	H	0.794111	-0.242384	-1.098464
H383	H	1.127444	0.090949	-0.765131
H384	H	1.460778	0.424282	-0.431797
H385	H	0.845420	-0.190871	-1.098517
H386	H	1.178753	0.142462	-0.765183
H387	H	1.512087	0.475795	-0.431850
H388	H	0.144584	-0.376091	-0.374825
H389	H	0.477918	-0.042758	-0.041491
H390	H	0.811251	0.290575	0.291842
H391	H	0.978168	-0.375889	-0.944970
H392	H	1.311501	-0.042555	-0.611637
H393	H	1.644835	0.290778	-0.278303
C394	C	1.024059	-0.313275	-0.871257
C395	C	1.357392	0.020059	-0.537924
C396	C	1.690725	0.353392	-0.204591
H397	H	1.057674	-0.316240	-0.842423
H398	H	1.391008	0.017093	-0.509089
H399	H	1.724341	0.350427	-0.175756
H400	H	1.029593	-0.277192	-0.896797
H401	H	1.362926	0.056142	-0.563464
H402	H	1.696260	0.389475	-0.230130
H403	H	1.023220	-0.349762	-0.896772
H404	H	1.356553	-0.016428	-0.563439
H405	H	1.689887	0.316905	-0.230105
C406	C	1.024055	-0.313299	-0.733851
C407	C	1.357389	0.020034	-0.400518
C408	C	1.690722	0.353368	-0.067185
H409	H	1.057676	-0.316235	-0.762731
H410	H	1.391009	0.017099	-0.429397
H411	H	1.724343	0.350432	-0.096064
H412	H	1.023223	-0.349793	-0.708311
H413	H	1.356556	-0.016459	-0.374978
H414	H	1.689889	0.316874	-0.041645
H415	H	1.029579	-0.277221	-0.708343
H416	H	1.362912	0.056112	-0.375010
H417	H	1.696246	0.389446	-0.041676
H418	H	0.978156	-0.375947	-0.660043
H419	H	1.311489	-0.042613	-0.326710
H420	H	1.644823	0.290720	0.006623
C421	C	0.989556	-0.533199	-0.218088
C422	C	1.322890	-0.199865	0.115246
C423	C	1.656223	0.133468	0.448579
H424	H	1.013445	-0.562181	-0.194263
H425	H	1.346779	-0.228848	0.139071
H426	H	1.680112	0.104486	0.472404
H427	H	0.965597	-0.507598	-0.190754
H428	H	1.298930	-0.174264	0.142580
H429	H	1.632264	0.159069	0.475913
H430	H	1.016838	-0.507508	-0.242091
H431	H	1.350171	-0.174174	0.091242
H432	H	1.683505	0.159159	0.424576
H433	H	0.144566	-0.229820	-0.229699
H434	H	0.477899	0.103513	0.103635
H435	H	0.811233	0.436847	0.436968
C436	C	0.538870	-0.387656	-0.386138
C437	C	0.872203	-0.054323	-0.052805
C438	C	1.205537	0.279010	0.280529
H439	H	0.567727	-0.411664	-0.409955
H440	H	0.901060	-0.078331	-0.076622
H441	H	1.234394	0.255002	0.256711
H442	H	0.513416	-0.363574	-0.413478
H443	H	0.846749	-0.030241	-0.080145
H444	H	1.180083	0.303092	0.253189
H445	H	0.513273	-0.415060	-0.362156
H446	H	0.846606	-0.081727	-0.028823
H447	H	1.179940	0.251606	0.304510
H448	H	0.346295	-0.293864	-0.199778
H449	H	0.679628	0.039469	0.133555
H450	H	1.012962	0.372803	0.466888
C451	C	0.272626	-0.218336	-0.218219
C452	C	0.605960	0.114998	0.115115
C453	C	0.939293	0.448331	0.448448
H454	H	0.243767	-0.194327	-0.194405
H455	H	0.577101	0.139006	0.138929
H456	H	0.910434	0.472340	0.472262
H457	H	0.298208	-0.190944	-0.242225
H458	H	0.631541	0.142389	0.091108
H459	H	0.964874	0.475723	0.424442
H460	H	0.298096	-0.242391	-0.190864
H461	H	0.631429	0.090942	0.142469
H462	H	0.964762	0.424275	0.475802
