data_functionalizedCrystal
_audit_creation_method	'MofGen! by Chris Wilmer'
_symmetry_space_group_name_H-M	'P1'
_symmetry_Int_Tables_number	1
_symmetry_cell_setting	triclinic
loop_
_symmetry_equiv_pos_as_xyz
  x,y,z
_cell_length_a	21.295419
_cell_length_b	21.295411
_cell_length_c	21.395362
_cell_angle_alpha	89.982470
_cell_angle_beta	90.043182
_cell_angle_gamma	89.975461
loop_
_atom_site_label
_atom_site_type_symbol
_atom_site_fract_x
_atom_site_fract_y
_atom_site_fract_z
Zn1	Zn	0.962365	-0.355929	-0.249262
Zn2	Zn	0.962271	-0.250662	-0.354023
Zn3	Zn	0.857088	-0.250674	-0.249290
Zn4	Zn	0.857061	-0.355894	-0.354033
O5	O	0.909696	-0.303290	-0.301652
O6	O	1.050442	-0.341975	-0.263143
O7	O	0.948290	-0.162574	-0.340137
O8	O	0.871104	-0.264656	-0.161608
O9	O	1.050373	-0.264636	-0.340110
O10	O	0.948450	-0.341987	-0.161588
O11	O	0.871013	-0.162583	-0.263190
O12	O	0.768995	-0.264622	-0.263200
O13	O	0.871058	-0.443988	-0.340128
O14	O	0.768975	-0.341927	-0.340155
O15	O	0.948424	-0.444014	-0.263153
O16	O	0.948264	-0.264601	-0.441702
O17	O	0.870967	-0.341915	-0.441710
C18	C	0.746145	-0.303272	-0.301682
C19	C	0.676177	-0.303280	-0.301710
C20	C	0.643368	-0.343612	-0.261699
C21	C	0.577626	-0.343615	-0.261682
C22	C	0.544694	-0.303291	-0.301688
C23	C	0.577510	-0.262950	-0.341702
C24	C	0.643252	-0.262945	-0.341713
N25	N	0.441421	-0.298375	-0.356508
N26	N	0.378969	-0.298384	-0.356495
C27	C	0.346619	-0.303305	-0.301655
N28	N	0.379080	-0.308228	-0.246827
N29	N	0.441537	-0.308222	-0.246840
C30	C	0.473409	-0.303292	-0.301680
C31	C	0.242526	-0.343642	-0.261622
C32	C	0.176782	-0.343641	-0.261605
C33	C	0.176668	-0.262979	-0.341630
C34	C	0.242410	-0.262978	-0.341642
C35	C	0.275335	-0.303313	-0.301639
C36	C	0.909749	-0.467480	-0.301639
C37	C	0.909771	-0.537448	-0.301633
C38	C	0.950054	-0.570329	-0.261551
C39	C	0.950053	-0.636072	-0.261524
C40	C	0.909776	-0.668931	-0.301590
C41	C	0.869485	-0.636042	-0.341675
C42	C	0.869483	-0.570300	-0.341697
N43	N	0.904921	-0.772150	-0.356402
N44	N	0.904927	-0.834602	-0.356380
C45	C	0.909780	-0.867006	-0.301527
N46	N	0.914638	-0.834599	-0.246695
N47	N	0.914636	-0.772142	-0.246718
C48	C	0.909774	-0.740216	-0.301571
C49	C	0.950064	-0.971172	-0.261411
C50	C	0.950058	-1.036916	-0.261383
C51	C	0.869494	-1.036885	-0.341540
C52	C	0.869496	-0.971142	-0.341563
C53	C	0.909784	-0.938290	-0.301499
C54	C	1.073887	-0.303308	-0.301622
C55	C	1.143855	-0.303316	-0.301610
C56	C	0.909620	-0.303267	-0.464440
C57	C	0.909645	-0.303278	-0.534081
C58	C	0.909681	-0.139738	-0.301620
C59	C	0.909780	-0.069770	-0.301449
C60	C	0.950049	-0.343637	-1.035814
C61	C	0.950031	-0.343627	-0.970378
C62	C	0.909782	-0.303329	-0.937719
C63	C	0.869561	-0.263027	-0.970501
C64	C	0.869585	-0.263034	-1.035935
C65	C	0.853032	-0.298296	-0.834117
C66	C	0.853007	-0.298293	-0.768684
C67	C	0.909708	-0.303305	-0.735898
C68	C	0.966436	-0.308333	-0.768554
C69	C	0.966460	-0.308339	-0.833988
C70	C	0.909752	-0.303317	-0.866767
C71	C	0.949910	-0.343591	-0.632172
C72	C	0.949893	-0.343576	-0.566735
C73	C	0.869417	-0.262980	-0.566860
C74	C	0.869440	-0.262991	-0.632295
C75	C	0.909686	-0.303300	-0.664947
C76	C	0.909790	-0.303327	-0.138229
C77	C	0.909830	-0.303343	-0.068587
H78	H	0.269123	-0.230137	-0.374226
H79	H	0.982859	-0.543585	-0.228927
C80	C	0.994371	-0.672252	-0.217436
C81	C	1.038687	-0.636116	-0.173370
C82	C	1.083008	-0.672294	-0.129284
C83	C	1.083012	-0.744606	-0.129264
C84	C	1.038695	-0.780746	-0.173332
C85	C	0.994374	-0.744569	-0.217418
H86	H	1.038685	-0.582582	-0.173383
H87	H	1.115814	-0.645540	-0.096662
H88	H	1.115821	-0.771387	-0.096629
H89	H	1.038696	-0.834280	-0.173319
H90	H	0.961568	-0.771322	-0.250039
H91	H	0.836689	-0.662800	-0.374296
C92	C	0.994326	-0.387964	-1.071733
C93	C	0.967045	-0.437363	-1.116733
C94	C	1.011325	-0.481688	-1.152655
C95	C	1.082885	-0.476613	-1.143579
C96	C	1.110170	-0.427212	-1.098577
C97	C	1.065890	-0.382888	-1.062655
H98	H	0.914069	-0.441122	-1.123453
H99	H	0.991127	-0.518257	-1.185968
H100	H	1.115664	-0.509424	-1.170171
H101	H	1.163146	-0.423453	-1.091857
H102	H	1.086088	-0.346318	-1.029342
H103	H	0.836677	-0.543529	-0.374336
H104	H	1.012607	-0.312415	-0.741860
H105	H	0.982865	-0.944423	-0.228785
H106	H	0.150070	-0.376483	-0.229019
C107	C	0.790654	-0.292785	-0.870176
C108	C	0.770318	-0.345434	-0.915160
C109	C	0.707942	-0.339922	-0.951217
C110	C	0.665902	-0.281762	-0.942289
C111	C	0.686238	-0.229109	-0.897302
C112	C	0.748614	-0.234620	-0.861245
H113	H	0.801438	-0.388491	-0.921772
H114	H	0.692888	-0.378900	-0.984519
H115	H	0.619728	-0.277683	-0.968980
H116	H	0.655117	-0.186052	-0.890691
H117	H	0.763668	-0.195643	-0.827943
C118	C	0.825144	-0.218651	-0.530941
C119	C	0.753583	-0.223717	-0.540013
C120	C	0.709311	-0.179384	-0.504091
C121	C	0.736602	-0.129986	-0.459097
C122	C	0.808167	-0.124918	-0.450023
C123	C	0.852438	-0.169251	-0.485945
H124	H	0.733378	-0.260287	-0.573322
H125	H	0.656334	-0.183136	-0.510808
H126	H	0.703829	-0.097168	-0.432505
H127	H	0.828372	-0.088348	-0.416714
H128	H	0.905416	-0.165499	-0.479228
H129	H	0.149855	-0.230147	-0.374203
H130	H	0.836697	-0.944370	-0.374206
C131	C	0.994136	-0.387906	-0.530683
C132	C	1.065704	-0.382851	-0.539607
C133	C	1.109946	-0.427183	-0.503554
C134	C	1.082621	-0.476569	-0.458578
C135	C	1.011049	-0.481625	-0.449653
C136	C	0.966807	-0.437293	-0.485705
H137	H	1.085935	-0.346291	-0.572902
H138	H	1.162928	-0.423439	-0.510162
H139	H	1.115372	-0.509385	-0.431890
H140	H	0.990818	-0.518185	-0.416357
H141	H	0.913825	-0.441037	-0.479098
H142	H	0.982860	-1.063687	-0.228739
H143	H	0.982783	-0.376440	-0.943689
C144	C	1.028857	-0.313860	-0.869908
C145	C	1.049222	-0.261219	-0.914891
C146	C	1.111620	-0.266737	-0.950812
C147	C	1.153654	-0.324895	-0.941749
C148	C	1.133290	-0.377540	-0.896764
C149	C	1.070892	-0.372023	-0.860844
H150	H	1.018105	-0.218163	-0.921602
H151	H	1.126694	-0.227765	-0.984113
H152	H	1.199844	-0.328980	-0.968340
H153	H	1.164406	-0.420597	-0.890054
H154	H	1.055817	-0.410995	-0.827543
H155	H	0.836693	-1.063638	-0.374157
H156	H	0.982676	-0.376417	-0.658759
H157	H	0.836687	-0.230182	-0.658980
H158	H	0.806817	-0.294204	-0.742099
H159	H	0.670172	-0.376456	-0.229125
H160	H	0.836791	-0.230216	-0.943907
C161	C	0.825337	-0.218712	-1.071990
C162	C	0.830507	-0.147154	-1.063020
C163	C	0.786257	-0.102833	-1.099076
C164	C	0.736837	-0.130069	-1.144102
C165	C	0.731665	-0.201631	-1.153074
C166	C	0.775914	-0.245952	-1.117018
H167	H	0.867093	-0.126988	-1.029688
H168	H	0.790086	-0.049858	-1.092435
H169	H	0.704081	-0.097260	-1.170793
H170	H	0.695079	-0.221797	-1.186406
H171	H	0.772085	-0.298927	-1.123660
H172	H	0.550908	-0.376458	-0.229097
H173	H	0.669964	-0.230100	-0.374296
C174	C	0.541289	-0.218595	-0.385710
C175	C	0.468976	-0.218602	-0.385703
C176	C	0.432755	-0.174243	-0.429710
C177	C	0.468847	-0.129875	-0.473725
C178	C	0.541164	-0.129866	-0.473733
C179	C	0.577385	-0.174226	-0.429726
H180	H	0.442255	-0.251447	-0.353119
H181	H	0.379221	-0.174249	-0.429704
H182	H	0.442035	-0.097038	-0.506302
H183	H	0.567885	-0.097022	-0.506317
H184	H	0.630919	-0.174219	-0.429732
C185	C	0.278748	-0.388003	-0.217616
C186	C	0.242656	-0.432363	-0.173595
C187	C	0.278877	-0.476723	-0.129588
C188	C	0.351189	-0.476724	-0.129602
C189	C	0.387286	-0.432362	-0.173625
C190	C	0.351065	-0.388001	-0.217632
H191	H	0.189122	-0.432365	-0.173583
H192	H	0.252155	-0.509563	-0.096999
H193	H	0.378002	-0.509562	-0.097025
H194	H	0.440820	-0.432360	-0.173637
H195	H	0.377786	-0.355162	-0.250220
