data_functionalizedCrystal
_audit_creation_method	'MofGen! by Chris Wilmer'
_symmetry_space_group_name_H-M	'P1'
_symmetry_Int_Tables_number	1
_symmetry_cell_setting	triclinic
loop_
_symmetry_equiv_pos_as_xyz
  x,y,z
_cell_length_a	24.447405
_cell_length_b	24.446649
_cell_length_c	24.443239
_cell_angle_alpha	60.006064
_cell_angle_beta	60.011844
_cell_angle_gamma	59.992812
loop_
_atom_site_label
_atom_site_type_symbol
_atom_site_fract_x
_atom_site_fract_y
_atom_site_fract_z
O1	O	0.075907	-0.799232	0.668277
O2	O	0.028634	-0.622262	0.538455
O3	O	0.140702	-0.734230	0.538349
O4	O	-0.036160	-0.687265	0.668384
O5	O	0.177886	-0.697056	0.575424
O6	O	0.065818	-0.585088	0.575530
O7	O	0.113091	-0.762059	0.705353
Cu8	Cu	0.092850	-0.670179	0.643827
Cu9	Cu	0.048876	-0.714142	0.599981
O10	O	0.001024	-0.650091	0.705459
N11	N	0.123780	-0.639263	0.674669
N12	N	0.017951	-0.745064	0.569139
C13	C	0.170236	-0.489965	0.721065
C14	C	0.170249	-0.592837	0.721058
C15	C	0.195989	-0.567121	0.746758
C16	C	0.308182	-0.547773	0.687664
C17	C	0.378316	-0.571143	0.664253
C18	C	0.378353	-0.684626	0.707525
C19	C	0.308220	-0.661254	0.730938
C20	C	0.187125	-0.454882	0.652117
C21	C	0.163710	-0.384741	0.628763
C22	C	0.106523	-0.384772	0.743308
C23	C	0.129938	-0.454913	0.766662
C24	C	0.101291	-0.575906	0.738041
C25	C	0.077897	-0.599283	0.714670
C26	C	0.192412	-0.656523	0.657348
C27	C	0.215809	-0.633146	0.680711
C28	C	0.101393	-0.575928	0.859014
C29	C	0.078071	-0.599328	0.929152
C30	C	0.192636	-0.656582	0.929078
C31	C	0.215955	-0.633184	0.858938
C32	C	0.170332	-0.592855	0.823908
C33	C	0.273137	-0.592827	0.721004
C34	C	-0.131205	-0.791294	0.522327
C35	C	-0.028388	-0.791420	0.522551
C36	C	-0.054056	-0.817099	0.496741
C37	C	-0.073479	-0.929255	0.555734
C38	C	-0.050156	-0.999396	0.579142
C39	C	0.063326	-0.999525	0.536064
C40	C	0.040001	-0.929386	0.512654
C41	C	-0.166365	-0.808188	0.591256
C42	C	-0.236499	-0.784726	0.614512
C43	C	-0.236309	-0.727482	0.499907
C44	C	-0.166175	-0.750944	0.476651
C45	C	-0.045285	-0.722468	0.505590
C46	C	-0.021951	-0.699130	0.529061
C47	C	0.035176	-0.813691	0.586439
C48	C	0.011842	-0.837031	0.562976
C49	C	-0.045097	-0.722476	0.384488
C50	C	-0.021613	-0.699140	0.314350
C51	C	0.035607	-0.813706	0.314419
C52	C	0.012124	-0.837041	0.384558
C53	C	-0.028229	-0.791425	0.419591
C54	C	-0.028402	-0.894253	0.522492
N55	N	0.412405	-0.639229	0.674505
O56	O	0.626552	-0.645384	0.514503
O57	O	0.626802	-0.775625	0.691288
O58	O	0.626698	-0.775326	0.579168
O59	O	0.626656	-0.645683	0.626623
O60	O	0.515277	-0.738265	0.616407
O61	O	0.515382	-0.738564	0.728527
O62	O	0.515131	-0.608323	0.551742
Cu63	Cu	0.505083	-0.670059	0.643535
Cu64	Cu	0.636850	-0.713889	0.599495
O65	O	0.515236	-0.608622	0.663862
N66	N	0.729529	-0.744719	0.568518
N67	N	0.123755	-0.350686	0.674680
O68	O	-0.036153	-0.136410	0.668391
O69	O	0.140633	-0.136380	0.538141
O70	O	0.028472	-0.136412	0.538488
O71	O	0.076007	-0.136377	0.668044
O72	O	0.065663	-0.247842	0.575621
O73	O	0.177823	-0.247810	0.575274
O74	O	0.001037	-0.247840	0.705524
Cu75	Cu	0.092826	-0.258000	0.643789
Cu76	Cu	0.048844	-0.126220	0.599875
O77	O	0.113198	-0.247808	0.705177
N78	N	0.017907	-0.033534	0.568986
N79	N	0.124013	-0.639306	0.963182
O80	O	0.117754	-0.799195	1.177439
O81	O	-0.012458	-0.622342	1.177485
O82	O	-0.012155	-0.734480	1.177444
O83	O	0.117450	-0.687057	1.177480
O84	O	0.024954	-0.697317	1.066020
O85	O	0.024650	-0.585179	1.066061
O86	O	0.154862	-0.762032	1.066014
Cu87	Cu	0.093145	-0.670212	1.055863
Cu88	Cu	0.049259	-0.714162	1.187636
O89	O	0.154559	-0.649894	1.066055
N90	N	0.018389	-0.745075	1.280318
C91	C	0.042795	-0.581375	0.539107
C92	C	0.181576	-0.720034	0.538975
C93	C	0.098930	-0.802946	0.704700
C94	C	-0.039851	-0.664287	0.704832
C95	C	0.571122	-0.775030	0.732180
C96	C	0.570995	-0.774660	0.593332
C97	C	0.570808	-0.608917	0.510851
C98	C	0.570939	-0.609288	0.649698
C99	C	0.181453	-0.191954	0.538725
C100	C	0.042602	-0.192131	0.539201
C101	C	-0.039829	-0.192128	0.704893
C102	C	0.099069	-0.192090	0.704464
C103	C	-0.011836	-0.581480	1.121779
C104	C	-0.011453	-0.720342	1.121706
C105	C	0.154240	-0.802894	1.121720
C106	C	0.153865	-0.664024	1.121769
H107	H	0.064236	-0.543084	0.830495
H108	H	0.571186	-0.815915	0.782955
H109	H	-0.052152	-0.730472	1.121651
H110	H	0.195123	-0.853684	1.121698
H111	H	0.229515	-0.689349	0.624505
O112	O	0.110965	-0.863643	0.753286
C113	C	0.140390	-0.982847	0.785395
C114	C	0.126763	-0.914150	0.730321
H115	H	0.153180	-1.023701	0.766843
H116	H	0.093904	-0.983124	0.832163
H117	H	0.184226	-0.992575	0.797937
H118	H	0.082949	-0.904378	0.717721
H119	H	0.173283	-0.913906	0.683588
O120	O	0.202380	-0.651803	1.121742
C121	C	0.233007	-0.572223	1.121804
C122	C	0.178010	-0.585969	1.121819
H123	H	0.213319	-0.519002	1.121881
H124	H	0.278723	-0.578167	1.075156
H125	H	0.247680	-0.609349	1.168418
H126	H	0.163279	-0.548855	1.075237
H127	H	0.132330	-0.580048	1.168499
O128	O	-0.093933	-1.033396	0.611352
C129	C	-0.126090	-1.112506	0.612454
C130	C	-0.076454	-1.074051	0.575889
H131	H	-0.111968	-1.145395	0.583805
H132	H	-0.178980	-1.075340	0.615433
H133	H	-0.124043	-1.145290	0.665229
H134	H	-0.078441	-1.041267	0.523098
H135	H	-0.023586	-1.111254	0.572965
H136	H	0.021932	-0.585534	0.957726
H137	H	0.271959	-0.646925	0.666876
O138	O	-0.100477	-0.652230	0.753486
C139	C	-0.210817	-0.572864	0.784464
C140	C	-0.142185	-0.586424	0.729309
H141	H	-0.244561	-0.519666	0.764933
H142	H	-0.203827	-0.578860	0.830149
H143	H	-0.234886	-0.610053	0.799131
H144	H	-0.118078	-0.549248	0.714586
H145	H	-0.149218	-0.580452	0.683661
O146	O	0.030822	-0.520702	0.490477
C147	C	0.063176	-0.422221	0.417256
C148	C	0.076799	-0.490913	0.472338
H149	H	0.100349	-0.398123	0.402564
H150	H	0.009973	-0.388504	0.436808
H151	H	0.069148	-0.429206	0.371581
H152	H	0.070864	-0.483991	0.518031
H153	H	0.129996	-0.524605	0.452732
O154	O	0.242124	-0.731978	0.490196
C155	C	0.301971	-0.737956	0.378514
C156	C	0.233361	-0.724428	0.433704
H157	H	0.294908	-0.731843	0.332822
H158	H	0.335728	-0.791181	0.397954
H159	H	0.326069	-0.700810	0.363894
H160	H	0.209204	-0.761532	0.448347
H161	H	0.199651	-0.671185	0.414233
H162	H	-0.090599	-0.192138	0.745784
H163	H	0.032420	-0.192135	0.498498
O164	O	0.236982	-0.695840	0.963070
C165	C	0.327809	-0.799037	0.984424
C166	C	0.277610	-0.754650	0.945899
H167	H	0.360679	-0.846589	0.970544
H168	H	0.299339	-0.812912	1.040592
H169	H	0.360602	-0.770442	0.970622
H170	H	0.244803	-0.783205	0.959645
H171	H	0.306121	-0.740773	0.889740
O172	O	0.056943	-0.536731	0.777198
C173	C	-0.059112	-0.482453	0.831620
C174	C	-0.008961	-0.526810	0.787253
H175	H	-0.112407	-0.474430	0.839774
H176	H	-0.051104	-0.431971	0.805936
H177	H	-0.050947	-0.508164	0.882038
H178	H	-0.017096	-0.501158	0.736827
H179	H	-0.016981	-0.577290	0.812989
H180	H	0.272095	-0.646975	0.830359
O181	O	0.241928	-0.191699	0.489841
C182	C	0.340306	-0.248869	0.416150
C183	C	0.271835	-0.249242	0.471514
H184	H	0.364499	-0.295381	0.401306
H185	H	0.374115	-0.248800	0.435495
H186	H	0.332969	-0.202117	0.370624
H187	H	0.279108	-0.295987	0.517059
H188	H	0.238050	-0.249276	0.452115
H189	H	-0.052716	-0.530687	1.121793
O190	O	0.571043	-0.560720	0.661736
C191	C	0.628683	-0.487551	0.629458
C192	C	0.628655	-0.542562	0.615762
H193	H	0.675251	-0.472843	0.592288
H194	H	0.628792	-0.507182	0.682661
H195	H	0.581994	-0.441863	0.623537
H196	H	0.675336	-0.588268	0.621646
H197	H	0.628512	-0.522877	0.562565
O198	O	0.570895	-0.823188	0.581230
C199	C	0.513177	-0.855184	0.551745
C200	C	0.513199	-0.800175	0.565448
H201	H	0.466542	-0.836593	0.538968
H202	H	0.513206	-0.901997	0.598196
H203	H	0.559799	-0.867673	0.507876
H204	H	0.466585	-0.787629	0.609295
H205	H	0.513205	-0.753397	0.518964
O206	O	0.274280	-0.705109	0.763283
C207	C	0.281721	-0.820141	0.803763
C208	C	0.320241	-0.770547	0.767106
H209	H	0.318864	-0.873060	0.806878
H210	H	0.248873	-0.806112	0.775110
H211	H	0.248902	-0.817966	0.856487
H212	H	0.353097	-0.772695	0.714381
H213	H	0.353048	-0.784592	0.795810
O214	O	0.412257	-0.527284	0.631852
C215	C	0.404821	-0.412262	0.591433
C216	C	0.366298	-0.461858	0.628124
H217	H	0.367680	-0.359357	0.588420
H218	H	0.437606	-0.414350	0.538675
H219	H	0.437704	-0.426376	0.620086
H220	H	0.333378	-0.447778	0.599527
H221	H	0.333556	-0.459763	0.680886
O222	O	0.111332	-0.192121	0.752964
C223	C	0.190957	-0.192078	0.783558
C224	C	0.177161	-0.192052	0.728576
H225	H	0.244174	-0.192008	0.763855
H226	H	0.185044	-0.238730	0.829282
H227	H	0.153840	-0.145463	0.798228
H228	H	0.214265	-0.238636	0.713849
H229	H	0.183051	-0.145370	0.682888
O230	O	0.570625	-0.560153	0.450289
C231	C	0.512744	-0.489309	0.369698
C232	C	0.512877	-0.544547	0.438289
H233	H	0.466052	-0.476665	0.359981
H234	H	0.559317	-0.507687	0.328722
H235	H	0.512744	-0.442644	0.369633
H236	H	0.512853	-0.591231	0.438420
H237	H	0.466307	-0.526114	0.479235
O238	O	0.226234	-0.488829	0.607736
C239	C	0.280503	-0.481395	0.491655
C240	C	0.236195	-0.442867	0.541846
H241	H	0.288582	-0.444252	0.438372
H242	H	0.254816	-0.514220	0.499703
H243	H	0.330957	-0.514245	0.499740
H244	H	0.185733	-0.409982	0.533791
H245	H	0.261934	-0.410085	0.533785
O246	O	0.274031	-0.481330	0.678133
C247	C	0.194901	-0.396464	0.729829
C248	C	0.233524	-0.471732	0.740719
H249	H	0.162152	-0.388679	0.780421
H250	H	0.161987	-0.376693	0.699050
H251	H	0.232013	-0.368290	0.701949
H252	H	0.196460	-0.499960	0.768617
H253	H	0.266447	-0.491451	0.771470
H254	H	0.406920	-0.740344	0.715602
O255	O	0.113496	-0.488893	0.833665
C256	C	0.054268	-0.481525	0.944817
C257	C	0.072852	-0.442961	0.868958
H258	H	0.021393	-0.444406	0.973373
H259	H	0.101860	-0.514340	0.958633
H260	H	0.025752	-0.514389	0.958604
H261	H	0.101351	-0.410061	0.855116
H262	H	0.025235	-0.410189	0.855182
O263	O	-0.038097	-0.632137	0.280361
C264	C	-0.097310	-0.520968	0.287702
C265	C	-0.078707	-0.596829	0.326279
H266	H	-0.130134	-0.492400	0.324810
H267	H	-0.125839	-0.507101	0.254802
H268	H	-0.049682	-0.507245	0.254927
H269	H	-0.126299	-0.610606	0.359091
H270	H	-0.050152	-0.610656	0.359137
H271	H	0.177459	-0.356175	0.572617
O272	O	0.074812	-0.858110	0.280497
C273	C	0.129040	-0.974210	0.287978
C274	C	0.084646	-0.923994	0.326477
H275	H	0.136992	-1.027488	0.325136
H276	H	0.179546	-0.966251	0.255245
H277	H	0.103404	-0.966060	0.255043
H278	H	0.110222	-0.932114	0.359449
H279	H	0.034142	-0.931965	0.359168
O280	O	-0.084384	-0.678070	0.466357
C281	C	-0.138555	-0.561975	0.411892
C282	C	-0.094284	-0.612183	0.456344
H283	H	-0.146562	-0.508695	0.403771
H284	H	-0.189046	-0.569944	0.437488
H285	H	-0.112790	-0.570125	0.361465
H286	H	-0.119990	-0.604063	0.506778
H287	H	-0.043796	-0.604202	0.430695
O288	O	-0.038440	-0.632155	0.512695
C289	C	-0.092396	-0.539246	0.552940
C290	C	-0.073780	-0.615101	0.571572
H291	H	-0.120960	-0.525437	0.600531
H292	H	-0.125191	-0.510628	0.520046
H293	H	-0.044771	-0.525525	0.524443
H294	H	-0.121368	-0.628884	0.600092
H295	H	-0.040959	-0.643677	0.604434
H296	H	0.021747	-0.585481	0.728482
H297	H	0.073721	-0.356231	0.780438
H298	H	-0.077958	-0.685325	0.413008
H299	H	0.025866	-0.893188	0.413136
H300	H	0.067938	-0.850836	0.619346
H301	H	0.025599	-0.893178	0.576787
H302	H	0.119026	-1.028132	0.528057
O303	O	0.083878	-0.895487	0.480402
C304	C	0.198904	-0.903021	0.440110
C305	C	0.149285	-0.941493	0.476662
H306	H	0.251798	-0.940200	0.437062
H307	H	0.184846	-0.870195	0.468799
H308	H	0.196803	-0.870177	0.387361
H309	H	0.151360	-0.974373	0.529412
H310	H	0.163360	-0.974277	0.447922
H311	H	-0.129177	-0.900656	0.563750
H312	H	-0.137894	-0.841050	0.628449
H313	H	-0.264783	-0.694634	0.462714
O314	O	-0.270553	-0.801227	0.681496
C315	C	-0.263344	-0.860460	0.792718
C316	C	-0.224695	-0.841832	0.716879
H317	H	-0.226285	-0.893280	0.821347
H318	H	-0.296167	-0.889007	0.806478
H319	H	-0.296200	-0.812838	0.806472
H320	H	-0.191803	-0.889419	0.703071
H321	H	-0.191914	-0.813259	0.703159
H322	H	-0.137547	-0.737181	0.420520
