data_functionalizedCrystal
_audit_creation_method	'MofGen! by Chris Wilmer'
_symmetry_space_group_name_H-M	'P1'
_symmetry_Int_Tables_number	1
_symmetry_cell_setting	triclinic
loop_
_symmetry_equiv_pos_as_xyz
  x,y,z
_cell_length_a	14.908783
_cell_length_b	14.908178
_cell_length_c	14.908308
_cell_angle_alpha	90.221621
_cell_angle_beta	90.211273
_cell_angle_gamma	96.402596
loop_
_atom_site_label
_atom_site_type_symbol
_atom_site_fract_x
_atom_site_fract_y
_atom_site_fract_z
Zn1	Zn	1.328235	-0.315439	0.568627
Zn2	Zn	1.329145	-0.457100	0.409643
Zn3	Zn	1.186601	-0.314463	0.409657
Zn4	Zn	1.169235	-0.474370	0.550213
O5	O	1.253304	-0.390343	0.484535
O6	O	1.454552	-0.327412	0.555237
O7	O	1.317884	-0.430543	0.284287
O8	O	1.212275	-0.188386	0.438457
O9	O	1.455221	-0.431489	0.438433
O10	O	1.316333	-0.189103	0.555251
O11	O	1.213158	-0.325749	0.284297
O12	O	1.058100	-0.342494	0.420603
O13	O	1.182678	-0.460923	0.678014
O14	O	1.045342	-0.459977	0.523868
O15	O	1.299495	-0.344158	0.691543
O16	O	1.301046	-0.585597	0.420578
O17	O	1.183561	-0.598285	0.523854
C18	C	1.018999	-0.403004	0.470239
C19	C	0.918760	-0.408444	0.464144
C20	C	0.729683	-0.310458	0.574483
C21	C	0.635500	-0.315566	0.568758
C22	C	0.636209	-0.423762	0.446966
C23	C	0.730392	-0.418654	0.452691
C24	C	0.777126	-0.362001	0.516452
C25	C	0.871311	-0.356899	0.522180
C26	C	0.872019	-0.465090	0.400385
C27	C	0.777835	-0.470197	0.394660
C28	C	1.240541	-0.624665	0.470237
C29	C	1.235162	-0.724907	0.464156
C30	C	1.333314	-0.913880	0.574463
C31	C	1.328262	-1.008065	0.568752
C32	C	1.220003	-1.007466	0.447028
C33	C	1.225054	-0.913280	0.452739
C34	C	1.281713	-0.866490	0.516458
C35	C	1.286768	-0.772302	0.522164
C36	C	1.178505	-0.771705	0.400444
C37	C	1.173453	-0.865891	0.394733
C38	C	1.488523	-0.377633	0.498887
C39	C	1.588759	-0.372217	0.505003
C40	C	1.239048	-0.404576	0.718191
C41	C	1.232973	-0.410641	0.817762
C42	C	1.266140	-0.155106	0.498910
C43	C	1.271610	-0.054862	0.505035
C44	C	1.267560	-0.376098	0.251795
C45	C	1.273823	-0.369770	0.152251
C46	C	1.343196	-0.300429	1.018955
C47	C	1.337491	-0.306124	1.112510
C48	C	1.215854	-0.427722	1.098430
C49	C	1.221559	-0.422026	1.004875
C50	C	1.285233	-0.358379	0.965140
C51	C	1.290942	-0.352688	0.871583
C52	C	1.169301	-0.474281	0.857505
C53	C	1.163596	-0.479976	0.951060
H54	H	1.332905	-0.734207	0.574044
C55	C	1.412358	-0.231243	0.975978
C56	C	1.461889	-0.181699	1.043132
C57	C	1.525602	-0.117949	1.003577
H58	H	1.452078	-0.261294	0.939778
H59	H	1.382251	-0.191540	0.939801
H60	H	1.491994	-0.221396	1.079293
H61	H	1.422194	-0.151628	1.079336
H62	H	1.495495	-0.078246	0.967401
H63	H	1.565315	-0.148008	0.967378
H64	H	1.559211	-0.084320	1.049134
C65	C	0.583831	-0.259645	0.631658
C66	C	0.491347	-0.276225	0.612986
C67	C	0.443723	-0.224716	0.670905
H68	H	0.594781	-0.275713	0.691988
H69	H	0.603302	-0.197382	0.623268
H70	H	0.471882	-0.338475	0.621384
H71	H	0.480370	-0.260153	0.552667
H72	H	0.463195	-0.162452	0.662515
H73	H	0.454680	-0.240787	0.731231
H74	H	0.380969	-0.235951	0.658239
C75	C	1.400277	-0.243106	1.170982
C76	C	1.349091	-0.191315	1.225090
C77	C	1.406899	-0.133240	1.278956
H78	H	1.435486	-0.277597	1.207849
H79	H	1.438998	-0.204336	1.133944
H80	H	1.310386	-0.230080	1.262124
H81	H	1.313884	-0.156805	1.188246
H82	H	1.445619	-0.094470	1.241918
H83	H	1.442105	-0.167738	1.315818
H84	H	1.372178	-0.098087	1.315669
C85	C	1.146803	-0.496775	1.141750
C86	C	1.154223	-0.489361	1.235200
C87	C	1.090630	-0.552961	1.275135
H88	H	1.087824	-0.485974	1.123624
H89	H	1.157623	-0.555755	1.123585
H90	H	1.143396	-0.430395	1.253357
H91	H	1.213188	-0.500170	1.253351
H92	H	1.101451	-0.611940	1.256971
H93	H	1.031655	-0.542154	1.257002
H94	H	1.095662	-0.547944	1.338545
C95	C	0.585627	-0.485286	0.377655
C96	C	0.647332	-0.529321	0.328042
C97	C	0.600770	-0.585996	0.264177
H98	H	0.544663	-0.528778	0.407125
H99	H	0.553157	-0.450359	0.338504
H100	H	0.679787	-0.564246	0.367187
H101	H	0.688298	-0.485852	0.298552
H102	H	0.568301	-0.551070	0.225026
H103	H	0.559807	-0.629483	0.293655
H104	H	0.642631	-0.615875	0.230502
C105	C	0.923465	-0.521216	0.337471
C106	C	0.894534	-0.612899	0.350018
C107	C	0.941913	-0.664632	0.292091
H108	H	0.912444	-0.505216	0.277137
H109	H	0.986256	-0.510126	0.350015
H110	H	0.831757	-0.623984	0.337468
H111	H	0.905556	-0.628927	0.410341
H112	H	1.004704	-0.653542	0.304634
H113	H	0.930888	-0.648624	0.231760
H114	H	0.922296	-0.726844	0.300602
H115	H	1.122105	-0.521470	0.813679
H116	H	1.111753	-0.531795	0.983425
H117	H	0.909360	-0.310770	0.574099
H118	H	0.767734	-0.264333	0.626403
H119	H	0.739772	-0.516320	0.342745
C120	C	1.394843	-0.863240	0.643730
C121	C	1.438939	-0.924903	0.693322
C122	C	1.495617	-0.878290	0.757149
H123	H	1.438299	-0.822260	0.614231
H124	H	1.359915	-0.830780	0.682901
H125	H	1.473866	-0.957348	0.654157
H126	H	1.395506	-0.965885	0.722840
H127	H	1.460688	-0.845830	0.796319
H128	H	1.539067	-0.837311	0.727642
H129	H	1.525536	-0.920122	0.790809
C130	C	1.158584	-1.058435	0.377880
C131	C	1.165225	-1.151059	0.385284
C132	C	1.108670	-1.198038	0.321589
H133	H	1.097968	-1.047232	0.388099
H134	H	1.176347	-1.038684	0.319423
H135	H	1.147457	-1.170804	0.443726
H136	H	1.225828	-1.162290	0.375056
H137	H	1.126433	-1.178287	0.263133
H138	H	1.048058	-1.186828	0.331814
H139	H	1.113175	-1.260888	0.326598
C140	C	1.111789	-0.916664	0.325659
C141	C	1.022581	-0.899854	0.341035
C142	C	0.965751	-0.946618	0.277427
H143	H	1.129423	-0.896904	0.267183
H144	H	1.116108	-0.979558	0.330569
H145	H	1.018266	-0.836974	0.336117
H146	H	1.004920	-0.919617	0.399499
H147	H	0.970070	-1.009512	0.282337
H148	H	0.983393	-0.926855	0.218955
H149	H	0.905216	-0.935226	0.287856
H150	H	1.370276	-1.046647	0.615990
H151	H	1.136491	-0.733110	0.353210
H152	H	1.342790	-0.300864	0.839233
