data_functionalizedCrystal
_audit_creation_method	'MofGen! by Chris Wilmer'
_symmetry_space_group_name_H-M	'P1'
_symmetry_Int_Tables_number	1
_symmetry_cell_setting	triclinic
loop_
_symmetry_equiv_pos_as_xyz
  x,y,z
_cell_length_a	19.805407
_cell_length_b	21.295417
_cell_length_c	19.805399
_cell_angle_alpha	90.030843
_cell_angle_beta	90.019573
_cell_angle_gamma	90.030507
loop_
_atom_site_label
_atom_site_type_symbol
_atom_site_fract_x
_atom_site_fract_y
_atom_site_fract_z
Zn1	Zn	1.034716	-0.250624	0.382704
Zn2	Zn	1.034623	-0.355893	0.269510
Zn3	Zn	0.921531	-0.250641	0.269529
Zn4	Zn	0.921486	-0.355859	0.382656
O5	O	0.978089	-0.303254	0.326100
O6	O	1.129421	-0.264595	0.367701
O7	O	1.019601	-0.341952	0.174796
O8	O	0.936603	-0.162549	0.284570
O9	O	1.129352	-0.341935	0.284537
O10	O	1.019760	-0.162537	0.367719
O11	O	0.936513	-0.264624	0.174810
O12	O	0.826809	-0.264592	0.284523
O13	O	0.936527	-0.341878	0.477379
O14	O	0.826776	-0.341895	0.367638
O15	O	1.019717	-0.264562	0.477415
O16	O	1.019558	-0.443977	0.284491
O17	O	0.936437	-0.443953	0.367619
C18	C	0.802233	-0.303242	0.326078
C19	C	0.727001	-0.303252	0.326085
C20	C	0.978001	-0.466806	0.326062
C21	C	0.978024	-0.536774	0.326069
C22	C	0.691658	-0.343564	0.369292
C23	C	0.620969	-0.343566	0.369302
C24	C	0.585626	-0.303257	0.326100
C25	C	0.620974	-0.262940	0.282890
C26	C	0.691661	-0.262936	0.282885
C27	C	0.335901	-0.262954	0.282913
C28	C	0.265209	-0.262962	0.282920
C29	C	0.265209	-0.343583	0.369330
C30	C	0.335896	-0.343579	0.369324
C31	C	0.371238	-0.303261	0.326117
C32	C	0.447887	-0.303259	0.326109
C33	C	0.508979	-0.303261	0.326105
C34	C	1.021344	-0.569632	0.282828
C35	C	1.021376	-0.635375	0.282844
C36	C	0.978076	-0.668256	0.326092
C37	C	0.934753	-0.635390	0.369341
C38	C	0.934728	-0.569649	0.369330
N39	N	0.918865	-0.771522	0.331245
N40	N	0.918892	-0.833974	0.331252
C41	C	0.978152	-0.866331	0.326131
N42	N	1.037386	-0.833878	0.320989
N43	N	1.037358	-0.771421	0.320979
C44	C	0.978099	-0.739542	0.326110
C45	C	1.021509	-0.970475	0.282905
C46	C	1.021542	-1.036219	0.282925
C47	C	0.934914	-1.036233	0.369419
C48	C	0.934887	-0.970490	0.369402
C49	C	0.978184	-0.937615	0.326142
C50	C	1.154632	-0.303267	0.326122
C51	C	1.229864	-0.303272	0.326132
C52	C	0.978127	-0.303214	0.502643
C53	C	0.978143	-0.303198	0.577875
C54	C	0.978197	-0.139064	0.326152
C55	C	0.978243	-0.069096	0.326175
C56	C	0.978090	-0.303248	0.150244
C57	C	0.978205	-0.303088	0.075012
C58	C	1.021461	-0.262937	0.613238
C59	C	1.021468	-0.262919	0.683927
C60	C	0.978160	-0.303165	0.719250
C61	C	0.934838	-0.343427	0.683882
C62	C	0.934828	-0.343442	0.613195
C63	C	0.934876	-0.343368	0.968955
C64	C	0.934891	-0.343352	1.039647
C65	C	1.021516	-0.262846	1.039687
C66	C	1.021506	-0.262860	0.969000
C67	C	0.978182	-0.303120	0.933638
C68	C	0.978174	-0.303138	0.856989
C69	C	0.978171	-0.303150	0.795897
H70	H	0.720429	-0.376391	0.404470
C71	C	1.060150	-1.136987	0.244642
C72	C	1.069234	-1.072340	0.235462
H73	H	1.089617	-1.159286	0.215362
H74	H	1.014712	-1.147838	0.234632
H75	H	1.069973	-1.147680	0.290155
H76	H	1.059406	-1.061647	0.189949
H77	H	1.114682	-1.061485	0.245467
H78	H	0.899451	-0.542895	0.404542
H79	H	0.236425	-0.376411	0.404513
C80	C	0.925396	-0.896510	0.460425
C81	C	0.887262	-0.934369	0.416930
H82	H	0.895992	-0.874215	0.489771
H83	H	0.951172	-0.867522	0.434665
H84	H	0.954878	-0.922122	0.486346
H85	H	0.857782	-0.908757	0.391006
H86	H	0.861474	-0.963360	0.442693
H87	H	0.899661	-1.063004	0.404636
C88	C	1.107085	-0.183352	0.620385
C89	C	1.069066	-0.218695	0.574414
H90	H	1.136471	-0.156034	0.596417
H91	H	1.132961	-0.210774	0.647949
H92	H	1.077606	-0.159268	0.647960
H93	H	1.098545	-0.242783	0.546842
H94	H	1.043188	-0.191270	0.546838
C95	C	1.107141	-0.977062	0.197412
C96	C	1.069104	-0.934334	0.235358
H97	H	1.136526	-0.954750	0.168062
H98	H	1.077678	-1.002747	0.171502
H99	H	1.133025	-1.002661	0.226940
H100	H	1.043217	-0.908738	0.205831
H101	H	1.098571	-0.908639	0.261270
C102	C	1.112437	-0.709261	0.273505
C103	C	1.068977	-0.671511	0.235298
H104	H	1.141820	-0.731567	0.244148
H105	H	1.086654	-0.738239	0.299270
H106	H	1.138320	-0.683574	0.303000
H107	H	1.043091	-0.697199	0.205806
H108	H	1.094763	-0.642529	0.209521
H109	H	1.056601	-0.542868	0.247605
C110	C	1.030933	-0.178215	0.763431
C111	C	1.069081	-0.218655	0.722792
H112	H	1.060328	-0.150882	0.787418
H113	H	1.005153	-0.202179	0.794586
H114	H	1.001454	-0.154151	0.735844
H115	H	1.098557	-0.242723	0.750379
H116	H	1.094873	-0.194689	0.691632
C117	C	0.415351	-0.254087	0.191876
C118	C	0.374741	-0.218640	0.235415
H119	H	0.439333	-0.226726	0.162555
H120	H	0.387751	-0.281480	0.165938
H121	H	0.446519	-0.278085	0.217611
H122	H	0.343570	-0.194645	0.209680
H123	H	0.402343	-0.191235	0.261356
H124	H	0.236434	-0.230134	0.247740
C125	C	0.512617	-0.227146	0.244530
C126	C	0.582126	-0.218629	0.235404
H127	H	0.488636	-0.199792	0.215210
H128	H	0.501061	-0.217991	0.290022
H129	H	0.501014	-0.269431	0.234537
H130	H	0.593730	-0.176345	0.245402
H131	H	0.593687	-0.227780	0.189902
H132	H	0.720437	-0.230107	0.247704
H133	H	0.899499	-0.662166	0.404556
C134	C	1.107131	-0.183273	0.976142
C135	C	1.069109	-0.218619	0.930173
H136	H	1.136514	-0.155956	0.952171
H137	H	1.133008	-0.210694	1.003705
H138	H	1.077652	-0.159189	1.003717
H139	H	1.098587	-0.242706	0.902601
H140	H	1.043229	-0.191194	0.902598
H141	H	1.056791	-0.230062	1.068488
C142	C	0.849244	-0.422926	1.032511
C143	C	0.887277	-0.387588	1.078477
H144	H	0.819850	-0.450231	1.056485
H145	H	0.878709	-0.447016	1.004939
H146	H	0.823371	-0.395495	1.004944
H147	H	0.913155	-0.415020	1.106041
H148	H	0.857809	-0.363496	1.106061
C149	C	0.925386	-0.428064	0.889443
C150	C	0.887253	-0.387625	0.930097
H151	H	0.895982	-0.455385	0.865451
H152	H	0.954863	-0.452136	0.917014
H153	H	0.951168	-0.404094	0.858284
H154	H	0.861475	-0.411595	0.961260
H155	H	0.857765	-0.363551	0.902524
H156	H	0.899547	-0.376219	0.584402
C157	C	0.628070	-0.423276	0.454695
C158	C	0.582120	-0.387889	0.416786
H159	H	0.604084	-0.450644	0.484006
H160	H	0.655660	-0.395884	0.480645
H161	H	0.655620	-0.447306	0.425142
H162	H	0.554573	-0.363854	0.446339
H163	H	0.554517	-0.415284	0.390834
C164	C	0.328794	-0.423268	0.454746
C165	C	0.374745	-0.387886	0.416815
H166	H	0.352779	-0.450616	0.484069
H167	H	0.301202	-0.447314	0.425212
H168	H	0.301246	-0.395867	0.480690
H169	H	0.402290	-0.415286	0.390867
H170	H	0.402349	-0.363838	0.446353
C171	C	0.896390	-0.379155	0.792221
C172	C	0.887232	-0.387666	0.722708
H173	H	0.867003	-0.406472	0.816188
H174	H	0.886513	-0.336862	0.803815
H175	H	0.941865	-0.388371	0.803803
H176	H	0.841758	-0.378446	0.711125
H177	H	0.897105	-0.429969	0.711109
