data_functionalizedCrystal
_audit_creation_method	'MofGen! by Chris Wilmer'
_symmetry_space_group_name_H-M	'P1'
_symmetry_Int_Tables_number	1
_symmetry_cell_setting	triclinic
loop_
_symmetry_equiv_pos_as_xyz
  x,y,z
_cell_length_a	10.654541
_cell_length_b	15.995350
_cell_length_c	9.730217
_cell_angle_alpha	89.997307
_cell_angle_beta	89.997100
_cell_angle_gamma	83.988152
loop_
_atom_site_label
_atom_site_type_symbol
_atom_site_fract_x
_atom_site_fract_y
_atom_site_fract_z
O1	O	1.666307	0.117593	-0.114240
O2	O	1.300682	0.128800	-0.114252
O3	O	1.493489	0.001367	-0.114244
O4	O	1.473500	0.245026	-0.114248
O5	O	1.493473	0.001362	0.114336
O6	O	1.300666	0.128795	0.114328
O7	O	1.666292	0.117589	0.114340
Zn8	Zn	1.483476	0.123191	0.150626
Zn9	Zn	1.483497	0.123197	-0.150538
O10	O	1.473484	0.245022	0.114332
C11	C	1.253887	0.127975	0.000037
C12	C	1.114475	0.125514	0.000032
C13	C	1.084514	0.277895	0.000013
C14	C	1.004039	0.352926	-0.000002
C15	C	0.873052	0.350609	-0.000003
C16	C	0.822537	0.273253	0.000015
C17	C	0.903011	0.198222	0.000030
C18	C	1.034000	0.200547	0.000027
C19	C	0.932972	0.045843	0.000059
C20	C	1.063961	0.048158	0.000050
C21	C	0.882458	-0.031513	0.000077
C22	C	0.962933	-0.106546	0.000082
C23	C	1.093928	-0.104226	0.000082
C24	C	1.144435	-0.026873	0.000065
C25	C	1.492655	-0.029835	0.000043
C26	C	1.490177	-0.122800	0.000035
C27	C	1.481280	-0.460599	0.000039
C28	C	1.343966	-0.413961	-0.000477
C29	C	1.346444	-0.317257	0.000038
C30	C	1.485693	-0.293013	0.000037
C31	C	1.553412	-0.333700	0.130567
C32	C	1.549963	-0.430356	0.130676
C33	C	1.552817	-0.430692	-0.129262
C34	C	1.552785	-0.333747	-0.130988
C35	C	1.488195	-0.198301	0.000039
C36	C	1.478783	-0.555311	0.000046
C37	C	1.713087	0.118413	0.000048
C38	C	1.852498	0.120874	0.000044
C39	C	1.474318	0.276223	0.000042
C40	C	1.476796	0.369188	0.000041
N41	N	1.483471	0.123187	0.356163
C42	C	1.331166	0.020667	0.356215
C43	C	1.255026	-0.030594	0.428181
C44	C	1.255044	-0.030594	0.572061
C45	C	1.331206	0.020675	0.643978
C46	C	1.407346	0.071936	0.572012
C47	C	1.407323	0.071929	0.428129
C48	C	1.559643	0.174459	0.571959
C49	C	1.559634	0.174455	0.428080
C50	C	1.635805	0.225728	0.643876
C51	C	1.711954	0.276986	0.571910
C52	C	1.711934	0.276983	0.428022
C53	C	1.635774	0.225717	0.356113
N54	N	1.483503	0.123198	0.643925
H55	H	1.251090	-0.024976	0.000049
H56	H	1.045183	0.415908	-0.000013
H57	H	0.807528	0.411706	-0.000006
N58	N	0.908439	-0.189967	0.000118
H59	H	0.854754	-0.194328	-0.084609
H60	H	0.979356	-0.237103	0.000175
N61	N	1.794105	0.332266	0.649478
H62	H	1.842347	0.364735	0.582060
H63	H	1.739356	0.372862	0.709179
N64	N	1.687301	-0.312630	-0.141434
H65	H	1.698662	-0.281359	-0.229998
H66	H	1.706657	-0.276225	-0.060956
H67	H	1.331202	0.020678	0.761132
H68	H	1.635808	0.225728	0.761031
H69	H	1.654058	-0.461866	-0.130141
H70	H	1.773930	0.318730	0.369435
H71	H	1.500569	-0.448946	0.228250
N72	N	1.172928	-0.085880	0.649698
H73	H	1.081553	-0.069938	0.624684
H74	H	1.197817	-0.146628	0.624634
N75	N	1.635761	0.225708	0.200930
H76	H	1.575961	0.185453	0.166297
H77	H	1.607610	0.284216	0.166376
H78	H	1.655715	-0.318981	0.135420
N79	N	1.180723	-0.185153	0.000114
H80	H	1.128841	-0.234504	0.000129
H81	H	1.235728	-0.187520	-0.084623
H82	H	1.191169	0.279789	-0.000016
N83	N	0.681259	0.270750	0.000053
H84	H	0.637944	0.330019	0.000055
H85	H	0.655680	0.240239	-0.084673
H86	H	1.650776	-0.462019	0.136597
H87	H	0.775800	-0.033395	0.000083
N88	N	1.275932	-0.280013	-0.123903
H89	H	1.317524	-0.304307	-0.210427
H90	H	1.185633	-0.293815	-0.120386
H91	H	1.331153	0.020656	0.239061
N92	N	1.271261	-0.438926	-0.124461
H93	H	1.326622	-0.480711	-0.181500
H94	H	1.194055	-0.465312	-0.093197
N95	N	1.271580	-0.440325	0.122825
H96	H	1.183483	-0.410078	0.121711
H97	H	1.266737	-0.503015	0.119541
H98	H	1.506365	-0.305593	0.227703
N99	N	1.275451	-0.280752	0.124189
H100	H	1.242430	-0.327491	0.178799
H101	H	1.334059	-0.250564	0.183560
N102	N	1.172892	-0.085896	0.350617
H103	H	1.184437	-0.078125	0.248549
H104	H	1.197736	-0.146634	0.375780
H105	H	1.507930	-0.451490	-0.228196
N106	N	1.487286	-0.297977	-0.258907
H107	H	1.414460	-0.255560	-0.232113
H108	H	1.549120	-0.269618	-0.316833
