data_functionalizedCrystal
_audit_creation_method	'MofGen! by Chris Wilmer'
_symmetry_space_group_name_H-M	'P1'
_symmetry_Int_Tables_number	1
_symmetry_cell_setting	triclinic
loop_
_symmetry_equiv_pos_as_xyz
  x,y,z
_cell_length_a	12.827893
_cell_length_b	16.120484
_cell_length_c	12.827885
_cell_angle_alpha	92.863938
_cell_angle_beta	89.980538
_cell_angle_gamma	92.925621
loop_
_atom_site_label
_atom_site_type_symbol
_atom_site_fract_x
_atom_site_fract_y
_atom_site_fract_z
Zn1	Zn	1.576506	-0.331862	-0.611895
Zn2	Zn	1.567507	-0.471297	-0.445998
Zn3	Zn	1.401744	-0.331903	-0.437171
Zn4	Zn	1.392844	-0.471236	-0.620694
O5	O	1.484650	-0.401575	-0.528940
O6	O	1.721548	-0.350367	-0.589900
O7	O	1.545476	-0.452849	-0.298594
O8	O	1.432418	-0.215232	-0.452972
O9	O	1.714936	-0.452810	-0.468016
O10	O	1.560815	-0.215202	-0.581341
O11	O	1.423692	-0.350437	-0.292109
O12	O	1.254328	-0.350377	-0.461504
O13	O	1.417248	-0.452705	-0.765760
O14	O	1.247789	-0.452744	-0.596338
O15	O	1.552184	-0.350307	-0.759296
O16	O	1.536846	-0.587955	-0.476549
O17	O	1.408522	-0.587909	-0.604897
C18	C	1.213141	-0.401559	-0.528919
C19	C	1.096987	-0.401573	-0.528936
C20	C	1.048468	-0.350971	-0.589353
C21	C	0.928417	-0.350984	-0.589372
C22	C	1.470770	-0.618182	-0.542658
C23	C	1.464927	-0.710847	-0.548562
C24	C	1.454267	-0.880508	-0.559362
C25	C	1.515221	-0.921800	-0.498534
C26	C	1.509289	-1.016205	-0.504544
C27	C	1.460197	-0.786095	-0.553354
C28	C	1.757219	-0.401591	-0.528961
C29	C	1.873372	-0.401597	-0.528970
C30	C	1.484727	-0.401495	-0.801505
C31	C	1.484760	-0.401460	-0.917656
C32	C	1.498613	-0.184121	-0.515190
C33	C	1.504563	-0.091456	-0.509331
C34	C	1.424518	-0.350774	-0.966231
C35	C	1.424551	-0.350737	-1.086279
C36	C	1.484637	-0.401594	-0.257431
C37	C	1.484822	-0.401393	-0.141266
H38	H	1.095807	-0.307636	-0.641059
Cl39	Cl	1.602663	-0.866919	-0.411159
Cl40	Cl	1.366823	-0.935391	-0.646725
H41	H	1.372914	-0.307409	-0.918943
Cl42	Cl	1.564424	-0.468425	-0.990657
Cl43	Cl	1.344924	-0.283731	-1.150787
H44	H	0.886679	-0.307664	-0.641100
Cl45	Cl	0.937798	-0.468494	-0.449110
H46	H	1.049649	-0.444903	-0.477223
H47	H	1.536404	-0.444787	-1.099487
