data_functionalizedCrystal
_audit_creation_method	'MofGen! by Chris Wilmer'
_symmetry_space_group_name_H-M	'P1'
_symmetry_Int_Tables_number	1
_symmetry_cell_setting	triclinic
loop_
_symmetry_equiv_pos_as_xyz
  x,y,z
_cell_length_a	18.101395
_cell_length_b	16.959455
_cell_length_c	18.101389
_cell_angle_alpha	90.017877
_cell_angle_beta	89.983159
_cell_angle_gamma	89.971949
loop_
_atom_site_label
_atom_site_type_symbol
_atom_site_fract_x
_atom_site_fract_y
_atom_site_fract_z
Zn1	Zn	-0.294968	-1.208351	-0.418719
Zn2	Zn	0.038366	-0.875018	-0.085386
Zn3	Zn	0.371699	-0.541684	0.247947
Zn4	Zn	-0.418793	-1.208240	-0.294881
Zn5	Zn	-0.085460	-0.874906	0.038452
Zn6	Zn	0.247873	-0.541573	0.371785
Zn7	Zn	-0.294964	-1.076171	-0.294894
Zn8	Zn	0.038370	-0.742838	0.038439
Zn9	Zn	0.371703	-0.409504	0.371772
Zn10	Zn	-0.418765	-1.076119	-0.418684
Zn11	Zn	-0.085432	-0.742785	-0.085350
Zn12	Zn	0.247901	-0.409452	0.247983
O13	O	-0.356872	-1.142220	-0.356795
O14	O	-0.023539	-0.808887	-0.023461
O15	O	0.309794	-0.475553	0.309872
O16	O	-0.311407	-1.318947	-0.402301
O17	O	0.021927	-0.985614	-0.068968
O18	O	0.355260	-0.652280	0.264365
O19	O	-0.402377	-1.190696	-0.191250
O20	O	-0.069044	-0.857363	0.142083
O21	O	0.264290	-0.524029	0.475417
O22	O	-0.191331	-1.093774	-0.311341
O23	O	0.142002	-0.760440	0.021993
O24	O	0.475335	-0.427107	0.355326
O25	O	-0.402381	-1.318865	-0.311318
O26	O	-0.069048	-0.985532	0.022015
O27	O	0.264286	-0.652199	0.355349
O28	O	-0.191334	-1.190885	-0.402314
O29	O	0.141999	-0.857552	-0.068981
O30	O	0.475333	-0.524219	0.264352
O31	O	-0.311400	-1.093666	-0.191260
O32	O	0.021933	-0.760332	0.142074
O33	O	0.355267	-0.426999	0.475407
O34	O	-0.311373	-0.965553	-0.311306
O35	O	0.021961	-0.632220	0.022027
O36	O	0.355294	-0.298887	0.355361
O37	O	-0.402333	-1.093684	-0.522321
O38	O	-0.069000	-0.760351	-0.188988
O39	O	0.264334	-0.427017	0.144345
O40	O	-0.402329	-0.965515	-0.402253
O41	O	-0.068996	-0.632181	-0.068920
O42	O	0.264337	-0.298848	0.264413
O43	O	-0.311380	-1.190834	-0.522348
O44	O	0.021954	-0.857501	-0.189014
O45	O	0.355287	-0.524168	0.144319
O46	O	-0.522422	-1.190645	-0.311284
O47	O	-0.189089	-0.857312	0.022050
O48	O	0.144244	-0.523978	0.355383
O49	O	-0.522402	-1.093576	-0.402241
O50	O	-0.189069	-0.760243	-0.068907
O51	O	0.144265	-0.426910	0.264426
C52	C	-0.549283	-1.142114	-0.356773
C53	C	-0.215950	-0.808781	-0.023440
C54	C	0.117384	-0.475448	0.309894
C55	C	-0.631597	-1.142141	-0.356788
C56	C	-0.298264	-0.808808	-0.023455
C57	C	0.035070	-0.475475	0.309878
C58	C	-0.356848	-0.936854	-0.356778
C59	C	-0.023515	-0.603520	-0.023444
C60	C	0.309819	-0.270187	0.309889
C61	C	-0.356855	-0.848997	-0.356788
C62	C	-0.023522	-0.515664	-0.023455
C63	C	0.309811	-0.182331	0.309879
C64	C	-0.356854	-1.142266	-0.549957
C65	C	-0.023520	-0.808932	-0.216623
C66	C	0.309813	-0.475599	0.116710
C67	C	-0.356846	-1.142285	-0.632271
C68	C	-0.023512	-0.808952	-0.298938
C69	C	0.309821	-0.475619	0.034396
C70	C	-0.930688	-1.142315	-0.356828
C71	C	-0.597355	-0.808981	-0.023495
C72	C	-0.264021	-0.475648	0.309838
C73	C	-0.899381	-1.081383	-0.414198
C74	C	-0.566047	-0.748050	-0.080865
C75	C	-0.232714	-0.414717	0.252469
C76	C	-0.813763	-1.081094	-0.414019
C77	C	-0.480429	-0.747760	-0.080685
C78	C	-0.147096	-0.414427	0.252648
C79	C	-0.782305	-1.142229	-0.356809
C80	C	-0.448972	-0.808895	-0.023476
C81	C	-0.115639	-0.475562	0.309858
C82	C	-0.813441	-1.119677	-0.278760
C83	C	-0.480108	-0.786344	0.054573
C84	C	-0.146775	-0.453010	0.387907
C85	C	-0.899087	-1.119284	-0.279103
C86	C	-0.565753	-0.785951	0.054230
C87	C	-0.232420	-0.452617	0.387563
C88	C	-0.899040	-1.225932	-0.376821
C89	C	-0.565706	-0.892598	-0.043487
C90	C	-0.232373	-0.559265	0.289846
C91	C	-0.813389	-1.225440	-0.378532
C92	C	-0.480055	-0.892107	-0.045199
C93	C	-0.146722	-0.558773	0.288134
C94	C	-0.698446	-1.142181	-0.356794
C95	C	-0.365113	-0.808848	-0.023460
C96	C	-0.031779	-0.475515	0.309873
C97	C	-1.014547	-1.142360	-0.356839
C98	C	-0.681214	-0.809027	-0.023505
C99	C	-0.347881	-0.475694	0.309828
C100	C	-0.163710	-1.142348	-0.356833
C101	C	0.169623	-0.809014	-0.023499
C102	C	0.502956	-0.475681	0.309834
C103	C	-0.081396	-1.142402	-0.356849
C104	C	0.251937	-0.809069	-0.023516
C105	C	0.585270	-0.475736	0.309818
C106	C	-0.356897	-1.348388	-0.356812
C107	C	-0.023564	-1.015055	-0.023479
C108	C	0.309769	-0.681722	0.309854
C109	C	-0.356908	-1.436245	-0.356820
C110	C	-0.023575	-1.102911	-0.023486
C111	C	0.309759	-0.769578	0.309847
C112	C	-0.309473	-0.477517	-0.309537
C113	C	0.023861	-0.144184	0.023796
C114	C	0.357194	0.189149	0.357129
C115	C	-0.404333	-0.477526	-0.404095
C116	C	-0.071000	-0.144193	-0.070761
C117	C	0.262333	0.189141	0.262572
C118	C	-0.404323	-0.560072	-0.404090
C119	C	-0.070989	-0.226738	-0.070757
C120	C	0.262344	0.106595	0.262577
C121	C	-0.356887	-0.601344	-0.356808
C122	C	-0.023554	-0.268011	-0.023474
C123	C	0.309780	0.065322	0.309859
C124	C	-0.309462	-0.560071	-0.309530
C125	C	0.023871	-0.226738	0.023804
C126	C	0.357205	0.106596	0.357137
C127	C	-0.451752	-0.601351	-0.451362
C128	C	-0.118419	-0.268018	-0.118028
C129	C	0.214915	0.065315	0.215305
C130	C	-0.451744	-0.683902	-0.451359
C131	C	-0.118411	-0.350569	-0.118025
C132	C	0.214923	-0.017236	0.215308
C133	C	-0.404304	-0.725176	-0.404079
C134	C	-0.070971	-0.391843	-0.070746
C135	C	0.262363	-0.058510	0.262587
C136	C	-0.356877	-0.683898	-0.356800
C137	C	-0.023543	-0.350564	-0.023467
C138	C	0.309790	-0.017231	0.309867
C139	C	-0.309441	-0.725170	-0.309518
C140	C	0.023892	-0.391837	0.023816
C141	C	0.357226	-0.058504	0.357149
C142	C	-0.262009	-0.683893	-0.262242
C143	C	0.071324	-0.350560	0.071092
C144	C	0.404658	-0.017227	0.404425
C145	C	-0.262022	-0.601345	-0.262250
C146	C	0.071311	-0.268011	0.071083
C147	C	0.404645	0.065322	0.404416
C148	C	-0.404291	-0.807725	-0.404070
C149	C	-0.070958	-0.474391	-0.070737
C150	C	0.262376	-0.141058	0.262596
C151	C	-0.309430	-0.807724	-0.309510
C152	C	0.023903	-0.474390	0.023823
C153	C	0.357236	-0.141057	0.357157
C154	C	-0.356707	-1.142331	-0.931362
C155	C	-0.023374	-0.808998	-0.598029
C156	C	0.309960	-0.475665	-0.264695
C157	C	-0.413750	-1.080996	-0.900020
C158	C	-0.080417	-0.747663	-0.566687
C159	C	0.252916	-0.414330	-0.233354
C160	C	-0.414015	-1.081162	-0.814402
C161	C	-0.080682	-0.747829	-0.481069
C162	C	0.252652	-0.414495	-0.147735
C163	C	-0.356776	-1.142308	-0.782979
C164	C	-0.023442	-0.808974	-0.449646
C165	C	0.309891	-0.475641	-0.116313
C166	C	-0.377964	-1.225587	-0.814077
C167	C	-0.044631	-0.892253	-0.480744
C168	C	0.288703	-0.558920	-0.147410
C169	C	-0.378339	-1.225245	-0.899722
C170	C	-0.045005	-0.891912	-0.566389
C171	C	0.288328	-0.558578	-0.233055
C172	C	-0.278348	-1.121111	-0.899786
C173	C	0.054985	-0.787778	-0.566453
C174	C	0.388318	-0.454444	-0.233120
C175	C	-0.278801	-1.119258	-0.814136
C176	C	0.054532	-0.785925	-0.480802
C177	C	0.387866	-0.452592	-0.147469
C178	C	-0.356813	-1.142300	-0.699120
C179	C	-0.023480	-0.808966	-0.365787
C180	C	0.309853	-0.475633	-0.032453
C181	C	-0.356671	-1.142345	-1.015222
C182	C	-0.023338	-0.809012	-0.681888
C183	C	0.309996	-0.475678	-0.348555
C184	C	-0.356838	-1.142220	-0.164384
C185	C	-0.023504	-0.808887	0.168949
C186	C	0.309829	-0.475553	0.502282
C187	C	-0.356637	-1.142354	-0.082071
C188	C	-0.023304	-0.809020	0.251263
C189	C	0.310030	-0.475687	0.584596
H190	H	-0.792710	-1.095203	-0.471891
H191	H	-0.459377	-0.761870	-0.138558
H192	H	-0.126043	-0.428537	0.194775
H193	H	-0.434636	-1.243887	-0.792634
H194	H	-0.101303	-0.910554	-0.459301
H195	H	0.232030	-0.577220	-0.125968
H196	H	-0.471478	-1.094867	-0.921546
H197	H	-0.138144	-0.761533	-0.588213
H198	H	0.195189	-0.428200	-0.254879
Br199	Br	-0.779706	-0.977790	-0.391953
Br200	Br	-0.446373	-0.644456	-0.058619
Br201	Br	-0.113040	-0.311123	0.274714
H202	H	-0.792050	-1.059201	-0.261521
H203	H	-0.458717	-0.725868	0.071812
H204	H	-0.125384	-0.392534	0.405146
H205	H	-0.435620	-1.243234	-0.919705
H206	H	-0.102286	-0.909901	-0.586372
H207	H	0.231047	-0.576568	-0.253038
Br208	Br	-0.933648	-1.104661	-0.510973
Br209	Br	-0.600314	-0.771327	-0.177640
Br210	Br	-0.266981	-0.437994	0.155693
Br211	Br	-0.935369	-0.978711	-0.392425
Br212	Br	-0.602036	-0.645378	-0.059091
Br213	Br	-0.268702	-0.312045	0.274242
Br214	Br	-0.510813	-1.104559	-0.780257
Br215	Br	-0.177479	-0.771226	-0.446923
Br216	Br	0.155854	-0.437892	-0.113590
H217	H	-0.442957	-0.443917	-0.442585
H218	H	-0.109624	-0.110584	-0.109252
H219	H	0.223709	0.222750	0.224081
H220	H	-0.919123	-1.058161	-0.262168
H221	H	-0.585790	-0.724827	0.071165
H222	H	-0.252457	-0.391494	0.404499
H223	H	-0.400627	-1.019056	-0.920612
H224	H	-0.067293	-0.685722	-0.587279
H225	H	0.266040	-0.352389	-0.253946
Br226	Br	-0.245098	-0.421503	-0.245386
Br227	Br	0.088235	-0.088169	0.087947
Br228	Br	0.421569	0.245164	0.421281
H229	H	-0.919798	-1.161739	-0.234901
H230	H	-0.586465	-0.828405	0.098432
H231	H	-0.253131	-0.495072	0.431766
Br232	Br	-0.312049	-1.303946	-0.934285
Br233	Br	0.021284	-0.970612	-0.600952
Br234	Br	0.354618	-0.637279	-0.267619
Br235	Br	-0.779485	-1.191317	-0.205569
Br236	Br	-0.446152	-0.857984	0.127765
Br237	Br	-0.112818	-0.524651	0.461098
Br238	Br	-0.934972	-1.260203	-0.470063
Br239	Br	-0.601639	-0.926869	-0.136730
Br240	Br	-0.268305	-0.593536	0.196603
H241	H	-0.793037	-1.242446	-0.435972
H242	H	-0.459704	-0.909113	-0.102639
H243	H	-0.126370	-0.575780	0.230695
Br244	Br	-0.777686	-1.305114	-0.313970
Br245	Br	-0.444353	-0.971781	0.019363
Br246	Br	-0.111019	-0.638447	0.352696
H247	H	-0.919284	-1.271328	-0.335036
H248	H	-0.585951	-0.937994	-0.001703
H249	H	-0.252617	-0.604661	0.331631
Br250	Br	-0.197642	-0.739916	-0.198068
Br251	Br	0.135692	-0.406582	0.135265
Br252	Br	0.469025	-0.073249	0.468598
Br253	Br	-0.245044	-0.863730	-0.245344
Br254	Br	0.088290	-0.530397	0.087989
Br255	Br	0.421623	-0.197064	0.421323
H256	H	-0.490365	-0.717503	-0.489854
H257	H	-0.157032	-0.384170	-0.156521
H258	H	0.176301	-0.050836	0.176813
Br259	Br	-0.516152	-0.545336	-0.515499
Br260	Br	-0.182819	-0.212003	-0.182166
Br261	Br	0.150514	0.121330	0.151168
H262	H	-0.337722	-1.272513	-0.793725
H263	H	-0.004388	-0.939180	-0.460392
H264	H	0.328945	-0.605847	-0.127058
H265	H	-0.262823	-1.057972	-0.793810
H266	H	0.070511	-0.724639	-0.460476
H267	H	0.403844	-0.391306	-0.127143
Br268	Br	-0.468663	-0.863741	-0.468218
Br269	Br	-0.135330	-0.530407	-0.134885
Br270	Br	0.198003	-0.197074	0.198448
H271	H	-0.400756	-1.019407	-0.793376
H272	H	-0.067422	-0.686074	-0.460042
H273	H	0.265911	-0.352741	-0.126709
Br274	Br	-0.246175	-1.021653	-0.935771
Br275	Br	0.087159	-0.688320	-0.602437
Br276	Br	0.420492	-0.354986	-0.269104
H277	H	-0.223407	-0.567730	-0.223760
H278	H	0.109927	-0.234396	0.109573
H279	H	0.443260	0.098937	0.442907
H280	H	-0.234044	-1.160672	-0.792746
H281	H	0.099289	-0.827339	-0.459413
H282	H	0.432623	-0.494005	-0.126079
H283	H	-0.235848	-1.165785	-0.920056
H284	H	0.097485	-0.832451	-0.586723
H285	H	0.430819	-0.499118	-0.253390
