data_functionalizedCrystal
_audit_creation_method	'MofGen! by Chris Wilmer'
_symmetry_space_group_name_H-M	'P1'
_symmetry_Int_Tables_number	1
_symmetry_cell_setting	triclinic
loop_
_symmetry_equiv_pos_as_xyz
  x,y,z
_cell_length_a	6.817900
_cell_length_b	16.255699
_cell_length_c	16.255661
_cell_angle_alpha	95.343798
_cell_angle_beta	103.488922
_cell_angle_gamma	103.489404
loop_
_atom_site_label
_atom_site_type_symbol
_atom_site_fract_x
_atom_site_fract_y
_atom_site_fract_z
V1	V	-4.026708	-0.117774	-0.264153
O2	O	-4.014191	0.004956	-0.258836
O3	O	-3.978255	-0.232849	-0.262625
O4	O	-3.978270	-0.116271	-0.379233
O5	O	-4.014176	-0.112429	-0.141420
V6	V	-4.510347	-0.103057	-0.249440
O7	O	-4.287710	-0.150055	-0.296429
O8	O	-4.699542	-0.070776	-0.217164
O9	O	-4.335593	0.012018	-0.250969
O10	O	-4.640261	-0.225787	-0.254757
O11	O	-4.640276	-0.108402	-0.372173
O12	O	-4.335579	-0.104560	-0.134360
C13	C	-3.823245	-0.260892	-0.258529
C14	C	-3.864916	-0.354970	-0.258046
C15	C	-3.775496	-0.577782	-0.252513
C16	C	-3.859152	-0.625224	-0.184316
C17	C	-3.941316	-0.527222	-0.257203
C18	C	-3.931935	-0.647410	-0.324549
C19	C	-4.015103	-0.693609	-0.256392
C20	C	-4.024394	-0.573415	-0.188954
C21	C	-4.097180	-0.595606	-0.329250
C22	C	-4.180955	-0.643023	-0.261038
C23	C	-3.898803	-0.431370	-0.257670
C24	C	-4.057627	-0.789458	-0.255920
C25	C	-3.823262	-0.112184	-0.407274
C26	C	-3.864942	-0.111717	-0.501354
C27	C	-3.775498	-0.106134	-0.724159
C28	C	-3.931912	-0.178190	-0.793808
C29	C	-3.941326	-0.110841	-0.673600
C30	C	-3.859203	-0.037959	-0.771587
C31	C	-4.015094	-0.109990	-0.839982
C32	C	-4.097222	-0.182961	-0.742019
C33	C	-4.024451	-0.042667	-0.719783
C34	C	-4.181001	-0.114744	-0.789412
C35	C	-3.898825	-0.111331	-0.577752
C36	C	-4.057612	-0.109506	-0.935829
C37	C	-4.153946	0.040057	-0.255062
C38	C	-4.091513	0.134133	-0.255550
C39	C	-4.153929	-0.108650	-0.106315
C40	C	-4.091487	-0.109113	-0.012234
H41	H	-4.063030	-0.541300	-0.131590
H42	H	-4.063048	0.014633	-0.687537
O43	O	-3.739333	-0.641240	-0.111265
C44	C	-3.526244	-0.607866	-0.106981
H45	H	-3.507586	-0.601753	-0.174210
H46	H	-3.465643	-0.542091	-0.065408
C47	C	-3.423459	-0.676024	0.014928
C48	C	-3.400541	-0.668524	-0.067645
H49	H	-3.345915	-0.713438	0.039195
H50	H	-3.567021	-0.698507	0.012044
H51	H	-3.372960	-0.621208	0.049561
H52	H	-3.451063	-0.723338	-0.102280
H53	H	-3.256984	-0.646052	-0.064766
O54	O	-3.739728	0.035090	-0.787762
C55	C	-3.782450	0.034905	-0.876935
H56	H	-3.849112	-0.033815	-0.911701
H57	H	-3.900939	0.073345	-0.896951
C58	C	-3.497134	0.160009	-0.857644
C59	C	-3.578992	0.075605	-0.900344
H60	H	-3.371636	0.185118	-0.872084
H61	H	-3.468355	0.160136	-0.797566
H62	H	-3.595894	0.192032	-0.874328
H63	H	-3.480244	0.043582	-0.883652
H64	H	-3.607751	0.075474	-0.960420
H65	H	-4.352788	-0.671366	-0.264621
O66	O	-3.570597	-0.543625	-0.248162
C67	C	-3.534093	-0.454786	-0.249395
H68	H	-3.687054	-0.439636	-0.280354
H69	H	-3.469723	-0.418939	-0.181032
C70	C	-3.186676	-0.445240	-0.263248
C71	C	-3.374543	-0.426634	-0.301278
H72	H	-3.088252	-0.427873	-0.295248
H73	H	-3.211265	-0.505092	-0.262414
H74	H	-3.133062	-0.415366	-0.206280
H75	H	-3.428167	-0.456516	-0.358241
H76	H	-3.349959	-0.366786	-0.302124
H77	H	-3.893237	-0.235487	-0.826031
O78	O	-3.885745	-0.685700	-0.392970
C79	C	-3.811831	-0.623130	-0.440923
H80	H	-3.870893	-0.564428	-0.427811
H81	H	-3.633582	-0.604059	-0.421665
C82	C	-3.819552	-0.731937	-0.553132
C83	C	-3.892108	-0.659841	-0.537034
H84	H	-3.869061	-0.754582	-0.612418
H85	H	-3.869341	-0.774092	-0.520825
H86	H	-3.671013	-0.716035	-0.537078
H87	H	-4.040642	-0.675746	-0.553078
H88	H	-3.842345	-0.617689	-0.569347
O89	O	-4.216560	-0.256122	-0.725988
C90	C	-4.175467	-0.255702	-0.636808
H91	H	-4.014278	-0.211249	-0.603863
H92	H	-4.298977	-0.232162	-0.611917
C93	C	-4.379448	-0.401690	-0.657980
C94	C	-4.181466	-0.347098	-0.617518
H95	H	-4.383158	-0.458067	-0.646080
H96	H	-4.407141	-0.401973	-0.718062
H97	H	-4.482352	-0.382062	-0.637233
H98	H	-4.078570	-0.366719	-0.638272
H99	H	-4.153756	-0.346821	-0.557438
O100	O	-4.386131	-0.119257	-0.823232
C101	C	-4.511283	-0.195743	-0.808458
H102	H	-4.415583	-0.244584	-0.798163
H103	H	-4.567428	-0.182086	-0.749077
C104	C	-4.818969	-0.171778	-0.899086
C105	C	-4.701432	-0.231768	-0.886449
H106	H	-4.936267	-0.193999	-0.947192
H107	H	-4.734654	-0.120246	-0.909037
H108	H	-4.865735	-0.160403	-0.849596
H109	H	-4.654646	-0.243135	-0.935934
H110	H	-4.785744	-0.283303	-0.876508
H111	H	-4.197293	-0.582137	-0.390532
O112	O	-3.570705	-0.102016	-0.690080
C113	C	-3.555484	-0.174858	-0.650794
H114	H	-3.707585	-0.202574	-0.633471
H115	H	-3.526001	-0.224983	-0.696929
C116	C	-3.186410	-0.115233	-0.590237
C117	C	-3.373216	-0.149270	-0.568954
H118	H	-3.073973	-0.099451	-0.539756
H119	H	-3.196661	-0.066159	-0.616707
H120	H	-3.161869	-0.157010	-0.628684
H121	H	-3.397768	-0.107490	-0.530516
H122	H	-3.362965	-0.198336	-0.542475
