data_functionalizedCrystal
_audit_creation_method	'MofGen! by Chris Wilmer'
_symmetry_space_group_name_H-M	'P1'
_symmetry_Int_Tables_number	1
_symmetry_cell_setting	triclinic
loop_
_symmetry_equiv_pos_as_xyz
  x,y,z
_cell_length_a	13.032721
_cell_length_b	11.169417
_cell_length_c	11.169409
_cell_angle_alpha	90.021683
_cell_angle_beta	97.146003
_cell_angle_gamma	82.796695
loop_
_atom_site_label
_atom_site_type_symbol
_atom_site_fract_x
_atom_site_fract_y
_atom_site_fract_z
Zn1	Zn	-0.415978	-1.774202	-0.739228
Zn2	Zn	-0.082645	-1.440868	-0.405895
Zn3	Zn	0.250689	-1.107535	-0.072562
Zn4	Zn	-0.590765	-1.748560	-0.564019
Zn5	Zn	-0.257432	-1.415227	-0.230686
Zn6	Zn	0.075901	-1.081894	0.102647
Zn7	Zn	-0.416036	-1.573479	-0.538565
Zn8	Zn	-0.082702	-1.240146	-0.205231
Zn9	Zn	0.250631	-0.906812	0.128102
Zn10	Zn	-0.590674	-1.547978	-0.764644
Zn11	Zn	-0.257341	-1.214644	-0.431311
Zn12	Zn	0.075992	-0.881311	-0.097978
O13	O	-0.503363	-1.661055	-0.651614
O14	O	-0.170030	-1.327721	-0.318281
O15	O	0.163303	-0.994388	0.015052
O16	O	-0.439178	-1.938748	-0.716003
O17	O	-0.105844	-1.605415	-0.382669
O18	O	0.227489	-1.272081	-0.049336
O19	O	-0.567649	-1.725277	-0.392702
O20	O	-0.234316	-1.391944	-0.059369
O21	O	0.099017	-1.058610	0.273965
O22	O	-0.269792	-1.621509	-0.543893
O23	O	0.063541	-1.288175	-0.210560
O24	O	0.396875	-0.954842	0.122773
O25	O	-0.567593	-1.919909	-0.587277
O26	O	-0.234260	-1.586576	-0.253944
O27	O	0.099073	-1.253243	0.079389
O28	O	-0.269750	-1.768979	-0.691320
O29	O	0.063584	-1.435645	-0.357987
O30	O	0.396917	-1.102312	-0.024654
O31	O	-0.439276	-1.596645	-0.374000
O32	O	-0.105943	-1.263312	-0.040667
O33	O	0.227390	-0.929979	0.292666
O34	O	-0.439188	-1.402149	-0.568538
O35	O	-0.105855	-1.068815	-0.235205
O36	O	0.227479	-0.735482	0.098128
O37	O	-0.567438	-1.578045	-0.929214
O38	O	-0.234105	-1.244712	-0.595880
O39	O	0.099228	-0.911379	-0.262547
O40	O	-0.567494	-1.383413	-0.734638
O41	O	-0.234161	-1.050079	-0.401305
O42	O	0.099172	-0.716746	-0.067972
O43	O	-0.439089	-1.744251	-0.910541
O44	O	-0.105756	-1.410918	-0.577207
O45	O	0.227577	-1.077584	-0.243874
O46	O	-0.736989	-1.700549	-0.611922
O47	O	-0.403656	-1.367216	-0.278589
O48	O	-0.070323	-1.033882	0.054744
O49	O	-0.736922	-1.553182	-0.759321
O50	O	-0.403589	-1.219848	-0.425987
O51	O	-0.070256	-0.886515	-0.092654
C52	C	-0.503338	-1.349234	-0.651585
C53	C	-0.170005	-1.015900	-0.318252
C54	C	0.163328	-0.682567	0.015082
C55	C	-0.503353	-1.215831	-0.651605
C56	C	-0.170019	-0.882498	-0.318271
C57	C	0.163314	-0.549165	0.015062
C58	C	-0.774873	-1.621348	-0.691168
C59	C	-0.441540	-1.288015	-0.357835
C60	C	-0.108206	-0.954682	-0.024501
C61	C	-0.891026	-1.604472	-0.708129
C62	C	-0.557693	-1.271138	-0.374796
C63	C	-0.224360	-0.937805	-0.041463
C64	C	-0.942809	-1.669926	-0.642816
C65	C	-0.609476	-1.336593	-0.309483
C66	C	-0.276143	-1.003260	0.023851
C67	C	-1.062860	-1.652485	-0.660345
C68	C	-0.729526	-1.319152	-0.327011
C69	C	-0.396193	-0.985819	0.006322
C70	C	-0.230793	-1.700949	-0.611932
C71	C	0.102540	-1.367615	-0.278599
C72	C	0.435873	-1.034282	0.054734
C73	C	-0.114640	-1.717949	-0.595022
C74	C	0.218693	-1.384616	-0.261689
C75	C	0.552027	-1.051282	0.071644
C76	C	-0.503247	-1.661164	-0.964640
C77	C	-0.169914	-1.327830	-0.631307
C78	C	0.163419	-0.994497	-0.297973
C79	C	-0.503198	-1.661210	-1.098033
C80	C	-0.169864	-1.327877	-0.764699
C81	C	0.163469	-0.994544	-0.431366
C82	C	-0.503380	-0.974094	-0.651634
C83	C	-0.170047	-0.640761	-0.318300
C84	C	0.163286	-0.307428	0.015033
C85	C	-0.503365	-1.107497	-0.651614
C86	C	-0.170032	-0.774163	-0.318281
C87	C	0.163302	-0.440830	0.015052
C88	C	-0.503403	-1.661026	-0.339795
C89	C	-0.170070	-1.327693	-0.006462
C90	C	0.163263	-0.994359	0.326871
C91	C	-0.503159	-1.661255	-0.206360
C92	C	-0.169825	-1.327922	0.126973
C93	C	0.163508	-0.994588	0.460306
H94	H	-1.107399	-1.583535	-0.729248
H95	H	-0.774065	-1.250201	-0.395915
H96	H	-0.440732	-0.916868	-0.062582
Br97	Br	-0.868579	-1.784865	-0.527994
Br98	Br	-0.535246	-1.451532	-0.194661
Br99	Br	-0.201912	-1.118198	0.138673
Br100	Br	-1.040417	-1.832891	-0.480192
Br101	Br	-0.707083	-1.499558	-0.146859
Br102	Br	-0.373750	-1.166224	0.186475
Br103	Br	-0.965257	-1.489555	-0.822973
Br104	Br	-0.631923	-1.156221	-0.489639
Br105	Br	-0.298590	-0.822888	-0.156306
