data_functionalizedCrystal
_audit_creation_method	'MofGen! by Chris Wilmer'
_symmetry_space_group_name_H-M	'P1'
_symmetry_Int_Tables_number	1
_symmetry_cell_setting	triclinic
loop_
_symmetry_equiv_pos_as_xyz
  x,y,z
_cell_length_a	29.839131
_cell_length_b	14.908571
_cell_length_c	14.908308
_cell_angle_alpha	90.175053
_cell_angle_beta	86.738717
_cell_angle_gamma	93.262683
loop_
_atom_site_label
_atom_site_type_symbol
_atom_site_fract_x
_atom_site_fract_y
_atom_site_fract_z
Zn1	Zn	-0.234441	-1.345126	0.587534
Zn2	Zn	-0.305498	-1.353655	0.437159
Zn3	Zn	-0.225812	-1.203447	0.428533
Zn4	Zn	-0.304964	-1.194683	0.578811
O5	O	-0.267679	-1.274228	0.508009
O6	O	-0.247701	-1.472080	0.574847
O7	O	-0.291540	-1.340967	0.310191
O8	O	-0.164094	-1.222340	0.449665
O9	O	-0.299907	-1.478346	0.464367
O10	O	-0.170433	-1.326430	0.566482
O11	O	-0.232995	-1.230610	0.303854
O12	O	-0.232477	-1.076461	0.441208
O13	O	-0.298997	-1.207402	0.705792
O14	O	-0.290630	-1.070022	0.551616
O15	O	-0.247184	-1.317932	0.712201
O16	O	-0.368290	-1.332468	0.455909
O17	O	-0.367898	-1.215672	0.559980
C18	C	-0.260560	-1.040617	0.494530
C19	C	-0.257526	-0.940676	0.488784
C20	C	-0.384395	-1.274068	0.507955
C21	C	-0.434330	-1.274080	0.507967
C22	C	-0.273993	-1.260738	0.742533
C23	C	-0.276684	-1.254989	0.842474
C24	C	-0.744176	-1.335143	0.453910
C25	C	-0.931853	-1.335252	0.453951
O26	O	-0.956286	-1.387043	0.407948
N27	N	-0.955128	-1.274410	0.508088
C28	C	-0.931481	-1.213541	0.562223
O29	O	-0.955585	-1.161800	0.608278
C30	C	-0.743805	-1.213437	0.562186
C31	C	-0.720532	-1.274276	0.508038
C32	C	-0.720903	-1.395978	0.399768
C33	C	-0.673987	-1.395947	0.399754
C34	C	-0.650343	-1.335081	0.453883
C35	C	-0.673615	-1.274245	0.508025
C36	C	-0.720159	-1.152572	0.616325
C37	C	-0.673237	-1.152553	0.616312
C38	C	-0.649964	-1.213393	0.562165
C39	C	-0.603055	-1.213348	0.562140
N40	N	-0.579780	-1.274189	0.508003
C41	C	-0.603424	-1.335056	0.453875
C42	C	-1.030014	-1.213598	0.562237
C43	C	-1.076933	-1.213623	0.562245
C44	C	-1.077302	-1.335336	0.453975
C45	C	-1.030382	-1.335306	0.453962
C46	C	-1.006739	-1.274440	0.508100
C47	C	-0.504895	-1.334986	0.453850
C48	C	-0.457974	-1.334947	0.453839
C49	C	-0.457609	-1.213238	0.562112
C50	C	-0.504526	-1.213273	0.562121
C51	C	-0.528168	-1.274154	0.507987
O52	O	-0.578594	-1.161590	0.608127
O53	O	-0.579313	-1.386803	0.407842
C54	C	-0.791093	-1.335174	0.453923
C55	C	-0.814366	-1.274339	0.508065
C56	C	-0.790722	-1.213472	0.562194
C57	C	-0.861284	-1.274363	0.508074
C58	C	-0.884928	-1.335230	0.453945
C59	C	-0.861654	-1.396072	0.399808
C60	C	-0.814737	-1.396041	0.399794
C61	C	-0.813996	-1.152630	0.616331
C62	C	-0.860913	-1.152666	0.616339
C63	C	-0.884557	-1.213532	0.562211
C64	C	-0.150508	-1.274411	0.508085
C65	C	-0.100577	-1.274490	0.508117
C66	C	-0.274826	-1.508750	0.521542
C67	C	-0.277872	-1.608690	0.527309
C68	C	-0.312463	-0.746229	0.592802
C69	C	-0.309614	-0.652326	0.587407
C70	C	-0.248976	-0.658964	0.472604
C71	C	-0.251825	-0.752867	0.477999
C72	C	-0.283570	-0.796497	0.538099
C73	C	-0.286422	-0.890402	0.543489
C74	C	-0.225781	-0.897038	0.428692
C75	C	-0.222932	-0.803135	0.423297
C76	C	-0.261358	-1.287717	0.274401
C77	C	-0.258546	-1.293639	0.174471
C78	C	-0.227777	-1.359279	1.036946
C79	C	-0.230304	-1.353881	1.130849
C80	C	-0.284262	-1.238790	1.124184
C81	C	-0.281735	-1.244189	1.030281
C82	C	-0.253492	-1.304436	0.986666
C83	C	-0.250968	-1.309839	0.892761
C84	C	-0.304924	-1.194744	0.886097
C85	C	-0.307450	-1.189345	0.980000
H86	H	-0.439027	-1.384490	0.409742
N87	N	-0.332665	-1.135592	0.831867
H88	H	-0.326781	-1.148154	0.765761
H89	H	-0.324161	-1.070441	0.844577
N90	N	-0.530391	-1.400649	0.395465
H91	H	-0.508522	-1.439177	0.361168
H92	H	-0.547650	-1.366492	0.351717
H93	H	-0.655041	-1.445491	0.355666
H94	H	-1.011436	-1.384847	0.409871
H95	H	-0.202255	-0.937977	0.384147
H96	H	-0.209362	-1.398538	1.171784
N97	N	-0.340780	-0.598106	0.646398
H98	H	-0.322498	-0.556774	0.685895
H99	H	-0.361317	-0.640056	0.685229
N100	N	-1.102807	-1.400984	0.395589
H101	H	-1.136061	-1.391762	0.403815
H102	H	-1.096907	-1.464376	0.413344
H103	H	-1.095877	-1.164073	0.606329
H104	H	-0.307256	-1.189739	1.159711
H105	H	-0.740149	-1.445548	0.355689
N106	N	-0.337901	-1.124349	1.027043
H107	H	-0.335597	-1.129244	1.094160
H108	H	-0.369972	-1.139228	1.011427
H109	H	-0.739099	-1.103026	0.660413
N110	N	-1.004516	-1.147942	0.620628
H111	H	-1.026384	-1.109406	0.654916
H112	H	-0.982826	-1.108457	0.581589
H113	H	-0.653989	-1.102990	0.660401
H114	H	-0.312271	-0.925924	0.592424
H115	H	-0.227972	-1.358896	0.857251
N116	N	-0.197322	-1.424265	0.989897
H117	H	-0.181417	-1.458194	1.036000
H118	H	-0.174369	-1.389940	0.948836
N119	N	-0.214753	-0.611901	0.407756
H120	H	-0.217339	-0.544787	0.412631
H121	H	-0.220486	-0.632001	0.344470
N122	N	-0.188703	-0.756070	0.358463
H123	H	-0.167713	-0.715027	0.392825
H124	H	-0.204668	-0.719538	0.314518
N125	N	-0.529630	-1.147646	0.620510
H126	H	-0.507530	-1.109081	0.654795
H127	H	-0.551302	-1.181832	0.664269
H128	H	-0.438351	-1.163678	0.606181
H129	H	-0.795792	-1.445582	0.355703
H130	H	-0.880912	-1.445629	0.355732
H131	H	-0.879858	-1.103115	0.660431
H132	H	-0.338314	-0.781753	0.641733
N133	N	-0.788498	-1.086976	0.674713
H134	H	-0.810366	-1.048442	0.709005
H135	H	-0.766810	-1.047489	0.635671
