data_functionalizedCrystal
_audit_creation_method	'MofGen! by Chris Wilmer'
_symmetry_space_group_name_H-M	'P1'
_symmetry_Int_Tables_number	1
_symmetry_cell_setting	triclinic
loop_
_symmetry_equiv_pos_as_xyz
  x,y,z
_cell_length_a	10.654562
_cell_length_b	10.654550
_cell_length_c	18.366186
_cell_angle_alpha	89.994973
_cell_angle_beta	89.988154
_cell_angle_gamma	84.487503
loop_
_atom_site_label
_atom_site_type_symbol
_atom_site_fract_x
_atom_site_fract_y
_atom_site_fract_z
O1	O	1.667840	0.176477	-0.060596
O2	O	2.167840	0.676477	0.439404
O3	O	1.302364	0.193266	-0.060586
O4	O	1.802364	0.693266	0.439414
O5	O	1.493505	0.002132	-0.060588
O6	O	1.993505	0.502132	0.439412
O7	O	1.476699	0.367610	-0.060593
O8	O	1.976699	0.867610	0.439407
O9	O	1.493472	0.002123	0.060511
O10	O	1.993472	0.502123	0.560511
O11	O	1.302331	0.193256	0.060513
O12	O	1.802331	0.693256	0.560513
O13	O	1.667807	0.176467	0.060504
O14	O	2.167807	0.676467	0.560504
Zn15	Zn	1.485064	0.184860	0.079736
Zn16	Zn	1.985064	0.684860	0.579736
Zn17	Zn	1.485107	0.184873	-0.079818
Zn18	Zn	1.985107	0.684873	0.420182
O19	O	1.476666	0.367600	0.060506
O20	O	1.976666	0.867600	0.560506
C21	C	1.255549	0.192025	-0.000035
C22	C	1.755549	0.692025	0.499965
C23	C	1.116107	0.188327	-0.000032
C24	C	1.616107	0.688327	0.499968
C25	C	1.050558	0.186596	0.065974
C26	C	1.550558	0.686596	0.565974
C27	C	0.919536	0.183131	0.065962
C28	C	1.419536	0.683131	0.565962
C29	C	0.919622	0.183133	-0.066068
C30	C	1.419622	0.683133	0.433932
C31	C	1.050643	0.186589	-0.066055
C32	C	1.550643	0.686589	0.433945
C33	C	1.050507	0.186601	0.142200
C34	C	1.550507	0.686601	0.642200
C35	C	0.919485	0.183136	0.142188
C36	C	1.419485	0.683136	0.642188
C37	C	1.492254	-0.044671	-0.000040
C38	C	1.992254	0.455329	0.499960
C39	C	1.488563	-0.184114	-0.000042
C40	C	1.988563	0.315886	0.499958
C41	C	1.601103	-0.263595	-0.000043
C42	C	2.101103	0.236405	0.499957
C43	C	1.597627	-0.394615	-0.000048
C44	C	2.097627	0.105385	0.499952
C45	C	1.369059	-0.366662	-0.000048
C46	C	1.869059	0.133338	0.499952
C47	C	1.372537	-0.235644	-0.000049
C48	C	1.872537	0.264356	0.499951
C49	C	1.733066	-0.279734	-0.000039
C50	C	2.233066	0.220266	0.499961
C51	C	1.729589	-0.410755	-0.000044
C52	C	2.229589	0.089245	0.499956
C53	C	1.714621	0.177708	-0.000049
C54	C	2.214621	0.677708	0.499951
C55	C	1.854064	0.181406	-0.000057
C56	C	2.354064	0.681406	0.499943
C57	C	1.477916	0.414403	-0.000045
C58	C	1.977916	0.914403	0.499955
C59	C	1.481608	0.553847	-0.000047
C60	C	1.981608	1.053847	0.499953
N61	N	1.485043	0.184850	0.188627
N62	N	1.985043	0.684850	0.688627
N63	N	1.485137	0.184873	-0.188709
N64	N	1.985137	0.684873	0.311291
C65	C	1.569709	0.100259	0.226726
C66	C	2.069709	0.600259	0.726726
C67	C	1.569717	0.100253	0.302954
C68	C	2.069717	0.600253	0.802954
C69	C	1.485071	0.184861	0.341079
C70	C	1.985071	0.684861	0.841079
C71	C	1.400390	0.269459	0.302971
C72	C	1.900390	0.769459	0.802971
C73	C	1.400376	0.269454	0.226744
C74	C	1.900376	0.769454	0.726744
C75	C	1.469613	0.299099	0.461838
C76	C	1.969613	0.799099	0.961838
C77	C	1.469636	0.299106	0.538063
C78	C	1.969636	0.799106	1.038063
C79	C	1.485107	0.184877	0.576187
C80	C	1.985107	0.684877	1.076187
C81	C	1.500582	0.070637	0.538076
C82	C	2.000582	0.570637	1.038076
C83	C	1.500568	0.070631	0.461850
C84	C	2.000568	0.570631	0.961850
C85	C	1.485076	0.184876	0.423734
C86	C	1.985076	0.684876	0.923734
C87	C	1.569786	0.100272	0.696941
C88	C	2.069786	0.600272	1.196941
C89	C	1.569785	0.100265	0.773171
C90	C	2.069785	0.600265	1.273171
C91	C	1.400464	0.269482	0.773186
C92	C	1.900464	0.769482	1.273186
C93	C	1.400459	0.269478	0.696958
C94	C	1.900459	0.769478	1.196958
C95	C	1.485126	0.184875	0.658840
C96	C	1.985126	0.684875	1.158840
H97	H	0.889890	0.091540	0.165842
H98	H	1.389890	0.591540	0.665842
Cl99	Cl	1.812773	-0.234387	-0.078279
Cl100	Cl	2.312773	0.265613	0.421721
H101	H	1.513165	-0.022387	0.430823
H102	H	2.013165	0.477613	0.930823
H103	H	1.274594	-0.408635	-0.000054
H104	H	1.774594	0.091365	0.499946
H105	H	1.775073	-0.244110	0.052248
H106	H	2.275073	0.255890	0.552248
H107	H	1.080075	0.278195	0.165850
H108	H	1.580075	0.778195	0.665850
Cl109	Cl	1.294043	0.375837	0.821110
Cl110	Cl	1.794043	0.875837	1.321110
Cl111	Cl	0.837317	0.180934	-0.149063
Cl112	Cl	1.337317	0.680934	0.350937
H113	H	1.769484	-0.456392	-0.052333
H114	H	2.269484	0.043608	0.447667
Cl115	Cl	1.676223	-0.006095	0.821070
Cl116	Cl	2.176223	0.493905	1.321070
H117	H	1.331521	0.338366	0.665935
H118	H	1.831521	0.838366	1.165935
H119	H	1.331429	0.338340	0.195723
H120	H	1.831429	0.838340	0.695723
H121	H	0.873191	0.269930	0.171450
H122	H	1.373191	0.769930	0.671450
H123	H	1.280895	-0.170935	-0.000058
H124	H	1.780895	0.329065	0.499942
H125	H	1.779297	-0.452517	0.050633
H126	H	2.279297	0.047483	0.550633
Cl127	Cl	1.676139	-0.006104	0.178807
Cl128	Cl	2.176139	0.493896	0.678807
Cl129	Cl	1.676165	-0.006099	0.350858
Cl130	Cl	2.176165	0.493901	0.850858
H131	H	1.457043	0.392127	0.569087
H132	H	1.957043	0.892127	1.069087
H133	H	1.513180	-0.022379	0.569115
H134	H	2.013180	0.477621	1.069115
H135	H	1.638724	0.031379	0.665905
H136	H	2.138724	0.531379	1.165905
H137	H	1.331468	0.338346	0.334016
H138	H	1.831468	0.838346	0.834016
Cl139	Cl	1.133047	0.188736	-0.149037
Cl140	Cl	1.633047	0.688736	0.350963
Cl141	Cl	1.450279	0.442720	0.413920
Cl142	Cl	1.950279	0.942720	0.913920
H143	H	1.096759	0.099805	0.171473
H144	H	1.596759	0.599805	0.671473
