data_functionalizedCrystal
_audit_creation_method	'MofGen! by Chris Wilmer'
_symmetry_space_group_name_H-M	'P1'
_symmetry_Int_Tables_number	1
_symmetry_cell_setting	triclinic
loop_
_symmetry_equiv_pos_as_xyz
  x,y,z
_cell_length_a	15.298114
_cell_length_b	15.297510
_cell_length_c	19.805399
_cell_angle_alpha	80.348499
_cell_angle_beta	99.673831
_cell_angle_gamma	91.576150
loop_
_atom_site_label
_atom_site_type_symbol
_atom_site_fract_x
_atom_site_fract_y
_atom_site_fract_z
Zn1	Zn	1.278548	0.580213	-0.291679
Zn2	Zn	1.253085	0.726681	-0.200817
Zn3	Zn	1.132086	0.554919	-0.194277
Zn4	Zn	1.106699	0.701327	-0.329720
O5	O	1.192604	0.640785	-0.254123
O6	O	1.397728	0.620839	-0.266443
O7	O	1.237003	0.703921	-0.105240
O8	O	1.172796	0.435705	-0.188540
O9	O	1.379021	0.728448	-0.199687
O10	O	1.280400	0.454289	-0.260101
O11	O	1.148106	0.577729	-0.100435
O12	O	1.006161	0.553144	-0.225427
O13	O	1.129526	0.685236	-0.419383
O14	O	0.987509	0.660709	-0.324936
O15	O	1.255783	0.596254	-0.391434
O16	O	1.212386	0.845886	-0.236573
O17	O	1.104836	0.827259	-0.331278
C18	C	0.965057	0.601431	-0.278600
C19	C	0.867707	0.584617	-0.289091
C20	C	1.153117	0.868358	-0.288775
C21	C	1.136304	0.965728	-0.303614
C22	C	0.554393	0.760968	-0.179312
C23	C	0.645858	0.776765	-0.169451
C24	C	0.701325	0.728730	-0.199360
C25	C	0.665318	0.664894	-0.239132
C26	C	0.573845	0.649090	-0.248991
C27	C	0.720776	0.616852	-0.269038
C28	C	0.684769	0.553016	-0.308811
C29	C	0.593304	0.537216	-0.318668
C30	C	0.537838	0.585251	-0.288758
C31	C	0.812249	0.632655	-0.259180
C32	C	0.831700	0.520778	-0.328859
C33	C	0.740235	0.504980	-0.338720
C34	C	1.313086	1.278901	-0.148307
C35	C	1.328882	1.187416	-0.134362
C36	C	1.280739	1.131990	-0.176674
C37	C	1.216797	1.168057	-0.232933
C38	C	1.200994	1.259549	-0.246876
C39	C	1.168647	1.112638	-0.275243
C40	C	1.104705	1.148705	-0.331501
C41	C	1.088906	1.240189	-0.345442
C42	C	1.137049	1.295615	-0.303130
C43	C	1.184450	1.021146	-0.261300
C44	C	1.072358	1.001794	-0.359868
C45	C	1.056562	1.093279	-0.373813
C46	C	1.421041	0.680293	-0.229551
C47	C	1.518387	0.697129	-0.219080
C48	C	1.192663	0.640738	-0.430652
C49	C	1.192688	0.640718	-0.505878
C50	C	1.232262	1.412326	-0.219356
C51	C	1.249141	1.314967	-0.204562
C52	C	1.258432	0.594383	-0.526670
C53	C	1.258445	0.594359	-0.597354
C54	C	1.192718	0.640676	-0.647245
C55	C	1.126968	0.687013	-0.626449
C56	C	1.126951	0.687031	-0.555766
C57	C	1.127031	0.686940	-0.911505
C58	C	1.127054	0.686920	-0.982191
C59	C	1.258525	0.594268	-0.953092
C60	C	1.258509	0.594286	-0.882410
C61	C	1.192756	0.640619	-0.861620
C62	C	1.192742	0.640642	-0.784976
C63	C	1.192735	0.640658	-0.723887
C64	C	1.192607	0.640777	-0.078266
C65	C	1.192795	0.640579	-0.002984
H66	H	0.841557	0.684631	-0.226797
C67	C	1.330738	0.543429	-0.471796
N68	N	1.385198	0.505045	-0.430465
H69	H	1.293604	1.057499	-0.165316
C70	C	1.254787	0.981483	-0.199417
N71	N	1.307769	0.951611	-0.152804
H72	H	1.380943	1.158054	-0.088556
C73	C	0.493376	0.813795	-0.146413
N74	N	0.447416	0.853587	-0.121631
C75	C	0.437221	0.567869	-0.299597
N76	N	0.361435	0.554776	-0.307756
C77	C	1.366026	1.339873	-0.101765
N78	N	1.405902	1.385798	-0.066704
C79	C	1.330811	0.543330	-0.827533
N80	N	1.385267	0.504943	-0.786200
H81	H	1.073527	0.724638	-1.022813
H82	H	0.563992	0.485230	-0.351048
C83	C	1.119673	1.396255	-0.318464
N84	N	1.106585	1.472058	-0.330011
H85	H	1.073502	0.724682	-0.894587
H86	H	0.710905	0.453004	-0.371103
H87	H	1.073449	0.724721	-0.667076
H88	H	1.004499	1.122658	-0.419620
H89	H	0.775799	0.741595	-0.191328
C90	C	0.892710	0.467936	-0.361762
N91	N	0.938668	0.428139	-0.386543
H92	H	1.036829	1.269550	-0.391245
H93	H	1.033154	0.956666	-0.394321
C94	C	1.330770	0.543388	-0.620221
N95	N	1.385248	0.504995	-0.637443
C96	C	1.330846	0.543288	-0.975967
N97	N	1.385316	0.504890	-0.993195
H98	H	1.073409	0.724752	-0.538839
H99	H	0.675169	0.828739	-0.137066
