data_functionalizedCrystal
_audit_creation_method	'MofGen! by Chris Wilmer'
_symmetry_space_group_name_H-M	'P1'
_symmetry_Int_Tables_number	1
_symmetry_cell_setting	triclinic
loop_
_symmetry_equiv_pos_as_xyz
  x,y,z
_cell_length_a	13.635800
_cell_length_b	11.168136
_cell_length_c	19.551823
_cell_angle_alpha	85.450773
_cell_angle_beta	101.663376
_cell_angle_gamma	71.491317
loop_
_atom_site_label
_atom_site_type_symbol
_atom_site_fract_x
_atom_site_fract_y
_atom_site_fract_z
V1	V	2.037690	-0.394290	0.096685
O2	O	2.035560	-0.386176	-0.004635
O3	O	2.008882	-0.392177	0.191700
O4	O	2.026100	-0.565986	0.095203
O5	O	2.018223	-0.211164	0.092530
V6	V	2.278468	-0.372315	0.084566
O7	O	2.170479	-0.442492	0.123271
O8	O	2.370778	-0.324113	0.057980
O9	O	2.195673	-0.374428	-0.010449
O10	O	2.339296	-0.380429	0.185886
O11	O	2.356634	-0.555441	0.088721
O12	O	2.178455	-0.200619	0.086048
V13	V	2.537690	-0.394290	0.096685
O14	O	2.535560	-0.386176	-0.004635
O15	O	2.508882	-0.392177	0.191700
O16	O	2.526100	-0.565986	0.095203
O17	O	2.518223	-0.211164	0.092530
V18	V	2.778468	-0.372315	0.084566
O19	O	2.670479	-0.442492	0.123271
O20	O	2.870778	-0.324113	0.057980
O21	O	2.695673	-0.374428	-0.010449
O22	O	2.839296	-0.380429	0.185886
O23	O	2.856634	-0.555441	0.088721
O24	O	2.678455	-0.200619	0.086048
C25	C	1.951816	-0.607817	0.091770
C26	C	1.982951	-0.748184	0.091186
C27	C	2.083660	-0.816895	0.094240
C28	C	2.115842	-0.961971	0.093638
C29	C	1.929853	-0.386108	0.214863
C30	C	1.947026	-0.385525	0.292539
C31	C	2.106372	-0.380494	-0.033608
C32	C	2.078819	-0.381084	-0.111284
C33	C	2.084409	-0.158781	0.089484
C34	C	2.042893	-0.018413	0.090063
C35	C	2.429853	-0.386108	0.214863
C36	C	2.447026	-0.385525	0.292539
C37	C	2.451816	-0.607817	0.091770
C38	C	2.482951	-0.748184	0.091186
C39	C	2.046440	-0.391566	0.332585
C40	C	2.062579	-0.391031	0.405571
C41	C	1.979292	-0.384430	0.438506
C42	C	1.879865	-0.378396	0.398452
C43	C	1.863732	-0.378944	0.325468
C44	C	1.916797	-0.304360	0.544992
C45	C	1.932932	-0.303805	0.617974
C46	C	2.029049	-0.382747	0.663612
C47	C	2.109043	-0.462229	0.636259
C48	C	2.092910	-0.462776	0.563276
C49	C	1.996776	-0.383837	0.517644
C50	C	2.145970	-0.388210	0.782798
C51	C	2.162108	-0.387683	0.855786
C52	C	1.979388	-0.375035	0.848664
C53	C	1.963257	-0.375575	0.775679
C54	C	2.046550	-0.382157	0.742750
C55	C	2.606372	-0.380494	-0.033608
C56	C	2.578819	-0.381084	-0.111284
C57	C	2.584409	-0.158781	0.089484
C58	C	2.542893	-0.018413	0.090063
C59	C	2.546454	-0.391582	0.332580
C60	C	2.562608	-0.391054	0.405567
C61	C	2.479331	-0.384460	0.438511
C62	C	2.379896	-0.378406	0.398466
C63	C	2.363745	-0.378944	0.325481
C64	C	2.651885	-0.375031	-0.151324
C65	C	2.626003	-0.375565	-0.224310
C66	C	2.527057	-0.382162	-0.257255
C67	C	2.453985	-0.388212	-0.217209
C68	C	2.479865	-0.387669	-0.144225
C69	C	2.583660	-0.816895	0.094240
C70	C	2.615842	-0.961971	0.093638
H71	H	2.146055	-0.768314	0.097297
O72	O	2.218762	-1.032590	0.096848
C73	C	2.258635	-1.126751	0.157544
H74	H	2.189490	-1.146612	0.174703
H75	H	2.313846	-1.218345	0.144959
H76	H	2.304809	-1.091440	0.202049
H77	H	2.643578	-0.395981	0.438162
H78	H	2.702117	-1.021038	0.096255
H79	H	2.158044	-0.527495	0.541008
O80	O	1.940026	-0.947877	0.087057
C81	C	1.935281	-0.888756	0.147983
H82	H	2.016126	-0.880546	0.171349
H83	H	1.872158	-0.789299	0.133239
H84	H	1.913722	-0.948613	0.188625
H85	H	2.492497	-0.384024	0.497941
O86	O	2.627321	-0.398159	0.300524
C87	C	2.650175	-0.508792	0.268016
H88	H	2.577338	-0.540020	0.257147
H89	H	2.671497	-0.487133	0.216071
H90	H	2.720170	-0.588683	0.304541
O91	O	2.408573	-0.806242	0.087442
C92	C	2.402536	-0.864622	0.026112
H93	H	2.480387	-0.884016	0.008790
H94	H	2.388496	-0.958643	0.037926
H95	H	2.333844	-0.798420	-0.017971
H96	H	2.187234	-0.526685	0.673428
H97	H	2.312098	-0.373038	0.425300
O98	O	1.798979	-0.372202	0.430428
C99	C	1.766150	-0.478398	0.419899
H100	H	1.833837	-0.559082	0.408550
H101	H	1.744284	-0.512061	0.469465
H102	H	1.693785	-0.449924	0.373171
H103	H	1.920554	-0.796761	0.088121
H104	H	2.114268	-0.396934	0.305780
O105	O	2.159118	-0.396668	0.444433
C106	C	2.184046	-0.290733	0.419270
H107	H	2.107487	-0.210362	0.390491
H108	H	2.227118	-0.256332	0.465699
H109	H	2.237692	-0.319840	0.381274
O110	O	2.258715	-0.393761	0.894742
C111	C	2.300226	-0.503726	0.946669
H112	H	2.262214	-0.577155	0.929283
H113	H	2.390176	-0.546183	0.953834
H114	H	2.281857	-0.476763	0.998879
H115	H	2.282778	-0.374005	0.292884
O116	O	1.898503	-0.368848	0.880637
C117	C	1.865673	-0.475042	0.870104
H118	H	1.933358	-0.555722	0.858749
H119	H	1.843810	-0.508715	0.919669
H120	H	1.793305	-0.446562	0.823377
H121	H	2.373421	-0.393582	-0.244044
O122	O	2.226788	-0.394388	0.750752
C123	C	2.196201	-0.285169	0.699257
H124	H	2.130559	-0.204586	0.712608
H125	H	2.267853	-0.253872	0.698391
H126	H	2.165461	-0.308730	0.645131
H127	H	1.882301	-0.370648	0.743072
H128	H	1.867798	-0.239079	0.640238
H129	H	1.838520	-0.240081	0.507838
O130	O	1.767079	-0.372838	0.286575
C131	C	1.688734	-0.258950	0.292778
H132	H	1.727956	-0.185671	0.308300
H133	H	1.627719	-0.219538	0.239984
H134	H	1.647174	-0.279547	0.335066
O135	O	2.747942	-0.368387	-0.119383
C136	C	2.757981	-0.254757	-0.148880
H137	H	2.675408	-0.181787	-0.173487
H138	H	2.801948	-0.214622	-0.105683
H139	H	2.804703	-0.275976	-0.191321
H140	H	2.456618	-0.959356	0.087453
H141	H	2.685516	-0.370640	-0.256905
O142	O	2.658231	-0.759146	0.097866
C143	C	2.758125	-0.851207	0.100609
H144	H	2.745885	-0.936980	0.076974
H145	H	2.803676	-0.807693	0.069126
H146	H	2.805591	-0.883389	0.157942
O147	O	2.502115	-0.382739	-0.328154
C148	C	2.587822	-0.375951	-0.356425
H149	H	2.664574	-0.412234	-0.312904
H150	H	2.595900	-0.437557	-0.400150
H151	H	2.572299	-0.272579	-0.379083
O152	O	2.408847	-0.393337	-0.105322
C153	C	2.382725	-0.283498	-0.072356
H154	H	2.398605	-0.203233	-0.102985
H155	H	2.294880	-0.252199	-0.071578
H156	H	2.433564	-0.306244	-0.015850
