data_functionalizedCrystal
_audit_creation_method	'MofGen! by Chris Wilmer'
_symmetry_space_group_name_H-M	'P1'
_symmetry_Int_Tables_number	1
_symmetry_cell_setting	triclinic
loop_
_symmetry_equiv_pos_as_xyz
  x,y,z
_cell_length_a	10.489741
_cell_length_b	8.597340
_cell_length_c	7.681215
_cell_angle_alpha	76.002594
_cell_angle_beta	96.373530
_cell_angle_gamma	95.062621
loop_
_atom_site_label
_atom_site_type_symbol
_atom_site_fract_x
_atom_site_fract_y
_atom_site_fract_z
O1	O	-1.708786	0.238110	-0.182442
O2	O	-1.337936	0.259191	-0.185667
O3	O	-1.528038	0.017059	-0.148915
O4	O	-1.518684	0.480242	-0.219194
O5	O	-1.505847	-0.010058	0.148068
O6	O	-1.315745	0.232074	0.111316
O7	O	-1.686595	0.210993	0.114541
Zn8	Zn	-1.497647	0.217228	0.160081
Zn9	Zn	-1.526884	0.252956	-0.231207
O10	O	-1.496493	0.453125	0.077789
C11	C	-1.279283	0.244041	-0.036938
C12	C	-1.137577	0.239279	-0.036225
C13	C	-1.514702	-0.055810	0.008572
C14	C	-1.508009	-0.232535	0.035375
C15	C	-1.745248	0.226143	-0.034192
C16	C	-1.886955	0.230906	-0.034916
C17	C	-1.066928	0.085216	-0.012833
C18	C	-0.986927	0.171363	-0.170300
C19	C	-0.965083	0.144664	0.122497
C20	C	-1.059451	0.325500	-0.193823
C21	C	-1.037606	0.298768	0.099108
C22	C	-0.957637	0.385029	-0.058411
C23	C	-1.509829	0.525994	-0.079702
C24	C	-1.516523	0.702721	-0.106516
N25	N	-1.477702	0.192844	0.427124
N26	N	-1.546838	0.277328	-0.498249
H27	H	-1.114570	-0.041415	0.006200
H28	H	-1.617387	0.363555	0.413427
O29	O	-0.959754	0.106820	-0.306012
C30	C	-0.985037	-0.124114	-0.435555
C31	C	-1.015873	-0.051218	-0.281748
H32	H	-1.030417	-0.251886	-0.416012
H33	H	-0.876431	-0.126169	-0.434498
H34	H	-1.025511	-0.048191	-0.570109
H35	H	-0.975481	-0.127079	-0.147117
H36	H	-1.124488	-0.049134	-0.282965
O37	O	-1.108748	0.416591	-0.353398
C38	C	-1.298438	0.523362	-0.533079
C39	C	-1.242780	0.420138	-0.352300
H40	H	-1.406806	0.526291	-0.532237
H41	H	-1.277345	0.469515	-0.647877
H42	H	-1.252338	0.650805	-0.552912
H43	H	-1.288846	0.292676	-0.332294
H44	H	-1.263858	0.474116	-0.237597
O45	O	-1.531484	0.797718	-0.276010
C46	C	-1.664139	0.857460	-0.557861
C47	C	-1.647350	0.749722	-0.365984
H48	H	-1.757825	0.818718	-0.630648
H49	H	-1.580053	0.845709	-0.634971
H50	H	-1.667004	0.987807	-0.549961
H51	H	-1.644517	0.619333	-0.373717
H52	H	-1.731437	0.761611	-0.288948
H53	H	-1.495595	0.687693	0.177374
H54	H	-1.060462	0.352597	0.213025
O55	O	-0.901047	0.536220	-0.081126
C56	C	-0.749501	0.716918	0.043721
C57	C	-0.813515	0.545649	0.069706
H58	H	-0.678698	0.724588	0.165630
H59	H	-0.826268	0.806363	0.029035
H60	H	-0.696080	0.746569	-0.082822
H61	H	-0.866929	0.515845	0.196252
H62	H	-0.736689	0.456300	0.084286
H63	H	-0.923794	0.068147	0.256182
H64	H	-1.407166	0.106612	0.515441
