data_functionalizedCrystal
_audit_creation_method	'MofGen! by Chris Wilmer'
_symmetry_space_group_name_H-M	'P1'
_symmetry_Int_Tables_number	1
_symmetry_cell_setting	triclinic
loop_
_symmetry_equiv_pos_as_xyz
  x,y,z
_cell_length_a	16.109301
_cell_length_b	26.210047
_cell_length_c	16.109301
_cell_angle_alpha	90.006022
_cell_angle_beta	83.461481
_cell_angle_gamma	90.013716
loop_
_atom_site_label
_atom_site_type_symbol
_atom_site_fract_x
_atom_site_fract_y
_atom_site_fract_z
O1	O	1.103146	0.042398	0.106865
O2	O	1.603146	0.542398	0.606865
O3	O	0.861084	0.042407	0.120165
O4	O	1.361084	0.542407	0.620165
O5	O	0.988765	0.042397	-0.007516
O6	O	1.488765	0.542397	0.492484
O7	O	0.975466	0.042408	0.234546
O8	O	1.475466	0.542408	0.734546
O9	O	0.988725	-0.042461	-0.007516
O10	O	1.488725	0.457539	0.492484
O11	O	0.861044	-0.042451	0.120164
O12	O	1.361044	0.457549	0.620164
O13	O	1.103106	-0.042460	0.106865
O14	O	1.603106	0.457540	0.606865
Cu15	Cu	0.982072	-0.050204	0.113515
Cu16	Cu	1.482072	0.449796	0.613515
Cu17	Cu	0.982119	0.050151	0.113515
Cu18	Cu	1.482119	0.550151	0.613515
O19	O	0.975426	-0.042450	0.234546
O20	O	1.475426	0.457550	0.734546
C21	C	0.830090	-0.000021	0.119626
C22	C	1.330090	0.499979	0.619626
C23	C	0.737794	-0.000018	0.118011
C24	C	1.237794	0.499982	0.618011
C25	C	0.515522	-0.000021	0.190018
C26	C	1.015522	0.499979	0.690018
C27	C	0.428801	-0.000024	0.188494
C28	C	0.928801	0.499976	0.688494
C29	C	0.448676	-0.000029	0.037006
C30	C	0.948676	0.499971	0.537006
C31	C	0.535394	-0.000029	0.038530
C32	C	1.035394	0.499971	0.538530
C33	C	0.568815	-0.000023	0.115039
C34	C	1.068815	0.499977	0.615039
C35	C	0.395376	-0.000026	0.111990
C36	C	0.895376	0.499974	0.611990
C37	C	0.301350	-0.000029	0.110337
C38	C	0.801350	0.499971	0.610337
C39	C	0.662847	-0.000020	0.116693
C40	C	1.162847	0.499980	0.616693
N41	N	0.982044	-0.120788	0.113514
N42	N	1.482044	0.379212	0.613514
C43	C	1.032519	-0.473301	0.163947
C44	C	1.532519	0.026699	0.663947
C45	C	1.032544	-0.686960	0.163946
C46	C	1.532544	-0.186960	0.663946
O47	O	1.075440	-0.714581	0.206817
O48	O	1.575440	-0.214581	0.706817
N49	N	0.982139	-0.713682	0.113507
N50	N	1.482139	-0.213682	0.613507
C51	C	0.931729	-0.686985	0.063059
C52	C	1.431729	-0.186985	0.563059
O53	O	0.888863	-0.714616	0.020151
O54	O	1.388863	-0.214616	0.520151
C55	C	0.931709	-0.473328	0.063056
C56	C	1.431709	0.026672	0.563056
C57	C	0.982111	-0.446609	0.113505
C58	C	1.482111	0.053391	0.613505
C59	C	1.082917	-0.446582	0.214391
C60	C	1.582917	0.053418	0.714391
C61	C	1.082907	-0.393171	0.214394
C62	C	1.582907	0.106829	0.714394
C63	C	1.032499	-0.366478	0.163953
C64	C	1.532499	0.133522	0.663953
C65	C	0.982101	-0.393197	0.113508
C66	C	1.482101	0.106803	0.613508
C67	C	0.881304	-0.446633	0.012605
C68	C	1.381304	0.053367	0.512605
C69	C	0.881305	-0.393215	0.012607
C70	C	1.381305	0.106785	0.512607
C71	C	0.931707	-0.366496	0.063056
C72	C	1.431707	0.133504	0.563056
C73	C	0.931682	-0.313094	0.063070
C74	C	1.431682	0.186906	0.563070
N75	N	0.982087	-0.286372	0.113510
N76	N	1.482087	0.213628	0.613510
C77	C	1.032495	-0.313064	0.163951
C78	C	1.532495	0.186936	0.663951
C79	C	0.931741	-0.799159	0.063066
C80	C	1.431741	-0.299159	0.563066
C81	C	0.931745	-0.852573	0.063068
C82	C	1.431745	-0.352573	0.563068
C83	C	1.032561	-0.852544	0.163954
C84	C	1.532561	-0.352544	0.663954
C85	C	1.032552	-0.799128	0.163956
C86	C	1.532552	-0.299128	0.663956
C87	C	0.982146	-0.772437	0.113506
C88	C	1.482146	-0.272437	0.613506
C89	C	1.032470	-0.200896	0.163954
C90	C	1.532470	0.299104	0.663954
C91	C	1.032452	-0.147480	0.163955
C92	C	1.532452	0.352520	0.663955
C93	C	0.931640	-0.147514	0.063067
C94	C	1.431640	0.352486	0.563067
C95	C	0.931653	-0.200926	0.063068
C96	C	1.431653	0.299074	0.563068
C97	C	0.982075	-0.227615	0.113515
C98	C	1.482075	0.272385	0.613515
O99	O	0.888816	-0.285439	0.020215
O100	O	1.388816	0.214561	0.520215
O101	O	1.075368	-0.285424	0.206839
O102	O	1.575368	0.214576	0.706839
C103	C	1.032529	-0.526713	0.163944
C104	C	1.532529	-0.026713	0.663944
C105	C	0.982131	-0.553432	0.113499
C106	C	1.482131	-0.053432	0.613499
C107	C	0.931722	-0.526739	0.063058
C108	C	1.431722	-0.026739	0.563058
C109	C	0.982134	-0.606846	0.113501
C110	C	1.482134	-0.106846	0.613501
C111	C	1.032543	-0.633538	0.163943
C112	C	1.532543	-0.133538	0.663943
C113	C	1.082947	-0.606817	0.214382
C114	C	1.582947	-0.106817	0.714382
C115	C	1.082937	-0.553405	0.214385
C116	C	1.582937	-0.053405	0.714385
C117	C	0.881318	-0.553461	0.012618
C118	C	1.381318	-0.053461	0.512618
C119	C	0.881331	-0.606873	0.012620
C120	C	1.381331	-0.106873	0.512620
C121	C	0.931740	-0.633565	0.063061
C122	C	1.431740	-0.133565	0.563061
C123	C	1.134101	-0.000031	0.107404
C124	C	1.634101	0.499969	0.607404
C125	C	1.226397	-0.000030	0.109019
C126	C	1.726397	0.499970	0.609019
C127	C	0.988206	-0.000032	-0.038491
C128	C	1.488206	0.499968	0.461509
C129	C	0.986591	-0.000033	-0.130786
C130	C	1.486591	0.499967	0.369214
N131	N	0.982153	0.120735	0.113509
N132	N	1.482153	0.620735	0.613509
C133	C	1.058599	-0.000027	-0.353059
C134	C	1.558599	0.499973	0.146941
C135	C	1.057075	-0.000023	-0.439779
C136	C	1.557075	0.499977	0.060221
C137	C	0.905586	-0.000020	-0.419905
C138	C	1.405586	0.499980	0.080095
C139	C	0.907111	-0.000020	-0.333186
C140	C	1.407111	0.499980	0.166814
C141	C	0.983620	-0.000027	-0.299766
C142	C	1.483620	0.499973	0.200234
C143	C	0.980571	-0.000022	-0.473205
C144	C	1.480571	0.499978	0.026795
C145	C	0.978918	-0.000017	-0.567231
C146	C	1.478918	0.499983	-0.067231
C147	C	0.985273	-0.000030	-0.205734
C148	C	1.485273	0.499970	0.294266
C149	C	0.975984	-0.000020	0.265521
C150	C	1.475984	0.499980	0.765521
C151	C	0.977600	-0.000016	0.357816
C152	C	1.477600	0.499984	0.857816
H153	H	1.073495	-0.125728	0.205041
H154	H	1.573495	0.374272	0.705041
F155	F	1.136878	-0.000022	-0.496495
F156	F	1.636878	0.499978	0.003505
F157	F	0.592117	-0.000035	-0.041277
F158	F	1.092117	0.499965	0.458723
F159	F	0.824164	-0.000013	-0.455481
F160	F	1.324164	0.499987	0.044519
F161	F	0.551087	-0.000016	0.271446
F162	F	1.051087	0.499984	0.771446
H163	H	1.073528	-0.222621	0.205032
H164	H	1.573528	0.277379	0.705032
H165	H	0.385413	-0.000024	0.249550
H166	H	0.885413	0.499976	0.749550
F167	F	0.413100	-0.000034	-0.044416
F168	F	0.913100	0.499966	0.455584
H169	H	0.846050	-0.000018	-0.289792
H170	H	1.346050	0.499982	0.210208
H171	H	1.123953	-0.371421	0.255472
H172	H	1.623953	0.128579	0.755472
F173	F	1.136574	-0.474982	0.268082
F174	F	1.636574	0.025018	0.768082
F175	F	1.086199	-0.770697	0.217647
F176	F	1.586199	-0.270697	0.717647
F177	F	1.086211	-0.880961	0.217636
F178	F	1.586211	-0.380961	0.717636
F179	F	1.136578	-0.524975	0.268085
F180	F	1.636578	-0.024975	0.768085
H181	H	0.890693	-0.874323	0.021997
H182	H	1.390693	-0.374323	0.521997
F183	F	0.878075	-0.770758	0.009379
F184	F	1.378075	-0.270758	0.509379
H185	H	0.840257	-0.371485	-0.028477
H186	H	1.340257	0.128515	0.471523
F187	F	0.827658	-0.475058	-0.041091
F188	F	1.327658	0.024942	0.458909
F189	F	1.140026	-0.000033	-0.317493
F190	F	1.640026	0.499967	0.182507
H191	H	0.890602	-0.222681	0.021999
H192	H	1.390602	0.277319	0.521999
F193	F	0.877992	-0.119097	0.009388
F194	F	1.377992	0.380903	0.509388
H195	H	0.840280	-0.628623	-0.028460
H196	H	1.340280	-0.128623	0.471540
F197	F	0.827654	-0.525060	-0.041062
F198	F	1.327654	-0.025060	0.458938
F199	F	1.136592	-0.635234	0.268069
F200	F	1.636592	-0.135234	0.768069
