data_functionalizedCrystal
_audit_creation_method	'MofGen! by Chris Wilmer'
_symmetry_space_group_name_H-M	'P1'
_symmetry_Int_Tables_number	1
_symmetry_cell_setting	triclinic
loop_
_symmetry_equiv_pos_as_xyz
  x,y,z
_cell_length_a	6.394989
_cell_length_b	17.699083
_cell_length_c	16.776229
_cell_angle_alpha	90.007545
_cell_angle_beta	90.006554
_cell_angle_gamma	84.890363
loop_
_atom_site_label
_atom_site_type_symbol
_atom_site_fract_x
_atom_site_fract_y
_atom_site_fract_z
O1	O	-2.770873	-0.123990	-0.066282
O2	O	-2.162713	-0.130236	-0.066286
O3	O	-2.483975	-0.017099	-0.066277
O4	O	-2.449611	-0.237127	-0.066291
O5	O	-2.483932	-0.017091	0.066300
O6	O	-2.162670	-0.130228	0.066291
O7	O	-2.770830	-0.123982	0.066294
Zn8	Zn	-2.466744	-0.127104	0.087342
Zn9	Zn	-2.466800	-0.127114	-0.087333
O10	O	-2.449568	-0.237119	0.066285
C11	C	-2.482722	0.011114	0.000012
C12	C	-2.479028	0.095170	0.000012
C13	C	-2.450821	-0.265332	-0.000005
C14	C	-2.454515	-0.349388	-0.000010
N15	N	-2.466721	-0.127097	0.206553
C16	C	-2.084876	-0.128997	0.000007
C17	C	-1.848661	-0.125223	0.000010
N18	N	-2.466839	-0.127115	-0.206545
C19	C	-2.667602	0.141867	0.000014
C20	C	-2.664119	0.220846	0.000007
C21	C	-2.472059	0.253126	0.000003
C22	C	-2.283471	0.206424	-0.000001
C23	C	-2.286956	0.127446	0.000000
C24	C	-2.269410	0.524930	-0.000008
C25	C	-2.265939	0.603914	-0.000007
C26	C	-2.646572	0.618330	-0.000001
C27	C	-2.650058	0.539352	0.000000
C28	C	-2.461471	0.492657	-0.000008
C29	C	-2.465250	0.407019	-0.000002
C30	C	-2.468278	0.338763	0.000003
C31	C	-2.609019	-0.077021	0.248274
C32	C	-2.609030	-0.077021	0.331726
C33	C	-2.466752	-0.127100	0.373456
C34	C	-2.324439	-0.177178	0.331729
C35	C	-2.324419	-0.177174	0.248279
C36	C	-2.324514	-0.177194	0.668276
C37	C	-2.324550	-0.177195	0.751733
C38	C	-2.609126	-0.077040	0.751724
C39	C	-2.609106	-0.077036	0.668274
C40	C	-2.466786	-0.127111	0.626554
C41	C	-2.466773	-0.127110	0.536066
C42	C	-2.466774	-0.127105	0.463943
H43	H	-2.824000	0.115590	0.000022
H44	H	-2.109532	0.630193	-0.000008
O45	O	-2.747349	-0.028487	0.372346
C46	C	-3.032760	-0.015177	0.466514
C47	C	-2.876196	-0.070226	0.420575
H48	H	-3.137002	-0.048902	0.505505
H49	H	-2.942914	0.023501	0.505651
H50	H	-3.134370	0.020631	0.422344
H51	H	-2.774546	-0.106084	0.464687
H52	H	-2.966170	-0.108853	0.381425
H53	H	-2.724968	-0.036260	0.634300
H54	H	-2.133400	0.089426	-0.000002
O55	O	-2.086082	0.479658	-0.000113
C56	C	-1.761869	0.443143	-0.068816
C57	C	-1.969400	0.494472	-0.068789
H58	H	-1.667493	0.455090	-0.124344
H59	H	-1.667181	0.455137	-0.013370
H60	H	-1.797372	0.381154	-0.068778
H61	H	-1.934087	0.556478	-0.068856
H62	H	-2.064027	0.482413	-0.124231
O63	O	-2.829718	0.663723	-0.000143
C64	C	-3.046680	0.761278	-0.068803
C65	C	-2.839224	0.709905	-0.068754
H66	H	-3.054414	0.798640	-0.124260
H67	H	-3.184626	0.724675	-0.068848
H68	H	-3.054518	0.798588	-0.013297
H69	H	-2.831180	0.672586	-0.124251
H70	H	-2.701375	0.746552	-0.068667
O71	O	-2.186018	-0.225849	0.372139
C72	C	-1.903814	-0.325218	0.363333
C73	C	-2.060432	-0.270125	0.317473
H74	H	-1.802266	-0.361040	0.319155
H75	H	-1.799520	-0.291560	0.402395
H76	H	-1.993827	-0.363877	0.402410
H77	H	-1.970590	-0.231453	0.278352
H78	H	-2.164723	-0.303829	0.278461
H79	H	-2.725004	-0.036264	0.785701
H80	H	-2.208637	-0.217967	0.634315
O81	O	-2.186117	-0.225867	0.792147
C82	C	-1.903896	-0.325230	0.783354
C83	C	-2.060511	-0.270142	0.737486
H84	H	-1.802333	-0.361053	0.739181
H85	H	-1.799618	-0.291569	0.822418
H86	H	-1.993912	-0.363890	0.822430
H87	H	-1.970667	-0.231471	0.698367
H88	H	-2.164788	-0.303851	0.698472
O89	O	-2.747310	-0.028301	0.207865
C90	C	-3.029659	0.071014	0.216674
C91	C	-2.873127	0.015887	0.262533
H92	H	-3.131451	0.106743	0.260853
H93	H	-2.939785	0.109755	0.177641
H94	H	-3.133723	0.037309	0.177568
H95	H	-2.769023	0.049530	0.301682
H96	H	-2.963130	-0.022855	0.301516
H97	H	-2.817675	0.258863	0.000011
O98	O	-2.097034	0.237868	-0.000111
C99	C	-1.872161	0.318624	-0.068820
C100	C	-2.083396	0.283080	-0.068788
H101	H	-1.861047	0.355173	-0.124348
H102	H	-1.860963	0.355295	-0.013374
H103	H	-1.738012	0.271669	-0.068784
H104	H	-2.217666	0.329986	-0.068853
H105	H	-2.094411	0.246391	-0.124230
H106	H	-2.806453	0.513074	0.000007
H107	H	-2.208543	-0.217950	0.214310
