data_functionalizedCrystal
_audit_creation_method	'MofGen! by Chris Wilmer'
_symmetry_space_group_name_H-M	'P1'
_symmetry_Int_Tables_number	1
_symmetry_cell_setting	triclinic
loop_
_symmetry_equiv_pos_as_xyz
  x,y,z
_cell_length_a	23.532355
_cell_length_b	12.503552
_cell_length_c	14.044220
_cell_angle_alpha	86.160057
_cell_angle_beta	88.008188
_cell_angle_gamma	93.494445
loop_
_atom_site_label
_atom_site_type_symbol
_atom_site_fract_x
_atom_site_fract_y
_atom_site_fract_z
O1	O	0.764503	0.089176	0.109274
O2	O	1.264503	0.589176	0.609274
O3	O	0.599541	0.089210	0.125964
O4	O	1.099541	0.589210	0.625964
O5	O	0.679546	0.089183	-0.020341
O6	O	1.179546	0.589183	0.479659
O7	O	0.684499	0.089203	0.255579
O8	O	1.184499	0.589203	0.755579
O9	O	0.673522	-0.089457	-0.009329
O10	O	1.173522	0.410543	0.490671
O11	O	0.593517	-0.089430	0.136976
O12	O	1.093517	0.410570	0.636976
O13	O	0.758479	-0.089464	0.120286
O14	O	1.258479	0.410536	0.620286
Cu15	Cu	0.675448	-0.105758	0.129637
Cu16	Cu	1.175448	0.394242	0.629637
Cu17	Cu	0.682572	0.105505	0.116613
Cu18	Cu	1.182572	0.605505	0.616613
O19	O	0.678475	-0.089437	0.266591
O20	O	1.178475	0.410563	0.766591
C21	C	0.575290	-0.000105	0.131053
C22	C	1.075290	0.499895	0.631053
C23	C	0.512004	-0.000093	0.129797
C24	C	1.012004	0.499907	0.629797
N25	N	0.670442	-0.254350	0.138797
N26	N	1.170442	0.245650	0.638797
C27	C	0.694944	-0.526791	0.093969
C28	C	1.194944	-0.026791	0.593969
C29	C	0.663082	-0.473456	0.152270
C30	C	1.163082	0.026544	0.652270
C31	C	0.667178	-0.351534	0.144772
C32	C	1.167178	0.148466	0.644772
C33	C	0.690849	-0.648724	0.101467
C34	C	1.190849	-0.148724	0.601467
C35	C	0.116278	-0.097515	0.127921
C36	C	0.616278	0.402485	0.627921
C37	C	0.056814	-0.097519	0.126728
C38	C	0.556814	0.402481	0.626728
O39	O	0.023267	-0.180334	0.131184
O40	O	0.523267	0.319666	0.631184
N41	N	0.030357	-0.000143	0.120133
N42	N	0.530357	0.499857	0.620133
C43	C	0.063368	0.097244	0.114722
C44	C	0.563368	0.597244	0.614722
O45	O	0.035404	0.180070	0.109002
O46	O	0.535404	0.680070	0.609002
C47	C	0.122831	0.097247	0.115908
C48	C	0.622831	0.597247	0.615908
C49	C	0.149284	-0.000135	0.122513
C50	C	0.649284	0.499865	0.622513
C51	C	0.142732	-0.194890	0.134524
C52	C	0.642732	0.305110	0.634524
C53	C	0.202192	-0.194885	0.135719
C54	C	0.702192	0.305115	0.635719
C55	C	0.235198	-0.097506	0.130311
C56	C	0.735198	0.402494	0.630311
C57	C	0.208744	-0.000131	0.123708
C58	C	0.708744	0.499869	0.623708
C59	C	0.155841	0.194633	0.110490
C60	C	0.655841	0.694633	0.610490
C61	C	0.215308	0.194628	0.111676
C62	C	0.715308	0.694628	0.611676
C63	C	0.241761	0.097245	0.118281
C64	C	0.741761	0.597245	0.618281
C65	C	0.301211	0.097253	0.119494
C66	C	0.801211	0.597253	0.619494
N67	N	0.327668	-0.000123	0.126089
N68	N	0.827668	0.499877	0.626089
C69	C	0.294661	-0.097503	0.131497
C70	C	0.794661	0.402497	0.631497
C71	C	-0.061510	0.097230	0.112229
C72	C	0.438490	0.597230	0.612229
C73	C	-0.120972	0.097228	0.111049
C74	C	0.379028	0.597228	0.611049
C75	C	-0.127522	-0.097536	0.123054
C76	C	0.372478	0.402464	0.623054
C77	C	-0.068058	-0.097533	0.124240
C78	C	0.431942	0.402467	0.624240
C79	C	-0.035053	-0.000146	0.118823
C80	C	0.464947	0.499854	0.618823
C81	C	0.419532	-0.097486	0.134007
C82	C	0.919532	0.402514	0.634007
C83	C	0.478998	-0.097472	0.135206
C84	C	0.978998	0.402528	0.635206
C85	C	0.485542	0.097291	0.123196
C86	C	0.985542	0.597291	0.623196
C87	C	0.426082	0.097279	0.122003
C88	C	0.926082	0.597279	0.622003
C89	C	0.393078	-0.000119	0.127406
C90	C	0.893078	0.499881	0.627406
O91	O	0.334794	0.180025	0.115038
O92	O	0.834794	0.680025	0.615038
O93	O	0.322633	-0.180315	0.137204
O94	O	0.822633	0.319685	0.637204
C95	C	0.782730	-0.000146	0.115197
C96	C	1.282730	0.499854	0.615197
C97	C	0.846017	-0.000152	0.116452
C98	C	1.346017	0.499848	0.616452
C99	C	0.674366	-0.000137	-0.050128
C100	C	1.174366	0.499863	0.449872
C101	C	0.667900	-0.000137	-0.155291
C102	C	1.167900	0.499863	0.344709
N103	N	0.687583	0.254096	0.107446
N104	N	1.187583	0.754096	0.607446
C105	C	0.656079	-0.000119	-0.347839
C106	C	1.156079	0.499881	0.152161
C107	C	0.701939	-0.000125	-0.405917
C108	C	1.201939	0.499875	0.094083
C109	C	0.695362	-0.000115	-0.513058
C110	C	1.195362	0.499885	-0.013058
C111	C	0.662656	-0.000129	-0.240689
C112	C	1.162656	0.499871	0.259311
C113	C	0.683654	-0.000115	0.296378
C114	C	1.183654	0.499885	0.796378
C115	C	0.690121	-0.000107	0.401541
C116	C	1.190121	0.499893	0.901541
H117	H	0.632728	-0.519361	0.207816
H118	H	1.132728	-0.019361	0.707816
H119	H	0.746142	-0.000063	-0.375180
H120	H	1.246142	0.499937	0.124820
Cl121	Cl	0.587840	-0.000100	-0.395299
Cl122	Cl	1.087840	0.499900	0.104701
H123	H	0.725297	-0.480891	0.038428
H124	H	1.225297	0.019109	0.538428
Cl125	Cl	0.235438	-0.317317	0.144016
Cl126	Cl	0.735438	0.182683	0.644016
Cl127	Cl	0.512249	-0.219906	0.143512
Cl128	Cl	1.012249	0.280094	0.643512
H129	H	0.392667	-0.176795	0.138415
H130	H	0.892667	0.323205	0.638415
Cl131	Cl	0.122600	0.317066	0.102182
Cl132	Cl	0.622600	0.817066	0.602182
H133	H	-0.142505	0.176527	0.105686
H134	H	0.357495	0.676527	0.605686
Cl135	Cl	0.101248	-0.317327	0.141330
Cl136	Cl	0.601248	0.182673	0.641330
Cl137	Cl	-0.169027	-0.219957	0.129848
Cl138	Cl	0.330973	0.280043	0.629848
Cl139	Cl	-0.020022	0.219672	0.105430
Cl140	Cl	0.479978	0.719672	0.605430
Cl141	Cl	-0.034809	-0.219961	0.132540
Cl142	Cl	0.465191	0.280039	0.632540
Cl143	Cl	0.256797	0.317065	0.104864
Cl144	Cl	0.756797	0.817065	0.604864
Cl145	Cl	0.392825	0.219704	0.113715
Cl146	Cl	0.892825	0.719704	0.613715
Cl147	Cl	0.527047	0.219705	0.116391
Cl148	Cl	1.027047	0.719705	0.616391
