data_functionalizedCrystal
_audit_creation_method	'MofGen! by Chris Wilmer'
_symmetry_space_group_name_H-M	'P1'
_symmetry_Int_Tables_number	1
_symmetry_cell_setting	triclinic
loop_
_symmetry_equiv_pos_as_xyz
  x,y,z
_cell_length_a	17.699077
_cell_length_b	17.699083
_cell_length_c	18.366186
_cell_angle_alpha	89.992864
_cell_angle_beta	89.991511
_cell_angle_gamma	83.281795
loop_
_atom_site_label
_atom_site_type_symbol
_atom_site_fract_x
_atom_site_fract_y
_atom_site_fract_z
O1	O	1.004084	0.095691	-0.060541
O2	O	1.337417	0.429024	0.272792
O3	O	1.670750	0.762357	0.606125
O4	O	0.783705	0.108148	-0.060545
O5	O	1.117038	0.441481	0.272788
O6	O	1.450371	0.774815	0.606121
O7	O	0.900120	-0.008270	-0.060537
O8	O	1.233454	0.325063	0.272797
O9	O	1.566787	0.658397	0.606130
O10	O	0.887668	0.212109	-0.060550
O11	O	1.221001	0.545442	0.272784
O12	O	1.554334	0.878775	0.606117
O13	O	0.900101	-0.008276	0.060563
O14	O	1.233434	0.325058	0.393896
O15	O	1.566767	0.658391	0.727229
O16	O	0.783685	0.108142	0.060554
O17	O	1.117018	0.441476	0.393888
O18	O	1.450351	0.774809	0.727221
O19	O	1.004064	0.095685	0.060558
O20	O	1.337397	0.429018	0.393891
O21	O	1.670730	0.762352	0.727225
Zn22	Zn	0.893871	0.101913	0.079783
Zn23	Zn	1.227204	0.435246	0.413117
Zn24	Zn	1.560538	0.768579	0.746450
Zn25	Zn	0.893897	0.101920	-0.079770
Zn26	Zn	1.227230	0.435254	0.253563
Zn27	Zn	1.560564	0.768587	0.586896
O28	O	0.887648	0.212103	0.060550
O29	O	1.220981	0.545436	0.393883
O30	O	1.554315	0.878770	0.727216
C31	C	0.755498	0.107700	0.000004
C32	C	1.088831	0.441033	0.333337
C33	C	1.422164	0.774366	0.666671
C34	C	0.671479	0.106363	0.000003
C35	C	1.004813	0.439696	0.333336
C36	C	1.338146	0.773029	0.666670
C37	C	0.632001	0.105730	0.066015
C38	C	0.965334	0.439063	0.399348
C39	C	1.298668	0.772396	0.732682
C40	C	0.553059	0.104462	0.066016
C41	C	0.886392	0.437795	0.399349
C42	C	1.219725	0.771128	0.732682
C43	C	0.513595	0.103832	0.000004
C44	C	0.846928	0.437165	0.333337
C45	C	1.180262	0.770498	0.666670
C46	C	0.553079	0.104463	-0.066013
C47	C	0.886412	0.437796	0.267320
C48	C	1.219746	0.771129	0.600653
C49	C	0.632021	0.105725	-0.066013
C50	C	0.965354	0.439059	0.267320
C51	C	1.298687	0.772392	0.600653
C52	C	0.234716	0.099369	-0.066014
C53	C	0.568049	0.432703	0.267319
C54	C	0.901382	0.766036	0.600652
C55	C	0.155768	0.098109	-0.066009
C56	C	0.489101	0.431442	0.267324
C57	C	0.822435	0.764775	0.600657
C58	C	0.155753	0.098105	0.066015
C59	C	0.489087	0.431439	0.399348
C60	C	0.822420	0.764772	0.732681
C61	C	0.234695	0.099368	0.066015
C62	C	0.568029	0.432701	0.399348
C63	C	0.901362	0.766035	0.732681
C64	C	0.274173	0.099995	-0.000002
C65	C	0.607506	0.433328	0.333331
C66	C	0.940840	0.766662	0.666665
C67	C	0.359772	0.101369	-0.000002
C68	C	0.693105	0.434702	0.333331
C69	C	1.026438	0.768035	0.666665
C70	C	0.427997	0.102464	0.000003
C71	C	0.761330	0.435797	0.333336
C72	C	1.094664	0.769130	0.666670
C73	C	0.899664	-0.036470	0.000013
C74	C	1.232998	0.296864	0.333346
C75	C	1.566331	0.630197	0.666680
C76	C	0.898326	-0.120488	0.000013
C77	C	1.231659	0.212845	0.333347
C78	C	1.564992	0.546179	0.666680
C79	C	0.966659	-0.169110	0.000015
C80	C	1.299993	0.164223	0.333349
C81	C	1.633326	0.497556	0.666682
C82	C	0.965397	-0.248054	0.000009
C83	C	1.298730	0.085280	0.333342
C84	C	1.632064	0.418613	0.666676
C85	C	0.895800	-0.278373	0.000006
C86	C	1.229134	0.054960	0.333339
C87	C	1.562467	0.388294	0.666672
C88	C	0.827461	-0.229744	0.000001
C89	C	1.160795	0.103589	0.333335
C90	C	1.494128	0.436922	0.666668
C91	C	0.828724	-0.150803	0.000002
C92	C	1.162058	0.182531	0.333336
C93	C	1.495391	0.515864	0.666669
C94	C	0.822366	-0.548107	-0.000005
C95	C	1.155699	-0.214774	0.333329
C96	C	1.489033	0.118559	0.666662
C97	C	0.821108	-0.627055	-0.000004
C98	C	1.154442	-0.293722	0.333329
C99	C	1.487775	0.039612	0.666663
C100	C	0.959039	-0.645358	0.000002
C101	C	1.292372	-0.312025	0.333335
C102	C	1.625705	0.021308	0.666668
C103	C	0.960302	-0.566417	0.000003
C104	C	1.293635	-0.233083	0.333336
C105	C	1.626968	0.100250	0.666670
C106	C	0.891963	-0.517795	-0.000005
C107	C	1.225297	-0.184461	0.333328
C108	C	1.558630	0.148872	0.666661
C109	C	0.893333	-0.432196	0.000000
C110	C	1.226666	-0.098862	0.333334
C111	C	1.559999	0.234471	0.666667
C112	C	0.894430	-0.363971	0.000005
C113	C	1.227763	-0.030637	0.333339
C114	C	1.561097	0.302696	0.666672
C115	C	1.032271	0.096133	0.000007
C116	C	1.365604	0.429467	0.333340
C117	C	1.698937	0.762800	0.666674
C118	C	1.116289	0.097470	0.000004
C119	C	1.449622	0.430804	0.333337
C120	C	1.782956	0.764137	0.666670
C121	C	0.888104	0.240303	-0.000002
C122	C	1.221437	0.573636	0.333332
C123	C	1.554771	0.906969	0.666665
C124	C	0.889443	0.324321	-0.000007
C125	C	1.222776	0.657654	0.333326
C126	C	1.556109	0.990988	0.666660
N127	N	0.893859	0.101907	0.188674
N128	N	1.227192	0.435240	0.522008
N129	N	1.560526	0.768574	0.855341
N130	N	0.893915	0.101920	-0.188662
N131	N	1.227249	0.435253	0.144672
N132	N	1.560582	0.768587	0.478005
C133	C	0.945425	0.050383	0.226778
C134	C	1.278758	0.383716	0.560112
C135	C	1.612091	0.717049	0.893445
C136	C	0.945429	0.050379	0.303006
C137	C	1.278763	0.383712	0.636340
C138	C	1.612096	0.717046	0.969673
C139	C	0.893876	0.101913	0.341127
C140	C	1.227209	0.435247	0.674460
C141	C	1.560542	0.768580	1.007794
C142	C	0.842300	0.153442	0.303014
C143	C	1.175634	0.486775	0.636347
C144	C	1.508967	0.820109	0.969680
C145	C	0.842292	0.153439	0.226787
C146	C	1.175625	0.486772	0.560121
C147	C	1.508959	0.820105	0.893454
C148	C	0.883833	0.170863	0.461883
C149	C	1.217166	0.504196	0.795217
C150	C	1.550499	0.837529	1.128550
C151	C	0.883846	0.170867	0.538108
C152	C	1.217180	0.504200	0.871442
C153	C	1.550513	0.837533	1.204775
C154	C	0.893897	0.101923	0.576235
C155	C	1.227231	0.435256	0.909568
C156	C	1.560564	0.768590	1.242901
C157	C	0.903950	0.032972	0.538127
C158	C	1.237284	0.366305	0.871460
C159	C	1.570617	0.699639	1.204793
C160	C	0.903942	0.032969	0.461900
C161	C	1.237275	0.366302	0.795234
C162	C	1.570609	0.699635	1.128567
C163	C	0.893879	0.101922	0.423782
C164	C	1.227212	0.435256	0.757115
C165	C	1.560545	0.768589	1.090448
C166	C	0.945471	0.050390	0.696994
C167	C	1.278804	0.383724	1.030327
C168	C	1.612138	0.717057	1.363660
C169	C	0.945471	0.050386	0.773223
C170	C	1.278804	0.383719	1.106556
C171	C	1.612137	0.717053	1.439890
C172	C	0.842345	0.153455	0.773229
C173	C	1.175678	0.486789	1.106562
C174	C	1.509012	0.820122	1.439896
C175	C	0.842342	0.153453	0.697001
C176	C	1.175675	0.486786	1.030334
C177	C	1.509008	0.820120	1.363668
C178	C	0.893909	0.101921	0.658888
C179	C	1.227242	0.435255	0.992221
C180	C	1.560575	0.768588	1.325555
H181	H	0.266822	0.099885	0.119769
H182	H	0.600155	0.433218	0.453102
H183	H	0.933489	0.766551	0.786435
H184	H	0.266849	0.099877	-0.119769
H185	H	0.600182	0.433211	0.213564
H186	H	0.933516	0.766544	0.546897
O187	O	1.001064	-0.005198	0.655867
O188	O	1.334398	0.328135	0.989201
O189	O	1.667731	0.661468	1.322534
H190	H	1.060053	0.004352	0.670476
H191	H	1.393387	0.337685	1.003809
H192	H	1.726720	0.671018	1.337142
H193	H	0.875635	0.227009	0.430847
H194	H	1.208968	0.560342	0.764180
H195	H	1.542302	0.893675	1.097514
H196	H	0.123639	0.097595	-0.119767
H197	H	0.456972	0.430929	0.213566
H198	H	0.790306	0.764262	0.546899
H199	H	0.520942	0.103945	-0.119762
H200	H	0.854275	0.437278	0.213572
H201	H	1.187609	0.770611	0.546905
O202	O	0.748656	-0.495679	-0.000004
O203	O	1.081989	-0.162346	0.333330
O204	O	1.415323	0.170987	0.666663
H205	H	0.745928	-0.459274	-0.049365
H206	H	1.079261	-0.125941	0.283968
H207	H	1.412595	0.207392	0.617301
O208	O	1.001058	-0.005192	0.344112
O209	O	1.334391	0.328142	0.677445
O210	O	1.667725	0.661475	1.010779
H211	H	0.969281	-0.041944	0.378854
H212	H	1.302614	0.291389	0.712187
H213	H	1.635947	0.624722	1.045520
O214	O	0.674562	0.106411	0.137216
O215	O	1.007895	0.439745	0.470549
O216	O	1.341228	0.773078	0.803882
H217	H	0.703675	0.158558	0.140370
H218	H	1.037008	0.491891	0.473704
H219	H	1.370341	0.825224	0.807037
H220	H	0.123602	0.097592	0.119769
H221	H	0.456935	0.430925	0.453102
H222	H	0.790268	0.764258	0.786436
O223	O	1.032748	-0.697805	0.000003
O224	O	1.366081	-0.364471	0.333337
O225	O	1.699415	-0.031138	0.666670
H226	H	1.066044	-0.687052	0.049369
H227	H	1.399377	-0.353718	0.382702
H228	H	1.732711	-0.020385	0.716036
H229	H	0.912126	-0.023173	0.430876
H230	H	1.245459	0.310160	0.764209
H231	H	1.578792	0.643493	1.097543
H232	H	0.773080	-0.111214	0.000001
H233	H	1.106413	0.222119	0.333334
H234	H	1.439747	0.555452	0.666667
H235	H	0.912134	-0.023169	0.569168
H236	H	1.245468	0.310164	0.902501
H237	H	1.578801	0.643498	1.235834
O238	O	0.510474	0.103787	0.137214
O239	O	0.843808	0.437120	0.470547
O240	O	1.177141	0.770454	0.803880
H241	H	0.551177	0.104449	0.183116
H242	H	0.884510	0.437782	0.516449
H243	H	1.217843	0.771116	0.849782
H244	H	0.664163	0.106242	-0.119767
H245	H	0.997496	0.439576	0.213566
H246	H	1.330829	0.772909	0.546899
H247	H	1.023333	-0.144431	0.000023
H248	H	1.356666	0.188902	0.333356
H249	H	1.690000	0.522236	0.666689
O250	O	0.746041	-0.659762	-0.000009
O251	O	1.079374	-0.326429	0.333324
O252	O	1.412707	0.006905	0.666658
H253	H	0.713225	-0.640227	-0.049374
H254	H	1.046559	-0.306894	0.283959
H255	H	1.379892	0.026439	0.617293
O256	O	1.001098	-0.005181	0.814327
O257	O	1.334432	0.328152	1.147660
O258	O	1.667765	0.661485	1.480994
H259	H	1.036959	-0.041004	0.775015
H260	H	1.370293	0.292329	1.108348
H261	H	1.703626	0.625662	1.441682
H262	H	1.021041	-0.287639	0.000012
H263	H	1.354374	0.045694	0.333346
H264	H	1.687708	0.379027	0.666679
H265	H	1.016974	-0.541735	0.000009
H266	H	1.350308	-0.208402	0.333343
H267	H	1.683641	0.124931	0.666676
O268	O	1.001031	-0.005205	0.185669
O269	O	1.334364	0.328129	0.519002
O270	O	1.667697	0.661462	0.852336
H271	H	1.036883	-0.041040	0.224977
H272	H	1.370217	0.292294	0.558310
H273	H	1.703550	0.625627	0.891643
O274	O	0.752393	-0.262440	0.000005
O275	O	1.085726	0.070894	0.333338
O276	O	1.419060	0.404227	0.666672
H277	H	0.762993	-0.325502	0.000015
H278	H	1.096327	0.007832	0.333349
H279	H	1.429660	0.341165	0.666682
H280	H	0.800366	0.195412	0.804266
H281	H	1.133699	0.528746	1.137600
H282	H	1.467033	0.862079	1.470933
O283	O	0.786733	0.209035	0.655895
O284	O	1.120066	0.542368	0.989228
O285	O	1.453400	0.875701	1.322562
H286	H	0.750889	0.244875	0.695207
H287	H	1.084222	0.578208	1.028540
H288	H	1.417555	0.911542	1.361873
H289	H	0.875665	0.227011	0.569130
H290	H	1.208999	0.560344	0.902463
H291	H	1.542332	0.893677	1.235796
O292	O	0.786698	0.209031	0.344123
O293	O	1.120031	0.542365	0.677456
O294	O	1.453364	0.875698	1.010790
H295	H	0.795373	0.200384	0.403530
H296	H	1.128706	0.533718	0.736864
H297	H	1.462039	0.867051	1.070197
H298	H	0.800300	0.195397	0.195762
H299	H	1.133633	0.528730	0.529096
H300	H	1.466967	0.862064	0.862429
