data_functionalizedCrystal
_audit_creation_method	'MofGen! by Chris Wilmer'
_symmetry_space_group_name_H-M	'P1'
_symmetry_Int_Tables_number	1
_symmetry_cell_setting	triclinic
loop_
_symmetry_equiv_pos_as_xyz
  x,y,z
_cell_length_a	11.169417
_cell_length_b	19.805405
_cell_length_c	19.805407
_cell_angle_alpha	90.013352
_cell_angle_beta	90.001243
_cell_angle_gamma	90.027289
loop_
_atom_site_label
_atom_site_type_symbol
_atom_site_fract_x
_atom_site_fract_y
_atom_site_fract_z
Zn1	Zn	1.834608	-0.269570	0.382634
Zn2	Zn	1.834506	-0.382726	0.269442
Zn3	Zn	1.633959	-0.269558	0.269467
Zn4	Zn	1.633845	-0.382724	0.382597
O5	O	1.734230	-0.326145	0.326035
O6	O	2.002544	-0.284586	0.367624
O7	O	1.807908	-0.367711	0.174729
O8	O	1.660666	-0.174843	0.284504
O9	O	2.002469	-0.367722	0.284462
O10	O	1.808082	-0.174852	0.367648
O11	O	1.660567	-0.284567	0.174747
O12	O	1.465994	-0.284564	0.284469
O13	O	1.660472	-0.367717	0.477319
O14	O	1.465911	-0.367706	0.367586
O15	O	1.807971	-0.284583	0.477346
O16	O	1.807798	-0.477443	0.284427
O17	O	1.660373	-0.477441	0.367562
C18	C	1.422405	-0.326134	0.326026
C19	C	1.289005	-0.326146	0.326039
C20	C	1.734095	-0.502001	0.326002
C21	C	1.734147	-0.577233	0.326011
C22	C	1.810985	-0.612555	0.282768
C23	C	1.811036	-0.683244	0.282783
C24	C	1.734242	-0.718608	0.326038
C25	C	1.657400	-0.683280	0.369286
C26	C	1.657356	-0.612593	0.369274
C27	C	1.657577	-0.968354	0.369336
C28	C	1.657624	-1.039046	0.369343
C29	C	1.811257	-1.039004	0.282845
C30	C	1.811213	-0.968317	0.282833
C31	C	1.734376	-0.932995	0.326083
C32	C	1.734324	-0.856347	0.326067
C33	C	1.734287	-0.795255	0.326051
C34	C	2.047272	-0.326155	0.326044
C35	C	2.180672	-0.326160	0.326048
C36	C	1.734220	-0.326151	0.502578
C37	C	1.734216	-0.326154	0.577810
C38	C	1.734398	-0.149602	0.326083
C39	C	1.734470	-0.074370	0.326103
C40	C	1.811016	-0.282861	1.039616
C41	C	1.811020	-0.282865	0.968927
C42	C	1.734226	-0.326148	0.933572
C43	C	1.657431	-0.369437	0.968908
C44	C	1.657434	-0.369437	1.039595
C45	C	1.657418	-0.369439	0.683834
C46	C	1.657418	-0.369435	0.613142
C47	C	1.811004	-0.282867	0.613167
C48	C	1.811007	-0.282867	0.683854
C49	C	1.734217	-0.326158	0.719184
C50	C	1.734216	-0.326155	0.795833
C51	C	1.734220	-0.326149	0.856924
C52	C	1.734228	-0.326152	1.150179
C53	C	1.734225	-0.326145	1.074947
H54	H	1.873605	-0.712000	0.247570
H55	H	1.594889	-0.404688	0.712592
H56	H	1.594877	-0.712080	0.404507
C57	C	1.572944	-0.417054	0.574250
C58	C	1.478738	-0.387723	0.525664
C59	C	1.394268	-0.435338	0.486771
C60	C	1.404003	-0.512284	0.496465
C61	C	1.498212	-0.541619	0.545053
C62	C	1.582683	-0.494004	0.583945
H63	H	1.471528	-0.330759	0.518486
H64	H	1.324528	-0.413621	0.450803
H65	H	1.341472	-0.547531	0.467674
H66	H	1.505422	-0.598582	0.552231
H67	H	1.652423	-0.515720	0.619914
H68	H	1.873533	-0.247619	0.584393
H69	H	1.594787	-0.583834	0.404487
H70	H	1.873826	-1.067771	0.247632
H71	H	1.873537	-0.247618	0.712637
C72	C	1.573151	-1.077948	0.416931
C73	C	1.478995	-1.126598	0.387566
C74	C	1.394526	-1.165501	0.435149
C75	C	1.404215	-1.155754	0.512098
C76	C	1.498375	-1.107102	0.541467
C77	C	1.582844	-1.068199	0.493883
H78	H	1.471819	-1.133815	0.330600
H79	H	1.324822	-1.201516	0.413408
H80	H	1.341686	-1.184552	0.547323
H81	H	1.505551	-1.099885	0.598433
H82	H	1.652548	-1.032184	0.515625
C83	C	1.895493	-0.235247	1.078504
C84	C	1.895501	-0.235242	1.156257
C85	C	1.979983	-0.187628	1.195143
C86	C	2.064457	-0.140020	1.156276
C87	C	2.064452	-0.140023	1.078518
C88	C	1.979970	-0.187637	1.039632
H89	H	1.832965	-0.270486	1.185033
H90	H	1.979986	-0.187625	1.252704
H91	H	2.126996	-0.104773	1.185062
H92	H	2.126988	-0.104779	1.049743
H93	H	1.979967	-0.187640	0.982071
H94	H	1.595011	-0.939600	0.404550
H95	H	1.873554	-0.247620	0.940164
C96	C	1.572973	-0.417061	0.930019
C97	C	1.572973	-0.417068	0.852266
C98	C	1.488518	-0.464697	0.813378
C99	C	1.404064	-0.512317	0.852244
C100	C	1.404061	-0.512312	0.930001
C101	C	1.488515	-0.464683	0.968889
H102	H	1.635493	-0.381815	0.823491
H103	H	1.488521	-0.464701	0.755817
H104	H	1.341546	-0.547575	0.823457
H105	H	1.341540	-0.547565	0.958776
H106	H	1.488513	-0.464679	1.026450
C107	C	1.572968	-0.417051	1.078465
C108	C	1.582700	-0.493996	1.068726
C109	C	1.498241	-0.541615	1.107596
C110	C	1.404049	-0.512290	1.156206
C111	C	1.394313	-0.435341	1.165947
C112	C	1.478773	-0.387722	1.127077
H113	H	1.652430	-0.515708	1.032740
H114	H	1.505449	-0.598578	1.100385
H115	H	1.341528	-0.547541	1.184980
H116	H	1.324583	-0.413629	1.201933
H117	H	1.471565	-0.330759	1.134288
C118	C	1.895462	-0.573657	0.235186
C119	C	1.885795	-0.583414	0.158238
C120	C	1.970278	-0.544518	0.110657
C121	C	2.064428	-0.495865	0.140024
C122	C	2.074099	-0.486106	0.216977
C123	C	1.989616	-0.525002	0.264558
H124	H	1.816097	-0.619431	0.136495
H125	H	1.963118	-0.551742	0.053692
H126	H	2.126967	-0.467072	0.104802
H127	H	2.143797	-0.450089	0.238720
H128	H	1.996775	-0.517778	0.321523
H129	H	1.873742	-0.939525	0.247609
