data_functionalizedCrystal
_audit_creation_method	'MofGen! by Chris Wilmer'
_symmetry_space_group_name_H-M	'P1'
_symmetry_Int_Tables_number	1
_symmetry_cell_setting	triclinic
loop_
_symmetry_equiv_pos_as_xyz
  x,y,z
_cell_length_a	6.817900
_cell_length_b	13.167930
_cell_length_c	16.306216
_cell_angle_alpha	99.751860
_cell_angle_beta	103.467292
_cell_angle_gamma	105.754568
loop_
_atom_site_label
_atom_site_type_symbol
_atom_site_fract_x
_atom_site_fract_y
_atom_site_fract_z
V1	V	-4.045874	-0.149774	-0.274750
O2	O	-4.013116	0.006331	-0.257523
O3	O	-4.016407	-0.296142	-0.284409
O4	O	-3.997074	-0.147850	-0.389314
O5	O	-4.032583	-0.142988	-0.151892
V6	V	-4.527101	-0.131057	-0.258654
O7	O	-4.312170	-0.190830	-0.310059
O8	O	-4.711002	-0.090000	-0.223345
O9	O	-4.333362	0.015312	-0.248995
O10	O	-4.677256	-0.287161	-0.275880
O11	O	-4.657789	-0.137842	-0.381512
O12	O	-4.352694	-0.132980	-0.144089
C13	C	-3.866027	-0.331812	-0.283051
C14	C	-3.923218	-0.451473	-0.291712
C15	C	-3.946366	-0.645090	-0.151017
C16	C	-4.000100	-0.757522	-0.159150
C17	C	-4.084435	-0.788769	-0.316112
C18	C	-4.030701	-0.676338	-0.307979
C19	C	-3.961664	-0.604502	-0.225428
C20	C	-3.907915	-0.492068	-0.217295
C21	C	-3.992264	-0.523318	-0.374257
C22	C	-4.045999	-0.635749	-0.382390
C23	C	-3.841365	-0.142649	-0.416868
C24	C	-3.882874	-0.142045	-0.510600
C25	C	-4.033550	-0.139876	-0.851182
C26	C	-4.238896	-0.147017	-0.821293
C27	C	-4.195654	-0.147232	-0.723719
C28	C	-3.958799	-0.140952	-0.682216
C29	C	-3.809235	-0.034188	-0.694065
C30	C	-3.853776	-0.033524	-0.791611
C31	C	-3.959843	-0.239120	-0.832834
C32	C	-3.921551	-0.241226	-0.735682
C33	C	-3.916540	-0.141557	-0.586722
C34	C	-4.075799	-0.139264	-0.946675
C35	C	-4.147085	0.050976	-0.250350
C36	C	-4.069132	0.170636	-0.241695
C37	C	-4.171747	-0.138185	-0.116532
C38	C	-4.109475	-0.138784	-0.022798
H39	H	-3.890125	-0.586599	-0.083800
H40	H	-3.900319	0.041547	-0.800895
C41	C	-3.573046	-0.022726	-0.656026
N42	N	-3.395148	-0.014094	-0.627372
H43	H	-4.032383	-0.320156	-0.729938
C44	C	-3.645510	-0.020520	-0.816568
N45	N	-3.488640	-0.010715	-0.835360
C46	C	-3.841742	0.066434	-0.642909
N47	N	-3.866237	0.142221	-0.604378
H48	H	-4.310942	-0.223973	-0.716858
C49	C	-3.983259	-0.802164	-0.077291
N50	N	-3.970571	-0.835787	-0.015632
C51	C	-4.160354	-0.867805	-0.406909
N52	N	-4.217521	-0.927337	-0.475298
C53	C	-4.121916	-0.714779	-0.473190
N54	N	-4.179081	-0.774304	-0.541582
H55	H	-4.375810	-0.223503	-0.861842
C56	C	-4.126929	-0.347505	-0.889734
N57	N	-4.252798	-0.429135	-0.932591
H58	H	-4.004711	-0.490260	-0.434848
H59	H	-4.296436	-0.075731	-0.833264
H60	H	-4.232082	-0.075750	-0.687757
H61	H	-3.752880	-0.242875	-0.708401
C62	C	-3.754294	-0.233393	-0.858521
N63	N	-3.599482	-0.229073	-0.877874
H64	H	-3.851690	-0.433580	-0.150078
