data_functionalizedCrystal
_audit_creation_method	'MofGen! by Chris Wilmer'
_symmetry_space_group_name_H-M	'P1'
_symmetry_Int_Tables_number	1
_symmetry_cell_setting	triclinic
loop_
_symmetry_equiv_pos_as_xyz
  x,y,z
_cell_length_a	16.625546
_cell_length_b	13.897449
_cell_length_c	13.897433
_cell_angle_alpha	90.048509
_cell_angle_beta	89.925636
_cell_angle_gamma	89.976252
loop_
_atom_site_label
_atom_site_type_symbol
_atom_site_fract_x
_atom_site_fract_y
_atom_site_fract_z
Zn1	Zn	-0.320623	-1.474935	-0.545363
Zn2	Zn	-0.455569	-1.474737	-0.384056
Zn3	Zn	-0.320757	-1.313546	-0.384081
Zn4	Zn	-0.455420	-1.313593	-0.545309
O5	O	-0.388092	-1.394203	-0.464702
O6	O	-0.338530	-1.609891	-0.523977
O7	O	-0.437805	-1.453253	-0.249077
O8	O	-0.207907	-1.335018	-0.405509
O9	O	-0.437675	-1.609745	-0.405466
O10	O	-0.207808	-1.453590	-0.524002
O11	O	-0.338759	-1.334826	-0.249096
O12	O	-0.338615	-1.178571	-0.405456
O13	O	-0.437420	-1.335097	-0.680298
O14	O	-0.437551	-1.178605	-0.523910
O15	O	-0.338385	-1.453635	-0.680338
O16	O	-0.568382	-1.453298	-0.405414
O17	O	-0.568272	-1.334905	-0.523885
C18	C	-0.388082	-1.143588	-0.464680
C19	C	-0.388096	-1.036375	-0.464694
C20	C	-0.597583	-1.394111	-0.464662
C21	C	-0.687204	-1.394161	-0.464677
C22	C	-0.387871	-1.394393	-0.716296
C23	C	-0.387777	-1.394474	-0.823510
C24	C	-1.015380	-1.394329	-0.464777
C25	C	-0.924071	-1.394279	-0.464752
C26	C	-0.851295	-1.394244	-0.464727
C27	C	-0.759981	-1.394196	-0.464702
C28	C	-0.177783	-1.394321	-0.464764
C29	C	-0.088162	-1.394371	-0.464790
C30	C	-0.388104	-1.645796	-0.464725
C31	C	-0.388109	-1.753010	-0.464735
C32	C	-0.388099	-0.840079	-0.464719
C33	C	-0.388095	-0.949312	-0.464702
C34	C	-0.388255	-1.394069	-0.214088
C35	C	-0.388122	-1.394174	-0.106874
C36	C	-0.387885	-1.394389	0.089421
C37	C	-0.388019	-1.394272	-0.019812
