data_functionalizedCrystal
_audit_creation_method	'MofGen! by Chris Wilmer'
_symmetry_space_group_name_H-M	'P1'
_symmetry_Int_Tables_number	1
_symmetry_cell_setting	triclinic
loop_
_symmetry_equiv_pos_as_xyz
  x,y,z
_cell_length_a	9.065218
_cell_length_b	9.065218
_cell_length_c	7.540329
_cell_angle_alpha	90.001757
_cell_angle_beta	90.003038
_cell_angle_gamma	85.015885
loop_
_atom_site_label
_atom_site_type_symbol
_atom_site_fract_x
_atom_site_fract_y
_atom_site_fract_z
O1	O	-1.960398	-0.216355	-0.147479
O2	O	-1.460398	0.283645	0.352521
O3	O	-1.531114	-0.234101	-0.147481
O4	O	-1.031114	0.265899	0.352519
O5	O	-1.754629	-0.010585	-0.147476
O6	O	-1.254629	0.489415	0.352524
O7	O	-1.736883	-0.439870	-0.147484
O8	O	-1.236883	0.060130	0.352516
O9	O	-1.754616	-0.010583	0.147489
O10	O	-1.254616	0.489417	0.647489
O11	O	-1.531100	-0.234098	0.147484
O12	O	-1.031100	0.265902	0.647484
O13	O	-1.960385	-0.216352	0.147486
O14	O	-1.460385	0.283648	0.647486
Cu15	Cu	-1.745741	-0.225225	0.174418
Cu16	Cu	-1.245741	0.274775	0.674418
Cu17	Cu	-1.745757	-0.225228	-0.174413
Cu18	Cu	-1.245757	0.274772	0.325587
O19	O	-1.736869	-0.439867	0.147481
O20	O	-1.236869	0.060133	0.647481
C21	C	-1.476120	-0.232394	0.000001
C22	C	-0.976120	0.267606	0.500001
C23	C	-1.312277	-0.227294	0.000000
C24	C	-0.812277	0.272706	0.500000
C25	C	-2.015378	-0.218059	-0.000000
C26	C	-1.515378	0.281941	0.500000
C27	C	-2.179221	-0.223158	-0.000011
C28	C	-1.679221	0.276842	0.499989
C29	C	-1.752917	0.044403	0.000003
C30	C	-1.252917	0.544403	0.500003
C31	C	-1.747817	0.208245	-0.000005
C32	C	-1.247817	0.708245	0.499995
C33	C	-1.738582	-0.494855	-0.000002
C34	C	-1.238582	0.005145	0.499998
C35	C	-1.743681	-0.658698	-0.000005
C36	C	-1.243681	-0.158698	0.499995
N37	N	-1.745741	-0.225222	0.419766
N38	N	-1.245741	0.274778	0.919766
N39	N	-1.745769	-0.225220	-0.419761
N40	N	-1.245769	0.274780	0.080239
