data_functionalizedCrystal
_audit_creation_method	'MofGen! by Chris Wilmer'
_symmetry_space_group_name_H-M	'P1'
_symmetry_Int_Tables_number	1
_symmetry_cell_setting	triclinic
loop_
_symmetry_equiv_pos_as_xyz
  x,y,z
_cell_length_a	19.121102
_cell_length_b	29.839131
_cell_length_c	19.120904
_cell_angle_alpha	92.409150
_cell_angle_beta	90.088173
_cell_angle_gamma	87.595578
loop_
_atom_site_label
_atom_site_type_symbol
_atom_site_fract_x
_atom_site_fract_y
_atom_site_fract_z
Zn1	Zn	1.054749	-0.219753	-0.442036
Zn2	Zn	1.059636	-0.291816	-0.324791
Zn3	Zn	0.942520	-0.213364	-0.319821
Zn4	Zn	0.937448	-0.291514	-0.436994
O5	O	0.998588	-0.254112	-0.380911
O6	O	1.153501	-0.232113	-0.430674
O7	O	1.048269	-0.278861	-0.226027
O8	O	0.957485	-0.151347	-0.336063
O9	O	1.157092	-0.285057	-0.344535
O10	O	1.039939	-0.156042	-0.425855
O11	O	0.962224	-0.221223	-0.222376
O12	O	0.843743	-0.220930	-0.331174
O13	O	0.948840	-0.284542	-0.535767
O14	O	0.840017	-0.278346	-0.417260
O15	O	1.035020	-0.231820	-0.539472
O16	O	1.043351	-0.354640	-0.339645
O17	O	0.953579	-0.354418	-0.422080
C18	C	0.816443	-0.248912	-0.373131
C19	C	0.738519	-0.246699	-0.369819
C20	C	0.699992	-0.275595	-0.413013
C21	C	0.626774	-0.273510	-0.409905
C22	C	0.592086	-0.242531	-0.363599
C23	C	0.630619	-0.213632	-0.320403
C24	C	0.703835	-0.215716	-0.323515
C25	C	0.371117	-0.234741	-0.351966
C26	C	0.297896	-0.232660	-0.348855
C27	C	0.294056	-0.292537	-0.438359
C28	C	0.367274	-0.294620	-0.441464
C29	C	0.405800	-0.265720	-0.398271
C30	C	0.517246	-0.240400	-0.360419
C31	C	0.480639	-0.267849	-0.401455
C32	C	0.998463	-0.370830	-0.380870
C33	C	0.998473	-0.420765	-0.380879
C34	C	1.045411	-0.730519	-0.338056
C35	C	1.045496	-0.918195	-0.338087
O36	O	1.085306	-0.942551	-0.301646
N37	N	0.998731	-0.941559	-0.380970
C38	C	0.951945	-0.918001	-0.423851
O39	O	0.912175	-0.942181	-0.460332
C40	C	0.951864	-0.730326	-0.423824
C41	C	0.998627	-0.706964	-0.380933
C42	C	1.092171	-0.707157	-0.295169
C43	C	1.092146	-0.660241	-0.295159
C44	C	1.045362	-0.636686	-0.338036
C45	C	0.998602	-0.660048	-0.380923
C46	C	0.905081	-0.706770	-0.466708
C47	C	0.905066	-0.659848	-0.466699
C48	C	0.951829	-0.636486	-0.423808
C49	C	0.951794	-0.589577	-0.423789
N50	N	0.998559	-0.566213	-0.380906
C51	C	1.045343	-0.589768	-0.338030
C52	C	0.951990	-1.016534	-0.423862
C53	C	0.952010	-1.063452	-0.423868
C54	C	1.045562	-1.063642	-0.338104
C55	C	1.045539	-1.016723	-0.338095
C56	C	0.998755	-0.993169	-0.380979
C57	C	1.045288	-0.491240	-0.338011
C58	C	1.045257	-0.444319	-0.338003
C59	C	0.951708	-0.444133	-0.423769
C60	C	0.951735	-0.491049	-0.423775
C61	C	0.998531	-0.514602	-0.380894
O62	O	0.912011	-0.565193	-0.460217
O63	O	1.085117	-0.565581	-0.301566
C64	C	1.045435	-0.777435	-0.338066
C65	C	0.998676	-0.800797	-0.380953
C66	C	0.951891	-0.777243	-0.423830
C67	C	0.998695	-0.847716	-0.380959
C68	C	1.045479	-0.871270	-0.338082
C69	C	1.092244	-0.847906	-0.295199
C70	C	1.092220	-0.800990	-0.295189
C71	C	0.905126	-0.800607	-0.466712
C72	C	0.905154	-0.847523	-0.466718
C73	C	0.951938	-0.871078	-0.423842
C74	C	1.181445	-0.259331	-0.388721
C75	C	1.259368	-0.261556	-0.392050
C76	C	0.990819	-0.258860	-0.563768
C77	C	0.987508	-0.260884	-0.641691
C78	C	0.998732	-0.136939	-0.380967
C79	C	0.998794	-0.087007	-0.380991
C80	C	1.030820	-0.234387	-0.680230
C81	C	1.027700	-0.236286	-0.753446
C82	C	0.981272	-0.264686	-0.788123
C83	C	0.937956	-0.291184	-0.749580
C84	C	0.941072	-0.289282	-0.676364
C85	C	0.969615	-0.271800	-1.009090
C86	C	0.966503	-0.273701	-1.082311
C87	C	1.056247	-0.218802	-1.086172
C88	C	1.059362	-0.216905	-1.012955
C89	C	1.016043	-0.243401	-0.974418
C90	C	0.978084	-0.266629	-0.862963
C91	C	1.019228	-0.241455	-0.899580
C92	C	1.006368	-0.249350	-0.198766
C93	C	1.009815	-0.247204	-0.120849
H94	H	0.262680	-0.316066	-0.473526
H95	H	0.913892	-0.997359	-0.458784
H96	H	0.488994	-0.215177	-0.322714
C97	C	0.259740	-0.198579	-0.297913
N98	N	0.231001	-0.172911	-0.259545
H99	H	0.508885	-0.293070	-0.439160
C100	C	0.584398	-0.305305	-0.457409
N101	N	0.552480	-0.329258	-0.493187
C102	C	1.103886	-0.189652	-1.128569
N103	N	1.139766	-0.167692	-1.160502
C104	C	1.143585	-0.634548	-0.247969
N105	N	1.182329	-0.615200	-0.212421
H106	H	1.130272	-0.726330	-0.260254
H107	H	0.395512	-0.319847	-0.479171
H108	H	0.735203	-0.192183	-0.288345
C109	C	0.900560	-1.089144	-0.471044
N110	N	0.861809	-1.108495	-0.506582
C111	C	1.096983	-0.991029	-0.290914
N112	N	1.135735	-0.971679	-0.255377
H113	H	0.940285	-0.289754	-0.891205
H114	H	0.866970	-0.640673	-0.501623
C115	C	1.096699	-0.418624	-0.290814
N116	N	1.135444	-0.399271	-0.255272
H117	H	0.928693	-0.296828	-1.110543
H118	H	1.083395	-0.510411	-0.303095
H119	H	0.402476	-0.211211	-0.316789
C120	C	1.097029	-1.089561	-0.290943
N121	N	1.135795	-1.109086	-0.255428
C122	C	0.592459	-0.179554	-0.269466
N123	N	0.563717	-0.153887	-0.231099
H124	H	0.866998	-0.725783	-0.501631
C125	C	0.900291	-0.516748	-0.470954
N126	N	0.861548	-0.536101	-0.506496
C127	C	0.900250	-0.418214	-0.470934
N128	N	0.861496	-0.398691	-0.506463
H129	H	0.728230	-0.300822	-0.450719
H130	H	1.130299	-0.781972	-0.260264
H131	H	0.867068	-0.866540	-0.501645
C132	C	1.143706	-0.873825	-0.248034
N133	N	1.182468	-0.893350	-0.212514
H134	H	0.867030	-0.781432	-0.501629
C135	C	1.081894	-0.203144	-0.642092
N136	N	1.120362	-0.179610	-0.613368
C137	C	1.075348	-0.207137	-0.795835
N138	N	1.111239	-0.185181	-0.827763
C139	C	1.110430	-0.185658	-0.974816
N140	N	1.148894	-0.162122	-0.946089
C141	C	0.921960	-0.300946	-0.966708
N142	N	0.886063	-0.322899	-0.934784
H143	H	0.900150	-0.314306	-0.777819
H144	H	0.905796	-0.310854	-0.644987
H145	H	1.057027	-0.218330	-0.871343
