data_functionalizedCrystal
_audit_creation_method	'MofGen! by Chris Wilmer'
_symmetry_space_group_name_H-M	'P1'
_symmetry_Int_Tables_number	1
_symmetry_cell_setting	triclinic
loop_
_symmetry_equiv_pos_as_xyz
  x,y,z
_cell_length_a	11.026607
_cell_length_b	13.101018
_cell_length_c	11.026607
_cell_angle_alpha	85.900546
_cell_angle_beta	108.586017
_cell_angle_gamma	94.101240
loop_
_atom_site_label
_atom_site_type_symbol
_atom_site_fract_x
_atom_site_fract_y
_atom_site_fract_z
O1	O	1.732216	0.085212	0.528129
O2	O	2.232216	0.585212	1.028129
O3	O	1.365636	0.085214	0.467365
O4	O	1.865636	0.585214	0.967365
O5	O	1.518544	0.085210	0.314457
O6	O	2.018544	0.585210	0.814457
O7	O	1.579308	0.085217	0.681037
O8	O	2.079308	0.585217	1.181037
O9	O	1.507560	-0.085220	0.325437
O10	O	2.007560	0.414780	0.825437
O11	O	1.354652	-0.085216	0.478345
O12	O	1.854652	0.414784	0.978345
O13	O	1.721232	-0.085218	0.539109
O14	O	2.221232	0.414782	1.039109
Zn15	Zn	1.536198	-0.112276	0.510470
Zn16	Zn	2.036198	0.387724	1.010470
Zn17	Zn	1.550670	0.112273	0.496004
Zn18	Zn	2.050670	0.612273	0.996004
O19	O	1.568324	-0.085213	0.692017
O20	O	2.068324	0.414787	1.192017
C21	C	1.312485	-0.000001	0.461645
C22	C	1.812485	0.499999	0.961645
C23	C	1.170471	-0.000000	0.428228
C24	C	1.670471	0.500000	0.928228
C25	C	1.116822	0.000002	0.520498
C26	C	1.616822	0.500002	1.020498
C27	C	0.970043	0.000003	0.485962
C28	C	1.470043	0.500003	0.985962
N29	N	1.526330	-0.265525	0.520344
N30	N	2.026330	0.234475	1.020344
C31	C	1.573964	-0.525436	0.472681
C32	C	2.073964	-0.025436	0.972681
C33	C	1.512915	-0.474561	0.533781
C34	C	2.012915	0.025439	1.033781
C35	C	1.520381	-0.358243	0.526303
C36	C	2.020381	0.141757	1.026303
C37	C	1.566500	-0.641765	0.480159
C38	C	2.066500	-0.141765	0.980159
C39	C	1.774384	-0.000001	0.544829
C40	C	2.274384	0.499999	1.044829
C41	C	1.916398	0.000006	0.578245
C42	C	2.416398	0.500006	1.078245
C43	C	1.501842	-0.000004	0.272288
C44	C	2.001842	0.499996	0.772288
C45	C	1.468426	-0.000000	0.130273
C46	C	1.968426	0.500000	0.630273
N47	N	1.560546	0.265521	0.486122
N48	N	2.060546	0.765521	0.986122
C49	C	1.560695	0.000001	0.076624
C50	C	2.060695	0.500001	0.576624
C51	C	1.526160	0.000005	-0.070155
C52	C	2.026160	0.500005	0.429845
C53	C	1.585026	0.000003	0.734186
C54	C	2.085026	0.500003	1.234186
C55	C	1.618443	0.000006	0.876200
C56	C	2.118443	0.500006	1.376200
H57	H	1.179554	-0.000001	0.625061
H58	H	1.679554	0.499999	1.125061
H59	H	1.723018	0.000082	-0.061077
H60	H	2.223018	0.500082	0.438923
H61	H	1.107739	0.000024	0.323664
H62	H	1.607739	0.500024	0.823664
H63	H	0.979125	0.000001	0.682816
H64	H	1.479125	0.500001	1.182816
H65	H	1.455044	-0.518365	0.591708
H66	H	1.955044	-0.018365	1.091708
H67	H	1.631834	-0.481638	0.414760
H68	H	2.131834	0.018362	0.914760
H69	H	0.907315	0.000027	0.381391
H70	H	1.407315	0.500027	0.881391
H71	H	1.665258	-0.000006	0.139358
H72	H	2.165258	0.499994	0.639358
H73	H	1.363863	0.000007	0.067540
H74	H	1.863863	0.500007	0.567540
H75	H	1.421591	0.000012	-0.132884
H76	H	1.921591	0.500012	0.367116
