data_functionalizedCrystal
_audit_creation_method	'MofGen! by Chris Wilmer'
_symmetry_space_group_name_H-M	'P1'
_symmetry_Int_Tables_number	1
_symmetry_cell_setting	triclinic
loop_
_symmetry_equiv_pos_as_xyz
  x,y,z
_cell_length_a	19.077105
_cell_length_b	10.686285
_cell_length_c	19.077251
_cell_angle_alpha	92.254502
_cell_angle_beta	94.506220
_cell_angle_gamma	83.162422
loop_
_atom_site_label
_atom_site_type_symbol
_atom_site_fract_x
_atom_site_fract_y
_atom_site_fract_z
Zn1	Zn	1.118976	-0.613294	0.416686
Zn2	Zn	1.618976	-0.113294	0.916686
Zn3	Zn	1.122533	-0.815419	0.290509
Zn4	Zn	1.622533	-0.315419	0.790509
Zn5	Zn	0.995650	-0.595601	0.294810
Zn6	Zn	1.495650	-0.095601	0.794810
Zn7	Zn	1.009406	-0.815386	0.403627
Zn8	Zn	1.509406	-0.315386	0.903627
O9	O	1.061641	-0.709925	0.351408
O10	O	1.561641	-0.209925	0.851408
O11	O	1.218404	-0.647524	0.403613
O12	O	1.718404	-0.147524	0.903613
O13	O	1.101433	-0.778868	0.192733
O14	O	1.601433	-0.278868	0.692733
O15	O	1.004764	-0.421376	0.318242
O16	O	1.504764	0.078624	0.818242
O17	O	1.221017	-0.796025	0.310912
O18	O	1.721017	-0.296025	0.810912
O19	O	1.095371	-0.434375	0.407784
O20	O	1.595371	0.065625	0.907784
O21	O	1.008213	-0.617369	0.195894
O22	O	1.508213	-0.117369	0.695894
O23	O	0.898519	-0.617337	0.305580
O24	O	1.398519	-0.117337	0.805580
O25	O	1.028210	-0.795969	0.503705
O26	O	1.528210	-0.295969	1.003705
O27	O	0.908626	-0.778813	0.385527
O28	O	1.408626	-0.278813	0.885527
O29	O	1.108710	-0.647493	0.513299
O30	O	1.608710	-0.147493	1.013299
O31	O	1.114772	-0.991986	0.298249
O32	O	1.614772	-0.491986	0.798249
O33	O	1.031658	-0.991962	0.381357
O34	O	1.531658	-0.491962	0.881357
C35	C	0.877914	-0.696153	0.344604
C36	C	1.377914	-0.196153	0.844604
C37	C	0.799317	-0.690293	0.341708
C38	C	1.299317	-0.190293	0.841708
C39	C	1.075114	-1.037759	0.337935
C40	C	1.575114	-0.537759	0.837935
C41	C	1.080943	-1.178015	0.332197
C42	C	1.580943	-0.678015	0.832197
C43	C	0.767674	-0.771727	0.381896
C44	C	1.267674	-0.271727	0.881896
C45	C	0.693823	-0.766205	0.379180
C46	C	1.193823	-0.266205	0.879180
C47	C	0.651616	-0.679253	0.336271
C48	C	1.151616	-0.179253	0.836271
C49	C	0.683263	-0.597809	0.296081
C50	C	1.183263	-0.097809	0.796081
C51	C	0.757113	-0.603326	0.298802
C52	C	1.257113	-0.103326	0.798802
C53	C	0.430182	-0.653718	0.323681
C54	C	0.930182	-0.153718	0.823681
C55	C	0.356328	-0.648209	0.320962
C56	C	0.856328	-0.148209	0.820962
C57	C	0.366892	-0.816604	0.404062
C58	C	0.866892	-0.316604	0.904062
C59	C	0.440743	-0.822119	0.406776
C60	C	0.940743	-0.322119	0.906776
C61	C	0.472384	-0.740671	0.366589
C62	C	0.972384	-0.240671	0.866589
N63	N	0.576128	-0.673608	0.333491
N64	N	1.076128	-0.173608	0.833491
N65	N	0.547870	-0.746310	0.369373
N66	N	1.047870	-0.246310	0.869373
C67	C	1.246086	-0.723752	0.358239
C68	C	1.746086	-0.223752	0.858239
C69	C	1.324685	-0.729644	0.361150
C70	C	1.824685	-0.229644	0.861150
C71	C	1.069597	-0.723701	0.534715
C72	C	1.569597	-0.223701	1.034715
C73	C	1.072988	-0.729571	0.612830
C74	C	1.572988	-0.229571	1.112830
C75	C	1.048136	-0.380813	0.364950
C76	C	1.548136	0.119187	0.864950
C77	C	1.042381	-0.240565	0.370720
C78	C	1.542381	0.259435	0.870720
C79	C	1.026048	-0.648247	0.651173
C80	C	1.526048	-0.148247	1.151173
C81	C	1.029232	-0.653773	0.724570
C82	C	1.529232	-0.153773	1.224570
C83	C	1.079359	-0.740619	0.759622
C84	C	1.579359	-0.240619	1.259622
C85	C	1.126301	-0.821952	0.721274
C86	C	1.626301	-0.321952	1.221274
C87	C	1.123113	-0.816431	0.647878
C88	C	1.623113	-0.316431	1.147878
C89	C	1.094093	-0.766153	0.978955
C90	C	1.594093	-0.266153	1.478955
C91	C	1.097278	-0.771666	1.052356
C92	C	1.597278	-0.271666	1.552356
C93	C	1.000207	-0.603488	1.055647
C94	C	1.500207	-0.103488	1.555647
C95	C	0.997027	-0.597969	0.982250
C96	C	1.497027	-0.097969	1.482250
C97	C	1.043967	-0.679307	0.943907
C98	C	1.543967	-0.179307	1.443907
N99	N	1.082615	-0.746267	0.834645
N100	N	1.582615	-0.246267	1.334645
N101	N	1.040706	-0.673664	0.868885
N102	N	1.540706	-0.173664	1.368885
C103	C	1.053716	-0.696226	1.168812
C104	C	1.553716	-0.196226	1.668812
C105	C	1.050338	-0.690341	1.090699
C106	C	1.550338	-0.190341	1.590699
H107	H	0.802034	-0.842538	0.416835
H108	H	1.302034	-0.342538	0.916835
H109	H	0.455935	-0.587406	0.290953
H110	H	0.955935	-0.087406	0.790953
F111	F	0.311409	-0.555665	0.275285
F112	F	0.811409	-0.055665	0.775285
H113	H	0.991006	-0.587555	0.755786
H114	H	1.491006	-0.087555	1.255786
H115	H	0.648892	-0.527005	0.261146
H116	H	1.148892	-0.027005	0.761146
F117	F	0.660150	-0.852879	0.421954
F118	F	1.160150	-0.352879	0.921954
H119	H	0.782875	-0.537007	0.266080
H120	H	1.282875	-0.037007	0.766080
H121	H	1.132307	-0.832397	0.947744
H122	H	1.632307	-0.332397	1.447744
F123	F	1.129920	-1.248269	0.283338
F124	F	1.629920	-0.748269	0.783338
F125	F	0.950253	-0.516932	1.096458
F126	F	1.450253	-0.016932	1.596458
H127	H	1.004907	-1.186819	0.408092
H128	H	1.504907	-0.686819	0.908092
H129	H	0.985233	-0.577521	0.622640
H130	H	1.485233	-0.077521	1.122640
H131	H	0.956207	-0.527254	0.953715
H132	H	1.456207	-0.027254	1.453715
H133	H	1.161342	-0.882645	0.616660
H134	H	1.661342	-0.382645	1.116660
H135	H	1.138100	-0.842387	1.080893
H136	H	1.638100	-0.342387	1.580893
H137	H	0.475104	-0.892927	0.441716
H138	H	0.975104	-0.392927	0.941716
F139	F	0.333212	-0.903283	0.446828
F140	F	0.833212	-0.403283	0.946828
H141	H	1.167112	-0.892670	0.749819
H142	H	1.667112	-0.392670	1.249819
