data_functionalizedCrystal
_audit_creation_method	'MofGen! by Chris Wilmer'
_symmetry_space_group_name_H-M	'P1'
_symmetry_Int_Tables_number	1
_symmetry_cell_setting	triclinic
loop_
_symmetry_equiv_pos_as_xyz
  x,y,z
_cell_length_a	14.853569
_cell_length_b	19.188924
_cell_length_c	13.930277
_cell_angle_alpha	89.993371
_cell_angle_beta	89.994756
_cell_angle_gamma	83.388765
loop_
_atom_site_label
_atom_site_type_symbol
_atom_site_fract_x
_atom_site_fract_y
_atom_site_fract_z
O1	O	1.195858	0.091160	-0.079791
O2	O	0.933338	0.102018	-0.079804
O3	O	1.072177	-0.005041	-0.079786
O4	O	1.057019	0.198220	-0.079809
O5	O	1.072158	-0.005044	0.079876
O6	O	0.933319	0.102016	0.079858
O7	O	1.195839	0.091158	0.079870
Zn8	Zn	1.064575	0.096587	0.105214
Zn9	Zn	1.064601	0.096590	-0.105147
O10	O	1.057000	0.198218	0.079853
C11	C	0.899742	0.101525	0.000026
C12	C	0.799667	0.100050	0.000022
C13	C	1.071677	-0.031055	0.000046
C14	C	1.070207	-0.108565	0.000048
C15	C	0.763650	0.035762	0.000026
C16	C	0.741649	0.162952	0.000022
C17	C	0.647623	0.161569	0.000023
C18	C	0.611606	0.097281	0.000027
C19	C	0.669615	0.034377	0.000030
C20	C	0.589606	0.224471	0.000030
C21	C	0.495574	0.223090	0.000033
C22	C	0.459555	0.158802	0.000030
C23	C	0.517571	0.095895	0.000031
C24	C	0.481554	0.031608	0.000035
C25	C	0.539568	-0.031300	0.000030
C26	C	0.633596	-0.029912	0.000027
C27	C	0.365527	0.157414	0.000033
C28	C	0.387519	0.030222	0.000039
C29	C	1.069531	-0.144965	-0.086983
C30	C	1.068137	-0.217792	-0.086991
C31	C	1.067436	-0.254219	0.000039
C32	C	1.068107	-0.217809	0.087082
C33	C	1.069492	-0.144983	0.087087
N34	N	1.116557	-0.373719	0.064815
N35	N	1.115242	-0.442901	0.064804
C36	C	1.063260	-0.473642	0.000029
N37	N	1.012653	-0.432587	-0.064750
N38	N	1.013972	-0.363398	-0.064742
C39	C	1.065934	-0.333187	0.000043
C40	C	1.061071	-0.589009	-0.087017
C41	C	1.059671	-0.661837	-0.087020
C42	C	1.059651	-0.661854	0.087055
C43	C	1.061042	-0.589027	0.087056
C44	C	1.061756	-0.552609	0.000018
C45	C	1.229434	0.091651	0.000039
C46	C	1.329509	0.093126	0.000037
C47	C	1.057499	0.224232	0.000019
C48	C	1.058969	0.301741	0.000010
N49	N	1.064565	0.096584	0.248780
N50	N	1.064619	0.096587	-0.248713
C51	C	1.003121	0.143977	0.701042
C52	C	1.126106	0.049197	0.701027
C53	C	1.126095	0.049195	0.600531
C54	C	1.064597	0.096585	0.550286
C55	C	1.003110	0.143978	0.600537
C56	C	1.187587	0.001808	0.550273
C57	C	1.187580	0.001804	0.449771
C58	C	1.126077	0.049192	0.399524
C59	C	1.064586	0.096586	0.449781
C60	C	1.003088	0.143976	0.399536
C61	C	0.941593	0.191367	0.449791
C62	C	0.941607	0.191365	0.550290
C63	C	1.126063	0.049194	0.299025
C64	C	1.003077	0.143977	0.299031
H65	H	0.358202	-0.022129	0.000038
H66	H	0.810889	-0.015455	0.000018
H67	H	1.176136	0.010612	0.258112
H68	H	0.448346	0.274314	0.000035
H69	H	0.318296	0.208632	0.000045
F70	F	1.070287	-0.106210	-0.179618
H71	H	0.770980	0.215292	0.000025
F72	F	0.695344	-0.096856	0.000029
H73	H	0.618939	0.276811	0.000033
H74	H	1.237652	-0.036784	0.408859
F75	F	0.937672	0.194410	0.754524
F76	F	1.067416	-0.256539	-0.179626
H77	H	1.067534	-0.247472	0.157942
F78	F	1.061826	-0.550248	-0.179649
F79	F	0.501225	-0.099717	0.000042
F80	F	1.061761	-0.550285	0.179689
F81	F	1.070210	-0.106242	0.179722
H82	H	1.059116	-0.691473	-0.157895
F83	F	1.191559	-0.001233	0.754501
H84	H	1.059074	-0.691511	0.157916
F85	F	0.937617	0.194414	0.245564
H86	H	0.891524	0.229956	0.408870
H87	H	0.891540	0.229950	0.591214
H88	H	1.237662	-0.036773	0.591186
