data_functionalizedCrystal
_audit_creation_method	'MofGen! by Chris Wilmer'
_symmetry_space_group_name_H-M	'P1'
_symmetry_Int_Tables_number	1
_symmetry_cell_setting	triclinic
loop_
_symmetry_equiv_pos_as_xyz
  x,y,z
_cell_length_a	10.654550
_cell_length_b	8.559649
_cell_length_c	9.730223
_cell_angle_alpha	90.000781
_cell_angle_beta	89.996251
_cell_angle_gamma	77.131784
loop_
_atom_site_label
_atom_site_type_symbol
_atom_site_fract_x
_atom_site_fract_y
_atom_site_fract_z
O1	O	1.644677	0.224178	-0.114394
O2	O	1.276992	0.245537	-0.114371
O3	O	1.493228	0.002614	-0.114383
O4	O	1.428441	0.467100	-0.114382
O5	O	1.493225	0.002620	0.114197
O6	O	1.276989	0.245543	0.114209
O7	O	1.644674	0.224184	0.114186
Zn8	Zn	1.460831	0.234864	0.150489
Zn9	Zn	1.460835	0.234856	-0.150675
O10	O	1.428438	0.467106	0.114198
C11	C	1.230355	0.243972	-0.000079
C12	C	1.091396	0.239279	-0.000070
C13	C	0.997136	0.382308	-0.000090
C14	C	0.866571	0.377890	-0.000114
C15	C	0.924542	0.087401	-0.000104
C16	C	1.055103	0.091821	-0.000070
C17	C	0.963666	0.550020	-0.000101
C18	C	0.833101	0.545601	-0.000125
C19	C	1.498136	-0.056858	-0.000096
C20	C	1.512750	-0.234076	-0.000105
C21	C	1.691311	0.225749	-0.000110
C22	C	1.830270	0.230441	-0.000128
C23	C	1.423530	0.526579	-0.000092
C24	C	1.408916	0.703797	-0.000093
N25	N	1.460838	0.234869	0.356026
N26	N	1.460839	0.234839	-0.356211
C27	C	1.556605	0.127340	0.427946
C28	C	1.556604	0.127320	0.571829
C29	C	1.365062	0.342373	0.571858
C30	C	1.365060	0.342384	0.427978
C31	C	1.667193	0.003185	0.427931
C32	C	1.667192	0.003165	0.571814
H33	H	0.986220	0.615614	0.095564
C34	C	1.642151	-0.153440	0.632106
H35	H	1.642993	-0.148103	0.729616
H36	H	1.707412	-0.241317	0.601952
H37	H	1.560576	-0.167490	0.601963
C38	C	1.004390	0.622206	-0.133390
H39	H	1.093350	0.622806	-0.128821
H40	H	0.955568	0.728814	-0.143916
H41	H	0.989393	0.559512	-0.209663
H42	H	1.287069	0.429929	0.369421
C43	C	1.647960	-0.345367	-0.000105
H44	H	1.711141	-0.282627	-0.000105
H45	H	1.658084	-0.411073	-0.079809
H46	H	1.658077	-0.411044	0.079623
C47	C	1.158786	-0.065509	-0.000033
H48	H	1.118468	-0.153957	-0.000049
H49	H	1.210899	-0.069810	0.079691
H50	H	1.210946	-0.069837	-0.079740
C51	C	1.259722	0.460639	0.651010
H52	H	1.273441	0.445240	0.747001
H53	H	1.177681	0.442318	0.627432
H54	H	1.263073	0.567336	0.627439
H55	H	1.658424	-0.119498	0.388878
C56	C	1.784951	0.055683	0.367626
H57	H	1.837396	0.079047	0.440335
H58	H	1.756839	0.148627	0.312680
H59	H	1.833283	-0.028260	0.312673
H60	H	1.308838	-0.213815	-0.000082
C61	C	0.884613	-0.074789	-0.000118
H62	H	0.793355	-0.056939	-0.000148
H63	H	0.917900	-0.133743	0.079596
H64	H	0.917939	-0.133738	-0.079836
C65	C	0.764319	0.614074	0.133179
H66	H	0.824033	0.647633	0.192558
H67	H	0.730132	0.533773	0.177472
H68	H	0.696364	0.703082	0.111743
C69	C	1.793745	0.040113	0.624571
H70	H	1.845786	0.055338	0.548630
H71	H	1.838474	-0.046917	0.678795
H72	H	1.775040	0.134743	0.678819
C73	C	0.767942	0.630746	-0.129461
H74	H	0.829742	0.668766	-0.182632
H75	H	0.700829	0.718511	-0.103058
H76	H	0.733084	0.557404	-0.182526
