data_functionalizedCrystal
_audit_creation_method	'MofGen! by Chris Wilmer'
_symmetry_space_group_name_H-M	'P1'
_symmetry_Int_Tables_number	1
_symmetry_cell_setting	triclinic
loop_
_symmetry_equiv_pos_as_xyz
  x,y,z
_cell_length_a	25.639242
_cell_length_b	25.639239
_cell_length_c	25.639233
_cell_angle_alpha	90.018747
_cell_angle_beta	90.022166
_cell_angle_gamma	90.034213
loop_
_atom_site_label
_atom_site_type_symbol
_atom_site_fract_x
_atom_site_fract_y
_atom_site_fract_z
Zn1	Zn	0.799225	-0.208277	0.295742
Zn2	Zn	1.132558	0.125057	0.629076
Zn3	Zn	1.465892	0.458390	0.962409
Zn4	Zn	0.799149	-0.295696	0.208307
Zn5	Zn	1.132482	0.037638	0.541640
Zn6	Zn	1.465815	0.370971	0.874973
Zn7	Zn	0.711801	-0.208269	0.208306
Zn8	Zn	1.045135	0.125064	0.541640
Zn9	Zn	1.378468	0.458398	0.874973
Zn10	Zn	0.711746	-0.295676	0.295696
Zn11	Zn	1.045080	0.037657	0.629030
Zn12	Zn	1.378413	0.370990	0.962363
O13	O	0.755480	-0.251979	0.252013
O14	O	1.088814	0.081354	0.585346
O15	O	1.422147	0.414687	0.918680
O16	O	0.872380	-0.219884	0.284163
O17	O	1.205713	0.113449	0.617496
O18	O	1.539047	0.446782	0.950830
O19	O	0.787553	-0.284103	0.135141
O20	O	1.120886	0.049230	0.468475
O21	O	1.454219	0.382563	0.801808
O22	O	0.723453	-0.135105	0.219924
O23	O	1.056787	0.198228	0.553257
O24	O	1.390120	0.531562	0.886591
O25	O	0.872324	-0.284111	0.219924
O26	O	1.205657	0.049223	0.553258
O27	O	1.538991	0.382556	0.886591
O28	O	0.787683	-0.135111	0.284163
O29	O	1.121016	0.198223	0.617496
O30	O	1.454350	0.531556	0.950829
O31	O	0.723379	-0.219871	0.135141
O32	O	1.056712	0.113462	0.468474
O33	O	1.390046	0.446795	0.801808
O34	O	0.638629	-0.219853	0.219880
O35	O	0.971962	0.113481	0.553213
O36	O	1.305296	0.446814	0.886546
O37	O	0.723360	-0.284078	0.368868
O38	O	1.056693	0.049256	0.702201
O39	O	1.390026	0.382589	1.035534
O40	O	0.638589	-0.284070	0.284085
O41	O	0.971922	0.049263	0.617418
O42	O	1.305255	0.382597	0.950751
O43	O	0.787630	-0.219866	0.368901
O44	O	1.120963	0.113468	0.702235
O45	O	1.454297	0.446801	1.035568
O46	O	0.787499	-0.368858	0.219880
O47	O	1.120833	-0.035525	0.553213
O48	O	1.454166	0.297808	0.886547
O49	O	0.723286	-0.368844	0.284085
O50	O	1.056619	-0.035511	0.617418
O51	O	1.389952	0.297823	0.950752
C52	C	0.619638	-0.251959	0.251977
C53	C	0.952971	0.081375	0.585311
C54	C	1.286304	0.414708	0.918644
C55	C	0.561524	-0.251963	0.251975
C56	C	0.894857	0.081371	0.585308
C57	C	1.228190	0.414704	0.918641
C58	C	0.201149	-0.285473	0.285413
C59	C	0.534482	0.047860	0.618746
C60	C	0.867815	0.381193	0.952080
C61	C	0.146544	-0.285477	0.285421
C62	C	0.479878	0.047857	0.618754
C63	C	0.813211	0.381190	0.952088
O64	O	0.118297	-0.313943	0.313821
O65	O	0.451631	0.019390	0.647155
O66	O	0.784964	0.352724	0.980488
N67	N	0.119241	-0.251994	0.252047
N68	N	0.452575	0.081340	0.585380
N69	N	0.785908	0.414673	0.918714
C70	C	0.146545	-0.218502	0.218666
C71	C	0.479879	0.114831	0.552000
C72	C	0.813212	0.448165	0.885333
O73	O	0.118308	-0.190022	0.190280
O74	O	0.451641	0.143311	0.523613
O75	O	0.784975	0.476644	0.856947
C76	C	0.201149	-0.218496	0.218661
C77	C	0.534482	0.114837	0.551994
C78	C	0.867815	0.448170	0.885328
C79	C	0.228449	-0.251985	0.252034
C80	C	0.561782	0.081348	0.585367
C81	C	0.895116	0.414681	0.918700
C82	C	0.228449	-0.318959	0.318783
C83	C	0.561782	0.014374	0.652116
C84	C	0.895115	0.347708	0.985450
C85	C	0.283049	-0.318956	0.318774
C86	C	0.616383	0.014377	0.652107
C87	C	0.949716	0.347710	0.985441
C88	C	0.310350	-0.285468	0.285395
C89	C	0.643683	0.047865	0.618728
C90	C	0.977016	0.381199	0.952061
C91	C	0.283049	-0.251983	0.252024
C92	C	0.616383	0.081351	0.585358
C93	C	0.949716	0.414684	0.918691
C94	C	0.228452	-0.185002	0.185283
C95	C	0.561785	0.148331	0.518617
C96	C	0.895119	0.481664	0.851950
C97	C	0.283059	-0.185000	0.185281
C98	C	0.616392	0.148334	0.518615
C99	C	0.949726	0.481667	0.851948
C100	C	0.310359	-0.218488	0.218654
C101	C	0.643692	0.114845	0.551987
C102	C	0.977026	0.448178	0.885320
C103	C	0.364950	-0.218492	0.218636
C104	C	0.698284	0.114842	0.551969
C105	C	1.031617	0.448175	0.885303
N106	N	0.392253	-0.251974	0.252010
N107	N	0.725587	0.081359	0.585344
N108	N	1.058920	0.414692	0.918677
C109	C	0.364953	-0.285463	0.285389
C110	C	0.698286	0.047871	0.618723
C111	C	1.031620	0.381204	0.952056
C112	C	0.031875	-0.218515	0.218680
C113	C	0.365208	0.114818	0.552014
C114	C	0.698541	0.448151	0.885347
C115	C	-0.022728	-0.218523	0.218683
C116	C	0.310606	0.114810	0.552016
C117	C	0.643939	0.448144	0.885349
C118	C	-0.022725	-0.285497	0.285438
C119	C	0.310608	0.047836	0.618772
C120	C	0.643942	0.381170	0.952105
C121	C	0.031878	-0.285492	0.285433
C122	C	0.365212	0.047842	0.618766
C123	C	0.698545	0.381175	0.952100
C124	C	0.059178	-0.251998	0.252054
C125	C	0.392511	0.081335	0.585388
C126	C	0.725844	0.414669	0.918721
C127	C	0.479618	-0.285455	0.285368
C128	C	0.812951	0.047878	0.618701
C129	C	1.146285	0.381212	0.952034
C130	C	0.534223	-0.285451	0.285354
C131	C	0.867557	0.047883	0.618687
C132	C	1.200890	0.381216	0.952021
C133	C	0.534216	-0.218475	0.218601
C134	C	0.867549	0.114858	0.551934
C135	C	1.200883	0.448192	0.885267
C136	C	0.479615	-0.218481	0.218612
C137	C	0.812949	0.114853	0.551945
C138	C	1.146282	0.448186	0.885279
C139	C	0.452318	-0.251972	0.252000
C140	C	0.785651	0.081361	0.585333
C141	C	1.118984	0.414694	0.918666
O142	O	0.393232	-0.190038	0.190252
O143	O	0.726565	0.143295	0.523585
O144	O	1.059899	0.476628	0.856918
O145	O	0.393197	-0.313933	0.313776
O146	O	0.726530	0.019401	0.647109
O147	O	1.059864	0.352734	0.980442
C148	C	0.755392	-0.387822	0.251989
C149	C	1.088726	-0.054489	0.585322
C150	C	1.422059	0.278845	0.918656
C151	C	0.755403	-0.445936	0.251996
C152	C	1.088736	-0.112603	0.585330
C153	C	1.422069	0.220731	0.918663
C154	C	0.789004	-0.806294	0.218638
C155	C	1.122337	-0.472961	0.551972
C156	C	1.455670	-0.139627	0.885305
C157	C	0.789024	-0.860898	0.218645
C158	C	1.122357	-0.527565	0.551979
C159	C	1.455691	-0.194232	0.885312
O160	O	0.817502	-0.889131	0.190257
O161	O	1.150835	-0.555797	0.523590
O162	O	1.484168	-0.222464	0.856924
N163	N	0.755572	-0.888218	0.252048
N164	N	1.088906	-0.554885	0.585381
N165	N	1.422239	-0.221552	0.918714
C166	C	0.722102	-0.860932	0.285449
C167	C	1.055435	-0.527598	0.618782
C168	C	1.388768	-0.194265	0.952115
O169	O	0.693651	-0.889184	0.313861
O170	O	1.026984	-0.555850	0.647194
O171	O	1.360317	-0.222517	0.980528
C172	C	0.722085	-0.806328	0.285444
C173	C	1.055418	-0.472995	0.618777
C174	C	1.388751	-0.139662	0.952111
C175	C	0.755535	-0.779011	0.252036
C176	C	1.088868	-0.445678	0.585369
C177	C	1.422201	-0.112344	0.918702
C178	C	0.822452	-0.778976	0.185233
C179	C	1.155785	-0.445643	0.518567
C180	C	1.489118	-0.112310	0.851900
C181	C	0.822431	-0.724376	0.185226
C182	C	1.155764	-0.391043	0.518559
C183	C	1.489097	-0.057709	0.851892
C184	C	0.788962	-0.697093	0.218623
C185	C	1.122295	-0.363760	0.551957
C186	C	1.455628	-0.030426	0.885290
C187	C	0.755514	-0.724410	0.252028
C188	C	1.088847	-0.391077	0.585362
C189	C	1.422180	-0.057744	0.918695
C190	C	0.688617	-0.779042	0.318847
C191	C	1.021950	-0.445709	0.652181
C192	C	1.355284	-0.112376	0.985514
C193	C	0.688603	-0.724435	0.318840
C194	C	1.021936	-0.391102	0.652173
C195	C	1.355270	-0.057769	0.985507
C196	C	0.722053	-0.697118	0.285432
C197	C	1.055387	-0.363785	0.618765
C198	C	1.388720	-0.030451	0.952099
C199	C	0.722024	-0.642527	0.285418
C200	C	1.055357	-0.309193	0.618751
C201	C	1.388690	0.024140	0.952085
N202	N	0.755475	-0.615206	0.252016
N203	N	1.088809	-0.281873	0.585349
N204	N	1.422142	0.051460	0.918683
C205	C	0.788944	-0.642490	0.218618
C206	C	1.122278	-0.309156	0.551952
C207	C	1.455611	0.024177	0.885285
C208	C	0.722141	-0.975602	0.285457
C209	C	1.055474	-0.642269	0.618790
C210	C	1.388808	-0.308936	0.952123
C211	C	0.722155	-1.030204	0.285459
C212	C	1.055489	-0.696871	0.618793
C213	C	1.388822	-0.363538	0.952126
C214	C	0.789078	-1.030167	0.218656
C215	C	1.122412	-0.696834	0.551990
C216	C	1.455745	-0.363501	0.885323
C217	C	0.789061	-0.975564	0.218652
C218	C	1.122395	-0.642231	0.551985
C219	C	1.455728	-0.308897	0.885318
C220	C	0.755593	-0.948282	0.252055
C221	C	1.088926	-0.614949	0.585388
C222	C	1.422260	-0.281615	0.918721
C223	C	0.788897	-0.527824	0.218605
C224	C	1.122231	-0.194491	0.551938
C225	C	1.455564	0.138842	0.885272
C226	C	0.788872	-0.473219	0.218599
C227	C	1.122205	-0.139886	0.551932
C228	C	1.455538	0.193448	0.885265
C229	C	0.721951	-0.473261	0.285403
C230	C	1.055284	-0.139928	0.618737
C231	C	1.388617	0.193406	0.952070
C232	C	0.721974	-0.527862	0.285408
C233	C	1.055307	-0.194528	0.618741
C234	C	1.388641	0.138805	0.952074
C235	C	0.755452	-0.555142	0.252007
C236	C	1.088785	-0.221809	0.585340
C237	C	1.422118	0.111525	0.918673
O238	O	0.693562	-0.614260	0.313793
O239	O	1.026895	-0.280926	0.647127
O240	O	1.360229	0.052407	0.980460
O241	O	0.817396	-0.614231	0.190216
O242	O	1.150729	-0.280898	0.523549
O243	O	1.484062	0.052436	0.856883
C244	C	0.891853	-0.252000	0.252049
C245	C	1.225187	0.081333	0.585382
C246	C	1.558520	0.414666	0.918715
C247	C	0.949967	-0.252009	0.252064
C248	C	1.283301	0.081324	0.585397
C249	C	1.616634	0.414657	0.918731
C250	C	0.755497	-0.251970	0.388386
C251	C	1.088831	0.081363	0.721719
C252	C	1.422164	0.414696	1.055053
C253	C	0.755504	-0.251966	0.446500
C254	C	1.088838	0.081367	0.779833
C255	C	1.422171	0.414700	1.113167
C256	C	0.755583	-0.115606	0.252048
C257	C	1.088916	0.217727	0.585382
C258	C	1.422250	0.551060	0.918715
C259	C	0.755627	-0.057492	0.252064
C260	C	1.088960	0.275841	0.585397
C261	C	1.422293	0.609174	0.918730
C262	C	0.755494	-0.251951	0.116170
C263	C	1.088827	0.081383	0.449504
C264	C	1.422160	0.414716	0.782837
C265	C	0.755588	-0.251807	0.058057
C266	C	1.088921	0.081526	0.391390
C267	C	1.422254	0.414859	0.724723
C268	C	0.789012	-0.218432	0.806886
C269	C	1.122346	0.114902	1.140220
C270	C	1.455679	0.448235	1.473553
C271	C	0.789019	-0.218417	0.861491
C272	C	1.122352	0.114916	1.194824
C273	C	1.455685	0.448249	1.528157
O274	O	0.817466	-0.189967	0.889747
O275	O	1.150799	0.143367	1.223080
O276	O	1.484133	0.476700	1.556414
N277	N	0.755562	-0.251844	0.888783
N278	N	1.088895	0.081490	1.222116
N279	N	1.422229	0.414823	1.555449
C280	C	0.722093	-0.285283	0.861468
C281	C	1.055426	0.048050	1.194801
C282	C	1.388760	0.381384	1.528134
O283	O	0.693636	-0.313713	0.889695
O284	O	1.026969	0.019620	1.223029
O285	O	1.360302	0.352954	1.556362
C286	C	0.722084	-0.285294	0.806864
C287	C	1.055418	0.048039	1.140198
C288	C	1.388751	0.381372	1.473531
C289	C	0.755547	-0.251870	0.779575
C290	C	1.088880	0.081464	1.112908
C291	C	1.422214	0.414797	1.446242
C292	C	0.822472	-0.185009	0.779597
C293	C	1.155805	0.148324	1.112930
C294	C	1.489138	0.481657	1.446264
C295	C	0.822466	-0.185025	0.724997
C296	C	1.155799	0.148309	1.058330
C297	C	1.489133	0.481642	1.391663
C298	C	0.789000	-0.218462	0.697685
C299	C	1.122334	0.114871	1.031019
C300	C	1.455667	0.448204	1.364352
C301	C	0.755541	-0.251885	0.724974
C302	C	1.088874	0.081448	1.058308
C303	C	1.422208	0.414782	1.391641
C304	C	0.688613	-0.318731	0.779550
C305	C	1.021946	0.014603	1.112883
C306	C	1.355280	0.347936	1.446217
C307	C	0.688607	-0.318739	0.724943
C308	C	1.021940	0.014594	1.058276
C309	C	1.355273	0.347928	1.391610
C310	C	0.722069	-0.285314	0.697654
C311	C	1.055403	0.048019	1.030987
C312	C	1.388736	0.381352	1.364320
C313	C	0.722070	-0.285338	0.643063
C314	C	1.055403	0.047995	0.976396
C315	C	1.388736	0.381329	1.309729
N316	N	0.755526	-0.251912	0.615771
N317	N	1.088860	0.081422	0.949104
N318	N	1.422193	0.414755	1.282437
C319	C	0.788992	-0.218474	0.643082
C320	C	1.122325	0.114860	0.976415
C321	C	1.455658	0.448193	1.309749
C322	C	0.722113	-0.285256	0.976138
C323	C	1.055446	0.048077	1.309472
C324	C	1.388780	0.381411	1.642805
C325	C	0.722124	-0.285247	1.030741
C326	C	1.055457	0.048086	1.364074
C327	C	1.388791	0.381419	1.697407
C328	C	0.789049	-0.218381	1.030760
C329	C	1.122383	0.114952	1.364093
C330	C	1.455716	0.448286	1.697427
C331	C	0.789041	-0.218392	0.976157
C332	C	1.122374	0.114941	1.309490
C333	C	1.455707	0.448274	1.642823
C334	C	0.755570	-0.251829	0.948846
C335	C	1.088903	0.081504	1.282180
C336	C	1.422237	0.414837	1.615513
C337	C	0.788977	-0.218509	0.528417
C338	C	1.122311	0.114825	0.861750
C339	C	1.455644	0.448158	1.195083
C340	C	0.788970	-0.218529	0.473811
C341	C	1.122303	0.114805	0.807145
C342	C	1.455636	0.448138	1.140478
C343	C	0.722043	-0.285393	0.473797
C344	C	1.055376	0.047940	0.807130
C345	C	1.388710	0.381274	1.140463
C346	C	0.722052	-0.285375	0.528397
C347	C	1.055385	0.047958	0.861731
C348	C	1.388719	0.381291	1.195064
C349	C	0.755521	-0.251929	0.555706
C350	C	1.088854	0.081404	0.889039
C351	C	1.422187	0.414738	1.222373
O352	O	0.693635	-0.313773	0.614771
O353	O	1.026969	0.019561	0.948105
O354	O	1.360302	0.352894	1.281438
O355	O	0.817439	-0.190044	0.614847
O356	O	1.150773	0.143290	0.948181
O357	O	1.484106	0.476623	1.281514
H358	H	0.305272	-0.346225	0.345950
H359	H	0.638606	-0.012892	0.679284
H360	H	0.971939	0.320441	1.012617
C361	C	0.859233	-0.694334	0.148483
C362	C	1.192566	-0.361000	0.481816
C363	C	1.525899	-0.027667	0.815150
H364	H	0.879170	-0.718409	0.128601
H365	H	1.212503	-0.385076	0.461934
H366	H	1.545836	-0.051742	0.795267
H367	H	0.839248	-0.673059	0.125674
H368	H	1.172581	-0.339726	0.459008
H369	H	1.505915	-0.006392	0.792341
H370	H	0.881996	-0.673006	0.168510
H371	H	1.215329	-0.339673	0.501844
H372	H	1.548662	-0.006340	0.835177
C373	C	0.825860	-0.945520	0.181907
C374	C	1.159193	-0.612186	0.515241
C375	C	1.492527	-0.278853	0.848574
H376	H	0.845796	-0.969594	0.162022
H377	H	1.179129	-0.636260	0.495355
H378	H	1.512462	-0.302927	0.828688
H379	H	0.805873	-0.924244	0.159102
H380	H	1.139206	-0.590911	0.492435
H381	H	1.472539	-0.257578	0.825769
H382	H	0.848625	-0.924193	0.201934
H383	H	1.181958	-0.590860	0.535267
H384	H	1.515291	-0.257526	0.868600
C385	C	0.685357	-1.060248	0.322205
C386	C	1.018690	-0.726914	0.655538
C387	C	1.352024	-0.393581	0.988872
H388	H	0.665426	-1.036174	0.342095
H389	H	0.998759	-0.702841	0.675428
H390	H	1.332092	-0.369507	1.008762
H391	H	0.662596	-1.081581	0.302186
H392	H	0.995929	-0.748248	0.635520
H393	H	1.329263	-0.414914	0.968853
H394	H	0.705352	-1.081517	0.345014
H395	H	1.038686	-0.748183	0.678347
H396	H	1.372019	-0.414850	1.011681
C397	C	-0.052754	-0.181687	0.181973
C398	C	0.280579	0.151646	0.515307
C399	C	0.613912	0.484980	0.848640
H400	H	-0.089185	-0.186483	0.186754
H401	H	0.244148	0.146851	0.520087
H402	H	0.577482	0.480184	0.853421
H403	H	-0.043778	-0.146570	0.189691
H404	H	0.289556	0.186763	0.523024
H405	H	0.622889	0.520096	0.856357
H406	H	-0.043829	-0.189287	0.146826
H407	H	0.289505	0.144046	0.480160
H408	H	0.622838	0.477379	0.813493
H409	H	0.694881	-0.312471	1.052955
H410	H	1.028214	0.020862	1.386288
H411	H	1.361548	0.354196	1.719621
H412	H	0.694857	-0.312487	0.953905
H413	H	1.028190	0.020846	1.287239
H414	H	1.361523	0.354180	1.620572
H415	H	0.816111	-0.450979	0.191392
H416	H	1.149444	-0.117646	0.524725
H417	H	1.482777	0.215688	0.858059
C418	C	0.685231	-0.322169	0.443747
C419	C	1.018565	0.011164	0.777081
C420	C	1.351898	0.344498	1.110414
H421	H	0.690018	-0.317383	0.407320
H422	H	1.023352	0.015950	0.740653
H423	H	1.356685	0.349284	1.073987
H424	H	0.692851	-0.357300	0.452691
H425	H	1.026184	-0.023966	0.786024
H426	H	1.359517	0.309367	1.119357
H427	H	0.650107	-0.314502	0.452686
H428	H	0.983441	0.018832	0.786020
H429	H	1.316774	0.352165	1.119353
H430	H	0.206227	-0.346229	0.345967
H431	H	0.539560	-0.012896	0.679301
H432	H	0.872893	0.320437	1.012634
H433	H	0.694809	-0.312597	0.550617
H434	H	1.028142	0.020736	0.883951
H435	H	1.361475	0.354069	1.217284
C436	C	0.859270	-0.148252	0.694985
C437	C	1.192603	0.185081	1.028319
C438	C	1.525937	0.518415	1.361652
H439	H	0.879195	-0.128335	0.719078
H440	H	1.212528	0.204999	1.052411
H441	H	1.545862	0.538332	1.385744
H442	H	0.882036	-0.168255	0.673687
H443	H	1.215370	0.165079	1.007020
H444	H	1.548703	0.498412	1.340353
H445	H	0.839280	-0.125469	0.673684
H446	H	1.172614	0.207864	1.007018
H447	H	1.505947	0.541198	1.340351
C448	C	0.651799	-0.355494	0.809556
C449	C	0.985132	-0.022161	1.142890
C450	C	1.318465	0.311173	1.476223
H451	H	0.631865	-0.375401	0.785463
H452	H	0.965198	-0.042068	1.118796
H453	H	1.298531	0.291266	1.452130
H454	H	0.671775	-0.378279	0.830863
H455	H	1.005108	-0.044945	1.164196
H456	H	1.338442	0.288388	1.497529
H457	H	0.629033	-0.335479	0.830849
H458	H	0.962366	-0.002145	1.164182
H459	H	1.295700	0.331188	1.497516
H460	H	0.816333	-1.052391	0.191464
H461	H	1.149666	-0.719058	0.524797
H462	H	1.482999	-0.385724	0.858131
H463	H	0.305283	-0.157721	0.158103
H464	H	0.638617	0.175612	0.491436
H465	H	0.971950	0.508945	0.824770
C466	C	0.198431	-0.148153	0.148586
C467	C	0.531764	0.185181	0.481920
C468	C	0.865098	0.518514	0.815253
H469	H	0.162000	-0.152945	0.153365
H470	H	0.495333	0.180388	0.486699
H471	H	0.828666	0.513722	0.820032
H472	H	0.207413	-0.113040	0.156315
H473	H	0.540746	0.220293	0.489648
H474	H	0.874079	0.553627	0.822981
H475	H	0.207356	-0.155743	0.113437
H476	H	0.540689	0.177590	0.446770
H477	H	0.874022	0.510924	0.780103
C478	C	-0.052762	-0.322329	0.322160
C479	C	0.280571	0.011004	0.655493
C480	C	0.613904	0.344337	0.988827
H481	H	-0.089191	-0.317529	0.317385
H482	H	0.244142	0.015804	0.650718
H483	H	0.577475	0.349137	0.984052
H484	H	-0.043840	-0.357449	0.314448
H485	H	0.289493	-0.024115	0.647782
H486	H	0.622827	0.309218	0.981115
H487	H	-0.043793	-0.314723	0.357304
H488	H	0.289541	0.018610	0.690637
H489	H	0.622874	0.351944	1.023970
H490	H	0.556449	-0.312723	0.312530
H491	H	0.889782	0.020610	0.645864
H492	H	1.223115	0.353943	0.979197
H493	H	0.457399	-0.312726	0.312556
H494	H	0.790732	0.020608	0.645890
H495	H	1.124065	0.353941	0.979223
H496	H	0.661350	-0.702225	0.346042
H497	H	0.994683	-0.368891	0.679376
H498	H	1.328016	-0.035558	1.012709
H499	H	0.054103	-0.312760	0.312609
H500	H	0.387436	0.020573	0.645942
H501	H	0.720769	0.353906	0.979275
H502	H	0.661376	-0.801275	0.346049
H503	H	0.994709	-0.467942	0.679383
H504	H	1.328042	-0.134608	1.012716
C505	C	0.685317	-0.945596	0.322196
C506	C	1.018651	-0.612263	0.655529
C507	C	1.351984	-0.278930	0.988863
H508	H	0.665396	-0.969691	0.342084
H509	H	0.998730	-0.636358	0.675418
H510	H	1.332063	-0.303025	1.008751
H511	H	0.705290	-0.924267	0.344999
H512	H	1.038624	-0.590933	0.678333
H513	H	1.371957	-0.257600	1.011666
H514	H	0.662540	-0.924327	0.302166
H515	H	0.995873	-0.590994	0.635499
H516	H	1.329207	-0.257661	0.968833
C517	C	0.685179	-0.557912	0.322155
C518	C	1.018513	-0.224579	0.655488
C519	C	1.351846	0.108755	0.988821
H520	H	0.665246	-0.533840	0.342045
H521	H	0.998579	-0.200507	0.675379
H522	H	1.331912	0.132826	1.008712
H523	H	0.662420	-0.579249	0.302138
H524	H	0.995754	-0.245916	0.635471
H525	H	1.329087	0.087418	0.968804
H526	H	0.705179	-0.579177	0.344963
H527	H	1.038512	-0.245844	0.678296
H528	H	1.371846	0.087489	1.011630
C529	C	0.685140	-0.443243	0.322140
C530	C	1.018473	-0.109909	0.655473
C531	C	1.351807	0.223424	0.988807
H532	H	0.689926	-0.406811	0.317352
H533	H	1.023259	-0.073478	0.650686
H534	H	1.356593	0.259855	0.984019
H535	H	0.650017	-0.452224	0.314458
H536	H	0.983350	-0.118891	0.647791
H537	H	1.316683	0.214443	0.981125
H538	H	0.692779	-0.452167	0.357280
H539	H	1.026112	-0.118834	0.690613
H540	H	1.359445	0.214499	1.023947
H541	H	0.816229	-0.191272	0.550645
H542	H	1.149562	0.142061	0.883978
H543	H	1.482896	0.475395	1.217312
C544	C	0.061900	-0.181676	0.181955
C545	C	0.395233	0.151657	0.515289
C546	C	0.728566	0.484991	0.848622
H547	H	0.037815	-0.161742	0.162079
H548	H	0.371148	0.171592	0.495412
H549	H	0.704482	0.504925	0.828746
H550	H	0.083223	-0.158920	0.201990
H551	H	0.416556	0.174413	0.535323
H552	H	0.749889	0.507747	0.868657
H553	H	0.083177	-0.201644	0.159132
H554	H	0.416510	0.131690	0.492466
H555	H	0.749844	0.465023	0.825799
C556	C	0.449584	-0.181646	0.181902
C557	C	0.782917	0.151687	0.515235
C558	C	1.116251	0.485020	0.848568
H559	H	0.473666	-0.161700	0.162023
H560	H	0.806999	0.171633	0.495356
H561	H	1.140332	0.504966	0.828690
H562	H	0.428256	-0.201609	0.159088
H563	H	0.761589	0.131724	0.492422
H564	H	1.094922	0.465057	0.825755
H565	H	0.428312	-0.158893	0.201953
H566	H	0.761645	0.174441	0.535286
H567	H	1.094978	0.507774	0.868619
H568	H	0.849709	-0.801185	0.158037
H569	H	1.183042	-0.467851	0.491370
H570	H	1.516376	-0.134518	0.824704
C571	C	0.859293	-0.148232	0.809634
C572	C	1.192626	0.185101	1.142967
C573	C	1.525959	0.518435	1.476301
H574	H	0.854512	-0.153006	0.846064
H575	H	1.187845	0.180328	1.179397
H576	H	1.521179	0.513661	1.512730
H577	H	0.894411	-0.155899	0.800684
H578	H	1.227744	0.177434	1.134017
H579	H	1.561078	0.510767	1.467351
H580	H	0.851668	-0.113100	0.800687
H581	H	1.185002	0.220233	1.134020
H582	H	1.518335	0.553566	1.467354
C583	C	0.564251	-0.181635	0.181890
C584	C	0.897584	0.151699	0.515224
C585	C	1.230918	0.485032	0.848557
H586	H	0.540174	-0.161691	0.162014
H587	H	0.873508	0.171643	0.495347
H588	H	1.206841	0.504976	0.828680
H589	H	0.585572	-0.158888	0.201937
H590	H	0.918905	0.174446	0.535271
H591	H	1.252239	0.507779	0.868604
H592	H	0.585531	-0.201599	0.159067
H593	H	0.918865	0.131735	0.492401
H594	H	1.252198	0.465068	0.825734
C595	C	0.825718	-0.557825	0.181861
C596	C	1.159051	-0.224492	0.515194
C597	C	1.492384	0.108841	0.848528
H598	H	0.845629	-0.533729	0.161964
H599	H	1.178962	-0.200396	0.495297
H600	H	1.512295	0.132937	0.828631
H601	H	0.848497	-0.579097	0.201882
H602	H	1.181830	-0.245763	0.535215
H603	H	1.515163	0.087570	0.868548
H604	H	0.805737	-0.579153	0.159058
H605	H	1.139070	-0.245820	0.492391
H606	H	1.472403	0.087514	0.825725
H607	H	0.816221	-0.191310	0.451595
H608	H	1.149554	0.142024	0.784928
H609	H	1.482888	0.475357	1.118262
H610	H	0.816288	-0.191174	0.953941
H611	H	1.149621	0.142159	1.287275
H612	H	1.482955	0.475493	1.620608
C613	C	0.825862	-0.181601	1.060809
C614	C	1.159196	0.151732	1.394143
C615	C	1.492529	0.485066	1.727476
H616	H	0.821070	-0.186381	1.097237
H617	H	1.154403	0.146952	1.430570
H618	H	1.487737	0.480285	1.763903
H619	H	0.860985	-0.189261	1.051870
H620	H	1.194318	0.144073	1.385203
H621	H	1.527652	0.477406	1.718537
H622	H	0.818235	-0.146469	1.051866
H623	H	1.151569	0.186865	1.385200
H624	H	1.484902	0.520198	1.718533
C625	C	0.651801	-0.355534	0.694905
C626	C	0.985134	-0.022200	1.028238
C627	C	1.318468	0.311133	1.361571
H628	H	0.631882	-0.375442	0.718981
H629	H	0.965215	-0.042109	1.052314
H630	H	1.298548	0.291224	1.385647
H631	H	0.629029	-0.335547	0.673592
H632	H	0.962362	-0.002214	1.006925
H633	H	1.295696	0.331119	1.340259
H634	H	0.671794	-0.378324	0.673615
H635	H	1.005127	-0.044991	1.006949
H636	H	1.338461	0.288343	1.340282
