data_functionalizedCrystal
_audit_creation_method	'MofGen! by Chris Wilmer'
_symmetry_space_group_name_H-M	'P1'
_symmetry_Int_Tables_number	1
_symmetry_cell_setting	triclinic
loop_
_symmetry_equiv_pos_as_xyz
  x,y,z
_cell_length_a	14.809436
_cell_length_b	31.640172
_cell_length_c	14.809436
_cell_angle_alpha	90.002801
_cell_angle_beta	60.797459
_cell_angle_gamma	52.844943
loop_
_atom_site_label
_atom_site_type_symbol
_atom_site_fract_x
_atom_site_fract_y
_atom_site_fract_z
Zr1	Zr	1.002529	0.355073	-0.009219
O2	O	1.223679	0.269161	-0.145782
O3	O	0.806082	0.387206	0.016521
O4	O	1.038122	0.365700	-0.169009
O5	O	0.954947	0.301038	0.204439
O6	O	1.038099	0.435259	-0.168990
O7	O	0.991638	0.290666	0.039748
O8	O	0.623021	0.473729	0.162889
O9	O	1.370025	0.262568	-0.127441
O10	O	0.877717	0.445819	0.046994
O11	O	0.850352	0.401648	0.169886
O12	O	1.123550	0.376328	-0.048552
O13	O	1.096185	0.332156	0.074341
Zr14	Zr	0.943974	0.482553	0.253475
Zr15	Zr	1.002492	0.466012	-0.009188
Zr16	Zr	0.944011	0.371614	0.253444
Zr17	Zr	1.235935	0.344559	0.020034
Zr18	Zr	0.710567	0.493068	0.224222
O19	O	1.140421	0.450421	0.227735
O20	O	1.223626	0.426902	-0.145738
O21	O	1.140474	0.292680	0.227691
O22	O	0.722824	0.568466	0.390038
O23	O	0.806029	0.544947	0.016565
O24	O	0.722877	0.410725	0.389994
O25	O	0.991555	0.536589	0.039817
O26	O	0.908380	0.471926	0.413265
O27	O	0.908403	0.402367	0.413246
O28	O	0.954864	0.546960	0.204508
O29	O	1.369996	0.350750	-0.127416
O30	O	0.576506	0.486877	0.371672
O31	O	0.576477	0.575059	0.371696
O32	O	0.622991	0.561911	0.162914
O33	O	1.323511	0.275716	0.081342
O34	O	1.323482	0.363897	0.081366
O35	O	0.822952	0.461299	0.292808
O36	O	0.850317	0.505470	0.169915
O37	O	1.096150	0.435979	0.074370
O38	O	1.068786	0.391808	0.197262
C39	C	0.681296	0.431966	0.085537
C40	C	0.582209	0.436429	0.073118
C41	C	0.422046	0.421119	0.115713
C42	C	0.524457	0.416505	0.128550
C43	C	0.973298	0.280046	0.122089
C44	C	0.973313	0.232949	0.122075
C45	C	0.844911	-0.022775	0.172025
C46	C	0.844884	-0.199758	0.172046
O47	O	0.735740	-0.191791	0.214507
N48	N	0.973206	-0.258161	0.122171
C49	C	1.101543	-0.272319	0.072293
O50	O	1.210685	-0.326055	0.029882
C51	C	1.101567	-0.095336	0.072279
C52	C	0.973239	-0.036933	0.122148
C53	C	0.716593	0.035625	0.221890
C54	C	0.716603	0.079867	0.221879
C55	C	0.844930	0.065709	0.172002
C56	C	0.973248	0.007309	0.122137
C57	C	1.229900	-0.109493	0.022409
C58	C	1.229894	-0.065242	0.022413
C59	C	1.101566	-0.006839	0.072282
C60	C	1.101584	0.037394	0.072248
N61	N	0.973262	0.095797	0.122124
C62	C	0.844935	0.109955	0.172001
C63	C	1.101521	-0.365235	0.072302
C64	C	1.101516	-0.409480	0.072303
C65	C	0.844857	-0.336916	0.172059
C66	C	0.844865	-0.292670	0.172049
C67	C	0.973199	-0.306831	0.122177
C68	C	0.844965	0.202864	0.171972
C69	C	0.844986	0.247107	0.171952
C70	C	1.101644	0.174539	0.072203
C71	C	1.101624	0.130300	0.072217
C72	C	0.973272	0.144467	0.122110
O73	O	1.210669	0.029471	0.029822
O74	O	0.735804	0.163696	0.214428
C75	C	0.844902	-0.067017	0.172036
C76	C	0.973220	-0.125418	0.122171
C77	C	1.101547	-0.139576	0.072294
C78	C	0.973215	-0.169663	0.122172
C79	C	0.844887	-0.155505	0.172049
C80	C	0.716565	-0.097102	0.221924
C81	C	0.716575	-0.052859	0.221913
C82	C	1.229869	-0.197979	0.022418
C83	C	1.229850	-0.242219	0.022433
C84	C	1.101522	-0.228061	0.072310
C85	C	1.265207	0.405661	0.158719
C86	C	1.364294	0.401197	0.171137
C87	C	1.046448	0.398123	-0.206424
C88	C	1.071291	0.391101	-0.317931
C89	C	0.973205	0.557581	0.122167
C90	C	0.973189	0.604678	0.122180
C91	C	0.986083	0.415185	-0.435493
C92	C	0.960404	0.422446	-0.320243
C93	C	0.900054	0.439504	0.450679
C94	C	0.875212	0.446526	0.562187
C95	C	0.681249	0.570733	0.085576
C96	C	0.582146	0.622294	0.073171
C97	C	0.608099	0.452656	0.414089
C98	C	0.484169	0.464142	0.513177
C99	C	0.608052	0.591424	0.414128
C100	C	0.484107	0.650006	0.513230
C101	C	1.338450	0.246203	-0.169872
C102	C	1.462396	0.187621	-0.268974
C103	C	1.265253	0.266893	0.158680
C104	C	1.364356	0.215333	0.171085
C105	C	1.338404	0.384971	-0.169833
C106	C	1.462333	0.373485	-0.268921
C107	C	0.549911	0.615369	0.003170
C108	C	0.456812	0.663809	-0.008509
C109	C	0.395941	0.719174	0.049820
C110	C	0.428185	0.726097	0.119824
C111	C	0.521291	0.677657	0.131495
C112	C	0.411666	0.500674	0.623885
C113	C	0.295232	0.511464	0.717001
C114	C	0.251297	0.485725	0.699406
C115	C	0.323812	0.449189	0.588687
C116	C	0.440250	0.438396	0.495574
C117	C	0.440185	0.700579	0.495621
C118	C	0.323740	0.755626	0.588729
C119	C	0.251213	0.760100	0.699445
C120	C	0.295145	0.709521	0.717053
C121	C	0.411594	0.654475	0.623946
C122	C	1.506329	0.137048	-0.251363
C123	C	1.622802	0.081999	-0.344468
C124	C	1.695334	0.077525	-0.455183
C125	C	1.651397	0.128103	-0.472792
C126	C	1.534931	0.183151	-0.379687
C127	C	1.396603	0.222257	0.241076
C128	C	1.489735	0.173814	0.252729
C129	C	1.550609	0.118448	0.194397
C130	C	1.518360	0.111525	0.124398
C131	C	1.425238	0.159967	0.112739
C132	C	1.506230	0.399233	-0.251291
C133	C	1.622660	0.388452	-0.344387
C134	C	1.695198	0.351920	-0.455111
C135	C	1.651292	0.326171	-0.472741
C136	C	1.534857	0.336956	-0.379647
H137	H	0.550832	0.396030	0.185504
H138	H	1.398986	0.154322	0.055749
N139	N	1.432164	0.436552	-0.138203
N140	N	1.471385	0.459537	-0.122498
H141	H	1.419078	0.485898	-0.042632
N142	N	0.732289	0.486922	-0.333266
N143	N	0.711632	0.492761	-0.239792
H144	H	0.610689	0.521292	-0.165954
H145	H	0.612078	-0.085581	0.262528
N146	N	0.278854	0.807285	0.570723
N147	N	0.154711	0.845952	0.600549
H148	H	0.123009	0.882436	0.587829
H149	H	1.658393	0.409421	-0.330010
N150	N	0.388949	0.446812	0.044279
N151	N	0.330850	0.498651	0.064974
H152	H	0.307475	0.516799	0.014523
H153	H	1.185231	0.358888	-0.401266
H154	H	0.447339	0.613300	0.638299
N155	N	0.221051	0.714087	0.830140
N156	N	0.260260	0.668932	0.845862
H157	H	0.207923	0.672157	0.925731
N158	N	0.549179	0.462098	0.001634
N159	N	0.578391	0.432698	-0.081505
H160	H	0.555070	0.450824	-0.131996
H161	H	1.790005	0.343143	-0.530905
H162	H	0.599476	0.570291	-0.044344
H163	H	0.447422	0.521636	0.638234
H164	H	1.710370	0.296426	-0.562905
N165	N	0.132337	0.496768	0.794537
N166	N	0.011637	0.547935	0.856931
H167	H	-0.072385	0.555739	0.924123
H168	H	1.499131	0.315985	-0.394018
N169	N	0.817467	0.462864	-0.215703
N170	N	0.734117	0.516060	-0.193922
H171	H	0.633170	0.544607	-0.120089
H172	H	1.100015	0.382977	-0.518829
N173	N	0.397406	0.375506	0.242567
N174	N	0.480562	0.371789	0.252885
H175	H	0.503952	0.353642	0.303330
H176	H	0.288022	0.428234	0.574377
N177	N	0.423904	0.656719	-0.080021
N178	N	0.478255	0.607282	-0.132079
H179	H	0.455016	0.602272	-0.182585
H180	H	1.515973	0.179462	0.309733
N181	N	1.232722	0.070643	0.021250
N182	N	1.347292	0.058011	-0.023290
H183	H	1.439884	0.015880	-0.059282
N184	N	1.645715	0.068965	0.206314
N185	N	1.700058	0.019533	0.154237
H186	H	1.767223	-0.015414	0.162658
H187	H	1.334360	-0.289774	-0.018187
H188	H	0.320130	0.758612	0.040307
H189	H	0.378611	0.771182	0.167311
H190	H	0.740448	0.214408	0.212601
N191	N	0.713905	0.306769	0.222903
N192	N	0.713919	0.346272	0.222894
H193	H	0.621346	0.388407	0.258879
H194	H	0.612106	0.127419	0.262482
H195	H	0.612087	0.047163	0.262512
H196	H	1.567938	0.066440	0.076907
H197	H	0.740366	-0.245118	0.212668
N198	N	1.432265	0.141599	-0.138285
N199	N	1.471531	0.096432	-0.122598
H200	H	1.419233	0.099641	-0.042738
H201	H	0.740369	-0.325395	0.212663
H202	H	1.710467	0.124453	-0.562947
H203	H	0.547521	0.683304	0.188503
H204	H	1.206017	-0.457033	0.031680
H205	H	0.236202	0.541216	0.807145
H206	H	1.206034	-0.376775	0.031682
H207	H	0.499222	0.696947	0.405477
N208	N	1.361000	-0.169141	-0.028537
N209	N	1.475553	-0.181762	-0.073053
H210	H	1.568151	-0.223889	-0.109035
H211	H	0.499271	0.408650	0.405433
H212	H	1.334398	-0.076778	-0.018184
H213	H	1.658555	0.040822	-0.330109
H214	H	0.612076	-0.005308	0.262524
N215	N	1.232710	0.160093	0.021255
N216	N	1.232682	0.199607	0.021264
H217	H	1.325247	0.189407	-0.014712
N218	N	1.360971	-0.212457	-0.028531
N219	N	1.475524	-0.264607	-0.073051
H220	H	1.568125	-0.274837	-0.109042
N221	N	0.132250	0.816336	0.794530
N222	N	0.024321	0.854002	0.799608
H223	H	-0.059701	0.893721	0.866758
N224	N	1.814299	0.021288	-0.550269
N225	N	1.853498	-0.023859	-0.534516
H226	H	1.937515	-0.063578	-0.601666
H227	H	1.499165	0.224327	-0.394041
N228	N	1.334439	0.278803	0.300679
N229	N	1.363266	0.284966	0.363160
H230	H	1.319373	0.324901	0.405256
