data_functionalizedCrystal
_audit_creation_method	'MofGen! by Chris Wilmer'
_symmetry_space_group_name_H-M	'P1'
_symmetry_Int_Tables_number	1
_symmetry_cell_setting	triclinic
loop_
_symmetry_equiv_pos_as_xyz
  x,y,z
_cell_length_a	11.169409
_cell_length_b	12.759401
_cell_length_c	12.759400
_cell_angle_alpha	90.010654
_cell_angle_beta	90.033794
_cell_angle_gamma	90.021605
loop_
_atom_site_label
_atom_site_type_symbol
_atom_site_fract_x
_atom_site_fract_y
_atom_site_fract_z
Zn1	Zn	-0.678588	-1.606271	0.418294
Zn2	Zn	-0.477899	-1.606161	0.594020
Zn3	Zn	-0.477916	-1.430568	0.418343
Zn4	Zn	-0.678538	-1.430562	0.593919
O5	O	-0.578235	-1.518390	0.506144
O6	O	-0.651980	-1.753277	0.441626
O7	O	-0.309952	-1.582825	0.570779
O8	O	-0.504563	-1.453925	0.271316
O9	O	-0.504535	-1.753196	0.570731
O10	O	-0.651996	-1.583013	0.271280
O11	O	-0.309964	-1.453818	0.441710
O12	O	-0.504515	-1.283546	0.441612
O13	O	-0.846494	-1.453913	0.570560
O14	O	-0.651911	-1.283541	0.570607
O15	O	-0.846531	-1.583006	0.441529
O16	O	-0.504487	-1.582818	0.741028
O17	O	-0.651895	-1.453806	0.740954
C18	C	-0.578210	-1.245423	0.506105
C19	C	-0.578228	-1.128646	0.506113
C20	C	-0.655119	-1.073820	0.439012
C21	C	-0.655124	-0.964095	0.439027
C22	C	-0.501341	-0.964035	0.573252
C23	C	-0.501332	-1.073757	0.573232
C24	C	-0.743908	-1.073854	0.361521
C25	C	-0.743913	-0.964130	0.361536
C26	C	-0.891278	-1.518471	0.506027
C27	C	-1.024678	-1.518505	0.505978
C28	C	-0.266410	-1.518370	0.506185
C29	C	-0.133011	-1.518540	0.505938
C30	C	-0.578210	-1.518328	0.779112
C31	C	-0.578240	-1.518397	0.895888
C32	C	-0.578253	-0.792424	0.506171
C33	C	-0.578241	-0.909200	0.506148
C34	C	-0.578287	-1.518482	0.232111
C35	C	-0.578308	-1.518520	0.115334
C36	C	-0.501569	-1.585649	0.950754
C37	C	-0.501606	-1.585713	1.060478
C38	C	-0.654988	-1.451266	1.060461
C39	C	-0.654956	-1.451208	0.950739
C40	C	-0.413011	-1.663267	0.950764
C41	C	-0.413048	-1.663332	1.060488
H42	H	-0.438708	-1.118393	0.627862
H43	H	-0.446421	-1.740636	1.094437
F44	F	-0.859234	-1.118388	0.399730
H45	H	-0.437976	-1.744611	0.920912
F46	F	-0.291538	-1.634919	1.099528
F47	F	-0.419506	-0.905608	0.644679
F48	F	-0.865353	-0.925248	0.390150
H49	H	-0.324677	-1.634140	0.916818
H50	H	-0.710784	-0.930087	0.284207
H51	H	-0.717448	-1.396564	1.105134
F52	F	-0.711582	-1.112766	0.255127
H53	H	-0.717398	-1.396457	0.906068
