data_functionalizedCrystal
_audit_creation_method	'MofGen! by Chris Wilmer'
_symmetry_space_group_name_H-M	'P1'
_symmetry_Int_Tables_number	1
_symmetry_cell_setting	triclinic
loop_
_symmetry_equiv_pos_as_xyz
  x,y,z
_cell_length_a	16.625548
_cell_length_b	18.101397
_cell_length_c	16.625539
_cell_angle_alpha	89.970842
_cell_angle_beta	89.979432
_cell_angle_gamma	90.020834
loop_
_atom_site_label
_atom_site_type_symbol
_atom_site_fract_x
_atom_site_fract_y
_atom_site_fract_z
Zn1	Zn	1.232696	-0.294807	-0.455905
Zn2	Zn	1.482696	-0.044807	-0.205905
Zn3	Zn	1.732696	0.205193	0.044095
Zn4	Zn	1.982696	0.455193	0.294095
Zn5	Zn	1.232605	-0.418656	-0.321070
Zn6	Zn	1.482605	-0.168656	-0.071070
Zn7	Zn	1.732605	0.081344	0.178930
Zn8	Zn	1.982605	0.331344	0.428930
Zn9	Zn	1.097857	-0.294835	-0.321085
Zn10	Zn	1.347857	-0.044835	-0.071085
Zn11	Zn	1.597857	0.205165	0.178915
Zn12	Zn	1.847857	0.455165	0.428915
Zn13	Zn	1.097834	-0.418614	-0.455860
Zn14	Zn	1.347834	-0.168614	-0.205860
Zn15	Zn	1.597834	0.081386	0.044140
Zn16	Zn	1.847834	0.331386	0.294140
O17	O	1.165248	-0.356728	-0.388480
O18	O	1.415248	-0.106728	-0.138480
O19	O	1.665248	0.143272	0.111520
O20	O	1.915248	0.393272	0.361520
O21	O	1.345516	-0.311242	-0.438031
O22	O	1.595516	-0.061242	-0.188031
O23	O	1.845516	0.188758	0.061969
O24	O	2.095516	0.438758	0.311969
O25	O	1.214702	-0.402261	-0.208239
O26	O	1.464702	-0.152261	0.041761
O27	O	1.714702	0.097739	0.291761
O28	O	1.964702	0.347739	0.541761
O29	O	1.115792	-0.191199	-0.338994
O30	O	1.365792	0.058801	-0.088994
O31	O	1.615792	0.308801	0.161006
O32	O	1.865792	0.558801	0.411006
O33	O	1.345450	-0.402233	-0.338968
O34	O	1.595450	-0.152233	-0.088968
O35	O	1.845450	0.097767	0.161032
O36	O	2.095450	0.347767	0.411032
O37	O	1.214857	-0.191178	-0.438046
O38	O	1.464857	0.058822	-0.188046
O39	O	1.714857	0.308822	0.061954
O40	O	1.964857	0.558822	0.311954
O41	O	1.115704	-0.311290	-0.208251
O42	O	1.365704	-0.061290	0.041749
O43	O	1.615704	0.188710	0.291749
O44	O	1.865704	0.438710	0.541749
O45	O	0.985022	-0.311249	-0.338951
O46	O	1.235022	-0.061249	-0.088951
O47	O	1.485022	0.188751	0.161049
O48	O	1.735022	0.438751	0.411049
O49	O	1.115752	-0.402161	-0.568698
O50	O	1.365752	-0.152161	-0.318698
O51	O	1.615752	0.097839	-0.068698
O52	O	1.865752	0.347839	0.181302
O53	O	0.985005	-0.402188	-0.437969
O54	O	1.235005	-0.152188	-0.187969
O55	O	1.485005	0.097812	0.062031
O56	O	1.735005	0.347812	0.312031
O57	O	1.214834	-0.311201	-0.568731
O58	O	1.464834	-0.061201	-0.318731
O59	O	1.714834	0.188799	-0.068731
O60	O	1.964834	0.438799	0.181269
O61	O	1.214680	-0.522283	-0.338925
O62	O	1.464680	-0.272283	-0.088925
O63	O	1.714680	-0.022283	0.161075
O64	O	1.964680	0.227717	0.411075
O65	O	1.115664	-0.522252	-0.437954
O66	O	1.365664	-0.272252	-0.187954
O67	O	1.615664	-0.022252	0.062046
O68	O	1.865664	0.227748	0.312046
C69	C	0.955757	-0.356717	-0.388457
C70	C	1.205757	-0.106717	-0.138457
C71	C	1.455757	0.143283	0.111543
C72	C	1.705757	0.393283	0.361543
C73	C	0.866136	-0.356731	-0.388467
C74	C	1.116136	-0.106731	-0.138467
C75	C	1.366136	0.143269	0.111533
C76	C	1.616136	0.393269	0.361533
C77	C	1.165182	-0.549139	-0.388451
C78	C	1.415182	-0.299139	-0.138451
C79	C	1.665182	-0.049139	0.111549
C80	C	1.915182	0.200861	0.361549
C81	C	1.165227	-0.631453	-0.388465
C82	C	1.415227	-0.381453	-0.138465
C83	C	1.665227	-0.131453	0.111535
C84	C	1.915227	0.118547	0.361535
C85	C	0.537960	-0.356736	-0.388501
C86	C	0.787960	-0.106736	-0.138501
C87	C	1.037960	0.143264	0.111499
C88	C	1.287960	0.393264	0.361499
C89	C	0.629269	-0.356732	-0.388489
C90	C	0.879269	-0.106732	-0.138489
C91	C	1.129269	0.143268	0.111511
C92	C	1.379269	0.393268	0.361511
C93	C	0.702045	-0.356734	-0.388483
C94	C	0.952045	-0.106734	-0.138483
C95	C	1.202045	0.143266	0.111517
C96	C	1.452045	0.393266	0.361517
C97	C	0.793360	-0.356729	-0.388472
C98	C	1.043360	-0.106729	-0.138472
C99	C	1.293360	0.143271	0.111528
C100	C	1.543360	0.393271	0.361528
C101	C	1.165276	-0.782161	-0.388492
C102	C	1.415276	-0.532161	-0.138492
C103	C	1.665276	-0.282161	0.111508
C104	C	1.915276	-0.032161	0.361508
C105	C	1.227635	-0.813503	-0.326246
C106	C	1.477635	-0.563503	-0.076246
C107	C	1.727635	-0.313503	0.173754
C108	C	1.977635	-0.063503	0.423754
C109	C	1.227480	-0.899122	-0.326017
C110	C	1.477480	-0.649122	-0.076017
C111	C	1.727480	-0.399122	0.173983
C112	C	1.977480	-0.149122	0.423983
C113	C	1.165326	-0.930544	-0.388519
C114	C	1.415326	-0.680544	-0.138519
C115	C	1.665326	-0.430544	0.111481
C116	C	1.915326	-0.180544	0.361481
C117	C	1.080290	-0.899529	-0.365648
C118	C	1.330290	-0.649529	-0.115648
C119	C	1.580290	-0.399529	0.134352
C120	C	1.830290	-0.149529	0.384352
C121	C	1.080622	-0.813884	-0.365180
C122	C	1.330622	-0.563884	-0.115180
C123	C	1.580622	-0.313884	0.134820
C124	C	1.830622	-0.063884	0.384820
C125	C	1.187220	-0.813654	-0.473773
C126	C	1.437220	-0.563654	-0.223773
C127	C	1.687220	-0.313654	0.026227
C128	C	1.937220	-0.063654	0.276227
C129	C	1.189123	-0.899303	-0.473334
C130	C	1.439123	-0.649303	-0.223334
C131	C	1.689123	-0.399303	0.026666
C132	C	1.939123	-0.149303	0.276666
C133	C	1.165348	-1.014403	-0.388536
C134	C	1.415348	-0.764403	-0.138536
C135	C	1.665348	-0.514403	0.111464
C136	C	1.915348	-0.264403	0.361464
C137	C	1.165247	-0.698302	-0.388474
C138	C	1.415247	-0.448302	-0.138474
C139	C	1.665247	-0.198302	0.111526
C140	C	1.915247	0.051698	0.361526
C141	C	1.375557	-0.356739	-0.388503
C142	C	1.625557	-0.106739	-0.138503
C143	C	1.875557	0.143261	0.111497
C144	C	2.125557	0.393261	0.361497
C145	C	1.465178	-0.356744	-0.388513
C146	C	1.715178	-0.106744	-0.138513
C147	C	1.965178	0.143256	0.111487
C148	C	2.215178	0.393256	0.361487
C149	C	1.165301	-0.356673	-0.598789
C150	C	1.415301	-0.106673	-0.348789
C151	C	1.665301	0.143327	-0.098789
C152	C	1.915301	0.393327	0.151211
C153	C	1.165323	-0.356649	-0.688410
C154	C	1.415323	-0.106649	-0.438410
C155	C	1.665323	0.143351	-0.188410
C156	C	1.915323	0.393351	0.061590
C157	C	1.165337	-0.163566	-0.388527
C158	C	1.415337	0.086434	-0.138527
C159	C	1.665337	0.336434	0.111473
C160	C	1.915337	0.586434	0.361473
C161	C	1.165375	-0.081252	-0.388547
C162	C	1.415375	0.168748	-0.138547
C163	C	1.665375	0.418748	0.111453
C164	C	1.915375	0.668748	0.361453
C165	C	1.165360	-0.356566	-1.016586
C166	C	1.415360	-0.106566	-0.766586
C167	C	1.665360	0.143434	-0.516586
C168	C	1.915360	0.393434	-0.266586
C169	C	1.165347	-0.356592	-0.925277
C170	C	1.415347	-0.106592	-0.675277
C171	C	1.665347	0.143408	-0.425277
C172	C	1.915347	0.393408	-0.175277
C173	C	1.165342	-0.356609	-0.852501
C174	C	1.415342	-0.106609	-0.602501
C175	C	1.665342	0.143391	-0.352501
C176	C	1.915342	0.393391	-0.102501
C177	C	1.165328	-0.356633	-0.761186
C178	C	1.415328	-0.106633	-0.511186
C179	C	1.665328	0.143367	-0.261186
C180	C	1.915328	0.393367	-0.011186
C181	C	1.165242	-0.356730	-0.178989
C182	C	1.415242	-0.106730	0.071011
C183	C	1.665242	0.143270	0.321011
C184	C	1.915242	0.393270	0.571011
C185	C	1.165376	-0.356544	-0.089368
C186	C	1.415376	-0.106544	0.160632
C187	C	1.665376	0.143456	0.410632
C188	C	1.915376	0.393456	0.660632
H189	H	1.290529	-0.920089	-0.340304
H190	H	1.540529	-0.670089	-0.090304
H191	H	1.790529	-0.420089	0.159696
H192	H	2.040529	-0.170089	0.409696
H193	H	1.032575	-0.919884	-0.409599
H194	H	1.282575	-0.669884	-0.159599
H195	H	1.532575	-0.419884	0.090401
H196	H	1.782575	-0.169884	0.340401
H197	H	1.032566	-0.793153	-0.408558
H198	H	1.282566	-0.543153	-0.158558
H199	H	1.532566	-0.293153	0.091442
H200	H	1.782566	-0.043153	0.341442
Br201	Br	1.293421	-0.933088	-0.502096
Br202	Br	1.543421	-0.683088	-0.252096
Br203	Br	1.793421	-0.433088	-0.002096
Br204	Br	2.043421	-0.183088	0.247904
H205	H	1.147049	-0.920689	-0.522187
H206	H	1.397049	-0.670689	-0.272187
H207	H	1.647049	-0.420689	-0.022187
H208	H	1.897049	-0.170689	0.227813
Br209	Br	1.111536	-0.779854	-0.551074
Br210	Br	1.361536	-0.529854	-0.301074
Br211	Br	1.611536	-0.279854	-0.051074
Br212	Br	1.861536	-0.029854	0.198926
Br213	Br	1.333031	-0.779099	-0.349774
Br214	Br	1.583031	-0.529099	-0.099774
Br215	Br	1.833031	-0.279099	0.150226
Br216	Br	2.083031	-0.029099	0.400226
Br217	Br	1.203698	-0.777722	-0.221524
Br218	Br	1.453698	-0.527722	0.028476
Br219	Br	1.703698	-0.277722	0.278476
Br220	Br	1.953698	-0.027722	0.528476
H221	H	1.212953	-0.919664	-0.262836
H222	H	1.462953	-0.669664	-0.012836
H223	H	1.712953	-0.419664	0.237164
H224	H	1.962953	-0.169664	0.487164
Br225	Br	1.048826	-0.935369	-0.262909
Br226	Br	1.298826	-0.685369	-0.012909
Br227	Br	1.548826	-0.435369	0.237091
Br228	Br	1.798826	-0.185369	0.487091
Br229	Br	1.288796	-0.777577	-0.508509
Br230	Br	1.538796	-0.527577	-0.258509
Br231	Br	1.788796	-0.277577	-0.008509
Br232	Br	2.038796	-0.027577	0.241491
Br233	Br	1.049668	-0.780678	-0.261292
Br234	Br	1.299668	-0.530678	-0.011292
Br235	Br	1.549668	-0.280678	0.238708
Br236	Br	1.799668	-0.030678	0.488708
