data_functionalizedCrystal
_audit_creation_method	'MofGen! by Chris Wilmer'
_symmetry_space_group_name_H-M	'P1'
_symmetry_Int_Tables_number	1
_symmetry_cell_setting	triclinic
loop_
_symmetry_equiv_pos_as_xyz
  x,y,z
_cell_length_a	12.759401
_cell_length_b	12.594516
_cell_length_c	12.759393
_cell_angle_alpha	89.970274
_cell_angle_beta	89.980324
_cell_angle_gamma	90.012242
loop_
_atom_site_label
_atom_site_type_symbol
_atom_site_fract_x
_atom_site_fract_y
_atom_site_fract_z
Zn1	Zn	1.606287	-0.423678	-0.593990
Zn2	Zn	1.606187	-0.601694	-0.418313
Zn3	Zn	1.430586	-0.423732	-0.418329
Zn4	Zn	1.430587	-0.601617	-0.593954
O5	O	1.518412	-0.512680	-0.506147
O6	O	1.753295	-0.447303	-0.570695
O7	O	1.582851	-0.578142	-0.271294
O8	O	1.453935	-0.274779	-0.441653
O9	O	1.753222	-0.578091	-0.441625
O10	O	1.583022	-0.274740	-0.570711
O11	O	1.453838	-0.447394	-0.271306
O12	O	1.283565	-0.447318	-0.441618
O13	O	1.453936	-0.577958	-0.740980
O14	O	1.283566	-0.578010	-0.570649
O15	O	1.583023	-0.447228	-0.741007
O16	O	1.582852	-0.750630	-0.441590
O17	O	1.453839	-0.750573	-0.570633
C18	C	1.245445	-0.512662	-0.506132
C19	C	1.128668	-0.512680	-0.506150
C20	C	1.073845	-0.444702	-0.573460
C21	C	0.964121	-0.444713	-0.573467
C22	C	0.964053	-0.580689	-0.438851
C23	C	1.073775	-0.580672	-0.438840
C24	C	1.518363	-0.789221	-0.506128
C25	C	1.518439	-0.907527	-0.506156
C26	C	1.588690	-0.976772	-0.436044
C27	C	1.614368	-1.047465	-0.531937
C28	C	1.492893	-1.047632	-0.410324
C29	C	1.544165	-0.976662	-0.602098
C30	C	1.422645	-0.976822	-0.480421
C31	C	1.448286	-1.047484	-0.576380
C32	C	1.792445	-0.512700	-0.506162
C33	C	1.909222	-0.512708	-0.506169
C34	C	1.518491	-0.512578	-0.780180
C35	C	1.518524	-0.512535	-0.896957
C36	C	1.518489	-0.235059	-0.506188
C37	C	1.518522	-0.116754	-0.506206
C38	C	1.585744	-0.444452	-0.951834
C39	C	1.585762	-0.444407	-1.061559
C40	C	1.451336	-0.580534	-1.061518
C41	C	1.451314	-0.580574	-0.951796
C42	C	1.518394	-0.512705	-0.233179
C43	C	1.518564	-0.512449	-0.116403
H44	H	1.118536	-0.389335	-0.628266
C45	C	1.716717	-1.150421	-0.652773
C46	C	1.723777	-1.089341	-0.561382
H47	H	1.784267	-1.176255	-0.670953
H48	H	1.670794	-1.208603	-0.641093
H49	H	1.690319	-1.107819	-0.708259
H50	H	1.750168	-1.131944	-0.505893
H51	H	1.769717	-1.031150	-0.573056
H52	H	1.118413	-0.636029	-0.384022
H53	H	1.565726	-0.945620	-0.683232
C54	C	1.545601	-1.152418	-0.262197
C55	C	1.463670	-1.089711	-0.300892
H56	H	1.527567	-1.178387	-0.194634
H57	H	1.557228	-1.210510	-0.308192
H58	H	1.607571	-1.110877	-0.257505
H59	H	1.401702	-1.131255	-0.305591
H60	H	1.452030	-1.031611	-0.254885
C61	C	1.314181	-0.823718	-0.452204
C62	C	1.313268	-0.934886	-0.450969
H63	H	1.246652	-0.797829	-0.434020
H64	H	1.364219	-0.798460	-0.403076
H65	H	1.332273	-0.799472	-0.520362
H66	H	1.295183	-0.959132	-0.382809
H67	H	1.263213	-0.960154	-0.500100
C68	C	0.795825	-0.641099	-0.379103
C69	C	0.903710	-0.655433	-0.364876
H70	H	0.758576	-0.687252	-0.333438
H71	H	0.777844	-0.569578	-0.363847
H72	H	0.777887	-0.656766	-0.449673
H73	H	0.921649	-0.639758	-0.294307
H74	H	0.921698	-0.726970	-0.380125
C75	C	1.718609	-0.309883	-0.962900
C76	C	1.659610	-0.369654	-0.891555
H77	H	1.764204	-0.263698	-0.925685
H78	H	1.758792	-0.356243	-1.005690
H79	H	1.672841	-0.269156	-1.005698
H80	H	1.705378	-0.410387	-0.848761
H81	H	1.619424	-0.323287	-0.848746
H82	H	1.388913	-1.078336	-0.635761
H83	H	1.648109	-0.945723	-0.376807
C84	C	0.975217	-0.310318	-0.706538
C85	C	0.903859	-0.369994	-0.647462
H86	H	0.938012	-0.264193	-0.752224
H87	H	1.017993	-0.269543	-0.660831
H88	H	1.018028	-0.356751	-0.746637
H89	H	0.861053	-0.323561	-0.607358
H90	H	0.861065	-0.410773	-0.693175
C91	C	1.600424	-0.301177	-1.184954
C92	C	1.659652	-0.369563	-1.121875
H93	H	1.646042	-0.254964	-1.222184
H94	H	1.560418	-0.341691	-1.233319
H95	H	1.554655	-0.260486	-1.142134
H96	H	1.705415	-0.410260	-1.164697
H97	H	1.699675	-0.329045	-1.073505
C98	C	1.391687	-0.640923	-1.229697
C99	C	1.377470	-0.655329	-1.121801
H100	H	1.346089	-0.687106	-1.266909
H101	H	1.376334	-0.569410	-1.247684
H102	H	1.462281	-0.656502	-1.247674
H103	H	1.306878	-0.639742	-1.103823
H104	H	1.392816	-0.726859	-1.103807
C105	C	1.309958	-0.595395	-0.828384
C106	C	1.377419	-0.655417	-0.891468
H107	H	1.264336	-0.641597	-0.791146
H108	H	1.349978	-0.554886	-0.780027
H109	H	1.269797	-0.549006	-0.871203
H110	H	1.417586	-0.701800	-0.848648
H111	H	1.337395	-0.695943	-0.939830
