data_functionalizedCrystal
_audit_creation_method	'MofGen! by Chris Wilmer'
_symmetry_space_group_name_H-M	'P1'
_symmetry_Int_Tables_number	1
_symmetry_cell_setting	triclinic
loop_
_symmetry_equiv_pos_as_xyz
  x,y,z
_cell_length_a	17.917603
_cell_length_b	17.052862
_cell_length_c	17.052862
_cell_angle_alpha	61.493325
_cell_angle_beta	90.786232
_cell_angle_gamma	67.577043
loop_
_atom_site_label
_atom_site_type_symbol
_atom_site_fract_x
_atom_site_fract_y
_atom_site_fract_z
Zr1	Zr	0.890123	0.744198	-0.153027
O2	O	0.805307	0.878999	-0.285675
O3	O	0.897450	0.592879	-0.098446
O4	O	0.938605	0.707331	-0.257065
O5	O	0.752930	0.799388	-0.017766
O6	O	1.064996	0.697038	-0.250330
O7	O	0.764151	0.764547	-0.127055
O8	O	0.991377	0.492305	0.033412
O9	O	0.826549	1.004121	-0.301507
O10	O	1.017461	0.653555	-0.086956
O11	O	0.914762	0.687237	-0.010421
O12	O	0.963217	0.821989	-0.197175
O13	O	0.860519	0.855672	-0.120640
Zr14	Zr	1.073805	0.783349	0.032020
Zr15	Zr	1.091702	0.727782	-0.142285
Zr16	Zr	0.872227	0.799765	0.021277
Zr17	Zr	0.924003	0.943753	-0.178278
Zr18	Zr	1.039926	0.583794	0.057270
O19	O	1.066479	0.934667	-0.022562
O20	O	1.091926	0.855658	-0.270400
O21	O	0.779860	0.958008	-0.037836
O22	O	1.158622	0.648548	0.164667
O23	O	1.184069	0.569539	-0.083171
O24	O	0.872003	0.671888	0.149393
O25	O	1.210999	0.728159	-0.103242
O26	O	1.025324	0.820216	0.136058
O27	O	0.898933	0.830508	0.129322
O28	O	1.199778	0.762999	0.006048
O29	O	0.986777	0.991073	-0.292968
O30	O	0.977152	0.536474	0.171961
O31	O	1.137380	0.523426	0.180500
O32	O	1.151605	0.479257	0.041951
O33	O	0.812323	1.048289	-0.162958
O34	O	0.972552	1.035241	-0.154419
O35	O	1.000712	0.705557	0.076167
O36	O	1.103410	0.671875	-0.000368
O37	O	1.049167	0.840309	-0.110587
O38	O	0.946468	0.873992	-0.034052
C39	C	0.939587	0.514160	-0.028919
C40	C	0.925204	0.429444	-0.018200
C41	C	1.099091	0.120319	-0.147798
C42	C	1.112603	0.199917	-0.157876
C43	C	1.065754	0.257302	-0.122957
C44	C	1.005391	0.235082	-0.077960
C45	C	0.991874	0.155481	-0.067888
C46	C	0.958537	0.292464	-0.043047
C47	C	0.898174	0.270244	0.001950
C48	C	0.884660	0.190650	0.012021
C49	C	0.931508	0.133265	-0.022898
C50	C	0.972055	0.372066	-0.053120
C51	C	0.864838	0.407227	0.026790
C52	C	0.851326	0.327629	0.036868
C53	C	0.729820	0.784307	-0.073941
C54	C	0.644245	0.791276	-0.078502
C55	C	0.487574	0.804005	-0.086831
C56	C	0.476349	0.723545	-0.034180
C57	C	0.389172	0.730628	-0.038814
C58	C	0.574758	0.796924	-0.082198
C59	C	1.234109	0.743240	-0.047066
C60	C	1.319684	0.736271	-0.042506
C61	C	1.004351	0.694268	-0.278532
C62	C	1.011948	0.670678	-0.352529
C63	C	1.024342	1.013387	-0.092088
C64	C	1.038725	1.098103	-0.102808
C65	C	0.920094	0.955877	-0.791253
C66	C	0.912950	0.978044	-0.721732
C67	C	0.937699	0.901204	-0.629428
C68	C	0.969593	0.802194	-0.606652
C69	C	0.976731	0.780025	-0.676181
C70	C	0.994336	0.725353	-0.514356
C71	C	1.026230	0.626342	-0.491579
C72	C	1.033367	0.604178	-0.561102
C73	C	1.008618	0.681017	-0.653406
C74	C	0.987198	0.747522	-0.444827
C75	C	1.043835	0.571670	-0.329754
C76	C	1.050979	0.549503	-0.399276
C77	C	0.959578	0.833279	0.157525
C78	C	0.951981	0.856869	0.231522
C79	C	1.191731	0.493627	-0.015482
C80	C	1.262924	0.401942	-0.000202
C81	C	0.917200	0.583666	0.189109
C82	C	0.895220	0.522539	0.273825
C83	C	1.169345	0.563132	0.202546
C84	C	1.232940	0.495037	0.291823
C85	C	0.794584	0.964414	-0.323554
C86	C	0.730989	1.032510	-0.412831
C87	C	0.772198	1.033920	-0.105525
C88	C	0.701005	1.125605	-0.120805
C89	C	1.046729	0.943881	-0.310117
C90	C	1.068709	1.005008	-0.394833
C91	C	1.251493	0.349320	-0.038232
C92	C	1.318382	0.263178	-0.023893
C93	C	1.396700	0.229656	0.028482
C94	C	1.408130	0.282286	0.066512
C95	C	1.341243	0.368430	0.052167
C96	C	0.929762	0.503398	0.358815
C97	C	0.909107	0.445977	0.438420
C98	C	0.853914	0.407691	0.433034
C99	C	0.819368	0.426837	0.348036
C100	C	0.840019	0.484264	0.268432
C101	C	1.316421	0.445476	0.293798
C102	C	1.376186	0.381501	0.377676
C103	C	1.352467	0.367083	0.459578
C104	C	1.268978	0.416652	0.457599
C105	C	1.209216	0.480631	0.373722
C106	C	0.647510	1.082081	-0.414807
C107	C	0.587749	1.146080	-0.498688
C108	C	0.611469	1.160502	-0.580590
C109	C	0.694957	1.110928	-0.578611
C110	C	0.754717	1.046935	-0.494732
C111	C	0.712438	1.178233	-0.082784
C112	C	0.645555	1.264390	-0.097145
C113	C	0.567238	1.297914	-0.149522
C114	C	0.555806	1.245282	-0.187549
C115	C	0.622690	1.159130	-0.173193
C116	C	1.123904	1.043276	-0.389418
C117	C	1.144573	1.100701	-0.469009
C118	C	1.110041	1.119863	-0.554015
C119	C	1.054843	1.081587	-0.559428
C120	C	1.034179	1.024158	-0.479836
H121	H	0.835502	0.172568	0.048652
C122	C	1.242893	0.400788	0.547692
H123	H	1.184616	0.439471	0.534511
H124	H	1.256499	0.332458	0.587653
H125	H	1.271467	0.420666	0.576488
C126	C	0.493669	1.392677	-0.165305
H127	H	0.445386	1.405115	-0.201949
H128	H	0.483675	1.383874	-0.107758
H129	H	0.506559	1.447513	-0.195962
C130	C	0.469654	1.282162	-0.245153
H131	H	0.431462	1.341001	-0.248242
H132	H	0.473606	1.295939	-0.305475
H133	H	0.450733	1.232297	-0.217262
H134	H	0.774428	0.395657	0.343664
C135	C	1.353824	0.426296	0.094017
H136	H	1.410046	0.393981	0.127270
H137	H	1.341040	0.492124	0.046213
H138	H	1.318159	0.428462	0.134408
C139	C	0.621405	1.066241	-0.324728
H140	H	0.563128	1.104946	-0.337933
H141	H	0.634990	0.997918	-0.284757
H142	H	0.649980	1.086116	-0.295932
H143	H	0.937245	0.430395	0.507621
H144	H	0.562800	1.212611	-0.648883
C145	C	1.468013	0.326975	0.379837
H146	H	1.473571	0.344715	0.319046
H147	H	1.501049	0.345382	0.405306
H148	H	1.486064	0.257182	0.416480
C149	C	1.305791	0.205293	-0.065719
H150	H	1.249563	0.237590	-0.098950
H151	H	1.341449	0.203109	-0.106109
H152	H	1.318579	0.139467	-0.017894
C153	C	1.117387	0.535131	0.371562
H154	H	1.111827	0.517367	0.432357
H155	H	1.099317	0.604923	0.334923
H156	H	1.084366	0.516704	0.346092
H157	H	0.532210	0.649342	0.014377
C158	C	0.831210	0.344517	0.520605
H159	H	0.859697	0.338597	0.571991
H160	H	0.772911	0.375709	0.513977
H161	H	0.847037	0.280256	0.529882
C162	C	0.721040	1.126785	-0.668703
H163	H	0.779318	1.088103	-0.655522
H164	H	0.692457	1.106921	-0.697498
H165	H	0.707446	1.195118	-0.708667
C166	C	0.610105	1.101236	-0.215008
H167	H	0.661151	1.045126	-0.198965
H168	H	0.569259	1.079622	-0.191830
H169	H	0.592149	1.143249	-0.280035
C170	C	1.418210	0.296697	0.551836
H171	H	1.471323	0.269241	0.541275
H172	H	1.419426	0.332803	0.579998
H173	H	1.404448	0.244606	0.591147
C174	C	0.412119	0.904239	-0.152431
H175	H	0.362582	0.895900	-0.146982
H176	H	0.409645	0.951612	-0.136881
H177	H	0.417567	0.927030	-0.213909
C178	C	0.990470	0.545510	0.364751
H179	H	0.997834	0.582449	0.305175
H180	H	0.968456	0.587756	0.388410
H181	H	1.042582	0.492296	0.404327
H182	H	1.059328	0.523557	-0.542551
C183	C	1.205282	1.142805	-0.463045
H184	H	1.212656	1.179745	-0.522615
H185	H	1.183263	1.185049	-0.439385
H186	H	1.257390	1.089587	-0.423462
C187	C	0.846539	0.992400	-0.492568
H188	H	0.852097	1.010151	-0.553361
H189	H	0.879582	1.010790	-0.467085
H190	H	0.864581	0.922607	-0.455936
C191	C	0.798579	1.141371	-0.025166
H192	H	0.795799	1.185068	-0.004591
H193	H	0.815097	1.076347	0.026416
H194	H	0.837982	1.139983	-0.061789
H195	H	0.899941	1.018429	-0.866408
C196	C	0.802028	0.505305	0.174948
H197	H	0.822222	0.544993	0.128302
H198	H	0.817268	0.444228	0.177393
H199	H	0.743146	0.539693	0.161470
H200	H	0.826688	0.453954	0.055221
C201	C	1.470266	0.134892	0.044263
H202	H	1.452231	0.108353	0.014118
H203	H	1.513417	0.150739	0.020109
H204	H	1.490521	0.087107	0.108307
H205	H	1.335749	0.457202	0.227119
C206	C	0.658141	1.322263	-0.055301
H207	H	0.714361	1.289943	-0.022039
H208	H	0.645367	1.388086	-0.103110
H209	H	0.622468	1.324445	-0.014920
H210	H	0.961229	0.828137	-0.463381
C211	C	1.161900	1.022205	-0.295921
H212	H	1.197738	1.053217	-0.304107
H213	H	1.118655	1.047925	-0.270941
H214	H	1.192769	0.952465	-0.255039
H215	H	1.126873	1.166628	-0.618816
H216	H	0.931881	0.919259	-0.572824
H217	H	0.886983	1.058658	-0.740283
H218	H	1.471906	0.254979	0.109156
H219	H	1.187730	0.376608	-0.080890
C220	C	1.016856	1.102681	-0.652938
H221	H	1.037064	1.142376	-0.699559
H222	H	1.032085	1.041625	-0.650531
H223	H	0.957974	1.137083	-0.666424
C224	C	1.086051	0.440599	-0.374232
H225	H	1.086750	0.438407	-0.428860
H226	H	1.141061	0.404474	-0.336825
H227	H	1.051963	0.411735	-0.341573
C228	C	0.973449	0.982085	-0.485803
H229	H	0.966083	0.945134	-0.426231
H230	H	0.921350	1.035311	-0.525382
H231	H	0.995457	0.939839	-0.509467
H232	H	1.021203	0.390150	-0.089757
H233	H	1.076759	0.322114	-0.131165
C234	C	1.071041	0.487144	-0.228228
H235	H	1.062224	0.514527	-0.190084
H236	H	1.039290	0.451026	-0.218369
H237	H	1.128395	0.443745	-0.213592
H238	H	1.014434	0.662974	-0.710021
H239	H	1.161749	0.218007	-0.194513
H240	H	0.519773	1.186435	-0.500281
H241	H	1.137225	0.073597	-0.176231
C242	C	0.784925	0.303186	0.086354
H243	H	0.783584	0.247568	0.087343
H244	H	0.798215	0.288008	0.147591
H245	H	0.732005	0.358906	0.054639
C246	C	0.916661	0.045688	-0.011786
H247	H	0.874008	0.040664	0.020021
H248	H	0.900304	0.056604	-0.070723
H249	H	0.966520	-0.014249	0.022224
