data_functionalizedCrystal
_audit_creation_method	'MofGen! by Chris Wilmer'
_symmetry_space_group_name_H-M	'P1'
_symmetry_Int_Tables_number	1
_symmetry_cell_setting	triclinic
loop_
_symmetry_equiv_pos_as_xyz
  x,y,z
_cell_length_a	14.853566
_cell_length_b	14.519709
_cell_length_c	13.330367
_cell_angle_alpha	89.994415
_cell_angle_beta	89.995295
_cell_angle_gamma	83.657280
loop_
_atom_site_label
_atom_site_type_symbol
_atom_site_fract_x
_atom_site_fract_y
_atom_site_fract_z
O1	O	1.196416	0.120399	-0.083359
O2	O	1.696416	0.620399	0.416641
O3	O	0.933962	0.134744	-0.083376
O4	O	1.433962	0.634744	0.416624
O5	O	1.072148	-0.006670	-0.083358
O6	O	1.572148	0.493330	0.416642
O7	O	1.058231	0.261813	-0.083377
O8	O	1.558231	0.761813	0.416623
O9	O	1.072128	-0.006673	0.083489
O10	O	1.572128	0.493327	0.583489
O11	O	0.933942	0.134740	0.083471
O12	O	1.433942	0.634740	0.583471
O13	O	1.196396	0.120396	0.083488
O14	O	1.696396	0.620396	0.583488
Cu15	Cu	1.065167	0.127568	0.098714
Cu16	Cu	1.565167	0.627568	0.598714
Cu17	Cu	1.065191	0.127572	-0.098602
Cu18	Cu	1.565191	0.627572	0.401398
O19	O	1.058211	0.261809	0.083470
O20	O	1.558211	0.761809	0.583470
C21	C	0.900363	0.134092	0.000045
C22	C	1.400363	0.634092	0.500045
C23	C	0.800279	0.132145	0.000039
C24	C	1.300279	0.632145	0.500039
C25	C	1.071489	-0.041031	0.000065
C26	C	1.571489	0.458969	0.500065
C27	C	1.069546	-0.143412	0.000066
C28	C	1.569546	0.356588	0.500066
C29	C	0.377102	0.123911	-0.090891
C30	C	0.877102	0.623911	0.409109
C31	C	0.377101	0.123909	0.091012
C32	C	0.877101	0.623909	0.591012
C33	C	0.471136	0.125737	0.091009
C34	C	0.971136	0.625737	0.591009
C35	C	0.518158	0.126654	0.000054
C36	C	1.018158	0.626654	0.500054
C37	C	0.471145	0.125743	-0.090897
C38	C	0.971145	0.625743	0.409103
C39	C	0.518155	0.126658	0.181959
C40	C	1.018155	0.626658	0.681959
C41	C	0.612195	0.128487	0.181959
C42	C	1.112195	0.628487	0.681959
C43	C	0.659219	0.129398	0.091003
C44	C	1.159219	0.629398	0.591003
C45	C	0.612201	0.128485	0.000048
C46	C	1.112201	0.628485	0.500048
C47	C	0.659223	0.129403	-0.090906
C48	C	1.159223	0.629403	0.409094
C49	C	0.612206	0.128483	-0.181862
C50	C	1.112206	0.628483	0.318138
C51	C	0.518169	0.126653	-0.181853
C52	C	1.018169	0.626653	0.318147
C53	C	0.753257	0.131228	0.090994
C54	C	1.253257	0.631228	0.590994
C55	C	0.753266	0.131234	-0.090912
C56	C	1.253266	0.631234	0.409088
C57	C	1.062390	-0.518304	0.000039
C58	C	1.562390	-0.018304	0.500039
C59	C	1.064377	-0.413997	0.000047
C60	C	1.564377	0.086003	0.500047
C61	C	1.065968	-0.330861	0.000053
C62	C	1.565968	0.169139	0.500053
C63	C	1.067955	-0.226548	0.000059
C64	C	1.567955	0.273452	0.500059
C65	C	1.229995	0.121047	0.000064
C66	C	1.729995	0.621047	0.500064
C67	C	1.330080	0.122994	0.000064
C68	C	1.830080	0.622994	0.500064
C69	C	1.058869	0.296171	0.000044
C70	C	1.558869	0.796171	0.500044
C71	C	1.060813	0.398551	0.000037
C72	C	1.560813	0.898551	0.500037
N73	N	1.065157	0.127565	0.237495
N74	N	1.565157	0.627565	0.737495
N75	N	1.065208	0.127568	-0.237384
N76	N	1.565208	0.627568	0.262616
C77	C	1.004000	0.190165	0.710110
C78	C	1.504000	0.690165	1.210110
C79	C	1.126407	0.064971	0.710094
C80	C	1.626407	0.564971	1.210094
C81	C	1.126396	0.064968	0.605076
C82	C	1.626396	0.564968	1.105076
C83	C	1.065188	0.127566	0.552570
C84	C	1.565188	0.627566	1.052570
C85	C	1.003989	0.190166	0.605082
C86	C	1.503989	0.690166	1.105082
C87	C	1.187600	0.002376	0.552556
C88	C	1.687600	0.502376	1.052556
C89	C	1.187593	0.002371	0.447531
C90	C	1.687593	0.502371	0.947531
C91	C	1.126379	0.064965	0.395023
C92	C	1.626379	0.564965	0.895023
C93	C	1.065178	0.127567	0.447542
C94	C	1.565178	0.627567	0.947542
C95	C	1.003969	0.190164	0.395036
C96	C	1.503969	0.690164	0.895036
C97	C	0.942762	0.252762	0.447553
C98	C	1.442762	0.752762	0.947553
C99	C	0.942776	0.252760	0.552574
C100	C	1.442776	0.752760	1.052574
C101	C	1.126366	0.064967	0.290001
C102	C	1.626366	0.564967	0.790001
C103	C	1.003959	0.190165	0.290008
C104	C	1.503959	0.690165	0.790008
H105	H	0.791545	0.131978	-0.164980
H106	H	1.291545	0.631978	0.335020
C107	C	0.325389	0.122905	-0.190935
C108	C	0.825389	0.622905	0.309065
H109	H	0.262648	0.121687	-0.177910
H110	H	0.762648	0.621687	0.322090
H111	H	0.347594	0.069471	-0.228304
H112	H	0.847594	0.569471	0.271696
H113	H	0.334012	0.176951	-0.228306
H114	H	0.834012	0.676951	0.271694
C115	C	0.804974	0.132242	0.191029
C116	C	1.304974	0.632242	0.691029
H117	H	0.867714	0.133469	0.178000
H118	H	1.367714	0.633469	0.678000
H119	H	0.796349	0.078210	0.228412
H120	H	1.296349	0.578210	0.728412
H121	H	0.782773	0.185690	0.228388
H122	H	1.282773	0.685690	0.728388
C123	C	0.875465	0.321617	0.610344
C124	C	1.375465	0.821617	1.110344
H125	H	0.884247	0.312658	0.680410
H126	H	1.384247	0.812658	1.180410
H127	H	0.815279	0.311495	0.593154
H128	H	1.315279	0.811495	1.093154
H129	H	0.885359	0.383188	0.593120
H130	H	1.385359	0.883188	1.093120
C131	C	0.466435	0.125653	0.282001
C132	C	0.966435	0.625653	0.782001
H133	H	0.507901	0.126472	0.336168
H134	H	1.007901	0.626472	0.836168
H135	H	0.436541	0.071201	0.285790
H136	H	0.936541	0.571201	0.785790
H137	H	0.422961	0.178681	0.285773
H138	H	0.922961	0.678681	0.785773
H139	H	0.954164	0.241129	0.752872
H140	H	1.454164	0.741129	1.252872
H141	H	1.176203	0.014005	0.247247
H142	H	1.676203	0.514005	0.747247
C143	C	0.663936	0.129493	-0.281906
C144	C	1.163936	0.629493	0.218094
H145	H	0.726675	0.130713	-0.268876
H146	H	1.226675	0.630713	0.231124
H147	H	0.641738	0.182927	-0.319285
H148	H	1.141738	0.682927	0.180715
H149	H	0.655325	0.075447	-0.319269
H150	H	1.155325	0.575447	0.180731
H151	H	0.479880	0.125904	-0.255904
H152	H	0.979880	0.625904	0.244096
C153	C	0.325384	0.122904	0.191056
C154	C	0.825384	0.622904	0.691056
H155	H	0.366852	0.123715	0.245222
H156	H	0.866852	0.623715	0.745222
H157	H	0.295483	0.068456	0.194843
H158	H	0.795483	0.568456	0.694843
H159	H	0.281914	0.175936	0.194833
H160	H	0.781914	0.675936	0.694833
H161	H	1.176245	0.014011	0.752848
H162	H	1.676245	0.514011	1.252848
H163	H	0.954112	0.241136	0.247264
H164	H	1.454112	0.741136	0.747264
H165	H	0.892930	0.303734	0.404790
H166	H	1.392930	0.803734	0.904790
C167	C	0.663906	0.129490	0.282004
C168	C	1.163906	0.629490	0.782004
H169	H	0.622432	0.128676	0.336173
H170	H	1.122432	0.628676	0.836173
H171	H	0.693806	0.183937	0.285782
H172	H	1.193806	0.683937	0.785782
H173	H	0.707374	0.076457	0.285785
H174	H	1.207374	0.576457	0.785785
H175	H	1.237438	-0.048585	0.595309
H176	H	1.737438	0.451415	1.095309
H177	H	1.237429	-0.048600	0.404778
H178	H	1.737429	0.451400	0.904778
