data_functionalizedCrystal
_audit_creation_method	'MofGen! by Chris Wilmer'
_symmetry_space_group_name_H-M	'P1'
_symmetry_Int_Tables_number	1
_symmetry_cell_setting	triclinic
loop_
_symmetry_equiv_pos_as_xyz
  x,y,z
_cell_length_a	16.120490
_cell_length_b	16.120484
_cell_length_c	16.959455
_cell_angle_alpha	87.117977
_cell_angle_beta	92.897618
_cell_angle_gamma	90.164100
loop_
_atom_site_label
_atom_site_type_symbol
_atom_site_fract_x
_atom_site_fract_y
_atom_site_fract_z
Zn1	Zn	1.254303	-0.395802	0.526140
Zn2	Zn	1.247187	-0.534831	0.400296
Zn3	Zn	1.115288	-0.388728	0.386963
Zn4	Zn	1.108155	-0.527746	0.525419
O5	O	1.181233	-0.461777	0.459705
O6	O	1.369723	-0.420169	0.515328
O7	O	1.229698	-0.515454	0.287917
O8	O	1.139692	-0.273302	0.400146
O9	O	1.364495	-0.522314	0.422871
O10	O	1.241825	-0.278499	0.502399
O11	O	1.132792	-0.408113	0.278121
O12	O	0.997978	-0.401244	0.399448
O13	O	1.127535	-0.510239	0.636125
O14	O	0.992738	-0.503380	0.501171
O15	O	1.234909	-0.413300	0.636654
O16	O	1.222782	-0.650255	0.422173
O17	O	1.120635	-0.645050	0.514100
C18	C	0.965186	-0.450776	0.448785
C19	C	0.872759	-0.446090	0.444133
C20	C	0.659776	-0.486078	0.483835
C21	C	0.703538	-0.437542	0.435640
C22	C	0.797701	-0.442300	0.440367
C23	C	0.565605	-0.481321	0.479109
C24	C	1.170185	-0.677826	0.469524
C25	C	1.165534	-0.770256	0.473755
C26	C	1.157048	-0.939489	0.481496
C27	C	1.205568	-0.983232	0.437934
C28	C	1.200846	-1.077398	0.442241
C29	C	1.161769	-0.845313	0.477189
C30	C	1.398124	-0.472821	0.470667
C31	C	1.490550	-0.477527	0.475339
C32	C	1.181220	-0.461768	0.665872
C33	C	1.181214	-0.461765	0.753728
C34	C	1.192348	-0.244885	0.449866
C35	C	1.197084	-0.152459	0.445673
C36	C	1.125321	-0.512260	1.124932
C37	C	1.237131	-0.411316	1.125478
C38	C	1.237128	-0.411309	1.042932
C39	C	1.181222	-0.461779	1.001382
C40	C	1.125318	-0.512256	1.042378
C41	C	1.293036	-0.360839	1.001930
C42	C	1.293037	-0.360831	0.919378
C43	C	1.237126	-0.411297	0.877827
C44	C	1.181219	-0.461775	0.918828
C45	C	1.125313	-0.512245	0.877278
C46	C	1.069402	-0.562720	0.918278
C47	C	1.069408	-0.562722	1.000826
C48	C	1.237121	-0.411295	0.795278
C49	C	1.125311	-0.512242	0.794724
C50	C	1.181235	-0.461799	1.254339
C51	C	1.181227	-0.461790	1.166482
H52	H	1.250652	-0.949959	0.397405
H53	H	1.079797	-0.553352	1.158317
O54	O	1.353334	-0.306413	1.046747
H55	H	1.392217	-0.271323	1.004372
H56	H	1.023887	-0.603816	0.884437
H57	H	1.079778	-0.553333	0.760899
O58	O	1.009106	-0.617159	1.045044
H59	H	1.018507	-0.608687	1.109426
H60	H	1.282651	-0.370230	1.159313
O61	O	1.353333	-0.306391	0.875158
H62	H	1.392205	-0.271295	0.917919
O63	O	0.703809	-0.545853	0.543192
H64	H	0.687931	-0.530863	0.603789
H65	H	1.282645	-0.370202	0.761900
O66	O	1.097315	-0.983550	0.535165
H67	H	1.102926	-1.051668	0.530153
O68	O	0.659491	-0.377777	0.376274
H69	H	0.679418	-0.313353	0.387778
