data_functionalizedCrystal
_audit_creation_method	'MofGen! by Chris Wilmer'
_symmetry_space_group_name_H-M	'P1'
_symmetry_Int_Tables_number	1
_symmetry_cell_setting	triclinic
loop_
_symmetry_equiv_pos_as_xyz
  x,y,z
_cell_length_a	29.839131
_cell_length_b	19.077142
_cell_length_c	19.076919
_cell_angle_alpha	89.925643
_cell_angle_beta	92.267459
_cell_angle_gamma	92.263213
loop_
_atom_site_label
_atom_site_type_symbol
_atom_site_fract_x
_atom_site_fract_y
_atom_site_fract_z
Zn1	Zn	-0.217348	-1.058169	-0.440427
Zn2	Zn	0.115986	-0.724836	-0.107094
Zn3	Zn	0.449319	-0.391502	0.226239
Zn4	Zn	-0.289580	-1.062776	-0.322912
Zn5	Zn	0.043753	-0.729443	0.010421
Zn6	Zn	0.377086	-0.396109	0.343755
Zn7	Zn	-0.211328	-0.945390	-0.318218
Zn8	Zn	0.122005	-0.612057	0.015116
Zn9	Zn	0.455338	-0.278723	0.348449
Zn10	Zn	-0.289308	-0.940598	-0.435661
Zn11	Zn	0.044025	-0.607265	-0.102327
Zn12	Zn	0.377359	-0.273931	0.231006
O13	O	-0.251891	-1.001733	-0.379304
O14	O	0.081442	-0.668400	-0.045971
O15	O	0.414776	-0.335067	0.287362
O16	O	-0.229563	-1.157111	-0.428798
O17	O	0.103771	-0.823777	-0.095465
O18	O	0.437104	-0.490444	0.237869
O19	O	-0.276795	-1.051138	-0.223958
O20	O	0.056539	-0.717804	0.109375
O21	O	0.389872	-0.384471	0.442708
O22	O	-0.149263	-0.960428	-0.334459
O23	O	0.184071	-0.627094	-0.001126
O24	O	0.517404	-0.293761	0.332208
O25	O	-0.282631	-1.160495	-0.342460
O26	O	0.050702	-0.827162	-0.009127
O27	O	0.384035	-0.493829	0.324206
O28	O	-0.153685	-1.043286	-0.424246
O29	O	0.179648	-0.709953	-0.090913
O30	O	0.512982	-0.376620	0.242421
O31	O	-0.219303	-0.964895	-0.220509
O32	O	0.114030	-0.631561	0.112824
O33	O	0.447363	-0.298228	0.446157
O34	O	-0.219040	-0.846424	-0.329837
O35	O	0.114294	-0.513090	0.003496
O36	O	0.447627	-0.179757	0.336829
O37	O	-0.282168	-0.952261	-0.534624
O38	O	0.051166	-0.618927	-0.201290
O39	O	0.384499	-0.285594	0.132043
O40	O	-0.276331	-0.842903	-0.416122
O41	O	0.057002	-0.509570	-0.082789
O42	O	0.390336	-0.176236	0.250545
O43	O	-0.229299	-1.038640	-0.538126
O44	O	0.104035	-0.705306	-0.204792
O45	O	0.437368	-0.371973	0.128541
O46	O	-0.352409	-1.046491	-0.337838
O47	O	-0.019075	-0.713158	-0.004505
O48	O	0.314258	-0.379824	0.328828
O49	O	-0.352209	-0.956728	-0.420674
O50	O	-0.018875	-0.623394	-0.087341
O51	O	0.314458	-0.290061	0.245993
C52	C	-0.247003	-0.819167	-0.371953
C53	C	0.086330	-0.485834	-0.038620
C54	C	0.419664	-0.152501	0.294713
C55	C	-0.244923	-0.741064	-0.368825
C56	C	0.088410	-0.407731	-0.035492
C57	C	0.421744	-0.074398	0.297841
C58	C	-0.273816	-0.702560	-0.412209
C59	C	0.059517	-0.369226	-0.078876
C60	C	0.392851	-0.035893	0.254458
C61	C	-0.271856	-0.629173	-0.409273
C62	C	0.061478	-0.295840	-0.075940
C63	C	0.394811	0.037493	0.257394
C64	C	-0.241004	-0.594293	-0.362950
C65	C	0.092329	-0.260960	-0.029616
C66	C	0.425662	0.072373	0.303717
C67	C	-0.212108	-0.632803	-0.319564
C68	C	0.121225	-0.299470	0.013769
C69	C	0.454558	0.033863	0.347103
C70	C	-0.214067	-0.706188	-0.322504
C71	C	0.119267	-0.372855	0.010829
C72	C	0.452600	-0.039521	0.344163
C73	C	-0.231942	-0.375010	-0.349351
C74	C	0.101391	-0.041677	-0.016017
C75	C	0.434724	0.291656	0.317316
C76	C	-0.229987	-0.301620	-0.346413
C77	C	0.103346	0.031713	-0.013079
C78	C	0.436680	0.365046	0.320254
C79	C	-0.289734	-0.297995	-0.436123
C80	C	0.043599	0.035338	-0.102790
C81	C	0.376933	0.368671	0.230544
C82	C	-0.291691	-0.371382	-0.439056
C83	C	0.041642	-0.038049	-0.105722
C84	C	0.374975	0.295285	0.227611
C85	C	-0.262794	-0.409885	-0.395673
C86	C	0.070540	-0.076552	-0.062340
C87	C	0.403873	0.256781	0.270994
N88	N	-0.239001	-0.519281	-0.359946
N89	N	0.094332	-0.185947	-0.026613
N90	N	0.427666	0.147386	0.306721
N91	N	-0.264795	-0.484896	-0.398681
N92	N	0.068538	-0.151563	-0.065347
N93	N	0.401871	0.181770	0.267986
C94	C	-0.368609	-1.001608	-0.379264
C95	C	-0.035276	-0.668274	-0.045931
C96	C	0.298057	-0.334941	0.287402
C97	C	-0.418544	-1.001617	-0.379273
C98	C	-0.085211	-0.668284	-0.045940
C99	C	0.248122	-0.334951	0.287393
C100	C	-0.728287	-1.048552	-0.336241
C101	C	-0.394953	-0.715219	-0.002907
C102	C	-0.061620	-0.381885	0.330426
C103	C	-0.915963	-1.048638	-0.336271
C104	C	-0.582629	-0.715304	-0.002938
C105	C	-0.249296	-0.381971	0.330395
O106	O	-0.940308	-1.088444	-0.299653
O107	O	-0.606975	-0.755111	0.033681
O108	O	-0.273642	-0.421777	0.367014
N109	N	-0.939338	-1.001877	-0.379363
N110	N	-0.606005	-0.668543	-0.046030
N111	N	-0.272672	-0.335210	0.287303
C112	C	-0.915792	-0.955094	-0.422454
C113	C	-0.582459	-0.621761	-0.089120
C114	C	-0.249126	-0.288427	0.244213
O115	O	-0.939981	-0.915328	-0.459112
O116	O	-0.606648	-0.581994	-0.125779
O117	O	-0.273314	-0.248661	0.207555
C118	C	-0.728117	-0.955012	-0.422426
C119	C	-0.394784	-0.621679	-0.089093
C120	C	-0.061451	-0.288346	0.244240
C121	C	-0.704744	-1.001772	-0.379326
C122	C	-0.371410	-0.668438	-0.045993
C123	C	-0.038077	-0.335105	0.287340
C124	C	-0.704913	-1.095308	-0.293145
C125	C	-0.371580	-0.761975	0.040188
C126	C	-0.038247	-0.428642	0.373522
C127	C	-0.657997	-1.095284	-0.293135
C128	C	-0.324664	-0.761950	0.040198
C129	C	0.008670	-0.428617	0.373532
C130	C	-0.634454	-1.048503	-0.336221
C131	C	-0.301121	-0.715170	-0.002887
C132	C	0.032213	-0.381837	0.330446
C133	C	-0.657827	-1.001747	-0.379316
C134	C	-0.324494	-0.668414	-0.045983
C135	C	0.008839	-0.335081	0.287350
C136	C	-0.704572	-0.908234	-0.465520
C137	C	-0.371239	-0.574900	-0.132187
C138	C	-0.037905	-0.241567	0.201147
C139	C	-0.657650	-0.908219	-0.465511
C140	C	-0.324317	-0.574885	-0.132177
C141	C	0.009016	-0.241552	0.201156
C142	C	-0.634277	-0.954978	-0.422411
C143	C	-0.300944	-0.621645	-0.089077
C144	C	0.032390	-0.288311	0.244256
C145	C	-0.587368	-0.954942	-0.422392
C146	C	-0.254035	-0.621609	-0.089059
C147	C	0.079298	-0.288276	0.244275
N148	N	-0.563993	-1.001703	-0.379300
N149	N	-0.230659	-0.668370	-0.045967
N150	N	0.102674	-0.335037	0.287366
C151	C	-0.587536	-1.048484	-0.336214
C152	C	-0.254202	-0.715150	-0.002881
C153	C	0.079131	-0.381817	0.330452
C154	C	-1.014324	-0.955139	-0.422464
C155	C	-0.680991	-0.621806	-0.089131
C156	C	-0.347658	-0.288473	0.244202
C157	C	-1.061243	-0.955159	-0.422470
C158	C	-0.727909	-0.621825	-0.089137
C159	C	-0.394576	-0.288492	0.244196
C160	C	-1.061410	-1.048704	-0.336289
C161	C	-0.728077	-0.715370	-0.002955
C162	C	-0.394743	-0.382037	0.330378
C163	C	-1.014491	-1.048680	-0.336279
C164	C	-0.681157	-0.715347	-0.002946
C165	C	-0.347824	-0.382014	0.330387
C166	C	-0.990949	-1.001900	-0.379372
C167	C	-0.657615	-0.668567	-0.046039
C168	C	-0.324282	-0.335234	0.287294
C169	C	-0.489008	-1.048428	-0.336196
C170	C	-0.155675	-0.715095	-0.002863
C171	C	0.177659	-0.381762	0.330471
C172	C	-0.442087	-1.048398	-0.336188
C173	C	-0.108754	-0.715065	-0.002854
C174	C	0.224579	-0.381731	0.330479
C175	C	-0.441924	-0.954856	-0.422372
C176	C	-0.108591	-0.621523	-0.089038
C177	C	0.224743	-0.288189	0.244295
C178	C	-0.488840	-0.954884	-0.422378
C179	C	-0.155507	-0.621550	-0.089044
C180	C	0.177826	-0.288217	0.244289
C181	C	-0.512381	-1.001676	-0.379288
C182	C	-0.179048	-0.668342	-0.045954
C183	C	0.154285	-0.335009	0.287379
O184	O	-0.562994	-0.915162	-0.458997
O185	O	-0.229661	-0.581829	-0.125664
O186	O	0.103673	-0.248496	0.207669
O187	O	-0.563339	-1.088255	-0.299573
O188	O	-0.230006	-0.754921	0.033760
O189	O	0.103328	-0.421588	0.367094
C190	C	-0.775203	-1.048577	-0.336251
C191	C	-0.441870	-0.715243	-0.002917
C192	C	-0.108536	-0.381910	0.330416
C193	C	-0.798576	-1.001821	-0.379347
C194	C	-0.465243	-0.668487	-0.046013
C195	C	-0.131910	-0.335154	0.287320
C196	C	-0.775034	-0.955040	-0.422432
C197	C	-0.441700	-0.621707	-0.089099
C198	C	-0.108367	-0.288373	0.244234
C199	C	-0.845495	-1.001840	-0.379353
C200	C	-0.512162	-0.668507	-0.046019
C201	C	-0.178828	-0.335173	0.287314
C202	C	-0.869038	-1.048621	-0.336267
C203	C	-0.535705	-0.715287	-0.002934
C204	C	-0.202371	-0.381954	0.330400
C205	C	-0.845662	-1.095382	-0.293175
C206	C	-0.512329	-0.762048	0.040158
C207	C	-0.178996	-0.428715	0.373492
C208	C	-0.798746	-1.095357	-0.293165
C209	C	-0.465413	-0.762024	0.040168
C210	C	-0.132079	-0.428690	0.373502
C211	C	-0.798409	-0.908279	-0.465524
C212	C	-0.465076	-0.574946	-0.132191
C213	C	-0.131742	-0.241612	0.201143
C214	C	-0.845325	-0.908307	-0.465530
C215	C	-0.511992	-0.574973	-0.132197
C216	C	-0.178659	-0.241640	0.201137
C217	C	-0.868868	-0.955087	-0.422444
C218	C	-0.535535	-0.621754	-0.089111
C219	C	-0.202202	-0.288421	0.244222
C220	C	-0.134718	-1.001878	-0.379361
C221	C	0.198615	-0.668544	-0.046027
C222	C	0.531949	-0.335211	0.287306
C223	C	-0.084786	-1.001939	-0.379385
C224	C	0.248548	-0.668606	-0.046051
C225	C	0.581881	-0.335273	0.287282
C226	C	-0.256374	-0.994402	-0.562584
C227	C	0.076959	-0.661068	-0.229250
C228	C	0.410293	-0.327735	0.104083
C229	C	-0.258285	-0.991277	-0.640687
C230	C	0.075049	-0.657944	-0.307353
C231	C	0.408382	-0.324611	0.025980
C232	C	-0.256796	-0.185012	-0.386676
C233	C	0.076537	0.148321	-0.053343
C234	C	0.409870	0.481655	0.279990
C235	C	-0.258880	-0.263116	-0.389796
C236	C	0.074453	0.070218	-0.056463
C237	C	0.407787	0.403551	0.276870
C238	C	-0.231657	-1.034780	-0.679204
C239	C	0.101676	-0.701447	-0.345870
C240	C	0.435009	-0.368114	-0.012537
C241	C	-0.233450	-1.031836	-0.752589
C242	C	0.099883	-0.698503	-0.419256
C243	C	0.433216	-0.365170	-0.085923
C244	C	-0.261873	-0.985392	-0.787456
C245	C	0.071460	-0.652059	-0.454123
C246	C	0.404793	-0.318726	-0.120790
C247	C	-0.288502	-0.941885	-0.748934
C248	C	0.044832	-0.608551	-0.415600
C249	C	0.378165	-0.275218	-0.082267
C250	C	-0.286706	-0.944826	-0.675550
C251	C	0.046627	-0.611492	-0.342216
C252	C	0.379961	-0.278159	-0.008883
C253	C	-0.270193	-0.971770	-1.006736
C254	C	0.063140	-0.638437	-0.673403
C255	C	0.396473	-0.305104	-0.340069
C256	C	-0.271988	-0.968834	-1.080126
C257	C	0.061345	-0.635501	-0.746792
C258	C	0.394678	-0.302167	-0.413459
C259	C	-0.216936	-1.058785	-1.083776
C260	C	0.116397	-0.725452	-0.750443
C261	C	0.449731	-0.392119	-0.417109
C262	C	-0.215145	-1.061725	-1.010390
C263	C	0.118189	-0.728392	-0.677057
C264	C	0.451522	-0.395058	-0.343724
C265	C	-0.241771	-1.018215	-0.971874
C266	C	0.091562	-0.684882	-0.638541
C267	C	0.424895	-0.351548	-0.305207
N268	N	-0.263708	-0.982383	-0.862468
N269	N	0.069625	-0.649050	-0.529135
N270	N	0.402959	-0.315717	-0.195801
N271	N	-0.239934	-1.021221	-0.896863
N272	N	0.093399	-0.687887	-0.563530
N273	N	0.426733	-0.354554	-0.230197
C274	C	-0.247394	-1.009077	-0.196740
C275	C	0.085939	-0.675743	0.136594
C276	C	0.419272	-0.342410	0.469927
C277	C	-0.245361	-1.012337	-0.118643
C278	C	0.087972	-0.679004	0.214691
C279	C	0.421306	-0.345670	0.548024
H280	H	-0.190537	-0.737538	-0.287180
H281	H	0.142797	-0.404204	0.046153
H282	H	0.476130	-0.070871	0.379487
O283	O	-0.201001	-1.084874	-0.641598
O284	O	0.132332	-0.751540	-0.308264
O285	O	0.465666	-0.418207	0.025069
H286	H	-0.182784	-1.114624	-0.680713
H287	H	0.150550	-0.781291	-0.347380
H288	H	0.483883	-0.447958	-0.014046
O289	O	-0.200789	-0.416537	-0.302540
O290	O	0.132544	-0.083203	0.030794
O291	O	0.465877	0.250130	0.364127
H292	H	-0.179016	-0.379952	-0.269824
H293	H	0.154317	-0.046618	0.063510
H294	H	0.487650	0.286715	0.396843
O295	O	-0.196716	-0.263982	-0.296448
O296	O	0.136618	0.069351	0.036885
O297	O	0.469951	0.402684	0.370218
H298	H	-0.162138	-0.277598	-0.309165
H299	H	0.171195	0.055735	0.024168
H300	H	0.504528	0.389069	0.357502
H301	H	-0.311643	-0.904066	-0.777328
H302	H	0.021691	-0.570733	-0.443995
H303	H	0.355024	-0.237400	-0.110662
H304	H	-0.308384	-0.909394	-0.644189
H305	H	0.024949	-0.576061	-0.310856
H306	H	0.358283	-0.242727	0.022477
O307	O	-0.988934	-0.904665	-0.468928
O308	O	-0.655600	-0.571332	-0.135595
O309	O	-0.322267	-0.237998	0.197738
H310	H	-1.013074	-0.872148	-0.498879
H311	H	-0.679741	-0.538815	-0.165546
H312	H	-0.346408	-0.205481	0.167787
O313	O	-0.324966	-0.408994	-0.489027
O314	O	0.008367	-0.075660	-0.155694
O315	O	0.341701	0.257673	0.177640
H316	H	-0.359538	-0.395347	-0.476311
H317	H	-0.026204	-0.062014	-0.142978
H318	H	0.307129	0.271319	0.190356
O319	O	-0.514400	-1.098892	-0.289725
O320	O	-0.181067	-0.765559	0.043608
O321	O	0.152267	-0.432226	0.376941
H322	H	-0.503749	-1.089082	-0.234081
H323	H	-0.170416	-0.755749	0.099252
H324	H	0.162917	-0.422415	0.432586
O325	O	-0.320907	-0.256442	-0.482877
O326	O	0.012426	0.076891	-0.149544
O327	O	0.345759	0.410224	0.183790
H328	H	-0.356227	-0.270975	-0.471255
H329	H	-0.022893	0.062358	-0.137922
H330	H	0.310440	0.395691	0.195411
H331	H	-0.638485	-0.870125	-0.500604
H332	H	-0.305152	-0.536792	-0.167271
H333	H	0.028182	-0.203459	0.166062
H334	H	-0.186987	-0.604398	-0.281849
H335	H	0.146347	-0.271065	0.051484
H336	H	0.479680	0.062269	0.384817
O337	O	-0.307090	-0.740179	-0.462175
O338	O	0.026244	-0.406846	-0.128842
O339	O	0.359577	-0.073513	0.204491
H340	H	-0.326847	-0.701072	-0.491855
H341	H	0.006486	-0.367739	-0.158521
H342	H	0.339819	-0.034406	0.174812
O343	O	-0.204734	-1.078761	-0.794136
O344	O	0.128599	-0.745427	-0.460802
O345	O	0.461933	-0.412094	-0.127469
H346	H	-0.184673	-1.111557	-0.757562
H347	H	0.148660	-0.778224	-0.424229
H348	H	0.481993	-0.444891	-0.090896
H349	H	-0.192001	-1.099547	-0.982007
H350	H	0.141332	-0.766213	-0.648673
H351	H	0.474666	-0.432880	-0.315340
H352	H	-0.423058	-1.086475	-0.301088
H353	H	-0.089725	-0.753142	0.032245
H354	H	0.243609	-0.419808	0.365578
H355	H	-0.295384	-0.597826	-0.444600
H356	H	0.037950	-0.264492	-0.111267
H357	H	0.371283	0.068841	0.222067
H358	H	-0.638969	-1.133361	-0.258042
H359	H	-0.305636	-0.800028	0.075292
H360	H	0.027697	-0.466694	0.408625
H361	H	-0.724077	-1.133406	-0.258059
H362	H	-0.390744	-0.800073	0.075274
H363	H	-0.057411	-0.466740	0.408607
H364	H	-0.195258	-1.094208	-1.115144
H365	H	0.138076	-0.760874	-0.781810
H366	H	0.471409	-0.427541	-0.448477
H367	H	-0.723594	-0.870154	-0.500613
H368	H	-0.390261	-0.536821	-0.167280
H369	H	-0.056928	-0.203487	0.166054
O370	O	-0.302642	-0.918734	-1.117737
O371	O	0.030691	-0.585401	-0.784403
O372	O	0.364024	-0.252068	-0.451070
H373	H	-0.320853	-0.888967	-1.078626
H374	H	0.012481	-0.555634	-0.745292
H375	H	0.345814	-0.222300	-0.411959
O376	O	-0.298898	-0.924806	-0.965218
O377	O	0.034436	-0.591473	-0.631884
O378	O	0.367769	-0.258140	-0.298551
H379	H	-0.334827	-0.936225	-0.979760
H380	H	-0.001494	-0.602892	-0.646427
H381	H	0.331840	-0.269558	-0.313093
O382	O	-0.989281	-1.099119	-0.289802
O383	O	-0.655948	-0.765786	0.043531
O384	O	-0.322615	-0.432453	0.376865
H385	H	-1.013540	-1.131652	-0.259849
H386	H	-0.680206	-0.798319	0.073484
H387	H	-0.346873	-0.464986	0.406818
H388	H	-1.080587	-1.086794	-0.301207
H389	H	-0.747253	-0.753461	0.032127
H390	H	-0.413920	-0.420128	0.365460
O391	O	-1.086451	-0.904722	-0.468951
O392	O	-0.753118	-0.571388	-0.135618
O393	O	-0.419784	-0.238055	0.197716
H394	H	-1.062193	-0.872197	-0.498913
H395	H	-0.728860	-0.538863	-0.165580
H396	H	-0.395527	-0.205530	0.167754
H397	H	-0.507872	-0.916811	-0.457475
H398	H	-0.174539	-0.583477	-0.124142
H399	H	0.158794	-0.250144	0.209191
O400	O	-0.416528	-0.904404	-0.468846
O401	O	-0.083195	-0.571070	-0.135512
O402	O	0.250139	-0.237737	0.197821
H403	H	-0.379977	-0.912253	-0.461601
H404	H	-0.046643	-0.578920	-0.128267
H405	H	0.286690	-0.245587	0.205066
H406	H	-0.779719	-1.133433	-0.258069
H407	H	-0.446385	-0.800100	0.075264
H408	H	-0.113052	-0.466766	0.408597
H409	H	-0.864839	-1.133470	-0.258091
H410	H	-0.531506	-0.800137	0.075242
H411	H	-0.198172	-0.466803	0.408576
H412	H	-0.864352	-0.870224	-0.500626
H413	H	-0.531019	-0.536890	-0.167293
H414	H	-0.197685	-0.203557	0.166040
O415	O	-0.773018	-0.857806	-0.511981
O416	O	-0.439685	-0.524473	-0.178648
O417	O	-0.106351	-0.191140	0.154685
H418	H	-0.797159	-0.825291	-0.541935
H419	H	-0.463825	-0.491958	-0.208602
H420	H	-0.130492	-0.158624	0.124731
