data_functionalizedCrystal
_audit_creation_method	'MofGen! by Chris Wilmer'
_symmetry_space_group_name_H-M	'P1'
_symmetry_Int_Tables_number	1
_symmetry_cell_setting	triclinic
loop_
_symmetry_equiv_pos_as_xyz
  x,y,z
_cell_length_a	15.944551
_cell_length_b	15.944545
_cell_length_c	14.421503
_cell_angle_alpha	90.002190
_cell_angle_beta	90.003141
_cell_angle_gamma	96.502544
loop_
_atom_site_label
_atom_site_type_symbol
_atom_site_fract_x
_atom_site_fract_y
_atom_site_fract_z
O1	O	-1.114527	0.108321	-0.077019
O2	O	-0.614527	0.608321	0.422981
O3	O	-0.869977	0.121677	-0.077043
O4	O	-0.369977	0.621677	0.422957
O5	O	-0.998933	-0.007276	-0.077019
O6	O	-0.498933	0.492724	0.422981
O7	O	-0.985571	0.237274	-0.077043
O8	O	-0.485571	0.737274	0.422957
O9	O	-0.998911	-0.007257	0.077204
O10	O	-0.498911	0.492743	0.577204
O11	O	-0.869956	0.121696	0.077180
O12	O	-0.369956	0.621696	0.577180
O13	O	-1.114505	0.108340	0.077204
O14	O	-0.614505	0.608340	0.577204
Cu15	Cu	-0.992229	0.115020	0.091274
Cu16	Cu	-0.492229	0.615020	0.591274
Cu17	Cu	-0.992254	0.114997	-0.091113
Cu18	Cu	-0.492254	0.614997	0.408887
O19	O	-0.985550	0.237293	0.077181
O20	O	-0.485550	0.737293	0.577181
C21	C	-0.998368	-0.038561	0.000093
C22	C	-0.498368	0.461439	0.500093
C23	C	-0.996708	-0.131807	0.000095
C24	C	-0.496708	0.368193	0.500095
C25	C	-0.838672	0.121132	0.000066
C26	C	-0.338672	0.621132	0.500066
C27	C	-0.745426	0.119470	0.000057
C28	C	-0.245426	0.619470	0.500057
C29	C	-1.145810	0.108885	0.000093
C30	C	-0.645810	0.608885	0.500093
C31	C	-1.239056	0.110547	0.000096
C32	C	-0.739056	0.610547	0.500096
C33	C	-0.911814	-0.402440	0.000069
C34	C	-0.411814	0.097560	0.500069
C35	C	-0.952754	-0.351864	-0.075968
C36	C	-0.452754	0.148136	0.424032
C37	C	-0.990787	-0.467451	0.000069
C38	C	-0.490787	0.032549	0.500069
C39	C	-0.952754	-0.351872	0.076084
C40	C	-0.452754	0.148128	0.576084
C41	C	-0.993692	-0.302537	0.000083
C42	C	-0.493692	0.197463	0.500083
C43	C	-1.031706	-0.418103	-0.076031
C44	C	-0.531706	0.081897	0.423969
C45	C	-1.031694	-0.418115	0.076090
C46	C	-0.531694	0.081885	0.576090
C47	C	-1.072692	-0.367571	0.000034
C48	C	-0.572692	0.132429	0.500034
C49	C	-0.989112	-0.562453	0.000059
C50	C	-0.489112	-0.062453	0.500059
C51	C	-0.995374	-0.207538	0.000086
C52	C	-0.495374	0.292462	0.500086
C53	C	-0.530571	0.035565	0.000083
C54	C	-0.030571	0.535565	0.500083
C55	C	-0.469561	0.074518	-0.075961
C56	C	0.030439	0.574518	0.424039
C57	C	-0.574700	0.116463	0.000068
C58	C	-0.074700	0.616463	0.500068
C59	C	-0.469562	0.074556	0.076091
C60	C	0.030438	0.574556	0.576091
C61	C	-0.409788	0.113552	0.000083
C62	C	0.090212	0.613552	0.500083
C63	C	-0.514918	0.155438	-0.076038
C64	C	-0.014918	0.655438	0.423962
C65	C	-0.514926	0.155465	0.076082
C66	C	-0.014926	0.655465	0.576082
C67	C	-0.453933	0.194476	0.000020
C68	C	0.046067	0.694476	0.500020
C69	C	-0.669703	0.118137	0.000059
C70	C	-0.169703	0.618137	0.500059
C71	C	-0.314787	0.111884	0.000086
C72	C	0.185213	0.611884	0.500086
C73	C	-0.986114	0.268578	0.000066
C74	C	-0.486114	0.768578	0.500066
C75	C	-0.987774	0.361824	0.000057
C76	C	-0.487774	0.861824	0.500057
N77	N	-0.992217	0.115035	0.219555
N78	N	-0.492217	0.615035	0.719555
N79	N	-0.992272	0.114975	-0.219394
N80	N	-0.492272	0.614975	0.280606
C81	C	-0.932577	0.174637	0.469198
C82	C	-0.432577	0.674637	0.969198
C83	C	-1.008477	0.190944	0.531006
C84	C	-0.508477	0.690944	1.031006
C85	C	-0.992237	0.115015	0.408717
C86	C	-0.492237	0.615015	0.908717
C87	C	-0.916357	0.098728	0.531002
C88	C	-0.416357	0.598728	1.031002
C89	C	-0.992250	0.114998	0.591438
C90	C	-0.492250	0.614998	1.091438
C91	C	-1.068175	0.131360	0.469164
C92	C	-0.568175	0.631360	0.969164
C93	C	-0.976006	0.039111	0.469155
C94	C	-0.476006	0.539111	0.969155
C95	C	-1.051960	0.055386	0.530935
C96	C	-0.551960	0.555386	1.030935
C97	C	-0.992229	0.115027	0.303456
C98	C	-0.492229	0.615027	0.803456
C99	C	-0.992268	0.114985	0.696697
C100	C	-0.492268	0.614985	1.196697
H101	H	-0.843802	-0.418092	-0.000012
H102	H	-0.343802	0.081908	0.499988
H103	H	-0.534914	0.189620	-0.140398
H104	H	-0.034914	0.689620	0.359602
H105	H	-0.919379	-0.322950	0.140365
H106	H	-0.419379	0.177050	0.640365
C107	C	-0.575597	-0.055133	-0.000023
C108	C	-0.075597	0.444867	0.499977
H109	H	-0.560187	-0.083745	-0.054122
H110	H	-0.060187	0.416255	0.445878
H111	H	-0.559436	-0.084169	0.053446
H112	H	-0.059436	0.415831	0.553446
H113	H	-0.634960	-0.053431	0.000516
H114	H	-0.134960	0.446569	0.500516
H115	H	-0.882176	0.225097	0.442091
H116	H	-0.382176	0.725097	0.942091
C117	C	-0.409127	0.285262	-0.000039
C118	C	0.090873	0.785262	0.499961
H119	H	-0.375184	0.294004	0.054001
H120	H	0.124816	0.794004	0.554001
H121	H	-0.374477	0.293651	-0.053568
H122	H	0.125523	0.793651	0.446432
H123	H	-0.450085	0.324140	-0.000573
H124	H	0.049915	0.824140	0.499427
C125	C	-0.542119	0.201657	0.162924
C126	C	-0.042119	0.701657	0.662924
H127	H	-0.526772	0.172839	0.216907
H128	H	-0.026772	0.672839	0.716907
H129	H	-0.514822	0.257792	0.163466
H130	H	-0.014822	0.757792	0.663466
H131	H	-0.601552	0.202818	0.161988
H132	H	-0.101552	0.702818	0.661988
C133	C	-1.076695	-0.457223	0.162940
C134	C	-0.576695	0.042777	0.662940
H135	H	-1.048535	-0.434434	0.216917
H136	H	-0.548535	0.065566	0.716917
H137	H	-1.133532	-0.444683	0.163493
H138	H	-0.633532	0.055317	0.663493
H139	H	-1.075759	-0.516685	0.162002
H140	H	-0.575759	-0.016685	0.662002
H141	H	-0.919410	-0.322937	-0.140258
H142	H	-0.419410	0.177063	0.359742
H143	H	-0.962241	-0.025051	0.441965
H144	H	-0.462241	0.474949	0.941965
C145	C	-0.442418	0.028330	0.162940
C146	C	0.057582	0.528330	0.662940
H147	H	-0.468936	-0.028115	0.162844
H148	H	0.031064	0.471885	0.662844
H149	H	-0.382874	0.028053	0.162620
H150	H	0.117126	0.528053	0.662620
H151	H	-0.458719	0.056526	0.216936
H152	H	0.041281	0.556526	0.716936
C153	C	-0.442404	0.028294	-0.162805
C154	C	0.057596	0.528294	0.337195
H155	H	-0.404736	0.065733	-0.198611
H156	H	0.095264	0.565733	0.301389
H157	H	-0.414945	-0.018914	-0.144531
H158	H	0.085055	0.481086	0.355469
H159	H	-0.490788	0.009556	-0.198860
H160	H	0.009212	0.509556	0.301140
C161	C	-0.829663	0.080116	0.567688
C162	C	-0.329663	0.580116	1.067688
H163	H	-0.787339	0.122534	0.546535
H164	H	-0.287339	0.622534	1.046535
H165	H	-0.830435	0.079728	0.633550
H166	H	-0.330435	0.579728	1.133550
H167	H	-0.817723	0.026607	0.545587
H168	H	-0.317723	0.526607	1.045587
C169	C	-1.027035	0.277643	0.567722
C170	C	-0.527035	0.777643	1.067722
H171	H	-0.984590	0.319951	0.546592
H172	H	-0.484590	0.819951	1.046592
H173	H	-1.080534	0.289623	0.545644
H174	H	-0.580534	0.789623	1.045644
H175	H	-1.027410	0.276847	0.633590
H176	H	-0.527410	0.776847	1.133590
H177	H	-1.065042	-0.446917	-0.140385
H178	H	-0.565042	0.053083	0.359615
H179	H	-1.132365	0.145206	0.442115
H180	H	-0.632365	0.645206	0.942115
C181	C	-1.120194	-0.012737	0.567336
C182	C	-0.620194	0.487263	1.067336
H183	H	-1.174044	-0.001032	0.546047
H184	H	-0.674044	0.498968	1.046047
H185	H	-1.109117	-0.066513	0.545222
H186	H	-0.609117	0.433487	1.045222
H187	H	-1.119527	-0.012679	0.633206
H188	H	-0.619527	0.487321	1.133206
H189	H	-1.140757	-0.352081	-0.000002
H190	H	-0.640757	0.147919	0.499998
