data_functionalizedCrystal
_audit_creation_method	'MofGen! by Chris Wilmer'
_symmetry_space_group_name_H-M	'P1'
_symmetry_Int_Tables_number	1
_symmetry_cell_setting	triclinic
loop_
_symmetry_equiv_pos_as_xyz
  x,y,z
_cell_length_a	12.759401
_cell_length_b	25.639240
_cell_length_c	12.759386
_cell_angle_alpha	89.924894
_cell_angle_beta	89.957659
_cell_angle_gamma	90.031921
loop_
_atom_site_label
_atom_site_type_symbol
_atom_site_fract_x
_atom_site_fract_y
_atom_site_fract_z
Zn1	Zn	1.606358	-0.207972	-0.593924
Zn2	Zn	1.606128	-0.295466	-0.418205
Zn3	Zn	1.430591	-0.208045	-0.418259
Zn4	Zn	1.430593	-0.295377	-0.593843
O5	O	1.518418	-0.251715	-0.506058
O6	O	1.753349	-0.219585	-0.570625
O7	O	1.582745	-0.283937	-0.271191
O8	O	1.454002	-0.134870	-0.441618
O9	O	1.753179	-0.283867	-0.441525
O10	O	1.583138	-0.134817	-0.570678
O11	O	1.453779	-0.219710	-0.271231
O12	O	1.283570	-0.219623	-0.441540
O13	O	1.454007	-0.283715	-0.740875
O14	O	1.283572	-0.283786	-0.570540
O15	O	1.583140	-0.219499	-0.740934
O16	O	1.582747	-0.368620	-0.441447
O17	O	1.453783	-0.368554	-0.570487
C18	C	1.245450	-0.251703	-0.506038
C19	C	1.128674	-0.251711	-0.506054
C20	C	1.073780	-0.218258	-0.439006
C21	C	0.964056	-0.218270	-0.439020
C22	C	0.964129	-0.285190	-0.573138
C23	C	1.073851	-0.285180	-0.573118
C24	C	0.814006	-0.199563	-0.315215
C25	C	0.759108	-0.166102	-0.248176
C26	C	0.794743	-0.115077	-0.232240
C27	C	0.885273	-0.097503	-0.283357
C28	C	0.940165	-0.130961	-0.350403
C29	C	0.904532	-0.181994	-0.366320
C30	C	1.223903	-0.303881	-0.696925
C31	C	1.278797	-0.337338	-0.763977
C32	C	1.243164	-0.388363	-0.779924
C33	C	1.152631	-0.405935	-0.728825
C34	C	1.097737	-0.372479	-0.661773
C35	C	1.133377	-0.321454	-0.645824
C36	C	1.518269	-0.387558	-0.505975
C37	C	1.518302	-0.445672	-0.505975
C38	C	1.585692	-0.805968	-0.573380
C39	C	1.585723	-0.860573	-0.573402
O40	O	1.642844	-0.888753	-0.630627
N41	N	1.518563	-0.887954	-0.506159
C42	C	1.451361	-0.860729	-0.438898
O43	O	1.394239	-0.889033	-0.381706
C44	C	1.451325	-0.806125	-0.438883
C45	C	1.518497	-0.778747	-0.506123
C46	C	1.652857	-0.778590	-0.640615
C47	C	1.652827	-0.723989	-0.640592
C48	C	1.585632	-0.696767	-0.573334
C49	C	1.518467	-0.724146	-0.506100
C50	C	1.384119	-0.778901	-0.371628
C51	C	1.384088	-0.724294	-0.371620
C52	C	1.451260	-0.696915	-0.438859
C53	C	1.451242	-0.642324	-0.438819
N54	N	1.518402	-0.614942	-0.506061
C55	C	1.585597	-0.642164	-0.573319
C56	C	1.451439	-0.975399	-0.438937
C57	C	1.451479	-1.030002	-0.438946
C58	C	1.585840	-1.029842	-0.573451
C59	C	1.585805	-0.975239	-0.573436
C60	C	1.518599	-0.948018	-0.506179
C61	C	1.585529	-0.527499	-0.573265
C62	C	1.585497	-0.472894	-0.573233
C63	C	1.451132	-0.473058	-0.438732
C64	C	1.451169	-0.527659	-0.438760
C65	C	1.518371	-0.554878	-0.506035
O66	O	1.394147	-0.614109	-0.381625
O67	O	1.642700	-0.613853	-0.630512
C68	C	1.792451	-0.251728	-0.506078
C69	C	1.909227	-0.251733	-0.506087
C70	C	1.518599	-0.251589	-0.780092
C71	C	1.518677	-0.251535	-0.896868
C72	C	1.518595	-0.115342	-0.506163
C73	C	1.518671	-0.057228	-0.506208
C74	C	1.518297	-0.251803	-0.233090
C75	C	1.518423	-0.251710	-0.116314
C76	C	1.450852	-0.218472	-0.061522
C77	C	1.450982	-0.218383	0.048202
C78	C	1.586255	-0.284775	0.048332
C79	C	1.586130	-0.284861	-0.061389
C80	C	1.412793	-0.156740	0.197867
C81	C	1.345206	-0.123506	0.252662
C82	C	1.242547	-0.115874	0.217200
C83	C	1.207453	-0.141482	0.126943
C84	C	1.275035	-0.174720	0.072154
C85	C	1.377709	-0.182342	0.107615
C86	C	1.624308	-0.346505	-0.211057
C87	C	1.691885	-0.379745	-0.265848
C88	C	1.794546	-0.387383	-0.230388
C89	C	1.829636	-0.361783	-0.140128
C90	C	1.762059	-0.328543	-0.085336
C91	C	1.659399	-0.320904	-0.120804
H92	H	1.352498	-0.323022	-0.805606
H93	H	1.123853	-0.135270	0.098084
C94	C	1.726704	-0.693877	-0.714564
H95	H	1.717076	-0.657457	-0.704926
H96	H	1.711317	-0.702785	-0.785140
H97	H	1.797306	-0.702809	-0.699250
C98	C	1.376381	-0.182008	-0.121940
H99	H	1.385974	-0.186822	-0.195135
H100	H	1.391303	-0.146809	-0.104193
H101	H	1.305913	-0.189904	-0.103776
C102	C	1.525725	-0.165130	0.236867
H103	H	1.560956	-0.188586	0.191304
H104	H	1.524195	-0.179294	0.305684
H105	H	1.561703	-0.132684	0.237659
C106	C	1.942564	-0.370181	-0.101119
H107	H	1.977787	-0.393640	-0.146683
H108	H	1.941028	-0.384346	-0.032303
H109	H	1.978553	-0.337738	-0.100325
C110	C	1.659674	-0.945127	-0.647417
H111	H	1.699687	-0.969164	-0.687479
H112	H	1.705449	-0.923830	-0.607279
H113	H	1.619448	-0.923816	-0.693157
H114	H	1.246463	-0.195570	-0.001331
H115	H	1.641378	-0.311766	0.093065
C116	C	1.383810	-0.095334	0.351931
H117	H	1.454640	-0.104631	0.365196
H118	H	1.341558	-0.105297	0.409934
H119	H	1.379061	-0.058691	0.341895
H120	H	1.396715	-0.953239	-0.384160
H121	H	0.914275	-0.055952	-0.270383
C122	C	0.734361	-0.078272	-0.158496
H123	H	0.675348	-0.096046	-0.130333
H124	H	0.711450	-0.048544	-0.196607
H125	H	0.779035	-0.067529	-0.103033
C126	C	1.263096	-0.247750	-0.679392
H127	H	1.324865	-0.242074	-0.719443
H128	H	1.278097	-0.242762	-0.607185
H129	H	1.210504	-0.223784	-0.700759
H130	H	1.187517	-0.088813	0.261822
C131	C	0.659538	-0.185433	-0.191943
H132	H	0.646185	-0.220619	-0.211019
H133	H	0.601707	-0.164319	-0.211844
H134	H	0.669303	-0.183294	-0.118269
H135	H	1.123613	-0.447483	-0.741817
H136	H	1.329421	-0.801183	-0.316874
C137	C	1.800659	-0.300379	0.013943
H138	H	1.871483	-0.309685	0.027214
H139	H	1.758396	-0.310339	0.071940
H140	H	1.795928	-0.263735	0.003910
C141	C	0.774780	-0.255683	-0.332785
H142	H	0.820432	-0.273094	-0.380038
H143	H	0.706080	-0.254778	-0.361366
H144	H	0.773632	-0.273801	-0.267799
H145	H	1.024016	-0.386790	-0.620169
C146	C	1.868878	-0.423948	-0.290658
H147	H	1.833282	-0.438102	-0.349493
H148	H	1.890844	-0.451450	-0.245826
H149	H	1.928365	-0.404844	-0.313853
C150	C	1.653287	-0.407904	-0.365133
H151	H	1.582471	-0.398590	-0.378417
H152	H	1.658017	-0.444547	-0.355117
H153	H	1.695558	-0.397938	-0.423127
H154	H	1.540715	-0.340284	-0.239944
H155	H	0.919479	-0.312439	-0.627740
C156	C	1.310162	-0.694354	-0.297633
H157	H	1.270173	-0.718483	-0.257590
H158	H	1.264368	-0.673042	-0.337772
H159	H	1.350349	-0.673072	-0.251875
H160	H	1.118413	-0.191004	-0.384400
C161	C	1.726784	-0.808526	-0.714599
H162	H	1.766779	-0.784392	-0.754627
H163	H	1.686619	-0.829813	-0.760356
H164	H	1.772589	-0.829831	-0.674448
H165	H	1.013867	-0.116651	-0.392031
C166	C	1.303551	-0.425165	-0.853677
H167	H	1.362575	-0.407395	-0.881827
H168	H	1.258884	-0.435912	-0.909135
H169	H	1.326465	-0.454892	-0.815553
C170	C	1.659749	-1.059793	-0.647440
H171	H	1.650136	-1.096233	-0.637821
H172	H	1.730339	-1.050829	-0.632131
H173	H	1.644347	-1.050801	-0.718019
H174	H	1.640199	-0.450604	-0.627987
C175	C	1.659459	-0.557433	-0.647256
H176	H	1.699458	-0.533300	-0.687282
H177	H	1.619289	-0.578718	-0.693014
H178	H	1.705260	-0.578741	-0.607106
H179	H	1.396793	-1.052289	-0.384182
C180	C	1.377285	-0.557776	-0.364797
H181	H	1.337259	-0.533741	-0.324742
H182	H	1.417483	-0.579100	-0.319065
H183	H	1.331507	-0.579061	-0.404968
H184	H	1.396426	-0.450886	-0.383969
