data_functionalizedCrystal
_audit_creation_method	'MofGen! by Chris Wilmer'
_symmetry_space_group_name_H-M	'P1'
_symmetry_Int_Tables_number	1
_symmetry_cell_setting	triclinic
loop_
_symmetry_equiv_pos_as_xyz
  x,y,z
_cell_length_a	18.050590
_cell_length_b	18.050590
_cell_length_c	16.625539
_cell_angle_alpha	90.029956
_cell_angle_beta	90.004910
_cell_angle_gamma	90.007719
loop_
_atom_site_label
_atom_site_type_symbol
_atom_site_fract_x
_atom_site_fract_y
_atom_site_fract_z
Zn1	Zn	1.135384	-0.295873	0.455563
Zn2	Zn	1.635384	0.204127	0.955563
Zn3	Zn	1.135303	-0.420071	0.320726
Zn4	Zn	1.635303	0.079929	0.820726
Zn5	Zn	1.011191	-0.295875	0.320780
Zn6	Zn	1.511191	0.204125	0.820780
Zn7	Zn	1.011172	-0.420002	0.455553
Zn8	Zn	1.511172	0.079998	0.955553
O9	O	1.073263	-0.357955	0.388156
O10	O	1.573263	0.142045	0.888156
O11	O	1.239298	-0.312376	0.437658
O12	O	1.739298	0.187624	0.937658
O13	O	1.118814	-0.403625	0.207901
O14	O	1.618814	0.096375	0.707901
O15	O	1.027707	-0.191950	0.338686
O16	O	1.527707	0.308050	0.838686
O17	O	1.239239	-0.403623	0.338594
O18	O	1.739239	0.096377	0.838594
O19	O	1.118951	-0.191949	0.437711
O20	O	1.618951	0.308051	0.937711
O21	O	1.027629	-0.312380	0.207941
O22	O	1.527629	0.187620	0.707941
O23	O	0.907264	-0.312313	0.338677
O24	O	1.407264	0.187687	0.838677
O25	O	1.027675	-0.403506	0.568387
O26	O	1.527675	0.096494	1.068387
O27	O	0.907250	-0.403509	0.437694
O28	O	1.407250	0.096491	0.937694
O29	O	1.118933	-0.312309	0.568394
O30	O	1.618933	0.187691	1.068394
O31	O	1.118795	-0.523986	0.338585
O32	O	1.618795	-0.023986	0.838585
O33	O	1.027597	-0.523936	0.437641
O34	O	1.527597	-0.023936	0.937641
C35	C	0.880310	-0.357905	0.388191
C36	C	1.380310	0.142095	0.888191
C37	C	0.797765	-0.357901	0.388225
C38	C	1.297765	0.142099	0.888225
C39	C	0.598328	-0.407635	0.441942
C40	C	1.098328	0.092365	0.941942
C41	C	0.548925	-0.339918	0.461785
C42	C	1.048925	0.160082	0.961785
C43	C	0.646634	-0.357942	0.388185
C44	C	1.146634	0.142058	0.888185
C45	C	0.548955	-0.425698	0.368342
C46	C	1.048955	0.074302	0.868342
C47	C	0.500649	-0.357988	0.388149
C48	C	1.000649	0.142012	0.888149
C49	C	0.598319	-0.290189	0.408066
C50	C	1.098319	0.209811	0.908066
C51	C	0.598353	-0.376015	0.314589
C52	C	1.098353	0.123985	0.814589
C53	C	0.548973	-0.308251	0.334404
C54	C	1.048973	0.191749	0.834404
C55	C	0.730733	-0.357917	0.388208
C56	C	1.230733	0.142083	0.888208
C57	C	0.416553	-0.358006	0.388125
C58	C	0.916553	0.141994	0.888125
C59	C	1.073205	-0.550907	0.388124
C60	C	1.573205	-0.050907	0.888124
C61	C	1.073249	-0.633453	0.388137
C62	C	1.573249	-0.133453	0.888137
C63	C	1.122946	-0.832904	0.334345
C64	C	1.622946	-0.332904	0.834345
C65	C	1.141088	-0.882238	0.407930
C66	C	1.641088	-0.382238	0.907930
C67	C	1.073291	-0.784583	0.388169
C68	C	1.573291	-0.284583	0.888169
C69	C	1.055225	-0.882331	0.314618
C70	C	1.555225	-0.382331	0.814618
C71	C	1.073333	-0.930569	0.388194
C72	C	1.573333	-0.430569	0.888194
C73	C	1.091468	-0.832830	0.461792
C74	C	1.591468	-0.332830	0.961792
C75	C	1.005573	-0.832919	0.368431
C76	C	1.505573	-0.332919	0.868431
C77	C	1.023689	-0.882231	0.442066
C78	C	1.523689	-0.382231	0.942066
C79	C	1.073269	-0.700485	0.388154
C80	C	1.573269	-0.200485	0.888154
C81	C	1.073356	-1.014665	0.388217
C82	C	1.573356	-0.514665	0.888217
C83	C	1.266968	-0.358007	0.388121
C84	C	1.766968	0.141993	0.888121
C85	C	1.349514	-0.358029	0.388107
C86	C	1.849514	0.141971	0.888107
C87	C	1.073311	-0.357900	0.598465
C88	C	1.573311	0.142100	1.098465
C89	C	1.073331	-0.357876	0.688086
C90	C	1.573331	0.142124	1.188086
C91	C	1.073340	-0.164250	0.388206
C92	C	1.573340	0.335750	0.888206
C93	C	1.073373	-0.081704	0.388227
C94	C	1.573373	0.418296	0.888227
C95	C	1.073257	-0.357957	0.178665
C96	C	1.573257	0.142043	0.678665
C97	C	1.073380	-0.357771	0.089044
C98	C	1.573380	0.142229	0.589044
C99	C	1.073366	-0.357793	1.016262
C100	C	1.573366	0.142207	1.516262
C101	C	1.073354	-0.357819	0.924953
C102	C	1.573354	0.142181	1.424953
C103	C	1.073349	-0.357835	0.852177
C104	C	1.573349	0.142165	1.352177
C105	C	1.073337	-0.357860	0.760862
C106	C	1.573337	0.142140	1.260862
H107	H	0.620081	-0.391307	0.252384
H108	H	1.120081	0.108693	0.752384
O109	O	0.520250	-0.501573	0.346105
O110	O	1.020250	-0.001573	0.846105
H111	H	0.540033	-0.542698	0.390827
H112	H	1.040033	-0.042698	0.890827
H113	H	0.948304	-0.811237	0.351698
H114	H	1.448304	-0.311237	0.851698
H115	H	0.527438	-0.266199	0.288928
H116	H	1.027438	0.233801	0.788928
H117	H	0.619912	-0.232891	0.424905
H118	H	1.119912	0.267109	0.924905
O119	O	1.178580	-0.804202	0.274114
O120	O	1.678580	-0.304202	0.774114
H121	H	1.234767	-0.823953	0.290707
H122	H	1.734767	-0.323953	0.790707
O123	O	0.627036	-0.463211	0.502216
O124	O	1.127036	0.036789	1.002216
H125	H	0.688520	-0.463075	0.501296
H126	H	1.188520	0.036925	1.001296
H127	H	1.198374	-0.903904	0.424640
H128	H	1.698374	-0.403904	0.924640
O129	O	1.111830	-0.804162	0.544223
O130	O	1.611830	-0.304162	1.044223
H131	H	1.111682	-0.742675	0.543557
H132	H	1.611682	-0.242675	1.043557
O133	O	0.520100	-0.319794	0.544208
O134	O	1.020100	0.180206	1.044208
H135	H	0.567479	-0.310247	0.585494
H136	H	1.067479	0.189753	1.085494
H137	H	0.981716	-0.903753	0.487646
H138	H	1.481716	-0.403753	0.987646
H139	H	1.039926	-0.904074	0.252406
H140	H	1.539926	-0.404074	0.752406
