data_functionalizedCrystal
_audit_creation_method	'MofGen! by Chris Wilmer'
_symmetry_space_group_name_H-M	'P1'
_symmetry_Int_Tables_number	1
_symmetry_cell_setting	triclinic
loop_
_symmetry_equiv_pos_as_xyz
  x,y,z
_cell_length_a	19.121102
_cell_length_b	19.120786
_cell_length_c	18.050582
_cell_angle_alpha	87.534997
_cell_angle_beta	87.546607
_cell_angle_gamma	89.915559
loop_
_atom_site_label
_atom_site_type_symbol
_atom_site_fract_x
_atom_site_fract_y
_atom_site_fract_z
Zn1	Zn	1.059826	-0.324966	-0.452986
Zn2	Zn	1.559826	0.175034	0.047014
Zn3	Zn	1.054747	-0.442199	-0.323274
Zn4	Zn	1.554747	0.057801	0.176726
Zn5	Zn	0.942598	-0.319967	-0.323755
Zn6	Zn	1.442598	0.180033	0.176245
Zn7	Zn	0.937556	-0.437162	-0.442370
Zn8	Zn	1.437556	0.062838	0.057630
O9	O	0.998682	-0.381073	-0.385596
O10	O	1.498682	0.118927	0.114404
O11	O	1.157257	-0.344717	-0.440022
O12	O	1.657257	0.155283	0.059978
O13	O	1.039855	-0.426001	-0.219412
O14	O	1.539855	0.073999	0.280588
O15	O	0.962385	-0.222521	-0.345542
O16	O	1.462385	0.277479	0.154458
O17	O	1.153525	-0.430848	-0.344722
O18	O	1.653525	0.069152	0.155278
O19	O	1.048512	-0.226194	-0.440488
O20	O	1.548512	0.273806	0.059512
O21	O	0.957460	-0.336197	-0.219765
O22	O	1.457460	0.163803	0.280235
O23	O	0.843825	-0.331313	-0.335248
O24	O	1.343825	0.168687	0.164752
O25	O	0.953791	-0.422263	-0.547705
O26	O	1.453791	0.077737	-0.047705
O27	O	0.840120	-0.417416	-0.422394
O28	O	1.340120	0.082584	0.077606
O29	O	1.043622	-0.339833	-0.555504
O30	O	1.543622	0.160167	-0.055504
O31	O	1.034965	-0.539640	-0.334428
O32	O	1.534965	-0.039640	0.165572
O33	O	0.948866	-0.535939	-0.421928
O34	O	1.448866	-0.035939	0.078072
C35	C	0.816535	-0.373276	-0.377722
C36	C	1.316535	0.126724	0.122278
C37	C	0.738611	-0.369957	-0.374369
C38	C	1.238611	0.130043	0.125631
C39	C	0.700089	-0.413294	-0.418089
C40	C	1.200089	0.086706	0.081911
C41	C	0.626871	-0.410166	-0.414944
C42	C	1.126871	0.089834	0.085056
C43	C	0.592177	-0.363704	-0.368074
C44	C	1.092177	0.136296	0.131926
C45	C	0.630705	-0.320362	-0.324352
C46	C	1.130705	0.179638	0.175648
C47	C	0.703921	-0.323487	-0.327502
C48	C	1.203921	0.176513	0.172498
C49	C	0.371207	-0.352020	-0.356300
C50	C	0.871207	0.147980	0.143700
C51	C	0.297985	-0.348901	-0.353152
C52	C	0.797985	0.151099	0.146848
C53	C	0.294157	-0.438704	-0.443744
C54	C	0.794157	0.061296	0.056256
C55	C	0.367375	-0.441828	-0.446887
C56	C	0.867375	0.058172	0.053113
C57	C	0.405896	-0.398483	-0.403169
C58	C	0.905896	0.101517	0.096831
C59	C	0.517337	-0.360508	-0.364856
C60	C	1.017337	0.139492	0.135144
C61	C	0.480735	-0.401677	-0.406391
C62	C	0.980735	0.098323	0.093609
C63	C	0.990836	-0.563229	-0.376991
C64	C	1.490836	-0.063229	0.123009
C65	C	0.987544	-0.641158	-0.373337
C66	C	1.487544	-0.141158	0.126663
C67	C	1.030805	-0.679620	-0.421091
C68	C	1.530805	-0.179620	0.078909
C69	C	1.027709	-0.752843	-0.417659
C70	C	1.527709	-0.252843	0.082341
C71	C	0.981354	-0.787603	-0.366469
C72	C	1.481354	-0.287603	0.133531
C73	C	0.938088	-0.749136	-0.318713
C74	C	1.438088	-0.249136	0.181287
C75	C	0.941181	-0.675914	-0.322149
C76	C	1.441181	-0.175914	0.177851
C77	C	0.969769	-1.008592	-0.353622
C78	C	1.469769	-0.508592	0.146378
C79	C	0.966681	-1.081819	-0.350188
C80	C	1.466681	-0.581819	0.149812
C81	C	1.056301	-1.085521	-0.449135
C82	C	1.556301	-0.585521	0.050865
C83	C	1.059393	-1.012298	-0.452564
C84	C	1.559393	-0.512298	0.047436
C85	C	1.016124	-0.973837	-0.404810
C86	C	1.516124	-0.473837	0.095190
C87	C	0.978189	-0.862448	-0.362958
C88	C	1.478189	-0.362448	0.137042
C89	C	1.019286	-0.898993	-0.408325
C90	C	1.519286	-0.398993	0.091675
C91	C	1.181540	-0.388902	-0.393502
C92	C	1.681540	0.111098	0.106498
C93	C	1.259463	-0.392238	-0.396872
C94	C	1.759463	0.107762	0.103128
C95	C	0.998711	-0.381043	-0.579305
C96	C	1.498711	0.118957	-0.079305
C97	C	0.998723	-0.381031	-0.661852
C98	C	1.498723	0.118969	-0.161852
C99	C	1.006577	-0.198208	-0.394253
C100	C	1.506577	0.301792	0.105747
C101	C	1.009942	-0.120281	-0.397942
C102	C	1.509942	0.379719	0.102058
C103	C	0.949911	-0.425794	-0.857066
C104	C	1.449911	0.074206	-0.357066
C105	C	1.013142	-0.445665	-0.908408
C106	C	1.513142	0.054335	-0.408408
C107	C	0.998760	-0.380979	-0.812986
C108	C	1.498760	0.119021	-0.312986
C109	C	0.935565	-0.361089	-0.908728
C110	C	1.435565	0.138911	-0.408728
C111	C	0.998790	-0.380929	-0.958975
C112	C	1.498790	0.119071	-0.458975
C113	C	1.062023	-0.400885	-0.863242
C114	C	1.562023	0.099115	-0.363242
C115	C	0.984403	-0.316278	-0.863556
C116	C	1.484403	0.183722	-0.363556
C117	C	1.047680	-0.336127	-0.914880
C118	C	1.547680	0.163873	-0.414880
C119	C	0.998741	-0.381009	-0.728886
C120	C	1.498741	0.118991	-0.228886
C121	C	0.998815	-0.380900	-1.043074
C122	C	1.498815	0.119100	-0.543074
C123	C	0.998696	-0.381054	-0.192646
C124	C	1.498696	0.118946	0.307354
C125	C	0.998828	-0.380875	-0.110114
C126	C	1.498828	0.119125	0.389886
H127	H	0.262785	-0.473992	-0.479339
H128	H	0.762785	0.026008	0.020661
O129	O	1.102468	-0.285896	-0.948151
O130	O	1.602468	0.214104	-0.448151
H131	H	1.140782	-0.314822	-0.983194
H132	H	1.640782	0.185178	-0.483194
H133	H	0.395617	-0.479664	-0.485052
H134	H	0.895617	0.020336	0.014948
O135	O	0.916689	-1.119310	-0.294961
O136	O	1.416689	-0.619310	0.205039
H137	H	0.921820	-1.176687	-0.300586
H138	H	1.421820	-0.676687	0.199414
H139	H	0.508986	-0.439503	-0.444556
H140	H	1.008986	0.060497	0.055444
H141	H	0.972223	-0.261597	-0.843761
H142	H	1.472223	0.238403	-0.343761
H143	H	0.269740	-0.311057	-0.314990
H144	H	0.769740	0.188943	0.185010
H145	H	0.402562	-0.316731	-0.320696
H146	H	0.902562	0.183269	0.179304
H147	H	1.097139	-0.983998	-0.494246
H148	H	1.597139	-0.483998	0.005754
H149	H	1.062942	-0.784155	-0.456539
H150	H	1.562942	-0.284155	0.043461
H151	H	0.602451	-0.282529	-0.286193
H152	H	1.102451	0.217471	0.213807
O153	O	0.745475	-0.276754	-0.280339
O154	O	1.245475	0.223246	0.219661
H155	H	0.709051	-0.243927	-0.247211
H156	H	1.209051	0.256073	0.252789
O157	O	0.479903	-0.310422	-0.314284
O158	O	0.979903	0.189578	0.185716
H159	H	0.448076	-0.273375	-0.347821
H160	H	0.948076	0.226625	0.152179
O161	O	1.080810	-0.642136	-0.476300
O162	O	1.580810	-0.142136	0.023700
H163	H	1.050823	-0.607436	-0.514263
H164	H	1.550823	-0.107436	-0.014263
H165	H	1.091527	-1.116844	-0.488014
H166	H	1.591527	-0.616844	0.011986
O167	O	0.923118	-0.967114	-0.302105
O168	O	1.423118	-0.467114	0.197895
H169	H	0.890376	-1.003589	-0.265925
H170	H	1.390376	-0.503589	0.234075
O171	O	0.888098	-0.786622	-0.263489
O172	O	1.388098	-0.286622	0.236511
H173	H	0.893223	-0.844000	-0.269113
H174	H	1.393223	-0.344000	0.230887
O175	O	0.894527	-0.634425	-0.270638
O176	O	1.394527	-0.134425	0.229362
H177	H	0.861780	-0.670896	-0.234459
H178	H	1.361780	-0.170896	0.265541
O179	O	1.069289	-0.861508	-0.463531
O180	O	1.569289	-0.361508	0.036469
H181	H	1.039303	-0.826809	-0.501495
H182	H	1.539303	-0.326809	-0.001495
H183	H	0.940449	-0.890758	-0.321277
H184	H	1.440449	-0.390758	0.178723
O185	O	0.864760	-0.338821	-0.935275
O186	O	1.364760	0.161179	-0.435275
H187	H	0.824297	-0.376122	-0.911988
H188	H	1.324297	0.123878	-0.411988
O189	O	0.895245	-0.476060	-0.823603
O190	O	1.395245	0.023940	-0.323603
H191	H	0.907349	-0.529715	-0.841508
H192	H	1.407349	-0.029715	-0.341508
H193	H	1.025303	-0.500361	-0.928185
H194	H	1.525303	-0.000361	-0.428185
H195	H	1.115492	-0.417749	-0.843286
H196	H	1.615492	0.082251	-0.343286
H197	H	0.595509	-0.445457	-0.450544
H198	H	1.095509	0.054543	0.049456
O199	O	0.737508	-0.463404	-0.468645
O200	O	1.237508	0.036596	0.031355
H201	H	0.698418	-0.493008	-0.498524
H202	H	1.198418	0.006992	0.001476
