data_functionalizedCrystal
_audit_creation_method	'MofGen! by Chris Wilmer'
_symmetry_space_group_name_H-M	'P1'
_symmetry_Int_Tables_number	1
_symmetry_cell_setting	triclinic
loop_
_symmetry_equiv_pos_as_xyz
  x,y,z
_cell_length_a	16.959455
_cell_length_b	18.050589
_cell_length_c	16.959447
_cell_angle_alpha	90.026643
_cell_angle_beta	90.014322
_cell_angle_gamma	90.025168
loop_
_atom_site_label
_atom_site_type_symbol
_atom_site_fract_x
_atom_site_fract_y
_atom_site_fract_z
Zn1	Zn	1.208339	-0.295705	0.446929
Zn2	Zn	1.208243	-0.419907	0.314759
Zn3	Zn	1.076167	-0.295729	0.314766
Zn4	Zn	1.076113	-0.419851	0.446897
O5	O	1.142216	-0.357798	0.380838
O6	O	1.318937	-0.312194	0.429406
O7	O	1.190705	-0.403467	0.204149
O8	O	1.093763	-0.191801	0.332314
O9	O	1.318866	-0.403445	0.332301
O10	O	1.190869	-0.191784	0.429414
O11	O	1.093670	-0.312234	0.204154
O12	O	0.965549	-0.312180	0.332284
O13	O	1.093671	-0.403350	0.557512
O14	O	0.965510	-0.403373	0.429360
O15	O	1.190817	-0.312141	0.557536
O16	O	1.190653	-0.523824	0.332271
O17	O	1.093578	-0.523783	0.429353
C18	C	0.936849	-0.357774	0.380820
C19	C	0.848993	-0.357781	0.380831
C20	C	0.477513	-0.310275	0.330396
C21	C	0.477521	-0.405382	0.431325
C22	C	0.560067	-0.405371	0.431320
C23	C	0.601340	-0.357813	0.380852
C24	C	0.560067	-0.310265	0.330388
C25	C	0.601346	-0.452924	0.481777
C26	C	0.683897	-0.452916	0.481774
C27	C	0.725171	-0.405353	0.431309
C28	C	0.683893	-0.357802	0.380844
C29	C	0.725166	-0.310243	0.330375
C30	C	0.683890	-0.262689	0.279913
C31	C	0.601342	-0.262702	0.279923
C32	C	0.807720	-0.405340	0.431299
C33	C	0.807720	-0.310233	0.330367
C34	C	1.142120	-0.550750	0.380825
C35	C	1.142152	-0.633296	0.380846
C36	C	1.089414	-0.832751	0.433620
C37	C	1.070151	-0.882194	0.361493
C38	C	1.142229	-0.784426	0.380856
C39	C	1.161531	-0.882065	0.452991
C40	C	1.142303	-0.930411	0.380872
C41	C	1.122929	-0.832782	0.308691
C42	C	1.214342	-0.832648	0.400237
C43	C	1.195106	-0.882069	0.328061
C44	C	1.142185	-0.700328	0.380848
C45	C	1.142347	-1.014508	0.380872
C46	C	1.348384	-0.357823	0.380857
C47	C	1.436240	-0.357834	0.380864
C48	C	1.142249	-0.357737	0.587006
C49	C	1.142263	-0.357710	0.674863
C50	C	1.142333	-0.164092	0.380868
C51	C	1.142383	-0.081547	0.380881
C52	C	1.142228	-0.357806	0.175472
C53	C	1.142368	-0.357623	0.087615
C54	C	1.091778	-0.405121	1.046329
C55	C	1.192936	-0.310143	1.046348
C56	C	1.192915	-0.310159	0.963802
C57	C	1.142326	-0.357657	0.922516
C58	C	1.091757	-0.405139	0.963775
C59	C	1.243489	-0.262683	0.922537
C60	C	1.243470	-0.262698	0.839986
C61	C	1.192876	-0.310192	0.798698
C62	C	1.142305	-0.357676	0.839962
C63	C	1.091715	-0.405174	0.798676
C64	C	1.041139	-0.452654	0.839939
C65	C	1.041162	-0.452634	0.922488
C66	C	1.192852	-0.310212	0.716149
C67	C	1.091694	-0.405193	0.716122
H68	H	0.841319	-0.271500	0.289274
H69	H	1.284652	-0.224036	0.806396
C70	C	0.728750	-0.504628	0.536434
C71	C	0.776103	-0.552183	0.491595
C72	C	0.817427	-0.599833	0.541922
H73	H	0.761034	-0.476336	0.570937
H74	H	0.692372	-0.532997	0.566479
H75	H	0.812477	-0.523817	0.461563
H76	H	0.743839	-0.580491	0.457093
H77	H	0.781049	-0.628202	0.571967
H78	H	0.849706	-0.571535	0.576423
H79	H	0.849555	-0.632109	0.511506
C80	C	0.986391	-0.504274	0.967332
C81	C	1.031135	-0.551880	1.014694
C82	C	0.980710	-0.599467	1.056011
H83	H	0.951964	-0.475939	0.999608
H84	H	0.956269	-0.532609	0.930950
H85	H	1.061244	-0.523549	1.051072
H86	H	1.065560	-0.580232	0.982437
H87	H	0.950587	-0.627802	1.019629
H88	H	0.946286	-0.571126	1.088283
H89	H	1.011061	-0.631778	1.088146
C90	C	1.029835	-0.803973	0.493148
C91	C	1.049434	-0.830032	0.568386
C92	C	0.994561	-0.803544	0.623237
H93	H	1.030509	-0.751353	0.493169
H94	H	0.978640	-0.820964	0.479304
H95	H	1.100615	-0.813037	0.582227
H96	H	1.048754	-0.882649	0.568391
H97	H	0.943366	-0.820535	0.609392
H98	H	0.995239	-0.750925	0.623250
H99	H	1.007846	-0.821226	0.674290
C100	C	1.183427	-0.910888	0.534296
C101	C	1.258384	-0.884723	0.554908
C102	C	1.278578	-0.911265	0.629797
H103	H	1.145904	-0.894019	0.571793
H104	H	1.183817	-0.963516	0.533612
H105	H	1.257988	-0.832106	0.555599
H106	H	1.295924	-0.901590	0.517431
H107	H	1.278968	-0.963893	0.629112
H108	H	1.241050	-0.894394	0.667287
H109	H	1.329440	-0.893522	0.643789
H110	H	1.009203	-0.903974	0.345115
C111	C	1.254587	-0.910874	0.268450
C112	C	1.215757	-0.954595	0.212346
C113	C	1.270521	-0.981152	0.157425
H114	H	1.279439	-0.870278	0.242914
H115	H	1.293219	-0.939841	0.294791
H116	H	1.177139	-0.925628	0.186008
H117	H	1.190908	-0.995202	0.237859
H118	H	1.309154	-1.010119	0.183766
H119	H	1.295370	-0.940551	0.131894
H120	H	1.244185	-1.010824	0.119356
H121	H	1.284681	-0.224017	0.956158
C122	C	0.556575	-0.210952	0.225232
C123	C	0.576668	-0.137490	0.242590
C124	C	0.535436	-0.089798	0.192231
H125	H	0.570051	-0.221659	0.172075
H126	H	0.501492	-0.217718	0.232466
H127	H	0.631738	-0.130726	0.235348
H128	H	0.563190	-0.126760	0.295737
H129	H	0.480354	-0.096564	0.199465
H130	H	0.548916	-0.100511	0.139077
H131	H	0.549058	-0.039949	0.204005
H132	H	1.106562	-0.811223	0.247677
H133	H	1.050598	-0.443776	1.079929
C134	C	1.295662	-0.803709	0.422013
C135	C	1.351032	-0.829800	0.367448
C136	C	1.425954	-0.803164	0.387498
H137	H	1.295271	-0.751091	0.421358
H138	H	1.309322	-0.820575	0.473283
H139	H	1.337375	-0.812930	0.316191
H140	H	1.351447	-0.882415	0.368095
H141	H	1.439614	-0.820030	0.438768
H142	H	1.425555	-0.750546	0.386843
H143	H	1.463532	-0.820868	0.350484
C144	C	0.432562	-0.258727	0.275641
C145	C	0.351435	-0.268921	0.286434
C146	C	0.310001	-0.221454	0.236001
H147	H	0.446020	-0.208811	0.287249
H148	H	0.446022	-0.269539	0.222494
H149	H	0.337981	-0.258103	0.339570
H150	H	0.337953	-0.318826	0.274821
H151	H	0.323461	-0.232266	0.182854
H152	H	0.323466	-0.171541	0.247613
H153	H	0.254952	-0.228369	0.243312
C154	C	1.036741	-0.456850	0.671443
C155	C	0.992474	-0.498438	0.725249
C156	C	0.941855	-0.546042	0.684120
H157	H	1.002240	-0.428533	0.639238
H158	H	1.066938	-0.489260	0.639255
H159	H	0.962279	-0.466032	0.757423
H160	H	1.026954	-0.526770	0.757455
H161	H	0.972052	-0.578452	0.651932
H162	H	0.907359	-0.517719	0.651917
H163	H	0.911819	-0.574270	0.720621
H164	H	1.234033	-0.271557	0.682556
C165	C	1.247815	-0.258458	1.091072
C166	C	1.230655	-0.184981	1.071001
C167	C	1.281200	-0.137346	1.112180
H168	H	1.240635	-0.265149	1.146156
H169	H	1.300927	-0.269290	1.077523
H170	H	1.177555	-0.174153	1.084555
H171	H	1.237839	-0.178267	1.015923
H172	H	1.334312	-0.148178	1.098631
H173	H	1.274016	-0.144044	1.167262
H174	H	1.269569	-0.087488	1.098562
H175	H	0.443911	-0.444106	0.472410
C176	C	0.556394	-0.504476	0.536537
C177	C	0.475267	-0.494290	0.525759
C178	C	0.433829	-0.541761	0.576200
H179	H	0.569802	-0.554391	0.524926
H180	H	0.569899	-0.493663	0.589682
H181	H	0.461767	-0.505108	0.472627
H182	H	0.461835	-0.444385	0.537376
H183	H	0.447335	-0.530948	0.629345
H184	H	0.447244	-0.591672	0.564585
H185	H	0.378781	-0.534851	0.568900
H186	H	0.717505	-0.223970	0.238818
H187	H	0.999952	-0.491330	0.806313
H188	H	0.841323	-0.444060	0.472382
