data_functionalizedCrystal
_audit_creation_method	'MofGen! by Chris Wilmer'
_symmetry_space_group_name_H-M	'P1'
_symmetry_Int_Tables_number	1
_symmetry_cell_setting	triclinic
loop_
_symmetry_equiv_pos_as_xyz
  x,y,z
_cell_length_a	16.109301
_cell_length_b	16.176319
_cell_length_c	16.109301
_cell_angle_alpha	89.991775
_cell_angle_beta	96.538519
_cell_angle_gamma	90.004696
loop_
_atom_site_label
_atom_site_type_symbol
_atom_site_fract_x
_atom_site_fract_y
_atom_site_fract_z
O1	O	1.103135	0.068697	-0.106869
O2	O	1.603135	0.568697	0.393131
O3	O	0.861073	0.068710	-0.120169
O4	O	1.361073	0.568710	0.379831
O5	O	0.988754	0.068695	0.007512
O6	O	1.488754	0.568695	0.507512
O7	O	0.975454	0.068712	-0.234550
O8	O	1.475454	0.568712	0.265450
O9	O	0.988736	-0.068798	0.007520
O10	O	1.488736	0.431202	0.507520
O11	O	0.861056	-0.068783	-0.120160
O12	O	1.361056	0.431217	0.379840
O13	O	1.103118	-0.068796	-0.106861
O14	O	1.603118	0.431204	0.393139
Cu15	Cu	0.982085	-0.081344	-0.113510
Cu16	Cu	1.482085	0.418656	0.386490
Cu17	Cu	0.982106	0.081258	-0.113520
Cu18	Cu	1.482106	0.581258	0.386480
O19	O	0.975437	-0.068781	-0.234542
O20	O	1.475437	0.431219	0.265458
C21	C	0.830090	-0.000035	-0.119626
C22	C	1.330090	0.499965	0.380374
C23	C	0.737794	-0.000030	-0.118011
C24	C	1.237794	0.499970	0.381989
N25	N	0.982076	-0.195709	-0.113503
N26	N	1.482076	0.304291	0.386497
C27	C	0.515522	-0.000034	-0.190018
C28	C	1.015522	0.499966	0.309982
C29	C	0.428801	-0.000039	-0.188494
C30	C	0.928801	0.499961	0.311506
C31	C	0.448676	-0.000047	-0.037006
C32	C	0.948676	0.499953	0.462994
C33	C	0.535394	-0.000048	-0.038530
C34	C	1.035394	0.499952	0.461470
C35	C	0.568815	-0.000037	-0.115039
C36	C	1.068815	0.499963	0.384961
C37	C	0.395376	-0.000042	-0.111990
C38	C	0.895376	0.499958	0.388010
C39	C	0.301350	-0.000048	-0.110337
C40	C	0.801350	0.499952	0.389663
C41	C	0.662847	-0.000033	-0.116693
C42	C	1.162847	0.499967	0.383307
C43	C	1.038630	-0.238980	-0.056989
C44	C	1.538630	0.261020	0.443011
C45	C	1.038635	-0.325527	-0.056988
C46	C	1.538635	0.174473	0.443012
C47	C	0.982088	-0.368802	-0.113506
C48	C	1.482088	0.131198	0.386494
C49	C	0.925528	-0.325524	-0.170022
C50	C	1.425528	0.174476	0.329978
C51	C	0.925521	-0.238979	-0.170018
C52	C	1.425521	0.261021	0.329982
C53	C	0.925557	-0.674553	-0.170038
C54	C	1.425557	-0.174553	0.329962
C55	C	0.925570	-0.761104	-0.170039
C56	C	1.425570	-0.261104	0.329961
C57	C	1.038671	-0.761101	-0.057007
C58	C	1.538671	-0.261101	0.442993
C59	C	1.038663	-0.674555	-0.057004
C60	C	1.538663	-0.174555	0.442996
C61	C	0.982101	-0.631286	-0.113517
C62	C	1.482101	-0.131286	0.386483
C63	C	0.982096	-0.537442	-0.113516
C64	C	1.482096	-0.037442	0.386484
C65	C	0.982096	-0.462644	-0.113511
C66	C	1.482096	0.037356	0.386489
C67	C	1.134101	-0.000049	-0.107404
C68	C	1.634101	0.499951	0.392596
C69	C	1.226397	-0.000049	-0.109019
C70	C	1.726397	0.499951	0.390981
C71	C	0.988206	-0.000052	0.038491
C72	C	1.488206	0.499948	0.538491
C73	C	0.986591	-0.000053	0.130786
C74	C	1.486591	0.499947	0.630786
N75	N	0.982121	0.195623	-0.113520
N76	N	1.482121	0.695623	0.386480
C77	C	0.975984	-0.000032	-0.265521
C78	C	1.475984	0.499968	0.234479
C79	C	0.977600	-0.000025	-0.357816
C80	C	1.477600	0.499975	0.142184
C81	C	1.058599	-0.000044	0.353059
C82	C	1.558599	0.499956	0.853059
C83	C	1.057075	-0.000037	0.439779
C84	C	1.557075	0.499963	0.939779
C85	C	0.905586	-0.000032	0.419905
C86	C	1.405586	0.499968	0.919905
C87	C	0.907111	-0.000033	0.333186
C88	C	1.407111	0.499967	0.833186
C89	C	0.983620	-0.000043	0.299766
C90	C	1.483620	0.499957	0.799766
C91	C	0.980571	-0.000035	0.473205
C92	C	1.480571	0.499965	0.973205
C93	C	0.978918	-0.000028	0.567231
C94	C	1.478918	0.499972	1.067231
C95	C	0.985273	-0.000049	0.205734
C96	C	1.485273	0.499951	0.705734
H97	H	0.385413	-0.000039	-0.249550
H98	H	0.885413	0.499961	0.250450
H99	H	1.084711	-0.639324	-0.010985
H100	H	1.584711	-0.139324	0.489015
C101	C	1.100841	-0.373126	0.005177
C102	C	1.600841	0.126874	0.505177
H103	H	1.092742	-0.430867	-0.002911
H104	H	1.592742	0.069133	0.497089
H105	H	1.156323	-0.358934	-0.003870
H106	H	1.656323	0.141066	0.496130
H107	H	1.091824	-0.358950	0.060671
H108	H	1.591824	0.141050	0.560671
C109	C	1.100881	-0.808700	0.005166
C110	C	1.600881	-0.308700	0.505166
H111	H	1.092784	-0.866441	-0.002921
H112	H	1.592784	-0.366441	0.497079
H113	H	1.156361	-0.794506	-0.003881
H114	H	1.656361	-0.294506	0.496119
H115	H	1.091864	-0.794524	0.060660
H116	H	1.591864	-0.294524	0.560660
H117	H	0.879520	-0.796337	-0.216064
H118	H	1.379520	-0.296337	0.283936
C119	C	0.863348	-0.626967	-0.232207
C120	C	1.363348	-0.126967	0.267793
H121	H	0.829681	-0.665137	-0.265872
H122	H	1.329681	-0.165137	0.234128
H123	H	0.828744	-0.593217	-0.202290
H124	H	1.328744	-0.093217	0.297710
H125	H	0.893245	-0.593195	-0.266828
H126	H	1.393245	-0.093195	0.233172
H127	H	0.421454	-0.000061	0.025285
H128	H	0.921454	0.499939	0.525285
C129	C	0.824632	-0.000028	0.274556
C130	C	1.324632	0.499972	0.774556
H131	H	0.836500	-0.000020	0.218124
H132	H	1.336500	0.499980	0.718124
H133	H	0.793250	-0.047971	0.284686
H134	H	1.293250	0.452029	0.784686
H135	H	0.793271	0.047928	0.284680
H136	H	1.293271	0.547928	0.784680
H137	H	1.118130	-0.000036	0.483168
H138	H	1.618130	0.499964	0.983168
H139	H	0.879483	-0.360763	-0.216037
H140	H	1.379483	0.139237	0.283963
C141	C	0.863315	-0.191381	-0.232187
C142	C	1.363315	0.308619	0.267813
H143	H	0.829644	-0.229547	-0.265853
H144	H	1.329644	0.270453	0.234147
H145	H	0.828715	-0.157630	-0.202267
H146	H	1.328715	0.342370	0.297733
H147	H	0.893212	-0.157609	-0.266807
H148	H	1.393212	0.342391	0.233193
H149	H	1.120897	-0.000051	0.325851
H150	H	1.620897	0.499949	0.825851
H151	H	0.578788	-0.000052	0.022530
H152	H	1.078788	0.499948	0.522530
H153	H	0.843295	-0.000025	0.447127
H154	H	1.343295	0.499975	0.947127
H155	H	0.542730	-0.000032	-0.252317
H156	H	1.042730	0.499968	0.247683
C157	C	1.100831	-0.191386	0.005183
C158	C	1.600831	0.308614	0.505183
H159	H	1.134507	-0.229555	0.038845
H160	H	1.634507	0.270445	0.538845
H161	H	1.135427	-0.157611	-0.024732
H162	H	1.635427	0.342389	0.475268
H163	H	1.070927	-0.157638	0.039806
H164	H	1.570927	0.342362	0.539806
