data_functionalizedCrystal
_audit_creation_method	'MofGen! by Chris Wilmer'
_symmetry_space_group_name_H-M	'P1'
_symmetry_Int_Tables_number	1
_symmetry_cell_setting	triclinic
loop_
_symmetry_equiv_pos_as_xyz
  x,y,z
_cell_length_a	15.944551
_cell_length_b	14.971486
_cell_length_c	14.048226
_cell_angle_alpha	90.001501
_cell_angle_beta	89.992615
_cell_angle_gamma	96.443566
loop_
_atom_site_label
_atom_site_type_symbol
_atom_site_fract_x
_atom_site_fract_y
_atom_site_fract_z
O1	O	0.109463	-1.186829	-0.079053
O2	O	0.609463	-0.686829	0.420947
O3	O	0.122572	-0.926415	-0.079079
O4	O	0.622572	-0.426415	0.420921
O5	O	-0.006251	-1.063733	-0.079057
O6	O	0.493749	-0.563733	0.420943
O7	O	0.238286	-1.049510	-0.079076
O8	O	0.738286	-0.549510	0.420924
O9	O	-0.006258	-1.063717	0.079264
O10	O	0.493742	-0.563717	0.579264
O11	O	0.122564	-0.926398	0.079242
O12	O	0.622564	-0.426398	0.579242
O13	O	0.109456	-1.186812	0.079268
O14	O	0.609456	-0.686812	0.579268
Zn15	Zn	0.116009	-1.056603	0.104392
Zn16	Zn	0.616009	-0.556603	0.604392
Zn17	Zn	0.116019	-1.056624	-0.104203
Zn18	Zn	0.616019	-0.556624	0.395797
O19	O	0.238278	-1.049494	0.079246
O20	O	0.738278	-0.549494	0.579246
C21	C	0.121982	-0.893082	0.000078
C22	C	0.621982	-0.393082	0.500078
C23	C	0.120225	-0.793787	0.000068
C24	C	0.620225	-0.293787	0.500068
C25	C	-0.037549	-1.063134	0.000104
C26	C	0.462451	-0.563134	0.500104
C27	C	-0.130797	-1.061364	0.000104
C28	C	0.369203	-0.561364	0.500104
N29	N	0.116001	-1.056594	0.246753
N30	N	0.616001	-0.556594	0.746753
C31	C	-0.345738	-0.972017	0.000082
C32	C	0.154262	-0.472017	0.500082
C33	C	-0.406720	-1.013499	0.078148
C34	C	0.093280	-0.513499	0.578148
C35	C	-0.301526	-1.058162	0.000096
C36	C	0.198474	-0.558162	0.500096
C37	C	-0.406696	-1.013535	-0.077944
C38	C	0.093304	-0.513535	0.422056
C39	C	-0.466441	-1.055062	0.000085
C40	C	0.033559	-0.555062	0.500085
C41	C	-0.361279	-1.099667	0.078227
C42	C	0.138721	-0.599667	0.578227
C43	C	-0.361248	-1.099692	-0.077935
C44	C	0.138752	-0.599692	0.422065
C45	C	-0.422212	-1.141236	0.000150
C46	C	0.077788	-0.641236	0.500150
C47	C	-0.206522	-1.059945	0.000104
C48	C	0.293478	-0.559945	0.500104
C49	C	-0.561444	-1.053286	0.000084
C50	C	-0.061444	-0.553286	0.500084
C51	C	0.269576	-1.050093	0.000083
C52	C	0.769576	-0.550093	0.500083
C53	C	0.362824	-1.051863	0.000076
C54	C	0.862824	-0.551863	0.500076
C55	C	0.110046	-1.220145	0.000109
C56	C	0.610046	-0.720145	0.500109
C57	C	0.111802	-1.319440	0.000112
C58	C	0.611802	-0.819440	0.500112
C59	C	0.195904	-0.736480	0.000064
C60	C	0.695904	-0.236480	0.500064
C61	C	0.194249	-0.643182	0.000078
C62	C	0.694249	-0.143182	0.500078
C63	C	0.116913	-0.607194	0.000090
C64	C	0.616913	-0.107194	0.500090
C65	C	0.041227	-0.664508	0.000097
C66	C	0.541227	-0.164508	0.500097
C67	C	0.042884	-0.757804	0.000090
C68	C	0.542884	-0.257804	0.500090
C69	C	0.037780	-0.470049	0.000111
C70	C	0.537780	0.029951	0.500111
C71	C	0.036123	-0.376747	0.000116
C72	C	0.536123	0.123253	0.500116
C73	C	0.189145	-0.355428	0.000099
C74	C	0.689145	0.144572	0.500099
C75	C	0.190801	-0.448724	0.000092
C76	C	0.690801	0.051276	0.500092
C77	C	0.115116	-0.506032	0.000097
C78	C	0.615116	-0.006032	0.500097
N79	N	0.116019	-1.056640	-0.246564
N80	N	0.616019	-0.556640	0.253436
C81	C	0.058982	-1.117418	0.296581
C82	C	0.558982	-0.617418	0.796581
C83	C	0.058982	-1.117424	0.396238
C84	C	0.558982	-0.617424	0.896238
C85	C	0.116005	-1.056610	0.446066
C86	C	0.616005	-0.556610	0.946066
C87	C	0.173027	-0.995780	0.396231
C88	C	0.673027	-0.495780	0.896231
C89	C	0.173022	-0.995770	0.296575
C90	C	0.673022	-0.495770	0.796575
C91	C	0.173033	-0.995806	0.603945
C92	C	0.673033	-0.495806	1.103945
C93	C	0.173038	-0.995816	0.703608
C94	C	0.673038	-0.495816	1.203608
C95	C	0.058992	-1.117459	0.703608
C96	C	0.558992	-0.617459	1.203608
C97	C	0.058988	-1.117450	0.603952
C98	C	0.558988	-0.617450	1.103952
C99	C	0.116011	-1.056621	0.554124
C100	C	0.616011	-0.556621	1.054124
H101	H	-0.312499	-0.900512	0.000153
H102	H	0.187501	-0.400512	0.500153
F103	F	0.269696	-0.294436	0.000095
F104	F	0.769696	0.205564	0.500095
H105	H	-0.341257	-1.136066	0.144298
H106	H	0.158743	-0.636066	0.644298
H107	H	-0.026851	-0.347448	0.000127
H108	H	0.473149	0.152552	0.500127
F109	F	0.233729	-0.931088	0.756632
F110	F	0.733729	-0.431088	1.256632
F111	F	0.233722	-0.931060	0.550919
F112	F	0.733722	-0.431060	1.050919
H113	H	-0.023852	-0.516708	0.000117
H114	H	0.476148	-0.016708	0.500117
F115	F	0.278218	-0.774773	0.000045
F116	F	0.778218	-0.274773	0.500045
F117	F	-0.432997	-0.965900	-0.164203
F118	F	0.067003	-0.465900	0.335797
H119	H	-0.426866	-0.977056	0.144140
H120	H	0.073134	-0.477056	0.644140
H121	H	0.255875	-0.596526	0.000074
H122	H	0.755875	-0.096526	0.500074
F123	F	-0.041080	-0.626203	0.000116
F124	F	0.458920	-0.126203	0.500116
F125	F	-0.001694	-1.182199	0.756643
F126	F	0.498306	-0.682199	1.256643
H127	H	-0.341080	-1.136103	-0.143930
H128	H	0.158920	-0.636103	0.356070
F129	F	-0.465466	-1.234779	0.000214
F130	F	0.034534	-0.734779	0.500214
F131	F	-0.037665	-0.818794	0.000098
F132	F	0.462335	-0.318794	0.500098
H133	H	0.012560	-1.166973	0.563383
H134	H	0.512560	-0.666973	1.063383
H135	H	0.219453	-0.946259	0.436807
H136	H	0.719453	-0.446259	0.936807
H137	H	0.253775	-0.478022	0.000073
H138	H	0.753775	0.021978	0.500073
F139	F	-0.001707	-1.182150	0.243559
F140	F	0.498293	-0.682150	0.743559
F141	F	-0.001705	-1.182158	0.449269
F142	F	0.498295	-0.682158	0.949269
H143	H	0.219452	-0.946240	0.256006
H144	H	0.719452	-0.446240	0.756006
