data_functionalizedCrystal
_audit_creation_method	'MofGen! by Chris Wilmer'
_symmetry_space_group_name_H-M	'P1'
_symmetry_Int_Tables_number	1
_symmetry_cell_setting	triclinic
loop_
_symmetry_equiv_pos_as_xyz
  x,y,z
_cell_length_a	14.519709
_cell_length_b	16.956995
_cell_length_c	15.455301
_cell_angle_alpha	86.829328
_cell_angle_beta	92.989373
_cell_angle_gamma	100.132692
loop_
_atom_site_label
_atom_site_type_symbol
_atom_site_fract_x
_atom_site_fract_y
_atom_site_fract_z
O1	O	-0.041585	1.061214	-0.072187
O2	O	-0.073957	0.829103	-0.072172
O3	O	0.076948	0.951313	-0.072188
O4	O	-0.192490	0.939004	-0.072171
O5	O	0.083681	0.945061	0.072075
O6	O	-0.067224	0.822851	0.072090
O7	O	-0.034852	1.054963	0.072076
Cu8	Cu	-0.050423	0.938336	0.085255
Cu9	Cu	-0.058386	0.945729	-0.085352
O10	O	-0.185757	0.932752	0.072091
C11	C	-0.072248	0.796271	-0.000039
C12	C	-0.077175	0.707758	-0.000034
C13	C	-0.114042	0.208511	-0.000064
C14	C	-0.109405	0.291680	-0.000064
C15	C	-0.022358	0.342644	-0.000063
C16	C	0.060056	0.310436	-0.000071
C17	C	0.055418	0.227269	-0.000077
C18	C	0.000600	0.592383	-0.000049
C19	C	0.005233	0.675555	-0.000040
C20	C	-0.164229	0.656793	-0.000035
C21	C	-0.168859	0.573625	-0.000036
C22	C	-0.086446	0.541425	-0.000049
N23	N	-0.017615	0.427656	-0.000060
N24	N	-0.091189	0.456414	-0.000058
C25	C	-0.223438	0.936452	-0.000038
C26	C	-0.325685	0.938170	-0.000032
C27	C	-0.700088	0.944500	-0.000067
C28	C	-0.595917	0.942742	-0.000057
C29	C	-0.512890	0.941335	-0.000049
C30	C	-0.408712	0.939577	-0.000041
C31	C	0.114629	0.947614	-0.000060
C32	C	0.216876	0.945895	-0.000072
C33	C	-0.036561	1.087794	-0.000059
C34	C	-0.031634	1.176308	-0.000070
N35	N	-0.044821	0.933142	0.205251
N36	N	-0.063980	0.950930	-0.205348
C37	C	-0.094979	0.979611	0.250642
C38	C	-0.090736	0.975694	0.341450
C39	C	-0.036340	0.925302	0.386866
C40	C	0.013824	0.878831	0.341468
C41	C	0.009586	0.882753	0.250662
C42	C	-0.018054	0.908381	0.658448
C43	C	-0.013822	0.904461	0.749261
C44	C	-0.118381	1.001325	0.749237
C45	C	-0.122619	1.005240	0.658428
C46	C	-0.072451	0.958772	0.613039
N47	N	-0.032004	0.921294	0.479686
N48	N	-0.076782	0.962784	0.520220
H49	H	0.076120	0.717049	-0.000043
H50	H	0.067708	0.566176	-0.000057
H51	H	-0.166911	1.046276	0.621457
H52	H	-0.184925	0.167021	-0.000059
H53	H	0.130932	0.351938	-0.000075
H54	H	-0.131579	1.013535	0.378403
H55	H	-0.176510	0.317895	-0.000068
H56	H	0.122523	0.201052	-0.000084
H57	H	0.022797	0.870544	0.621503
H58	H	-0.139281	1.020641	0.213671
H59	H	-0.159224	1.039157	0.786202
H60	H	0.030474	0.863421	0.786236
H61	H	0.050430	0.844912	0.213706
H62	H	0.058120	0.837804	0.378453
H63	H	-0.231326	0.683020	-0.000026
H64	H	-0.239742	0.532135	-0.000040
