data_functionalizedCrystal
_audit_creation_method	'MofGen! by Chris Wilmer'
_symmetry_space_group_name_H-M	'P1'
_symmetry_Int_Tables_number	1
_symmetry_cell_setting	triclinic
loop_
_symmetry_equiv_pos_as_xyz
  x,y,z
_cell_length_a	10.654550
_cell_length_b	16.109301
_cell_length_c	9.130313
_cell_angle_alpha	89.994060
_cell_angle_beta	89.999724
_cell_angle_gamma	83.973206
loop_
_atom_site_label
_atom_site_type_symbol
_atom_site_fract_x
_atom_site_fract_y
_atom_site_fract_z
O1	O	1.666255	0.116774	-0.121695
O2	O	2.166255	0.616774	0.378305
O3	O	1.300626	0.127899	-0.121723
O4	O	1.800626	0.627899	0.378277
O5	O	1.493485	0.001365	-0.121693
O6	O	1.993485	0.501365	0.378307
O7	O	1.473396	0.243308	-0.121725
O8	O	1.973396	0.743308	0.378275
O9	O	1.493472	0.001362	0.121906
O10	O	1.993472	0.501362	0.621906
O11	O	1.300613	0.127896	0.121876
O12	O	1.800613	0.627896	0.621876
O13	O	1.666242	0.116770	0.121904
O14	O	2.166242	0.616770	0.621904
Cu15	Cu	1.483426	0.122333	0.144132
Cu16	Cu	1.983426	0.622333	0.644132
Cu17	Cu	1.483442	0.122337	-0.143951
Cu18	Cu	1.983442	0.622337	0.356049
O19	O	1.473383	0.243304	0.121874
O20	O	1.973383	0.743304	0.621874
C21	C	1.253832	0.127081	0.000073
C22	C	1.753832	0.627081	0.500073
C23	C	1.114422	0.124637	0.000063
C24	C	1.614422	0.624637	0.500063
C25	C	1.033926	0.199138	0.000058
C26	C	1.533926	0.699138	0.500058
C27	C	0.902936	0.196836	0.000084
C28	C	1.402936	0.696836	0.500084
C29	C	0.932952	0.045526	0.000114
C30	C	1.432952	0.545526	0.500114
C31	C	1.063939	0.047828	0.000099
C32	C	1.563939	0.547828	0.500099
C33	C	1.492664	-0.029616	0.000107
C34	C	1.992664	0.470384	0.500107
C35	C	1.490225	-0.121926	0.000109
C36	C	1.990225	0.378074	0.500109
C37	C	1.598991	-0.343552	0.000094
C38	C	2.098991	0.156448	0.500094
C39	C	1.596689	-0.430286	0.000081
C40	C	2.096689	0.069714	0.500081
C41	C	1.367868	-0.411772	0.000070
C42	C	1.867868	0.088228	0.500070
C43	C	1.370172	-0.325039	0.000072
C44	C	1.870172	0.174961	0.500072
C45	C	1.485737	-0.290932	0.000091
C46	C	1.985737	0.209068	0.500091
C47	C	1.481131	-0.464398	0.000077
C48	C	1.981131	0.035602	0.500077
C49	C	1.478634	-0.558439	0.000064
C50	C	1.978634	-0.058439	0.500064
C51	C	1.488234	-0.196885	0.000101
C52	C	1.988234	0.303115	0.500101
C53	C	1.713036	0.117589	0.000104
C54	C	2.213036	0.617589	0.500104
C55	C	1.852446	0.120033	0.000105
C56	C	2.352446	0.620033	0.500105
C57	C	1.474203	0.274286	0.000071
C58	C	1.974203	0.774286	0.500071
C59	C	1.476643	0.366596	0.000059
C60	C	1.976643	0.866596	0.500059
N61	N	1.483424	0.122329	0.346755
N62	N	1.983424	0.622329	0.846755
N63	N	1.483453	0.122334	-0.346574
N64	N	1.983453	0.622334	0.153426
C65	C	1.568851	0.066324	0.423420
C66	C	2.068851	0.566324	0.923420
C67	C	1.568863	0.066324	0.576757
C68	C	2.068863	0.566324	1.076757
C69	C	1.398018	0.178342	0.576750
C70	C	1.898018	0.678342	1.076750
C71	C	1.398001	0.178337	0.423416
C72	C	1.898001	0.678337	0.923416
H73	H	1.129483	-0.012843	0.000108
H74	H	1.629483	0.487157	0.500108
F75	F	0.817271	0.276131	0.000080
F76	F	1.317271	0.776131	0.500080
F77	F	1.249624	-0.269034	0.000058
F78	F	1.749624	0.230966	0.500058
F79	F	1.087649	0.280884	0.000026
F80	F	1.587649	0.780884	0.500026
F81	F	1.721985	-0.307255	0.000112
F82	F	2.221985	0.192745	0.500112
H83	H	1.688912	-0.473126	0.000080
H84	H	2.188912	0.026874	0.500080
F85	F	0.879213	-0.036214	0.000146
F86	F	1.379213	0.463786	0.500146
F87	F	1.307069	0.237946	0.341817
F88	F	1.807069	0.737946	0.841817
F89	F	1.659763	0.006712	0.341837
F90	F	2.159763	0.506712	0.841837
F91	F	1.244883	-0.448079	0.000049
F92	F	1.744883	0.051921	0.500049
F93	F	1.659782	0.006714	0.658344
F94	F	2.159782	0.506714	1.158344
H95	H	1.328470	0.223944	0.639183
H96	H	1.828470	0.723944	1.139183
