data_functionalizedCrystal
_audit_creation_method	'MofGen! by Chris Wilmer'
_symmetry_space_group_name_H-M	'P1'
_symmetry_Int_Tables_number	1
_symmetry_cell_setting	triclinic
loop_
_symmetry_equiv_pos_as_xyz
  x,y,z
_cell_length_a	16.959455
_cell_length_b	18.050589
_cell_length_c	16.959447
_cell_angle_alpha	89.973357
_cell_angle_beta	89.985678
_cell_angle_gamma	90.025168
loop_
_atom_site_label
_atom_site_type_symbol
_atom_site_fract_x
_atom_site_fract_y
_atom_site_fract_z
Zn1	Zn	1.208339	-0.295705	-0.446929
Zn2	Zn	1.208243	-0.419907	-0.314759
Zn3	Zn	1.076167	-0.295729	-0.314766
Zn4	Zn	1.076113	-0.419851	-0.446897
O5	O	1.142216	-0.357798	-0.380838
O6	O	1.318937	-0.312194	-0.429406
O7	O	1.190705	-0.403467	-0.204149
O8	O	1.093763	-0.191801	-0.332314
O9	O	1.318866	-0.403445	-0.332301
O10	O	1.190869	-0.191784	-0.429414
O11	O	1.093670	-0.312234	-0.204154
O12	O	0.965549	-0.312180	-0.332284
O13	O	1.093671	-0.403350	-0.557512
O14	O	0.965510	-0.403373	-0.429360
O15	O	1.190817	-0.312141	-0.557536
O16	O	1.190653	-0.523824	-0.332271
O17	O	1.093578	-0.523783	-0.429353
C18	C	0.936849	-0.357774	-0.380820
C19	C	0.848993	-0.357781	-0.380831
C20	C	1.142120	-0.550750	-0.380825
C21	C	1.142152	-0.633296	-0.380846
C22	C	0.477513	-0.310275	-0.330396
C23	C	0.477521	-0.405382	-0.431325
C24	C	0.560067	-0.405371	-0.431320
C25	C	0.601340	-0.357813	-0.380852
C26	C	0.560067	-0.310265	-0.330388
C27	C	0.601346	-0.452924	-0.481777
C28	C	0.683897	-0.452916	-0.481774
C29	C	0.725171	-0.405353	-0.431309
C30	C	0.683893	-0.357802	-0.380844
C31	C	0.725166	-0.310243	-0.330375
C32	C	0.683890	-0.262689	-0.279913
C33	C	0.601342	-0.262702	-0.279923
C34	C	0.807720	-0.405340	-0.431299
C35	C	0.807720	-0.310233	-0.330367
C36	C	1.089414	-0.832751	-0.433620
C37	C	1.070151	-0.882194	-0.361493
C38	C	1.142229	-0.784426	-0.380856
C39	C	1.161531	-0.882065	-0.452991
C40	C	1.142303	-0.930411	-0.380872
C41	C	1.122929	-0.832782	-0.308691
C42	C	1.214342	-0.832648	-0.400237
C43	C	1.195106	-0.882069	-0.328061
C44	C	1.142185	-0.700328	-0.380848
C45	C	1.142347	-1.014508	-0.380872
C46	C	1.348384	-0.357823	-0.380857
C47	C	1.436240	-0.357834	-0.380864
C48	C	1.142249	-0.357737	-0.587006
C49	C	1.142263	-0.357710	-0.674863
C50	C	1.142333	-0.164092	-0.380868
C51	C	1.142383	-0.081547	-0.380881
C52	C	1.091778	-0.405121	-1.046329
C53	C	1.192936	-0.310143	-1.046348
C54	C	1.192915	-0.310159	-0.963802
C55	C	1.142326	-0.357657	-0.922516
C56	C	1.091757	-0.405139	-0.963775
C57	C	1.243489	-0.262683	-0.922537
C58	C	1.243470	-0.262698	-0.839986
C59	C	1.192876	-0.310192	-0.798698
C60	C	1.142305	-0.357676	-0.839962
C61	C	1.091715	-0.405174	-0.798676
C62	C	1.041139	-0.452654	-0.839939
C63	C	1.041162	-0.452634	-0.922488
C64	C	1.192852	-0.310212	-0.716149
C65	C	1.091694	-0.405193	-0.716122
C66	C	1.142228	-0.357806	-0.175472
C67	C	1.142368	-0.357623	-0.087615
H68	H	0.841319	-0.271500	-0.289274
Br69	Br	0.739913	-0.198154	-0.211415
H70	H	0.567727	-0.223986	-0.238838
H71	H	0.999989	-0.491293	-0.956091
Br72	Br	1.095653	-0.796855	-0.206994
Br73	Br	1.188691	-0.918153	-0.554655
H74	H	1.239802	-0.903587	-0.283395
Br75	Br	0.421507	-0.469942	-0.499794
Br76	Br	0.863735	-0.469879	-0.499770
Br77	Br	0.968561	-0.918464	-0.334170
Br78	Br	1.014867	-0.796656	-0.507889
Br79	Br	1.315906	-0.796348	-0.427592
Br80	Br	0.421500	-0.245733	-0.261922
Br81	Br	1.023026	-0.469652	-0.660097
Br82	Br	0.545330	-0.517491	-0.550236
Br83	Br	0.972490	-0.517120	-0.783898
Br84	Br	1.023138	-0.469551	-1.102325
H85	H	1.284652	-0.224036	-0.806396
H86	H	1.234129	-0.271477	-1.079969
H87	H	1.234033	-0.271557	-0.682556
Br88	Br	0.739908	-0.517452	-0.550257
Br89	Br	1.312150	-0.198233	-0.978571
