data_functionalizedCrystal
_audit_creation_method	'MofGen! by Chris Wilmer'
_symmetry_space_group_name_H-M	'P1'
_symmetry_Int_Tables_number	1
_symmetry_cell_setting	triclinic
loop_
_symmetry_equiv_pos_as_xyz
  x,y,z
_cell_length_a	14.446369
_cell_length_b	19.377369
_cell_length_c	19.377574
_cell_angle_alpha	82.425876
_cell_angle_beta	104.491168
_cell_angle_gamma	48.635090
loop_
_atom_site_label
_atom_site_type_symbol
_atom_site_fract_x
_atom_site_fract_y
_atom_site_fract_z
Zr1	Zr	0.723685	0.779834	0.049354
O2	O	0.511617	0.928482	-0.037231
O3	O	0.806764	0.631192	0.057014
O4	O	0.730796	0.779835	-0.064458
O5	O	0.626956	0.779837	0.201541
O6	O	0.883136	0.779828	-0.064455
O7	O	0.587584	0.779840	0.084241
O8	O	1.019028	0.513934	0.152836
O9	O	0.491064	1.045732	-0.015750
O10	O	0.934056	0.692324	0.083097
O11	O	0.849749	0.692326	0.170635
O12	O	0.760307	0.867334	0.027617
O13	O	0.676001	0.867337	0.115154
Zr14	Zr	1.029443	0.779820	0.236439
Zr15	Zr	0.966650	0.779824	0.049359
Zr16	Zr	0.786479	0.779830	0.236434
Zr17	Zr	0.690906	0.966833	0.083614
Zr18	Zr	1.062223	0.592821	0.202180
O19	O	0.946365	0.928462	0.228780
O20	O	0.857081	0.928468	-0.037223
O21	O	0.600901	0.928477	0.228773
O22	O	1.241512	0.631172	0.323024
O23	O	1.152228	0.631177	0.057021
O24	O	0.896048	0.631186	0.323017
O25	O	1.126173	0.779817	0.084252
O26	O	1.022333	0.779819	0.350251
O27	O	0.869993	0.779826	0.350248
O28	O	1.165544	0.779814	0.201552
O29	O	0.684188	1.045724	-0.015746
O30	O	1.068941	0.513930	0.301539
O31	O	1.262065	0.513922	0.301543
O32	O	1.212152	0.513925	0.152840
O33	O	0.540977	1.045729	0.132953
O34	O	0.734101	1.045720	0.132957
O35	O	0.992822	0.692320	0.258176
O36	O	1.077128	0.692317	0.170639
O37	O	0.903380	0.867327	0.115159
O38	O	0.819073	0.867330	0.202696
C39	C	0.917566	0.545919	0.100044
C40	C	0.931482	0.466533	0.085500
C41	C	0.757778	0.205141	0.266382
C42	C	0.771030	0.130455	0.252778
C43	C	0.859039	0.130461	0.161396
C44	C	0.845801	0.205145	0.174995
C45	C	0.795168	0.242480	0.227488
C46	C	0.883191	0.242484	0.136101
C47	C	0.869947	0.317166	0.149696
C48	C	0.819313	0.354508	0.202185
C49	C	0.781924	0.317161	0.241083
C50	C	0.933815	0.205153	0.083604
C51	C	0.971205	0.242492	0.044710
C52	C	0.957970	0.317170	0.058309
C53	C	0.907336	0.354512	0.110798
C54	C	0.995359	0.354517	0.019411
C55	C	0.982115	0.429198	0.033007
C56	C	0.894092	0.429194	0.124393
C57	C	0.572653	0.779840	0.142890
C58	C	0.469509	0.779844	0.142888
C59	C	0.213355	0.890212	0.108173
C60	C	0.320470	0.890286	0.107878
C61	C	0.462278	0.725020	0.092572
C62	C	0.354251	0.725720	0.092298
C63	C	0.401646	0.723444	0.227833
C64	C	0.507200	0.725524	0.228064
C65	C	1.180476	0.779814	0.142903
C66	C	1.283620	0.779810	0.142905
C67	C	0.798019	0.779832	-0.091111
C68	C	0.771362	0.779834	-0.170531
C69	C	0.835563	1.013735	0.185750
C70	C	0.821647	1.093121	0.200294
C71	C	1.103284	0.779815	-0.431746
C72	C	1.078205	0.779818	-0.506374
C73	C	0.910365	0.779825	-0.506359
C74	C	0.935425	0.779827	-0.431731
C75	C	1.031888	0.779820	-0.394430
C76	C	0.864029	0.779832	-0.394415
C77	C	0.889093	0.779829	-0.319792
C78	C	0.985553	0.779819	-0.282485
C79	C	1.056952	0.779817	-0.319807
C80	C	0.767574	0.779831	-0.431715
C81	C	0.696177	0.779837	-0.394399
C82	C	0.721234	0.779841	-0.319777
C83	C	0.817694	0.779831	-0.282470
C84	C	0.649835	0.779843	-0.282455
C85	C	0.674899	0.779840	-0.207832
C86	C	0.842758	0.779828	-0.207847
C87	C	0.955110	0.779822	0.376905
C88	C	0.981767	0.779820	0.456325
C89	C	1.221477	0.545906	0.100050
C90	C	1.338538	0.466516	0.085508
C91	C	0.996112	0.545914	0.334052
C92	C	1.036685	0.466527	0.398928
C93	C	1.300023	0.545902	0.334058
C94	C	1.443741	0.466509	0.398936
C95	C	0.453106	1.013752	-0.048265
C96	C	0.309388	1.093145	-0.113143
C97	C	0.531652	1.013747	0.185743
C98	C	0.414591	1.093138	0.200285
C99	C	0.757017	1.013740	-0.048258
C100	C	0.716444	1.093127	-0.113135
C101	C	1.318826	0.429237	0.032975
C102	C	1.428799	0.354651	0.019296
C103	C	1.558486	0.317341	0.058155
C104	C	1.578195	0.354628	0.110690
C105	C	1.468220	0.429217	0.124365
C106	C	1.130423	0.429242	0.475098
C107	C	1.168542	0.354659	0.536066
C108	C	1.112929	0.317357	0.520860
C109	C	1.019179	0.354649	0.444682
C110	C	0.981054	0.429236	0.383717
C111	C	1.555249	0.429224	0.383710
C112	C	1.690293	0.354637	0.444665
C113	C	1.713825	0.317332	0.520845
C114	C	1.602303	0.354624	0.536070
C115	C	1.467262	0.429215	0.475117
C116	C	0.197878	1.130439	-0.097915
C117	C	0.062831	1.205049	-0.158866
C118	C	0.039298	1.242358	-0.235045
C119	C	0.150820	1.205061	-0.250271
C120	C	0.285864	1.130458	-0.189320
C121	C	0.434299	1.130425	0.252812
C122	C	0.324315	1.205031	0.266474
C123	C	0.194627	1.242344	0.227613
C124	C	0.174919	1.205054	0.175081
C125	C	0.284900	1.130454	0.161415
C126	C	0.772083	1.130406	-0.097905
C127	C	0.733986	1.204989	-0.158858
C128	C	0.640243	1.242298	-0.235039
C129	C	0.584605	1.205012	-0.250268
C130	C	0.622709	1.130425	-0.189316
H131	H	0.740694	0.347561	0.283829
H132	H	0.320128	0.933520	0.142602
H133	H	1.175718	0.459605	0.487494
C134	C	1.023252	0.470271	-0.009776
N135	N	1.054234	0.501208	-0.042002
C136	C	1.271684	0.313642	0.619853
N137	N	1.349373	0.282747	0.682960
C138	C	0.604572	0.615363	0.123870
N139	N	0.711768	0.532788	0.147418
C140	C	0.346027	1.246028	0.324269
N141	N	0.362385	1.276903	0.367802
C142	C	1.344611	0.470218	0.491878
N143	N	1.252234	0.501099	0.504509
C144	C	0.804270	0.779821	-0.547395
N145	N	0.724358	0.779818	-0.578303
C146	C	0.408519	1.089431	-0.206086
N147	N	0.500899	1.058531	-0.218720
C148	C	0.073661	1.324401	0.242659
N149	N	-0.017445	1.386204	0.253996
H150	H	1.823791	0.256595	0.570470
H151	H	1.143984	0.256624	0.570508
H152	H	0.740574	0.100058	0.284452
C153	C	0.223731	1.089418	-0.014122
N154	N	0.243191	1.058532	0.048992
C155	C	1.812949	0.313620	0.427898
N156	N	1.905329	0.282726	0.415267
C157	C	0.032257	1.246095	0.132351
N158	N	-0.075195	1.277001	0.100174
H159	H	0.973906	0.324267	0.432312
C160	C	1.529395	0.470252	0.299918
N161	N	1.509932	0.501155	0.236808
H162	H	0.716548	0.235541	0.309127
H163	H	0.904730	0.459583	0.321697
C164	C	0.576946	1.089400	0.295564
N165	N	0.684382	1.058509	0.327765
H166	H	0.268836	1.100097	0.118645
H167	H	0.160825	0.933540	0.142988
H168	H	1.621485	0.324239	0.598103
C169	C	0.598339	1.324348	-0.302079
N170	N	0.566779	1.386150	-0.352570
C171	C	0.097204	0.948463	0.024487
N172	N	0.009722	0.992334	-0.038546
C173	C	0.875213	1.089374	-0.014111
N174	N	0.952900	1.058469	0.049000
C175	C	0.275053	0.948761	0.023664
N176	N	0.240845	0.992802	-0.039771
H177	H	1.412726	0.324302	-0.023482
C178	C	0.481540	1.246028	-0.334079
N179	N	0.403926	1.276913	-0.397210
H180	H	-0.027958	1.235403	-0.146454
C181	C	0.795198	1.245994	-0.142088
N182	N	0.841302	1.276877	-0.129455
H183	H	-0.070670	1.303105	-0.284668
C184	C	1.156735	0.779832	-0.547425
N185	N	1.215878	0.779848	-0.578346
H186	H	0.571305	0.779839	-0.312832
C187	C	1.209392	0.779814	-0.390713
N188	N	1.289310	0.779812	-0.359806
H189	H	0.852862	0.459594	0.167139
H190	H	0.747176	0.779829	-0.492477
H191	H	0.131642	1.235449	-0.312303
H192	H	0.808524	0.415322	0.213250
H193	H	0.356722	0.758768	0.267947
C194	C	1.026903	0.201414	-0.013029
N195	N	1.068862	0.170471	-0.056516
C196	C	1.051044	0.313443	-0.038333
N197	N	1.092988	0.282506	-0.081827
H198	H	0.900260	0.100057	0.118653
H199	H	0.944587	0.144348	0.072532
C200	C	1.679453	0.235284	0.043110
N201	N	1.770561	0.173474	0.031777
H202	H	0.577391	1.100082	-0.201727
H203	H	1.484291	0.459560	0.167145
C204	C	0.426414	0.616294	0.122830
N205	N	0.480768	0.533876	0.145824
C206	C	0.424625	0.776481	0.008196
N207	N	0.396247	0.815254	-0.055359
C208	C	0.510691	0.779520	0.278606
N209	N	0.513328	0.820190	0.316673
C210	C	0.245223	0.778361	0.007247
N211	N	0.163104	0.818014	-0.056815
H212	H	0.615383	0.644950	0.257696
C213	C	0.476636	0.613573	0.263283
N214	N	0.533107	0.530821	0.289979
H215	H	0.921297	0.779833	-0.177479
H216	H	1.683801	0.324239	0.142325
H217	H	1.005963	0.779812	-0.221721
H218	H	1.135491	0.779822	-0.289439
H219	H	0.617641	0.779839	-0.424777
H220	H	0.616762	0.779843	-0.177449
H221	H	1.213232	0.459614	0.001320
