data_functionalizedCrystal
_audit_creation_method	'MofGen! by Chris Wilmer'
_symmetry_space_group_name_H-M	'P1'
_symmetry_Int_Tables_number	1
_symmetry_cell_setting	triclinic
loop_
_symmetry_equiv_pos_as_xyz
  x,y,z
_cell_length_a	23.532407
_cell_length_b	15.944551
_cell_length_c	14.421503
_cell_angle_alpha	89.995753
_cell_angle_beta	90.003032
_cell_angle_gamma	83.173708
loop_
_atom_site_label
_atom_site_type_symbol
_atom_site_fract_x
_atom_site_fract_y
_atom_site_fract_z
O1	O	-0.755659	-0.101952	-0.076998
O2	O	-0.589852	-0.116705	-0.077025
O3	O	-0.677283	0.012985	-0.077003
O4	O	-0.668228	-0.231641	-0.077021
O5	O	-0.677267	0.012963	0.077221
O6	O	-0.589836	-0.116727	0.077198
O7	O	-0.755643	-0.101973	0.077225
Cu8	Cu	-0.672738	-0.109352	0.091294
Cu9	Cu	-0.672757	-0.109326	-0.091094
O10	O	-0.668212	-0.231663	0.077203
C11	C	-0.568627	-0.116340	0.000083
C12	C	-0.505406	-0.115211	0.000073
C13	C	-0.676899	0.044265	0.000109
C14	C	-0.675772	0.137501	0.000110
C15	C	-0.776868	-0.102338	0.000115
C16	C	-0.840090	-0.103468	0.000119
C17	C	-0.106572	-0.184874	0.000109
C18	C	-0.047168	-0.183824	0.000115
O19	O	-0.010674	-0.248403	0.000144
N20	N	-0.024243	-0.106724	0.000119
C21	C	-0.060726	-0.030668	0.000127
O22	O	-0.035772	0.035009	0.000132
C23	C	-0.120129	-0.031718	0.000128
C24	C	-0.143051	-0.108823	0.000114
C25	C	-0.129494	-0.261973	0.000097
C26	C	-0.188894	-0.263022	0.000089
C27	C	-0.225373	-0.186971	0.000094
C28	C	-0.202451	-0.109872	0.000107
C29	C	-0.156611	0.044337	0.000143
C30	C	-0.216018	0.043281	0.000144
C31	C	-0.238939	-0.033825	0.000131
C32	C	-0.298329	-0.034871	0.000105
N33	N	-0.321254	-0.111971	0.000100
C34	C	-0.284776	-0.188022	0.000095
C35	C	0.064025	-0.028468	0.000127
C36	C	0.123427	-0.027417	0.000119
C37	C	0.136981	-0.180574	0.000109
C38	C	0.077578	-0.181624	0.000110
C39	C	0.041100	-0.105569	0.000123
C40	C	-0.409521	-0.190219	0.000079
C41	C	-0.468927	-0.191261	0.000067
C42	C	-0.482476	-0.038104	0.000083
C43	C	-0.423075	-0.037062	0.000089
C44	C	-0.386599	-0.113126	0.000090
O45	O	-0.334859	0.029673	0.000080
O46	O	-0.309738	-0.253687	0.000103
C47	C	-0.668596	-0.262943	0.000089
C48	C	-0.669723	-0.356179	0.000082
N49	N	-0.672729	-0.109370	0.219575
C50	C	-0.618885	0.351879	0.000087
C51	C	-0.645294	0.413108	0.076133
C52	C	-0.673733	0.308210	0.000102
C53	C	-0.645322	0.413113	-0.075919
C54	C	-0.671760	0.473106	0.000091
C55	C	-0.700157	0.368211	0.076211
C56	C	-0.700178	0.368209	-0.075910
C57	C	-0.726627	0.429421	0.000155
C58	C	-0.674869	0.213217	0.000109
C59	C	-0.670629	0.568097	0.000090
C60	C	-0.632291	-0.169315	0.469218
C61	C	-0.683751	-0.185190	0.531028
C62	C	-0.672741	-0.109352	0.408736
C63	C	-0.621292	-0.093500	0.531020
C64	C	-0.672748	-0.109338	0.591458
C65	C	-0.724227	-0.125265	0.469185
C66	C	-0.661734	-0.033542	0.469172
C67	C	-0.713231	-0.049384	0.530954
C68	C	-0.672736	-0.109363	0.303475
C69	C	-0.672759	-0.109327	0.696717
N70	N	-0.672761	-0.109318	0.780625
H71	H	-0.487586	-0.254052	0.000056
H72	H	-0.379828	-0.252157	0.000083
N73	N	-0.587022	-0.236527	0.433314
H74	H	-0.595416	-0.293766	0.455819
H75	H	-0.587112	-0.235633	0.363289
H76	H	-0.772194	0.462964	0.000205
N77	N	-0.730895	0.341814	-0.161059
H78	H	-0.710146	0.357950	-0.218475
H79	H	-0.731746	0.278641	-0.160015
H80	H	-0.767749	-0.138743	0.442138
H81	H	-0.693069	-0.249295	0.558197
H82	H	0.142084	0.035370	0.000116
N83	N	-0.213613	-0.346186	0.000070
H84	H	-0.181483	-0.394197	0.000067
H85	H	-0.237962	-0.349974	0.057240
N86	N	-0.758591	0.017799	0.566644
H87	H	-0.797417	0.005719	0.544029
H88	H	-0.758074	0.017732	0.636671
N89	N	-0.649377	0.051347	0.433153
H90	H	-0.610481	0.063264	0.455607
H91	H	-0.649872	0.050819	0.363130
H92	H	-0.622123	0.433003	-0.140214
N93	N	-0.090155	-0.344005	0.000144
H94	H	-0.113699	-0.392999	0.000153
H95	H	-0.065202	-0.346934	-0.057014
N96	N	-0.563657	-0.075750	0.567002
H97	H	-0.537372	-0.068241	0.513044
H98	H	-0.568485	-0.022495	0.605544
N99	N	0.052857	-0.264786	0.000092
H100	H	0.084985	-0.312800	0.000085
H101	H	0.028510	-0.268574	0.057265
N102	N	-0.614556	0.439485	0.161277
H103	H	-0.641519	0.479766	0.199369
H104	H	-0.601031	0.387915	0.199565
H105	H	0.034327	0.033470	0.000129
N106	N	0.176331	-0.262603	0.000104
H107	H	0.217440	-0.250231	0.000109
H108	H	0.168912	-0.296234	0.057275
N109	N	-0.131899	0.127502	0.000162
H110	H	-0.164029	0.175512	0.000172
H111	H	-0.107548	0.131263	0.057339
H112	H	-0.512187	0.023814	0.000083
N113	N	-0.255362	0.125314	0.000164
H114	H	-0.231823	0.174313	0.000174
H115	H	-0.280305	0.128230	-0.057010
H116	H	-0.573358	0.318187	0.000156
N117	N	-0.398348	0.046099	0.000086
H118	H	-0.430474	0.094116	0.000084
H119	H	-0.373999	0.049865	0.057264
N120	N	-0.730855	0.341989	0.161465
H121	H	-0.731410	0.278749	0.160957
H122	H	-0.710271	0.358752	0.218778
