data_functionalizedCrystal
_audit_creation_method	'MofGen! by Chris Wilmer'
_symmetry_space_group_name_H-M	'P1'
_symmetry_Int_Tables_number	1
_symmetry_cell_setting	triclinic
loop_
_symmetry_equiv_pos_as_xyz
  x,y,z
_cell_length_a	14.908558
_cell_length_b	14.908178
_cell_length_c	12.827885
_cell_angle_alpha	86.668630
_cell_angle_beta	86.686309
_cell_angle_gamma	89.819838
loop_
_atom_site_label
_atom_site_type_symbol
_atom_site_fract_x
_atom_site_fract_y
_atom_site_fract_z
Zn1	Zn	1.354015	-0.437421	-0.651947
Zn2	Zn	1.345238	-0.587810	-0.466552
Zn3	Zn	1.203644	-0.428772	-0.467762
Zn4	Zn	1.194953	-0.579055	-0.631806
O5	O	1.274462	-0.508265	-0.554517
O6	O	1.478676	-0.464654	-0.635276
O7	O	1.326420	-0.566758	-0.320471
O8	O	1.230902	-0.304087	-0.501130
O9	O	1.472228	-0.575144	-0.499068
O10	O	1.341378	-0.310441	-0.636449
O11	O	1.222391	-0.449913	-0.321360
O12	O	1.076666	-0.441424	-0.481600
O13	O	1.216088	-0.560223	-0.780719
O14	O	1.070280	-0.551836	-0.602122
O15	O	1.332950	-0.456164	-0.795516
O16	O	1.317992	-0.712482	-0.479538
O17	O	1.207578	-0.706049	-0.600949
C18	C	1.040848	-0.494742	-0.539807
C19	C	0.940905	-0.488979	-0.533538
C20	C	0.803343	-0.423285	-0.462068
C21	C	0.897249	-0.428696	-0.467954
C22	C	0.890649	-0.543853	-0.593242
C23	C	0.796744	-0.538442	-0.587355
C24	C	0.753094	-0.478157	-0.521765
C25	C	0.659187	-0.472752	-0.515873
C26	C	0.652589	-0.587903	-0.641165
C27	C	0.746494	-0.593314	-0.647052
C28	C	1.260914	-0.741894	-0.537951
C29	C	1.255200	-0.841846	-0.530904
C30	C	1.359415	-1.036129	-0.658710
C31	C	1.354050	-1.130043	-0.652092
C32	C	1.239100	-1.123590	-0.511059
C33	C	1.244465	-1.029676	-0.517676
C34	C	1.304626	-0.985949	-0.591503
C35	C	1.309995	-0.892033	-0.598114
C36	C	1.195041	-0.885582	-0.457086
C37	C	1.189676	-0.979496	-0.450469
C38	C	1.508989	-0.521841	-0.569284
C39	C	1.608931	-0.527626	-0.575577
C40	C	1.274529	-0.508182	-0.827097
C41	C	1.274557	-0.508146	-0.943254
C42	C	1.288088	-0.273724	-0.571171
C43	C	1.293895	-0.173777	-0.578268
C44	C	1.332390	-0.456645	-1.002362
C45	C	1.332421	-0.456607	-1.122417
C46	C	1.274452	-0.508285	-0.283005
C47	C	1.274613	-0.508077	-0.166877
H48	H	0.611666	-0.632585	-0.689774
O49	O	1.374888	-0.844868	-0.677730
H50	H	1.358395	-0.861949	-0.757493
O51	O	1.413143	-1.184163	-0.724586
H52	H	1.399300	-1.256814	-0.707592
O53	O	0.951450	-0.369528	-0.403552
H54	H	0.905317	-0.326710	-0.356947
H55	H	1.150431	-0.844714	-0.402359
H56	H	1.408407	-1.000526	-0.718816
H57	H	0.782047	-0.642394	-0.700456
H58	H	1.381878	-0.412577	-0.964087
O59	O	1.124800	-1.026673	-0.370843
H60	H	1.055244	-1.004628	-0.385511
H61	H	1.381937	-0.412518	-1.173221
O62	O	1.174221	-1.170776	-0.431443
H63	H	1.104666	-1.148733	-0.446116
H64	H	1.225100	-0.552175	-1.116080
O65	O	0.937736	-0.608830	-0.664032
H66	H	1.011477	-0.603358	-0.658107
O67	O	1.208990	-0.566512	-0.993944
H68	H	1.220280	-0.638001	-0.969010
O69	O	0.612101	-0.407730	-0.445139
H70	H	0.662824	-0.370476	-0.404628
H71	H	0.767803	-0.374201	-0.408659
