data_functionalizedCrystal
_audit_creation_method	'MofGen! by Chris Wilmer'
_symmetry_space_group_name_H-M	'P1'
_symmetry_Int_Tables_number	1
_symmetry_cell_setting	triclinic
loop_
_symmetry_equiv_pos_as_xyz
  x,y,z
_cell_length_a	16.959454
_cell_length_b	16.625548
_cell_length_c	16.959447
_cell_angle_alpha	89.981950
_cell_angle_beta	90.021798
_cell_angle_gamma	89.997942
loop_
_atom_site_label
_atom_site_type_symbol
_atom_site_fract_x
_atom_site_fract_y
_atom_site_fract_z
Zn1	Zn	0.314643	1.232781	-0.446979
Zn2	Zn	0.814643	1.732781	0.053021
Zn3	Zn	0.446835	1.232740	-0.314821
Zn4	Zn	0.946835	1.732740	0.185179
Zn5	Zn	0.314677	1.097949	-0.314814
Zn6	Zn	0.814677	1.597949	0.185186
Zn7	Zn	0.446786	1.097964	-0.446957
Zn8	Zn	0.946786	1.597964	0.053043
O9	O	0.380735	1.165358	-0.380893
O10	O	0.880735	1.665358	0.119107
O11	O	0.332185	1.345608	-0.429460
O12	O	0.832185	1.845608	0.070540
O13	O	0.429340	1.214837	-0.204209
O14	O	0.929340	1.714837	0.295791
O15	O	0.204062	1.115845	-0.332353
O16	O	0.704062	1.615845	0.167647
O17	O	0.429306	1.345578	-0.332364
O18	O	0.929306	1.845578	0.167636
O19	O	0.204036	1.214906	-0.429454
O20	O	0.704036	1.714906	0.070546
O21	O	0.332244	1.115806	-0.204204
O22	O	0.832244	1.615806	0.295796
O23	O	0.332195	0.985118	-0.332331
O24	O	0.832195	1.485118	0.167669
O25	O	0.429221	1.115870	-0.557571
O26	O	0.929221	1.615870	-0.057571
O27	O	0.429255	0.985129	-0.429416
O28	O	0.929255	1.485129	0.070584
O29	O	0.332136	1.214920	-0.557587
O30	O	0.832136	1.714920	-0.057587
O31	O	0.557440	1.214851	-0.332342
O32	O	1.057440	1.714851	0.167658
O33	O	0.557403	1.115831	-0.429422
O34	O	1.057403	1.615831	0.070578
C35	C	0.380724	0.955867	-0.380871
C36	C	0.880724	1.455867	0.119129
C37	C	0.380738	0.866246	-0.380880
C38	C	0.880738	1.366246	0.119120
C39	C	0.174567	1.165378	-0.380905
C40	C	0.674567	1.665378	0.119095
C41	C	0.086710	1.165386	-0.380911
C42	C	0.586710	1.665386	0.119089
C43	C	-0.284781	1.217007	-0.431480
C44	C	0.215219	1.717007	0.068520
C45	C	-0.284750	1.113855	-0.330368
C46	C	0.215250	1.613855	0.169632
C47	C	-0.202204	1.113843	-0.330365
C48	C	0.297796	1.613843	0.169635
C49	C	-0.160943	1.165415	-0.380920
C50	C	0.339057	1.665415	0.119080
C51	C	-0.202227	1.216999	-0.431477
C52	C	0.297773	1.716999	0.068523
C53	C	-0.160913	1.062266	-0.279803
C54	C	0.339087	1.562266	0.220197
C55	C	-0.078362	1.062253	-0.279797
C56	C	0.421638	1.562253	0.220203
C57	C	-0.037099	1.113821	-0.330357
C58	C	0.462901	1.613821	0.169643
C59	C	-0.078389	1.165407	-0.380917
C60	C	0.421611	1.665407	0.119083
C61	C	-0.037128	1.216979	-0.431471
C62	C	0.462872	1.716979	0.068529
C63	C	-0.078416	1.268561	-0.482036
C64	C	0.421584	1.768561	0.017964
C65	C	-0.160965	1.268568	-0.482037
C66	C	0.339035	1.768568	0.017963
C67	C	0.045449	1.113814	-0.330356
C68	C	0.545449	1.613814	0.169644
C69	C	0.045426	1.216970	-0.431468
C70	C	0.545426	1.716970	0.068532
C71	C	0.380743	0.538071	-0.380914
C72	C	0.880743	1.038071	0.119086
C73	C	0.380740	0.629379	-0.380902
C74	C	0.880740	1.129379	0.119098
C75	C	0.380741	0.702156	-0.380896
C76	C	0.880741	1.202156	0.119104
C77	C	0.380737	0.793470	-0.380886
C78	C	0.880737	1.293470	0.119114
C79	C	0.586101	1.165361	-0.380897
C80	C	1.086101	1.665361	0.119103
C81	C	0.673958	1.165435	-0.380926
C82	C	1.173958	1.665435	0.119074
C83	C	0.380669	1.165401	-0.587061
C84	C	0.880669	1.665401	-0.087061
C85	C	0.380641	1.165420	-0.674918
C86	C	0.880641	1.665420	-0.174918
C87	C	0.380747	1.375667	-0.380915
C88	C	0.880747	1.875667	0.119085
C89	C	0.380752	1.465288	-0.380925
C90	C	0.880752	1.965288	0.119075
C91	C	0.330005	1.113930	-1.046397
C92	C	0.830005	1.613930	-0.546397
C93	C	0.431112	1.217052	-1.046390
C94	C	0.931112	1.717052	-0.546390
C95	C	0.431130	1.217038	-0.963844
C96	C	0.931130	1.717038	-0.463844
C97	C	0.380586	1.165468	-0.922571
C98	C	0.880586	1.665468	-0.422571
C99	C	0.330023	1.113913	-0.963844
C100	C	0.830023	1.613913	-0.463844
C101	C	0.481698	1.268587	-0.922565
C102	C	0.981698	1.768587	-0.422565
C103	C	0.481719	1.268574	-0.840014
C104	C	0.981719	1.768574	-0.340014
C105	C	0.431170	1.217008	-0.798739
C106	C	0.931170	1.717008	-0.298739
C107	C	0.380604	1.165451	-0.840017
C108	C	0.880604	1.665451	-0.340017
C109	C	0.330060	1.113882	-0.798744
C110	C	0.830060	1.613882	-0.298744
C111	C	0.279490	1.062328	-0.840021
C112	C	0.779490	1.562328	-0.340021
C113	C	0.279474	1.062347	-0.922569
C114	C	0.779474	1.562347	-0.422569
C115	C	0.431186	1.216989	-0.716191
C116	C	0.931186	1.716989	-0.216191
C117	C	0.330079	1.113864	-0.716191
C118	C	0.830079	1.613864	-0.216191
C119	C	0.380744	1.165362	-0.175527
C120	C	0.880744	1.665362	0.324473
C121	C	0.380549	1.165499	-0.087670
C122	C	0.880549	1.665499	0.412330
H123	H	0.079015	1.258961	-0.472643
H124	H	0.579015	1.758961	0.027357
N125	N	0.224971	1.006715	-0.795499
N126	N	0.724971	1.506715	-0.295499
H127	H	0.192930	0.974060	-0.834169
H128	H	0.692930	1.474060	-0.334169
H129	H	0.257152	0.969390	-0.761242
H130	H	0.757152	1.469390	-0.261242
N131	N	0.224960	1.006722	-0.967087
N132	N	0.724960	1.506722	-0.467087
H133	H	0.232630	1.014548	-1.025644
H134	H	0.732630	1.514548	-0.525644
H135	H	0.237287	0.949141	-0.952635
H136	H	0.737287	1.449141	-0.452635
N137	N	0.275559	1.058238	-0.671686
N138	N	0.775559	1.558238	-0.171686
H139	H	0.307684	1.020858	-0.637429
H140	H	0.807684	1.520858	-0.137429
H141	H	0.238948	1.091057	-0.637490
H142	H	0.738948	1.591057	-0.137490
N143	N	-0.205505	1.324201	-0.536559
N144	N	0.294495	1.824201	-0.036559
H145	H	-0.191131	1.381807	-0.524289
H146	H	0.308869	1.881807	-0.024289
H147	H	-0.191151	1.311623	-0.593015
H148	H	0.308849	1.811623	-0.093015
N149	N	-0.329243	1.058228	-0.275844
N150	N	0.170757	1.558228	0.224156
H151	H	-0.314854	1.070736	-0.219369
H152	H	0.185146	1.570736	0.280631
H153	H	-0.387789	1.066084	-0.283581
H154	H	0.112211	1.566084	0.216419
H155	H	0.288830	1.071959	-1.080008
H156	H	0.788830	1.571959	-0.580008
N157	N	0.485636	1.272659	-1.090901
N158	N	0.985636	1.772659	-0.590901
H159	H	0.477956	1.264843	-1.149458
H160	H	0.977956	1.764843	-0.649458
H161	H	0.473345	1.330246	-1.076487
H162	H	0.973345	1.830246	-0.576487
H163	H	0.522857	1.310563	-0.956175
H164	H	1.022857	1.810563	-0.456175
H165	H	0.522897	1.310551	-0.806413
H166	H	1.022897	1.810551	-0.306413
H167	H	0.472354	1.258969	-0.682587
H168	H	0.972354	1.758969	-0.182587
H169	H	-0.318400	1.259002	-0.472652
H170	H	0.181600	1.759002	0.027348
N171	N	-0.033910	1.324190	-0.536556
N172	N	0.466090	1.824190	-0.036556
H173	H	0.024648	1.316356	-0.528875
H174	H	0.524648	1.816356	-0.028875
H175	H	-0.048351	1.311653	-0.593010
H176	H	0.451649	1.811653	-0.093010
H177	H	-0.194510	1.020281	-0.238639
H178	H	0.305490	1.520281	0.261361
H179	H	-0.044752	1.020251	-0.238625
H180	H	0.455248	1.520251	0.261375
H181	H	0.079063	1.071820	-0.289185
H182	H	0.579063	1.571820	0.210815
