data_functionalizedCrystal
_audit_creation_method	'MofGen! by Chris Wilmer'
_symmetry_space_group_name_H-M	'P1'
_symmetry_Int_Tables_number	1
_symmetry_cell_setting	triclinic
loop_
_symmetry_equiv_pos_as_xyz
  x,y,z
_cell_length_a	15.944493
_cell_length_b	15.944493
_cell_length_c	14.048226
_cell_angle_alpha	89.999441
_cell_angle_beta	89.994105
_cell_angle_gamma	83.475044
loop_
_atom_site_label
_atom_site_type_symbol
_atom_site_fract_x
_atom_site_fract_y
_atom_site_fract_z
O1	O	1.114534	0.108105	-0.079135
O2	O	0.869975	0.121512	-0.079139
O3	O	0.998958	-0.007471	-0.079145
O4	O	0.985551	0.237088	-0.079129
O5	O	0.998943	-0.007479	0.079177
O6	O	0.869960	0.121505	0.079183
O7	O	1.114519	0.108097	0.079186
Zn8	Zn	0.992237	0.114800	0.104321
Zn9	Zn	0.992257	0.114810	-0.104274
O10	O	0.985535	0.237081	0.079192
C11	C	0.838673	0.120961	0.000022
C12	C	0.745424	0.119318	0.000020
C13	C	0.509649	0.195240	0.000024
C14	C	0.459091	0.154294	0.078086
C15	C	0.574704	0.116273	0.000021
C16	C	0.459111	0.154283	-0.078006
C17	C	0.409795	0.113339	0.000019
C18	C	0.525375	0.075349	0.078148
C19	C	0.525398	0.075349	-0.078015
C20	C	0.474873	0.034346	0.000067
C21	C	0.669704	0.117966	0.000024
C22	C	0.314798	0.111640	0.000023
C23	C	0.998403	-0.038769	0.000012
C24	C	0.996760	-0.132018	-0.000000
C25	C	1.072682	-0.367793	0.000019
C26	C	1.031748	-0.418349	-0.078042
C27	C	0.993716	-0.302738	0.000011
C28	C	1.031714	-0.418333	0.078050
C29	C	0.990781	-0.467647	0.000027
C30	C	0.952802	-0.352066	-0.078114
C31	C	0.952780	-0.352046	0.078049
C32	C	0.911788	-0.402569	-0.000031
C33	C	0.995408	-0.207739	0.000002
C34	C	0.989082	-0.562644	0.000030
C35	C	1.145821	0.108649	0.000024
C36	C	1.239069	0.110292	0.000019
C37	C	0.986091	0.268379	0.000034
C38	C	0.987734	0.361627	0.000039
N39	N	0.992229	0.114792	0.246682
N40	N	0.992272	0.114810	-0.246635
C41	C	1.049361	0.057702	0.296497
C42	C	1.049366	0.057702	0.396155
C43	C	0.992244	0.114796	0.445995
C44	C	0.935106	0.171889	0.396173
C45	C	0.935097	0.171885	0.296517
C46	C	0.935130	0.171895	0.603887
C47	C	0.935140	0.171901	0.703550
C48	C	1.049400	0.057712	0.703525
C49	C	1.049390	0.057708	0.603869
C50	C	0.992253	0.114802	0.554054
H51	H	1.065103	-0.447299	-0.144037
N52	N	0.873500	0.233475	0.449928
H53	H	0.837305	0.269640	0.403245
H54	H	0.836378	0.201304	0.491290
H55	H	0.919479	-0.323236	-0.144179
N56	N	0.454393	-0.055819	0.000107
H57	H	0.508511	-0.095454	0.000686
H58	H	0.420023	-0.065965	0.058524
N59	N	1.110969	-0.003894	0.242759
H60	H	1.078870	-0.041101	0.201428
H61	H	1.148144	0.028266	0.201451
H62	H	0.843715	-0.418021	-0.000075
N63	N	0.530348	0.285333	0.000119
H64	H	0.505182	0.315471	-0.058231
H65	H	0.506099	0.314995	0.059182
H66	H	1.065073	-0.447274	0.144040
H67	H	0.554357	0.042029	-0.144017
H68	H	0.430172	0.187651	-0.143993
H69	H	1.095887	0.011214	0.436714
H70	H	1.095908	0.011221	0.563289
H71	H	0.888573	0.218373	0.255959
N72	N	1.162778	-0.347105	-0.000088
H73	H	1.163272	-0.283820	0.000513
H74	H	1.192861	-0.372324	0.058266
H75	H	0.919454	-0.323081	0.144046
N76	N	1.111029	-0.003868	0.757247
H77	H	1.102367	0.004793	0.827941
H78	H	1.101343	-0.063464	0.739831
N79	N	0.873539	0.233487	0.757311
H80	H	0.837340	0.269654	0.710633
H81	H	0.836420	0.201316	0.798678
H82	H	0.430140	0.187640	0.144085
N83	N	0.563550	0.031199	0.165657
H84	H	0.626716	0.032621	0.165133
H85	H	0.538758	0.060809	0.224500
N86	N	0.873501	0.233470	0.550155
H87	H	0.837317	0.269642	0.596848
H88	H	0.905647	0.270617	0.508796
