data_functionalizedCrystal
_audit_creation_method	'MofGen! by Chris Wilmer'
_symmetry_space_group_name_H-M	'P1'
_symmetry_Int_Tables_number	1
_symmetry_cell_setting	triclinic
loop_
_symmetry_equiv_pos_as_xyz
  x,y,z
_cell_length_a	12.759395
_cell_length_b	18.215406
_cell_length_c	18.215399
_cell_angle_alpha	89.981825
_cell_angle_beta	90.019732
_cell_angle_gamma	90.003052
loop_
_atom_site_label
_atom_site_type_symbol
_atom_site_fract_x
_atom_site_fract_y
_atom_site_fract_z
Zn1	Zn	-1.606352	-0.293026	-0.416164
Zn2	Zn	-1.606302	-0.416097	-0.293119
Zn3	Zn	-1.430660	-0.293045	-0.293111
Zn4	Zn	-1.430692	-0.416052	-0.416144
O5	O	-1.518502	-0.354555	-0.354634
O6	O	-1.753367	-0.309363	-0.399853
O7	O	-1.582968	-0.399801	-0.190133
O8	O	-1.453974	-0.190059	-0.309440
O9	O	-1.753330	-0.399783	-0.309452
O10	O	-1.583054	-0.190044	-0.399846
O11	O	-1.453925	-0.309396	-0.190128
O12	O	-1.283643	-0.309351	-0.309421
O13	O	-1.454028	-0.399705	-0.519131
O14	O	-1.283667	-0.399724	-0.399812
O15	O	-1.583085	-0.309318	-0.519146
O16	O	-1.582999	-0.519075	-0.309433
O17	O	-1.453979	-0.519042	-0.399819
C18	C	-1.245534	-0.354535	-0.354614
C19	C	-1.128757	-0.354544	-0.354622
C20	C	-0.909361	-0.260552	-0.448928
C21	C	-0.964247	-0.213545	-0.496064
C22	C	-1.073968	-0.213536	-0.496054
C23	C	-1.128807	-0.260540	-0.448904
C24	C	-1.073921	-0.307547	-0.401768
C25	C	-0.964197	-0.307549	-0.401782
C26	C	-1.073872	-0.401551	-0.307486
C27	C	-0.964150	-0.401558	-0.307492
C28	C	-1.128710	-0.448556	-0.260337
C29	C	-1.073825	-0.495560	-0.213196
C30	C	-0.964097	-0.495567	-0.213208
C31	C	-0.909265	-0.448565	-0.260356
C32	C	-0.792535	-0.354568	-0.354650
C33	C	-0.909312	-0.354554	-0.354641
C34	C	-1.518515	-0.545761	-0.354640
C35	C	-1.518617	-0.627560	-0.354668
C36	C	-1.518566	-0.354504	-0.546587
C37	C	-1.518593	-0.354483	-0.628386
C38	C	-1.518516	-0.162602	-0.354645
C39	C	-1.518523	-0.080803	-0.354649
C40	C	-1.451391	0.107409	-0.401717
C41	C	-1.451409	0.184268	-0.401721
C42	C	-1.585756	0.184222	-0.307598
C43	C	-1.585743	0.107365	-0.307597
C44	C	-1.518555	0.068960	-0.354655
C45	C	-1.518585	0.222676	-0.354661
C46	C	-1.518605	0.306010	-0.354666
C47	C	-1.518537	-0.014379	-0.354652
C48	C	-1.585817	-0.307375	-0.816589
C49	C	-1.585829	-0.307353	-0.893448
C50	C	-1.451443	-0.401477	-0.893421
C51	C	-1.451426	-0.401494	-0.816564
C52	C	-1.518619	-0.354444	-0.778150
C53	C	-1.518648	-0.354405	-0.931866
C54	C	-1.518662	-0.354383	-1.015200
C55	C	-1.518605	-0.354466	-0.694811
C56	C	-1.518498	-0.354553	-0.163428
C57	C	-1.518674	-0.354367	-0.081630
H58	H	-0.919585	-0.175276	-0.534454
C59	C	-1.285832	-0.429708	-0.190340
C60	C	-1.249318	-0.448555	-0.260323
H61	H	-1.360291	-0.429714	-0.190331
H62	H	-1.261002	-0.382205	-0.177702
H63	H	-1.260979	-0.464434	-0.155528
H64	H	-1.274165	-0.413826	-0.295135
H65	H	-1.274159	-0.496065	-0.272971
H66	H	-1.396739	-0.439785	-0.924707
C67	C	-1.197357	-0.114553	-0.506426
C68	C	-1.134306	-0.161867	-0.547866
H69	H	-1.234611	-0.082660	-0.538414
H70	H	-1.154523	-0.086363	-0.474422
H71	H	-1.245711	-0.142552	-0.478345
H72	H	-1.085947	-0.133868	-0.575942
H73	H	-1.177144	-0.190060	-0.579882
H74	H	-1.396698	-0.439823	-0.785266
H75	H	-0.819924	-0.448557	-0.260361
H76	H	-1.640547	-0.269023	-0.924742
H77	H	-1.640527	-0.269061	-0.785315
C78	C	-0.752208	-0.330593	-0.467580
C79	C	-0.788753	-0.260559	-0.448933
H80	H	-0.677749	-0.330596	-0.467578
H81	H	-0.777055	-0.343370	-0.515045
H82	H	-0.777022	-0.365307	-0.432753
H83	H	-0.763946	-0.225845	-0.483763
H84	H	-0.763895	-0.247773	-0.401460
C85	C	-1.286024	-0.279383	-0.518877
C86	C	-1.249415	-0.260533	-0.448901
H87	H	-1.360483	-0.279375	-0.518875
H88	H	-1.261221	-0.326889	-0.531516
H89	H	-1.261209	-0.244661	-0.553696
H90	H	-1.274224	-0.295258	-0.414083
H91	H	-1.274229	-0.213020	-0.436253
C92	C	-1.197228	-0.594530	-0.202806
C93	C	-1.134107	-0.547222	-0.161376
H94	H	-1.234451	-0.626420	-0.170812
H95	H	-1.154445	-0.622724	-0.234816
H96	H	-1.245609	-0.566526	-0.230879
H97	H	-1.085721	-0.575225	-0.133307
H98	H	-1.176893	-0.519025	-0.129353
H99	H	-0.919415	-0.533849	-0.174827
C100	C	-1.391711	-0.010388	-0.443508
C101	C	-1.377546	0.065192	-0.453447
H102	H	-1.346118	-0.036447	-0.475444
H103	H	-1.462296	-0.022985	-0.454282
H104	H	-1.376309	-0.022990	-0.394059
H105	H	-1.392956	0.077795	-0.502895
H106	H	-1.306946	0.077795	-0.442678
C107	C	-1.718548	0.176457	-0.214559
C108	C	-1.659597	0.226439	-0.255865
H109	H	-1.764136	0.202520	-0.182622
H110	H	-1.672756	0.146476	-0.186411
H111	H	-1.758746	0.146487	-0.246632
H112	H	-1.619393	0.256406	-0.223792
H113	H	-1.705395	0.256432	-0.284015
C114	C	-1.318602	0.176587	-0.494750
C115	C	-1.377575	0.226530	-0.453449
H116	H	-1.273015	0.202680	-0.526682
H117	H	-1.364380	0.146614	-0.522901
H118	H	-1.278401	0.146605	-0.462672
H119	H	-1.417781	0.256509	-0.485527
H120	H	-1.331791	0.256516	-0.425296
C121	C	-1.727116	0.020971	-0.297441
C122	C	-1.659645	0.065123	-0.255890
H123	H	-1.772762	-0.005096	-0.265528
H124	H	-1.687105	-0.012918	-0.325438
H125	H	-1.767251	0.050986	-0.329527
H126	H	-1.619504	0.035107	-0.223807
H127	H	-1.699659	0.099016	-0.227880
