data_functionalizedCrystal
_audit_creation_method	'MofGen! by Chris Wilmer'
_symmetry_space_group_name_H-M	'P1'
_symmetry_Int_Tables_number	1
_symmetry_cell_setting	triclinic
loop_
_symmetry_equiv_pos_as_xyz
  x,y,z
_cell_length_a	19.188930
_cell_length_b	19.188924
_cell_length_c	13.596369
_cell_angle_alpha	89.991944
_cell_angle_beta	89.980792
_cell_angle_gamma	83.143372
loop_
_atom_site_label
_atom_site_type_symbol
_atom_site_fract_x
_atom_site_fract_y
_atom_site_fract_z
O1	O	0.926143	0.087169	-0.082112
O2	O	0.722832	0.098903	-0.082045
O3	O	0.830357	-0.008620	-0.082069
O4	O	0.818618	0.194692	-0.082088
O5	O	0.830347	-0.008625	0.081514
O6	O	0.722821	0.098898	0.081538
O7	O	0.926133	0.087163	0.081471
Zn8	Zn	0.824475	0.093030	0.107477
Zn9	Zn	0.824489	0.093037	-0.108051
O10	O	0.818607	0.194687	0.081495
C11	C	0.696815	0.098521	-0.000245
C12	C	0.619311	0.097380	-0.000219
C13	C	0.574385	0.160471	-0.000241
C14	C	0.501562	0.159399	-0.000251
C15	C	0.473667	0.095233	-0.000260
C16	C	0.518602	0.032134	-0.000233
C17	C	0.591424	0.033207	-0.000213
N18	N	0.365691	0.046188	-0.055970
N19	N	0.296513	0.045172	-0.055991
C20	C	0.254258	0.091995	-0.000320
N21	N	0.283794	0.139882	0.055361
N22	N	0.352979	0.140899	0.055378
C23	C	0.394704	0.094062	-0.000282
C24	C	0.130368	0.153928	-0.000352
C25	C	0.057543	0.152854	-0.000356
C26	C	0.074585	0.025586	-0.000348
C27	C	0.147409	0.026663	-0.000334
C28	C	0.175295	0.090835	-0.000340
C29	C	0.829973	-0.034634	-0.000276
C30	C	0.828834	-0.112138	-0.000273
C31	C	0.828308	-0.148534	-0.089443
C32	C	0.827228	-0.221357	-0.089450
C33	C	0.826688	-0.257783	-0.000283
C34	C	0.827210	-0.221378	0.088898
C35	C	0.828283	-0.148556	0.088903
N36	N	0.864731	-0.377448	0.066070
N37	N	0.863714	-0.446627	0.066059
C38	C	0.823454	-0.477192	-0.000291
N39	N	0.784259	-0.435967	-0.066645
N40	N	0.785280	-0.366783	-0.066638
C41	C	0.825524	-0.336746	-0.000278
C42	C	0.821756	-0.592550	-0.089474
C43	C	0.820672	-0.665374	-0.089477
C44	C	0.820661	-0.665394	0.088873
C45	C	0.821738	-0.592571	0.088874
C46	C	0.822289	-0.556154	-0.000302
C47	C	0.952149	0.087546	-0.000331
C48	C	1.029654	0.088687	-0.000364
C49	C	0.818992	0.220700	-0.000300
C50	C	0.820131	0.298205	-0.000309
N51	N	0.824471	0.093024	0.254568
N52	N	0.824499	0.093037	-0.255143
C53	C	0.824488	0.093038	0.655859
C54	C	0.824481	0.093036	0.544208
C55	C	0.824480	0.093032	0.455218
C56	C	0.824472	0.093029	0.343559
H57	H	0.597086	0.212725	-0.000248
C58	C	0.828865	-0.108520	0.187000
N59	N	0.829306	-0.078364	0.260889
H60	H	0.820240	-0.695006	-0.162093
H61	H	0.183988	-0.024713	-0.000322
C62	C	0.452135	0.228807	-0.000286
N63	N	0.414908	0.281085	-0.000318
C64	C	0.820066	-0.705459	0.186959
N65	N	0.819618	-0.735639	0.260839
H66	H	0.828755	-0.118888	-0.162057
H67	H	0.826796	-0.250996	-0.162064
C68	C	0.822324	-0.552535	0.186968
N69	N	0.822764	-0.522380	0.260858
H70	H	0.495885	-0.020111	-0.000254
H71	H	0.153075	0.206181	-0.000343
H72	H	0.826768	-0.251040	0.161499
H73	H	0.822201	-0.562898	-0.162087
H74	H	0.628003	-0.018171	-0.000196
H75	H	0.051874	-0.026659	-0.000417
C76	C	0.008124	0.222263	-0.000366
N77	N	-0.029099	0.274543	-0.000370
