data_functionalizedCrystal
_audit_creation_method	'MofGen! by Chris Wilmer'
_symmetry_space_group_name_H-M	'P1'
_symmetry_Int_Tables_number	1
_symmetry_cell_setting	triclinic
loop_
_symmetry_equiv_pos_as_xyz
  x,y,z
_cell_length_a	12.837943
_cell_length_b	15.944551
_cell_length_c	11.892095
_cell_angle_alpha	93.888509
_cell_angle_beta	85.689438
_cell_angle_gamma	89.163839
loop_
_atom_site_label
_atom_site_type_symbol
_atom_site_fract_x
_atom_site_fract_y
_atom_site_fract_z
O1	O	1.382096	0.213524	-0.093988
O2	O	1.882096	0.713524	0.406012
O3	O	1.080290	0.202737	-0.093995
O4	O	1.580290	0.702737	0.406005
O5	O	1.239434	0.086515	-0.093981
O6	O	1.739434	0.586515	0.406019
O7	O	1.222952	0.329745	-0.094002
O8	O	1.722952	0.829745	0.405998
O9	O	1.226164	0.096189	0.094025
O10	O	1.726164	0.596189	0.594025
O11	O	1.067021	0.212411	0.094012
O12	O	1.567021	0.712411	0.594012
O13	O	1.368826	0.223198	0.094018
O14	O	1.868826	0.723198	0.594018
Zn15	Zn	1.215817	0.219340	0.123865
Zn16	Zn	1.715817	0.719340	0.623865
Zn17	Zn	1.233299	0.206594	-0.123842
Zn18	Zn	1.733299	0.706594	0.376158
O19	O	1.209683	0.339419	0.094005
O20	O	1.709683	0.839419	0.594005
C21	C	1.035034	0.203930	0.000008
C22	C	1.535034	0.703930	0.500008
C23	C	0.919957	0.193062	0.000006
C24	C	1.419957	0.693062	0.500006
C25	C	0.679007	0.323714	0.000011
C26	C	1.179007	0.823714	0.500011
C27	C	0.570881	0.313507	0.000010
C28	C	1.070881	0.813507	0.500010
C29	C	0.595575	0.162440	0.000010
C30	C	1.095575	0.662440	0.500010
C31	C	0.703701	0.172648	0.000012
C32	C	1.203701	0.672648	0.500012
C33	C	0.745413	0.253287	0.000010
C34	C	1.245413	0.753287	0.500010
C35	C	0.853542	0.263494	0.000003
C36	C	1.353542	0.763494	0.500003
C37	C	0.878234	0.112428	0.000012
C38	C	1.378234	0.612428	0.500012
C39	C	0.770107	0.102221	0.000011
C40	C	1.270107	0.602221	0.500011
C41	C	1.232115	0.060004	0.000022
C42	C	1.732115	0.560004	0.500022
C43	C	1.230063	-0.033407	0.000023
C44	C	1.730063	0.466593	0.500023
C45	C	1.126515	-0.256548	0.000005
C46	C	1.626515	0.243452	0.500005
C47	C	1.168058	-0.308949	0.092705
C48	C	1.668058	0.191051	0.592705
C49	C	1.226352	-0.204430	0.000014
C50	C	1.726352	0.295570	0.500014
C51	C	1.181163	-0.318468	-0.092655
C52	C	1.681163	0.181532	0.407345
C53	C	1.222761	-0.369631	0.000001
C54	C	1.722761	0.130369	0.500001
C55	C	1.267917	-0.255596	0.092790
C56	C	1.767917	0.244404	0.592790
C57	C	1.281014	-0.265115	-0.092653
C58	C	1.781014	0.234885	0.407347
C59	C	1.322628	-0.317491	0.000069
C60	C	1.822628	0.182509	0.500069
C61	C	1.228418	-0.109262	0.000023
C62	C	1.728418	0.390738	0.500023
C63	C	1.220702	-0.464796	0.000000
C64	C	1.720702	0.035204	0.500000
C65	C	1.414082	0.222005	0.000013
C66	C	1.914082	0.722005	0.500013
C67	C	1.529160	0.232872	0.000008
C68	C	2.029160	0.732872	0.500008
C69	C	1.217002	0.365931	-0.000001
C70	C	1.717002	0.865931	0.499999
C71	C	1.219054	0.459340	-0.000009
C72	C	1.719054	0.959340	0.499991
N73	N	1.203893	0.228039	0.292918
N74	N	1.703893	0.728039	0.792918
N75	N	1.245231	0.197890	-0.292895
N76	N	1.745231	0.697890	0.207105
C77	C	1.328203	0.137313	0.529576
C78	C	1.828203	0.637313	1.029576
C79	C	1.319876	0.143400	0.647918
C80	C	1.819876	0.643400	1.147918
C81	C	1.178907	0.246295	0.647944
C82	C	1.678907	0.746295	1.147944
C83	C	1.187234	0.240208	0.529603
C84	C	1.687234	0.740208	1.029603
C85	C	1.261886	0.185716	0.470423
C86	C	1.761886	0.685716	0.970423
C87	C	1.270217	0.179634	0.352080
C88	C	1.770217	0.679634	0.852080
C89	C	1.129244	0.282524	0.352108
C90	C	1.629244	0.782524	0.852108
C91	C	1.120917	0.288611	0.470449
C92	C	1.620917	0.788611	0.970449
H93	H	0.561587	0.096792	0.000105
H94	H	1.061587	0.596792	0.500105
H95	H	0.736129	0.036567	0.000025
H96	H	1.236129	0.536567	0.500025
C97	C	0.939386	-0.018161	-0.096640
C98	C	1.439386	0.481839	0.403360
C99	C	0.951230	0.035006	0.000009
C100	C	1.451230	0.535006	0.500009
H101	H	0.984456	-0.065953	-0.096646
H102	H	1.484456	0.434047	0.403354
H103	H	0.869026	-0.035775	-0.096627
H104	H	1.369026	0.464225	0.403373
H105	H	0.956661	0.011188	-0.162193
H106	H	1.456661	0.511188	0.337807
H107	H	0.933948	0.005660	0.065563
H108	H	1.433948	0.505660	0.565563
H109	H	1.021605	0.052620	0.000007
H110	H	1.521605	0.552620	0.500007
H111	H	1.388994	0.092949	0.481392
H112	H	1.888994	0.592949	0.981392
H113	H	1.075247	0.321940	0.303932
H114	H	1.575247	0.821940	0.803932
C115	C	1.005691	-0.176778	-0.097010
C116	C	1.505691	0.323222	0.402990
C117	C	1.014638	-0.220526	0.000114
C118	C	1.514638	0.279474	0.500114
H119	H	0.936622	-0.154546	-0.096941
H120	H	1.436622	0.345454	0.403059
H121	H	1.053841	-0.132116	-0.097722
H122	H	1.553841	0.367884	0.402278
H123	H	1.020528	-0.214010	-0.162235
H124	H	1.520528	0.285990	0.337765
H125	H	0.999809	-0.183292	0.065340
H126	H	1.499809	0.316708	0.565340
H127	H	0.966474	-0.265194	0.000837
H128	H	1.466474	0.234806	0.500837
C129	C	1.457343	-0.407010	-0.096994
C130	C	1.957343	0.092990	0.403006
C131	C	1.434604	-0.353274	0.000110
C132	C	1.934604	0.146726	0.500110
H133	H	1.526478	-0.429088	-0.096973
H134	H	2.026478	0.070912	0.403027
H135	H	1.409440	-0.451848	-0.097631
H136	H	1.909440	0.048152	0.402369
H137	H	1.451548	-0.376530	-0.162234
H138	H	1.951548	0.123470	0.337766
H139	H	1.440391	-0.383755	0.065351
H140	H	1.940391	0.116245	0.565351
H141	H	1.482520	-0.308429	0.000758
H142	H	1.982520	0.191571	0.500758
C143	C	1.115449	0.388678	0.684395
C144	C	1.615449	0.888678	1.184395
C145	C	1.096839	0.306180	0.712996
C146	C	1.596839	0.806180	1.212996
H147	H	1.064775	0.425644	0.724549
H148	H	1.564775	0.925644	1.224549
H149	H	1.183251	0.404366	0.703791
H150	H	1.683251	0.904366	1.203791
H151	H	1.110923	0.391973	0.605447
H152	H	1.610923	0.891973	1.105447
H153	H	1.101373	0.302883	0.791944
H154	H	1.601373	0.802883	1.291944
H155	H	1.029020	0.290487	0.693608
H156	H	1.529020	0.790487	1.193608
C157	C	0.779466	0.427802	0.096648
C158	C	1.279466	0.927802	0.596648
C159	C	0.724867	0.412349	0.000003
C160	C	1.224867	0.912349	0.500003
H161	H	0.807781	0.482521	0.096637
H162	H	1.307781	0.982521	0.596637
H163	H	0.733170	0.424059	0.162197
H164	H	1.233170	0.924059	0.662197
H165	H	0.834487	0.387313	0.096641
H166	H	1.334487	0.887313	0.596641
H167	H	0.669840	0.452834	0.000014
H168	H	1.169840	0.952834	0.500014
H169	H	0.771167	0.416100	-0.065563
H170	H	1.271167	0.916100	0.434437
H171	H	1.373877	0.103984	0.696077
H172	H	1.873877	0.603984	1.196077
H173	H	1.120299	-0.328402	0.171073
H174	H	1.620299	0.171598	0.671073
C175	C	1.057486	0.430999	0.506885
C176	C	1.557486	0.930999	1.006885
C177	C	1.038859	0.348506	0.535499
C178	C	1.538859	0.848506	1.035499
H179	H	1.006820	0.467975	0.547037
H180	H	1.506820	0.967975	1.047037
H181	H	1.125292	0.446679	0.526276
H182	H	1.625292	0.946679	1.026276
H183	H	1.052959	0.434289	0.427936
H184	H	1.552959	0.934289	0.927936
H185	H	1.043394	0.345214	0.614447
H186	H	1.543394	0.845214	1.114447
H187	H	0.971035	0.332821	0.516116
H188	H	1.471035	0.832821	1.016116
C189	C	1.318817	-0.130865	0.197781
C190	C	1.818817	0.369135	0.697781
C191	C	1.317394	-0.218611	0.198710
C192	C	1.817394	0.281389	0.698710
H193	H	1.349353	-0.108033	0.263176
H194	H	1.849353	0.391967	0.763176
H195	H	1.358684	-0.115541	0.132046
H196	H	1.858684	0.384459	0.632046
H197	H	1.249375	-0.109514	0.197511
H198	H	1.749375	0.390486	0.697511
H199	H	1.386837	-0.239963	0.198971
H200	H	1.886837	0.260037	0.698971
H201	H	1.277528	-0.233943	0.264462
H202	H	1.777528	0.266057	0.764462
C203	C	0.523364	0.434151	-0.096648
C204	C	1.023364	0.934151	0.403352
C205	C	0.497884	0.390921	0.000002
C206	C	0.997884	0.890921	0.500002
H207	H	0.478293	0.481942	-0.096653
H208	H	0.978293	0.981942	0.403347
H209	H	0.593720	0.451768	-0.096637
H210	H	1.093720	0.951768	0.403363
H211	H	0.515339	0.398062	-0.162201
H212	H	1.015339	0.898062	0.337799
H213	H	0.505916	0.427007	0.065555
H214	H	1.005916	0.927007	0.565555
H215	H	0.427510	0.373305	0.000001
H216	H	0.927510	0.873305	0.500001
C217	C	0.967623	0.357649	-0.096651
C218	C	1.467623	0.857649	0.403349
C219	C	0.899393	0.352131	-0.000001
C220	C	1.399393	0.852131	0.499999
H221	H	0.995920	0.412374	-0.096653
H222	H	1.495920	0.912374	0.403347
H223	H	1.022646	0.317175	-0.096644
H224	H	1.522646	0.817175	0.403356
H225	H	0.930568	0.347154	-0.162204
H226	H	1.430568	0.847154	0.337796
H227	H	0.936450	0.362621	0.065552
H228	H	1.436450	0.862621	0.565552
H229	H	0.844362	0.392618	0.000002
H230	H	1.344362	0.892618	0.500002
C231	C	1.299849	-0.270622	-0.295432
C232	C	1.799849	0.229378	0.204568
C233	C	1.345436	-0.238815	-0.198449
C234	C	1.845436	0.261185	0.301551
H235	H	1.339612	-0.254379	-0.360751
H236	H	1.839612	0.245621	0.139249
H237	H	1.298496	-0.330216	-0.296568
H238	H	1.798496	0.169784	0.203432
H239	H	1.230525	-0.248828	-0.294755
H240	H	1.730525	0.251172	0.205245
H241	H	1.414758	-0.260614	-0.199121
H242	H	1.914758	0.239386	0.300879
H243	H	1.346801	-0.179208	-0.197313
H244	H	1.846801	0.320792	0.302687
H245	H	1.331005	0.135266	0.303897
H246	H	1.831005	0.635266	0.803897
H247	H	1.144455	-0.345956	-0.171031
H248	H	1.644455	0.154044	0.328969
