data_functionalizedCrystal
_audit_creation_method	'MofGen! by Chris Wilmer'
_symmetry_space_group_name_H-M	'P1'
_symmetry_Int_Tables_number	1
_symmetry_cell_setting	triclinic
loop_
_symmetry_equiv_pos_as_xyz
  x,y,z
_cell_length_a	16.109301
_cell_length_b	9.730223
_cell_length_c	10.654559
_cell_angle_alpha	90.001240
_cell_angle_beta	96.024918
_cell_angle_gamma	89.997484
loop_
_atom_site_label
_atom_site_type_symbol
_atom_site_fract_x
_atom_site_fract_y
_atom_site_fract_z
O1	O	1.104090	0.114195	-0.161414
O2	O	0.862148	0.114216	-0.181503
O3	O	0.988678	0.114205	0.011355
O4	O	0.977561	0.114206	-0.354272
O5	O	0.988677	-0.114375	0.011351
O6	O	0.862147	-0.114364	-0.181508
O7	O	1.104089	-0.114385	-0.161419
Zn8	Zn	0.983118	-0.150667	-0.171464
Zn9	Zn	0.983120	0.150497	-0.171458
O10	O	0.977559	-0.114374	-0.354277
C11	C	0.831168	-0.000071	-0.180691
C12	C	0.738858	-0.000063	-0.178252
N13	N	0.983122	-0.356203	-0.171468
C14	C	0.517235	-0.000079	-0.287017
C15	C	0.430500	-0.000088	-0.284715
C16	C	0.449009	-0.000083	-0.055896
C17	C	0.535742	-0.000084	-0.058199
C18	C	0.569852	-0.000075	-0.173764
C19	C	0.396385	-0.000082	-0.169158
C20	C	0.302344	-0.000092	-0.166661
C21	C	0.663899	-0.000068	-0.176261
C22	C	1.039164	-0.428134	-0.086099
C23	C	1.039162	-0.572017	-0.086084
C24	C	0.927073	-0.572025	-0.256817
C25	C	0.927072	-0.428145	-0.256825
C26	C	1.095214	-0.356192	-0.000741
C27	C	1.151262	-0.428123	0.084634
C28	C	1.151259	-0.572006	0.084649
C29	C	1.095210	-0.643958	-0.000711
C30	C	1.135069	-0.000095	-0.162230
C31	C	1.227379	-0.000094	-0.164670
C32	C	0.987859	-0.000082	0.058140
C33	C	0.985412	-0.000073	0.197549
N34	N	0.983121	0.356034	-0.171444
C35	C	0.978378	-0.000084	-0.401062
C36	C	0.980825	-0.000084	-0.540471
C37	C	0.908614	-0.000063	0.248047
C38	C	0.906319	-0.000073	0.379038
C39	C	1.057630	-0.000098	0.409023
C40	C	1.059923	-0.000098	0.278034
C41	C	0.834103	-0.000039	0.167562
C42	C	0.757298	-0.000027	0.218059
C43	C	0.755004	-0.000037	0.349050
C44	C	0.829515	-0.000059	0.429544
H45	H	0.545004	-0.000082	-0.381117
Cl46	Cl	0.856619	-0.662479	-0.364123
H47	H	0.881437	-0.369578	-0.326339
H48	H	1.118292	-0.000113	0.474571
Cl49	Cl	1.221710	-0.662432	0.191984
Cl50	Cl	0.364356	-0.000094	-0.427098
Cl51	Cl	0.663633	-0.000016	0.116870
Cl52	Cl	0.836982	-0.000017	0.002887
H53	H	0.827640	-0.000066	0.536205
Cl54	Cl	1.156472	-0.000136	0.214545
Cl55	Cl	0.601894	-0.000090	0.084189
Cl56	Cl	1.095204	-0.824841	-0.000675
H57	H	0.421226	-0.000098	0.038193
Cl58	Cl	1.095223	-0.175311	-0.000760
H59	H	0.692466	-0.000043	0.390160
Cl60	Cl	1.221712	-0.337673	0.191948
