data_functionalizedCrystal
_audit_creation_method	'MofGen! by Chris Wilmer'
_symmetry_space_group_name_H-M	'P1'
_symmetry_Int_Tables_number	1
_symmetry_cell_setting	triclinic
loop_
_symmetry_equiv_pos_as_xyz
  x,y,z
_cell_length_a	12.594517
_cell_length_b	12.594516
_cell_length_c	12.594510
_cell_angle_alpha	89.967679
_cell_angle_beta	89.988729
_cell_angle_gamma	90.011939
loop_
_atom_site_label
_atom_site_type_symbol
_atom_site_fract_x
_atom_site_fract_y
_atom_site_fract_z
Zn1	Zn	1.627265	-0.423763	-0.601595
Zn2	Zn	1.627156	-0.601792	-0.423623
Zn3	Zn	1.449269	-0.423815	-0.423655
Zn4	Zn	1.449251	-0.601687	-0.601584
O5	O	1.538235	-0.512764	-0.512614
O6	O	1.776196	-0.447401	-0.577979
O7	O	1.603521	-0.578249	-0.274681
O8	O	1.472934	-0.274862	-0.447277
O9	O	1.776116	-0.578198	-0.447223
O10	O	1.603706	-0.274824	-0.578009
O11	O	1.472829	-0.447490	-0.274705
O12	O	1.300321	-0.447388	-0.447266
O13	O	1.472902	-0.578019	-0.750531
O14	O	1.300308	-0.578070	-0.577989
O15	O	1.603689	-0.447299	-0.750540
O16	O	1.603504	-0.750724	-0.447212
O17	O	1.472797	-0.750647	-0.577959
C18	C	1.261694	-0.512724	-0.512630
C19	C	1.143389	-0.512732	-0.512663
C20	C	1.074159	-0.583949	-0.583626
C21	C	1.003351	-0.486901	-0.609800
C22	C	1.003398	-0.609861	-0.486464
C23	C	1.074138	-0.415632	-0.538888
C24	C	1.074193	-0.538658	-0.415507
C25	C	1.003416	-0.441542	-0.441645
C26	C	1.538166	-0.789305	-0.512604
C27	C	1.538233	-0.907611	-0.512635
C28	C	1.467135	-0.976860	-0.583698
C29	C	1.441202	-1.047734	-0.486580
C30	C	1.564263	-1.047536	-0.609770
C31	C	1.512249	-0.976926	-0.415465
C32	C	1.635355	-0.976721	-0.538721
C33	C	1.609459	-1.047563	-0.441535
C34	C	1.815856	-0.512805	-0.512599
C35	C	1.934161	-0.512823	-0.512592
C36	C	1.538306	-0.512641	-0.790235
C37	C	1.538335	-0.512589	-0.908541
C38	C	1.538334	-0.235143	-0.512648
C39	C	1.538376	-0.116838	-0.512662
C40	C	1.609491	-0.441485	-0.977799
C41	C	1.512415	-0.415425	-1.048605
C42	C	1.635468	-0.538574	-1.048533
C43	C	1.441208	-0.486479	-0.977789
C44	C	1.564326	-0.609673	-0.977711
C45	C	1.467183	-0.583650	-1.048486
C46	C	1.538227	-0.512810	-0.236073
C47	C	1.538403	-0.512562	-0.117768
H48	H	1.105333	-0.560583	-0.333398
H49	H	0.972320	-0.691963	-0.464338
F50	F	1.114580	-0.308285	-0.567935
H51	H	0.972550	-0.381286	-0.381603
H52	H	1.669646	-1.078412	-0.381382
F53	F	1.388410	-0.936280	-0.662135
F54	F	1.483711	-0.308099	-1.089312
H55	H	1.359135	-1.078950	-0.464538
F56	F	1.388479	-0.662221	-1.088816
H57	H	1.105224	-0.644059	-0.643714
H58	H	1.490195	-0.946038	-0.333307
F59	F	1.742599	-0.935921	-0.567591
H60	H	1.586221	-1.078552	-0.691905
F61	F	1.688008	-0.362849	-0.937226
H62	H	0.972233	-0.465004	-0.691933
F63	F	1.333841	-0.457624	-0.937346
H64	H	1.586316	-0.691763	-0.946549
F65	F	1.742799	-0.567319	-1.089151
