data_functionalizedCrystal
_audit_creation_method	'MofGen! by Chris Wilmer'
_symmetry_space_group_name_H-M	'P1'
_symmetry_Int_Tables_number	1
_symmetry_cell_setting	triclinic
loop_
_symmetry_equiv_pos_as_xyz
  x,y,z
_cell_length_a	15.698487
_cell_length_b	17.052862
_cell_length_c	15.698487
_cell_angle_alpha	50.258874
_cell_angle_beta	90.001001
_cell_angle_gamma	70.264957
loop_
_atom_site_label
_atom_site_type_symbol
_atom_site_fract_x
_atom_site_fract_y
_atom_site_fract_z
Zr1	Zr	0.964535	0.878604	-0.255752
O2	O	0.855947	1.046058	-0.419204
O3	O	0.978801	0.711150	-0.186621
O4	O	1.006227	0.878608	-0.391772
O5	O	0.828525	0.878597	-0.073868
O6	O	1.146408	0.878611	-0.391774
O7	O	0.828521	0.878600	-0.214053
O8	O	1.097348	0.579060	-0.024797
O9	O	0.877585	1.178148	-0.440846
O10	O	1.112483	0.780029	-0.180124
O11	O	1.007870	0.780024	-0.075504
O12	O	1.040161	0.977184	-0.317043
O13	O	0.935548	0.977179	-0.212422
Zr14	Zr	1.188115	0.878604	-0.032178
Zr15	Zr	1.188108	0.878609	-0.255757
Zr16	Zr	0.964541	0.878599	-0.032174
Zr17	Zr	0.999046	1.089273	-0.290269
Zr18	Zr	1.153604	0.667935	0.002338
O19	O	1.173849	1.046058	-0.101310
O20	O	1.173840	1.046065	-0.419210
O21	O	0.855956	1.046050	-0.101304
O22	O	1.296703	0.711150	0.131274
O23	O	1.296693	0.711157	-0.186627
O24	O	0.978810	0.711143	0.131280
O25	O	1.324125	0.878611	-0.214062
O26	O	1.146423	0.878600	0.103841
O27	O	1.006241	0.878597	0.103844
O28	O	1.324129	0.878608	-0.073877
O29	O	1.055297	1.178152	-0.440849
O30	O	1.097353	0.579056	0.152919
O31	O	1.275064	0.579060	0.152915
O32	O	1.275059	0.579064	-0.024800
O33	O	0.877591	1.178144	-0.263130
O34	O	1.055302	1.178148	-0.263134
O35	O	1.112489	0.780024	0.029113
O36	O	1.217102	0.780029	-0.075508
O37	O	1.144780	0.977184	-0.212426
O38	O	1.040167	0.977179	-0.107806
C39	C	1.033157	0.615089	-0.100791
C40	C	1.018507	0.525654	-0.086138
C41	C	0.796668	0.878598	-0.143960
C42	C	0.701756	0.878595	-0.143958
C43	C	1.195634	0.273572	-0.263293
C44	C	1.209397	0.357605	-0.277067
C45	C	1.161676	0.399621	-0.229336
C46	C	1.100189	0.357597	-0.167828
C47	C	1.086419	0.273562	-0.154059
C48	C	1.052461	0.399611	-0.120103
C49	C	0.990974	0.357587	-0.058594
C50	C	0.977207	0.273560	-0.044828
C51	C	1.024928	0.231543	-0.092559
C52	C	1.066231	0.483646	-0.133871
C53	C	0.957016	0.483636	-0.024638
C54	C	0.943253	0.399603	-0.010863
C55	C	0.527974	0.878615	-0.143971
C56	C	0.624677	0.878609	-0.143967
C57	C	1.355981	0.878610	-0.143971
C58	C	1.450894	0.878612	-0.143972
C59	C	1.076317	0.878610	-0.423628
C60	C	1.076314	0.878612	-0.518543
C61	C	1.119492	1.142119	-0.187140
C62	C	1.134143	1.231553	-0.201793
C63	C	1.076334	0.878593	-0.692304
C64	C	1.076325	0.878599	-0.595608
C65	C	1.076333	0.878598	0.135698
C66	C	1.076336	0.878595	0.230613
C67	C	1.312814	0.615095	-0.100796
C68	C	1.393076	0.525663	-0.086145
C69	C	1.033165	0.615083	0.178872
C70	C	1.018518	0.525646	0.288440
C71	C	1.312822	0.615089	0.178867
C72	C	1.393087	0.525654	0.288433
C73	C	0.839828	1.142119	-0.466797
C74	C	0.759563	1.231553	-0.576364
C75	C	0.839836	1.142112	-0.187134
C76	C	0.759574	1.231545	-0.201785
C77	C	1.119484	1.142125	-0.466803
C78	C	1.134132	1.231562	-0.576371
C79	C	1.376158	0.483665	-0.133883
C80	C	1.451566	0.399645	-0.120139
C81	C	1.543890	0.357620	-0.058650
C82	C	1.560808	0.399626	-0.010912
C83	C	1.485401	0.483650	-0.024663
C84	C	1.066249	0.483646	0.394513
C85	C	1.052483	0.399622	0.497470
C86	C	0.990992	0.357595	0.494354
C87	C	0.943255	0.399604	0.388270
C88	C	0.957016	0.483631	0.285314
C89	C	1.485396	0.483658	0.285276
C90	C	1.560824	0.399636	0.388215
C91	C	1.543940	0.357607	0.494310
C92	C	1.451621	0.399612	0.497464
C93	C	1.376196	0.483638	0.394526
C94	C	0.667255	1.273560	-0.573208
C95	C	0.591832	1.357608	-0.676151
C96	C	0.608717	1.399641	-0.782247
C97	C	0.701035	1.357631	-0.785400
C98	C	0.776457	1.273590	-0.682460
C99	C	0.776494	1.273552	-0.154058
C100	C	0.701089	1.357595	-0.167830
C101	C	0.608765	1.399623	-0.229323
C102	C	0.591847	1.357612	-0.277056
C103	C	0.667252	1.273577	-0.263291
C104	C	1.195630	1.273562	-0.573216
C105	C	1.209412	1.357586	-0.676157
C106	C	1.161690	1.399614	-0.782251
C107	C	1.100189	1.357605	-0.785402
C108	C	1.086413	1.273577	-0.682462
H109	H	1.116294	0.517855	-0.183952
Cl110	Cl	0.865956	0.346754	0.384372
H111	H	1.013731	0.163111	-0.081341
H112	H	0.918148	0.517817	0.198950
H113	H	0.547374	1.468050	-0.240523
Cl114	Cl	0.899898	0.220744	0.032482
Cl115	Cl	0.973705	0.251957	0.623797
Cl116	Cl	1.506685	0.536430	0.035369
Cl117	Cl	0.865962	0.346758	0.066465
Cl118	Cl	0.645963	1.220770	-0.323290
H119	H	1.437887	0.365380	0.583861
H120	H	1.301035	0.517821	0.397113
H121	H	1.635987	0.365444	0.385627
Cl122	Cl	1.112507	0.346825	0.630818
Cl123	Cl	0.646003	1.220736	-0.439843
H124	H	1.605364	0.289188	0.578121
H125	H	1.499162	0.517865	0.198898
Cl126	Cl	1.009086	1.220797	-0.686450
H127	H	1.234477	0.239363	-0.302158
H128	H	0.851616	1.239389	-0.685042
H129	H	0.851662	1.239339	-0.103979
H130	H	0.516669	1.391799	-0.673561
H131	H	0.547294	1.468072	-0.866060
H132	H	0.918155	0.517848	0.014226
Cl133	Cl	0.722246	1.410480	-0.918788
Cl134	Cl	0.722378	1.410386	-0.107809
H135	H	1.259490	1.391781	-0.673569
Cl136	Cl	0.475775	1.410455	-0.354352
H137	H	1.116321	0.517855	0.397072
H138	H	1.234494	1.239356	-0.486839
H139	H	1.172915	1.468036	-0.866064
H140	H	1.300990	0.517881	-0.183966
H141	H	1.172885	0.468044	-0.240555
Cl142	Cl	1.430276	0.346849	-0.180155
Cl143	Cl	1.286687	0.410433	-0.354393
Cl144	Cl	1.638678	0.251986	-0.041371
H145	H	1.061337	1.391837	-0.871799
H146	H	1.635988	0.365397	0.039151
