data_functionalizedCrystal
_audit_creation_method	'MofGen! by Chris Wilmer'
_symmetry_space_group_name_H-M	'P1'
_symmetry_Int_Tables_number	1
_symmetry_cell_setting	triclinic
loop_
_symmetry_equiv_pos_as_xyz
  x,y,z
_cell_length_a	21.395364
_cell_length_b	14.908579
_cell_length_c	21.395356
_cell_angle_alpha	86.726266
_cell_angle_beta	89.976444
_cell_angle_gamma	86.682172
loop_
_atom_site_label
_atom_site_type_symbol
_atom_site_fract_x
_atom_site_fract_y
_atom_site_fract_z
Zn1	Zn	0.943485	0.359284	-0.368672
Zn2	Zn	0.937356	0.510148	-0.269946
Zn3	Zn	0.838701	0.359297	-0.263910
Zn4	Zn	0.832639	0.510090	-0.374684
O5	O	0.888045	0.434704	-0.319303
O6	O	1.030349	0.379315	-0.355586
O7	O	0.924242	0.490167	-0.181469
O8	O	0.857703	0.233050	-0.272764
O9	O	1.025846	0.490155	-0.283053
O10	O	0.934688	0.233041	-0.349733
O11	O	0.851761	0.379337	-0.177034
O12	O	0.750220	0.379281	-0.278594
O13	O	0.847370	0.490055	-0.461563
O14	O	0.745766	0.490068	-0.359979
O15	O	0.928809	0.379258	-0.457146
O16	O	0.918363	0.636385	-0.288882
O17	O	0.841427	0.636342	-0.365833
C18	C	0.725259	0.434670	-0.319284
C19	C	0.655618	0.434677	-0.319292
C20	C	0.878589	0.669097	-0.328679
C21	C	0.874601	0.769372	-0.332710
C22	C	0.156159	0.377127	-0.357151
C23	C	0.221595	0.377120	-0.357150
C24	C	0.251977	0.434732	-0.319318
C25	C	0.216918	0.492372	-0.281496
C26	C	0.151483	0.492383	-0.281502
C27	C	0.355335	0.441731	-0.263132
C28	C	0.420768	0.441713	-0.263124
C29	C	0.453799	0.434702	-0.319300
C30	C	0.421389	0.427690	-0.375484
C31	C	0.355954	0.427701	-0.375490
C32	C	0.322930	0.434727	-0.319308
C33	C	0.559803	0.377063	-0.357123
C34	C	0.625240	0.377063	-0.357124
C35	C	0.620562	0.492310	-0.281463
C36	C	0.555126	0.492315	-0.281468
C37	C	0.524751	0.434687	-0.319297
C38	C	0.947303	0.957781	-0.260223
C39	C	0.943558	1.051998	-0.264009
C40	C	0.863370	1.052023	-0.344072
C41	C	0.867115	0.957807	-0.340286
C42	C	0.909082	0.910689	-0.298359
C43	C	0.912823	0.816471	-0.294570
C44	C	0.832639	0.816498	-0.374636
C45	C	0.828894	0.910714	-0.378422
C46	C	1.051467	0.434740	-0.319322
C47	C	1.121108	0.434755	-0.319331
C48	C	0.888097	0.434649	-0.482724
C49	C	0.888119	0.434625	-0.552364
C50	C	0.897551	1.199396	-0.309913
C51	C	0.901592	1.099122	-0.305931
C52	C	0.850389	0.376909	-0.582758
C53	C	0.850387	0.376892	-0.648193
C54	C	0.888127	0.434582	-0.683231
C55	C	0.925860	0.492309	-0.652830
C56	C	0.925856	0.492330	-0.587397
C57	C	0.944296	0.441681	-0.787202
C58	C	0.944301	0.441653	-0.852634
C59	C	0.888140	0.434521	-0.885050
C60	C	0.831973	0.427398	-0.852024
C61	C	0.831968	0.427419	-0.786591
C62	C	0.888136	0.434565	-0.754183
C63	C	0.850405	0.376784	-0.986395
C64	C	0.850403	0.376774	-1.051831
C65	C	0.925881	0.492185	-1.056467
C66	C	0.925878	0.492200	-0.991032
C67	C	0.888141	0.434495	-0.956000
C68	C	0.888033	0.434695	-0.156515
C69	C	0.888142	0.434465	-0.086865
H70	H	0.131431	0.330205	-0.387957
O71	O	0.663046	0.314894	-0.397914
H72	H	0.649880	0.330441	-0.447695
H73	H	0.645298	0.539226	-0.250664
H74	H	0.819674	0.329778	-1.076576
O75	O	0.771390	0.419736	-0.750975
H76	H	0.762551	0.480174	-0.723570
H77	H	0.990033	0.447481	-0.760815
H78	H	0.946993	0.778108	-0.260430
O79	O	0.818111	1.102844	-0.389295
H80	H	0.769659	1.084825	-0.377780
O81	O	0.966589	0.554409	-1.094247
H82	H	0.960257	0.544696	-1.144854
H83	H	0.794727	0.949090	-0.412559
H84	H	0.956583	0.539328	-0.562651
H85	H	0.956603	0.539197	-0.966285
O86	O	0.791412	0.765708	-0.415775
H87	H	0.801068	0.692277	-0.406103
H88	H	0.974682	1.090337	-0.232956
H89	H	0.329568	0.421994	-0.421237
H90	H	0.328446	0.447444	-0.217384
H91	H	0.250139	0.330188	-0.387947
H92	H	0.526587	0.539239	-0.250668
O93	O	0.992563	0.906952	-0.215005
H94	H	1.018514	0.955528	-0.189123
O95	O	0.966566	0.554537	-0.690613
H96	H	1.000084	0.514159	-0.718818
H97	H	0.535070	0.330139	-0.387925
O98	O	0.457002	0.420135	-0.436081
H99	H	0.507947	0.421318	-0.426642
O100	O	0.455724	0.449280	-0.202531
H101	H	0.421764	0.454177	-0.163471
O102	O	0.249684	0.554503	-0.240684
H103	H	0.277670	0.600443	-0.270508
O104	O	0.113672	0.554531	-0.240701
H105	H	0.145789	0.594589	-0.214389
H106	H	0.819658	0.329924	-0.554239
O107	O	0.809698	0.314632	-0.680987
H108	H	0.783460	0.274506	-0.645633
O109	O	0.771391	0.419713	-0.886975
H110	H	0.780825	0.420908	-0.938023
O111	O	0.809700	0.314558	-0.948603
H112	H	0.783455	0.274431	-0.980734
H113	H	0.990036	0.447448	-0.879518
