data_functionalizedCrystal
_audit_creation_method	'MofGen! by Chris Wilmer'
_symmetry_space_group_name_H-M	'P1'
_symmetry_Int_Tables_number	1
_symmetry_cell_setting	triclinic
loop_
_symmetry_equiv_pos_as_xyz
  x,y,z
_cell_length_a	27.440280
_cell_length_b	20.919309
_cell_length_c	20.919309
_cell_angle_alpha	60.101124
_cell_angle_beta	90.005478
_cell_angle_gamma	62.590440
loop_
_atom_site_label
_atom_site_type_symbol
_atom_site_fract_x
_atom_site_fract_y
_atom_site_fract_z
Zr1	Zr	0.493211	0.692368	-0.106753
O2	O	0.422174	0.817904	-0.209864
O3	O	0.512145	0.561536	-0.071681
O4	O	0.519748	0.684717	-0.204853
O5	O	0.411807	0.702604	0.024417
O6	O	0.599951	0.684706	-0.204840
O7	O	0.414571	0.694723	-0.076692
O8	O	0.586349	0.464357	0.033380
O9	O	0.425408	0.922953	-0.213803
O10	O	0.583509	0.617302	-0.060898
O11	O	0.521592	0.623192	0.014549
O12	O	0.530544	0.768222	-0.142244
O13	O	0.468628	0.774112	-0.066797
Zr14	Zr	0.616716	0.704919	0.054525
Zr15	Zr	0.621124	0.692350	-0.106732
Zr16	Zr	0.488803	0.704937	0.054504
Zr17	Zr	0.498369	0.859908	-0.113036
Zr18	Zr	0.611558	0.537379	0.060808
O19	O	0.597782	0.835751	0.019453
O20	O	0.604050	0.817878	-0.209834
O21	O	0.415907	0.835777	0.019423
O22	O	0.687753	0.579383	0.157636
O23	O	0.694021	0.561510	-0.071651
O24	O	0.505877	0.579409	0.157606
O25	O	0.698120	0.694683	-0.076645
O26	O	0.590179	0.712570	0.152625
O27	O	0.509977	0.712581	0.152612
O28	O	0.695357	0.702564	0.024464
O29	O	0.527082	0.922939	-0.213786
O30	O	0.582845	0.474348	0.161558
O31	O	0.684519	0.474334	0.161575
O32	O	0.688023	0.464343	0.033397
O33	O	0.421904	0.932944	-0.085625
O34	O	0.523578	0.932930	-0.085608
O35	O	0.579383	0.629065	0.090016
O36	O	0.641300	0.623175	0.014569
O37	O	0.588335	0.774095	-0.066777
O38	O	0.526419	0.779985	0.008670
C39	C	0.548512	0.489076	-0.018255
C40	C	0.546323	0.417950	-0.015588
C41	C	0.577612	0.381461	-0.053718
C42	C	0.575556	0.314627	-0.051204
C43	C	0.542207	0.284287	-0.010566
C44	C	0.510916	0.320780	0.027569
C45	C	0.512976	0.387609	0.025059
C46	C	0.534374	0.082658	-0.001015
C47	C	0.532315	0.015826	0.001490
C48	C	0.596956	0.009676	-0.077282
C49	C	0.599010	0.076510	-0.079792
C50	C	0.567722	0.112994	-0.041654
C51	C	0.540103	0.215974	-0.007998
C52	C	0.569829	0.181302	-0.044218
C53	C	0.394964	0.698666	-0.026140
C54	C	0.340662	0.698674	-0.026149
C55	C	0.031608	0.619851	0.016369
C56	C	-0.019411	0.619847	0.016376
O57	O	-0.022287	0.552850	0.052511
N58	N	-0.072575	0.698625	-0.026087
C59	C	-0.074719	0.777413	-0.068552
O60	O	-0.124623	0.844419	-0.104669
C61	C	-0.023701	0.777417	-0.068554
C62	C	0.029462	0.698633	-0.026095
C63	C	0.084768	0.541074	0.058825
C64	C	0.135784	0.541079	0.058817
C65	C	0.133638	0.619861	0.016353
C66	C	0.080477	0.698638	-0.026104
C67	C	-0.025845	0.856204	-0.111015
C68	C	0.025179	0.856201	-0.111013
C69	C	0.078341	0.777418	-0.068554
C70	C	0.129347	0.777424	-0.068576
N71	N	0.182511	0.698646	-0.026114
C72	C	0.184656	0.619865	0.016351
C73	C	-0.181858	0.777399	-0.068544
C74	C	-0.232875	0.777395	-0.068547
C75	C	-0.177564	0.619829	0.016383
C76	C	-0.126546	0.619833	0.016381
C77	C	-0.128694	0.698621	-0.026082
C78	C	0.291790	0.619881	0.016330
C79	C	0.342807	0.619892	0.016315
C80	C	0.287491	0.777458	-0.068611
C81	C	0.236478	0.777447	-0.068600
C82	C	0.238631	0.698651	-0.026124
O83	O	0.132267	0.844387	-0.104690
O84	O	0.234563	0.552870	0.052469
C85	C	0.714963	0.698621	-0.026088
C86	C	0.769266	0.698613	-0.026079
C87	C	0.560478	0.682921	-0.227822
C88	C	0.562349	0.677584	-0.296280
C89	C	0.561415	0.908211	-0.033973
C90	C	0.563605	0.979337	-0.036640
C91	C	0.535582	0.753854	-0.370904
C92	C	0.537348	0.748835	-0.435224
C93	C	0.565877	0.667545	-0.424920
C94	C	0.592648	0.591270	-0.350289
C95	C	0.590885	0.596290	-0.285970
C96	C	0.572586	0.648447	-0.616998
C97	C	0.574345	0.643433	-0.681324
C98	C	0.519046	0.800999	-0.766256
C99	C	0.517283	0.806011	-0.701931
C100	C	0.544056	0.729736	-0.627306
C101	C	0.567682	0.662413	-0.490665
C102	C	0.542255	0.734869	-0.561563
C103	C	0.549450	0.714366	0.175594
C104	C	0.547578	0.719703	0.244052
C105	C	0.708512	0.489053	-0.018229
C106	C	0.760625	0.417920	-0.015553
C107	C	0.542998	0.504798	0.183453
C108	C	0.538937	0.439009	0.254578
C109	C	0.702998	0.504776	0.183479
C110	C	0.753239	0.438979	0.254613
C111	C	0.406929	0.892511	-0.235707
C112	C	0.356688	0.958308	-0.306841
C113	C	0.401415	0.908234	-0.033999
C114	C	0.349303	0.979367	-0.036675
C115	C	0.566929	0.892489	-0.235681
C116	C	0.570990	0.958278	-0.306806
C117	C	0.754931	0.381449	-0.053696
C118	C	0.803893	0.314620	-0.051197
C119	C	0.858547	0.284259	-0.010550
C120	C	0.864239	0.320737	0.027593
C121	C	0.815279	0.387569	0.025089
C122	C	0.567196	0.411180	0.327378
C123	C	0.563379	0.349374	0.394214
C124	C	0.531305	0.315394	0.388247
C125	C	0.503042	0.343229	0.315439
C126	C	0.506857	0.405038	0.248605
C127	C	0.809158	0.405005	0.248636
C128	C	0.856371	0.343191	0.315467
C129	C	0.847663	0.315347	0.388275
C130	C	0.791738	0.349327	0.394251
C131	C	0.744527	0.411145	0.327420
C132	C	0.300769	0.992290	-0.300864
C133	C	0.253557	1.054125	-0.367696
C134	C	0.262265	1.081972	-0.440505
C135	C	0.318190	1.047988	-0.446480
C136	C	0.365401	0.986159	-0.379649
C137	C	0.354997	1.015845	0.001461
C138	C	0.306036	1.082691	-0.001057
C139	C	0.251382	1.113054	-0.041706
C140	C	0.245690	1.076573	-0.079846
C141	C	0.294650	1.009732	-0.077333
C142	C	0.603069	0.992239	-0.300814
C143	C	0.606896	1.054047	-0.367638
C144	C	0.578640	1.081896	-0.440452
C145	C	0.546560	1.047928	-0.446441
C146	C	0.542737	0.986117	-0.379619
H147	H	0.505156	-0.008872	0.034582
Cl148	Cl	0.647223	1.096742	-0.360090
H149	H	0.901903	0.315530	0.310588
H150	H	0.908745	0.296007	0.060687
Cl151	Cl	0.638597	0.957240	-0.209285
Cl152	Cl	0.485393	0.896881	-0.860070
Cl153	Cl	0.636289	-0.036195	-0.125220
H154	H	0.612681	0.534183	-0.225208
H155	H	0.211521	1.167480	-0.043746
Cl156	Cl	0.603541	0.560223	-0.477718
Cl157	Cl	0.583450	1.159606	-0.524451
Cl158	Cl	0.284805	0.876493	-0.121979
H159	H	0.410931	0.958491	-0.384524
H160	H	0.399494	0.991129	0.034567
Cl161	Cl	0.611754	0.219441	-0.095303
Cl162	Cl	0.329128	1.083002	-0.538016
Cl163	Cl	0.506393	0.837058	-0.574514
Cl164	Cl	0.313206	1.128535	0.046900
Cl165	Cl	0.511036	1.082957	-0.537986
Cl166	Cl	0.674230	0.453842	0.334948
H167	H	0.586396	0.326719	0.453491
Cl168	Cl	0.640933	0.114651	-0.130888
H169	H	0.528203	0.265065	0.442674
H170	H	0.515553	0.810942	-0.495984
Cl171	Cl	0.614881	0.268773	-0.099159
H172	H	0.710434	0.406167	-0.086804
Cl173	Cl	0.202908	1.159701	-0.524515
Cl174	Cl	0.822446	0.433405	0.073052
Cl175	Cl	0.409640	0.520842	0.069695
Cl176	Cl	-0.174876	0.520788	0.069768
Cl177	Cl	0.481388	0.908209	-0.714893
H178	H	0.508899	0.112352	0.030043
Cl179	Cl	0.176977	1.114750	-0.130941
H180	H	0.193190	0.841598	-0.103183
H181	H	0.898409	0.229839	-0.008517
Cl182	Cl	0.907021	0.237630	0.472285
Cl183	Cl	0.287481	0.963877	-0.125275
Cl184	Cl	0.502400	0.943439	-0.387165
H185	H	0.593314	0.438841	0.332251
H186	H	0.476928	0.315552	0.310592
Cl187	Cl	0.087479	0.442021	0.112218
H188	H	0.483846	0.427688	0.189330
H189	H	0.816260	0.427667	0.189358
H190	H	0.483766	0.296069	0.060662
H191	H	0.604766	0.406162	-0.086814
H192	H	-0.183615	0.841561	-0.103126
Cl193	Cl	0.473640	0.433480	0.072998
Cl194	Cl	0.294504	0.520822	0.069727
Cl195	Cl	0.498187	0.177818	0.043100
H196	H	0.208025	1.081785	-0.362816
Cl197	Cl	0.610214	0.541232	-0.668365
Cl198	Cl	0.780801	0.314312	0.485787
H199	H	0.293668	0.969619	-0.241586
Cl200	Cl	0.628515	0.489076	-0.337335
H201	H	0.594386	0.586338	-0.556243
H202	H	0.179067	0.476925	0.093388
Cl203	Cl	0.796723	0.268772	-0.099149
Cl204	Cl	-0.059717	0.520788	0.069762
H205	H	-0.276159	0.841548	-0.103131
H206	H	-0.069125	0.920358	-0.145589
H207	H	0.023422	0.920362	-0.145582
H208	H	0.512347	0.820049	-0.379303
