data_functionalizedCrystal
_audit_creation_method	'MofGen! by Chris Wilmer'
_symmetry_space_group_name_H-M	'P1'
_symmetry_Int_Tables_number	1
_symmetry_cell_setting	triclinic
loop_
_symmetry_equiv_pos_as_xyz
  x,y,z
_cell_length_a	8.497374
_cell_length_b	21.395361
_cell_length_c	21.395362
_cell_angle_alpha	89.953415
_cell_angle_beta	89.977046
_cell_angle_gamma	90.015691
loop_
_atom_site_label
_atom_site_type_symbol
_atom_site_fract_x
_atom_site_fract_y
_atom_site_fract_z
Zn1	Zn	0.892770	-0.249282	-0.957730
Zn2	Zn	0.628940	-0.354031	-0.957670
Zn3	Zn	0.628900	-0.249300	-0.852983
Zn4	Zn	0.892573	-0.354054	-0.852914
O5	O	0.760796	-0.301667	-0.905324
O6	O	0.857872	-0.263159	-1.045400
O7	O	0.408172	-0.340136	-0.943788
O8	O	0.663969	-0.161620	-0.866931
O9	O	0.664036	-0.340118	-1.045356
O10	O	0.857833	-0.161606	-0.943888
O11	O	0.408143	-0.263191	-0.866874
O12	O	0.663778	-0.263214	-0.765296
O13	O	1.113362	-0.340158	-0.866814
O14	O	0.857497	-0.340176	-0.765245
O15	O	1.113507	-0.263182	-0.943821
O16	O	0.663845	-0.441712	-0.943721
O17	O	0.857536	-0.441729	-0.866756
C18	C	0.760708	-0.464454	-0.905241
C19	C	0.760723	-0.534096	-0.905263
C20	C	0.760613	-0.301700	-0.742537
C21	C	0.760572	-0.301729	-0.672895
C22	C	0.659972	-0.566779	-0.945374
C23	C	0.660007	-0.632214	-0.945403
C24	C	0.760777	-0.664964	-0.905310
C25	C	0.861548	-0.632273	-0.865197
C26	C	0.861521	-0.566839	-0.865173
C27	C	0.773092	-0.768695	-0.848894
C28	C	0.773108	-0.834128	-0.848917
C29	C	0.760870	-0.866785	-0.905383
C30	C	0.748583	-0.834000	-0.961830
C31	C	0.748556	-0.768566	-0.961806
C32	C	0.760819	-0.735916	-0.905332
C33	C	0.660152	-0.970420	-0.945529
C34	C	0.660198	-1.035857	-0.945559
C35	C	0.861731	-1.035914	-0.865347
C36	C	0.861693	-0.970479	-0.865323
C37	C	0.760895	-0.937736	-0.905413
C38	C	1.172276	-0.301668	-0.905320
C39	C	1.350920	-0.301674	-0.905321
C40	C	0.760981	-0.301634	-1.068747
C41	C	0.761059	-0.301620	-1.138389
C42	C	0.760919	-0.138243	-0.905424
C43	C	0.760971	-0.068602	-0.905467
C44	C	0.861291	-0.341857	-0.640172
C45	C	0.861361	-0.341841	-0.574737
C46	C	0.760684	-0.301705	-0.542027
C47	C	0.659959	-0.261570	-0.574758
C48	C	0.659902	-0.261582	-0.640192
C49	C	0.618664	-0.296652	-0.438323
C50	C	0.618717	-0.296644	-0.372890
C51	C	0.760859	-0.301664	-0.340206
C52	C	0.902951	-0.306705	-0.372964
C53	C	0.902895	-0.306717	-0.438398
C54	C	0.760735	-0.301687	-0.471075
C55	C	0.861662	-0.341777	-0.236531
C56	C	0.861735	-0.341757	-0.171094
C57	C	0.660318	-0.261489	-0.171117
C58	C	0.660260	-0.261506	-0.236552
C59	C	0.760929	-0.301653	-0.269255
H60	H	0.577900	-0.540122	-0.978019
H61	H	1.018591	-0.310820	-0.465066
H62	H	0.943384	-0.374518	-0.548088
H63	H	0.502907	-0.292561	-0.464929
H64	H	0.943727	-0.943866	-0.832658
N65	N	0.970185	-0.531588	-0.821902
H66	H	0.905962	-0.504487	-0.792878
H67	H	1.043341	-0.504430	-0.847371
N68	N	0.970228	-0.667589	-0.821948
H69	H	1.082973	-0.656173	-0.831636
H70	H	0.954822	-0.713990	-0.828065
H71	H	0.738556	-0.741874	-1.007766
N72	N	1.056275	-0.312123	-0.337723
H73	H	1.034757	-0.311348	-0.291300
H74	H	1.126963	-0.275938	-0.349221
H75	H	0.578235	-0.228833	-0.263195
H76	H	0.577990	-0.228889	-0.548122
N77	N	0.735384	-0.869212	-1.022739
H78	H	0.633344	-0.857819	-1.044087
H79	H	0.737342	-0.915627	-1.014141
N80	N	0.551278	-0.218295	-0.675491
H81	H	0.487514	-0.192862	-0.644843
H82	H	0.478122	-0.243755	-0.702594
H83	H	0.943641	-0.374464	-0.263159
H84	H	0.578080	-0.943760	-0.978175
N85	N	0.970367	-0.385042	-0.135796
H86	H	1.034120	-0.410478	-0.166445
H87	H	0.906020	-0.413986	-0.108600
N88	N	0.551534	-1.071112	-0.988827
H89	H	0.487677	-1.040438	-1.014218
H90	H	0.478467	-1.098306	-0.963356
N91	N	0.970434	-1.071227	-0.822108
H92	H	0.955169	-1.117640	-0.828210
H93	H	0.945737	-1.059848	-0.777364
H94	H	0.783064	-0.742113	-0.802908
H95	H	0.577964	-0.658830	-0.978069
N96	N	0.465472	-0.291210	-0.337560
H97	H	0.394686	-0.327393	-0.348893
H98	H	0.412111	-0.250606	-0.348984
H99	H	0.783097	-0.860816	-0.802954
N100	N	0.969877	-0.385157	-0.675438
H101	H	1.082648	-0.375494	-0.664090
H102	H	0.954435	-0.379060	-0.721846
N103	N	0.551740	-0.218193	-0.135847
H104	H	0.567060	-0.224273	-0.089428
H105	H	0.439014	-0.227876	-0.147240
