data_functionalizedCrystal
_audit_creation_method	'MofGen! by Chris Wilmer'
_symmetry_space_group_name_H-M	'P1'
_symmetry_Int_Tables_number	1
_symmetry_cell_setting	triclinic
loop_
_symmetry_equiv_pos_as_xyz
  x,y,z
_cell_length_a	13.897448
_cell_length_b	25.639243
_cell_length_c	13.897441
_cell_angle_alpha	90.024497
_cell_angle_beta	89.969401
_cell_angle_gamma	89.979627
loop_
_atom_site_label
_atom_site_type_symbol
_atom_site_fract_x
_atom_site_fract_y
_atom_site_fract_z
Zn1	Zn	-0.383915	-0.799345	-0.545478
Zn2	Zn	0.116085	-0.299345	-0.045478
Zn3	Zn	-0.545237	-0.799288	-0.384179
Zn4	Zn	-0.045237	-0.299288	0.115821
Zn5	Zn	-0.383965	-0.711909	-0.384186
Zn6	Zn	0.116035	-0.211909	0.115814
Zn7	Zn	-0.545177	-0.711899	-0.545421
Zn8	Zn	-0.045177	-0.211899	-0.045421
O9	O	-0.464574	-0.755610	-0.464816
O10	O	0.035426	-0.255610	0.035184
O11	O	-0.405319	-0.872503	-0.524102
O12	O	0.094681	-0.372503	-0.024102
O13	O	-0.523889	-0.787677	-0.249199
O14	O	-0.023889	-0.287677	0.250801
O15	O	-0.248977	-0.723535	-0.405608
O16	O	0.251023	-0.223535	0.094392
O17	O	-0.523841	-0.872461	-0.405597
O18	O	-0.023841	-0.372461	0.094403
O19	O	-0.248940	-0.787775	-0.524109
O20	O	0.251060	-0.287775	-0.024109
O21	O	-0.405404	-0.723480	-0.249203
O22	O	0.094596	-0.223480	0.250797
O23	O	-0.405346	-0.638742	-0.405553
O24	O	0.094654	-0.138742	0.094447
O25	O	-0.523740	-0.723519	-0.680411
O26	O	-0.023740	-0.223519	-0.180411
O27	O	-0.523788	-0.638735	-0.524012
O28	O	-0.023788	-0.138735	-0.024012
O29	O	-0.405261	-0.787765	-0.680452
O30	O	0.094739	-0.287765	-0.180452
O31	O	-0.680211	-0.787667	-0.405542
O32	O	-0.180211	-0.287667	0.094458
O33	O	-0.680167	-0.723463	-0.524006
O34	O	-0.180167	-0.223463	-0.024006
C35	C	-0.715188	-0.755572	-0.464788
C36	C	-0.215188	-0.255572	0.035212
C37	C	-0.822402	-0.755603	-0.464809
C38	C	-0.322402	-0.255603	0.035191
C39	C	-0.464567	-0.619767	-0.464778
C40	C	0.035433	-0.119767	0.035222
C41	C	-0.464587	-0.561653	-0.464784
C42	C	0.035413	-0.061653	0.035216
C43	C	-1.018697	-0.755658	-0.464869
C44	C	-0.518697	-0.255658	0.035131
C45	C	-0.909464	-0.755626	-0.464838
C46	C	-0.409464	-0.255626	0.035162
C47	C	-0.402955	-0.201307	-0.526624
C48	C	0.097045	0.298693	-0.026624
C49	C	-0.402954	-0.146702	-0.526630
C50	C	0.097046	0.353298	-0.026630
O51	O	-0.350535	-0.118480	-0.579161
O52	O	0.149465	0.381520	-0.079161
N53	N	-0.464570	-0.119371	-0.464842
N54	N	0.035430	0.380629	0.035158
C55	C	-0.526183	-0.146647	-0.403037
C56	C	-0.026183	0.353353	0.096963
O57	O	-0.578592	-0.118385	-0.350481
O58	O	-0.078592	0.381615	0.149519
C59	C	-0.526179	-0.201250	-0.403027
C60	C	-0.026179	0.298750	0.096973
C61	C	-0.464566	-0.228579	-0.464826
C62	C	0.035434	0.271421	0.035174
C63	C	-0.341347	-0.228636	-0.588417
C64	C	0.158653	0.271364	-0.088417
C65	C	-0.341349	-0.283236	-0.588412
C66	C	0.158651	0.216764	-0.088412
C67	C	-0.402960	-0.310508	-0.526614
C68	C	0.097040	0.189492	-0.026614
C69	C	-0.464568	-0.283179	-0.464821
C70	C	0.035432	0.216821	0.035179
C71	C	-0.587787	-0.228525	-0.341218
C72	C	-0.087787	0.271475	0.158782
C73	C	-0.587776	-0.283132	-0.341212
C74	C	-0.087776	0.216868	0.158788
C75	C	-0.526164	-0.310460	-0.403011
C76	C	-0.026164	0.189540	0.096989
C77	C	-0.526182	-0.365051	-0.403018
C78	C	-0.026182	0.134949	0.096982
N79	N	-0.464566	-0.392383	-0.464806
N80	N	0.035434	0.107617	0.035194
C81	C	-0.402955	-0.365111	-0.526604
C82	C	0.097045	0.134889	-0.026604
C83	C	-0.526187	-0.031976	-0.403061
C84	C	-0.026187	0.468024	0.096939
C85	C	-0.526198	0.022626	-0.403076
C86	C	-0.026198	0.522626	0.096924
C87	C	-0.402967	0.022567	-0.526668
C88	C	0.097033	0.522567	-0.026668
C89	C	-0.402962	-0.032037	-0.526658
C90	C	0.097038	0.467963	-0.026658
C91	C	-0.464572	-0.059307	-0.464850
C92	C	0.035428	0.440693	0.035150
C93	C	-0.402966	-0.479776	-0.526590
C94	C	0.097034	0.020224	-0.026590
C95	C	-0.402976	-0.534382	-0.526582
C96	C	0.097024	-0.034382	-0.026582
C97	C	-0.526203	-0.534317	-0.402987
C98	C	-0.026203	-0.034317	0.097013
C99	C	-0.526196	-0.479717	-0.402998
C100	C	-0.026196	0.020283	0.097002
C101	C	-0.464570	-0.452447	-0.464802
C102	C	0.035430	0.047553	0.035198
O103	O	-0.578572	-0.393309	-0.350511
O104	O	-0.078572	0.106691	0.149489
O105	O	-0.350547	-0.393379	-0.579142
O106	O	0.149453	0.106621	-0.079142
C107	C	-0.212981	-0.755663	-0.464865
C108	C	0.287019	-0.255663	0.035135
C109	C	-0.105767	-0.755685	-0.464886
C110	C	0.394233	-0.255685	0.035114
C111	C	-0.464488	-0.755647	-0.716409
C112	C	0.035512	-0.255647	-0.216409
C113	C	-0.464452	-0.755663	-0.823623
C114	C	0.035548	-0.255663	-0.323623
C115	C	-0.464581	0.108017	-0.464855
C116	C	0.035419	0.608017	0.035145
C117	C	-0.464583	0.049903	-0.464871
C118	C	0.035417	0.549903	0.035129
C119	C	-0.464387	-0.755677	-1.019919
C120	C	0.035613	-0.255677	-0.519919
C121	C	-0.464426	-0.755668	-0.910686
C122	C	0.035574	-0.255668	-0.410686
C123	C	-0.464589	-0.755603	-0.214202
C124	C	0.035411	-0.255603	0.285798
C125	C	-0.464353	-0.755689	-0.106988
C126	C	0.035647	-0.255689	0.393012
H127	H	-0.352803	-0.556630	-0.576910
H128	H	0.147197	-0.056630	-0.076910
O129	O	-0.647606	-0.201905	-0.281275
O130	O	-0.147606	0.298095	0.218725
C131	C	-0.702199	-0.117770	-0.226440
C132	C	-0.202199	0.382230	0.273560
C133	C	-0.634416	-0.147850	-0.294394
C134	C	-0.134416	0.352150	0.205606
H135	H	-0.691544	-0.074061	-0.237009
H136	H	-0.191544	0.425939	0.262991
H137	H	-0.780018	-0.128462	-0.243239
H138	H	-0.280018	0.371538	0.256761
H139	H	-0.685167	-0.128525	-0.148704
H140	H	-0.185167	0.371475	0.351296
H141	H	-0.651362	-0.137111	-0.372153
H142	H	-0.151362	0.362889	0.127847
H143	H	-0.556618	-0.137155	-0.277512
H144	H	-0.056618	0.362845	0.222488
H145	H	-0.576366	-0.054177	-0.352732
H146	H	-0.076366	0.445823	0.147268
H147	H	-0.352780	-0.457580	-0.576914
H148	H	0.147220	0.042420	-0.076914
H149	H	-0.637946	-0.305333	-0.290878
H150	H	-0.137946	0.194667	0.209122
H151	H	-0.576367	-0.556532	-0.352675
H152	H	-0.076367	-0.056532	0.147325
O153	O	-0.281397	-0.309698	-0.648465
O154	O	0.218603	0.190302	-0.148465
C155	C	-0.159197	-0.303974	-0.771077
C156	C	0.340803	0.196026	-0.271077
C157	C	-0.227037	-0.273946	-0.703103
C158	C	0.272963	0.226054	-0.203103
H159	H	-0.115244	-0.275081	-0.815284
H160	H	0.384756	0.224919	-0.315284
H161	H	-0.108638	-0.329518	-0.726919
H162	H	0.391362	0.170482	-0.226919
H163	H	-0.203543	-0.329560	-0.821401
H164	H	0.296457	0.170440	-0.321401
H165	H	-0.182769	-0.248331	-0.652765
H166	H	0.317231	0.251669	-0.152765
H167	H	-0.277598	-0.248435	-0.747321
H168	H	0.222402	0.251565	-0.247321
H169	H	-0.576378	-0.457464	-0.352687
H170	H	-0.076378	0.042536	0.147313
O171	O	-0.343245	0.049121	-0.586744
O172	O	0.156755	0.549121	-0.086744
C173	C	-0.330432	0.110715	-0.717033
C174	C	0.169568	0.610715	-0.217033
C175	C	-0.398169	0.080683	-0.649047
C176	C	0.101831	0.580683	-0.149047
H177	H	-0.374812	0.136232	-0.767436
H178	H	0.125188	0.636232	-0.267436
H179	H	-0.279963	0.136316	-0.672885
H180	H	0.220037	0.636316	-0.172885
H181	H	-0.286368	0.081796	-0.761155
H182	H	0.213632	0.581796	-0.261155
H183	H	-0.442295	0.109564	-0.604911
H184	H	0.057705	0.609564	-0.104911
H185	H	-0.448574	0.055074	-0.693250
H186	H	0.051426	0.555074	-0.193250
O187	O	-0.281630	-0.202092	-0.648505
O188	O	0.218370	0.297908	-0.148505
C189	C	-0.268822	-0.140523	-0.778836
C190	C	0.231178	0.359477	-0.278836
C191	C	-0.336556	-0.170536	-0.710818
C192	C	0.163444	0.329464	-0.210818
H193	H	-0.313203	-0.115012	-0.829247
H194	H	0.186797	0.384988	-0.329247
H195	H	-0.218337	-0.114918	-0.734713
H196	H	0.281663	0.385082	-0.234713
H197	H	-0.224775	-0.169455	-0.822947
H198	H	0.275225	0.330545	-0.322947
H199	H	-0.380666	-0.141643	-0.666692
H200	H	0.119334	0.358357	-0.166692
H201	H	-0.386977	-0.196149	-0.754996
H202	H	0.113023	0.303851	-0.254996
H203	H	-0.352790	-0.054284	-0.576978
H204	H	0.147210	0.445716	-0.076978
H205	H	-0.576380	0.044873	-0.352763
H206	H	-0.076380	0.544873	0.147237
