data_functionalizedCrystal
_audit_creation_method	'MofGen! by Chris Wilmer'
_symmetry_space_group_name_H-M	'P1'
_symmetry_Int_Tables_number	1
_symmetry_cell_setting	triclinic
loop_
_symmetry_equiv_pos_as_xyz
  x,y,z
_cell_length_a	17.699077
_cell_length_b	11.792241
_cell_length_c	16.776229
_cell_angle_alpha	89.993219
_cell_angle_beta	89.993415
_cell_angle_gamma	83.736996
loop_
_atom_site_label
_atom_site_type_symbol
_atom_site_fract_x
_atom_site_fract_y
_atom_site_fract_z
O1	O	1.004846	0.143494	-0.066278
O2	O	1.338179	0.476828	0.267055
O3	O	1.671513	0.810161	0.600389
O4	O	0.784567	0.162175	-0.066282
O5	O	1.117900	0.495508	0.267051
O6	O	1.451233	0.828841	0.600385
O7	O	0.900052	-0.012400	-0.066274
O8	O	1.233385	0.320933	0.267059
O9	O	1.566719	0.654266	0.600392
O10	O	0.889361	0.318069	-0.066286
O11	O	1.222694	0.651403	0.267048
O12	O	1.556028	0.984736	0.600381
O13	O	0.900037	-0.012411	0.066302
O14	O	1.233370	0.320922	0.399636
O15	O	1.566703	0.654256	0.732969
O16	O	0.784551	0.162164	0.066295
O17	O	1.117885	0.495497	0.399628
O18	O	1.451218	0.828831	0.732961
O19	O	1.004831	0.143484	0.066299
O20	O	1.338164	0.476817	0.399632
O21	O	1.671497	0.810150	0.732965
Zn22	Zn	0.894689	0.152822	0.087346
Zn23	Zn	1.228022	0.486156	0.420679
Zn24	Zn	1.561355	0.819489	0.754013
Zn25	Zn	0.894709	0.152836	-0.087329
Zn26	Zn	1.228042	0.486170	0.246004
Zn27	Zn	1.561376	0.819503	0.579337
O28	O	0.889345	0.318059	0.066291
O29	O	1.222679	0.651392	0.399624
O30	O	1.556012	0.984725	0.732958
C31	C	0.756358	0.161501	0.000006
C32	C	1.089692	0.494834	0.333339
C33	C	1.423025	0.828168	0.666673
C34	C	0.672329	0.159497	0.000005
C35	C	1.005663	0.492830	0.333338
C36	C	1.338996	0.826163	0.666671
C37	C	0.632848	0.158546	0.072273
C38	C	0.966182	0.491879	0.405606
C39	C	1.299515	0.825213	0.738940
C40	C	0.553896	0.156644	0.072274
C41	C	0.887229	0.489978	0.405607
C42	C	1.220562	0.823311	0.738940
C43	C	0.514425	0.155701	0.000006
C44	C	0.847758	0.489035	0.333339
C45	C	1.181091	0.822368	0.666672
C46	C	0.553911	0.156648	-0.072268
C47	C	0.887245	0.489982	0.261065
C48	C	1.220578	0.823315	0.594398
C49	C	0.632863	0.158542	-0.072268
C50	C	0.966197	0.491875	0.261065
C51	C	1.299530	0.825209	0.594398
C52	C	0.235507	0.149011	-0.072270
C53	C	0.568841	0.482344	0.261064
C54	C	0.902174	0.815677	0.594397
C55	C	0.156550	0.147120	-0.072264
C56	C	0.489883	0.480454	0.261069
C57	C	0.823216	0.813787	0.594403
C58	C	0.156540	0.147113	0.072273
C59	C	0.489873	0.480447	0.405606
C60	C	0.823207	0.813780	0.738939
C61	C	0.235492	0.149007	0.072273
C62	C	0.568825	0.482340	0.405606
C63	C	0.902158	0.815673	0.738939
C64	C	0.274972	0.149948	-0.000001
C65	C	0.608305	0.483281	0.333332
C66	C	0.941639	0.816614	0.666666
C67	C	0.360582	0.152007	-0.000001
C68	C	0.693915	0.485341	0.333332
C69	C	1.027248	0.818674	0.666666
C70	C	0.428816	0.153650	0.000005
C71	C	0.762149	0.486983	0.333338
C72	C	1.095483	0.820316	0.666671
C73	C	0.899373	-0.054688	0.000014
C74	C	1.232706	0.278645	0.333347
C75	C	1.566039	0.611978	0.666680
C76	C	0.897363	-0.180678	0.000013
C77	C	1.230696	0.152655	0.333346
C78	C	1.564029	0.485989	0.666680
C79	C	0.893666	-0.411346	-0.000000
C80	C	1.227000	-0.078012	0.333333
C81	C	1.560333	0.255321	0.666666
C82	C	0.895720	-0.282985	0.000007
C83	C	1.229053	0.050348	0.333340
C84	C	1.562387	0.383681	0.666674
C85	C	1.033039	0.144157	0.000009
C86	C	1.366372	0.477491	0.333342
C87	C	1.699706	0.810824	0.666676
C88	C	1.117068	0.146162	0.000005
C89	C	1.450401	0.479495	0.333339
C90	C	1.783735	0.812829	0.666672
C91	C	0.890025	0.360347	0.000001
C92	C	1.223358	0.693680	0.333335
C93	C	1.556691	1.027014	0.666668
C94	C	0.892035	0.486336	-0.000003
C95	C	1.225368	0.819670	0.333330
C96	C	1.558701	1.153003	0.666663
N97	N	0.894680	0.152812	0.206557
N98	N	1.228013	0.486145	0.539891
N99	N	1.561347	0.819479	0.873224
N100	N	0.894723	0.152838	-0.206541
N101	N	1.228057	0.486171	0.126793
N102	N	1.561390	0.819504	0.460126
C103	C	0.945833	0.075542	0.248278
C104	C	1.279166	0.408875	0.581611
C105	C	1.612499	0.742208	0.914944
C106	C	0.945837	0.075541	0.331730
C107	C	1.279170	0.408874	0.665063
C108	C	1.612504	0.742207	0.998397
C109	C	0.894692	0.152816	0.373460
C110	C	1.228025	0.486150	0.706793
C111	C	1.561358	0.819483	1.040127
C112	C	0.843533	0.230090	0.331734
C113	C	1.176867	0.563423	0.665067
C114	C	1.510200	0.896757	0.998400
C115	C	0.843526	0.230085	0.248283
C116	C	1.176859	0.563418	0.581616
C117	C	1.510193	0.896751	0.914950
C118	C	0.843561	0.230112	0.668281
C119	C	1.176894	0.563446	1.001614
C120	C	1.510228	0.896779	1.334948
C121	C	0.843574	0.230114	0.751737
C122	C	1.176907	0.563447	1.085071
C123	C	1.510240	0.896781	1.418404
C124	C	0.945872	0.075568	0.751728
C125	C	1.279205	0.408902	1.085061
C126	C	1.612538	0.742235	1.418394
C127	C	0.945864	0.075563	0.668277
C128	C	1.279198	0.408896	1.001610
C129	C	1.612531	0.742230	1.334944
C130	C	0.894704	0.152832	0.626558
C131	C	1.228037	0.486166	0.959891
C132	C	1.561371	0.819499	1.293225
C133	C	0.894699	0.152831	0.536070
C134	C	1.228032	0.486164	0.869403
C135	C	1.561366	0.819498	1.202736
C136	C	0.894700	0.152824	0.463947
C137	C	1.228033	0.486157	0.797280
C138	C	1.561366	0.819491	1.130614
H139	H	0.521768	0.155873	-0.131110
H140	H	0.855102	0.489206	0.202223
H141	H	1.188435	0.822539	0.535556
F142	F	0.674882	0.159549	-0.149186
F143	F	1.008215	0.492883	0.184147
F144	F	1.341548	0.826216	0.517480
H145	H	0.987484	0.012620	0.214306
H146	H	1.320818	0.345953	0.547640
H147	H	1.654151	0.679287	0.880973
H148	H	0.124386	0.146342	0.131121
H149	H	0.457719	0.479675	0.464455
H150	H	0.791053	0.813008	0.797788
F151	F	1.000302	-0.006679	0.623868
F152	F	1.333636	0.326654	0.957201
F153	F	1.666969	0.659987	1.290535
F154	F	0.114543	0.146115	-0.149186
F155	F	0.447877	0.479449	0.184148
F156	F	0.781210	0.812782	0.517481
F157	F	0.277515	0.150013	-0.149190
F158	F	0.610848	0.483347	0.184144
F159	F	0.944182	0.816680	0.517477
F160	F	1.000278	-0.006700	0.376132
F161	F	1.333612	0.326634	0.709465
F162	F	1.666945	0.659967	1.042799
F163	F	1.000320	-0.006673	0.796134
F164	F	1.333653	0.326660	1.129468
F165	F	1.666986	0.659993	1.462801
H166	H	0.801922	0.293043	0.785713
H167	H	1.135255	0.626377	1.119046
H168	H	1.468589	0.959710	1.452380
F169	F	0.789115	0.312350	0.623887
F170	F	1.122448	0.645683	0.957220
F171	F	1.455782	0.979016	1.290554
F172	F	0.789080	0.312323	0.203882
F173	F	1.122413	0.645657	0.537216
F174	F	1.455747	0.978990	0.870549
F175	F	0.789096	0.312328	0.376147
F176	F	1.122429	0.645662	0.709480
F177	F	1.455763	0.978995	1.042813
F178	F	0.511879	0.155649	0.149192
F179	F	0.845213	0.488982	0.482525
F180	F	1.178546	0.822315	0.815858
F181	F	0.674849	0.159557	0.149192
F182	F	1.008182	0.492891	0.482525
F183	F	1.341516	0.826224	0.815859
H184	H	0.267625	0.149780	0.131121
H185	H	0.600958	0.483114	0.464454
H186	H	0.934291	0.816447	0.797787
