data_functionalizedCrystal
_audit_creation_method	'MofGen! by Chris Wilmer'
_symmetry_space_group_name_H-M	'P1'
_symmetry_Int_Tables_number	1
_symmetry_cell_setting	triclinic
loop_
_symmetry_equiv_pos_as_xyz
  x,y,z
_cell_length_a	11.792241
_cell_length_b	12.811438
_cell_length_c	11.295483
_cell_angle_alpha	91.289945
_cell_angle_beta	94.123059
_cell_angle_gamma	84.119405
loop_
_atom_site_label
_atom_site_type_symbol
_atom_site_fract_x
_atom_site_fract_y
_atom_site_fract_z
O1	O	0.156822	1.389903	0.051094
O2	O	0.170924	1.086741	0.018348
O3	O	-0.001250	1.245678	0.035524
O4	O	0.328996	1.230966	0.033918
O5	O	0.013849	1.231718	0.232066
O6	O	0.186023	1.072781	0.214890
O7	O	0.171921	1.375943	0.247636
Cu8	Cu	0.180351	1.223087	0.249209
Cu9	Cu	0.162495	1.239597	0.016775
O10	O	0.344095	1.217006	0.230460
C11	C	0.177220	1.040949	0.112426
C12	C	0.173469	0.925303	0.099935
C13	C	0.159952	0.769911	-0.024792
C14	C	0.163475	0.878571	-0.013066
C15	C	0.179936	0.863366	0.201217
C16	C	0.176414	0.754706	0.189490
C17	C	0.166423	0.707982	0.076482
C18	C	0.162908	0.599318	0.064756
C19	C	0.179361	0.584116	0.279038
C20	C	0.182884	0.692777	0.290764
C21	C	-0.035997	1.237774	0.133694
C22	C	-0.162029	1.235008	0.133394
C23	C	-0.392775	1.229922	0.132825
C24	C	-0.264371	1.232748	0.133141
C25	C	0.378842	1.224910	0.132286
C26	C	0.504873	1.227677	0.132579
C27	C	0.165626	1.421735	0.153554
C28	C	0.169376	1.537382	0.166038
N29	N	0.192909	1.211483	0.412691
N30	N	0.149927	1.251209	-0.146707
C31	C	0.059461	1.334742	0.675301
C32	C	0.068960	1.325980	0.799017
C33	C	0.221399	1.185193	0.783843
C34	C	0.211900	1.193955	0.660126
C35	C	0.130930	1.268733	0.605860
C36	C	0.121438	1.277499	0.482141
C37	C	0.273870	1.136708	0.466969
C38	C	0.283369	1.127946	0.590685
H39	H	0.188057	0.901430	0.293223
C40	C	0.193880	0.744178	0.415063
H41	H	0.195059	0.817762	0.407544
H42	H	0.130646	0.730814	0.457991
H43	H	0.262742	0.715677	0.456332
C44	C	0.156366	0.946689	-0.124467
H45	H	0.149920	0.903295	-0.193446
H46	H	0.091356	0.996966	-0.123530
H47	H	0.223454	0.981819	-0.125164
H48	H	0.184636	0.533681	0.361503
C49	C	0.372433	1.045702	0.650386
H50	H	0.367861	1.049941	0.734013
H51	H	0.357612	0.977550	0.622612
H52	H	0.446787	1.058892	0.631375
H53	H	0.055511	1.338389	0.437959
C54	C	0.352502	1.064107	0.390583
H55	H	0.335252	1.080033	0.309128
H56	H	0.429961	1.074422	0.412134
H57	H	0.340790	0.993076	0.403348
H58	H	0.151830	0.731866	-0.116808
C59	C	0.151925	0.547922	-0.059546
H60	H	0.148567	0.600373	-0.118180
H61	H	0.216255	0.498283	-0.069395
H62	H	0.084157	0.513418	-0.067756
H63	H	-0.006461	1.395636	0.631117
C64	C	-0.009653	1.398592	0.875399
H65	H	-0.059228	1.444384	0.825357
H66	H	-0.053707	1.357439	0.919598
H67	H	0.035482	1.438769	0.928354
C68	C	0.310453	1.102944	0.843550
H69	H	0.305873	1.107186	0.927177
H70	H	0.295626	1.034794	0.815776
H71	H	0.384812	1.116126	0.824547
