data_functionalizedCrystal
_audit_creation_method	'MofGen! by Chris Wilmer'
_symmetry_space_group_name_H-M	'P1'
_symmetry_Int_Tables_number	1
_symmetry_cell_setting	triclinic
loop_
_symmetry_equiv_pos_as_xyz
  x,y,z
_cell_length_a	10.489741
_cell_length_b	10.489716
_cell_length_c	9.616153
_cell_angle_alpha	90.001809
_cell_angle_beta	89.995808
_cell_angle_gamma	84.534155
loop_
_atom_site_label
_atom_site_type_symbol
_atom_site_fract_x
_atom_site_fract_y
_atom_site_fract_z
O1	O	1.694043	0.179965	-0.115546
O2	O	1.322846	0.196858	-0.115566
O3	O	1.516907	0.002811	-0.115561
O4	O	1.499981	0.374011	-0.115552
O5	O	1.516880	0.002815	0.115731
O6	O	1.322819	0.196862	0.115725
O7	O	1.694016	0.179969	0.115745
Zn8	Zn	1.508413	0.188416	0.152458
Zn9	Zn	1.508448	0.188411	-0.152279
O10	O	1.499955	0.374015	0.115740
C11	C	1.275301	0.195584	0.000077
C12	C	1.133672	0.191767	0.000068
C13	C	1.065542	0.068301	0.000078
C14	C	0.973424	0.126623	-0.113956
C15	C	0.973431	0.126656	0.114079
C16	C	1.043418	0.250140	-0.114060
C17	C	1.043435	0.250156	0.114077
C18	C	0.951344	0.308568	0.000015
C19	C	1.515622	-0.044719	0.000081
C20	C	1.511817	-0.186350	0.000068
C21	C	1.630822	-0.284024	0.000087
C22	C	1.567950	-0.361386	-0.113952
C23	C	1.567896	-0.361346	0.114084
C24	C	1.448995	-0.261847	-0.114065
C25	C	1.448959	-0.261802	0.114073
C26	C	1.386000	-0.339115	0.000006
C27	C	1.741561	0.181243	0.000100
C28	C	1.883190	0.185060	0.000099
C29	C	1.501240	0.421545	0.000095
C30	C	1.505044	0.563176	0.000099
N31	N	1.508398	0.188419	0.360432
N32	N	1.508473	0.188398	-0.360253
C33	C	1.404271	0.291872	0.580799
C34	C	1.404501	0.292260	0.419632
C35	C	1.641764	0.218714	0.418890
C36	C	1.641197	0.219447	0.580108
C37	C	1.480488	0.054331	0.580339
C38	C	1.477427	0.055199	0.419112
H39	H	0.942425	0.074380	-0.210368
Br40	Br	1.651646	-0.433801	0.274771
Br41	Br	1.321795	0.006303	0.648176
Br42	Br	1.095159	0.337163	0.274779
H43	H	0.942447	0.074394	0.210487
Br44	Br	1.313900	0.016920	0.355438
Br45	Br	1.434423	0.458060	0.355323
H46	H	1.282408	-0.363546	-0.000061
H47	H	1.305407	0.274029	0.380111
H48	H	0.901911	0.410172	-0.000045
H49	H	1.666785	0.315421	0.378504
Br50	Br	1.148312	-0.100892	-0.000106
H51	H	1.734335	-0.259347	-0.000023
H52	H	1.074253	0.302338	-0.210576
Br53	Br	1.651694	-0.433886	-0.274638
H54	H	1.556463	-0.022686	0.618457
Br55	Br	1.681991	0.382471	0.642772
Br56	Br	1.365330	-0.189684	-0.274939
Br57	Br	1.365309	-0.189228	0.274767
H58	H	1.304868	0.273921	0.619604
Br59	Br	1.433876	0.456725	0.648272
Br60	Br	1.774286	0.098576	0.645105
H61	H	1.721198	0.145407	0.380540
Br62	Br	1.595552	-0.079313	0.351976
