data_functionalizedCrystal
_audit_creation_method	'MofGen! by Chris Wilmer'
_symmetry_space_group_name_H-M	'P1'
_symmetry_Int_Tables_number	1
_symmetry_cell_setting	triclinic
loop_
_symmetry_equiv_pos_as_xyz
  x,y,z
_cell_length_a	11.026607
_cell_length_b	19.288835
_cell_length_c	9.482900
_cell_angle_alpha	80.736046
_cell_angle_beta	78.599815
_cell_angle_gamma	84.145012
loop_
_atom_site_label
_atom_site_type_symbol
_atom_site_fract_x
_atom_site_fract_y
_atom_site_fract_z
O1	O	0.132006	-0.948990	0.121185
O2	O	0.632006	-0.448990	0.621185
O3	O	0.152460	-0.749315	0.121126
O4	O	0.652460	-0.249315	0.621126
O5	O	-0.034325	-0.832603	0.121145
O6	O	0.465675	-0.332603	0.621145
O7	O	0.318791	-0.865702	0.121166
O8	O	0.818791	-0.365702	0.621166
O9	O	0.003767	-0.815705	-0.120651
O10	O	0.503767	-0.315705	0.379349
O11	O	0.190552	-0.732417	-0.120671
O12	O	0.690552	-0.232417	0.379329
O13	O	0.170098	-0.932091	-0.120611
O14	O	0.670098	-0.432091	0.379389
Cu15	Cu	0.183803	-0.830711	-0.142719
Cu16	Cu	0.683803	-0.330711	0.357281
Cu17	Cu	0.138755	-0.850696	0.143234
Cu18	Cu	0.638755	-0.350696	0.643234
O19	O	0.356883	-0.848803	-0.120631
O20	O	0.856883	-0.348803	0.379369
C21	C	0.170856	-0.714906	0.000220
C22	C	0.670856	-0.214906	0.500220
C23	C	0.168903	-0.637551	0.000197
C24	C	0.668903	-0.137551	0.500197
C25	C	0.147199	-0.610440	0.132002
C26	C	0.647199	-0.110440	0.632002
C27	C	0.145345	-0.537759	0.132017
C28	C	0.645345	-0.037759	0.632017
C29	C	0.165171	-0.492191	0.000218
C30	C	0.665171	0.007809	0.500218
C31	C	0.186885	-0.519310	-0.131604
C32	C	0.686885	-0.019310	0.368396
C33	C	0.188751	-0.591990	-0.131615
C34	C	0.688751	-0.091990	0.368385
C35	C	0.107095	-0.366423	-0.100746
C36	C	0.607095	0.133577	0.399254
C37	C	0.105221	-0.293744	-0.100730
C38	C	0.605221	0.206256	0.399270
C39	C	0.159423	-0.268020	0.000246
C40	C	0.659423	0.231980	0.500246
C41	C	0.215480	-0.314984	0.101229
C42	C	0.715480	0.185016	0.601229
C43	C	0.217346	-0.387665	0.101218
C44	C	0.717346	0.112335	0.601218
C45	C	0.163151	-0.413380	0.000215
C46	C	0.663151	0.086620	0.500215
C47	C	0.135709	-0.162100	0.132075
C48	C	0.635709	0.337900	0.632075
C49	C	0.133863	-0.089418	0.132084
C50	C	0.633863	0.410582	0.632084
C51	C	0.175392	-0.070969	-0.131540
C52	C	0.675392	0.429031	0.368460
C53	C	0.177250	-0.143651	-0.131546
C54	C	0.677250	0.356349	0.368454
C55	C	0.157401	-0.189212	0.000266
C56	C	0.657401	0.310788	0.500266
C57	C	-0.060455	-0.818048	0.000247
C58	C	0.439545	-0.318048	0.500247
C59	C	-0.195066	-0.799847	0.000247
C60	C	0.304934	-0.299847	0.500247
C61	C	-0.269159	-0.850106	0.000264
C62	C	0.230841	-0.350106	0.500264
C63	C	-0.408286	-0.831295	0.000264
C64	C	0.091714	-0.331295	0.500264
C65	C	0.383013	-0.863359	0.000271
C66	C	0.883013	-0.363359	0.500271
C67	C	0.517622	-0.881561	0.000281
C68	C	1.017622	-0.381561	0.500281
C69	C	0.151712	0.033500	0.000286
C70	C	0.651712	0.533500	0.500286
C71	C	0.153692	-0.043854	0.000285
C72	C	0.653692	0.456146	0.500285
N73	N	0.215487	-0.816660	-0.343842
N74	N	0.715487	-0.316660	0.156158
C75	C	0.148094	-0.846546	-0.416034
C76	C	0.648094	-0.346546	0.083966
C77	C	0.174465	-0.834861	-0.583455
C78	C	0.674465	-0.334861	-0.083455
N79	N	0.107062	-0.864751	0.344357
N80	N	0.607062	-0.364751	0.844357
H81	H	0.203031	-0.482203	-0.238916
H82	H	0.703031	0.017797	0.261084
H83	H	0.070868	-0.880779	-0.353898
H84	H	0.570868	-0.380779	0.146102
H85	H	-0.442836	-0.938528	0.000407
H86	H	0.057164	-0.438528	0.500407
O87	O	0.276777	-0.789514	-0.665729
O88	O	0.776777	-0.289514	-0.165729
H89	H	0.236959	-0.744506	-0.735120
H90	H	0.736959	-0.244506	-0.235120
O91	O	0.048622	-0.394167	-0.209653
O92	O	0.548622	0.105833	0.290347
H93	H	0.009310	-0.349303	-0.279850
H94	H	0.509310	0.150697	0.220150
O95	O	0.277819	-0.438321	0.210108
O96	O	0.777819	0.061679	0.710108
H97	H	0.315209	-0.408229	0.280322
H98	H	0.815209	0.091771	0.780322
O99	O	0.044772	-0.243091	-0.209646
O100	O	0.544772	0.256909	0.290354
H101	H	0.007421	-0.273187	-0.279884
H102	H	0.507421	0.226813	0.220116
O103	O	0.273997	-0.287259	0.210117
O104	O	0.773997	0.212741	0.710117
H105	H	0.227528	-0.307559	0.321893
H106	H	0.727528	0.192441	0.821893
H107	H	-0.234634	-0.742892	0.000239
H108	H	0.265366	-0.242892	0.500239
H109	H	0.029832	-0.898987	-0.593511
H110	H	0.529832	-0.398987	-0.093511
H111	H	0.206427	-0.614062	-0.238950
H112	H	0.706427	-0.114062	0.261050
O113	O	-0.216767	-0.925553	0.000285
O114	O	0.283233	-0.425553	0.500285
H115	H	-0.115711	-0.928487	0.000273
H116	H	0.384289	-0.428487	0.500273
H117	H	0.194916	-0.165724	-0.238876
H118	H	0.694916	0.334276	0.261124
H119	H	0.292703	-0.782420	-0.405980
H120	H	0.792703	-0.282420	0.094020
O121	O	-0.460670	-0.755843	0.000232
O122	O	0.039330	-0.255843	0.500232
H123	H	-0.561723	-0.752907	0.000221
H124	H	-0.061723	-0.252907	0.500221
O125	O	0.125808	-0.659584	0.274163
O126	O	0.625808	-0.159584	0.774163
H127	H	0.110415	-0.628517	0.365819
H128	H	0.610415	-0.128517	0.865819
H129	H	0.127672	-0.515681	0.239352
H130	H	0.627672	-0.015681	0.739352
H131	H	0.116196	-0.067347	0.239420
H132	H	0.616196	0.432653	0.739420
O133	O	0.114313	-0.211254	0.274228
O134	O	0.614313	0.288746	0.774228
H135	H	0.186641	-0.205872	0.337435
H136	H	0.686641	0.294128	0.837435
O137	O	0.197007	-0.021843	-0.273702
O138	O	0.697007	0.478157	0.226298
H139	H	0.192141	0.033248	-0.251553
H140	H	0.692141	0.533248	0.248447
