data_functionalizedCrystal
_audit_creation_method	'MofGen! by Chris Wilmer'
_symmetry_space_group_name_H-M	'P1'
_symmetry_Int_Tables_number	1
_symmetry_cell_setting	triclinic
loop_
_symmetry_equiv_pos_as_xyz
  x,y,z
_cell_length_a	13.032831
_cell_length_b	29.839131
_cell_length_c	13.032268
_cell_angle_alpha	97.140540
_cell_angle_beta	90.886977
_cell_angle_gamma	82.845366
loop_
_atom_site_label
_atom_site_type_symbol
_atom_site_fract_x
_atom_site_fract_y
_atom_site_fract_z
Zn1	Zn	1.498202	-0.303377	-0.780727
Zn2	Zn	1.519883	-0.370307	-0.608723
Zn3	Zn	1.348078	-0.284611	-0.586974
Zn4	Zn	1.326134	-0.367878	-0.758849
O5	O	1.423074	-0.331543	-0.683818
O6	O	1.644991	-0.321125	-0.776168
O7	O	1.515350	-0.352102	-0.461924
O8	O	1.368102	-0.224242	-0.612730
O9	O	1.660920	-0.370299	-0.649797
O10	O	1.478398	-0.238029	-0.755079
O11	O	1.389125	-0.289141	-0.445945
O12	O	1.201254	-0.286786	-0.591516
O13	O	1.330702	-0.366159	-0.905665
O14	O	1.185132	-0.347962	-0.717792
O15	O	1.457120	-0.318770	-0.921739
O16	O	1.494072	-0.432843	-0.628583
O17	O	1.351725	-0.431059	-0.738880
C18	C	1.155878	-0.315075	-0.649920
C19	C	1.041567	-0.308042	-0.635443
C20	C	0.982667	-0.335214	-0.691374
C21	C	0.864520	-0.327945	-0.676412
C22	C	1.422895	-0.448252	-0.683744
C23	C	1.422908	-0.498188	-0.683758
C24	C	1.497302	-0.808772	-0.626498
C25	C	1.497423	-0.996455	-0.626554
O26	O	1.560533	-1.021509	-0.577811
N27	N	1.423278	-1.019002	-0.683923
C28	C	1.349100	-0.994626	-0.741287
O29	O	1.286044	-1.018111	-0.790093
C30	C	1.348984	-0.806945	-0.741236
C31	C	1.423128	-0.784399	-0.683855
C32	C	1.571441	-0.786226	-0.569122
C33	C	1.571406	-0.739308	-0.569105
C34	C	1.497232	-0.714935	-0.626462
C35	C	1.423093	-0.737481	-0.683837
C36	C	1.274811	-0.782571	-0.798606
C37	C	1.274790	-0.735648	-0.798590
C38	C	1.348935	-0.713102	-0.741209
C39	C	1.348885	-0.666190	-0.741177
N40	N	1.423031	-0.643643	-0.683808
C41	C	1.497205	-0.668015	-0.626451
C42	C	1.349165	-1.093162	-0.741308
C43	C	1.349193	-1.140082	-0.741320
C44	C	1.497518	-1.141907	-0.626588
C45	C	1.497485	-1.094986	-0.626571
C46	C	1.423311	-1.070614	-0.683939
C47	C	1.497126	-0.569483	-0.626417
C48	C	1.497082	-0.522561	-0.626401
C49	C	1.348761	-0.520740	-0.741137
C50	C	1.348801	-0.567658	-0.741149
C51	C	1.422992	-0.592029	-0.683787
O52	O	1.285815	-0.641109	-0.789903
O53	O	1.560265	-0.644524	-0.577671
C54	C	1.497336	-0.855690	-0.626516
C55	C	1.423197	-0.878236	-0.683891
C56	C	1.349024	-0.853863	-0.741249
C57	C	1.423225	-0.925156	-0.683903
C58	C	1.497399	-0.949529	-0.626545
C59	C	1.571545	-0.926981	-0.569176
C60	C	1.571510	-0.880063	-0.569158
C61	C	1.274878	-0.876411	-0.798618
C62	C	1.274918	-0.923329	-0.798630
C63	C	1.349091	-0.947702	-0.741272
C64	C	1.691313	-0.348076	-0.717849
C65	C	1.805621	-0.355122	-0.732351
C66	C	1.389044	-0.344287	-0.952061
C67	C	1.374543	-0.349718	-1.066370
C68	C	1.423279	-0.214382	-0.683919
C69	C	1.423367	-0.164454	-0.683962
C70	C	1.430627	-0.328692	-1.125285
C71	C	1.415640	-0.334304	-1.243430
C72	C	1.457031	-0.318820	-0.416627
C73	C	1.471732	-0.313275	-0.302344
H74	H	1.019706	-0.363857	-0.750338
N75	N	0.815476	-0.290001	-0.598298
H76	H	0.738029	-0.290189	-0.598678
H77	H	0.843501	-0.294601	-0.527176
H78	H	1.530841	-0.291115	-1.265323
N79	N	0.854663	-0.393066	-0.810466
H80	H	0.932110	-0.392880	-0.810086
H81	H	0.837942	-0.423227	-0.791966
N82	N	0.992515	-0.270100	-0.557334
H83	H	1.048054	-0.252966	-0.522063
H84	H	0.942656	-0.248610	-0.593682
N85	N	1.577057	-0.498244	-0.564512
H86	H	1.624052	-0.520807	-0.528185
H87	H	1.619284	-0.483669	-0.612442
N88	N	1.577144	-0.595765	-0.564550
H89	H	1.624099	-0.574357	-0.528204
H90	H	1.541379	-0.610421	-0.511621
N91	N	1.577456	-1.070671	-0.564687
H92	H	1.624444	-1.093234	-0.528355
H93	H	1.619692	-1.056099	-0.612617
N94	N	1.651390	-0.714996	-0.507232
H95	H	1.698382	-0.737562	-0.470911
H96	H	1.693617	-0.700426	-0.555172
H97	H	1.356519	-0.356458	-1.280451
N98	N	1.508937	-0.299350	-1.076243
H99	H	1.490688	-0.267148	-1.092874
H100	H	1.508501	-0.299543	-0.998811
H101	H	1.631847	-0.806066	-0.522415
N102	N	1.577519	-1.168199	-0.564719
H103	H	1.566279	-1.201342	-0.573438
H104	H	1.648910	-1.165252	-0.590105
H105	H	1.315426	-0.371870	-1.103395
H106	H	1.288809	-1.158433	-0.788034
N107	N	1.269154	-1.066878	-0.803182
H108	H	1.222191	-1.088285	-0.839518
H109	H	1.226898	-1.042518	-0.755241
N110	N	1.194836	-0.806879	-0.860490
H111	H	1.147853	-0.784313	-0.896821
H112	H	1.230625	-0.831160	-0.913433
N113	N	1.194789	-0.709362	-0.860470
H114	H	1.147829	-0.730767	-0.896818
H115	H	1.152528	-0.685003	-0.812533
H116	H	1.288429	-0.586016	-0.787877
H117	H	1.631885	-0.861710	-0.522433
N118	N	1.268763	-0.494443	-0.802991
H119	H	1.304465	-0.479787	-0.855967
H120	H	1.221814	-0.515866	-0.839280
N121	N	1.651540	-0.953273	-0.507301
H122	H	1.640301	-0.986417	-0.516023
H123	H	1.722934	-0.950326	-0.532677
N124	N	1.194934	-0.947642	-0.860513
H125	H	1.147945	-0.925078	-0.896843
H126	H	1.230727	-0.971921	-0.913456
N127	N	1.194869	-0.850126	-0.860482
H128	H	1.147909	-0.871533	-0.896821
H129	H	1.152612	-0.825769	-0.812536
