data_functionalizedCrystal
_audit_creation_method	'MofGen! by Chris Wilmer'
_symmetry_space_group_name_H-M	'P1'
_symmetry_Int_Tables_number	1
_symmetry_cell_setting	triclinic
loop_
_symmetry_equiv_pos_as_xyz
  x,y,z
_cell_length_a	14.971486
_cell_length_b	16.992695
_cell_length_c	13.448316
_cell_angle_alpha	89.993283
_cell_angle_beta	89.998199
_cell_angle_gamma	87.141176
loop_
_atom_site_label
_atom_site_type_symbol
_atom_site_fract_x
_atom_site_fract_y
_atom_site_fract_z
O1	O	1.194127	0.102190	-0.082578
O2	O	0.934587	0.114427	-0.082605
O3	O	1.063317	-0.005835	-0.082584
O4	O	1.065398	0.222452	-0.082599
O5	O	1.063299	-0.005843	0.082800
O6	O	0.934569	0.114420	0.082779
O7	O	1.194110	0.102182	0.082806
Cu8	Cu	1.064338	0.108300	0.097893
Cu9	Cu	1.064359	0.108309	-0.097692
O10	O	1.065380	0.222445	0.082785
C11	C	0.901215	0.113876	0.000083
C12	C	0.801803	0.112236	0.000073
C13	C	0.749541	0.182887	0.000070
C14	C	0.656133	0.181341	0.000085
C15	C	0.614988	0.109144	0.000096
C16	C	0.667257	0.038488	0.000102
C17	C	0.760663	0.040034	0.000095
C18	C	0.472568	0.035269	0.000116
C19	C	0.379155	0.033723	0.000122
C20	C	0.368038	0.176577	0.000106
C21	C	0.461445	0.178123	0.000099
C22	C	0.513707	0.107466	0.000103
C23	C	1.060631	-0.035054	0.000108
C24	C	1.052644	-0.122105	0.000107
C25	C	1.129708	-0.172274	0.000116
C26	C	1.122198	-0.254067	0.000106
C27	C	1.037623	-0.285691	0.000093
C28	C	0.960553	-0.235517	0.000081
C29	C	0.968064	-0.153724	0.000084
C30	C	1.006493	-0.529318	0.000076
C31	C	0.998988	-0.611117	0.000076
C32	C	1.160634	-0.629662	0.000099
C33	C	1.168138	-0.547867	0.000108
C34	C	1.091068	-0.497700	0.000090
N35	N	1.029945	-0.369297	0.000086
N36	N	1.098747	-0.414095	0.000091
C37	C	1.227482	0.102733	0.000115
C38	C	1.326894	0.104373	0.000119
C39	C	1.068066	0.251664	0.000091
C40	C	1.076053	0.338715	0.000085
N41	N	1.064329	0.108294	0.235457
N42	N	1.064374	0.108310	-0.235257
C43	C	1.121351	0.055064	0.287507
C44	C	1.121357	0.055063	0.391611
C45	C	1.064344	0.108297	0.443662
C46	C	1.007316	0.161530	0.391605
C47	C	1.007307	0.161526	0.287504
C48	C	1.007341	0.161535	0.608585
C49	C	1.007352	0.161540	0.712694
C50	C	1.121392	0.055072	0.712692
C51	C	1.121382	0.055068	0.608591
C52	C	1.064355	0.108302	0.556541
H53	H	0.613586	0.238873	0.000081
N54	N	0.923370	-0.475218	0.000062
H55	H	0.940954	-0.418603	0.000058
H56	H	0.886777	-0.485467	-0.061255
N57	N	0.907764	-0.645228	0.000062
H58	H	0.860079	-0.601036	0.000048
H59	H	0.901143	-0.678757	-0.061248
N60	N	0.505826	0.255991	0.000068
H61	H	0.458547	0.300517	0.000065
H62	H	0.544345	0.259745	0.061370
H63	H	0.633749	-0.020297	0.000126
H64	H	1.198578	-0.146533	0.000132
N65	N	0.817035	-0.036167	0.000106
H66	H	0.776798	-0.082139	0.000113
H67	H	0.856033	-0.038638	-0.061204
H68	H	1.167781	0.011718	0.245134
N69	N	1.259366	-0.513775	0.000099
H70	H	1.266087	-0.480250	-0.061211
H71	H	1.266037	-0.480297	0.061445
H72	H	0.345658	-0.025067	0.000133
H73	H	1.223380	-0.670517	0.000111
H74	H	1.184952	-0.294912	0.000115
H75	H	0.891690	-0.261271	0.000065
N76	N	0.884945	-0.099610	0.000069
H77	H	0.830227	-0.132053	0.000062
H78	H	0.884531	-0.065274	0.061377
H79	H	1.167788	0.011718	0.433989
N80	N	1.182878	-0.002341	0.552445
H81	H	1.219005	-0.036066	0.601213
H82	H	1.146152	-0.037058	0.509265
H83	H	0.325482	0.234108	0.000107
N84	N	1.182903	-0.002344	0.768824
H85	H	1.174258	0.005731	0.842670
H86	H	1.168601	-0.057990	0.750638
N87	N	0.945871	0.218962	0.768839
H88	H	0.909741	0.252683	0.720071
H89	H	0.904190	0.188888	0.812052
H90	H	0.960901	0.204881	0.566209
N91	N	0.945821	0.218941	0.447749
H92	H	0.982487	0.253714	0.490926
H93	H	0.909704	0.252608	0.398917
N94	N	0.528932	-0.040941	0.000119
H95	H	0.567932	-0.043479	-0.061191
H96	H	0.567881	-0.043442	0.061465
N97	N	0.793916	0.260758	0.000046
H98	H	0.746631	0.305280	0.000047
H99	H	0.832433	0.264511	0.061350
N100	N	0.945800	0.218934	0.231359
H101	H	0.909684	0.252659	0.280128
H102	H	0.982512	0.253650	0.188150
