data_functionalizedCrystal
_audit_creation_method	'MofGen! by Chris Wilmer'
_symmetry_space_group_name_H-M	'P1'
_symmetry_Int_Tables_number	1
_symmetry_cell_setting	triclinic
loop_
_symmetry_equiv_pos_as_xyz
  x,y,z
_cell_length_a	17.077404
_cell_length_b	19.077068
_cell_length_c	17.077396
_cell_angle_alpha	92.267122
_cell_angle_beta	89.981638
_cell_angle_gamma	92.324970
loop_
_atom_site_label
_atom_site_type_symbol
_atom_site_fract_x
_atom_site_fract_y
_atom_site_fract_z
Zn1	Zn	1.187473	-0.280239	-0.456354
Zn2	Zn	1.182095	-0.397943	-0.330353
Zn3	Zn	1.056204	-0.280259	-0.325106
Zn4	Zn	1.050890	-0.397896	-0.461577
O5	O	1.119165	-0.339084	-0.393347
O6	O	1.296606	-0.295864	-0.439650
O7	O	1.165369	-0.382359	-0.219811
O8	O	1.078091	-0.181766	-0.338134
O9	O	1.292655	-0.382340	-0.347078
O10	O	1.174534	-0.181751	-0.434562
O11	O	1.072877	-0.295898	-0.215956
O12	O	0.945652	-0.295853	-0.343199
O13	O	1.069035	-0.382261	-0.570730
O14	O	0.941748	-0.382280	-0.443464
O15	O	1.169381	-0.295819	-0.566893
O16	O	1.160216	-0.496427	-0.352142
O17	O	1.063820	-0.496393	-0.448552
C18	C	0.915218	-0.339064	-0.393329
C19	C	0.827968	-0.339073	-0.393340
C20	C	0.789032	-0.294125	-0.441623
C21	C	0.707052	-0.294129	-0.441627
C22	C	0.664008	-0.339086	-0.393352
C23	C	0.702950	-0.384036	-0.345063
C24	C	0.784929	-0.384027	-0.345056
C25	C	0.532079	-0.384052	-0.345084
C26	C	0.450094	-0.384062	-0.345092
C27	C	0.454202	-0.294154	-0.441655
C28	C	0.536181	-0.294145	-0.441647
C29	C	0.575117	-0.339096	-0.393360
C30	C	1.110880	-0.521948	-0.401500
C31	C	1.107407	-0.600178	-0.405014
C32	C	1.156002	-0.636925	-0.356512
C33	C	1.152740	-0.710430	-0.359821
C34	C	1.100879	-0.747187	-0.411631
C35	C	1.052281	-0.710435	-0.460139
C36	C	1.055547	-0.636931	-0.456832
C37	C	1.085727	-0.967021	-0.426901
C38	C	1.082463	-1.040530	-0.430202
C39	C	1.182924	-1.040520	-0.329885
C40	C	1.186182	-0.967014	-0.326580
C41	C	1.137588	-0.930269	-0.375091
N42	N	1.097542	-0.822321	-0.415013
N43	N	1.140929	-0.855136	-0.371712
C44	C	1.323909	-0.339105	-0.393366
C45	C	1.411158	-0.339113	-0.393375
C46	C	1.119215	-0.339032	-0.598089
C47	C	1.119236	-0.339010	-0.685338
C48	C	1.127505	-0.155506	-0.385180
C49	C	1.131059	-0.077277	-0.381699
C50	C	1.171489	-0.293996	-0.724331
C51	C	1.171499	-0.293973	-0.806311
C52	C	1.119261	-0.338967	-0.849296
C53	C	1.067002	-0.383984	-0.810297
C54	C	1.066989	-0.384003	-0.728319
C55	C	1.067036	-0.383941	-0.981165
C56	C	1.067050	-0.383923	-1.063149
C57	C	1.171547	-0.293911	-1.059157
C58	C	1.171533	-0.293930	-0.977179
C59	C	1.119276	-0.338948	-0.938186
C60	C	1.119163	-0.339085	-0.189400
C61	C	1.119303	-0.338909	-0.102142
H62	H	0.824073	-0.257517	-0.480937
C63	C	1.228953	-0.244500	-0.677051
C64	C	1.226181	-0.164485	-0.684763
C65	C	1.283645	-0.114986	-0.637485
C66	C	1.343881	-0.145501	-0.582495
C67	C	1.346656	-0.225520	-0.574781
C68	C	1.289192	-0.275019	-0.622059
H69	H	1.181589	-0.141892	-0.725472
H70	H	1.281591	-0.055751	-0.643196
H71	H	1.386420	-0.108859	-0.547497
H72	H	1.391248	-0.248113	-0.534072
H73	H	1.291246	-0.334255	-0.616348
H74	H	1.024511	-0.420560	-1.098146
H75	H	0.816629	-0.420628	-0.305739
C76	C	0.402740	-0.433505	-0.291983
C77	C	0.414230	-0.427644	-0.202494
C78	C	0.366874	-0.477085	-0.149383
C79	C	0.308029	-0.532388	-0.185761
C80	C	0.296536	-0.538251	-0.275255
C81	C	0.343892	-0.488810	-0.328365
H82	H	0.457793	-0.386704	-0.175561
H83	H	0.375382	-0.472744	-0.083134
H84	H	0.272973	-0.568987	-0.146445
H85	H	0.252973	-0.579191	-0.302188
H86	H	0.335384	-0.493151	-0.394614
H87	H	1.192312	-0.740346	-0.320325
C88	C	1.243226	-0.926578	-0.269587
C89	C	1.307077	-0.875972	-0.301374
C90	C	1.364114	-0.835533	-0.244376
C91	C	1.357299	-0.845700	-0.155591
C92	C	1.293445	-0.896309	-0.123800
C93	C	1.236408	-0.936748	-0.180798
H94	H	1.312124	-0.868444	-0.367102
H95	H	1.411383	-0.798069	-0.267911
H96	H	1.399521	-0.815765	-0.113398
H97	H	1.288398	-0.903837	-0.058072
H98	H	1.189139	-0.974211	-0.157264
C99	C	1.236380	-1.080942	-0.276531
C100	C	1.230473	-1.070898	-0.186837
C101	C	1.283933	-1.111320	-0.133482
C102	C	1.343301	-1.161786	-0.169822
C103	C	1.349210	-1.171832	-0.259521
C104	C	1.295750	-1.131410	-0.312876
H105	H	1.186523	-1.033538	-0.159932
H106	H	1.279558	-1.103883	-0.067081
H107	H	1.382875	-1.191708	-0.130326
H108	H	1.393160	-1.209191	-0.286426
H109	H	1.300125	-1.138847	-0.379277
C110	C	1.009560	-0.433462	-0.938265
C111	C	0.920584	-0.427717	-0.949257
C112	C	0.863115	-0.477239	-0.906353
C113	C	0.894623	-0.532506	-0.852457
C114	C	0.983604	-0.538253	-0.841463
C115	C	1.041072	-0.488731	-0.884367
H116	H	0.897256	-0.386803	-0.989156
H117	H	0.797246	-0.472985	-0.914492
H118	H	0.852082	-0.569165	-0.820697
H119	H	1.006932	-0.579167	-0.801564
H120	H	1.106942	-0.492986	-0.876228
C121	C	1.009514	-0.433521	-0.685420
C122	C	0.920540	-0.427768	-0.696419
C123	C	0.863062	-0.477284	-0.653520
C124	C	0.894558	-0.532555	-0.599621
C125	C	0.983537	-0.538310	-0.588620
C126	C	1.041015	-0.488793	-0.631519
H127	H	0.897221	-0.386851	-0.736321
H128	H	0.797194	-0.473023	-0.661664
H129	H	0.852010	-0.569210	-0.567865
H130	H	1.006856	-0.579227	-0.548719
H131	H	1.106883	-0.493054	-0.623375
H132	H	1.214050	-0.257319	-0.838055
H133	H	1.024466	-0.420617	-0.845302
C134	C	1.228997	-0.244437	-0.929895
C135	C	1.226228	-0.164421	-0.937604
C136	C	1.283692	-0.114925	-0.890320
C137	C	1.343923	-0.145445	-0.835329
C138	C	1.346694	-0.225464	-0.827619
C139	C	1.289231	-0.274960	-0.874902
H140	H	1.181639	-0.141825	-0.978313
H141	H	1.281640	-0.055689	-0.896028
H142	H	1.386461	-0.108805	-0.800327
H143	H	1.391284	-0.248060	-0.786909
H144	H	1.291283	-0.334196	-0.869194
H145	H	0.667897	-0.420637	-0.305753
C146	C	1.025413	-1.080964	-0.487198
C147	C	0.971960	-1.040548	-0.540559
C148	C	0.914912	-1.080983	-0.597548
C149	C	0.911316	-1.161834	-0.601177
C150	C	0.964770	-1.202255	-0.547814
C151	C	1.021819	-1.161820	-0.490824
H152	H	0.974621	-0.980693	-0.537875
H153	H	0.875341	-1.051060	-0.637051
H154	H	0.869085	-1.191766	-0.643364
H155	H	0.962110	-1.262110	-0.550498
H156	H	1.061389	-1.191743	-0.451321
C157	C	1.032272	-0.926611	-0.480264
C158	C	0.942587	-0.936787	-0.474240
C159	C	0.889129	-0.896376	-0.527608
C160	C	0.925356	-0.845790	-0.587001
C161	C	1.015046	-0.835612	-0.593028
C162	C	1.068504	-0.876023	-0.539659
H163	H	0.915765	-0.974236	-0.430271
H164	H	0.822734	-0.903911	-0.523146
H165	H	0.885783	-0.815876	-0.626507
H166	H	1.041868	-0.798163	-0.636996
H167	H	1.134898	-0.868488	-0.544121
C168	C	0.574912	-0.433498	-0.291969
C169	C	0.563869	-0.427658	-0.202483
C170	C	0.606702	-0.477105	-0.149373
C171	C	0.660579	-0.532392	-0.185750
C172	C	0.671624	-0.538235	-0.275240
C173	C	0.628790	-0.488788	-0.328350
H174	H	0.523984	-0.386730	-0.175551
H175	H	0.598526	-0.472780	-0.083126
H176	H	0.692287	-0.568996	-0.146435
H177	H	0.711509	-0.579163	-0.302173
H178	H	0.636967	-0.493113	-0.394597
H179	H	0.422496	-0.257551	-0.480970
H180	H	0.675354	-0.257529	-0.480945
H181	H	1.198230	-0.607002	-0.314320
C182	C	0.583527	-0.244694	-0.494754
C183	C	0.572025	-0.250541	-0.584241
C184	C	0.619369	-0.201088	-0.637348
C185	C	0.678215	-0.145787	-0.600968
C186	C	0.689719	-0.139937	-0.511475
C187	C	0.642375	-0.189390	-0.458368
H188	H	0.528462	-0.291481	-0.611177
H189	H	0.610853	-0.205419	-0.703596
H190	H	0.713262	-0.109179	-0.640281
H191	H	0.733282	-0.098998	-0.484540
H192	H	0.650891	-0.185059	-0.392120
H193	H	1.010057	-0.740368	-0.502326
H194	H	1.015977	-0.607012	-0.496329
H195	H	1.214095	-0.257255	-1.090909
