data_functionalizedCrystal
_audit_creation_method	'MofGen! by Chris Wilmer'
_symmetry_space_group_name_H-M	'P1'
_symmetry_Int_Tables_number	1
_symmetry_cell_setting	triclinic
loop_
_symmetry_equiv_pos_as_xyz
  x,y,z
_cell_length_a	15.538191
_cell_length_b	14.044220
_cell_length_c	14.185569
_cell_angle_alpha	75.620253
_cell_angle_beta	97.875798
_cell_angle_gamma	70.230486
loop_
_atom_site_label
_atom_site_type_symbol
_atom_site_fract_x
_atom_site_fract_y
_atom_site_fract_z
O1	O	1.205756	-0.271175	-0.083422
O2	O	0.940435	-0.164802	-0.083425
O3	O	1.069115	-0.354606	-0.083414
O4	O	1.077076	-0.081371	-0.083433
O5	O	1.107129	-0.410672	0.083424
O6	O	0.978449	-0.220867	0.083413
O7	O	1.243770	-0.327240	0.083415
Cu8	Cu	1.114580	-0.279173	0.098648
Cu9	Cu	1.069625	-0.212869	-0.098657
O10	O	1.115089	-0.137436	0.083404
C11	C	0.925281	-0.181705	-0.000006
C12	C	0.823493	-0.148554	-0.000006
C13	C	1.084636	-0.416754	0.000006
C14	C	1.074236	-0.518402	0.000007
C15	C	0.508030	-0.477901	0.000002
C16	C	0.412383	-0.446726	-0.000001
C17	C	0.404671	-0.271379	-0.000014
C18	C	0.500321	-0.302540	-0.000006
C19	C	0.551993	-0.405802	0.000001
C20	C	0.544283	-0.230442	-0.000007
C21	C	0.639923	-0.261599	-0.000004
C22	C	0.691600	-0.364855	-0.000001
C23	C	0.647632	-0.436960	0.000003
C24	C	0.492608	-0.127178	-0.000020
C25	C	0.536570	-0.055080	-0.000021
C26	C	0.632213	-0.086239	-0.000012
C27	C	0.683891	-0.189495	-0.000008
C28	C	0.676181	-0.014135	-0.000016
C29	C	0.771821	-0.045293	-0.000013
C30	C	0.779531	-0.220653	-0.000005
C31	C	1.055220	-0.704517	-0.000008
C32	C	1.128978	-0.787527	-0.000010
C33	C	1.118398	-0.891087	-0.000018
C34	C	1.065800	-0.600946	0.000000
C35	C	1.258923	-0.310336	-0.000005
C36	C	1.360709	-0.343485	-0.000012
C37	C	1.099568	-0.075288	-0.000017
C38	C	1.109966	0.026363	-0.000025
N39	N	1.146206	-0.325810	0.237422
N40	N	1.038005	-0.166242	-0.237431
C41	C	0.945085	-0.029261	0.605054
C42	C	0.969048	-0.064584	0.710078
C43	C	1.083023	-0.232618	0.710049
C44	C	1.059066	-0.197311	0.605023
C45	C	0.990097	-0.095631	0.552534
C46	C	1.104079	-0.263681	0.552503
C47	C	1.080128	-0.228374	0.447486
C48	C	1.011163	-0.126697	0.394990
C49	C	0.966146	-0.060324	0.447518
C50	C	1.173053	-0.365358	0.604994
C51	C	1.218065	-0.431728	0.552473
C52	C	1.194109	-0.396424	0.447455
C53	C	1.125145	-0.294747	0.394959
C54	C	1.239127	-0.462797	0.394927
C55	C	1.215175	-0.427490	0.289911
C56	C	1.101193	-0.259440	0.289942
H57	H	0.769473	-0.390217	-0.000012
C58	C	0.796027	-0.350902	-0.085761
C59	C	0.836343	-0.334159	0.000001
H60	H	0.831106	-0.420970	-0.085759
H61	H	0.732788	-0.342679	-0.085751
H62	H	0.796861	-0.300420	-0.143936
H63	H	0.835504	-0.384637	0.058177
H64	H	0.899599	-0.342393	0.000000
H65	H	1.295289	-0.545582	0.437677
H66	H	0.909977	0.022469	0.404779
C67	C	1.269436	-0.507425	0.755411
C68	C	1.199387	-0.404170	0.720431
H69	H	1.285697	-0.531381	0.826676
H70	H	1.246545	-0.554013	0.731663
H71	H	1.323580	-0.506903	0.731628
H72	H	1.145240	-0.404694	0.744208
H73	H	1.222276	-0.357571	0.744188
C74	C	0.645658	-0.607178	0.000009
C75	C	0.704439	-0.550467	0.000007
H76	H	0.680728	-0.677245	0.000003
H77	H	0.621456	-0.610937	0.058187
H78	H	0.594933	-0.571819	-0.058173
H79	H	0.755160	-0.585822	0.058194
H80	H	0.728656	-0.546713	-0.058177
H81	H	0.550106	-0.561989	0.000013
H82	H	0.984133	-0.711228	-0.000011
H83	H	0.376593	-0.505445	-0.000002
C84	C	1.379376	-0.551143	0.584766
C85	C	1.293868	-0.543498	0.610171
H86	H	1.426170	-0.620147	0.620388
H87	H	1.371547	-0.539613	0.514713
H88	H	1.398410	-0.498863	0.601984
H89	H	1.274830	-0.595773	0.592946
H90	H	1.301697	-0.555039	0.680239
H91	H	1.251830	-0.481536	0.247148
C92	C	0.349108	-0.083493	-0.085787
C93	C	0.347866	-0.157877	-0.000022
H94	H	0.314035	-0.013423	-0.085791
H95	H	0.412354	-0.091732	-0.085775
H96	H	0.321762	-0.094871	-0.143960
H97	H	0.375218	-0.146505	0.058152
H98	H	0.284608	-0.149634	-0.000025
H99	H	1.045025	-0.176647	0.247203
H100	H	0.991666	-0.097950	0.309479
H101	H	0.888916	0.053533	0.562316
H102	H	0.494485	0.028997	-0.000031
H103	H	1.139181	-0.315406	0.752797
C104	C	0.853955	0.105068	0.699556
C105	C	0.919552	0.008371	0.767809
H106	H	0.823396	0.150101	0.735199
H107	H	0.885504	0.138896	0.658593
H108	H	0.808470	0.091784	0.658598
H109	H	0.965042	0.021654	0.808763
H110	H	0.888002	-0.025463	0.808790
H111	H	0.634094	0.069944	-0.000031
C112	C	0.775167	0.123401	-0.085772
C113	C	0.820155	0.033953	-0.000008
H114	H	0.805004	0.172327	-0.085767
H115	H	0.779173	0.101819	-0.143941
H116	H	0.710814	0.156730	-0.085763
H117	H	0.884506	0.000619	-0.000022
H118	H	0.816157	0.055536	0.058175
C119	C	1.217002	-0.676150	0.000018
C120	C	1.224956	-0.778480	0.000006
H121	H	1.276255	-0.670567	0.000037
H122	H	1.171441	-0.624688	-0.058161
H123	H	1.197931	-0.663804	0.058200
H124	H	1.244021	-0.790823	-0.058179
H125	H	1.270533	-0.829958	0.058191
H126	H	0.414731	-0.101812	-0.000026
