data_functionalizedCrystal
_audit_creation_method	'MofGen! by Chris Wilmer'
_symmetry_space_group_name_H-M	'P1'
_symmetry_Int_Tables_number	1
_symmetry_cell_setting	triclinic
loop_
_symmetry_equiv_pos_as_xyz
  x,y,z
_cell_length_a	11.792241
_cell_length_b	16.992695
_cell_length_c	16.053802
_cell_angle_alpha	87.258926
_cell_angle_beta	87.402019
_cell_angle_gamma	92.569181
loop_
_atom_site_label
_atom_site_type_symbol
_atom_site_fract_x
_atom_site_fract_y
_atom_site_fract_z
O1	O	1.520192	-0.104230	-0.069414
O2	O	1.190758	-0.115310	-0.069419
O3	O	1.354154	0.004378	-0.069410
O4	O	1.356796	-0.223918	-0.069423
O5	O	1.345158	-0.002183	0.069449
O6	O	1.181762	-0.121871	0.069439
O7	O	1.511196	-0.110791	0.069445
Zn8	Zn	1.345051	-0.117373	0.091489
Zn9	Zn	1.356904	-0.108729	-0.091463
O10	O	1.347800	-0.230479	0.069436
C11	C	1.143912	-0.117895	0.000010
C12	C	1.017728	-0.115811	0.000008
C13	C	1.346258	0.030324	0.000019
C14	C	1.336120	0.117411	0.000019
C15	C	1.558042	-0.108207	0.000014
C16	C	1.684227	-0.110290	0.000011
C17	C	1.915252	-0.114120	0.000011
C18	C	1.786693	-0.111992	0.000011
C19	C	1.355696	-0.256426	0.000005
C20	C	1.365834	-0.343513	-0.000000
N21	N	1.336970	-0.123272	0.216349
C22	C	1.433938	0.167236	0.000021
C23	C	1.424406	0.249064	0.000013
C24	C	1.317055	0.281065	0.000009
C25	C	1.219230	0.231234	0.000004
C26	C	1.228764	0.149408	0.000006
C27	C	1.277543	0.524831	-0.000003
C28	C	1.268017	0.606663	-0.000003
C29	C	1.473194	0.624487	0.000005
C30	C	1.482717	0.542659	0.000012
C31	C	1.384893	0.492835	0.000003
N32	N	1.307309	0.364705	0.000003
N33	N	1.394640	0.409197	0.000002
N34	N	1.364993	-0.102824	-0.216323
C35	C	1.406524	-0.072362	0.260047
C36	C	1.400882	-0.076496	0.347453
C37	C	1.325691	-0.131543	0.391160
C38	C	1.256130	-0.182455	0.347456
C39	C	1.261766	-0.178317	0.260051
C40	C	1.301068	-0.149597	0.652568
C41	C	1.295439	-0.153733	0.739979
C42	C	1.440190	-0.047773	0.739970
C43	C	1.445825	-0.043643	0.652564
C44	C	1.376259	-0.094551	0.608867
N45	N	1.319926	-0.135772	0.480503
N46	N	1.382020	-0.090319	0.519526
H47	H	1.504060	0.289628	0.000017
O48	O	1.507697	0.001795	0.782328
C49	C	1.560069	0.136617	0.809124
C50	C	1.483573	0.080564	0.761087
H51	H	1.540575	0.200312	0.791981
H52	H	1.653066	0.126859	0.791911
H53	H	1.543142	0.124166	0.879097
H54	H	1.500400	0.092981	0.691103
H55	H	1.390601	0.090333	0.778369
H56	H	1.570134	0.516610	0.000016
O57	O	1.163717	0.637722	-0.000163
C58	C	0.990088	0.650896	-0.072096
C59	C	1.108178	0.615687	-0.072029
H60	H	0.945141	0.633080	-0.130184
H61	H	1.000024	0.717943	-0.072146
H62	H	0.937639	0.627685	-0.013963
H63	H	1.160691	0.638837	-0.130152
H64	H	1.098158	0.548642	-0.071935
O65	O	1.182559	0.476417	-0.000155
C66	C	1.078920	0.377059	-0.072073
C67	C	1.186536	0.431863	-0.072015
H68	H	1.082111	0.341012	-0.130157
H69	H	1.000526	0.413957	-0.072127
H70	H	1.074490	0.335596	-0.013935
H71	H	1.191076	0.473337	-0.130143
H72	H	1.264879	0.394917	-0.071918
O73	O	1.468410	-0.026937	0.389804
C74	C	1.520852	0.107876	0.416589
C75	C	1.444318	0.051838	0.368564
H76	H	1.501384	0.171577	0.399447
H77	H	1.613839	0.098098	0.399365
H78	H	1.503936	0.095430	0.486564
H79	H	1.461133	0.064250	0.298578
H80	H	1.351355	0.061628	0.385857
O81	O	1.233456	-0.199133	0.610258
C82	C	1.089245	-0.304638	0.619499
C83	C	1.165772	-0.248595	0.667523
H84	H	1.034485	-0.344631	0.665777
H85	H	1.144395	-0.342172	0.578585
H86	H	1.032140	-0.268556	0.578573
H87	H	1.222889	-0.284615	0.708495
H88	H	1.110554	-0.211060	0.708385
O89	O	1.568191	0.672926	-0.000142
C90	C	1.681129	0.779079	-0.072060
C91	C	1.573514	0.724261	-0.072003
H92	H	1.685456	0.820608	-0.130144
H93	H	1.759536	0.742193	-0.072112
H94	H	1.678021	0.815056	-0.013923
H95	H	1.576511	0.688272	-0.130130
H96	H	1.495153	0.761191	-0.071907
H97	H	1.205127	-0.219771	0.224473
H98	H	1.131823	0.257296	-0.000005
H99	H	1.467757	-0.027541	0.224466
O100	O	1.538310	0.136285	-0.000013
C101	C	1.740807	0.162609	0.000032
C102	C	1.622675	0.197761	0.000057
H103	H	1.809046	0.212294	0.000107
H104	H	1.754238	0.127517	-0.058093
H105	H	1.746581	0.121978	0.058131
H106	H	1.616817	0.238427	-0.058002
H107	H	1.609295	0.232806	0.058221
O108	O	1.518533	0.009896	0.609886
C109	C	1.677627	0.031149	0.510542
C110	C	1.595673	-0.029676	0.558959
H111	H	1.739999	-0.000820	0.469342
H112	H	1.726486	0.067064	0.556533
H113	H	1.627004	0.072246	0.469861
H114	H	1.646208	-0.070824	0.599641
H115	H	1.546811	-0.065533	0.512922
H116	H	1.149110	0.108841	0.000004
O117	O	1.183026	-0.235823	0.390004
C118	C	1.023075	-0.256467	0.488674
C119	C	1.105804	-0.195942	0.440557
H120	H	0.960606	-0.224246	0.529544
H121	H	1.072944	-0.297811	0.529635
H122	H	0.974381	-0.292158	0.442412
H123	H	1.154519	-0.160196	0.486759
H124	H	1.055871	-0.154652	0.399583
H125	H	1.234207	-0.198562	0.775561
