data_functionalizedCrystal
_audit_creation_method	'MofGen! by Chris Wilmer'
_symmetry_space_group_name_H-M	'P1'
_symmetry_Int_Tables_number	1
_symmetry_cell_setting	triclinic
loop_
_symmetry_equiv_pos_as_xyz
  x,y,z
_cell_length_a	10.489741
_cell_length_b	17.038272
_cell_length_c	8.965430
_cell_angle_alpha	90.000179
_cell_angle_beta	89.998843
_cell_angle_gamma	87.825365
loop_
_atom_site_label
_atom_site_type_symbol
_atom_site_fract_x
_atom_site_fract_y
_atom_site_fract_z
O1	O	1.704377	0.110369	-0.123948
O2	O	1.334150	0.120730	-0.123972
O3	O	1.517063	0.001722	-0.123948
O4	O	1.521464	0.229378	-0.123972
O5	O	1.517047	0.001729	0.124130
O6	O	1.334134	0.120738	0.124107
O7	O	1.704361	0.110377	0.124130
Cu8	Cu	1.519246	0.115558	0.146770
Cu9	Cu	1.519265	0.115549	-0.146612
O10	O	1.521448	0.229386	0.124107
C11	C	1.286537	0.119951	0.000065
C12	C	1.144689	0.117610	0.000056
C13	C	1.069466	0.041889	0.000078
C14	C	0.980693	0.077655	-0.122238
C15	C	0.980713	0.077681	0.122348
C16	C	1.057784	0.153408	-0.122361
C17	C	1.057813	0.153423	0.122335
C18	C	0.969072	0.189244	-0.000011
C19	C	1.513053	-0.027426	0.000091
C20	C	1.501111	-0.114288	0.000089
C21	C	1.610749	-0.163767	0.000098
C22	C	1.599521	-0.245383	0.000083
C23	C	1.478654	-0.277518	0.000070
C24	C	1.369007	-0.228032	0.000057
C25	C	1.380237	-0.146418	0.000062
C26	C	1.438983	-0.523505	0.000047
C27	C	1.427762	-0.605126	0.000048
C28	C	1.658277	-0.622471	0.000071
C29	C	1.669495	-0.540855	0.000084
C30	C	1.559849	-0.491376	0.000063
C31	C	1.467174	-0.360942	0.000060
C32	C	1.571330	-0.407954	0.000063
C33	C	1.751974	0.111156	0.000091
C34	C	1.893822	0.113497	0.000089
C35	C	1.525458	0.258533	0.000065
C36	C	1.537400	0.345395	0.000056
N37	N	1.519243	0.115564	0.353119
N38	N	1.519278	0.115537	-0.352961
C39	C	1.434622	0.170583	0.450415
C40	C	1.551599	0.186413	0.549834
C41	C	1.402315	0.099741	0.549828
C42	C	1.636282	0.131430	0.450350
C43	C	1.486918	0.044727	0.450335
C44	C	1.603976	0.060527	0.549709
H45	H	1.709172	-0.137610	0.000117
H46	H	1.675635	0.013985	0.593034
H47	H	1.735209	0.144873	0.406837
O48	O	1.786841	-0.509553	-0.000113
C49	C	1.800258	-0.462879	-0.128611
H50	H	1.701876	-0.443117	-0.171451
H51	H	1.852809	-0.498615	-0.218577
C52	C	1.997657	-0.414589	-0.036958
C53	C	1.876822	-0.390311	-0.089568
H54	H	2.044890	-0.369828	-0.012879
H55	H	1.988621	-0.446037	0.049611
H56	H	2.041433	-0.444370	-0.111939
H57	H	1.833042	-0.360540	-0.014581
H58	H	1.885852	-0.358857	-0.176125
H59	H	1.329333	-0.631286	0.000062
H60	H	1.290957	-0.106132	0.000054
H61	H	1.459520	-0.015148	0.406596
H62	H	0.925476	0.251558	-0.000084
O63	O	1.332572	-0.475366	0.000235
C64	C	1.332143	-0.427650	0.128733
H65	H	1.433890	-0.422954	0.171577
H66	H	1.270932	-0.454821	0.218698
C67	C	1.151950	-0.350934	0.037074
C68	C	1.276919	-0.345160	0.089688
H69	H	1.117880	-0.300051	0.012993
H70	H	1.152235	-0.383083	-0.049495
H71	H	1.100957	-0.373579	0.112053
H72	H	1.327913	-0.322524	0.014703
H73	H	1.276641	-0.313005	0.176244
O74	O	1.098384	0.191503	0.245849
C75	C	1.059327	0.151394	0.374571
H76	H	1.042131	0.087554	0.345272
H77	H	0.967358	0.180453	0.419203
C78	C	1.185246	0.232973	0.530451
C79	C	1.164137	0.154562	0.494468
H80	H	1.249894	0.234930	0.604413
H81	H	1.211556	0.259998	0.443730
H82	H	1.108597	0.257180	0.567636
H83	H	1.240780	0.130359	0.457267
H84	H	1.137842	0.127533	0.581186
H85	H	1.368763	-0.387115	0.000053
O86	O	1.284367	0.083641	0.601881
C87	C	1.249601	0.009518	0.548977
H88	H	1.339207	-0.027173	0.519499
H89	H	1.187349	0.017503	0.445450
C90	C	1.064616	0.012391	0.707064
C91	C	1.174673	-0.032676	0.670870
H92	H	1.018392	-0.013636	0.782248
H93	H	1.088035	0.062331	0.742703
H94	H	1.012755	0.019042	0.620781
H95	H	1.226540	-0.039318	0.757147
H96	H	1.151261	-0.082618	0.635248
H97	H	1.091613	0.185419	-0.225887
O98	O	0.940011	0.039558	0.245765
C99	C	0.860729	0.090930	0.331110
H100	H	0.818974	0.139541	0.256351
H101	H	0.919075	0.117923	0.423910
C102	C	0.803000	-0.014789	0.491786
C103	C	0.751706	0.044912	0.399962
H104	H	0.735752	-0.043175	0.534263
H105	H	0.856417	-0.049399	0.434292
H106	H	0.851620	0.007714	0.569107
H107	H	0.703101	0.022408	0.322633
H108	H	0.698278	0.079517	0.457445
H109	H	1.113334	-0.020359	-0.000069
H110	H	1.688801	-0.285666	0.000093
H111	H	1.270594	-0.254202	0.000038
H112	H	1.669740	-0.381786	0.000040
O113	O	1.349487	0.226241	0.398454
C114	C	1.384056	0.300818	0.449186
H115	H	1.490155	0.299208	0.477062
H116	H	1.326565	0.317238	0.553257
C117	C	1.225844	0.364252	0.292127
C118	C	1.356159	0.362277	0.326353
H119	H	1.208631	0.402164	0.216362
H120	H	1.202550	0.314008	0.257952
H121	H	1.177950	0.377933	0.378863
H122	H	1.404049	0.348586	0.239623
H123	H	1.379460	0.412520	0.360511
O124	O	1.584274	0.257806	0.602242
C125	C	1.584930	0.256576	0.759487
H126	H	1.598874	0.193420	0.800038
H127	H	1.490231	0.282377	0.803092
C128	C	1.677606	0.383265	0.767765
C129	C	1.694744	0.305695	0.817571
H130	H	1.745340	0.413566	0.803597
H131	H	1.677160	0.384095	0.661827
H132	H	1.598686	0.404754	0.804107
H133	H	1.773654	0.284204	0.781214
H134	H	1.695205	0.304863	0.923506
H135	H	0.946688	0.045612	-0.225643
H136	H	1.747544	-0.662765	0.000085
