data_functionalizedCrystal
_audit_creation_method	'MofGen! by Chris Wilmer'
_symmetry_space_group_name_H-M	'P1'
_symmetry_Int_Tables_number	1
_symmetry_cell_setting	triclinic
loop_
_symmetry_equiv_pos_as_xyz
  x,y,z
_cell_length_a	23.096457
_cell_length_b	12.970454
_cell_length_c	12.970454
_cell_angle_alpha	59.999776
_cell_angle_beta	89.998137
_cell_angle_gamma	59.999719
loop_
_atom_site_label
_atom_site_type_symbol
_atom_site_fract_x
_atom_site_fract_y
_atom_site_fract_z
Zr1	Zr	0.557765	1.128537	-0.135341
O2	O	0.465317	1.343624	-0.299960
O3	O	0.586105	0.913447	-0.084876
O4	O	0.586106	1.128537	-0.299967
O5	O	0.465316	1.128535	0.084797
O6	O	0.681387	1.128540	-0.299973
O7	O	0.465317	1.128534	-0.084869
O8	O	0.681385	0.743784	0.084785
O9	O	0.465317	1.513292	-0.299961
O10	O	0.669299	1.001920	-0.063359
O11	O	0.598192	1.001918	0.063266
O12	O	0.598193	1.255159	-0.189976
O13	O	0.527086	1.255157	-0.063351
Zr14	Zr	0.709725	1.128543	0.135247
Zr15	Zr	0.709727	1.128541	-0.135351
Zr16	Zr	0.557764	1.128538	0.135257
Zr17	Zr	0.557765	1.399137	-0.135343
Zr18	Zr	0.709725	0.857943	0.135249
O19	O	0.681385	1.343633	0.084782
O20	O	0.681387	1.343631	-0.299974
O21	O	0.465316	1.343626	0.084796
O22	O	0.802173	0.913456	0.299866
O23	O	0.802175	0.913454	-0.084890
O24	O	0.586104	0.913449	0.299880
O25	O	0.802175	1.128545	-0.084891
O26	O	0.681384	1.128543	0.299873
O27	O	0.586104	1.128540	0.299879
O28	O	0.802174	1.128545	0.084775
O29	O	0.586106	1.513295	-0.299969
O30	O	0.681384	0.743785	0.299875
O31	O	0.802173	0.743788	0.299867
O32	O	0.802174	0.743787	0.084777
O33	O	0.465317	1.513293	-0.084871
O34	O	0.586106	1.513296	-0.084879
O35	O	0.669298	1.001921	0.189882
O36	O	0.740405	1.001923	0.063257
O37	O	0.669299	1.255162	-0.063360
O38	O	0.598192	1.255160	0.063265
C39	C	0.633745	0.790061	-0.000045
C40	C	0.633745	0.675184	-0.000045
C41	C	0.443665	1.128534	-0.000035
C42	C	0.379154	1.128532	-0.000030
C43	C	0.385964	0.996348	0.066050
C44	C	0.325349	0.996346	0.066056
C45	C	0.257923	1.128536	-0.000044
C46	C	0.251114	1.260737	-0.066128
C47	C	0.311730	1.260736	-0.066121
N48	N	0.135128	1.226931	-0.107618
N49	N	0.077548	1.226924	-0.107622
C50	C	0.075290	1.128549	-0.000067
N51	N	0.132793	1.030159	0.107491
N52	N	0.190379	1.030162	0.107493
C53	C	0.192192	1.128552	-0.000058
C54	C	0.016378	0.996353	0.066026
C55	C	-0.044241	0.996357	0.066035
C56	C	-0.118475	1.260752	-0.066161
C57	C	-0.057857	1.260744	-0.066157
C58	C	0.009567	1.128541	-0.000067
C59	C	0.823826	1.128546	-0.000059
C60	C	0.888337	1.128548	-0.000064
C61	C	0.633747	1.128538	-0.338525
C62	C	0.633747	1.128538	-0.453401
C63	C	0.633745	1.467019	-0.000049
C64	C	0.633745	1.581896	-0.000049
C65	C	0.633744	1.128542	0.338430
C66	C	0.633744	1.128542	0.453307
C67	C	0.823826	0.790066	-0.000058
C68	C	0.888337	0.675192	-0.000061
C69	C	0.633744	0.790062	0.338432
C70	C	0.633744	0.675186	0.453309
C71	C	0.823824	0.790068	0.338420
C72	C	0.888335	0.675194	0.453292
C73	C	0.443666	1.467012	-0.338514
C74	C	0.379155	1.581886	-0.453386
C75	C	0.443665	1.467013	-0.000036
C76	C	0.379154	1.581888	-0.000033
C77	C	0.633747	1.467017	-0.338526
C78	C	0.633747	1.581894	-0.453403
C79	C	0.881516	0.621244	-0.066166
C80	C	0.942125	0.513322	-0.066195
C81	C	1.009556	0.459342	-0.000111
C82	C	1.016376	0.513300	0.065996
C83	C	0.955767	0.621228	0.066017
C84	C	0.955754	0.621249	0.441141
C85	C	1.016375	0.513327	0.549065
C86	C	1.009575	0.459346	0.669140
C87	C	0.942150	0.513302	0.681289
C88	C	0.881530	0.621229	0.573366
C89	C	0.311737	1.635844	-0.441235
C90	C	0.251116	1.743799	-0.549160
C91	C	0.257915	1.797787	-0.669234
C92	C	0.325341	1.743824	-0.681384
C93	C	0.385960	1.635878	-0.573460
C94	C	0.385975	1.635847	0.066061
C95	C	0.325365	1.743799	0.066060
C96	C	0.257935	1.797783	-0.000028
C97	C	0.251115	1.743819	-0.066130
C98	C	0.311724	1.635877	-0.066136
H99	H	0.440860	0.888698	0.119858
C100	C	1.090552	0.453905	0.138695
C101	C	1.098070	0.513225	0.211423
C102	C	1.172248	0.453818	0.284129
C103	C	1.238909	0.335090	0.284107
C104	C	1.231394	0.275763	0.211376
C105	C	1.157216	0.335170	0.138670
H106	H	1.048721	0.601121	0.211442
H107	H	1.177811	0.497737	0.337969
H108	H	1.293820	0.291113	0.337928
H109	H	1.280743	0.187868	0.211358
H110	H	1.151653	0.291252	0.084830
C111	C	0.176954	1.803130	-0.535776
C112	C	0.169482	1.743715	-0.403693
C113	C	0.095322	1.803039	-0.390306
C114	C	0.028635	1.921779	-0.509003
C115	C	0.036105	1.981200	-0.641095
C116	C	0.110264	1.921876	-0.654482
H117	H	0.218849	1.655812	-0.315818
H118	H	0.089793	1.759051	-0.292522
H119	H	-0.026262	1.965694	-0.499093
H120	H	-0.013263	2.069104	-0.728970
H121	H	0.115794	1.965864	-0.752267
C122	C	0.176937	1.803198	-0.138808
C123	C	0.125053	1.966449	-0.246011
C124	C	0.050873	2.025821	-0.318676
C125	C	0.028577	1.921944	-0.284137
C126	C	0.080463	1.758683	-0.176928
C127	C	0.154643	1.699310	-0.104264
H128	H	0.141556	2.043354	-0.271583
H129	H	0.012464	2.146678	-0.398039
H130	H	-0.026335	1.965895	-0.337928
H131	H	0.063960	1.681778	-0.151356
H132	H	0.193052	1.578454	-0.024901
H133	H	0.208589	1.885677	-0.000014
H134	H	0.196212	1.368367	-0.119946
C135	C	1.090536	0.453984	0.535680
C136	C	1.112813	0.379779	0.466310
C137	C	1.186971	0.320440	0.452920
C138	C	1.238854	0.335305	0.508899
C139	C	1.216578	0.409513	0.578274
C140	C	1.142420	0.468852	0.591664
H141	H	1.074405	0.368772	0.424866
H142	H	1.203461	0.265506	0.401564
H143	H	1.293750	0.291379	0.498987
H144	H	1.254986	0.420520	0.619718
H145	H	1.125931	0.523786	0.643020
H146	H	-0.038688	0.888712	0.119855
H147	H	0.208549	1.885682	-0.757102
C148	C	0.807370	0.680544	0.586745
C149	C	0.799900	0.621145	0.718830
C150	C	0.725741	0.680453	0.732220
C151	C	0.659053	0.799161	0.613526
C152	C	0.666521	0.858567	0.481432
C153	C	0.740680	0.799259	0.468041
H154	H	0.849269	0.533264	0.806703
H155	H	0.720213	0.636476	0.830006
H156	H	0.604156	0.843064	0.623438
H157	H	0.617153	0.946447	0.393558
H158	H	0.746208	0.843236	0.370256
H159	H	0.330895	0.888702	0.119867
H160	H	0.306160	1.591946	-0.119954
C161	C	0.460120	1.576522	-0.586839
C162	C	0.467591	1.635912	-0.718924
C163	C	0.541749	1.576566	-0.732315
C164	C	0.608438	1.457828	-0.613620
C165	C	0.600969	1.398431	-0.481526
C166	C	0.526811	1.457778	-0.468135
H167	H	0.418222	1.723815	-0.806797
H168	H	0.547277	1.620536	-0.830100
H169	H	0.663334	1.413896	-0.623532
H170	H	0.650338	1.310528	-0.393652
H171	H	0.521283	1.413807	-0.370350
C172	C	0.090547	0.850939	0.138738
C173	C	0.142432	0.814572	0.067880
C174	C	0.216600	0.669158	0.140595
C175	C	0.238884	0.560111	0.284167
C176	C	0.186999	0.596475	0.355033
C177	C	0.112830	0.741889	0.282319
H178	H	0.125937	0.895298	-0.038408
H179	H	0.255009	0.642240	0.088134
H180	H	0.293788	0.452467	0.337995
H181	H	0.203494	0.515749	0.461322
H182	H	0.074422	0.768807	0.334780
H183	H	0.306179	1.368379	-0.119929
H184	H	0.330869	1.787794	-0.779161
H185	H	-0.173373	1.368383	-0.119981
H186	H	1.058941	0.371464	0.757008
H187	H	-0.063406	1.368383	-0.119976
H188	H	0.826616	0.665193	-0.119996
H189	H	0.936558	0.469402	-0.120027
H190	H	1.058902	0.371459	-0.000136
H191	H	0.961331	0.665139	0.119855
H192	H	0.330932	1.787718	0.119893
H193	H	0.961304	0.665185	0.343379
H194	H	0.440875	1.591902	0.119886
H195	H	0.936624	0.469334	0.779069
H196	H	0.306187	1.591894	-0.343474
