data_functionalizedCrystal
_audit_creation_method	'MofGen! by Chris Wilmer'
_symmetry_space_group_name_H-M	'P1'
_symmetry_Int_Tables_number	1
_symmetry_cell_setting	triclinic
loop_
_symmetry_equiv_pos_as_xyz
  x,y,z
_cell_length_a	34.408637
_cell_length_b	34.407814
_cell_length_c	34.404193
_cell_angle_alpha	60.004510
_cell_angle_beta	60.009006
_cell_angle_gamma	59.994604
loop_
_atom_site_label
_atom_site_type_symbol
_atom_site_fract_x
_atom_site_fract_y
_atom_site_fract_z
O1	O	0.053973	-0.567860	0.474801
O2	O	0.020377	-0.442124	0.382567
O3	O	0.100004	-0.521670	0.382483
O4	O	-0.025653	-0.488314	0.474886
O5	O	0.126426	-0.495253	0.408816
O6	O	0.046800	-0.415707	0.408900
O7	O	0.080396	-0.541443	0.501134
Zn8	Zn	0.067793	-0.474381	0.459198
Zn9	Zn	0.032980	-0.509186	0.424503
O10	O	0.000769	-0.461897	0.501219
N11	N	0.091552	-0.450631	0.482879
N12	N	0.009225	-0.532940	0.400823
C13	C	0.142848	-0.268847	0.534081
C14	C	0.142979	-0.399386	0.664559
C15	C	0.142862	-0.399365	0.534081
C16	C	0.273409	-0.399338	0.533986
C17	C	0.157225	-0.311914	0.548422
C18	C	0.157300	-0.385019	0.621491
C19	C	0.230339	-0.384991	0.548370
C20	C	0.157235	-0.385007	0.548422
C21	C	0.124548	-0.214028	0.515827
C22	C	0.124571	-0.417639	0.515827
C23	C	0.175526	-0.366733	0.566676
C24	C	0.353121	-0.385580	0.491988
C25	C	0.402952	-0.402180	0.475348
C26	C	0.402981	-0.482812	0.506096
C27	C	0.353151	-0.466211	0.522737
C28	C	0.136544	-0.189099	0.466839
C29	C	0.119905	-0.139265	0.450247
C30	C	0.079280	-0.139291	0.531632
C31	C	0.095918	-0.189125	0.548224
C32	C	0.075577	-0.405615	0.527900
C33	C	0.058953	-0.422228	0.511301
C34	C	0.140315	-0.462889	0.470566
C35	C	0.156941	-0.446276	0.487159
C36	C	0.075772	-0.405653	0.744326
C37	C	0.059206	-0.422280	0.794159
C38	C	0.140607	-0.462951	0.794094
C39	C	0.157172	-0.446325	0.744260
C40	C	0.124753	-0.417674	0.719377
C41	C	0.328223	-0.417595	0.515681
C42	C	-0.172390	-0.583988	0.349141
C43	C	-0.041751	-0.584138	0.218783
C44	C	-0.041941	-0.584130	0.349402
C45	C	-0.041957	-0.714607	0.349338
C46	C	-0.129326	-0.598388	0.334853
C47	C	-0.056165	-0.598473	0.261852
C48	C	-0.056282	-0.671535	0.334962
C49	C	-0.056272	-0.598469	0.334999
C50	C	-0.227205	-0.565659	0.367327
C51	C	-0.023703	-0.565882	0.367734
C52	C	-0.074511	-0.616717	0.316667
C53	C	-0.055754	-0.794298	0.391257
C54	C	-0.039181	-0.844132	0.407888
C55	C	0.041447	-0.844215	0.377269
C56	C	0.024873	-0.794381	0.360637
C57	C	-0.252183	-0.577666	0.416302
C58	C	-0.302014	-0.561001	0.432833
C59	C	-0.301886	-0.520329	0.351410
C60	C	-0.252055	-0.536994	0.334880
C61	C	-0.035709	-0.516892	0.355682
C62	C	-0.019129	-0.500308	0.372353
C63	C	0.021465	-0.581700	0.413115
C64	C	0.004884	-0.598286	0.396450
C65	C	-0.035389	-0.516907	0.139026
C66	C	-0.018707	-0.500324	0.089193
C67	C	0.021949	-0.581721	0.089240
C68	C	0.005268	-0.598303	0.139074
C69	C	-0.023402	-0.565894	0.163965
C70	C	-0.023728	-0.769425	0.367633
N71	N	0.427173	-0.450553	0.482630
O72	O	0.589997	-0.458460	0.365361
O73	O	0.590185	-0.550997	0.490963
O74	O	0.590104	-0.550786	0.411309
O75	O	0.590077	-0.458671	0.445016
O76	O	0.510940	-0.524462	0.437777
O77	O	0.511020	-0.524674	0.517432
O78	O	0.510832	-0.432136	0.391830
Zn79	Zn	0.498357	-0.474225	0.458833
Zn80	Zn	0.602660	-0.508908	0.423960
O81	O	0.510913	-0.432348	0.471484
N82	N	0.673844	-0.532580	0.400158
N83	N	0.091520	-0.115070	0.482873
O84	O	-0.025663	0.047841	0.474857
O85	O	0.099940	0.047877	0.382299
O86	O	0.020247	0.047844	0.382560
O87	O	0.054030	0.047874	0.474596
O88	O	0.046674	-0.031326	0.408942
O89	O	0.126367	-0.031293	0.408680
O90	O	0.000764	-0.031329	0.501238
Zn91	Zn	0.067761	-0.043881	0.459148
Zn92	Zn	0.032943	0.060429	0.424389
O93	O	0.080457	-0.031296	0.500977
N94	N	0.009178	0.131618	0.400665
N95	N	0.091852	-0.450680	0.818332
O96	O	0.083862	-0.567845	0.981235
O97	O	-0.008657	-0.442198	0.981276
O98	O	-0.008441	-0.521875	0.981252
O99	O	0.083646	-0.488168	0.981258
O100	O	0.017919	-0.495468	0.902085
O101	O	0.017703	-0.415791	0.902109
O102	O	0.110222	-0.541438	0.902067
Zn103	Zn	0.068148	-0.474422	0.889518
Zn104	Zn	0.033417	-0.509214	0.993825
O105	O	0.110006	-0.461761	0.902091
N106	N	0.009712	-0.532961	1.065011
C107	C	0.030439	-0.413071	0.383027
C108	C	0.129046	-0.511580	0.382922
C109	C	0.070334	-0.570496	0.500675
C110	C	-0.028274	-0.471987	0.500780
C111	C	0.550625	-0.550579	0.520021
C112	C	0.550527	-0.550317	0.421379
C113	C	0.550389	-0.432554	0.362773
C114	C	0.550491	-0.432816	0.461414
C115	C	0.128944	0.008394	0.382712
C116	C	0.030287	0.008256	0.383068
C117	C	-0.028273	0.008252	0.500793
C118	C	0.070417	0.008292	0.500470
C119	C	-0.008218	-0.413165	0.941698
C120	C	-0.007945	-0.511830	0.941653
C121	C	0.109783	-0.570471	0.941646
C122	C	0.109516	-0.471800	0.941673
H123	H	0.049370	-0.382321	0.724071
H124	H	0.023050	0.008252	0.354152
C125	C	0.591142	-0.380944	0.438745
C126	C	0.550481	-0.393752	0.471147
H127	H	0.591137	-0.356830	0.444756
H128	H	0.591097	-0.369309	0.407242
H129	H	0.618769	-0.408005	0.442267
H130	H	0.522854	-0.366691	0.467623
H131	H	0.550522	-0.405386	0.502657
C132	C	0.509588	-0.353485	0.320278
C133	C	0.550310	-0.393330	0.314079
H134	H	0.509538	-0.329271	0.290216
H135	H	0.509606	-0.341993	0.340272
H136	H	0.482002	-0.362168	0.334543
H137	H	0.577896	-0.384647	0.299817
H138	H	0.550297	-0.404824	0.294078
C139	C	0.188856	-0.613022	0.900926
C140	C	0.148998	-0.619183	0.941627
H141	H	0.213064	-0.643096	0.900915
H142	H	0.200344	-0.593024	0.900937
H143	H	0.180191	-0.598775	0.873325
H144	H	0.157663	-0.633426	0.969229
H145	H	0.137509	-0.639189	0.941621
H146	H	0.164941	0.008624	0.353583
C147	C	-0.079018	-0.506178	0.215390
C148	C	-0.066906	-0.481281	0.166384
H149	H	-0.098476	-0.484184	0.232280
H150	H	-0.050872	-0.525636	0.223610
H151	H	-0.095929	-0.525593	0.223517
H152	H	-0.049992	-0.461868	0.158257
H153	H	-0.095057	-0.461815	0.158161
C154	C	-0.097942	0.048943	0.552762
C155	C	-0.076966	0.008242	0.540024
H156	H	-0.128002	0.048935	0.576983
H157	H	-0.102134	0.076544	0.525715
H158	H	-0.077920	0.048948	0.564233
H159	H	-0.096986	0.008239	0.528549
H160	H	-0.072776	-0.019366	0.567075
C161	C	0.126643	0.008301	0.522339
C162	C	0.080185	0.008290	0.539510
H163	H	0.132673	0.008294	0.546444
H164	H	0.130167	0.035913	0.495276
H165	H	0.148596	-0.019304	0.513660
H166	H	0.058231	0.035896	0.548186
H167	H	0.076656	-0.019326	0.566582
H168	H	-0.037264	-0.377079	0.941710
C169	C	0.131423	-0.415605	0.941677
C170	C	0.148575	-0.462065	0.941665
H171	H	0.155538	-0.409595	0.941669
H172	H	0.104366	-0.412063	0.969289
H173	H	0.122741	-0.393646	0.914074
H174	H	0.157254	-0.484024	0.969270
H175	H	0.175641	-0.465612	0.914050
C176	C	-0.057899	-0.559829	0.982279
C177	C	-0.046985	-0.521547	0.941605
H178	H	-0.081998	-0.565830	0.982247
H179	H	-0.068908	-0.552282	1.009896
H180	H	-0.030191	-0.587342	0.982275
H181	H	-0.074691	-0.494034	0.941611
H182	H	-0.035976	-0.529093	0.913981
C183	C	-0.019589	-0.380394	0.789210
C184	C	0.005362	-0.409055	0.821578
H185	H	-0.052830	-0.372228	0.806139
H186	H	-0.011436	-0.397295	0.769774
H187	H	-0.011429	-0.352215	0.769772
H188	H	-0.002796	-0.437236	0.841014
H189	H	-0.002795	-0.392154	0.841023
H190	H	0.167007	-0.486271	0.814352
H191	H	0.077514	-0.606615	0.529644
H192	H	0.023260	-0.376951	0.354059
H193	H	0.165136	-0.518689	0.353905
H194	H	0.550674	-0.579628	0.556096
C195	C	0.235970	-0.488190	0.749204
C196	C	0.211016	-0.459537	0.716838
H197	H	0.269210	-0.496343	0.732274
H198	H	0.227821	-0.516371	0.768639
H199	H	0.227806	-0.471282	0.768644
H200	H	0.219177	-0.476446	0.697401
H201	H	0.219169	-0.431352	0.697395
H202	H	-0.064365	-0.464880	0.529794
H203	H	0.019058	-0.412426	0.521121
C204	C	-0.006519	-0.367083	0.566490
C205	C	0.039995	-0.374133	0.559406
H206	H	-0.028485	-0.347645	0.585939
H207	H	-0.011291	-0.396952	0.581706
H208	H	-0.011328	-0.351864	0.536629
H209	H	0.044805	-0.389356	0.589266
H210	H	0.044769	-0.344258	0.544191
C211	C	0.222414	-0.501415	0.431966
C212	C	0.175900	-0.494369	0.439055
H213	H	0.244380	-0.520846	0.412511
H214	H	0.227228	-0.516636	0.461821
H215	H	0.227182	-0.471539	0.416752
H216	H	0.171131	-0.524245	0.454273
H217	H	0.171084	-0.479149	0.409195
H218	H	0.332881	-0.492283	0.542031
C219	C	0.222801	-0.417937	0.448970
C220	C	0.210796	-0.459488	0.473890
H221	H	0.256049	-0.426094	0.440777
H222	H	0.205902	-0.398510	0.468420
H223	H	0.214599	-0.401031	0.420808
H224	H	0.218995	-0.476392	0.502054
H225	H	0.227701	-0.478922	0.454440
C226	C	0.509817	-0.573196	0.400557
C227	C	0.550540	-0.589384	0.411648
H228	H	0.509824	-0.597316	0.394553
H229	H	0.509776	-0.545489	0.373057
H230	H	0.482232	-0.565812	0.426546
H231	H	0.578125	-0.596765	0.385658
H232	H	0.550585	-0.617100	0.439151
C233	C	0.398005	-0.560847	0.538161
C234	C	0.430383	-0.536250	0.513849
H235	H	0.414925	-0.593839	0.542949
H236	H	0.378549	-0.549162	0.519921
H237	H	0.378589	-0.556228	0.568106
H238	H	0.449797	-0.540867	0.483903
H239	H	0.449847	-0.547939	0.532090
H240	H	0.423225	-0.376108	0.456057
H241	H	0.159856	-0.209371	0.440456
C242	C	0.358099	-0.307547	0.459927
C243	C	0.325718	-0.332139	0.484235
H244	H	0.341182	-0.274556	0.455142
H245	H	0.377514	-0.312165	0.429985
H246	H	0.377556	-0.319238	0.478172
H247	H	0.306263	-0.320451	0.465987
H248	H	0.306295	-0.327518	0.514181
H249	H	0.055974	-0.119015	0.558014
C250	C	0.161733	-0.144242	0.371466
C251	C	0.133088	-0.111860	0.396397
H252	H	0.169872	-0.127323	0.338221
H253	H	0.144833	-0.163687	0.379648
H254	H	0.189925	-0.163673	0.379615
H255	H	0.104895	-0.092432	0.388250
H256	H	0.149988	-0.092407	0.388211
H257	H	0.086148	-0.209418	0.588113
H258	H	0.045284	-0.608113	0.068976
C259	C	-0.060586	-0.421534	0.094158
C260	C	-0.031895	-0.446474	0.061783
H261	H	-0.068728	-0.388289	0.077235
H262	H	-0.043718	-0.429716	0.113639
H263	H	-0.088774	-0.429680	0.113551
H264	H	-0.003705	-0.438331	0.042392
H265	H	-0.048763	-0.438289	0.042294
H266	H	-0.058984	-0.490504	0.332300
C267	C	0.001564	-0.672748	0.154391
C268	C	0.018441	-0.652154	0.166488
H269	H	0.009693	-0.705992	0.171317
H270	H	0.015602	-0.667510	0.121155
H271	H	-0.032053	-0.658712	0.162504
H272	H	0.052059	-0.666188	0.158372
H273	H	0.004404	-0.657395	0.199732
C274	C	-0.015327	-0.425874	0.309543
C275	C	-0.032308	-0.446458	0.359102
H276	H	-0.023457	-0.392631	0.301363
H277	H	-0.029299	-0.431105	0.295509
H278	H	0.018293	-0.439922	0.298150
H279	H	-0.065929	-0.432412	0.370496
H280	H	-0.018338	-0.441223	0.373142
C281	C	0.059930	-0.663825	0.451731
C282	C	0.052892	-0.617322	0.444677
H283	H	0.079328	-0.685814	0.471218
H284	H	0.075180	-0.668625	0.421868
H285	H	0.030051	-0.668574	0.466897
H286	H	0.082771	-0.612572	0.429507
H287	H	0.037642	-0.612520	0.474544
H288	H	0.050956	-0.774133	0.341399
C289	C	-0.002502	-0.659854	0.388993
C290	C	0.018086	-0.652138	0.409688
H291	H	0.005649	-0.693099	0.397167
H292	H	0.009004	-0.645874	0.355377
H293	H	-0.036124	-0.645827	0.400407
H294	H	0.051708	-0.666161	0.398272
H295	H	0.006582	-0.666124	0.443311
C296	C	0.120528	-0.859637	0.320747
C297	C	0.094870	-0.871649	0.369580
H298	H	0.153509	-0.876578	0.316001
H299	H	0.115242	-0.826402	0.307466
H300	H	0.110239	-0.867793	0.305657
H301	H	0.105157	-0.863490	0.384669
H302	H	0.100159	-0.904891	0.382867
C303	C	-0.120546	-0.839050	0.436490
C304	C	-0.074385	-0.871478	0.433859
H305	H	-0.142278	-0.855933	0.452527
H306	H	-0.121772	-0.819621	0.405258
H307	H	-0.128895	-0.819608	0.453476
H308	H	-0.066035	-0.890917	0.416869
H309	H	-0.073157	-0.890914	0.465097
H310	H	-0.095331	-0.773979	0.396956
H311	H	-0.231954	-0.601008	0.442726
H312	H	-0.322118	-0.496994	0.324987
C313	C	-0.317481	-0.623758	0.507303
C314	C	-0.329478	-0.574200	0.486669
H315	H	-0.334439	-0.631906	0.540539
H316	H	-0.284253	-0.637781	0.502106
H317	H	-0.325625	-0.635197	0.493264
H318	H	-0.321331	-0.562762	0.500706
H319	H	-0.362714	-0.560172	0.491869
C320	C	-0.256937	-0.495116	0.256058
C321	C	-0.224601	-0.523797	0.281044
H322	H	-0.239986	-0.486970	0.222821
H323	H	-0.276370	-0.466932	0.264212
H324	H	-0.276381	-0.511999	0.264191
H325	H	-0.205159	-0.506912	0.272914
H326	H	-0.205159	-0.551986	0.272887
