data_functionalizedCrystal
_audit_creation_method	'MofGen! by Chris Wilmer'
_symmetry_space_group_name_H-M	'P1'
_symmetry_Int_Tables_number	1
_symmetry_cell_setting	triclinic
loop_
_symmetry_equiv_pos_as_xyz
  x,y,z
_cell_length_a	12.759401
_cell_length_b	16.959453
_cell_length_c	12.759393
_cell_angle_alpha	90.033968
_cell_angle_beta	90.020938
_cell_angle_gamma	90.021513
loop_
_atom_site_label
_atom_site_type_symbol
_atom_site_fract_x
_atom_site_fract_y
_atom_site_fract_z
Zn1	Zn	1.606228	-0.314611	0.593995
Zn2	Zn	1.606103	-0.446810	0.418304
Zn3	Zn	1.430526	-0.314653	0.418330
Zn4	Zn	1.430502	-0.446755	0.593941
O5	O	1.518340	-0.380707	0.506143
O6	O	1.753232	-0.332153	0.570701
O7	O	1.582770	-0.429320	0.271287
O8	O	1.453896	-0.204037	0.441665
O9	O	1.753140	-0.429279	0.441622
O10	O	1.582983	-0.204006	0.570726
O11	O	1.453775	-0.332225	0.271305
O12	O	1.283502	-0.332171	0.441614
O13	O	1.453855	-0.429185	0.740970
O14	O	1.283484	-0.429226	0.570635
O15	O	1.582960	-0.332100	0.741009
O16	O	1.582746	-0.557414	0.441570
O17	O	1.453733	-0.557373	0.570610
C18	C	1.245372	-0.380698	0.506122
C19	C	1.128596	-0.380713	0.506138
C20	C	1.518252	-0.586074	0.506104
C21	C	1.518311	-0.673930	0.506123
C22	C	1.073752	-0.431326	0.573213
C23	C	0.964028	-0.431329	0.573234
C24	C	0.964001	-0.330103	0.439095
C25	C	1.073723	-0.330097	0.439080
C26	C	0.814128	-0.459691	0.697092
C27	C	0.759281	-0.510317	0.764159
C28	C	0.794869	-0.587456	0.780100
C29	C	0.885303	-0.613985	0.728960
C30	C	0.940145	-0.563363	0.661886
C31	C	0.904558	-0.486213	0.645965
C32	C	1.223625	-0.301743	0.315220
C33	C	1.278468	-0.251125	0.248140
C34	C	1.242882	-0.173984	0.232188
C35	C	1.152445	-0.147458	0.283309
C36	C	1.097601	-0.198076	0.350390
C37	C	1.133195	-0.275216	0.366344
C38	C	1.585641	-1.045331	0.573471
C39	C	1.451332	-1.045480	0.438970
C40	C	1.451293	-0.962935	0.438946
C41	C	1.518428	-0.921583	0.506187
C42	C	1.585602	-0.962778	0.573451
C43	C	1.384112	-0.921734	0.371690
C44	C	1.384070	-0.839183	0.371664
C45	C	1.451211	-0.797830	0.438900
C46	C	1.518389	-0.839030	0.506167
C47	C	1.585524	-0.797678	0.573407
C48	C	1.652708	-0.838876	0.640669
C49	C	1.652744	-0.921425	0.640687
C50	C	1.451175	-0.715282	0.438882
C51	C	1.585485	-0.715125	0.573387
C52	C	1.792373	-0.380718	0.506164
C53	C	1.909150	-0.380722	0.506173
C54	C	1.518418	-0.380632	0.780176
C55	C	1.518452	-0.380599	0.896953
C56	C	1.518456	-0.174539	0.506204
C57	C	1.518506	-0.086683	0.506231
C58	C	1.518322	-0.380726	0.233175
C59	C	1.518492	-0.380536	0.116399
C60	C	1.585682	-0.330039	0.951837
C61	C	1.585700	-0.330005	1.061561
C62	C	1.451255	-0.431098	1.061507
C63	C	1.451232	-0.431128	0.951785
C64	C	1.623323	-0.236746	1.211547
C65	C	1.690569	-0.186193	1.266434
C66	C	1.793084	-0.174072	1.230844
C67	C	1.828372	-0.212516	1.140368
C68	C	1.761132	-0.263076	1.085485
C69	C	1.658603	-0.275181	1.121074
C70	C	1.413620	-0.524387	0.801798
C71	C	1.346383	-0.574951	0.746914
C72	C	1.243867	-0.587080	0.782502
C73	C	1.208582	-0.548650	0.872982
C74	C	1.275819	-0.498086	0.927866
C75	C	1.378334	-0.485956	0.892270
H76	H	1.118426	-0.472539	0.627819
Cl77	Cl	1.231458	-0.449770	1.041613
H78	H	1.640344	-1.078878	0.628231
H79	H	0.914265	-0.676802	0.741937
H80	H	1.847836	-0.132909	1.275541
Cl81	Cl	1.366923	-1.097466	0.354459
Cl82	Cl	1.646207	-0.137865	1.380172
Cl83	Cl	1.737094	-0.786882	0.725206
Cl84	Cl	1.299699	-0.973721	0.287186
Cl85	Cl	1.542490	-0.509118	0.757028
H86	H	1.707440	-0.954976	0.695449
H87	H	1.539845	-0.246604	1.240528
Cl88	Cl	1.366761	-0.494621	1.130447
Cl89	Cl	1.299610	-0.787399	0.287110
H90	H	1.125107	-0.558528	0.901962
H91	H	1.396470	-0.681742	0.384123
Cl92	Cl	1.670182	-0.266514	0.882908
Cl93	Cl	0.725921	-0.651095	0.864419
H94	H	1.013774	-0.584963	0.620248
Cl95	Cl	1.957262	-0.197287	1.095641
Cl96	Cl	1.159351	-0.650663	0.713516
Cl97	Cl	1.805485	-0.311404	0.971752
Cl98	Cl	1.311822	-0.110355	0.147842
H99	H	0.919310	-0.288895	0.384497
Cl100	Cl	0.983902	-0.164730	0.414653
H101	H	1.375126	-0.606251	0.673247
H102	H	0.685650	-0.488709	0.805798
H103	H	1.352107	-0.272729	0.206514
Cl104	Cl	0.769393	-0.362708	0.677073
Cl105	Cl	1.107696	-0.050482	0.263248
Cl106	Cl	1.268272	-0.398764	0.335139
Cl107	Cl	1.669895	-0.663147	0.657918
