data_functionalizedCrystal
_audit_creation_method	'MofGen! by Chris Wilmer'
_symmetry_space_group_name_H-M	'P1'
_symmetry_Int_Tables_number	1
_symmetry_cell_setting	triclinic
loop_
_symmetry_equiv_pos_as_xyz
  x,y,z
_cell_length_a	26.374263
_cell_length_b	26.373608
_cell_length_c	26.370205
_cell_angle_alpha	60.005297
_cell_angle_beta	60.010839
_cell_angle_gamma	59.993700
loop_
_atom_site_label
_atom_site_type_symbol
_atom_site_fract_x
_atom_site_fract_y
_atom_site_fract_z
O1	O	0.070152	-0.740800	0.619517
O2	O	0.026377	-0.576764	0.499159
O3	O	0.130245	-0.680560	0.499088
O4	O	-0.033715	-0.637003	0.619589
O5	O	0.164701	-0.646107	0.533470
O6	O	0.060833	-0.542310	0.533541
O7	O	0.104608	-0.706346	0.653899
Cu8	Cu	0.085867	-0.621182	0.596859
Cu9	Cu	0.045119	-0.661927	0.556199
O10	O	0.000741	-0.602549	0.653971
N11	N	0.114528	-0.592529	0.625461
N12	N	0.016463	-0.690587	0.527598
C13	C	0.181428	-0.355400	0.692330
C14	C	0.181530	-0.525690	0.862573
C15	C	0.181440	-0.525667	0.692313
C16	C	0.351736	-0.525673	0.692271
C17	C	0.200174	-0.411588	0.711047
C18	C	0.200232	-0.506954	0.806384
C19	C	0.295546	-0.506943	0.711016
C20	C	0.200182	-0.506940	0.711037
C21	C	0.157567	-0.283881	0.668507
C22	C	0.157587	-0.549500	0.668479
C23	C	0.224035	-0.483107	0.734871
C24	C	0.455739	-0.507754	0.637520
C25	C	0.520749	-0.529425	0.615835
C26	C	0.520768	-0.634611	0.655947
C27	C	0.455759	-0.612939	0.677633
C28	C	0.173240	-0.251367	0.604595
C29	C	0.151546	-0.186351	0.582941
C30	C	0.098512	-0.186369	0.689113
C31	C	0.120206	-0.251385	0.710768
C32	C	0.093669	-0.533798	0.684205
C33	C	0.071992	-0.555464	0.662532
C34	C	0.178144	-0.608536	0.609422
C35	C	0.199825	-0.586869	0.631088
C36	C	0.093821	-0.533842	0.966616
C37	C	0.072187	-0.555526	1.031630
C38	C	0.178370	-0.608608	1.031591
C39	C	0.200004	-0.586926	0.966576
C40	C	0.157728	-0.549541	0.934090
C41	C	0.423247	-0.549509	0.668416
C42	C	-0.097522	-0.709158	0.508557
C43	C	-0.002050	-0.709295	0.413344
C44	C	-0.002241	-0.804604	0.508735
C45	C	-0.002225	-0.709288	0.508793
C46	C	-0.026009	-0.733087	0.484858
N47	N	0.552340	-0.592538	0.625346
O48	O	0.750867	-0.598274	0.477076
O49	O	0.751048	-0.718989	0.640960
O50	O	0.750981	-0.718715	0.537020
O51	O	0.750934	-0.598547	0.581017
O52	O	0.647701	-0.684348	0.571512
O53	O	0.647768	-0.684622	0.675452
O54	O	0.647587	-0.563907	0.511569
Cu55	Cu	0.638247	-0.621127	0.596660
Cu56	Cu	0.760388	-0.661769	0.555869
O57	O	0.647654	-0.564181	0.615509
N58	N	0.846295	-0.690358	0.527176
N59	N	0.114503	-0.154778	0.625499
O60	O	-0.033701	0.043855	0.619632
O61	O	0.130190	0.043858	0.498933
O62	O	0.026233	0.043841	0.499224
O63	O	0.070257	0.043872	0.619341
O64	O	0.060690	-0.059448	0.533654
O65	O	0.164647	-0.059431	0.533363
O66	O	0.000756	-0.059434	0.654062
Cu67	Cu	0.085848	-0.068863	0.596857
Cu68	Cu	0.045099	0.053287	0.556138
O69	O	0.104714	-0.059417	0.653771
N70	N	0.016435	0.139202	0.527497
N71	N	0.114760	-0.592585	1.063190
O72	O	0.108896	-0.740779	1.261808
O73	O	-0.011787	-0.576838	1.261822
O74	O	-0.011509	-0.680779	1.261780
O75	O	0.108618	-0.636838	1.261850
O76	O	0.022916	-0.646341	1.158496
O77	O	0.022638	-0.542399	1.158538
O78	O	0.143321	-0.706341	1.158524
Cu79	Cu	0.086123	-0.621225	1.149100
Cu80	Cu	0.045411	-0.661953	1.271246
O81	O	0.143044	-0.602399	1.158566
N82	N	0.016774	-0.690600	1.357156
C83	C	0.039504	-0.538867	0.499769
C84	C	0.168130	-0.667407	0.499680
C85	C	0.091482	-0.744243	0.653289
C86	C	-0.037145	-0.615703	0.653378
C87	C	0.699429	-0.718429	0.678853
C88	C	0.699348	-0.718091	0.550135
C89	C	0.699202	-0.564465	0.473677
C90	C	0.699287	-0.564805	0.602393
C91	C	0.168023	-0.007659	0.499484
C92	C	0.039327	-0.007807	0.499887
C93	C	-0.037119	-0.007789	0.653468
C94	C	0.091620	-0.007770	0.653109
C95	C	-0.011194	-0.538964	1.210181
C96	C	-0.010843	-0.667676	1.210109
C97	C	0.142729	-0.744214	1.210165
C98	C	0.142386	-0.615494	1.210214
H99	H	0.020147	-0.542732	1.058106
H100	H	0.029900	-0.007810	0.462151
O101	O	0.027122	-0.476451	0.449696
H102	H	0.060643	-0.454701	0.436506
O103	O	-0.099468	-0.007776	0.703663
H104	H	-0.129938	-0.007776	0.686110
O105	O	0.230510	-0.679703	0.449555
H106	H	0.224137	-0.674241	0.408342
O107	O	0.268936	-0.603856	0.931498
H108	H	0.281323	-0.560872	0.901881
H109	H	0.100832	-0.791364	0.691090
O110	O	0.230253	-0.007362	0.449158
H111	H	0.223650	0.034793	0.408037
O112	O	-0.099521	-0.603411	0.703509
H113	H	-0.129929	-0.555376	0.685874
O114	O	0.699277	-0.514808	0.614866
H115	H	0.741350	-0.501605	0.581359
H116	H	0.699474	-0.756325	0.725922
O117	O	0.104099	-0.007770	0.703102
H118	H	0.152150	-0.007773	0.685334
O119	O	0.699378	-0.768099	0.537663
H120	H	0.699438	-0.810322	0.579609
H121	H	-0.049082	-0.491880	1.210184
O122	O	-0.060813	-0.680094	1.210013
H123	H	-0.043041	-0.728140	1.209979
O124	O	0.192918	-0.806584	1.210174
H125	H	0.175360	-0.837039	1.210163
H126	H	0.180125	-0.606093	1.210228
O127	O	0.048223	-0.493515	0.931579
H128	H	0.000150	-0.486244	0.965120
O129	O	0.223966	-0.648926	1.066632
H130	H	0.272040	-0.656203	1.033092
H131	H	0.019945	-0.542665	0.675322
O132	O	0.048110	-0.493500	0.724539
H133	H	0.018478	-0.450553	0.698749
O134	O	0.223681	-0.648829	0.569076
H135	H	0.253329	-0.691784	0.594841
O136	O	0.268766	-0.603811	0.614136
H137	H	0.290039	-0.586323	0.562877
O138	O	0.420714	-0.657975	0.710948
H139	H	0.454249	-0.705719	0.713701
O140	O	0.555834	-0.703025	0.665894
H141	H	0.543341	-0.718703	0.642936
O142	O	0.555803	-0.484391	0.582508
H143	H	0.522274	-0.436641	0.579737
O144	O	0.420667	-0.439340	0.627588
H145	H	0.454187	-0.413948	0.602467
H146	H	0.203661	-0.277820	0.570179
O147	O	0.699140	-0.514261	0.411332
H148	H	0.699139	-0.531826	0.380870
H149	H	0.164306	-0.159876	0.530897
H150	H	0.107441	-0.277854	0.762810
O151	O	0.058219	-0.151314	0.734691
H152	H	0.050968	-0.184848	0.782773
