data_functionalizedCrystal
_audit_creation_method	'MofGen! by Chris Wilmer'
_symmetry_space_group_name_H-M	'P1'
_symmetry_Int_Tables_number	1
_symmetry_cell_setting	triclinic
loop_
_symmetry_equiv_pos_as_xyz
  x,y,z
_cell_length_a	12.759401
_cell_length_b	18.215405
_cell_length_c	12.759393
_cell_angle_alpha	89.966515
_cell_angle_beta	89.980324
_cell_angle_gamma	90.023158
loop_
_atom_site_label
_atom_site_type_symbol
_atom_site_fract_x
_atom_site_fract_y
_atom_site_fract_z
Zn1	Zn	1.606208	-0.292940	-0.593963
Zn2	Zn	1.606074	-0.416024	-0.418274
Zn3	Zn	1.430506	-0.292977	-0.418302
Zn4	Zn	1.430474	-0.415971	-0.593915
O5	O	1.518316	-0.354478	-0.506113
O6	O	1.753211	-0.309275	-0.570666
O7	O	1.582743	-0.399740	-0.271256
O8	O	1.453883	-0.189988	-0.441636
O9	O	1.753113	-0.399704	-0.441588
O10	O	1.582970	-0.189961	-0.570693
O11	O	1.453754	-0.309337	-0.271277
O12	O	1.283481	-0.309285	-0.441589
O13	O	1.453827	-0.399612	-0.740942
O14	O	1.283457	-0.399648	-0.570611
O15	O	1.582938	-0.309223	-0.740978
O16	O	1.582711	-0.519001	-0.441541
O17	O	1.453698	-0.518962	-0.570584
C18	C	1.245348	-0.354465	-0.506099
C19	C	1.128572	-0.354478	-0.506117
C20	C	1.073761	-0.307476	-0.573432
C21	C	0.964037	-0.307484	-0.573439
C22	C	0.963943	-0.401500	-0.438814
C23	C	1.073665	-0.401489	-0.438802
C24	C	1.518215	-0.545684	-0.506077
C25	C	1.518268	-0.627483	-0.506097
C26	C	1.585515	-0.815602	-0.573388
C27	C	1.585554	-0.892461	-0.573408
C28	C	1.451245	-0.892602	-0.438904
C29	C	1.451203	-0.815745	-0.438890
C30	C	1.518344	-0.777247	-0.506131
C31	C	1.518425	-0.930963	-0.506164
C32	C	1.518465	-1.014296	-0.506185
C33	C	1.518302	-0.693908	-0.506112
C34	C	1.792349	-0.354491	-0.506129
C35	C	1.909125	-0.354497	-0.506136
C36	C	1.518394	-0.354407	-0.780147
C37	C	1.518428	-0.354377	-0.896924
C38	C	1.518445	-0.162525	-0.506173
C39	C	1.518500	-0.080726	-0.506198
C40	C	1.585661	-0.307304	-0.951806
C41	C	1.585679	-0.307272	-1.061530
C42	C	1.451227	-0.401394	-1.061480
C43	C	1.451205	-0.401421	-0.951758
C44	C	1.518298	-0.354495	-0.233146
C45	C	1.518468	-0.354318	-0.116370
H46	H	1.118293	-0.439764	-0.383981
H47	H	1.640395	-0.268996	-0.907163
H48	H	1.640184	-0.784259	-0.628141
C49	C	1.659638	-0.255491	-1.121900
C50	C	1.733574	-0.203746	-1.061580
C51	C	1.807535	-0.151961	-1.121950
C52	C	1.807560	-0.151922	-1.242640
C53	C	1.733620	-0.203670	-1.302967
C54	C	1.659659	-0.255454	-1.242597
H55	H	1.733559	-0.203773	-0.972232
H56	H	1.862270	-0.113655	-1.077291
H57	H	1.862310	-0.113588	-1.287329
H58	H	1.733636	-0.203642	-1.392315
H59	H	1.604925	-0.293761	-1.287256
H60	H	1.396499	-0.439697	-1.106140
H61	H	1.640249	-0.923686	-0.628178
C62	C	1.377310	-0.773549	-0.364901
C63	C	1.385956	-0.784166	-0.245473
C64	C	1.312063	-0.741970	-0.171490
C65	C	1.229524	-0.689157	-0.216935
C66	C	1.220874	-0.678538	-0.336369
C67	C	1.294767	-0.720734	-0.410351
H68	H	1.447060	-0.823263	-0.211827
H69	H	1.318467	-0.749831	-0.083078
H70	H	1.174824	-0.657922	-0.162169
H71	H	1.159770	-0.639441	-0.370015
H72	H	1.288363	-0.712872	-0.498764
C73	C	1.377240	-0.453200	-0.891374
C74	C	1.422701	-0.510995	-0.815918
C75	C	1.348734	-0.562766	-0.755532
C76	C	1.229306	-0.556742	-0.770602
C77	C	1.183838	-0.498945	-0.846061
C78	C	1.257805	-0.447174	-0.906448
H79	H	1.511114	-0.515456	-0.804760
H80	H	1.382393	-0.605551	-0.699672
H81	H	1.174551	-0.595066	-0.725900
H82	H	1.095425	-0.494483	-0.857220
H83	H	1.224147	-0.404389	-0.962308
H84	H	1.118463	-0.269194	-0.628241
C85	C	1.377401	-0.934952	-0.364935
C86	C	1.377448	-1.019492	-0.364941
C87	C	1.303604	-1.061840	-0.290967
C88	C	1.229713	-1.019647	-0.216987
C89	C	1.229664	-0.935103	-0.216978
C90	C	1.303508	-0.892755	-0.290952
H91	H	1.432149	-1.050729	-0.419708
H92	H	1.303641	-1.124425	-0.290975
H93	H	1.175050	-1.050996	-0.162228
H94	H	1.174963	-0.903865	-0.162211
H95	H	1.303470	-0.830169	-0.290945
H96	H	0.919225	-0.439776	-0.384009
C97	C	0.903749	-0.255783	-0.647491
C98	C	0.918886	-0.261895	-0.766910
C99	C	0.858599	-0.210191	-0.840966
C100	C	0.783175	-0.152376	-0.795603
C101	C	0.768034	-0.146262	-0.676179
C102	C	0.828321	-0.197966	-0.602123
H103	H	0.974723	-0.304695	-0.800495
H104	H	0.869808	-0.214718	-0.929372
H105	H	0.738547	-0.114102	-0.850424
H106	H	0.712197	-0.103461	-0.642594
H107	H	0.817112	-0.193439	-0.513717
