data_functionalizedCrystal
_audit_creation_method	'MofGen! by Chris Wilmer'
_symmetry_space_group_name_H-M	'P1'
_symmetry_Int_Tables_number	1
_symmetry_cell_setting	triclinic
loop_
_symmetry_equiv_pos_as_xyz
  x,y,z
_cell_length_a	23.532407
_cell_length_b	22.610064
_cell_length_c	11.792241
_cell_angle_alpha	89.996044
_cell_angle_beta	96.478958
_cell_angle_gamma	89.998238
loop_
_atom_site_label
_atom_site_type_symbol
_atom_site_fract_x
_atom_site_fract_y
_atom_site_fract_z
O1	O	-0.756080	0.049096	0.137755
O2	O	-0.590335	0.049117	0.157690
O3	O	-0.677229	0.049102	-0.017543
O4	O	-0.669185	0.049111	0.312988
O5	O	-0.677214	-0.049267	-0.017517
O6	O	-0.590319	-0.049252	0.157715
O7	O	-0.756065	-0.049273	0.137781
Zn8	Zn	-0.673189	-0.064881	0.147752
Zn9	Zn	-0.673210	0.064725	0.147718
O10	O	-0.669170	-0.049258	0.313013
C11	C	-0.569108	-0.000065	0.157195
C12	C	-0.505882	-0.000057	0.155669
C13	C	-0.107337	-0.000074	0.249795
C14	C	-0.047928	-0.000076	0.248377
O15	O	-0.011701	-0.000095	0.335633
N16	N	-0.024684	-0.000078	0.144202
C17	C	-0.060853	-0.000083	0.041437
O18	O	-0.035627	-0.000085	-0.047303
C19	C	-0.120260	-0.000084	0.042856
C20	C	-0.143501	-0.000077	0.147038
C21	C	-0.130577	-0.000067	0.353969
C22	C	-0.189982	-0.000063	0.355386
C23	C	-0.226146	-0.000067	0.252630
C24	C	-0.202905	-0.000073	0.148456
C25	C	-0.156428	-0.000094	-0.059907
C26	C	-0.215839	-0.000096	-0.058479
C27	C	-0.239079	-0.000088	0.045703
C28	C	-0.298474	-0.000073	0.047116
N29	N	-0.321717	-0.000071	0.151292
C30	C	-0.285553	-0.000068	0.254049
C31	C	0.063907	-0.000080	0.038465
C32	C	0.123314	-0.000074	0.037045
C33	C	0.136234	-0.000069	0.243985
C34	C	0.076827	-0.000071	0.245404
C35	C	0.040664	-0.000079	0.142641
C36	C	-0.410308	-0.000060	0.257017
C37	C	-0.469718	-0.000054	0.258425
C38	C	-0.482634	-0.000063	0.051485
C39	C	-0.423229	-0.000066	0.050076
C40	C	-0.387066	-0.000066	0.152852
O41	O	-0.334736	-0.000057	-0.040094
O42	O	-0.310787	-0.000074	0.342774
N43	N	-0.673180	-0.153333	0.147774
C44	C	-0.711689	-0.561981	0.070137
C45	C	-0.711691	-0.623901	0.070129
O46	O	-0.744409	-0.655926	0.004136
N47	N	-0.673209	-0.654870	0.147695
C48	C	-0.634718	-0.623917	0.225266
O49	O	-0.601985	-0.655944	0.291241
C50	C	-0.634713	-0.561998	0.225268
C51	C	-0.673201	-0.531032	0.147705
C52	C	-0.750174	-0.531015	-0.007420
C53	C	-0.750171	-0.469100	-0.007410
C54	C	-0.711684	-0.438150	0.070157
C55	C	-0.673199	-0.469116	0.147715
C56	C	-0.596219	-0.531045	0.302833
C57	C	-0.596217	-0.469122	0.302828
C58	C	-0.634705	-0.438156	0.225265
C59	C	-0.634709	-0.376251	0.225293
N60	N	-0.673191	-0.345282	0.147727
C61	C	-0.711679	-0.376231	0.070159
C62	C	-0.634731	-0.753950	0.225255
C63	C	-0.634738	-0.815868	0.225259
C64	C	-0.711711	-0.815848	0.070120
C65	C	-0.711706	-0.753929	0.070122
C66	C	-0.673213	-0.722981	0.147689
C67	C	-0.711671	-0.246204	0.070187
C68	C	-0.711667	-0.184283	0.070207
C69	C	-0.634692	-0.184308	0.225341
C70	C	-0.634698	-0.246224	0.225326
C71	C	-0.673190	-0.277170	0.147739
O72	O	-0.602007	-0.344187	0.291249
O73	O	-0.744400	-0.344196	0.004186
C74	C	0.222709	-0.000085	0.138276
C75	C	0.159483	-0.000074	0.139802
C76	C	-0.676716	-0.000082	-0.059809
C77	C	-0.675204	-0.000082	-0.185787
N78	N	-0.673224	0.153177	0.147687
C79	C	-0.672423	-0.000071	-0.416434
C80	C	-0.673968	-0.000077	-0.288085
C81	C	-0.669683	-0.000072	0.355280
C82	C	-0.671195	-0.000069	0.481258
H83	H	-0.137517	-0.000100	-0.144743
N84	N	-0.252770	-0.000110	-0.163464
N85	N	-0.232007	-0.000120	-0.256467
H86	H	-0.258088	-0.000130	-0.330613
H87	H	-0.488636	-0.000048	0.343267
H88	H	0.057909	-0.000068	0.330239
H89	H	-0.603386	-0.728755	0.288429
N90	N	0.147048	-0.000089	-0.069376
N91	N	0.178751	-0.041560	-0.093249
H92	H	0.195511	-0.041575	-0.168414
H93	H	-0.404306	-0.000063	-0.034757
H94	H	-0.512089	-0.000063	-0.032176
N95	N	0.173190	-0.000072	0.348942
N96	N	0.226230	-0.000077	0.347648
H97	H	0.252332	-0.000081	0.421768
H98	H	-0.743011	-0.159072	0.007045
N99	N	0.026977	-0.000086	-0.066524
N100	N	0.047744	-0.000088	-0.159523
H101	H	0.021665	-0.000093	-0.233673
N102	N	-0.789482	-0.437440	-0.086594
N103	N	-0.824921	-0.402886	-0.050887
H104	H	-0.852685	-0.380519	-0.106800
H105	H	-0.743014	-0.271394	0.007007
N106	N	-0.789492	-0.562614	-0.086674
N107	N	-0.823846	-0.534947	-0.155911
H108	H	-0.851620	-0.557259	-0.211886
N109	N	-0.595371	-0.152688	0.304555
N110	N	-0.542732	-0.159604	0.303517
H111	H	-0.514958	-0.137271	0.359458
H112	H	-0.208898	-0.000057	0.440222
N113	N	-0.750996	-0.722310	-0.009171
N114	N	-0.785336	-0.749959	-0.078453
H115	H	-0.813075	-0.727631	-0.134482
H116	H	-0.743049	-0.841059	0.006959
H117	H	-0.603403	-0.841076	0.288430
N118	N	-0.373383	-0.000064	0.362008
N119	N	-0.394151	-0.000059	0.455005
H120	H	-0.368073	-0.000059	0.529156
N121	N	-0.595393	-0.277864	0.304559
N122	N	-0.613671	-0.312424	0.374822
H123	H	-0.585907	-0.334766	0.430776
N124	N	-0.556903	-0.562657	0.382079
N125	N	-0.522545	-0.535004	0.451321
H126	H	-0.494776	-0.557328	0.507295
N127	N	-0.556897	-0.437519	0.382083
N128	N	-0.557998	-0.444447	0.486977
H129	H	-0.530230	-0.422129	0.542955
N130	N	-0.093650	-0.000068	0.458952
N131	N	-0.114420	-0.000064	0.551948
H132	H	-0.088344	-0.000061	0.626100
