data_functionalizedCrystal
_audit_creation_method	'MofGen! by Chris Wilmer'
_symmetry_space_group_name_H-M	'P1'
_symmetry_Int_Tables_number	1
_symmetry_cell_setting	triclinic
loop_
_symmetry_equiv_pos_as_xyz
  x,y,z
_cell_length_a	21.295411
_cell_length_b	21.395362
_cell_length_c	21.395361
_cell_angle_alpha	90.046585
_cell_angle_beta	90.021703
_cell_angle_gamma	90.043935
loop_
_atom_site_label
_atom_site_type_symbol
_atom_site_fract_x
_atom_site_fract_y
_atom_site_fract_z
Zn1	Zn	-0.356237	-0.957859	0.249244
Zn2	Zn	-0.022903	-0.624526	0.582578
Zn3	Zn	0.310430	-0.291193	0.915911
Zn4	Zn	-0.250962	-0.957762	0.354005
Zn5	Zn	0.082371	-0.624429	0.687338
Zn6	Zn	0.415705	-0.291095	1.020671
Zn7	Zn	-0.250946	-0.853074	0.249274
Zn8	Zn	0.082387	-0.519741	0.582607
Zn9	Zn	0.415721	-0.186408	0.915941
Zn10	Zn	-0.356158	-0.853044	0.354017
Zn11	Zn	-0.022825	-0.519710	0.687350
Zn12	Zn	0.310509	-0.186377	1.020684
O13	O	-0.303576	-0.905435	0.301635
O14	O	0.029758	-0.572102	0.634968
O15	O	0.363091	-0.238768	0.968302
O16	O	-0.342311	-1.045524	0.263123
O17	O	-0.008978	-0.712191	0.596457
O18	O	0.324355	-0.378858	0.929790
O19	O	-0.162870	-0.943847	0.340119
O20	O	0.170463	-0.610514	0.673452
O21	O	0.503796	-0.277180	1.006786
O22	O	-0.264939	-0.867028	0.161592
O23	O	0.068394	-0.533695	0.494925
O24	O	0.401727	-0.200361	0.828259
O25	O	-0.264966	-1.045453	0.340090
O26	O	0.068367	-0.712119	0.673424
O27	O	0.401700	-0.378786	1.006757
O28	O	-0.342296	-0.944013	0.161570
O29	O	-0.008963	-0.610680	0.494904
O30	O	0.324371	-0.277347	0.828237
O31	O	-0.162859	-0.866934	0.263174
O32	O	0.170475	-0.533600	0.596507
O33	O	0.503808	-0.200267	0.929840
O34	O	-0.264863	-0.765392	0.263186
O35	O	0.068470	-0.432059	0.596519
O36	O	0.401804	-0.098726	0.929853
O37	O	-0.444258	-0.866976	0.340112
O38	O	-0.110925	-0.533642	0.673445
O39	O	0.222409	-0.200309	1.006778
O40	O	-0.342162	-0.765370	0.340140
O41	O	-0.008829	-0.432036	0.673474
O42	O	0.324505	-0.098703	1.006807
O43	O	-0.444316	-0.943983	0.263136
O44	O	-0.110982	-0.610650	0.596469
O45	O	0.222351	-0.277317	0.929802
O46	O	-0.264890	-0.943817	0.441684
O47	O	0.068443	-0.610484	0.775017
O48	O	0.401777	-0.277150	1.108351
O49	O	-0.342177	-0.866881	0.441693
O50	O	-0.008844	-0.533548	0.775027
O51	O	0.324489	-0.200214	1.108360
C52	C	-0.303503	-0.742647	0.301668
C53	C	0.029831	-0.409314	0.635001
C54	C	0.363164	-0.075981	0.968335
C55	C	-0.303486	-0.673006	0.301697
C56	C	0.029847	-0.339673	0.635031
C57	C	0.363180	-0.006339	0.968364
C58	C	-0.303541	-0.905352	0.464423
C59	C	0.029793	-0.572019	0.797756
C60	C	0.363126	-0.238685	1.131089
C61	C	-0.303547	-0.905374	0.534064
C62	C	0.029787	-0.572041	0.867397
C63	C	0.363120	-0.238707	1.200731
C64	C	-0.467766	-0.905487	0.301622
C65	C	-0.134433	-0.572154	0.634955
C66	C	0.198901	-0.238820	0.968288
C67	C	-0.537734	-0.905509	0.301616
C68	C	-0.204401	-0.572176	0.634949
C69	C	0.128933	-0.238842	0.968283
C70	C	-0.570632	-0.945605	0.261533
C71	C	-0.237299	-0.612272	0.594866
C72	C	0.096035	-0.278939	0.928200
C73	C	-0.636374	-0.945604	0.261506
C74	C	-0.303041	-0.612271	0.594839
C75	C	0.030292	-0.278938	0.928172
C76	C	-0.669217	-0.905514	0.301573
C77	C	-0.335883	-0.572181	0.634906
C78	C	-0.002550	-0.238847	0.968240
C79	C	-0.636311	-0.865410	0.341659
C80	C	-0.302978	-0.532077	0.674992
C81	C	0.030356	-0.198743	1.008326
C82	C	-0.570570	-0.865407	0.341681
C83	C	-0.237236	-0.532074	0.675014
C84	C	0.096097	-0.198741	1.008347
N85	N	-0.772430	-0.900680	0.356385
N86	N	-0.439097	-0.567346	0.689718
N87	N	-0.105764	-0.234013	1.023051
N88	N	-0.834882	-0.900686	0.356363
N89	N	-0.501549	-0.567352	0.689696
N90	N	-0.168215	-0.234019	1.023029
C91	C	-0.867292	-0.905518	0.301509
C92	C	-0.533958	-0.572185	0.634843
C93	C	-0.200625	-0.238851	0.968176
N94	N	-0.834891	-0.910356	0.246678
N95	N	-0.501557	-0.577023	0.580012
N96	N	-0.168224	-0.243689	0.913345
N97	N	-0.772433	-0.910353	0.246701
N98	N	-0.439100	-0.577020	0.580035
N99	N	-0.105767	-0.243687	0.913368
C100	C	-0.740502	-0.905512	0.301554
C101	C	-0.407169	-0.572178	0.634887
C102	C	-0.073835	-0.238845	0.968220
C103	C	-0.971475	-0.945615	0.261393
C104	C	-0.638142	-0.612282	0.594727
C105	C	-0.304808	-0.278949	0.928060
C106	C	-1.037219	-0.945610	0.261365
C107	C	-0.703885	-0.612277	0.594698
C108	C	-0.370552	-0.278943	0.928032
C109	C	-1.037154	-0.865419	0.341524
C110	C	-0.703821	-0.532085	0.674857
C111	C	-0.370487	-0.198752	1.008191
C112	C	-0.971412	-0.865421	0.341547
C113	C	-0.638078	-0.532087	0.674880
C114	C	-0.304745	-0.198754	1.008213
C115	C	-0.938576	-0.905522	0.301482
C116	C	-0.605243	-0.572189	0.634816
C117	C	-0.271909	-0.238856	0.968149
C118	C	-0.140024	-0.905419	0.301603
C119	C	0.193309	-0.572086	0.634936
C120	C	0.526643	-0.238752	0.968270
C121	C	-0.070056	-0.905518	0.301432
C122	C	0.263277	-0.572185	0.634765
C123	C	0.596610	-0.238852	0.968099
C124	C	-0.303649	-1.068858	0.301602
C125	C	0.029684	-0.735525	0.634936
C126	C	0.363017	-0.402192	0.968269
C127	C	-0.303681	-1.138499	0.301588
C128	C	0.029653	-0.805166	0.634922
C129	C	0.362986	-0.471833	0.968255
C130	C	-0.343676	-0.640297	0.341821
C131	C	-0.010342	-0.306964	0.675154
C132	C	0.322991	0.026369	1.008487
C133	C	-0.343704	-0.574862	0.341805
C134	C	-0.010370	-0.241529	0.675139
C135	C	0.322963	0.091805	1.008472
C136	C	-0.303531	-0.542138	0.301673
C137	C	0.029802	-0.208804	0.635007
C138	C	0.363135	0.124529	0.968340
C139	C	-0.263339	-0.574854	0.261542
C140	C	0.069994	-0.241521	0.594876
C141	C	0.403327	0.091813	0.928209
C142	C	-0.263317	-0.640288	0.261554
C143	C	0.070017	-0.306955	0.594888
C144	C	0.403350	0.026378	0.928221
C145	C	-0.246861	-0.438413	0.296626
C146	C	0.086472	-0.105080	0.629959
C147	C	0.419805	0.228254	0.963293
C148	C	-0.246883	-0.372980	0.296618
C149	C	0.086450	-0.039647	0.629952
C150	C	0.419784	0.293687	0.963285
C151	C	-0.303601	-0.340317	0.301632
C152	C	0.029733	-0.006984	0.634966
C153	C	0.363066	0.326350	0.968299
C154	C	-0.360299	-0.373095	0.306667
C155	C	-0.026966	-0.039762	0.640001
C156	C	0.306368	0.293572	0.973334
C157	C	-0.360276	-0.438529	0.306679
C158	C	-0.026943	-0.105196	0.640013
C159	C	0.306390	0.228138	0.973346
C160	C	-0.303551	-0.471185	0.301655
C161	C	0.029782	-0.137852	0.634989
C162	C	0.363115	0.195481	0.968322
C163	C	-0.343824	-0.236656	0.341741
C164	C	-0.010490	0.096677	0.675074
C165	C	0.322843	0.430011	1.008408
C166	C	-0.343853	-0.171219	0.341721
C167	C	-0.010519	0.162114	0.675055
C168	C	0.322814	0.495447	1.008388
C169	C	-0.263483	-0.171213	0.261462
C170	C	0.069851	0.162121	0.594795
C171	C	0.403184	0.495454	0.928128
C172	C	-0.263459	-0.236648	0.261478
C173	C	0.069874	0.096685	0.594811
C174	C	0.403207	0.430019	0.928145
C175	C	-0.303629	-0.269366	0.301621
C176	C	0.029704	0.063968	0.634954
C177	C	0.363038	0.397301	0.968288
C178	C	-0.303625	-0.905535	0.138212
C179	C	0.029709	-0.572202	0.471545
C180	C	0.363042	-0.238868	0.804878
C181	C	-0.303646	-0.905578	0.068570
C182	C	0.029688	-0.572244	0.401904
C183	C	0.363021	-0.238911	0.735237
C184	C	-0.263345	-0.945470	0.566751
C185	C	0.069989	-0.612137	0.900085
C186	C	0.403322	-0.278804	1.233418
C187	C	-0.263359	-0.945499	0.632187
C188	C	0.069975	-0.612166	0.965520
C189	C	0.403308	-0.278833	1.298853
C190	C	-0.303568	-0.905421	0.664932
C191	C	0.029765	-0.572088	0.998266
C192	C	0.363098	-0.238755	1.331599
C193	C	-0.343778	-0.865322	0.632237
C194	C	-0.010445	-0.531989	0.965570
C195	C	0.322888	-0.198656	1.298903
C196	C	-0.343767	-0.865299	0.566803
C197	C	-0.010434	-0.531965	0.900136
C198	C	0.322899	-0.198632	1.233469
C199	C	-0.308482	-0.849006	0.768663
C200	C	0.024851	-0.515673	1.101996
C201	C	0.358185	-0.182340	1.435330
C202	C	-0.308488	-0.849029	0.834096
C203	C	0.024845	-0.515696	1.167429
C204	C	0.358178	-0.182362	1.500763
C205	C	-0.303605	-0.905494	0.866753
C206	C	0.029728	-0.572161	1.200086
C207	C	0.363061	-0.238827	1.533420
C208	C	-0.298702	-0.961939	0.833969
C209	C	0.034631	-0.628605	1.167302
C210	C	0.367964	-0.295272	1.500636
C211	C	-0.298692	-0.961915	0.768535
C212	C	0.034642	-0.628582	1.101868
C213	C	0.367975	-0.295248	1.435201
C214	C	-0.303585	-0.905443	0.735885
C215	C	0.029749	-0.572109	1.069218
C216	C	0.363082	-0.238776	1.402551
C217	C	-0.263416	-0.945625	0.970393
C218	C	0.069917	-0.612292	1.303726
C219	C	0.403250	-0.278959	1.637060
C220	C	-0.263435	-0.945655	1.035829
C221	C	0.069899	-0.612322	1.369163
C222	C	0.403232	-0.278989	1.702496
C223	C	-0.343851	-0.865473	1.035878
C224	C	-0.010518	-0.532139	1.369212
C225	C	0.322816	-0.198806	1.702545
C226	C	-0.343836	-0.865448	0.970443
C227	C	-0.010503	-0.532115	1.303776
C228	C	0.322831	-0.198781	1.637110
C229	C	-0.303615	-0.905524	0.937704
C230	C	0.029718	-0.572190	1.271037
C231	C	0.363052	-0.238857	1.604371
H232	H	-0.543901	-0.978258	0.228908
H233	H	-0.210568	-0.644925	0.562242
H234	H	0.122765	-0.311592	0.895575
H235	H	-0.376570	-0.832795	0.943827
H236	H	-0.043236	-0.499462	1.277160
H237	H	0.290097	-0.166129	1.610494
H238	H	-0.663055	-0.832766	0.374280
H239	H	-0.329722	-0.499433	0.707613
H240	H	0.003611	-0.166099	1.040947
Br241	Br	-0.292043	-1.038514	0.724044
Br242	Br	0.041291	-0.705181	1.057377
Br243	Br	0.374624	-0.371847	1.390710
Br244	Br	-0.525920	-0.810986	0.396083
Br245	Br	-0.192586	-0.477652	0.729416
Br246	Br	0.140747	-0.144319	1.062749
Br247	Br	-0.926908	-1.000035	0.207020
Br248	Br	-0.593575	-0.666702	0.540353
Br249	Br	-0.260242	-0.333368	0.873686
Br250	Br	-0.398429	-0.811086	1.080311
Br251	Br	-0.065096	-0.477753	1.413645
Br252	Br	0.268238	-0.144419	1.746978
H253	H	-0.376535	-0.263296	0.374425
H254	H	-0.043202	0.070037	0.707758
H255	H	0.290131	0.403371	1.041091
Br256	Br	-0.208824	-0.530444	0.207072
Br257	Br	0.124509	-0.197111	0.540405
Br258	Br	0.457843	0.136222	0.873738
Br259	Br	-0.437220	-0.483012	0.313510
Br260	Br	-0.103886	-0.149679	0.646843
Br261	Br	0.229447	0.183655	0.980176
Br262	Br	-0.398406	-0.126828	0.396174
Br263	Br	-0.065072	0.206506	0.729507
Br264	Br	0.268261	0.539839	1.062841
Br265	Br	-0.208876	-1.000083	1.080193
Br266	Br	0.124457	-0.666750	1.413526
Br267	Br	0.457791	-0.333417	1.746859
H268	H	-0.312474	-0.803068	0.860784
H269	H	0.020859	-0.469735	1.194117
H270	H	0.354192	-0.136402	1.527450
Br271	Br	-0.315112	-0.772368	0.724350
Br272	Br	0.018221	-0.439035	1.057683
Br273	Br	0.351554	-0.105702	1.391016
Br274	Br	-1.081867	-1.000041	0.206971
Br275	Br	-0.748534	-0.666708	0.540304
Br276	Br	-0.415201	-0.333374	0.873638
Br277	Br	-0.169880	-0.482735	0.289821
Br278	Br	0.163453	-0.149401	0.623155
Br279	Br	0.496787	0.183932	0.956488
H280	H	-0.376386	-0.666932	0.374507
H281	H	-0.043052	-0.333599	0.707841
H282	H	0.290281	-0.000265	1.041174
H283	H	-1.063894	-0.832770	0.374141
H284	H	-0.730560	-0.499437	0.707475
H285	H	-0.397227	-0.166103	1.040808
H286	H	-0.230590	-0.666919	0.228879
H287	H	0.102744	-0.333586	0.562213
H288	H	0.436077	-0.000252	0.895546
Br289	Br	-0.926761	-0.811002	0.395950
Br290	Br	-0.593428	-0.477669	0.729283
Br291	Br	-0.260095	-0.144336	1.062616
Br292	Br	-0.398354	-0.810935	0.676675
Br293	Br	-0.065021	-0.477601	1.010008
Br294	Br	0.268313	-0.144268	1.343342
Br295	Br	-0.681031	-1.000009	0.207088
Br296	Br	-0.347698	-0.666676	0.540421
Br297	Br	-0.014365	-0.333342	0.873754
H298	H	-0.294726	-1.007918	0.860557
H299	H	0.038607	-0.674585	1.193890
H300	H	0.371940	-0.341251	1.527223
Br301	Br	-0.398251	-0.530462	0.396261
Br302	Br	-0.064918	-0.197128	0.729594
Br303	Br	0.268416	0.136205	1.062928
Br304	Br	-0.208768	-0.999866	0.522323
Br305	Br	0.124565	-0.666533	0.855656
Br306	Br	0.457898	-0.333200	1.188990
H307	H	-0.376506	-0.832647	0.540188
H308	H	-0.043172	-0.499314	0.873521
H309	H	0.290161	-0.165980	1.206855
H310	H	-0.230668	-0.978259	0.943736
H311	H	0.102665	-0.644926	1.277069
H312	H	0.435999	-0.311593	1.610403
Br313	Br	-0.208968	-0.126808	0.206990
Br314	Br	0.124365	0.206525	0.540323
Br315	Br	0.457699	0.539858	0.873656
H316	H	-0.406484	-0.346502	0.310749
H317	H	-0.073151	-0.013169	0.644082
H318	H	0.260182	0.320165	0.977416
Br319	Br	-0.208913	-0.281041	0.207022
Br320	Br	0.124420	0.052292	0.540355
Br321	Br	0.457753	0.385625	0.873689
Br322	Br	-0.169937	-0.328502	0.289787
Br323	Br	0.163397	0.004831	0.623120
Br324	Br	0.496730	0.338165	0.956453
H325	H	-0.230621	-0.978153	0.658806
H326	H	0.102712	-0.644819	0.992139
H327	H	0.436045	-0.311486	1.325473
