data_functionalizedCrystal
_audit_creation_method	'MofGen! by Chris Wilmer'
_symmetry_space_group_name_H-M	'P1'
_symmetry_Int_Tables_number	1
_symmetry_cell_setting	triclinic
loop_
_symmetry_equiv_pos_as_xyz
  x,y,z
_cell_length_a	14.519709
_cell_length_b	14.044209
_cell_length_c	12.996460
_cell_angle_alpha	90.008693
_cell_angle_beta	90.000034
_cell_angle_gamma	91.565951
loop_
_atom_site_label
_atom_site_type_symbol
_atom_site_fract_x
_atom_site_fract_y
_atom_site_fract_z
O1	O	1.233892	-0.124273	-0.085439
O2	O	0.966595	-0.138907	-0.085471
O3	O	1.096232	0.006401	-0.085441
O4	O	1.104254	-0.269582	-0.085469
O5	O	1.096217	0.006409	0.085693
O6	O	0.966580	-0.138899	0.085663
O7	O	1.233876	-0.124265	0.085695
Cu8	Cu	1.100227	-0.131581	0.101305
Cu9	Cu	1.100245	-0.131591	-0.101081
O10	O	1.104239	-0.269574	0.085665
C11	C	0.932173	-0.138221	0.000092
C12	C	0.829626	-0.136178	0.000080
C13	C	1.092712	0.041726	0.000127
C14	C	1.082236	0.146969	0.000131
C15	C	0.454124	-0.128654	0.000128
C16	C	0.558600	-0.130743	0.000114
C17	C	0.641872	-0.132415	0.000103
C18	C	0.746355	-0.134505	0.000091
C19	C	1.063083	0.339664	0.000120
C20	C	1.137392	0.397171	0.000127
C21	C	1.126735	0.504392	0.000121
C22	C	1.073739	0.232432	0.000126
C23	C	1.268299	-0.124951	0.000130
C24	C	1.370845	-0.126995	0.000135
N25	N	1.100220	-0.131574	0.243652
C26	C	1.107761	0.695102	0.000103
C27	C	1.118243	0.589859	0.000117
N28	N	1.100258	-0.131591	-0.243428
C29	C	1.100244	-0.131592	0.663466
C30	C	1.100235	-0.131590	0.546661
C31	C	1.100232	-0.131584	0.453563
C32	C	1.100223	-0.131581	0.336750
H33	H	1.209013	0.365878	0.000066
Br34	Br	0.943716	0.391817	0.000099
