data_functionalizedCrystal
_audit_creation_method	'MofGen! by Chris Wilmer'
_symmetry_space_group_name_H-M	'P1'
_symmetry_Int_Tables_number	1
_symmetry_cell_setting	triclinic
loop_
_symmetry_equiv_pos_as_xyz
  x,y,z
_cell_length_a	10.723023
_cell_length_b	10.723022
_cell_length_c	15.455313
_cell_angle_alpha	87.308294
_cell_angle_beta	92.706222
_cell_angle_gamma	84.467387
loop_
_atom_site_label
_atom_site_type_symbol
_atom_site_fract_x
_atom_site_fract_y
_atom_site_fract_z
O1	O	1.662610	0.169612	0.072120
O2	O	1.299458	0.186366	0.072123
O3	O	1.489412	-0.003587	0.072118
O4	O	1.472657	0.359565	0.072125
O5	O	1.478549	0.007230	-0.072144
O6	O	1.288595	0.197183	-0.072139
O7	O	1.651748	0.180429	-0.072142
Cu8	Cu	1.469180	0.189794	-0.085313
Cu9	Cu	1.482026	0.177001	0.085294
O10	O	1.461794	0.370382	-0.072137
C11	C	1.247527	0.190556	-0.000007
C12	C	1.108973	0.186908	-0.000006
C13	C	1.482761	-0.044678	-0.000012
C14	C	1.479115	-0.183233	-0.000009
C15	C	1.041574	0.190886	-0.074737
C16	C	0.898370	0.187116	-0.074738
C17	C	1.369575	-0.231794	-0.000006
C18	C	1.365803	-0.374997	-0.000003
C19	C	1.703679	0.176239	-0.000010
C20	C	1.842233	0.179886	-0.000005
C21	C	1.468444	0.411473	-0.000005
C22	C	1.472091	0.550027	-0.000003
N23	N	1.460153	0.198791	-0.205308
C24	C	1.540881	0.118122	-0.250704
C25	C	1.534066	0.124938	-0.341512
C26	C	1.446529	0.212429	-0.386922
C27	C	1.365793	0.293101	-0.341519
C28	C	1.372602	0.286279	-0.250713
C29	C	1.417136	0.241844	-0.658502
C30	C	1.410335	0.248663	-0.749315
C31	C	1.578607	0.080497	-0.749301
C32	C	1.585414	0.073688	-0.658494
C33	C	1.504674	0.154355	-0.613099
N34	N	1.439564	0.219400	-0.479742
N35	N	1.511634	0.147377	-0.520281
N36	N	1.491062	0.167994	0.205289
H37	H	0.840429	0.190522	-0.138718
O38	O	1.587785	-0.259919	-0.000046
C39	C	1.690369	-0.186965	-0.000024
H40	H	1.657589	-0.088016	-0.027338
H41	H	1.765597	-0.231262	-0.041906
H42	H	1.730875	-0.182627	0.069186
H43	H	0.900165	0.176494	0.063978
H44	H	1.060659	0.180709	0.063974
H45	H	1.306864	0.351966	-0.213752
O46	O	1.261139	-0.154750	0.000031
C47	C	1.289044	-0.028919	0.000003
H48	H	1.389181	-0.025259	0.027314
H49	H	1.221044	0.026387	0.041885
H50	H	1.279471	0.013866	-0.069208
H51	H	1.272017	-0.416809	0.000004
O52	O	1.583922	-0.399973	0.000111
C53	C	1.598244	-0.331106	0.074836
H54	H	1.502011	-0.301521	0.099746
H55	H	1.647333	-0.244110	0.058031
H56	H	1.656968	-0.391996	0.127153
H57	H	1.612168	0.046883	-0.213738
O58	O	1.338658	0.320338	-0.614548
C59	C	1.259922	0.399002	-0.674104
H60	H	1.306250	0.405739	-0.738823
H61	H	1.243697	0.496519	-0.647862
H62	H	1.166154	0.358360	-0.683783
O63	O	1.612629	0.046535	-0.385475
C64	C	1.691342	-0.032159	-0.325923
H65	H	1.698022	0.014155	-0.261187
H66	H	1.788872	-0.048291	-0.352143
H67	H	1.650782	-0.125971	-0.316285
H68	H	1.656694	0.002446	-0.621523
H69	H	1.644341	0.014820	-0.786270
O70	O	1.280868	0.378055	-0.385762
C71	C	1.292148	0.366763	-0.475645
H72	H	1.390032	0.321960	-0.488037
H73	H	1.276481	0.463736	-0.510146
H74	H	1.219053	0.305464	-0.501433
O75	O	1.099172	0.198053	-0.151091
C76	C	1.077025	0.092935	-0.198972
H77	H	1.053841	0.013137	-0.152992
H78	H	1.164460	0.061641	-0.234565
H79	H	0.994869	0.119024	-0.248075
O80	O	1.325233	0.333485	-0.793527
C81	C	1.243740	0.269880	-0.846060
H82	H	1.291602	0.173706	-0.859656
H83	H	1.219664	0.326575	-0.909917
H84	H	1.154059	0.257927	-0.811088
