data_functionalizedCrystal
_audit_creation_method	'MofGen! by Chris Wilmer'
_symmetry_space_group_name_H-M	'P1'
_symmetry_Int_Tables_number	1
_symmetry_cell_setting	triclinic
loop_
_symmetry_equiv_pos_as_xyz
  x,y,z
_cell_length_a	17.640280
_cell_length_b	10.685972
_cell_length_c	10.685910
_cell_angle_alpha	81.606552
_cell_angle_beta	106.338360
_cell_angle_gamma	97.743455
loop_
_atom_site_label
_atom_site_type_symbol
_atom_site_fract_x
_atom_site_fract_y
_atom_site_fract_z
Zn1	Zn	-0.177455	-2.048729	0.813598
Zn2	Zn	-0.320566	-2.075301	0.558492
Zn3	Zn	-0.199376	-1.826806	0.578500
Zn4	Zn	-0.320546	-1.879353	0.754398
O5	O	-0.254486	-1.957547	0.676247
O6	O	-0.187273	-2.227134	0.796159
O7	O	-0.313672	-2.031467	0.380769
O8	O	-0.085866	-1.823133	0.642834
O9	O	-0.292416	-2.246656	0.608734
O10	O	-0.069761	-1.986179	0.815560
O11	O	-0.224635	-1.848899	0.395469
O12	O	-0.224616	-1.658897	0.585431
O13	O	-0.292383	-1.912692	0.942628
O14	O	-0.313638	-1.697502	0.714663
O15	O	-0.187254	-2.037131	0.986122
O16	O	-0.431165	-2.082419	0.551331
O17	O	-0.431151	-1.938457	0.695263
C18	C	-0.271504	-1.632855	0.645795
C19	C	-0.278802	-1.493958	0.632792
C20	C	-0.459833	-2.019059	0.614733
C21	C	-0.547673	-2.045491	0.588471
C22	C	-0.836710	-1.757287	0.876274
C23	C	-0.919251	-1.782124	0.851556
C24	C	-0.919186	-1.932141	0.701856
C25	C	-0.836643	-1.907321	0.726566
C26	C	-0.795411	-1.819892	0.813776
C27	C	-0.795345	-1.969926	0.664068
C28	C	-0.712810	-1.945103	0.688771
C29	C	-0.671572	-1.857675	0.775974
C30	C	-0.712876	-1.795069	0.838479
C31	C	-0.836579	-2.057348	0.576852
C32	C	-0.795281	-2.119953	0.514354
C33	C	-0.712743	-2.095137	0.539064
C34	C	-0.671506	-2.007709	0.626266
C35	C	-0.671440	-2.157743	0.476558
C36	C	-0.588904	-2.132920	0.501262
C37	C	-0.588971	-1.982886	0.650969
C38	C	-0.048334	-1.895831	0.738033
C39	C	0.039516	-1.869531	0.764362
C40	C	-0.237371	-1.977809	1.012452
C41	C	-0.230078	-1.986443	1.155723
C42	C	-0.237397	-1.283505	0.706814
C43	C	-0.230101	-1.422404	0.719829
C44	C	-0.271552	-1.937359	1.341343
C45	C	-0.278843	-1.928721	1.198073
H46	H	-0.326083	-1.448952	0.548318
H47	H	-0.182819	-1.467403	0.804291
C48	C	-0.668247	-1.700075	0.933180
C49	C	-0.722078	-1.650545	0.982623
C50	C	-0.680995	-1.563033	1.069853
H51	H	-0.630655	-1.741416	1.003600
H52	H	-0.641463	-1.632949	0.888380
H53	H	-0.748848	-1.717660	1.027422
H54	H	-0.759671	-1.609182	0.912234
H55	H	-0.654212	-1.495907	1.025053
H56	H	-0.643405	-1.604383	1.140264
H57	H	-0.717514	-1.529407	1.103401
H58	H	-0.555397	-1.911702	0.721994
C59	C	-0.342082	-1.854219	1.100309
C60	C	-0.417211	-1.906814	1.112054
C61	C	-0.475486	-1.838233	1.022003
H62	H	-0.333923	-1.768080	1.117798
H63	H	-0.338814	-1.858178	1.013757
H64	H	-0.420477	-1.902842	1.198586
H65	H	-0.425395	-1.992945	1.094553
H66	H	-0.472218	-1.842193	0.935450
H67	H	-0.467320	-1.752098	1.039499
H68	H	-0.526468	-1.873916	1.029951
C69	C	-0.963941	-1.714073	0.919606
C70	C	-0.910161	-1.632222	1.001290
C71	C	-0.951299	-1.569527	1.064009
H72	H	-1.001541	-1.666280	0.855638
H73	H	-0.990721	-1.774869	0.970735
H74	H	-0.883394	-1.571434	0.950165
H75	H	-0.872560	-1.679983	1.065282
H76	H	-0.978079	-1.630323	1.115137
H77	H	-0.988897	-1.521742	1.000031
H78	H	-0.914815	-1.513993	1.119447
C79	C	-0.167056	-2.061382	1.253442
C80	C	-0.179438	-2.188243	1.227254
C81	C	-0.121403	-2.257317	1.317266
H82	H	-0.115977	-2.026042	1.245729
H83	H	-0.170380	-2.057539	1.339985
H84	H	-0.176106	-2.192080	1.140733
H85	H	-0.230505	-2.223619	1.234977
H86	H	-0.124727	-2.253474	1.403809
H87	H	-0.070328	-2.221967	1.309546
H88	H	-0.129800	-2.343402	1.299518
H89	H	-0.803136	-1.686103	0.947299
C90	C	-0.581976	-1.830696	0.802524
C91	C	-0.562608	-1.783341	0.684960
C92	C	-0.480080	-1.758489	0.709365
H93	H	-0.563238	-1.769630	0.863345
H94	H	-0.557868	-1.907041	0.837990
H95	H	-0.586707	-1.707005	0.649513
H96	H	-0.581326	-1.844387	0.624123
H97	H	-0.455972	-1.834835	0.744831
H98	H	-0.461350	-1.697426	0.770188
H99	H	-0.466928	-1.726367	0.629601
C100	C	-0.964096	-2.027045	0.607249
C101	C	-1.045216	-2.035399	0.599001
C102	C	-1.086608	-2.122819	0.511867
H103	H	-0.956040	-1.999634	0.522894
H104	H	-0.945210	-2.108105	0.638109
H105	H	-1.064095	-1.954356	0.568135
H106	H	-1.053295	-2.062826	0.683332
H107	H	-1.067722	-2.203879	0.542727
H108	H	-1.078545	-2.095399	0.427520
H109	H	-1.141650	-2.128507	0.506269
C110	C	-0.840190	-2.214857	0.419746
C111	C	-0.921310	-2.223211	0.411499
C112	C	-0.962702	-2.310631	0.324365
H113	H	-0.832134	-2.187446	0.335392
H114	H	-0.821304	-2.295917	0.450606
H115	H	-0.940190	-2.142168	0.380633
H116	H	-0.929390	-2.250638	0.495830
H117	H	-0.943816	-2.391691	0.355225
H118	H	-0.954640	-2.283211	0.240017
H119	H	-1.017745	-2.316319	0.318767
H120	H	-0.903784	-2.077559	0.556745
C121	C	-0.716101	-2.252828	0.381993
C122	C	-0.688040	-2.372095	0.427762
C123	C	-0.729156	-2.459712	0.340672
H124	H	-0.771178	-2.258803	0.376161
H125	H	-0.707936	-2.225391	0.297698
H126	H	-0.696211	-2.399526	0.512035
H127	H	-0.632969	-2.366161	0.433588
H128	H	-0.720992	-2.432275	0.256376
H129	H	-0.784232	-2.465676	0.334846
H130	H	-0.710118	-2.540641	0.371707
H131	H	-0.555279	-2.183898	0.450367
