data_functionalizedCrystal
_audit_creation_method	'MofGen! by Chris Wilmer'
_symmetry_space_group_name_H-M	'P1'
_symmetry_Int_Tables_number	1
_symmetry_cell_setting	triclinic
loop_
_symmetry_equiv_pos_as_xyz
  x,y,z
_cell_length_a	16.120484
_cell_length_b	11.169417
_cell_length_c	11.169417
_cell_angle_alpha	89.997279
_cell_angle_beta	87.115538
_cell_angle_gamma	87.075575
loop_
_atom_site_label
_atom_site_type_symbol
_atom_site_fract_x
_atom_site_fract_y
_atom_site_fract_z
Zn1	Zn	-0.332072	-1.810365	0.702782
Zn2	Zn	0.167928	-1.310365	1.202782
Zn3	Zn	-0.471457	-1.800090	0.512248
Zn4	Zn	0.028543	-1.300090	1.012248
Zn5	Zn	-0.332057	-1.609718	0.502109
Zn6	Zn	0.167943	-1.109718	1.002109
Zn7	Zn	-0.471445	-1.599428	0.712886
Zn8	Zn	0.028555	-1.099428	1.212886
O9	O	-0.401758	-1.704900	0.607506
O10	O	0.098242	-1.204900	1.107506
O11	O	-0.350572	-1.976950	0.677522
O12	O	0.149428	-1.476950	1.177522
O13	O	-0.452965	-1.774843	0.342954
O14	O	0.047035	-1.274843	0.842954
O15	O	-0.215392	-1.644940	0.520257
O16	O	0.284608	-1.144940	1.020257
O17	O	-0.452978	-1.969402	0.537538
O18	O	0.047022	-1.469402	1.037538
O19	O	-0.215402	-1.792355	0.667690
O20	O	0.284598	-1.292355	1.167690
O21	O	-0.350548	-1.634977	0.335504
O22	O	0.149452	-1.134977	0.835504
O23	O	-0.350536	-1.440404	0.530054
O24	O	0.149464	-0.940404	1.030054
O25	O	-0.452957	-1.627403	0.879495
O26	O	0.047043	-1.127403	1.379495
O27	O	-0.452944	-1.432844	0.684911
O28	O	0.047056	-0.932844	1.184911
O29	O	-0.350560	-1.782377	0.872072
O30	O	0.149440	-1.282377	1.372072
O31	O	-0.588123	-1.764865	0.547335
O32	O	-0.088123	-1.264865	1.047335
O33	O	-0.588114	-1.617440	0.694743
O34	O	-0.088114	-1.117440	1.194743
C35	C	-0.401738	-1.393077	0.607479
C36	C	0.098262	-0.893077	1.107479
C37	C	-0.401749	-1.259676	0.607498
C38	C	0.098251	-0.759676	1.107498
C39	C	-0.618369	-1.688954	0.623262
C40	C	-0.118369	-1.188954	1.123262
C41	C	-0.711036	-1.682242	0.630042
C42	C	-0.211036	-1.182242	1.130042
C43	C	-0.880700	-1.669994	0.642446
C44	C	-0.380700	-1.169994	1.142446
C45	C	-0.921975	-1.740021	0.572586
C46	C	-0.421975	-1.240021	1.072586
C47	C	-1.016382	-1.733206	0.579487
C48	C	-0.516382	-1.233206	1.079487
C49	C	-0.786285	-1.676807	0.635546
C50	C	-0.286285	-1.176807	1.135546
C51	C	-0.184301	-1.720941	0.591715
C52	C	0.315699	-1.220941	1.091715
C53	C	-0.091634	-1.727777	0.584986
C54	C	0.408366	-1.227777	1.084986
C55	C	-0.401759	-1.704889	0.920549
C56	C	0.098241	-1.204889	1.420549
C57	C	-0.401760	-1.704884	1.053949
C58	C	0.098240	-1.204884	1.553949
C59	C	-0.401771	-1.017941	0.607524
C60	C	0.098229	-0.517941	1.107524
C61	C	-0.401759	-1.151342	0.607506
C62	C	0.098241	-0.651342	1.107506
C63	C	-0.401772	-1.704896	1.295682
C64	C	0.098228	-1.204896	1.795682
C65	C	-0.401761	-1.704887	1.162282
C66	C	0.098239	-1.204887	1.662282
H67	H	-0.886409	-1.805090	0.507592
H68	H	-0.386409	-1.305090	1.007592
F69	F	-0.927183	-1.584947	0.727390
F70	F	-0.427183	-1.084947	1.227390
