data_functionalizedCrystal
_audit_creation_method	'MofGen! by Chris Wilmer'
_symmetry_space_group_name_H-M	'P1'
_symmetry_Int_Tables_number	1
_symmetry_cell_setting	triclinic
loop_
_symmetry_equiv_pos_as_xyz
  x,y,z
_cell_length_a	12.827893
_cell_length_b	12.759394
_cell_length_c	12.827885
_cell_angle_alpha	90.029261
_cell_angle_beta	90.019272
_cell_angle_gamma	90.014802
loop_
_atom_site_label
_atom_site_type_symbol
_atom_site_fract_x
_atom_site_fract_y
_atom_site_fract_z
Zn1	Zn	1.597675	-0.418211	0.590852
Zn2	Zn	1.597571	-0.593927	0.416114
Zn3	Zn	1.422916	-0.418263	0.416126
Zn4	Zn	1.422904	-0.593849	0.590814
O5	O	1.510267	-0.506062	0.503477
O6	O	1.743897	-0.441531	0.567684
O7	O	1.574365	-0.570679	0.269880
O8	O	1.446147	-0.271235	0.439325
O9	O	1.743821	-0.570629	0.439305
O10	O	1.574542	-0.271197	0.567696
O11	O	1.446047	-0.441619	0.269888
O12	O	1.276679	-0.441544	0.439288
O13	O	1.446126	-0.570496	0.737056
O14	O	1.276670	-0.570546	0.567631
O15	O	1.574529	-0.441456	0.737084
O16	O	1.574353	-0.740938	0.439268
O17	O	1.446025	-0.740881	0.567619
C18	C	1.238757	-0.506043	0.503457
C19	C	1.122604	-0.506060	0.503473
C20	C	1.070856	-0.442292	0.567098
C21	C	0.950806	-0.442308	0.567117
C22	C	1.510205	-0.779030	0.503461
C23	C	1.510274	-0.895807	0.503489
C24	C	1.644123	-1.115236	0.369980
C25	C	1.710962	-1.060367	0.303197
C26	C	1.710907	-0.950646	0.303176
C27	C	1.644005	-0.895790	0.369944
C28	C	1.577167	-0.950659	0.436727
C29	C	1.577231	-1.060383	0.436742
C30	C	1.443436	-0.950675	0.570272
C31	C	1.443494	-1.060397	0.570300
C32	C	1.376533	-0.895820	0.637039
C33	C	1.309699	-0.950689	0.703829
C34	C	1.309757	-1.060417	0.703848
C35	C	1.376655	-1.115266	0.637083
C36	C	1.782837	-0.506083	0.503497
C37	C	1.898990	-0.506091	0.503506
C38	C	1.510338	-0.505962	0.776047
C39	C	1.510368	-0.505919	0.892200
C40	C	1.510357	-0.232029	0.503516
C41	C	1.510396	-0.115252	0.503532
C42	C	1.510256	-0.506087	0.231967
C43	C	1.510428	-0.505834	0.115814
C44	C	1.573913	-0.442053	0.943999
C45	C	1.573946	-0.442007	1.064049
H46	H	1.765430	-1.105042	0.248834
H47	H	1.455982	-0.560556	0.936730
O48	O	1.244795	-1.113551	0.768822
C49	C	1.112095	-1.101974	0.901236
C50	C	1.185628	-1.041675	0.827722
H51	H	1.064223	-1.043888	0.948860
H52	H	1.160019	-1.153235	0.956003
H53	H	1.057551	-1.153451	0.853205
H54	H	1.240187	-0.990141	0.875668
H55	H	1.137638	-0.990480	0.772952
H56	H	1.376713	-1.204607	0.637096
O57	O	1.244814	-0.897242	0.768645
C58	C	1.185407	-0.728211	0.827743
C59	C	1.258958	-0.788613	0.754301
H60	H	1.196801	-0.640374	0.816155
H61	H	1.203730	-0.749623	0.912051
H62	H	1.101176	-0.749931	0.809339
H63	H	1.343214	-0.766925	0.772611
H64	H	1.240546	-0.767196	0.670015
H65	H	1.456026	-0.560519	1.071276
H66	H	1.628288	-0.387405	0.899469
H67	H	1.115430	-0.387682	0.621553
O68	O	1.638751	-0.376804	1.117344
C69	C	1.697944	-0.317380	1.285593
C70	C	1.624482	-0.391262	1.225365
H71	H	1.686449	-0.329059	1.372938
H72	H	1.679628	-0.232629	1.264282
H73	H	1.782206	-0.335808	1.264135
H74	H	1.540196	-0.372929	1.246790
H75	H	1.642888	-0.475991	1.246681
H76	H	0.943485	-0.560694	0.449037
O77	O	0.897610	-0.377320	0.632157
C78	C	0.774374	-0.363489	0.773222
C79	C	0.834536	-0.437206	0.699610
H80	H	0.723381	-0.411878	0.827790
H81	H	0.723184	-0.308567	0.725356
H82	H	0.832085	-0.315439	0.821063
H83	H	0.776900	-0.485324	0.651752
H84	H	0.885742	-0.492059	0.747535
O85	O	1.069391	-0.571322	0.438651
C86	C	0.945960	-0.713013	0.424485
C87	C	1.006172	-0.639184	0.498016
H88	H	0.894816	-0.767883	0.472451
H89	H	1.003546	-0.761102	0.376596
H90	H	0.894886	-0.664653	0.369956
H91	H	1.057248	-0.687464	0.552609
H92	H	0.948530	-0.591092	0.545831
H93	H	1.644184	-1.204577	0.370000
O94	O	1.775928	-0.897503	0.238269
C95	C	1.908529	-0.909054	0.105753
C96	C	1.834967	-0.969367	0.179226
H97	H	1.956266	-0.967129	0.057982
H98	H	1.963189	-0.857636	0.153718
H99	H	1.860529	-0.857731	0.051112
H100	H	1.882884	-1.020747	0.233881
H101	H	1.780305	-1.020719	0.131195
H102	H	1.643958	-0.806449	0.369912
H103	H	1.376490	-0.806479	0.637014
