data_functionalizedCrystal
_audit_creation_method	'MofGen! by Chris Wilmer'
_symmetry_space_group_name_H-M	'P1'
_symmetry_Int_Tables_number	1
_symmetry_cell_setting	triclinic
loop_
_symmetry_equiv_pos_as_xyz
  x,y,z
_cell_length_a	16.109301
_cell_length_b	27.732048
_cell_length_c	15.186229
_cell_angle_alpha	89.991324
_cell_angle_beta	89.999362
_cell_angle_gamma	83.052068
loop_
_atom_site_label
_atom_site_type_symbol
_atom_site_fract_x
_atom_site_fract_y
_atom_site_fract_z
O1	O	1.102361	0.062130	-0.073183
O2	O	0.860204	0.069862	-0.073198
O3	O	0.988803	-0.004369	-0.073173
O4	O	0.973762	0.136361	-0.073208
O5	O	0.988795	-0.004370	0.073284
O6	O	0.860195	0.069861	0.073259
O7	O	1.102353	0.062129	0.073275
Zn8	Zn	0.981273	0.065995	0.096520
Zn9	Zn	0.981284	0.065996	-0.096444
O10	O	0.973753	0.136360	0.073250
C11	C	0.829228	0.069548	0.000029
C12	C	0.736945	0.068609	0.000024
C13	C	0.514154	0.110473	0.000024
C14	C	0.427445	0.109587	0.000030
C15	C	0.448409	0.021514	0.000048
C16	C	0.535117	0.022401	0.000048
C17	C	0.567987	0.066882	0.000032
C18	C	0.394570	0.065109	0.000037
C19	C	0.300556	0.064148	0.000044
C20	C	0.662007	0.067843	0.000027
C21	C	0.988483	-0.022378	0.000058
C22	C	0.987533	-0.076037	0.000065
C23	C	1.057541	-0.414559	0.000024
C24	C	1.054013	-0.616233	0.000012
O25	O	1.118031	-0.647221	-0.000023
N26	N	0.977759	-0.635676	0.000008
C27	C	0.902381	-0.604697	0.000001
O28	O	0.837441	-0.625862	-0.000011
C29	C	0.905910	-0.403024	0.000008
C30	C	0.982169	-0.383584	0.000020
C31	C	1.133794	-0.395119	0.000036
C32	C	1.134675	-0.344703	0.000044
C33	C	1.059303	-0.313728	0.000040
C34	C	0.983050	-0.333168	0.000028
C35	C	0.830533	-0.372045	-0.000005
C36	C	0.831422	-0.321624	-0.000006
C37	C	0.907681	-0.302184	0.000007
C38	C	0.908559	-0.251777	0.000032
N39	N	0.984814	-0.232334	0.000036
C40	C	1.060186	-0.263310	0.000040
C41	C	0.900534	-0.710579	-0.000000
C42	C	0.899652	-0.760997	-0.000000
C43	C	1.051284	-0.772530	0.000009
C44	C	1.052166	-0.722111	0.000015
C45	C	0.976789	-0.691136	0.000004
C46	C	1.062030	-0.157433	0.000058
C47	C	1.062905	-0.107012	0.000069
C48	C	0.911273	-0.095484	0.000056
C49	C	0.910398	-0.145900	0.000049
C50	C	0.985783	-0.176874	0.000047
O51	O	0.844576	-0.220761	0.000057
O52	O	1.125116	-0.242135	0.000033
C53	C	1.056660	-0.464975	0.000016
C54	C	0.980407	-0.484415	0.000005
C55	C	0.905035	-0.453440	0.000001
C56	C	0.979525	-0.534833	0.000005
C57	C	1.054897	-0.565808	0.000009
C58	C	1.131151	-0.546365	0.000013
C59	C	1.132032	-0.495950	0.000020
C60	C	0.828781	-0.472883	-0.000003
C61	C	0.827906	-0.523299	-0.000010
C62	C	0.903278	-0.554274	-0.000006
C63	C	1.133328	0.062443	0.000046
C64	C	1.225612	0.063382	0.000045
C65	C	0.974073	0.154369	0.000017
C66	C	0.975024	0.208028	0.000004
N67	N	0.981271	0.065994	0.228213
N68	N	0.981292	0.065994	-0.228136
C69	C	1.038234	0.033135	0.453947
C70	C	1.038237	0.033134	0.546136
C71	C	0.924323	0.098854	0.546124
C72	C	0.924317	0.098852	0.453936
C73	C	0.981277	0.065993	0.407850
C74	C	0.981286	0.065994	0.592227
C75	C	0.981288	0.065993	0.692183
C76	C	0.981274	0.065994	0.307887
H77	H	0.540913	0.146692	0.000017
O78	O	0.869021	0.130728	0.409014
C79	C	0.881245	0.123687	0.317765
H80	H	0.912809	0.085261	0.305189
H81	H	0.922593	0.151051	0.291592
C82	C	0.757339	0.178135	0.285881
C83	C	0.796100	0.130938	0.270434
H84	H	0.704819	0.182609	0.256683
H85	H	0.749105	0.182880	0.347357
H86	H	0.791804	0.200933	0.264070
H87	H	0.761641	0.108141	0.292255
H88	H	0.804327	0.126189	0.208960
H89	H	0.770039	-0.296407	-0.000017
H90	H	0.383617	0.145084	0.000025
O91	O	0.587382	-0.019960	-0.000102
C92	C	0.572562	-0.046970	-0.075937
H93	H	0.542592	-0.021448	-0.128959
H94	H	0.528770	-0.074944	-0.058784
C95	C	0.692822	-0.104510	-0.045201
C96	C	0.656019	-0.073162	-0.110326
H97	H	0.744301	-0.120668	-0.066412
H98	H	0.702805	-0.086314	0.005893
H99	H	0.656320	-0.127817	-0.030912
H100	H	0.692516	-0.049852	-0.124606
H101	H	0.646044	-0.091355	-0.161423
O102	O	1.093427	0.001175	0.409101
C103	C	1.049253	-0.028659	0.355835
H104	H	0.983967	-0.009399	0.342002
H105	H	1.044024	-0.064368	0.391412
C106	C	1.176438	-0.062682	0.285266
C107	C	1.096256	-0.039025	0.268270
H108	H	1.205433	-0.069079	0.231254
H109	H	1.206201	-0.042584	0.321155
H110	H	1.172070	-0.092438	0.314916
H111	H	1.100626	-0.009268	0.238632
H112	H	1.066495	-0.059119	0.232375
O113	O	0.416339	-0.021650	0.000017
C114	C	0.328264	-0.013086	0.000035
H115	H	0.307414	0.024638	-0.027699
H116	H	0.304153	-0.015428	0.070298
C117	C	0.318402	-0.097863	-0.023332
C118	C	0.292793	-0.051531	-0.057402
H119	H	0.296520	-0.121578	-0.058758
H120	H	0.377739	-0.103633	-0.023340
H121	H	0.298307	-0.099807	0.035220
H122	H	0.312896	-0.049585	-0.115948
H123	H	0.233458	-0.045761	-0.057405
H124	H	1.125007	-0.091187	0.000082
H125	H	1.123416	-0.182646	0.000053
H126	H	0.877948	0.125607	0.583656
H127	H	1.195175	-0.420334	0.000036
O128	O	1.208828	-0.325903	0.000010
C129	C	1.275154	-0.364062	0.000033
H130	H	1.252289	-0.398305	-0.027696
H131	H	1.298369	-0.371206	0.070297
C132	C	1.375217	-0.307778	-0.023343
C133	C	1.347135	-0.349836	-0.057407
H134	H	1.419621	-0.299003	-0.058771
H135	H	1.330533	-0.282070	-0.023355
H136	H	1.394557	-0.313737	0.035209
H137	H	1.327787	-0.343875	-0.115954
H138	H	1.391819	-0.375543	-0.057406
O139	O	1.093453	0.001168	0.590954
C140	C	1.049319	-0.028653	0.644307
H141	H	0.983765	-0.029481	0.616530
H142	H	1.044770	-0.013527	0.714171
C143	C	1.176325	-0.079527	0.679848
C144	C	1.095811	-0.080547	0.645728
H145	H	1.205004	-0.111537	0.680730
H146	H	1.206059	-0.059434	0.643907
H147	H	1.172523	-0.066919	0.738065
H148	H	1.099615	-0.093149	0.587509
H149	H	1.066078	-0.100643	0.681661
H150	H	1.114263	-0.706287	0.000025
H151	H	1.112655	-0.797759	0.000012
O152	O	0.825626	-0.779935	-0.000122
C153	C	0.820571	-0.808736	-0.075987
H154	H	0.886264	-0.821299	-0.101268
H155	H	0.783507	-0.786451	-0.129104
C156	C	0.695688	-0.837897	-0.021904
C157	C	0.776375	-0.853332	-0.052950
H158	H	0.668423	-0.865405	-0.007696
H159	H	0.699092	-0.818493	0.029207
H160	H	0.664812	-0.819327	-0.066173
H161	H	0.807252	-0.871897	-0.008676
H162	H	0.772976	-0.872741	-0.104052
H163	H	0.839149	-0.685363	-0.000009
H164	H	0.768435	-0.387864	-0.000021
O165	O	0.836375	-0.164845	-0.000073
C166	C	0.831325	-0.193642	-0.075945
H167	H	0.897020	-0.206197	-0.101230
H168	H	0.794255	-0.171356	-0.129057
C169	C	0.706455	-0.222819	-0.021867
C170	C	0.787143	-0.238244	-0.052919
H171	H	0.679198	-0.250331	-0.007666
H172	H	0.709855	-0.203418	0.029248
H173	H	0.675573	-0.204247	-0.066132
H174	H	0.818026	-0.256810	-0.008651
H175	H	0.783748	-0.257650	-0.104026
H176	H	0.849907	-0.070255	0.000055
O177	O	1.206184	-0.477150	-0.000012
C178	C	1.272511	-0.515309	0.000011
H179	H	1.249646	-0.549552	-0.027719
H180	H	1.295724	-0.522453	0.070275
C181	C	1.372574	-0.459025	-0.023362
C182	C	1.344493	-0.501082	-0.057427
H183	H	1.416978	-0.450250	-0.058789
H184	H	1.327890	-0.433317	-0.023374
H185	H	1.391913	-0.464984	0.035191
H186	H	1.325145	-0.495121	-0.115974
H187	H	1.389176	-0.526790	-0.057426
O188	O	1.204346	-0.576480	-0.000142
C189	C	1.208355	-0.605987	-0.075987
H190	H	1.165602	-0.587509	-0.129000
H191	H	1.187307	-0.642648	-0.058844
C192	C	1.351428	-0.636351	-0.045270
C193	C	1.298923	-0.613654	-0.110384
H194	H	1.407295	-0.641083	-0.066486
H195	H	1.348727	-0.616473	0.005831
H196	H	1.333878	-0.666899	-0.030990
H197	H	1.316467	-0.583104	-0.124655
H198	H	1.301629	-0.633527	-0.161488
H199	H	0.765802	-0.539121	-0.000013
O200	O	0.755484	-0.442866	0.000037
C201	C	0.688000	-0.470844	0.000009
H202	H	0.709609	-0.508478	0.027728
H203	H	0.664594	-0.474424	-0.070254
C204	C	0.590172	-0.399511	0.023408
C205	C	0.616710	-0.445732	0.057459
H206	H	0.546195	-0.384020	0.058841
H207	H	0.635636	-0.380661	0.023423
H208	H	0.570672	-0.402501	-0.035145
H209	H	0.636218	-0.442742	0.116005
H210	H	0.571247	-0.464581	0.057454
