data_functionalizedCrystal
_audit_creation_method	'MofGen! by Chris Wilmer'
_symmetry_space_group_name_H-M	'P1'
_symmetry_Int_Tables_number	1
_symmetry_cell_setting	triclinic
loop_
_symmetry_equiv_pos_as_xyz
  x,y,z
_cell_length_a	16.959455
_cell_length_b	16.959453
_cell_length_c	18.215399
_cell_angle_alpha	89.971976
_cell_angle_beta	89.981437
_cell_angle_gamma	90.016935
loop_
_atom_site_label
_atom_site_type_symbol
_atom_site_fract_x
_atom_site_fract_y
_atom_site_fract_z
Zn1	Zn	1.208417	-0.314754	-0.416091
Zn2	Zn	1.541751	0.018579	-0.082757
Zn3	Zn	1.875084	0.351913	0.250576
Zn4	Zn	1.208330	-0.446939	-0.293024
Zn5	Zn	1.541664	-0.113606	0.040309
Zn6	Zn	1.874997	0.219727	0.373643
Zn7	Zn	1.076236	-0.314772	-0.293041
Zn8	Zn	1.409569	0.018562	0.040293
Zn9	Zn	1.742903	0.351895	0.373626
Zn10	Zn	1.076211	-0.446887	-0.416052
Zn11	Zn	1.409544	-0.113554	-0.082718
Zn12	Zn	1.742877	0.219779	0.250615
O13	O	1.142299	-0.380838	-0.354552
O14	O	1.475632	-0.047505	-0.021218
O15	O	1.808965	0.285828	0.312115
O16	O	1.319017	-0.332303	-0.399775
O17	O	1.652350	0.001030	-0.066441
O18	O	1.985683	0.334364	0.266892
O19	O	1.190782	-0.429436	-0.190042
O20	O	1.524115	-0.096103	0.143291
O21	O	1.857448	0.237230	0.476625
O22	O	1.093817	-0.204159	-0.309387
O23	O	1.427151	0.129175	0.023947
O24	O	1.760484	0.462508	0.357280
O25	O	1.318953	-0.429419	-0.309358
O26	O	1.652286	-0.096086	0.023975
O27	O	1.985619	0.237248	0.357308
O28	O	1.190930	-0.204146	-0.399791
O29	O	1.524264	0.129188	-0.066458
O30	O	1.857597	0.462521	0.266876
O31	O	1.093733	-0.332333	-0.190054
O32	O	1.427066	0.001000	0.143279
O33	O	1.760399	0.334333	0.476613
O34	O	0.965622	-0.332283	-0.309349
O35	O	1.298955	0.001050	0.023984
O36	O	1.632288	0.334384	0.357318
O37	O	1.093774	-0.429330	-0.519041
O38	O	1.427107	-0.095997	-0.185708
O39	O	1.760441	0.237336	0.147625
O40	O	0.965603	-0.429348	-0.399725
O41	O	1.298936	-0.096014	-0.066391
O42	O	1.632270	0.237319	0.266942
O43	O	1.190906	-0.332253	-0.519070
O44	O	1.524239	0.001081	-0.185736
O45	O	1.857572	0.334414	0.147597
O46	O	1.190757	-0.557543	-0.309321
O47	O	1.524091	-0.224210	0.024013
O48	O	1.857424	0.109123	0.357346
O49	O	1.093690	-0.557505	-0.399709
O50	O	1.427023	-0.224172	-0.066375
O51	O	1.760356	0.109161	0.266958
C52	C	0.936932	-0.380812	-0.354535
C53	C	1.270266	-0.047479	-0.021202
C54	C	1.603599	0.285855	0.312132
C55	C	0.849076	-0.380820	-0.354545
C56	C	1.182409	-0.047487	-0.021212
C57	C	1.515742	0.285847	0.312122
C58	C	0.477585	-0.330255	-0.307591
C59	C	0.810919	0.003078	0.025742
C60	C	1.144252	0.336411	0.359075
C61	C	0.477615	-0.431486	-0.401554
C62	C	0.810948	-0.098153	-0.068221
C63	C	1.144281	0.235180	0.265113
C64	C	0.560161	-0.431475	-0.401550
C65	C	0.893494	-0.098142	-0.068216
C66	C	1.226827	0.235192	0.265117
C67	C	0.601423	-0.380854	-0.354565
C68	C	0.934756	-0.047520	-0.021231
C69	C	1.268089	0.285813	0.312102
C70	C	0.560139	-0.330244	-0.307584
C71	C	0.893472	0.003089	0.025749
C72	C	1.226806	0.336423	0.359083
C73	C	0.601451	-0.482089	-0.448524
C74	C	0.934784	-0.148756	-0.115191
C75	C	1.268117	0.184577	0.218142
C76	C	0.684002	-0.482081	-0.448521
C77	C	1.017335	-0.148747	-0.115188
C78	C	1.350668	0.184586	0.218146
C79	C	0.725265	-0.431455	-0.401539
C80	C	1.058599	-0.098122	-0.068206
C81	C	1.391932	0.235212	0.265128
C82	C	0.683976	-0.380843	-0.354557
C83	C	1.017310	-0.047509	-0.021224
C84	C	1.350643	0.285824	0.312110
C85	C	0.725238	-0.330221	-0.307572
C86	C	1.058572	0.003112	0.025761
C87	C	1.391905	0.336445	0.359095
C88	C	0.683951	-0.279604	-0.260593
C89	C	1.017284	0.053729	0.072740
C90	C	1.350618	0.387062	0.406074
C91	C	0.601402	-0.279618	-0.260602
C92	C	0.934736	0.053715	0.072731
C93	C	1.268069	0.387048	0.406065
C94	C	0.807814	-0.431441	-0.401530
C95	C	1.141147	-0.098108	-0.068197
C96	C	1.474480	0.235226	0.265136
C97	C	0.807792	-0.330210	-0.307564
C98	C	1.141125	0.003123	0.025769
C99	C	1.474459	0.336456	0.359102
C100	C	1.142233	-0.586204	-0.354525
C101	C	1.475566	-0.252871	-0.021191
C102	C	1.808899	0.080462	0.312142
C103	C	1.142277	-0.674061	-0.354538
C104	C	1.475610	-0.340728	-0.021205
C105	C	1.808943	-0.007394	0.312129
C106	C	1.192930	-1.045471	-0.401714
C107	C	1.526263	-0.712138	-0.068381
C108	C	1.859597	-0.378805	0.264953
C109	C	1.091888	-1.045602	-0.307499
C110	C	1.425221	-0.712269	0.025835
C111	C	1.758554	-0.378935	0.359168
C112	C	1.091858	-0.963056	-0.307482
C113	C	1.425192	-0.629723	0.025852
C114	C	1.758525	-0.296389	0.359185
C115	C	1.142365	-0.921714	-0.354583
C116	C	1.475698	-0.588381	-0.021249
C117	C	1.809032	-0.255047	0.312084
C118	C	1.192901	-0.962918	-0.401700
C119	C	1.526234	-0.629584	-0.068367
C120	C	1.859567	-0.296251	0.264967
C121	C	1.041318	-0.921846	-0.260370
C122	C	1.374651	-0.588513	0.072963
C123	C	1.707985	-0.255179	0.406296
C124	C	1.041286	-0.839295	-0.260352
C125	C	1.374619	-0.505962	0.072981
C126	C	1.707953	-0.172628	0.406315
C127	C	1.091797	-0.797952	-0.307450
C128	C	1.425130	-0.464618	0.025884
C129	C	1.758464	-0.131285	0.359217
C130	C	1.142335	-0.839160	-0.354569
C131	C	1.475669	-0.505827	-0.021235
C132	C	1.809002	-0.172494	0.312098
C133	C	1.192842	-0.797818	-0.401669
C134	C	1.526175	-0.464485	-0.068336
C135	C	1.859509	-0.131152	0.264997
C136	C	1.243385	-0.839026	-0.448785
C137	C	1.576718	-0.505692	-0.115452
C138	C	1.910052	-0.172359	0.217881
C139	C	1.243412	-0.921574	-0.448798
C140	C	1.576745	-0.588241	-0.115464
C141	C	1.910078	-0.254908	0.217869
C142	C	1.091770	-0.715403	-0.307437
C143	C	1.425104	-0.382070	0.025896
C144	C	1.758437	-0.048736	0.359230
C145	C	1.192812	-0.715265	-0.401655
C146	C	1.526146	-0.381932	-0.068322
C147	C	1.859479	-0.048598	0.265011
C148	C	1.348467	-0.380865	-0.354569
C149	C	1.681800	-0.047532	-0.021236
C150	C	2.015133	0.285802	0.312098
C151	C	1.436323	-0.380876	-0.354577
C152	C	1.769657	-0.047543	-0.021243
C153	C	2.102990	0.285790	0.312090
C154	C	1.142347	-0.380784	-0.546505
C155	C	1.475680	-0.047450	-0.213171
C156	C	1.809013	0.285883	0.120162
C157	C	1.142367	-0.380760	-0.628304
C158	C	1.475701	-0.047427	-0.294970
C159	C	1.809034	0.285906	0.038363
C160	C	1.142386	-0.174670	-0.354595
C161	C	1.475720	0.158663	-0.021262
C162	C	1.809053	0.491997	0.312072
C163	C	1.142424	-0.086813	-0.354613
C164	C	1.475757	0.246520	-0.021280
C165	C	1.809090	0.579853	0.312053
C166	C	1.192962	-0.330165	-0.816514
C167	C	1.526295	0.003169	-0.483180
C168	C	1.859629	0.336502	-0.149847
C169	C	1.192971	-0.330142	-0.893373
C170	C	1.526305	0.003192	-0.560039
C171	C	1.859638	0.336525	-0.226706
C172	C	1.091828	-0.431234	-0.893332
C173	C	1.425162	-0.097901	-0.559998
C174	C	1.758495	0.235433	-0.226665
C175	C	1.091816	-0.431252	-0.816474
C176	C	1.425149	-0.097919	-0.483141
C177	C	1.758482	0.235414	-0.149808
C178	C	1.142387	-0.380719	-0.778067
C179	C	1.475720	-0.047386	-0.444734
C180	C	1.809053	0.285948	-0.111401
C181	C	1.142409	-0.380677	-0.931783
C182	C	1.475742	-0.047344	-0.598450
C183	C	1.809076	0.285989	-0.265117
C184	C	1.142419	-0.380653	-1.015117
C185	C	1.475752	-0.047320	-0.681784
C186	C	1.809086	0.286014	-0.348450
C187	C	1.142376	-0.380742	-0.694728
C188	C	1.475709	-0.047409	-0.361395
C189	C	1.809043	0.285924	-0.028062
C190	C	1.142296	-0.380835	-0.163345
C191	C	1.475629	-0.047502	0.169988
C192	C	1.808963	0.285831	0.503321
C193	C	1.142429	-0.380636	-0.081547
C194	C	1.475762	-0.047303	0.251786
C195	C	1.809095	0.286031	0.585120
H196	H	0.717557	-0.238392	-0.222335
H197	H	1.050891	0.094941	0.110999
H198	H	1.384224	0.428275	0.444332
H199	H	0.567779	-0.238409	-0.222353
H200	H	0.901112	0.094924	0.110980
H201	H	1.234446	0.428257	0.444313
O202	O	1.037239	-0.485766	-0.775010
O203	O	1.370573	-0.152433	-0.441676
O204	O	1.703906	0.180901	-0.108343
H205	H	1.050758	-0.547807	-0.789736
H206	H	1.384091	-0.214473	-0.456402
H207	H	1.717425	0.118860	-0.123069
H208	H	1.233944	-0.681609	-0.440008
H209	H	1.567277	-0.348276	-0.106675
H210	H	1.900611	-0.014942	0.226659
O211	O	0.852296	-0.275620	-0.256878
O212	O	1.185630	0.057713	0.076455
O213	O	1.518963	0.391046	0.409789
H214	H	0.809717	-0.240436	-0.224209
H215	H	1.143050	0.092897	0.109124
H216	H	1.476383	0.426231	0.442458
O217	O	0.986841	-0.966427	-0.209571
O218	O	1.320175	-0.633094	0.123762
O219	O	1.653508	-0.299761	0.457096
H220	H	1.000424	-0.950604	-0.151823
H221	H	1.333757	-0.617271	0.181511
H222	H	1.667090	-0.283937	0.514844
O223	O	0.556939	-0.536677	-0.499199
O224	O	0.890272	-0.203343	-0.165865
O225	O	1.223606	0.129990	0.167468
H226	H	0.519364	-0.501340	-0.536700
H227	H	0.852697	-0.168007	-0.203367
H228	H	1.186031	0.165327	0.129967
O229	O	0.986789	-0.794851	-0.209526
O230	O	1.320122	-0.461517	0.123807
O231	O	1.653456	-0.128184	0.457141
H232	H	0.951681	-0.837468	-0.176771
H233	H	1.285014	-0.504134	0.156562
H234	H	1.618348	-0.170801	0.489895
O235	O	1.297862	-0.794434	-0.499585
O236	O	1.631196	-0.461101	-0.166251
O237	O	1.964529	-0.127767	0.167082
H238	H	1.289349	-0.730111	-0.491654
H239	H	1.622682	-0.396778	-0.158320
H240	H	1.956015	-0.063444	0.175013
O241	O	0.433063	-0.275681	-0.256904
O242	O	0.766396	0.057652	0.076430
O243	O	1.099730	0.390985	0.409763
H244	H	0.368729	-0.284199	-0.264791
H245	H	0.702062	0.049135	0.068543
H246	H	1.035395	0.382468	0.401876
H247	H	0.841426	-0.472655	-0.439777
H248	H	1.174759	-0.139322	-0.106444
H249	H	1.508093	0.194011	0.226889
H250	H	1.050615	-0.681856	-0.269080
H251	H	1.383949	-0.348523	0.064254
H252	H	1.717282	-0.015189	0.397587
O253	O	0.433117	-0.486082	-0.452231
O254	O	0.766450	-0.152749	-0.118898
O255	O	1.099784	0.180585	0.214435
H256	H	0.368779	-0.477584	-0.444347
H257	H	0.702113	-0.144251	-0.111013
H258	H	1.035446	0.189083	0.222320
H259	H	0.717611	-0.523296	-0.486775
H260	H	1.050944	-0.189962	-0.153441
H261	H	1.384278	0.143371	0.179892
H262	H	1.284560	-0.955133	-0.487157
H263	H	1.617894	-0.621799	-0.153824
H264	H	1.951227	-0.288466	0.179509
H265	H	1.234083	-1.079026	-0.440073
H266	H	1.567416	-0.745693	-0.106739
H267	H	1.900750	-0.412359	0.226594
H268	H	1.234138	-0.289015	-0.785245
H269	H	1.567471	0.044318	-0.451912
H270	H	1.900805	0.377652	-0.118578
O271	O	1.247524	-0.275621	-0.934843
O272	O	1.580857	0.057713	-0.601509
O273	O	1.914191	0.391046	-0.268176
H274	H	1.282689	-0.240492	-0.895221
H275	H	1.616022	0.092842	-0.561888
H276	H	1.949356	0.426175	-0.228554
H277	H	1.050765	-1.079268	-0.269155
H278	H	1.384098	-0.745934	0.064179
H279	H	1.717431	-0.412601	0.397512
H280	H	1.050657	-0.472378	-0.924612
H281	H	1.383990	-0.139045	-0.591279
H282	H	1.717324	0.194289	-0.257945
