data_functionalizedCrystal
_audit_creation_method	'MofGen! by Chris Wilmer'
_symmetry_space_group_name_H-M	'P1'
_symmetry_Int_Tables_number	1
_symmetry_cell_setting	triclinic
loop_
_symmetry_equiv_pos_as_xyz
  x,y,z
_cell_length_a	12.759395
_cell_length_b	19.120904
_cell_length_c	12.759394
_cell_angle_alpha	87.584123
_cell_angle_beta	89.983626
_cell_angle_gamma	92.425096
loop_
_atom_site_label
_atom_site_type_symbol
_atom_site_fract_x
_atom_site_fract_y
_atom_site_fract_z
Zn1	Zn	1.580869	-0.397085	0.443587
Zn2	Zn	2.080869	0.102915	0.943587
Zn3	Zn	1.588271	-0.279642	0.611786
Zn4	Zn	2.088271	0.220358	1.111786
Zn5	Zn	1.412678	-0.279655	0.436127
Zn6	Zn	1.912678	0.220345	0.936127
Zn7	Zn	1.405161	-0.397056	0.619227
Zn8	Zn	1.905161	0.102944	1.119227
O9	O	1.496745	-0.338359	0.527682
O10	O	1.996745	0.161641	1.027682
O11	O	1.728871	-0.381512	0.465907
O12	O	2.228871	0.118488	0.965907
O13	O	1.571222	-0.181361	0.582248
O14	O	2.071222	0.318639	1.082248
O15	O	1.435037	-0.295250	0.290097
O16	O	1.935037	0.204750	0.790097
O17	O	1.734310	-0.295228	0.589482
O18	O	2.234310	0.204772	1.089482
O19	O	1.558606	-0.381525	0.295577
O20	O	2.058606	0.118475	0.795577
O21	O	1.442215	-0.181370	0.453192
O22	O	1.942215	0.318630	0.953192
O23	O	1.264660	-0.295222	0.460408
O24	O	1.764660	0.204778	0.960408
O25	O	1.422225	-0.495342	0.602164
O26	O	1.922225	0.004658	1.102164
O27	O	1.259137	-0.381476	0.594931
O28	O	1.759137	0.118524	1.094931
O29	O	1.551317	-0.495364	0.473122
O30	O	2.051317	0.004636	0.973122
O31	O	1.563933	-0.295200	0.759793
O32	O	2.063933	0.204800	1.259793
O33	O	1.429403	-0.381463	0.765260
O34	O	1.929403	0.118537	1.265260
C35	C	1.223778	-0.338347	0.527668
C36	C	1.723778	0.161653	1.027668
C37	C	1.107001	-0.338359	0.527689
C38	C	1.607001	0.161641	1.027689
C39	C	1.101297	-0.428030	0.667976
C40	C	1.601297	0.071970	1.167976
C41	C	1.043585	-0.472867	0.738127
C42	C	1.543585	0.027133	1.238127
C43	C	0.933863	-0.472876	0.738141
C44	C	1.433863	0.027124	1.238141
C45	C	0.881851	-0.428044	0.667992
C46	C	1.381851	0.071956	1.167992
C47	C	0.939563	-0.383206	0.597841
C48	C	1.439563	0.116794	1.097841
C49	C	1.049288	-0.383201	0.597837
C50	C	1.549288	0.116799	1.097837
C51	C	0.945266	-0.293540	0.457551
C52	C	1.445266	0.206460	0.957551
C53	C	1.054989	-0.293527	0.457541
C54	C	1.554989	0.206473	0.957541
C55	C	0.893254	-0.248708	0.387402
C56	C	1.393254	0.251292	0.887402
C57	C	0.950967	-0.203865	0.317254
C58	C	1.450967	0.296135	0.817254
C59	C	1.060696	-0.203858	0.317244
C60	C	1.560696	0.296142	0.817244
C61	C	1.112701	-0.248689	0.387389
C62	C	1.612701	0.251311	0.887389
C63	C	1.485107	-0.521549	0.539305
C64	C	1.985107	-0.021549	1.039305
C65	C	1.480147	-0.599614	0.544259
C66	C	1.980147	-0.099614	1.044259
C67	C	1.545025	-0.636301	0.479403
C68	C	2.045025	-0.136301	0.979403
C69	C	1.540352	-0.709651	0.484054
C70	C	2.040352	-0.209651	0.984054
C71	C	1.470806	-0.746312	0.553565
C72	C	1.970806	-0.246312	1.053565
C73	C	1.405921	-0.709620	0.618423
C74	C	1.905921	-0.209620	1.118423
C75	C	1.410589	-0.636272	0.613767
C76	C	1.910589	-0.136272	1.113767
C77	C	1.453344	-0.967777	0.570980
C78	C	1.953344	-0.467777	1.070980
C79	C	1.448683	-1.041131	0.575633
C80	C	1.948683	-0.541131	1.075633
C81	C	1.583113	-1.041157	0.441262
C82	C	2.083113	-0.541157	0.941262
C83	C	1.587780	-0.967807	0.436617
C84	C	2.087780	-0.467807	0.936617
C85	C	1.522891	-0.931121	0.501471
C86	C	2.022891	-0.431121	1.001471
C87	C	1.466031	-0.821288	0.558322
C88	C	1.966031	-0.321288	1.058322
C89	C	1.527662	-0.856147	0.496707
C90	C	2.027662	-0.356147	0.996707
C91	C	1.770777	-0.338372	0.527696
C92	C	2.270777	0.161628	1.027696
C93	C	1.887554	-0.338377	0.527702
C94	C	2.387554	0.161623	1.027702
C95	C	1.496683	-0.338342	0.800648
C96	C	1.996683	0.161658	1.300648
C97	C	1.496751	-0.338359	0.917426
C98	C	1.996751	0.161641	1.417426
C99	C	1.508398	-0.155882	0.516027
C100	C	2.008398	0.344118	1.016027
C101	C	1.513561	-0.077818	0.510778
C102	C	2.013561	0.422182	1.010778
C103	C	1.496835	-0.338392	0.253650
C104	C	1.996835	0.161608	0.753650
C105	C	1.496873	-0.338406	0.136875
C106	C	1.996873	0.161594	0.636875
C107	C	1.636934	-0.248600	0.911684
C108	C	2.136934	0.251400	1.411684
C109	C	1.707052	-0.203729	0.963674
C110	C	2.207052	0.296271	1.463674
C111	C	1.707112	-0.203748	1.073397
C112	C	2.207112	0.296252	1.573397
C113	C	1.637049	-0.248644	1.131132
C114	C	2.137049	0.251356	1.631132
C115	C	1.566931	-0.293515	1.079142
C116	C	2.066931	0.206485	1.579142
C117	C	1.566876	-0.293490	0.969416
C118	C	2.066876	0.206510	1.469416
C119	C	1.426755	-0.383277	1.084884
C120	C	1.926755	0.116723	1.584884
C121	C	1.426687	-0.383255	0.975161
C122	C	1.926687	0.116745	1.475161
C123	C	1.356691	-0.428173	1.142620
C124	C	1.856691	0.071827	1.642620
C125	C	1.286566	-0.473042	1.090629
C126	C	1.786566	0.026958	1.590629
C127	C	1.286508	-0.473020	0.980900
C128	C	1.786508	0.026980	1.480900
C129	C	1.356569	-0.428126	0.923171
C130	C	1.856569	0.071874	1.423171
H131	H	1.190639	-0.428022	0.667979
H132	H	1.690639	0.071978	1.167979
F133	F	1.661801	-0.928794	0.362633
F134	F	2.161801	-0.428794	0.862633
F135	F	1.122110	-0.156138	0.242573
F136	F	1.622110	0.343862	0.742573
F137	F	1.601666	-0.817127	0.422721
F138	F	2.101666	-0.317127	0.922721
H139	H	1.636879	-0.248571	0.822341
H140	H	2.136879	0.251429	1.322341
H141	H	1.085945	-0.509370	0.795239
H142	H	1.585945	-0.009370	1.295239
F143	F	1.392020	-0.860312	0.632303
F144	F	1.892020	-0.360312	1.132303
F145	F	0.765074	-0.428064	0.667998
F146	F	1.265074	0.071936	1.167998
H147	H	0.886873	-0.509390	0.795259
H148	H	1.386873	-0.009390	1.295259
H149	H	1.349292	-0.739476	0.675017
H150	H	1.849292	-0.239476	1.175017
H151	H	1.229413	-0.509562	0.938575
H152	H	1.729413	-0.009562	1.438575
F153	F	1.636784	-0.248429	1.247893
F154	F	2.136784	0.251571	1.747893
H155	H	1.229531	-0.509596	1.137646
H156	H	1.729531	-0.009596	1.637646
F157	F	1.356742	-0.428259	0.806404
F158	F	1.856742	0.071741	1.306404
H159	H	0.803912	-0.248721	0.387414
H160	H	1.303912	0.251279	0.887414
H161	H	0.908610	-0.167370	0.260140
H162	H	1.408610	0.332630	0.760140
H163	H	1.356750	-0.428189	1.231962
H164	H	1.856750	0.071811	1.731962
F165	F	1.229477	-0.248682	0.387389
F166	F	1.729477	0.251318	0.887389
H167	H	1.601660	-0.606456	0.422803
H168	H	2.101660	-0.106456	0.922803
F169	F	1.341535	-0.597227	0.682792
F170	F	1.841535	-0.097227	1.182792
H171	H	1.593185	-0.739518	0.431244
H172	H	2.093185	-0.239518	0.931244
H173	H	1.635941	-1.071034	0.388461
H174	H	2.135941	-0.571034	0.888461
H175	H	1.392047	-1.070979	0.632241
H176	H	1.892047	-0.570979	1.132241
H177	H	1.764099	-0.167176	0.916657
H178	H	2.264099	0.332824	1.416657
F179	F	1.384283	-0.928743	0.640004
F180	F	1.884283	-0.428743	1.140004
H181	H	1.764214	-0.167213	1.115727
H182	H	2.264214	0.332787	1.615727
