data_functionalizedCrystal
_audit_creation_method	'MofGen! by Chris Wilmer'
_symmetry_space_group_name_H-M	'P1'
_symmetry_Int_Tables_number	1
_symmetry_cell_setting	triclinic
loop_
_symmetry_equiv_pos_as_xyz
  x,y,z
_cell_length_a	6.817900
_cell_length_b	16.418049
_cell_length_c	16.305550
_cell_angle_alpha	95.392859
_cell_angle_beta	103.455250
_cell_angle_gamma	103.389670
loop_
_atom_site_label
_atom_site_type_symbol
_atom_site_fract_x
_atom_site_fract_y
_atom_site_fract_z
V1	V	-4.025855	-0.116594	-0.263330
O2	O	-4.013857	0.004875	-0.258012
O3	O	-3.976925	-0.230486	-0.261823
O4	O	-3.977266	-0.115119	-0.378044
O5	O	-4.013514	-0.111290	-0.140987
V6	V	-4.509576	-0.102027	-0.248661
O7	O	-4.286679	-0.148547	-0.295508
O8	O	-4.698950	-0.070073	-0.216484
O9	O	-4.335300	0.011866	-0.250168
O10	O	-4.638971	-0.223496	-0.253980
O11	O	-4.639315	-0.107331	-0.371005
O12	O	-4.334959	-0.103501	-0.133948
C13	C	-3.821803	-0.258241	-0.257745
C14	C	-3.863082	-0.351351	-0.257277
C15	C	-4.140109	-0.569849	-0.260438
C16	C	-4.178884	-0.657337	-0.260006
C17	C	-3.814681	-0.648771	-0.251559
C18	C	-3.775912	-0.561285	-0.251997
C19	C	-3.938631	-0.521826	-0.256432
C20	C	-4.016174	-0.696800	-0.255562
C21	C	-4.058214	-0.791658	-0.255094
C22	C	-3.896590	-0.426962	-0.256902
C23	C	-3.822237	-0.111078	-0.405994
C24	C	-3.863790	-0.110626	-0.499775
C25	C	-4.014883	-0.108876	-0.840516
C26	C	-3.778853	-0.103678	-0.799574
C27	C	-3.735656	-0.104495	-0.702081
C28	C	-3.939923	-0.109743	-0.671470
C29	C	-4.106679	-0.192465	-0.722309
C30	C	-4.148544	-0.191997	-0.819857
C31	C	-4.069896	-0.032013	-0.794476
C32	C	-4.021969	-0.031358	-0.696631
C33	C	-3.897571	-0.110237	-0.575934
C34	C	-4.057244	-0.108388	-0.936054
C35	C	-4.153764	0.039616	-0.254244
C36	C	-4.091723	0.132725	-0.254717
C37	C	-4.153330	-0.107545	-0.105993
C38	C	-4.091015	-0.107993	-0.012211
H39	H	-3.609358	-0.045019	-0.666905
H40	H	-4.051051	-0.250668	-0.705645
H41	H	-3.901127	0.029827	-0.662096
C42	C	-3.554259	-0.508456	-0.247589
N43	N	-3.387316	-0.468665	-0.244270
H44	H	-4.241951	-0.035085	-0.821299
C45	C	-4.313555	-0.201700	-0.696781
N46	N	-4.469372	-0.208655	-0.677550
H47	H	-4.342945	-0.696435	-0.263269
C48	C	-3.635696	-0.692181	-0.246666
N49	N	-3.500877	-0.724876	-0.242973
C50	C	-4.220800	-0.029905	-0.667689
N51	N	-4.370522	-0.028797	-0.645860
C52	C	-4.099429	-0.270600	-0.861103
N53	N	-4.062422	-0.329804	-0.892166
H54	H	-4.322356	-0.199252	-0.847868
H55	H	-3.672914	-0.043921	-0.811785
C56	C	-3.946692	0.052662	-0.812314
N57	N	-3.853874	0.116436	-0.825750
C58	C	-3.717677	-0.178277	-0.842340
N59	N	-3.671604	-0.234466	-0.874554
H60	H	-3.669043	-0.160355	-0.685931
H61	H	-4.272608	-0.537724	-0.264048
