data_functionalizedCrystal
_audit_creation_method	'MofGen! by Chris Wilmer'
_symmetry_space_group_name_H-M	'P1'
_symmetry_Int_Tables_number	1
_symmetry_cell_setting	triclinic
loop_
_symmetry_equiv_pos_as_xyz
  x,y,z
_cell_length_a	10.723024
_cell_length_b	15.944551
_cell_length_c	9.198806
_cell_angle_alpha	89.995864
_cell_angle_beta	89.996352
_cell_angle_gamma	83.983304
loop_
_atom_site_label
_atom_site_type_symbol
_atom_site_fract_x
_atom_site_fract_y
_atom_site_fract_z
O1	O	1.655699	0.117808	-0.120886
O2	O	1.292405	0.129085	-0.120892
O3	O	1.483973	0.001228	-0.120876
O4	O	1.464131	0.245664	-0.120902
O5	O	1.483958	0.001228	0.120909
O6	O	1.292389	0.129084	0.120893
O7	O	1.655684	0.117808	0.120899
Cu8	Cu	1.474035	0.123446	0.142973
Cu9	Cu	1.474053	0.123446	-0.142966
O10	O	1.464116	0.245664	0.120883
C11	C	1.245908	0.128264	0.000000
C12	C	1.107384	0.125809	-0.000001
C13	C	1.483141	-0.030070	0.000017
C14	C	1.480672	-0.123331	0.000018
C15	C	1.031498	0.197350	-0.000010
C16	C	0.888327	0.194814	-0.000012
C17	C	1.356026	-0.338901	-0.000004
C18	C	1.413900	-0.399587	0.119211
C19	C	1.476205	-0.294082	0.000006
C20	C	1.413944	-0.399570	-0.119170
C21	C	1.471880	-0.459020	-0.000011
C22	C	1.534111	-0.353540	0.119320
C23	C	1.534138	-0.353516	-0.119168
C24	C	1.592099	-0.414184	0.000077
C25	C	1.478692	-0.199066	0.000018
C26	C	1.469402	-0.554035	-0.000011
C27	C	1.702181	0.118629	0.000003
C28	C	1.840704	0.121084	-0.000005
C29	C	1.464947	0.276963	-0.000013
C30	C	1.467417	0.370223	-0.000024
N31	N	1.474032	0.123445	0.344087
N32	N	1.474067	0.123441	-0.344080
C33	C	1.554469	0.069525	0.416290
C34	C	1.554488	0.069522	0.583703
H35	H	1.072523	0.260477	-0.000009
C36	C	1.051983	0.040524	0.000008
H37	H	1.118159	-0.004031	0.000024
H38	H	1.001815	0.036491	-0.084305
H39	H	1.001812	0.036493	0.084337
H40	H	0.823120	0.256060	-0.000025
H41	H	0.905903	0.059835	-0.000006
C42	C	1.221277	-0.294670	0.000150
H43	H	1.178773	-0.310335	0.084962
H44	H	1.178160	-0.311088	-0.083678
H45	H	1.223773	-0.235289	-0.000705
H46	H	1.405176	0.169603	0.406209
H47	H	1.623358	0.023362	0.645795
C48	C	1.345229	-0.427151	0.255359
H49	H	1.261368	-0.401130	0.255215
H50	H	1.387109	-0.410628	0.340015
H51	H	1.344823	-0.486703	0.254820
C52	C	1.602711	-0.326153	0.255629
H53	H	1.629812	-0.374388	0.312483
H54	H	1.547321	-0.288434	0.311354
H55	H	1.673340	-0.298751	0.227136
C56	C	1.726966	-0.458216	0.000168
H57	H	1.769444	-0.442461	0.084928
H58	H	1.769978	-0.441746	-0.083712
H59	H	1.724674	-0.517615	-0.000623
H60	H	1.623316	0.023361	0.354170
H61	H	1.584931	-0.333095	-0.219959
C62	C	1.345266	-0.427096	-0.255324
H63	H	1.261413	-0.401059	-0.255169
H64	H	1.344853	-0.486642	-0.254826
H65	H	1.387150	-0.410547	-0.339978
H66	H	1.405202	0.169609	0.593837
