data_functionalizedCrystal
_audit_creation_method	'MofGen! by Chris Wilmer'
_symmetry_space_group_name_H-M	'P1'
_symmetry_Int_Tables_number	1
_symmetry_cell_setting	triclinic
loop_
_symmetry_equiv_pos_as_xyz
  x,y,z
_cell_length_a	21.395362
_cell_length_b	16.959454
_cell_length_c	16.959447
_cell_angle_alpha	89.973264
_cell_angle_beta	89.965163
_cell_angle_gamma	90.035955
loop_
_atom_site_label
_atom_site_type_symbol
_atom_site_fract_x
_atom_site_fract_y
_atom_site_fract_z
Zn1	Zn	0.957849	-0.314331	-0.447361
Zn2	Zn	0.957788	-0.446523	-0.315191
Zn3	Zn	0.853081	-0.314399	-0.315151
Zn4	Zn	0.853053	-0.446508	-0.447282
O5	O	0.905443	-0.380440	-0.381246
O6	O	1.045519	-0.331844	-0.429878
O7	O	0.943884	-0.429032	-0.204575
O8	O	0.867016	-0.203779	-0.332706
O9	O	1.045474	-0.428965	-0.332773
O10	O	0.943989	-0.203729	-0.429840
O11	O	0.866957	-0.331961	-0.204546
O12	O	0.765399	-0.331946	-0.332629
O13	O	0.866969	-0.428939	-0.557904
O14	O	0.765379	-0.429006	-0.429705
O15	O	0.943962	-0.331829	-0.557962
O16	O	0.943857	-0.557132	-0.332697
O17	O	0.866909	-0.557121	-0.429743
C18	C	0.742655	-0.380482	-0.381155
C19	C	0.673014	-0.380519	-0.381134
C20	C	0.640307	-0.431125	-0.431606
C21	C	0.574871	-0.431106	-0.431641
C22	C	0.542146	-0.380489	-0.381191
C23	C	0.574861	-0.329873	-0.330715
C24	C	0.640295	-0.329888	-0.330687
C25	C	0.438429	-0.374138	-0.310031
C26	C	0.372996	-0.374128	-0.310058
C27	C	0.340325	-0.380437	-0.381278
C28	C	0.373095	-0.386772	-0.452473
C29	C	0.438529	-0.386787	-0.452445
C30	C	0.471193	-0.380466	-0.381216
C31	C	0.236665	-0.431025	-0.431792
C32	C	0.171228	-0.431000	-0.431829
C33	C	0.171220	-0.329771	-0.330896
C34	C	0.236655	-0.329792	-0.330866
C35	C	0.269374	-0.380423	-0.381313
C36	C	0.905390	-0.585807	-0.381233
C37	C	0.905425	-0.673663	-0.381254
C38	C	0.865434	-1.045163	-0.431773
C39	C	0.945626	-1.045115	-0.330800
C40	C	0.945604	-0.962569	-0.330793
C41	C	0.905496	-0.921316	-0.381276
C42	C	0.865410	-0.962609	-0.431766
C43	C	0.985686	-0.921269	-0.280298
C44	C	0.985665	-0.838718	-0.280288
C45	C	0.945559	-0.797464	-0.330775
C46	C	0.905472	-0.838763	-0.381268
C47	C	0.865363	-0.797510	-0.431751
C48	C	0.825278	-0.838807	-0.482249
C49	C	0.825304	-0.921355	-0.482253
C50	C	0.945534	-0.714916	-0.330771
C51	C	0.865339	-0.714956	-0.431744
C52	C	1.068866	-0.380399	-0.381339
C53	C	1.138508	-0.380381	-0.381378
C54	C	0.905469	-0.380375	-0.587415
C55	C	0.905480	-0.380347	-0.675271
C56	C	0.905513	-0.174272	-0.381277
C57	C	0.905542	-0.086415	-0.381290
C58	C	0.865468	-0.430824	-1.046719
C59	C	0.945642	-0.329703	-1.046775
C60	C	0.945625	-0.329720	-0.964229
C61	C	0.905530	-0.380290	-0.922925
C62	C	0.865451	-0.430844	-0.964166
C63	C	0.985708	-0.279172	-0.922982
C64	C	0.985693	-0.279188	-0.840431
C65	C	0.945594	-0.329755	-0.799124
C66	C	0.905513	-0.380310	-0.840371
C67	C	0.865418	-0.430881	-0.799066
C68	C	0.825334	-0.481433	-0.840311
C69	C	0.825352	-0.481411	-0.922860
C70	C	0.945575	-0.329776	-0.716576
C71	C	0.865401	-0.430901	-0.716513
C72	C	0.905453	-0.380448	-0.175880
C73	C	0.905563	-0.380254	-0.088024
H74	H	0.465208	-0.391943	-0.510414
F75	F	1.028352	-0.225385	-0.796542
F76	F	0.988316	-0.275891	-1.090736
H77	H	0.978167	-0.681296	-0.289653
H78	H	0.832745	-0.472075	-0.682888
F79	F	0.988309	-1.089021	-0.277075
H80	H	0.346320	-0.368975	-0.252087
F81	F	0.136395	-0.275896	-0.277206
H82	H	0.832800	-1.078790	-0.472889
F83	F	0.675106	-0.276024	-0.276966
F84	F	1.028371	-0.965177	-0.226577
H85	H	1.018355	-0.238006	-0.956618
F86	F	0.675125	-0.485009	-0.485299
H87	H	0.978213	-0.288620	-0.682998
F88	F	1.028330	-0.794775	-0.226550
F89	F	0.782698	-0.535210	-0.966761
H90	H	0.263306	-0.472247	-0.472873
H91	H	0.792691	-0.522611	-0.806670
H92	H	0.263286	-0.288587	-0.289763
H93	H	0.548236	-0.472315	-0.472744
F94	F	0.136419	-0.484860	-0.485555
F95	F	0.338330	-0.393483	-0.528277
H96	H	0.465024	-0.368997	-0.252032
F97	F	0.822808	-0.484620	-1.090615
H98	H	0.548212	-0.288659	-0.289639
H99	H	0.832680	-0.681373	-0.472856
F100	F	0.782591	-0.794893	-0.535971
F101	F	0.782646	-0.965311	-0.535991
