data_functionalizedCrystal
_audit_creation_method	'MofGen! by Chris Wilmer'
_symmetry_space_group_name_H-M	'P1'
_symmetry_Int_Tables_number	1
_symmetry_cell_setting	triclinic
loop_
_symmetry_equiv_pos_as_xyz
  x,y,z
_cell_length_a	15.698487
_cell_length_b	19.377369
_cell_length_c	15.698487
_cell_angle_alpha	107.873816
_cell_angle_beta	89.999091
_cell_angle_gamma	48.637709
loop_
_atom_site_label
_atom_site_type_symbol
_atom_site_fract_x
_atom_site_fract_y
_atom_site_fract_z
Zr1	Zr	0.650686	0.779877	-0.058958
O2	O	0.482282	0.928514	0.044512
O3	O	0.724769	0.631240	-0.068109
O4	O	0.692377	0.779880	0.077059
O5	O	0.514679	0.779870	-0.240840
O6	O	0.832558	0.779883	0.077061
O7	O	0.514674	0.779873	-0.100657
O8	O	0.890500	0.513992	-0.182619
O9	O	0.456736	1.045762	0.018840
O10	O	0.833847	0.692378	-0.099277
O11	O	0.729235	0.692374	-0.203896
O12	O	0.691098	0.867380	-0.032979
O13	O	0.586487	0.867375	-0.137598
Zr14	Zr	0.874266	0.779877	-0.282533
Zr15	Zr	0.874258	0.779881	-0.058956
Zr16	Zr	0.650694	0.779872	-0.282536
Zr17	Zr	0.609943	0.966873	-0.099903
Zr18	Zr	0.915009	0.592880	-0.241589
O19	O	0.800184	0.928514	-0.273382
O20	O	0.800172	0.928521	0.044516
O21	O	0.482294	0.928508	-0.273386
O22	O	1.042670	0.631240	-0.386004
O23	O	1.042659	0.631246	-0.068106
O24	O	0.724780	0.631233	-0.386007
O25	O	1.010274	0.779883	-0.100651
O26	O	0.832575	0.779873	-0.418551
O27	O	0.692395	0.779870	-0.418552
O28	O	1.010279	0.779880	-0.240835
O29	O	0.634446	1.045765	0.018842
O30	O	0.890507	0.513988	-0.360333
O31	O	1.068216	0.513992	-0.360331
O32	O	1.068210	0.513995	-0.182617
O33	O	0.456743	1.045758	-0.158874
O34	O	0.634452	1.045762	-0.158872
O35	O	0.833854	0.692374	-0.308513
O36	O	0.938466	0.692378	-0.203894
O37	O	0.795717	0.867380	-0.137595
O38	O	0.691106	0.867375	-0.242214
C39	C	0.813440	0.545973	-0.119531
C40	C	0.830736	0.466588	-0.102149
C41	C	0.615035	0.205181	-0.318327
C42	C	0.631431	0.130495	-0.302068
C43	C	0.740637	0.130509	-0.192854
C44	C	0.724256	0.205192	-0.209107
C45	C	0.661453	0.242523	-0.271844
C46	C	0.770673	0.242535	-0.162624
C47	C	0.754287	0.317215	-0.178872
C48	C	0.691484	0.354553	-0.241604
C49	C	0.645067	0.317203	-0.288092
C50	C	0.833468	0.205208	-0.099883
C51	C	0.879886	0.242550	-0.053400
C52	C	0.863508	0.317227	-0.069652
C53	C	0.800705	0.354565	-0.132384
C54	C	0.909925	0.354577	-0.023164
C55	C	0.893539	0.429257	-0.039412
C56	C	0.784319	0.429245	-0.148632
C57	C	0.482822	0.779871	-0.170749
C58	C	0.387910	0.779869	-0.170750
C59	C	0.214121	0.779887	-0.170744
C60	C	0.310826	0.779881	-0.170746
C61	C	1.042130	0.779882	-0.170743
C62	C	1.137042	0.779884	-0.170742
C63	C	0.762466	0.779882	0.108915
C64	C	0.762463	0.779884	0.203829
C65	C	0.711513	1.013781	-0.221961
C66	C	0.694217	1.093166	-0.239343
C67	C	0.762491	0.779867	0.377598
C68	C	0.762479	0.779872	0.280899
C69	C	0.762487	0.779871	0.549593
C70	C	0.762491	0.779869	0.454679
C71	C	1.093094	0.545978	-0.119528
C72	C	1.205302	0.466595	-0.102145
C73	C	0.813450	0.545967	-0.399191
C74	C	0.830749	0.466580	-0.476724
C75	C	1.093104	0.545973	-0.399188
C76	C	1.205316	0.466588	-0.476720
C77	C	0.431849	1.013781	0.057697
C78	C	0.319637	1.093166	0.135228
C79	C	0.431859	1.013775	-0.221964
C80	C	0.319650	1.093158	-0.239347
C81	C	0.711503	1.013787	0.057700
C82	C	0.694203	1.093174	0.135232
C83	C	1.203387	0.429316	-0.039363
C84	C	1.308808	0.354738	-0.023011
C85	C	1.416144	0.317435	-0.069447
C86	C	1.418056	0.354721	-0.132231
C87	C	1.312635	0.429303	-0.148577
C88	C	0.893484	0.429299	-0.567752
C89	C	0.909732	0.354717	-0.640613
C90	C	0.863253	0.317413	-0.622442
C91	C	0.800511	0.354701	-0.531405
C92	C	0.784256	0.429286	-0.458548
C93	C	1.312627	0.429310	-0.458519
C94	C	1.418068	0.354730	-0.531362
C95	C	1.416197	0.317424	-0.622403
C96	C	1.308873	0.354709	-0.640603
C97	C	1.203433	0.429293	-0.567762
C98	C	0.212324	1.130453	0.117026
C99	C	0.106877	1.205056	0.189863
C100	C	0.108748	1.242366	0.280904
C101	C	0.216072	1.205076	0.299105
C102	C	0.321515	1.130479	0.226267
C103	C	0.321564	1.130445	-0.302121
C104	C	0.216139	1.205044	-0.318452
C105	C	0.108802	1.242350	-0.272014
C106	C	0.106890	1.205060	-0.209233
C107	C	0.212314	1.130468	-0.192898
C108	C	0.740698	1.130455	0.117033
C109	C	0.724466	1.205037	0.189877
C110	C	0.661731	1.242342	0.280917
C111	C	0.615236	1.205054	0.299116
C112	C	0.631476	1.130468	0.226274
H113	H	0.563895	0.235577	-0.369414
H114	H	1.307367	0.324323	-0.714738
H115	H	0.019501	1.235405	0.175026
H116	H	1.115996	0.459688	-0.001536
H117	H	0.408954	1.100077	-0.339945
H118	H	0.960826	0.324366	-0.714732
H119	H	1.307228	0.324388	0.028112
H120	H	0.217718	1.235393	-0.369577
H121	H	0.210779	1.100079	0.042903
H122	H	0.733179	0.459642	-0.199719
H123	H	0.931336	0.459663	-0.001560
H124	H	1.505464	0.324338	-0.170035
H125	H	0.678139	0.415366	-0.254828
H126	H	0.876498	0.256680	-0.681776
H127	H	0.762671	0.324316	-0.516624
H128	H	1.314212	0.459646	-0.199704
H129	H	0.762328	1.235390	0.175041
H130	H	0.733177	0.459631	-0.384429
H131	H	0.217581	1.235464	0.373238
H132	H	1.505446	0.324380	-0.516526
H133	H	0.593927	0.347600	-0.339179
H134	H	1.501976	0.256704	-0.056129
H135	H	1.502061	0.256692	-0.681706
H136	H	0.593624	0.100096	-0.339923
H137	H	0.931335	0.459665	-0.582565
H138	H	0.648515	1.303075	0.340221
H139	H	0.408892	1.100121	0.241100
H140	H	1.116062	0.459635	-0.582594
H141	H	1.314173	0.459674	-0.384394
H142	H	0.022968	1.303088	-0.285325
H143	H	0.931016	0.212150	-0.002317
H144	H	0.022881	1.303108	0.340205
H145	H	0.846800	0.144404	-0.086651
H146	H	0.019482	1.235446	-0.171428
H147	H	0.210740	1.100111	-0.141784
H148	H	0.791781	1.100092	0.042909
H149	H	0.564156	1.235439	0.373250
H150	H	0.791768	0.100109	-0.141772
H151	H	0.961049	0.324180	0.027923
H152	H	0.593607	1.100121	0.241105
