data_functionalizedCrystal
_audit_creation_method	'MofGen! by Chris Wilmer'
_symmetry_space_group_name_H-M	'P1'
_symmetry_Int_Tables_number	1
_symmetry_cell_setting	triclinic
loop_
_symmetry_equiv_pos_as_xyz
  x,y,z
_cell_length_a	19.805407
_cell_length_b	19.805405
_cell_length_c	17.077396
_cell_angle_alpha	89.971037
_cell_angle_beta	89.981228
_cell_angle_gamma	90.024042
loop_
_atom_site_label
_atom_site_type_symbol
_atom_site_fract_x
_atom_site_fract_y
_atom_site_fract_z
Zn1	Zn	1.034741	-0.269512	-0.443825
Zn2	Zn	1.368074	0.063822	-0.110491
Zn3	Zn	1.701407	0.397155	0.222842
Zn4	Zn	1.034653	-0.382705	-0.312558
Zn5	Zn	1.367986	-0.049371	0.020776
Zn6	Zn	1.701320	0.283962	0.354109
Zn7	Zn	0.921553	-0.269530	-0.312574
Zn8	Zn	1.254887	0.063804	0.020759
Zn9	Zn	1.588220	0.397137	0.354092
Zn10	Zn	0.921518	-0.382659	-0.443783
Zn11	Zn	1.254852	-0.049325	-0.110450
Zn12	Zn	1.588185	0.284008	0.222884
O13	O	0.978116	-0.326101	-0.378185
O14	O	1.311450	0.007232	-0.044852
O15	O	1.644783	0.340565	0.288482
O16	O	1.129446	-0.284539	-0.426422
O17	O	1.462779	0.048795	-0.093089
O18	O	1.796112	0.382128	0.240244
O19	O	1.019628	-0.367719	-0.202713
O20	O	1.352961	-0.034385	0.130620
O21	O	1.686295	0.298948	0.463954
O22	O	0.936619	-0.174811	-0.330010
O23	O	1.269953	0.158523	0.003324
O24	O	1.603286	0.491856	0.336657
O25	O	1.129381	-0.367701	-0.329981
O26	O	1.462714	-0.034368	0.003352
O27	O	1.796048	0.298966	0.336686
O28	O	1.019778	-0.174797	-0.426439
O29	O	1.353111	0.158536	-0.093105
O30	O	1.686444	0.491869	0.240228
O31	O	0.936534	-0.284569	-0.202725
O32	O	1.269868	0.048764	0.130608
O33	O	1.603201	0.382097	0.463941
O34	O	0.826832	-0.284525	-0.329969
O35	O	1.160165	0.048809	0.003364
O36	O	1.493499	0.382142	0.336698
O37	O	0.936559	-0.367623	-0.553635
O38	O	1.269893	-0.034289	-0.220302
O39	O	1.603226	0.299044	0.113031
O40	O	0.826806	-0.367640	-0.426367
O41	O	1.160140	-0.034307	-0.093034
O42	O	1.493473	0.299026	0.240299
O43	O	1.019743	-0.284494	-0.553666
O44	O	1.353077	0.048839	-0.220333
O45	O	1.686410	0.382173	0.113000
O46	O	1.019594	-0.477415	-0.329940
O47	O	1.352927	-0.144082	0.003393
O48	O	1.686261	0.189252	0.336726
O49	O	0.936474	-0.477381	-0.426351
O50	O	1.269808	-0.144048	-0.093018
O51	O	1.603141	0.189285	0.240316
C52	C	0.802260	-0.326080	-0.378166
C53	C	1.135594	0.007253	-0.044833
C54	C	1.468927	0.340587	0.288501
C55	C	0.727028	-0.326087	-0.378176
C56	C	1.060362	0.007246	-0.044843
C57	C	1.393695	0.340579	0.288490
C58	C	0.691718	-0.282861	-0.428470
C59	C	1.025052	0.050472	-0.095136
C60	C	1.358385	0.383806	0.238197
C61	C	0.621030	-0.282865	-0.428473
C62	C	0.954363	0.050469	-0.095139
C63	C	1.287697	0.383802	0.238194
C64	C	0.585653	-0.326098	-0.378186
C65	C	0.918986	0.007235	-0.044852
C66	C	1.252319	0.340568	0.288481
C67	C	0.620968	-0.369326	-0.327887
C68	C	0.954301	-0.035993	0.005446
C69	C	1.287634	0.297340	0.338780
C70	C	0.691655	-0.369319	-0.327880
C71	C	1.024988	-0.035985	0.005453
C72	C	1.358321	0.297348	0.338786
C73	C	0.335894	-0.369357	-0.327911
C74	C	0.669228	-0.036023	0.005422
C75	C	1.002561	0.297310	0.338756
C76	C	0.265202	-0.369362	-0.327923
C77	C	0.598536	-0.036029	0.005410
C78	C	0.931869	0.297304	0.338744
C79	C	0.265269	-0.282903	-0.428503
C80	C	0.598603	0.050431	-0.095170
C81	C	0.931936	0.383764	0.238163
C82	C	0.335957	-0.282895	-0.428497
C83	C	0.669290	0.050438	-0.095164
C84	C	1.002623	0.383772	0.238170
C85	C	0.371265	-0.326120	-0.378195
C86	C	0.704599	0.007213	-0.044862
C87	C	1.037932	0.340546	0.288471
C88	C	0.447914	-0.326115	-0.378192
C89	C	0.781247	0.007218	-0.044858
C90	C	1.114580	0.340552	0.288475
C91	C	0.509006	-0.326107	-0.378193
C92	C	0.842339	0.007226	-0.044860
C93	C	1.175672	0.340559	0.288474
C94	C	0.978039	-0.501957	-0.378157
C95	C	1.311372	-0.168624	-0.044823
C96	C	1.644706	0.164709	0.288510
C97	C	0.978068	-0.577189	-0.378171
C98	C	1.311401	-0.243856	-0.044837
C99	C	1.644735	0.089477	0.288496
C100	C	1.021343	-0.612468	-0.428421
C101	C	1.354676	-0.279135	-0.095087
C102	C	1.688010	0.054198	0.238246
C103	C	1.021367	-0.683157	-0.428435
C104	C	1.354701	-0.349823	-0.095102
C105	C	1.688034	-0.016490	0.238231
C106	C	0.978120	-0.718565	-0.378195
C107	C	1.311453	-0.385231	-0.044862
C108	C	1.644787	-0.051898	0.288471
C109	C	0.934840	-0.683281	-0.327943
C110	C	1.268174	-0.349947	0.005390
C111	C	1.601507	-0.016614	0.338724
C112	C	0.934813	-0.612594	-0.327933
C113	C	1.268146	-0.279260	0.005400
C114	C	1.601480	0.054073	0.338734
C115	C	0.934949	-0.968354	-0.327983
C116	C	1.268282	-0.635021	0.005350
C117	C	1.601616	-0.301687	0.338683
C118	C	0.934981	-1.039046	-0.327996
C119	C	1.268314	-0.705713	0.005338
C120	C	1.601648	-0.372379	0.338671
C121	C	1.021503	-1.038917	-0.428486
C122	C	1.354837	-0.705584	-0.095152
C123	C	1.688170	-0.372250	0.238181
C124	C	1.021476	-0.968230	-0.428475
C125	C	1.354809	-0.634897	-0.095142
C126	C	1.688143	-0.301563	0.238191
C127	C	0.978194	-0.932952	-0.378227
C128	C	1.311528	-0.599619	-0.044893
C129	C	1.644861	-0.266285	0.288440
C130	C	0.978167	-0.856304	-0.378212
C131	C	1.311501	-0.522970	-0.044879
C132	C	1.644834	-0.189637	0.288454
C133	C	0.978150	-0.795212	-0.378205
C134	C	1.311483	-0.461879	-0.044872
C135	C	1.644816	-0.128545	0.288462
C136	C	1.154659	-0.326123	-0.378205
C137	C	1.487992	0.007210	-0.044871
C138	C	1.821326	0.340544	0.288462
C139	C	1.229891	-0.326132	-0.378213
C140	C	1.563224	0.007201	-0.044880
C141	C	1.896558	0.340534	0.288454
C142	C	0.978157	-0.326051	-0.582929
C143	C	1.311491	0.007282	-0.249596
C144	C	1.644824	0.340615	0.083737
C145	C	0.978175	-0.326030	-0.670179
C146	C	1.311508	0.007303	-0.336846
C147	C	1.644841	0.340637	-0.003513
C148	C	0.978212	-0.149558	-0.378231
C149	C	1.311545	0.183775	-0.044897
C150	C	1.644879	0.517108	0.288436
C151	C	0.978253	-0.074326	-0.378250
C152	C	1.311586	0.259007	-0.044917
C153	C	1.644920	0.592340	0.288417
C154	C	1.021490	-0.282741	-0.711187
C155	C	1.354824	0.050592	-0.377853
C156	C	1.688157	0.383925	-0.044520
C157	C	1.021498	-0.282719	-0.793167
C158	C	1.354832	0.050615	-0.459834
C159	C	1.688165	0.383948	-0.126500
C160	C	0.978194	-0.325989	-0.834139
C161	C	1.311527	0.007344	-0.500805
C162	C	1.644861	0.340678	-0.167472
C163	C	0.934874	-0.369280	-0.793125
C164	C	1.268207	-0.035946	-0.459792
C165	C	1.601540	0.297387	-0.126459
C166	C	0.934863	-0.369298	-0.711146
C167	C	1.268196	-0.035965	-0.377813
C168	C	1.601529	0.297369	-0.044480
C169	C	0.934901	-0.369239	-0.963996
C170	C	1.268234	-0.035906	-0.630662
C171	C	1.601568	0.297428	-0.297329
C172	C	0.934913	-0.369221	-1.045980
C173	C	1.268246	-0.035888	-0.712647
C174	C	1.601579	0.297445	-0.379314
C175	C	1.021537	-0.282660	-1.046016
C176	C	1.354870	0.050674	-0.712683
C177	C	1.688203	0.384007	-0.379350
C178	C	1.021526	-0.282678	-0.964037
C179	C	1.354859	0.050655	-0.630704
C180	C	1.688192	0.383989	-0.297371
C181	C	0.978206	-0.325970	-0.923030
C182	C	1.311539	0.007364	-0.589696
C183	C	1.644873	0.340697	-0.256363
C184	C	0.978114	-0.326102	-0.174237
C185	C	1.311448	0.007231	0.159096
C186	C	1.644781	0.340565	0.492430
C187	C	0.978228	-0.325933	-0.086988
C188	C	1.311561	0.007401	0.246346
C189	C	1.644895	0.340734	0.579679
H190	H	0.592158	-0.404524	-0.286939
H191	H	0.925491	-0.071191	0.046395
H192	H	1.258825	0.262142	0.379728
H193	H	0.720517	-0.247657	-0.469421
H194	H	1.053851	0.085676	-0.136088
H195	H	1.387184	0.419010	0.197245
Cl196	Cl	0.880464	-0.423611	-1.097487
Cl197	Cl	1.213798	-0.090278	-0.764153
Cl198	Cl	1.547131	0.243055	-0.430820
H199	H	1.056611	-0.711878	-0.469348
H200	H	1.389945	-0.378544	-0.136014
H201	H	1.723278	-0.045211	0.197319
Cl202	Cl	0.576643	-0.228523	-0.491704
Cl203	Cl	0.909976	0.104811	-0.158371
Cl204	Cl	1.243310	0.438144	0.174963
Cl205	Cl	1.075937	-0.228345	-0.659688
Cl206	Cl	1.409270	0.104989	-0.326354
Cl207	Cl	1.742603	0.438322	0.006979
H208	H	0.236513	-0.247704	-0.469458
H209	H	0.569846	0.085629	-0.136125
H210	H	0.903179	0.418963	0.197208
H211	H	1.056695	-0.939403	-0.469383
H212	H	1.390028	-0.606069	-0.136049
H213	H	1.723361	-0.272736	0.197284
H214	H	0.899612	-0.404508	-0.826491
H215	H	1.232945	-0.071175	-0.493158
H216	H	1.566279	0.262158	-0.159824
H217	H	0.236400	-0.404570	-0.286970
H218	H	0.569733	-0.071237	0.046363
H219	H	0.903067	0.262097	0.379696
Cl220	Cl	0.380273	-0.423683	-0.264658
Cl221	Cl	0.713607	-0.090349	0.068675
Cl222	Cl	1.046940	0.242984	0.402009
H223	H	1.056808	-0.247409	-1.079409
H224	H	1.390141	0.085925	-0.746075
H225	H	1.723475	0.419258	-0.412742
H226	H	1.056563	-0.583644	-0.469328
H227	H	1.389896	-0.250310	-0.135995
H228	H	1.723230	0.083023	0.197338
H229	H	1.056743	-1.067649	-0.469403
H230	H	1.390077	-0.734315	-0.136070
H231	H	1.723410	-0.400982	0.197263
Cl232	Cl	0.380427	-0.228545	-0.491721
Cl233	Cl	0.713760	0.104788	-0.158387
Cl234	Cl	1.047094	0.438121	0.174946
H235	H	0.899584	-0.404541	-0.677759
H236	H	1.232917	-0.071208	-0.344426
H237	H	1.566250	0.262125	-0.011093
Cl238	Cl	1.075970	-0.228285	-0.912531
Cl239	Cl	1.409304	0.105049	-0.579198
Cl240	Cl	1.742637	0.438382	-0.245864
H241	H	0.720403	-0.404517	-0.286926
H242	H	1.053737	-0.071184	0.046407
H243	H	1.387070	0.262149	0.379741
H244	H	0.899761	-1.067873	-0.287083
H245	H	1.233094	-0.734540	0.046250
H246	H	1.566427	-0.401207	0.379584
H247	H	0.899709	-0.939636	-0.287067
H248	H	1.233042	-0.606303	0.046266
H249	H	1.566375	-0.272970	0.379599
Cl250	Cl	0.880440	-0.423663	-0.912445
Cl251	Cl	1.213774	-0.090329	-0.579111
Cl252	Cl	1.547107	0.243004	-0.245778
H253	H	1.056772	-0.247470	-0.826552
H254	H	1.390105	0.085863	-0.493218
H255	H	1.723438	0.419196	-0.159885
H256	H	0.899625	-0.712116	-0.287040
H257	H	1.232958	-0.378782	0.046293
H258	H	1.566291	-0.045449	0.379627
H259	H	0.899573	-0.583870	-0.287015
H260	H	1.232907	-0.250537	0.046318
H261	H	1.566240	0.082797	0.379651
