data_functionalizedCrystal
_audit_creation_method	'MofGen! by Chris Wilmer'
_symmetry_space_group_name_H-M	'P1'
_symmetry_Int_Tables_number	1
_symmetry_cell_setting	triclinic
loop_
_symmetry_equiv_pos_as_xyz
  x,y,z
_cell_length_a	16.992697
_cell_length_b	9.565339
_cell_length_c	16.992695
_cell_angle_alpha	90.000049
_cell_angle_beta	89.331663
_cell_angle_gamma	90.002667
loop_
_atom_site_label
_atom_site_type_symbol
_atom_site_fract_x
_atom_site_fract_y
_atom_site_fract_z
O1	O	-1.050850	0.116059	0.166913
O2	O	-0.550850	0.616059	0.666913
O3	O	-0.822450	0.116106	0.165081
O4	O	-0.322450	0.616106	0.665081
O5	O	-0.935734	0.116071	0.051797
O6	O	-0.435734	0.616071	0.551797
O7	O	-0.937565	0.116093	0.280197
O8	O	-0.437565	0.616093	0.780197
O9	O	-0.935725	-0.116449	0.051804
O10	O	-0.435725	0.383551	0.551804
O11	O	-0.822441	-0.116414	0.165088
O12	O	-0.322441	0.383586	0.665088
O13	O	-1.050841	-0.116461	0.166920
O14	O	-0.550841	0.383539	0.666920
Zn15	Zn	-0.936639	-0.153355	0.166005
Zn16	Zn	-0.436639	0.346645	0.666005
Zn17	Zn	-0.936651	0.153000	0.165996
Zn18	Zn	-0.436651	0.653000	0.665996
O19	O	-0.937556	-0.116427	0.280204
O20	O	-0.437556	0.383573	0.780204
C21	C	-0.793085	-0.000148	0.162729
C22	C	-0.293085	0.499852	0.662729
C23	C	-0.705600	-0.000131	0.155700
C24	C	-0.205600	0.499869	0.655700
N25	N	-0.936637	-0.362435	0.166011
N26	N	-0.436637	0.137565	0.666011
C27	C	-0.659609	-0.000124	0.223518
C28	C	-0.159609	0.499876	0.723518
C29	C	-0.577409	-0.000142	0.216909
C30	C	-0.077409	0.499858	0.716909
C31	C	-0.541200	-0.000156	0.142481
C32	C	-0.041200	0.499844	0.642481
C33	C	-0.587197	-0.000167	0.074658
C34	C	-0.087197	0.499833	0.574658
C35	C	-0.669397	-0.000159	0.081268
C36	C	-0.169397	0.499841	0.581268
C37	C	-0.295886	-0.000190	0.115086
C38	C	0.204114	0.499810	0.615086
C39	C	-0.213681	-0.000193	0.108481
C40	C	0.286319	0.499807	0.608481
C41	C	-0.203898	-0.000171	0.250733
C42	C	0.296102	0.499829	0.750733
C43	C	-0.286099	-0.000155	0.257336
C44	C	0.213901	0.499845	0.757336
C45	C	-0.332089	-0.000173	0.189513
C46	C	0.167911	0.499827	0.689513
N47	N	-0.457178	-0.000170	0.135724
N48	N	0.042822	0.499830	0.635724
N49	N	-0.416109	-0.000169	0.196271
N50	N	0.083891	0.499831	0.696271
C51	C	-0.884228	-0.453622	0.218382
C52	C	-0.384228	0.046378	0.718382
C53	C	-0.956320	-0.546814	0.238114
C54	C	-0.456320	-0.046814	0.738114
C55	C	-0.864576	-0.546798	0.146287
C56	C	-0.364576	-0.046798	0.646287
C57	C	-1.008766	-0.453575	0.185781
C58	C	-0.508766	0.046425	0.685781
C59	C	-0.916974	-0.453551	0.093920
C60	C	-0.416974	0.046449	0.593920
C61	C	-0.989115	-0.546701	0.113625
C62	C	-0.489115	-0.046701	0.613625
C63	C	-0.080205	-0.000198	0.169272
C64	C	0.419795	0.499802	0.669272
C65	C	-0.167690	-0.000187	0.176299
C66	C	0.332310	0.499813	0.676299
C67	C	-0.933374	-0.000188	0.022440
C68	C	-0.433374	0.499812	0.522440
C69	C	-0.926345	-0.000186	-0.065044
C70	C	-0.426345	0.499814	0.434956
N71	N	-0.936659	0.362079	0.165984
N72	N	-0.436659	0.862079	0.665984
C73	C	-0.994163	-0.000202	-0.111035
C74	C	-0.494163	0.499798	0.388965
C75	C	-0.987554	-0.000187	-0.193236
C76	C	-0.487554	0.499813	0.306764
C77	C	-0.913126	-0.000167	-0.229444
C78	C	-0.413126	0.499833	0.270556
C79	C	-0.845303	-0.000147	-0.183447
C80	C	-0.345303	0.499853	0.316553
C81	C	-0.851913	-0.000152	-0.101248
C82	C	-0.351913	0.499848	0.398752
C83	C	-0.885732	-0.000142	-0.474758
C84	C	-0.385732	0.499858	0.025242
C85	C	-0.879127	-0.000142	-0.556964
C86	C	-0.379127	0.499858	-0.056964
C87	C	-1.021379	-0.000179	-0.566747
C88	C	-0.521379	0.499821	-0.066747
C89	C	-1.027982	-0.000192	-0.484545
C90	C	-0.527982	0.499808	0.015455
C91	C	-0.960159	-0.000165	-0.438556
C92	C	-0.460159	0.499835	0.061444
N93	N	-0.906369	-0.000157	-0.313466
N94	N	-0.406369	0.499843	0.186534
N95	N	-0.966917	-0.000165	-0.354535
N96	N	-0.466917	0.499835	0.145465
C97	C	-0.939916	-0.000164	0.309561
C98	C	-0.439916	0.499836	0.809561
C99	C	-0.946945	-0.000157	0.397045
C100	C	-0.446945	0.499843	0.897045
H101	H	-0.689084	-0.000111	0.284125
H102	H	-0.189084	0.499889	0.784125
H103	H	-0.333321	-0.000206	0.059859
H104	H	0.166679	0.499794	0.559859
Br105	Br	-0.984069	-0.615091	0.339707
Br106	Br	-0.484069	-0.115091	0.839707
H107	H	-0.539966	-0.000135	0.272134
H108	H	-0.039966	0.499865	0.772134
H109	H	-0.830505	-0.000121	-0.437323
H110	H	-0.330505	0.499879	0.062677
Br111	Br	-0.335233	-0.000119	0.358349
Br112	Br	0.164767	0.499881	0.858349
H113	H	-0.900306	-0.412554	0.032984
H114	H	-0.400306	0.087446	0.532984
Br115	Br	-0.141480	-0.000148	0.342773
Br116	Br	0.358520	0.499852	0.842773
Br117	Br	-1.110386	-0.385622	0.213684
Br118	Br	-0.610386	0.114378	0.713684
H119	H	-0.557710	-0.000199	0.014057
H120	H	-0.057710	0.499801	0.514057
Br121	Br	-0.744293	-0.000097	-0.232586
Br122	Br	-0.244293	0.499903	0.267414
Br123	Br	-1.079597	-0.000208	-0.255649
Br124	Br	-0.579597	0.499792	0.244351
H125	H	-0.184203	-0.000204	0.047870
H126	H	0.315797	0.499796	0.547870
Br127	Br	-0.731814	-0.000180	-0.010774
Br128	Br	-0.231814	0.499820	0.489226
H129	H	-0.796688	-0.000139	-0.063803
H130	H	-0.296688	0.499861	0.436197
Br131	Br	-0.778112	-0.000129	-0.606103
Br132	Br	-0.278112	0.499871	-0.106103
H133	H	-0.839954	-0.412754	0.262716
H134	H	-0.339954	0.087246	0.762716
H135	H	-1.033496	-0.587313	0.069326
H136	H	-0.533496	-0.087313	0.569326
H137	H	-0.803626	-0.587751	0.129617
H138	H	-0.303626	-0.087751	0.629617
Br139	Br	-1.095177	-0.000249	-0.061903
Br140	Br	-0.595177	0.499751	0.438097
Br141	Br	-1.128994	-0.000174	-0.435411
Br142	Br	-0.628994	0.499826	0.064589
H143	H	-1.076596	-0.000198	-0.604200
H144	H	-0.576596	0.499802	-0.104200
