data_functionalizedCrystal
_audit_creation_method	'MofGen! by Chris Wilmer'
_symmetry_space_group_name_H-M	'P1'
_symmetry_Int_Tables_number	1
_symmetry_cell_setting	triclinic
loop_
_symmetry_equiv_pos_as_xyz
  x,y,z
_cell_length_a	14.908571
_cell_length_b	16.959454
_cell_length_c	14.908308
_cell_angle_alpha	93.269679
_cell_angle_beta	90.175053
_cell_angle_gamma	86.716421
loop_
_atom_site_label
_atom_site_type_symbol
_atom_site_fract_x
_atom_site_fract_y
_atom_site_fract_z
Zn1	Zn	1.345297	-0.412496	-0.587603
Zn2	Zn	1.353878	-0.537521	-0.437249
Zn3	Zn	1.203612	-0.397314	-0.428600
Zn4	Zn	1.194906	-0.536582	-0.578901
O5	O	1.274423	-0.470978	-0.508088
O6	O	1.472261	-0.435828	-0.574920
O7	O	1.341180	-0.512961	-0.310277
O8	O	1.222460	-0.288721	-0.449714
O9	O	1.478566	-0.527683	-0.464456
O10	O	1.326555	-0.299875	-0.566532
O11	O	1.230780	-0.409952	-0.303922
O12	O	1.076631	-0.409042	-0.441276
O13	O	1.207621	-0.526082	-0.705880
O14	O	1.070235	-0.511361	-0.551701
O15	O	1.318113	-0.434917	-0.712273
O16	O	1.332737	-0.648003	-0.456018
O17	O	1.215941	-0.647313	-0.560089
C18	C	1.040808	-0.458452	-0.494606
C19	C	0.940865	-0.453114	-0.488860
C20	C	0.746458	-0.549777	-0.592894
C21	C	0.652552	-0.544763	-0.587498
C22	C	0.659146	-0.438070	-0.472677
C23	C	0.753052	-0.443084	-0.478073
C24	C	0.796704	-0.498940	-0.538183
C25	C	0.890612	-0.503956	-0.543574
C26	C	0.897204	-0.397260	-0.428758
C27	C	0.803298	-0.392247	-0.423362
C28	C	1.274349	-0.676340	-0.508068
C29	C	1.274398	-0.764200	-0.508095
C30	C	1.213691	-1.135352	-0.562276
C31	C	1.335401	-1.136020	-0.454006
C32	C	1.335370	-1.053472	-0.453996
C33	C	1.274498	-1.011860	-0.508126
C34	C	1.213657	-1.052796	-0.562266
C35	C	1.396203	-1.012529	-0.399850
C36	C	1.396174	-0.929976	-0.399837
C37	C	1.335306	-0.888363	-0.453972
C38	C	1.274463	-0.929304	-0.508115
C39	C	1.213591	-0.887692	-0.562245
C40	C	1.152752	-0.928632	-0.616394
C41	C	1.152788	-1.011183	-0.616402
C42	C	1.335269	-0.805812	-0.453965
C43	C	1.213557	-0.805136	-0.562235
C44	C	1.508951	-0.483554	-0.521623
C45	C	1.608893	-0.488913	-0.527391
C46	C	1.260938	-0.482089	-0.742614
C47	C	1.255192	-0.486823	-0.842555
C48	C	1.274521	-0.264817	-0.508129
C49	C	1.274563	-0.176963	-0.508146
C50	C	1.359446	-0.400771	-1.037013
C51	C	1.354049	-0.405217	-1.130917
C52	C	1.238998	-0.500156	-1.124267
C53	C	1.244395	-0.495710	-1.030364
C54	C	1.304622	-0.446017	-0.986740
C55	C	1.310022	-0.441576	-0.892835
C56	C	1.194967	-0.536510	-0.886187
C57	C	1.189570	-0.540956	-0.980090
C58	C	1.287908	-0.459857	-0.274478
C59	C	1.293828	-0.454909	-0.174547
H60	H	1.163990	-0.771261	-0.606318
O61	O	0.945879	-0.347834	-0.375517
C62	C	0.942504	-0.241446	-0.261102
C63	C	0.887271	-0.297380	-0.321330
H64	H	0.895142	-0.200629	-0.217290
H65	H	0.989133	-0.277747	-0.216481
H66	H	0.984134	-0.204514	-0.305004
H67	H	0.845588	-0.334324	-0.277498
H68	H	0.840698	-0.261034	-0.365957
H69	H	1.103186	-0.894742	-0.660463
H70	H	1.103256	-1.044524	-0.660485
O71	O	1.368617	-0.393419	-0.850420
C72	C	1.496073	-0.384248	-0.751358
C73	C	1.429791	-0.438883	-0.799354
H74	H	1.545538	-0.420981	-0.710044
H75	H	1.534396	-0.352685	-0.803385
H76	H	1.457307	-0.338615	-0.705060
H77	H	1.468488	-0.484560	-0.845649
H78	H	1.391468	-0.470388	-0.747278
H79	H	1.445713	-0.896647	-0.355747
H80	H	1.164160	-1.168689	-0.606365
O81	O	1.394438	-1.176375	-0.401276
C82	C	1.447033	-1.196653	-0.250882
C83	C	1.380104	-1.150914	-0.310502
H84	H	1.435479	-1.176073	-0.177481
H85	H	1.436622	-1.262696	-0.260087
H86	H	1.518597	-1.185013	-0.270955
H87	H	1.308514	-1.162488	-0.290467
H88	H	1.390593	-1.084885	-0.301290
O89	O	1.455415	-1.052905	-0.347317
C90	C	1.610875	-1.084361	-0.312607
C91	C	1.543936	-1.038552	-0.372152
H92	H	1.682458	-1.072787	-0.332677
H93	H	1.599363	-1.063886	-0.239168
H94	H	1.600350	-1.150376	-0.321935
H95	H	1.554420	-0.972529	-0.362902
H96	H	1.555464	-1.059093	-0.445569
H97	H	1.384800	-0.772482	-0.409873
O98	O	1.417971	-0.352440	-0.994773
C99	C	1.531565	-0.258787	-1.011278
C100	C	1.465310	-0.313476	-1.059226
H101	H	1.569870	-0.227283	-1.063368
H102	H	1.492872	-0.213113	-0.964967
H103	H	1.581051	-0.295527	-0.969994
H104	H	1.415809	-0.276802	-1.100558
H105	H	1.504062	-0.359153	-1.105484
H106	H	1.398691	-0.368371	-1.171846
O107	O	0.933065	-0.558290	-0.601837
C108	C	1.038423	-0.671218	-0.619842
C109	C	0.990394	-0.609746	-0.553754
H110	H	1.084798	-0.712825	-0.580995
H111	H	0.986416	-0.706748	-0.658007
H112	H	1.079657	-0.639548	-0.669466
H113	H	0.949162	-0.641352	-0.504076
H114	H	1.042446	-0.574219	-0.515655
O115	O	1.180365	-0.548328	-1.166598
C116	C	1.025749	-0.579883	-1.186447
C117	C	1.092053	-0.525260	-1.138467
H118	H	0.954337	-0.561263	-1.163708
H119	H	1.031224	-0.575280	-1.262205
H120	H	1.042617	-0.643588	-1.168903
H121	H	1.075229	-0.461532	-1.155938
H122	H	1.086566	-0.529931	-1.062721
H123	H	1.140534	-0.581413	-1.015621
H124	H	1.150327	-0.573355	-0.845244
H125	H	0.782000	-0.595261	-0.641833
H126	H	0.623587	-0.392590	-0.423745
O127	O	0.603880	-0.594229	-0.640681
C128	C	0.607250	-0.700545	-0.755182
C129	C	0.662482	-0.644587	-0.694984
H130	H	0.654606	-0.741262	-0.799115
H131	H	0.565666	-0.737573	-0.711346
H132	H	0.560577	-0.664182	-0.799699
H133	H	0.709204	-0.680888	-0.650458
H134	H	0.704006	-0.607557	-0.738874
O135	O	0.760750	-0.338057	-0.364999
C136	C	0.619003	-0.283008	-0.305846
C137	C	0.667072	-0.344427	-0.371967
H138	H	0.543257	-0.288126	-0.311470
H139	H	0.641546	-0.294338	-0.234351
H140	H	0.636628	-0.221046	-0.322811
H141	H	0.649470	-0.406413	-0.355084
H142	H	0.644526	-0.333028	-0.443442
