data_functionalizedCrystal
_audit_creation_method	'MofGen! by Chris Wilmer'
_symmetry_space_group_name_H-M	'P1'
_symmetry_Int_Tables_number	1
_symmetry_cell_setting	triclinic
loop_
_symmetry_equiv_pos_as_xyz
  x,y,z
_cell_length_a	10.686285
_cell_length_b	10.686154
_cell_length_c	10.686551
_cell_angle_alpha	89.693980
_cell_angle_beta	80.915481
_cell_angle_gamma	89.657472
loop_
_atom_site_label
_atom_site_type_symbol
_atom_site_fract_x
_atom_site_fract_y
_atom_site_fract_z
Zn1	Zn	-0.307990	-1.994023	-0.537206
Zn2	Zn	0.192010	-1.494023	-0.037206
Zn3	Zn	-0.536577	-1.993922	-0.308711
Zn4	Zn	-0.036577	-1.493922	0.191289
Zn5	Zn	-0.340287	-1.770420	-0.340869
Zn6	Zn	0.159713	-1.270420	0.159131
Zn7	Zn	-0.534009	-1.800171	-0.534692
Zn8	Zn	-0.034009	-1.300171	-0.034692
O9	O	-0.429716	-1.889634	-0.430369
O10	O	0.070284	-1.389634	0.069631
O11	O	-0.325871	-2.168674	-0.494489
O12	O	0.174129	-1.668674	0.005511
O13	O	-0.525130	-1.951781	-0.136235
O14	O	-0.025130	-1.451781	0.363765
O15	O	-0.159265	-1.787673	-0.381423
O16	O	0.340735	-1.287673	0.118577
O17	O	-0.493813	-2.168600	-0.326614
O18	O	0.006187	-1.668600	0.173386
O19	O	-0.135536	-1.951953	-0.525671
O20	O	0.364464	-1.451953	-0.025671
O21	O	-0.380916	-1.787575	-0.159861
O22	O	0.119084	-1.287575	0.340139
O23	O	-0.378426	-1.599702	-0.378986
O24	O	0.121574	-1.099702	0.121014
O25	O	-0.489436	-1.838379	-0.711768
O26	O	0.010564	-1.338379	-0.211768
O27	O	-0.520753	-1.621560	-0.521388
O28	O	-0.020753	-1.121560	-0.021388
O29	O	-0.323381	-1.980801	-0.713614
O30	O	0.176619	-1.480801	-0.213614
O31	O	-0.712974	-1.980629	-0.324177
O32	O	-0.212974	-1.480629	0.175823
O33	O	-0.711087	-1.838281	-0.490205
O34	O	-0.211087	-1.338281	0.009795
C35	C	-0.757852	-1.912708	-0.403454
C36	C	-0.257852	-1.412708	0.096546
C37	C	-0.898219	-1.922697	-0.391974
C38	C	-0.398219	-1.422697	0.108026
C39	C	-0.452816	-1.565343	-0.453405
C40	C	0.047184	-1.065343	0.046595
C41	C	-0.462726	-1.426613	-0.463287
C42	C	0.037274	-0.926613	0.036713
C43	C	-0.402519	-1.912920	-0.759800
C44	C	0.097481	-1.412920	-0.259800
C45	C	-0.390930	-1.922843	-0.900183
C46	C	0.109070	-1.422843	-0.400183
C47	C	-0.100293	-1.866506	-0.457415
C48	C	0.399707	-1.366506	0.042585
C49	C	0.040087	-1.856650	-0.468940
C50	C	0.540087	-1.356650	0.031060
C51	C	-0.406514	-1.215191	-0.407238
C52	C	0.093486	-0.715191	0.092762
C53	C	-0.396598	-1.353920	-0.397362
C54	C	0.103402	-0.853920	0.102638
C55	C	-0.456710	-1.866504	-0.102223
C56	C	0.043290	-1.366504	0.397777
C57	C	-0.467927	-1.856798	0.038148
C58	C	0.032073	-1.356798	0.538148
H59	H	-0.905348	-1.792463	-0.543619
H60	H	-0.405348	-1.292463	-0.043619
H61	H	-0.542716	-1.792666	-0.907252
H62	H	-0.042716	-1.292666	-0.407252
C63	C	-1.101330	-2.002873	-0.298958
C64	C	-0.601330	-1.502873	0.201042
C65	C	-0.971872	-2.009399	-0.291189
C66	C	-0.471872	-1.509399	0.208811
H67	H	-1.146794	-2.056419	-0.236757
H68	H	-0.646794	-1.556419	0.263243
H69	H	-1.130488	-1.919258	-0.284558
H70	H	-0.630488	-1.419258	0.215442
H71	H	-1.114503	-2.028539	-0.380827
H72	H	-0.614503	-1.528539	0.119173
H73	H	-0.958697	-1.983724	-0.209323
H74	H	-0.458697	-1.483724	0.290677
H75	H	-0.942704	-2.093032	-0.305581
H76	H	-0.442704	-1.593032	0.194419
H77	H	-0.526935	-1.382712	-0.527284
H78	H	-0.026935	-0.882712	-0.027284
C79	C	-0.297625	-2.002829	-1.103358
C80	C	0.202375	-1.502829	-0.603358
C81	C	-0.289956	-2.009427	-0.973889
C82	C	0.210044	-1.509427	-0.473889
H83	H	-0.235281	-2.056275	-1.148858
H84	H	0.264719	-1.556275	-0.648858
H85	H	-0.379411	-2.028569	-1.116645
H86	H	0.120589	-1.528569	-0.616645
H87	H	-0.283361	-1.919169	-1.132377
H88	H	0.216639	-1.419169	-0.632377
H89	H	-0.304229	-2.093086	-0.944867
H90	H	0.195771	-1.593086	-0.444867
H91	H	-0.208150	-1.983694	-0.960594
H92	H	0.291850	-1.483694	-0.460594
C93	C	-0.382450	-1.487394	-0.218640
C94	C	0.117550	-0.987394	0.281360
C95	C	-0.309927	-1.413173	-0.310964
C96	C	0.190073	-0.913173	0.189036
H97	H	-0.328939	-1.523985	-0.165307
H98	H	0.171061	-1.023985	0.334693
H99	H	-0.444975	-1.436970	-0.169314
H100	H	0.055025	-0.936970	0.330686
H101	H	-0.422604	-1.551579	-0.258690
H102	H	0.077396	-1.051579	0.241310
H103	H	-0.269780	-1.348982	-0.270913
H104	H	0.230220	-0.848982	0.229087
H105	H	-0.247380	-1.463600	-0.360296
H106	H	0.252620	-0.963600	0.139704
