data_functionalizedCrystal
_audit_creation_method	'MofGen! by Chris Wilmer'
_symmetry_space_group_name_H-M	'P1'
_symmetry_Int_Tables_number	1
_symmetry_cell_setting	triclinic
loop_
_symmetry_equiv_pos_as_xyz
  x,y,z
_cell_length_a	21.395364
_cell_length_b	21.395362
_cell_length_c	21.395355
_cell_angle_alpha	90.021787
_cell_angle_beta	89.975448
_cell_angle_gamma	89.949410
loop_
_atom_site_label
_atom_site_type_symbol
_atom_site_fract_x
_atom_site_fract_y
_atom_site_fract_z
Zn1	Zn	0.957838	0.249261	-0.354247
Zn2	Zn	0.957731	0.354021	-0.249464
Zn3	Zn	0.853053	0.249289	-0.249484
Zn4	Zn	0.853013	0.354032	-0.354204
O5	O	0.905409	0.301651	-0.301850
O6	O	1.045502	0.263142	-0.340357
O7	O	0.943817	0.340135	-0.161789
O8	O	0.867014	0.161607	-0.263408
O9	O	1.045423	0.340108	-0.263373
O10	O	0.943999	0.161587	-0.340377
O11	O	0.866911	0.263188	-0.161803
O12	O	0.765370	0.263199	-0.263366
O13	O	0.866946	0.340127	-0.441888
O14	O	0.765340	0.340154	-0.340303
O15	O	0.943960	0.263152	-0.441919
O16	O	0.943779	0.441700	-0.263331
O17	O	0.866843	0.441709	-0.340283
C18	C	0.742621	0.301681	-0.301832
C19	C	0.672980	0.301709	-0.301839
C20	C	0.905312	0.464438	-0.301814
C21	C	0.905328	0.534080	-0.301820
C22	C	0.640330	0.261698	-0.341987
C23	C	0.574894	0.261682	-0.341989
C24	C	0.542111	0.301687	-0.301851
C25	C	0.574769	0.341701	-0.261696
C26	C	0.640204	0.341712	-0.261690
C27	C	0.438382	0.358112	-0.296810
C28	C	0.372949	0.358102	-0.296820
C29	C	0.340291	0.301653	-0.301865
C30	C	0.373073	0.245212	-0.306913
C31	C	0.438507	0.245223	-0.306907
C32	C	0.471159	0.301679	-0.301852
C33	C	0.236688	0.261620	-0.342017
C34	C	0.171252	0.261603	-0.342015
C35	C	0.171128	0.341627	-0.261725
C36	C	0.236563	0.341640	-0.261723
C37	C	0.269339	0.301637	-0.301873
C38	C	0.945388	0.566725	-0.341925
C39	C	0.945403	0.632161	-0.341939
C40	C	0.905365	0.664948	-0.301836
C41	C	0.865298	0.632294	-0.261728
C42	C	0.865279	0.566860	-0.261720
C43	C	0.900477	0.768650	-0.245395
C44	C	0.900501	0.834082	-0.245403
C45	C	0.905419	0.866769	-0.301862
C46	C	0.910327	0.834014	-0.358316
C47	C	0.910309	0.768580	-0.358308
C48	C	0.905381	0.735900	-0.301841
C49	C	0.945498	0.970367	-0.341986
C50	C	0.945508	1.035804	-0.342001
C51	C	0.865406	1.035936	-0.261784
C52	C	0.865392	0.970501	-0.261775
C53	C	0.905441	0.937720	-0.301875
C54	C	1.068832	0.301621	-0.301868
C55	C	1.138473	0.301608	-0.301875
C56	C	0.905461	0.301638	-0.465273
C57	C	0.905483	0.301633	-0.534914
C58	C	0.905497	1.138227	-0.301894
C59	C	0.905469	1.068586	-0.301899
C60	C	0.945582	0.261550	-0.567645
C61	C	0.945582	0.261523	-0.633080
C62	C	0.905488	0.301590	-0.665783
C63	C	0.865380	0.341675	-0.633044
C64	C	0.865378	0.341697	-0.567610
C65	C	0.900507	0.358007	-0.769445
C66	C	0.900514	0.357986	-0.834878
C67	C	0.905492	0.301524	-0.867604
C68	C	0.910476	0.245080	-0.834888
C69	C	0.910473	0.245101	-0.769454
C70	C	0.905486	0.301571	-0.736735
C71	C	0.945592	0.261409	-0.971287
C72	C	0.945587	0.261381	-1.036724
C73	C	0.865389	0.341538	-1.036686
C74	C	0.865391	0.341561	-0.971251
C75	C	0.905496	0.301497	-0.938555
C76	C	0.905393	0.301618	-0.139062
C77	C	0.905492	0.301447	-0.069421
H78	H	0.667012	0.229125	-0.374679
C79	C	0.337161	0.183113	-0.312460
H80	H	0.366056	0.149503	-0.315469
H81	H	0.311624	0.177547	-0.276564
H82	H	0.311651	0.183976	-0.348782
H83	H	0.144669	0.229017	-0.374707
H84	H	0.914334	0.860625	-0.404291
C85	C	0.989699	0.217338	-0.935316
H86	H	0.983961	0.223097	-0.891658
H87	H	0.980560	0.175238	-0.946036
H88	H	1.031793	0.226500	-0.946059
H89	H	0.978240	0.228737	-1.063372
C90	C	0.474300	0.420210	-0.291266
H91	H	0.445407	0.453822	-0.288271
H92	H	0.499811	0.419353	-0.254948
H93	H	0.499836	0.425770	-0.327168
H94	H	0.914530	0.199103	-0.861532
H95	H	0.832697	0.658994	-0.229077
C96	C	0.989471	0.668082	-0.386054
H97	H	0.983743	0.711747	-0.380317
H98	H	1.031570	0.657314	-0.376919
H99	H	0.980278	0.657350	-0.428146
C100	C	0.821291	0.385615	-1.072650
H101	H	0.827038	0.379866	-1.116309
H102	H	0.779198	0.376463	-1.061912
H103	H	0.830439	0.427715	-1.061927
H104	H	0.832741	0.374204	-0.944601
H105	H	0.666787	0.374295	-0.228996
H106	H	0.896459	0.403946	-0.861510
C107	C	0.821214	0.530946	-0.217601
H108	H	0.826935	0.487280	-0.223342
H109	H	0.830403	0.541680	-0.175513
H110	H	0.779112	0.541712	-0.226740
C111	C	0.989691	0.217477	-0.531683
H112	H	1.013569	0.193597	-0.560552
H113	H	1.016972	0.241446	-0.506165
H114	H	0.965738	0.190186	-0.506152
C115	C	0.894894	0.420107	-0.733453
H116	H	0.891894	0.453715	-0.762307
H117	H	0.858543	0.419219	-0.707963
H118	H	0.930753	0.425699	-0.707891
C119	C	0.135075	0.385636	-0.217576
H120	H	0.091428	0.379902	-0.223332
H121	H	0.145786	0.376410	-0.175493
H122	H	0.145760	0.427750	-0.226674
C123	C	0.821281	0.385750	-0.669014
H124	H	0.827031	0.380002	-0.712672
H125	H	0.779189	0.376594	-0.658277
H126	H	0.830426	0.427851	-0.658289
C127	C	0.989693	0.217433	-0.669095
H128	H	0.983946	0.223156	-0.712748
H129	H	1.031783	0.226600	-0.658388
H130	H	0.980551	0.175337	-0.658372
C131	C	0.989439	0.530670	-0.386034
H132	H	1.013298	0.559489	-0.409924
H133	H	1.016741	0.505125	-0.362086
H134	H	0.965452	0.505159	-0.413314
C135	C	0.915945	0.183018	-0.733469
H136	H	0.918906	0.149385	-0.762326
H137	H	0.952260	0.183831	-0.707954
H138	H	0.880033	0.177532	-0.707933
C139	C	0.538711	0.385708	-0.217547
H140	H	0.495064	0.379977	-0.223305
H141	H	0.549420	0.376480	-0.175465
H142	H	0.549397	0.427823	-0.226643
H143	H	0.832721	0.374336	-0.540961
H144	H	0.548305	0.229097	-0.374681
H145	H	0.263147	0.374223	-0.229033
H146	H	0.346263	0.404059	-0.292713
C147	C	0.915701	0.732549	-0.420400
H148	H	0.914990	0.688898	-0.412306
H149	H	0.881608	0.743297	-0.446726
H150	H	0.953842	0.743215	-0.440472
C151	C	0.474566	0.183143	-0.312450
H152	H	0.445749	0.149520	-0.315451
H153	H	0.500112	0.184013	-0.348762
H154	H	0.500076	0.177593	-0.276543
C155	C	0.895101	0.870107	-0.183307
H156	H	0.892158	0.841270	-0.149682
H157	H	0.931018	0.895593	-0.177831
H158	H	0.858786	0.895674	-0.184096
H159	H	0.978106	0.943676	-0.374640
H160	H	0.263376	0.229044	-0.374705
H161	H	0.978130	1.062383	-0.374663
H162	H	0.832803	1.062631	-0.229136
C163	C	0.895067	0.732701	-0.183286
H164	H	0.892155	0.761578	-0.149666
H165	H	0.858741	0.707216	-0.184061
H166	H	0.930975	0.707137	-0.177810
C167	C	0.821330	0.934585	-0.217656
H168	H	0.827050	0.890920	-0.223398
H169	H	0.830521	0.945319	-0.175567
H170	H	0.779229	0.945354	-0.226794
