data_functionalizedCrystal
_audit_creation_method	'MofGen! by Chris Wilmer'
_symmetry_space_group_name_H-M	'P1'
_symmetry_Int_Tables_number	1
_symmetry_cell_setting	triclinic
loop_
_symmetry_equiv_pos_as_xyz
  x,y,z
_cell_length_a	29.839134
_cell_length_b	19.077356
_cell_length_c	29.839126
_cell_angle_alpha	87.691801
_cell_angle_beta	89.970362
_cell_angle_gamma	92.293749
loop_
_atom_site_label
_atom_site_type_symbol
_atom_site_fract_x
_atom_site_fract_y
_atom_site_fract_z
Zn1	Zn	0.679690	-0.280349	-0.246978
Zn2	Zn	1.179690	0.219651	0.253022
Zn3	Zn	0.676646	-0.398036	-0.168848
Zn4	Zn	1.176646	0.101964	0.331152
Zn5	Zn	0.604562	-0.280347	-0.171848
Zn6	Zn	1.104562	0.219653	0.328152
Zn7	Zn	0.601556	-0.397999	-0.243937
Zn8	Zn	1.101556	0.102001	0.256063
O9	O	0.640613	-0.339183	-0.207903
O10	O	1.140613	0.160817	0.292097
O11	O	0.742153	-0.295977	-0.236631
O12	O	1.242153	0.204023	0.263369
O13	O	0.667069	-0.382439	-0.106378
O14	O	1.167069	0.117561	0.393622
O15	O	0.617060	-0.181857	-0.184342
O16	O	1.117060	0.318143	0.315658
O17	O	0.739917	-0.382441	-0.179229
O18	O	1.239917	0.117559	0.320771
O19	O	0.672256	-0.181859	-0.239540
O20	O	1.172256	0.318141	0.260460
O21	O	0.614109	-0.295973	-0.108582
O22	O	1.114109	0.204027	0.391418
O23	O	0.541297	-0.295937	-0.181393
O24	O	1.041297	0.204063	0.318607
O25	O	0.611936	-0.382378	-0.307208
O26	O	1.111936	0.117622	0.192792
O27	O	0.539088	-0.382376	-0.234357
O28	O	1.039088	0.117624	0.265643
O29	O	0.669340	-0.295941	-0.309442
O30	O	1.169340	0.204059	0.190558
O31	O	0.664153	-0.496521	-0.176280
O32	O	1.164153	0.003479	0.323720
O33	O	0.608985	-0.496494	-0.231448
O34	O	1.108985	0.003506	0.268552
C35	C	0.523892	-0.339153	-0.207871
C36	C	1.023892	0.160847	0.292129
C37	C	0.473957	-0.339157	-0.207868
C38	C	0.973957	0.160843	0.292132
C39	C	0.635925	-0.522045	-0.203219
C40	C	1.135925	-0.022045	0.296781
C41	C	0.633960	-0.600275	-0.201230
C42	C	1.133960	-0.100275	0.298770
C43	C	0.640642	-0.339156	-0.325082
C44	C	1.140642	0.160844	0.174918
C45	C	0.640654	-0.339144	-0.375016
C46	C	1.140654	0.160856	0.124984
C47	C	0.163171	-0.384258	-0.235444
C48	C	0.663171	0.115742	0.264556
C49	C	-0.024503	-0.384278	-0.235463
C50	C	0.475497	0.115722	0.264537
O51	O	-0.049739	-0.422591	-0.258891
O52	O	0.450261	0.077409	0.241109
N53	N	-0.046829	-0.339209	-0.207936
N54	N	0.453171	0.160791	0.292064
C55	C	-0.022234	-0.294128	-0.180403
C56	C	0.477766	0.205872	0.319597
O57	O	-0.045530	-0.255789	-0.156993
O58	O	0.454470	0.244211	0.343007
C59	C	0.165439	-0.294105	-0.180387
C60	C	0.665439	0.205895	0.319613
C61	C	0.187762	-0.339182	-0.207913
C62	C	0.687762	0.160818	0.292087
C63	C	0.185494	-0.429331	-0.262968
C64	C	0.685494	0.070669	0.237032
C65	C	0.232410	-0.429328	-0.262961
C66	C	0.732410	0.070672	0.237039
C67	C	0.257002	-0.384253	-0.235430
C68	C	0.757002	0.115747	0.264570
C69	C	0.234678	-0.339180	-0.207906
C70	C	0.734678	0.160820	0.292094
C71	C	0.190033	-0.249022	-0.152857
C72	C	0.690033	0.250978	0.347143
C73	C	0.236954	-0.249019	-0.152856
C74	C	0.736954	0.250981	0.347144
C75	C	0.259278	-0.294096	-0.180382
C76	C	0.759278	0.205904	0.319618
C77	C	0.306185	-0.294101	-0.180368
C78	C	0.806185	0.205899	0.319632
N79	N	0.328511	-0.339171	-0.207895
N80	N	0.828511	0.160829	0.292105
C81	C	0.303920	-0.384246	-0.235427
C82	C	0.803920	0.115754	0.264573
C83	C	-0.120765	-0.294144	-0.180414
C84	C	0.379235	0.205856	0.319586
C85	C	-0.167683	-0.294151	-0.180417
C86	C	0.332317	0.205849	0.319583
C87	C	-0.169949	-0.384300	-0.235478
C88	C	0.330051	0.115700	0.264522
C89	C	-0.123030	-0.384296	-0.235472
C90	C	0.376970	0.115704	0.264528
C91	C	-0.098439	-0.339213	-0.207941
C92	C	0.401561	0.160787	0.292059
C93	C	0.402446	-0.384237	-0.235410
C94	C	0.902446	0.115763	0.264590
C95	C	0.449365	-0.384233	-0.235399
C96	C	0.949365	0.115767	0.264601
C97	C	0.451627	-0.294082	-0.180340
C98	C	0.951627	0.205918	0.319660
C99	C	0.404711	-0.294088	-0.180349
C100	C	0.904711	0.205912	0.319651
C101	C	0.380122	-0.339169	-0.207887
C102	C	0.880122	0.160831	0.292113
O103	O	0.331449	-0.255803	-0.156956
O104	O	0.831449	0.244197	0.343044
O105	O	0.327224	-0.422568	-0.258840
O106	O	0.827224	0.077432	0.241160
C107	C	0.116255	-0.384261	-0.235451
C108	C	0.616255	0.115739	0.264549
C109	C	0.093931	-0.339188	-0.207927
C110	C	0.593931	0.160812	0.292073
C111	C	0.118523	-0.294112	-0.180396
C112	C	0.618523	0.205888	0.319604
C113	C	0.047013	-0.339194	-0.207930
C114	C	0.547013	0.160806	0.292070
C115	C	0.022422	-0.384270	-0.235461
C116	C	0.522422	0.115730	0.264539
C117	C	0.044748	-0.429339	-0.262989
C118	C	0.544748	0.070661	0.237011
C119	C	0.091663	-0.429336	-0.262982
C120	C	0.591663	0.070664	0.237018
C121	C	0.096197	-0.249043	-0.152868
C122	C	0.596197	0.250957	0.347132
C123	C	0.049281	-0.249050	-0.152877
C124	C	0.549281	0.250950	0.347123
C125	C	0.024689	-0.294126	-0.180408
C126	C	0.524689	0.205874	0.319592
C127	C	0.757791	-0.339213	-0.207935
C128	C	1.257791	0.160787	0.292065
C129	C	0.807725	-0.339226	-0.207948
C130	C	1.307725	0.160774	0.292052
C131	C	0.645333	-0.155606	-0.212615
C132	C	1.145333	0.344394	0.287385
C133	C	0.647344	-0.077377	-0.214623
C134	C	1.147344	0.422623	0.285377
C135	C	0.619553	-0.040623	-0.186829
C136	C	1.119553	0.459377	0.313171
C137	C	0.621442	0.032882	-0.188720
C138	C	1.121442	0.532882	0.311280
C139	C	0.651124	0.069631	-0.218403
C140	C	1.151124	0.569631	0.281597
C141	C	0.678916	0.032872	-0.246201
C142	C	1.178916	0.532872	0.253799
C143	C	0.677025	-0.040632	-0.244311
C144	C	1.177025	0.459368	0.255689
C145	C	0.659860	0.289463	-0.227138
C146	C	1.159860	0.789463	0.272862
C147	C	0.661751	0.362971	-0.229024
C148	C	1.161751	0.862971	0.270976
C149	C	0.604276	0.362976	-0.171543
C150	C	1.104276	0.862976	0.328457
C151	C	0.602389	0.289472	-0.169655
C152	C	1.102389	0.789472	0.330345
C153	C	0.630179	0.252719	-0.197454
C154	C	1.130179	0.752719	0.302546
N155	N	0.653057	0.144765	-0.220336
N156	N	1.153057	0.644765	0.279664
N157	N	0.628244	0.177586	-0.195523
N158	N	1.128244	0.677586	0.304477
C159	C	0.613089	-0.294051	-0.685812
C160	C	1.113089	0.205949	-0.185812
C161	C	0.613103	-0.294003	-0.873487
C162	C	1.113103	0.205997	-0.373487
O163	O	0.589641	-0.255733	-0.898729
O164	O	1.089641	0.244267	-0.398729
N165	N	0.640679	-0.339012	-0.895805
N166	N	1.140679	0.160988	-0.395805
C167	C	0.668251	-0.384041	-0.871202
C168	C	1.168251	0.115959	-0.371202
O169	O	0.691703	-0.422329	-0.894491
O170	O	1.191703	0.077671	-0.394491
C171	C	0.668235	-0.384093	-0.683528
C172	C	1.168235	0.115907	-0.183528
C173	C	0.640660	-0.339075	-0.661212
C174	C	1.140660	0.160925	-0.161212
C175	C	0.585516	-0.249038	-0.663496
C176	C	1.085516	0.250962	-0.163496
C177	C	0.585515	-0.249048	-0.616581
C178	C	1.085515	0.250952	-0.116581
C179	C	0.613086	-0.294071	-0.591981
C180	C	1.113086	0.205929	-0.091981
C181	C	0.640659	-0.339085	-0.614297
C182	C	1.140659	0.160915	-0.114297
C183	C	0.695804	-0.429124	-0.658926
C184	C	1.195804	0.070876	-0.158926
C185	C	0.695797	-0.429135	-0.612005
C186	C	1.195797	0.070865	-0.112005
C187	C	0.668222	-0.384117	-0.589689
C188	C	1.168222	0.115883	-0.089689
C189	C	0.668228	-0.384118	-0.542781
C190	C	1.168228	0.115882	-0.042781
N191	N	0.640652	-0.339109	-0.520463
N192	N	1.140652	0.160891	-0.020463
C193	C	0.613081	-0.294085	-0.545063
C194	C	1.113081	0.205915	-0.045063
C195	C	0.668259	-0.384010	-0.969733
C196	C	1.168259	0.115990	-0.469733
C197	C	0.668263	-0.383996	-1.016652
C198	C	1.168263	0.116004	-0.516652
C199	C	0.613114	-0.293958	-1.018933
C200	C	1.113114	0.206042	-0.518933
C201	C	0.613112	-0.293969	-0.972014
C202	C	1.113112	0.206031	-0.472014
C203	C	0.640683	-0.339000	-0.947415
C204	C	1.140683	0.161000	-0.447415
C205	C	0.613080	-0.294109	-0.446536
C206	C	1.113080	0.205891	0.053464
C207	C	0.613083	-0.294121	-0.399616
C208	C	1.113083	0.205879	0.100384
C209	C	0.668230	-0.384161	-0.397339
C210	C	1.168230	0.115839	0.102661
C211	C	0.668230	-0.384147	-0.444255
C212	C	1.168230	0.115853	0.055745
C213	C	0.640651	-0.339118	-0.468852
C214	C	1.140651	0.160882	0.031148
O215	O	0.691674	-0.422374	-0.517510
O216	O	1.191674	0.077626	-0.017510
O217	O	0.589625	-0.255814	-0.521765
O218	O	1.089625	0.244186	-0.021765
C219	C	0.613090	-0.294041	-0.732728
C220	C	1.113090	0.205959	-0.232728
C221	C	0.640663	-0.339055	-0.755044
C222	C	1.140663	0.160945	-0.255044
C223	C	0.668234	-0.384079	-0.730444
C224	C	1.168234	0.115921	-0.230444
C225	C	0.640668	-0.339041	-0.801962
C226	C	1.140668	0.160959	-0.301962
C227	C	0.613096	-0.294018	-0.826562
C228	C	1.113096	0.205982	-0.326562
C229	C	0.585520	-0.249008	-0.804243
C230	C	1.085520	0.250992	-0.304243
C231	C	0.585519	-0.249018	-0.757328
C232	C	1.085519	0.250982	-0.257328
C233	C	0.695810	-0.429089	-0.752763
C234	C	1.195810	0.070911	-0.252763
C235	C	0.695810	-0.429074	-0.799679
C236	C	1.195810	0.070926	-0.299679
C237	C	0.668238	-0.384051	-0.824278
C238	C	1.168238	0.115949	-0.324278
C239	C	0.640612	-0.339159	-0.091181
C240	C	1.140612	0.160841	0.408819
C241	C	0.640692	-0.338972	-0.041251
C242	C	1.140692	0.161028	0.458749
H243	H	0.382430	-0.420945	-0.257835
H244	H	0.882430	0.079055	0.242165
H245	H	0.699651	-0.070556	-0.266948
H246	H	1.199651	0.429444	0.233052
C247	C	0.583093	-0.245217	-0.375470
C248	C	1.083093	0.254783	0.124530
C249	C	0.558939	-0.205802	-0.407059
C250	C	1.058939	0.294198	0.092941
C251	C	0.531304	-0.160755	-0.384834
C252	C	1.031304	0.339245	0.115166
H253	H	0.601016	-0.214495	-0.357962
H254	H	1.101016	0.285505	0.142038
H255	H	0.562802	-0.272124	-0.356477
H256	H	1.062802	0.227876	0.143523
H257	H	0.579228	-0.178898	-0.426044
H258	H	1.079228	0.321102	0.073956
H259	H	0.541007	-0.236506	-0.424568
H260	H	1.041007	0.263494	0.075432
H261	H	0.511012	-0.187662	-0.365841
H262	H	1.011012	0.312338	0.134159
H263	H	0.549230	-0.130038	-0.367327
H264	H	1.049230	0.369962	0.132673
H265	H	0.514909	-0.134011	-0.406263
H266	H	1.014909	0.365989	0.093737
H267	H	0.590659	-0.257311	-0.953848
H268	H	1.090659	0.242689	-0.453848
H269	H	0.250582	-0.466033	-0.285377
H270	H	0.750582	0.033967	0.214623
H271	H	0.590666	-0.257296	-1.038970
H272	H	1.090666	0.242704	-0.538970
H273	H	-0.100747	-0.257432	-0.157993
H274	H	0.399253	0.242568	0.342007
C275	C	0.570125	0.249491	-0.137502
C276	C	1.070125	0.749491	0.362498
C277	C	0.540259	0.207298	-0.161851
C278	C	1.040259	0.707298	0.338149
C279	C	0.510534	0.170454	-0.132247
C280	C	1.010534	0.670454	0.367753
H281	H	0.553799	0.281833	-0.121211
H282	H	1.053799	0.781833	0.378789
H283	H	0.586549	0.220765	-0.117198
H284	H	1.086549	0.720765	0.382802
H285	H	0.523837	0.236022	-0.182147
H286	H	1.023837	0.736022	0.317853
H287	H	0.556572	0.174943	-0.178141
H288	H	1.056572	0.674943	0.321859
H289	H	0.526957	0.141728	-0.111943
H290	H	1.026957	0.641728	0.388057
H291	H	0.494211	0.202801	-0.115957
H292	H	0.994211	0.702801	0.384043
H293	H	0.490269	0.141817	-0.148763
H294	H	0.990269	0.641817	0.351237
H295	H	0.590624	-0.257442	-0.466558
H296	H	1.090624	0.242558	0.033442
H297	H	0.598812	0.062807	-0.166088
H298	H	1.098812	0.562807	0.333912
H299	H	0.165477	-0.466037	-0.285390
H300	H	0.665477	0.033963	0.214610
C301	C	0.711130	0.072895	-0.278383
C302	C	1.211130	0.572895	0.221617
C303	C	0.706848	0.145134	-0.274081
C304	C	1.206848	0.645134	0.225919
C305	C	0.736522	0.182023	-0.303715
C306	C	1.236522	0.682023	0.196285
H307	H	0.704283	0.060942	-0.308278
H308	H	1.204283	0.560942	0.191722
H309	H	0.741013	0.060877	-0.271503
H310	H	1.241013	0.560877	0.228497
H311	H	0.676971	0.157147	-0.280964
H312	H	1.176971	0.657147	0.219036
H313	H	0.713699	0.157108	-0.244193
H314	H	1.213699	0.657108	0.255807
H315	H	0.766406	0.170005	-0.296835
H316	H	1.266406	0.670005	0.203165
H317	H	0.729673	0.170064	-0.333608
H318	H	1.229673	0.670064	0.166392
H319	H	0.733624	0.231041	-0.300797
H320	H	1.233624	0.731041	0.199203
C321	C	0.574122	0.403007	-0.141419
C322	C	1.074122	0.903007	0.358581
C323	C	0.582121	0.475244	-0.149433
C324	C	1.082121	0.975244	0.350567
C325	C	0.554345	0.512142	-0.121695
C326	C	1.054345	1.012142	0.378305
H327	H	0.580352	0.391039	-0.110910
H328	H	1.080352	0.891039	0.389090
H329	H	0.543621	0.391011	-0.147683
H330	H	1.043621	0.891011	0.352317
H331	H	0.612615	0.487236	-0.143166
H332	H	1.112615	0.987236	0.356834
H333	H	0.575888	0.487233	-0.179937
H334	H	1.075888	0.987233	0.320063
H335	H	0.523843	0.500145	-0.127960
H336	H	1.023843	1.000145	0.372040
H337	H	0.560577	0.500168	-0.091188
H338	H	1.060577	1.000168	0.408812
H339	H	0.559765	0.561158	-0.127132
H340	H	1.059765	1.061158	0.372868
H341	H	0.682494	0.259547	-0.249769
H342	H	1.182494	0.759547	0.250231
H343	H	0.595384	-0.070539	-0.162655
H344	H	1.095384	0.429461	0.337345
C345	C	-0.098877	-0.433259	-0.265409
C346	C	0.401123	0.066741	0.234591
C347	C	-0.130461	-0.472721	-0.289526
C348	C	0.369539	0.027279	0.210474
C349	C	-0.108230	-0.517826	-0.317115
C350	C	0.391770	-0.017826	0.182885
H351	H	-0.081365	-0.463949	-0.247457
H352	H	0.418635	0.036051	0.252543
H353	H	-0.079887	-0.406392	-0.285724
H354	H	0.420113	0.093608	0.214276
H355	H	-0.149442	-0.499586	-0.269213
H356	H	0.350558	0.000414	0.230787
H357	H	-0.147973	-0.442050	-0.307486
H358	H	0.352027	0.057950	0.192514
H359	H	-0.089240	-0.490959	-0.337430
H360	H	0.410760	0.009041	0.162570
H361	H	-0.090719	-0.548512	-0.299160
H362	H	0.409281	-0.048512	0.200840
H363	H	-0.129656	-0.544602	-0.333485
H364	H	0.370344	-0.044602	0.166515
H365	H	0.386534	-0.257384	-0.157934
H366	H	0.886534	0.242616	0.342066
C367	C	0.693987	0.402745	-0.261306
C368	C	1.193987	0.902745	0.238694
C369	C	0.717909	0.354827	-0.285258
C370	C	1.217909	0.854827	0.214742
C371	C	0.747601	0.391441	-0.315004
C372	C	1.247601	0.891441	0.184996
H373	H	0.714337	0.431415	-0.244918
H374	H	1.214337	0.931415	0.255082
H375	H	0.677547	0.431410	-0.281632
H376	H	1.177547	0.931410	0.218368
H377	H	0.734348	0.326174	-0.264935
H378	H	1.234348	0.826174	0.235065
H379	H	0.697570	0.326156	-0.301656
H380	H	1.197570	0.826156	0.198344
H381	H	0.731161	0.420106	-0.335330
H382	H	1.231161	0.920106	0.164670
H383	H	0.767948	0.420110	-0.298612
H384	H	1.267948	0.920110	0.201388
H385	H	0.763833	0.358935	-0.331262
H386	H	1.263833	0.858935	0.168738
C387	C	0.698094	-0.433064	-0.468540
C388	C	1.198094	0.066936	0.031460
C389	C	0.671495	-0.478154	-0.494309
C390	C	1.171495	0.021846	0.005691
C391	C	0.698987	-0.523228	-0.516686
C392	C	1.198987	-0.023228	-0.016686
H393	H	0.714522	-0.459945	-0.447216
H394	H	1.214522	0.040055	0.052784
H395	H	0.718355	-0.406170	-0.487572
H396	H	1.218355	0.093830	0.012428
H397	H	0.651243	-0.505046	-0.475278
H398	H	1.151243	-0.005046	0.024722
H399	H	0.655068	-0.451293	-0.515640
H400	H	1.155068	0.048707	-0.015640
H401	H	0.719248	-0.496334	-0.535718
H402	H	1.219248	0.003666	-0.035718
H403	H	0.715414	-0.550104	-0.495359
H404	H	1.215414	-0.050104	0.004641
H405	H	0.680945	-0.553823	-0.534176
H406	H	1.180945	-0.053823	-0.034176
H407	H	0.563059	-0.212392	-0.598415
H408	H	1.063059	0.287608	-0.098415
C409	C	0.698221	-0.432944	-1.040794
C410	C	1.198221	0.067056	-0.540794
C411	C	0.722354	-0.472387	-1.009203
C412	C	1.222354	0.027613	-0.509203
C413	C	0.749950	-0.517497	-1.031424
C414	C	1.249950	-0.017497	-0.531424
H415	H	0.718529	-0.406103	-1.059796
H416	H	1.218529	0.093897	-0.559796
H417	H	0.680258	-0.463641	-1.058292
H418	H	1.180258	0.036359	-0.558292
H419	H	0.740315	-0.441695	-0.991713
H420	H	1.240315	0.058305	-0.491713
H421	H	0.702058	-0.499243	-0.990200
H422	H	1.202058	0.000757	-0.490200
H423	H	0.731987	-0.548193	-1.048921
H424	H	1.231987	-0.048193	-0.548921
H425	H	0.770254	-0.490650	-1.050425
H426	H	1.270254	0.009350	-0.550425
H427	H	0.766324	-0.544269	-1.009992
H428	H	1.266324	-0.044269	-0.509992
C429	C	0.555565	-0.200070	-0.690121
C430	C	1.055565	0.299930	-0.190121
C431	C	0.531429	-0.160647	-0.660526
C432	C	1.031429	0.339353	-0.160526
C433	C	0.503840	-0.115516	-0.685033
C434	C	1.003840	0.384484	-0.185033
H435	H	0.535259	-0.226895	-0.707730
H436	H	1.035259	0.273105	-0.207730
H437	H	0.573532	-0.169362	-0.709206
H438	H	1.073532	0.330638	-0.209206
H439	H	0.513464	-0.191351	-0.641448
H440	H	1.013464	0.308649	-0.141448
H441	H	0.551724	-0.133807	-0.642916
H442	H	1.051724	0.366193	-0.142916
H443	H	0.521806	-0.084808	-0.704118
H444	H	1.021806	0.415192	-0.204118
H445	H	0.483536	-0.142347	-0.702641
H446	H	0.983536	0.357653	-0.202641
H447	H	0.487463	-0.088757	-0.664957
H448	H	0.987463	0.411243	-0.164957
H449	H	0.690710	-0.420683	-0.949709
H450	H	1.190710	0.079317	-0.449709
H451	H	0.109835	-0.466043	-0.285397
H452	H	0.609835	0.033957	0.214603
C453	C	0.025130	-0.200028	-0.122973
C454	C	0.525130	0.299972	0.377027
C455	C	0.056715	-0.160541	-0.098873
C456	C	0.556715	0.339459	0.401127
C457	C	0.034486	-0.115366	-0.071331
C458	C	0.534486	0.384634	0.428669
H459	H	0.006126	-0.226823	-0.102645
H460	H	0.506126	0.273177	0.397355
H461	H	0.007635	-0.169362	-0.140971
H462	H	0.507635	0.330638	0.359029
H463	H	0.074202	-0.191204	-0.080877
H464	H	0.574202	0.308796	0.419123
H465	H	0.075720	-0.133732	-0.119190
H466	H	0.575720	0.366268	0.380810
H467	H	0.016991	-0.084699	-0.089328
H468	H	0.516991	0.415301	0.410672
H469	H	0.015482	-0.142166	-0.051005
H470	H	0.515482	0.357834	0.448995
H471	H	0.055912	-0.088564	-0.054979
H472	H	0.555912	0.411436	0.445021
C473	C	0.725755	-0.478084	-0.683063
C474	C	1.225755	0.021916	-0.183063
C475	C	0.749884	-0.517528	-0.651468
C476	C	1.249884	-0.017528	-0.151468
C477	C	0.777476	-0.562648	-0.673686
C478	C	1.277476	-0.062648	-0.173686
H479	H	0.746065	-0.451251	-0.702066
H480	H	1.246065	0.048749	-0.202066
H481	H	0.707790	-0.508780	-0.700559
H482	H	1.207790	-0.008780	-0.200559
H483	H	0.767848	-0.486835	-0.633980
H484	H	1.267848	0.013165	-0.133980
H485	H	0.729586	-0.544375	-0.632464
H486	H	1.229586	-0.044375	-0.132464
H487	H	0.759511	-0.593344	-0.691181
H488	H	1.259511	-0.093344	-0.191181
H489	H	0.797783	-0.535809	-0.692688
H490	H	1.297783	-0.035809	-0.192688
H491	H	0.793848	-0.589420	-0.652252
H492	H	1.293848	-0.089420	-0.152252
H493	H	-0.189979	-0.421002	-0.257895
H494	H	0.310021	0.078998	0.242105
C495	C	0.122946	-0.200218	-0.122943
C496	C	0.622946	0.299782	0.377057
C497	C	0.148851	-0.240003	-0.093089
C498	C	0.648851	0.259997	0.406911
C499	C	0.173500	-0.195049	-0.065515
C500	C	0.673500	0.304951	0.434485
H501	H	0.102977	-0.173364	-0.106509
H502	H	0.602977	0.326636	0.393491
H503	H	0.142070	-0.169594	-0.140925
H504	H	0.642070	0.330406	0.359075
H505	H	0.129729	-0.270614	-0.075109
H506	H	0.629729	0.229386	0.424891
H507	H	0.168828	-0.266855	-0.109511
H508	H	0.668828	0.233145	0.390489
H509	H	0.192624	-0.164425	-0.083498
H510	H	0.692624	0.335575	0.416502
H511	H	0.153528	-0.168198	-0.049085
H512	H	0.653528	0.331802	0.450915
H513	H	0.191082	-0.222036	-0.045259
H514	H	0.691082	0.277964	0.454741
H515	H	0.718251	-0.465801	-0.591978
H516	H	1.218251	0.034199	-0.091978
H517	H	-0.185855	-0.257451	-0.157998
H518	H	0.314145	0.242549	0.342002
C519	C	0.698114	-0.433017	-0.370545
C520	C	1.198114	0.066983	0.129455
C521	C	0.692197	-0.423401	-0.324680
C522	C	1.192197	0.076599	0.175320
C523	C	0.719711	-0.468405	-0.299982
C524	C	1.219711	0.031595	0.200018
H525	H	0.728583	-0.422774	-0.378453
H526	H	1.228583	0.077226	0.121547
H527	H	0.690316	-0.480317	-0.376989
H528	H	1.190316	0.019683	0.123011
H529	H	0.699997	-0.376111	-0.318238
H530	H	1.199997	0.123889	0.181762
H531	H	0.661734	-0.433648	-0.316758
H532	H	1.161734	0.066352	0.183242
H533	H	0.711913	-0.515706	-0.306427
H534	H	1.211913	-0.015706	0.193573
H535	H	0.750178	-0.458159	-0.307894
H536	H	1.250178	0.041841	0.192106
H537	H	0.715697	-0.461892	-0.268861
H538	H	1.215697	0.038108	0.231139
H539	H	0.563065	-0.212360	-0.739162
H540	H	1.063065	0.287640	-0.239162
C541	C	0.263627	-0.200162	-0.122885
C542	C	0.763627	0.299838	0.377115
C543	C	0.251802	-0.215403	-0.078031
C544	C	0.751802	0.284597	0.421969
C545	C	0.276368	-0.170421	-0.050407
C546	C	0.776368	0.329579	0.449593
H547	H	0.257172	-0.152862	-0.130662
H548	H	0.757172	0.347138	0.369338
H549	H	0.294772	-0.206620	-0.126791
H550	H	0.794772	0.293380	0.373209
H551	H	0.220665	-0.208939	-0.074127
H552	H	0.720665	0.291061	0.425873
H553	H	0.258259	-0.262695	-0.070240
H554	H	0.758259	0.237305	0.429760
H555	H	0.307512	-0.176879	-0.054313
H556	H	0.807512	0.323121	0.445687
H557	H	0.269910	-0.123124	-0.058188
H558	H	0.769910	0.376876	0.441812
H559	H	0.268351	-0.180760	-0.019970
H560	H	0.768351	0.319240	0.480030
C561	C	0.555598	-0.200204	-0.831036
C562	C	1.055598	0.299796	-0.331036
C563	C	0.561497	-0.209851	-0.876900
C564	C	1.061497	0.290149	-0.376900
C565	C	0.533935	-0.164920	-0.901597
C566	C	1.033935	0.335080	-0.401597
H567	H	0.563356	-0.152887	-0.824623
H568	H	1.063356	0.347113	-0.324623
H569	H	0.525138	-0.210510	-0.823096
H570	H	1.025138	0.289490	-0.323096
H571	H	0.591950	-0.199541	-0.884837
H572	H	1.091950	0.300459	-0.384837
H573	H	0.553736	-0.257159	-0.883326
H574	H	1.053736	0.242841	-0.383326
H575	H	0.503475	-0.175225	-0.893656
H576	H	1.003475	0.324775	-0.393656
H577	H	0.541695	-0.117605	-0.895180
H578	H	1.041695	0.382395	-0.395180
H579	H	0.537930	-0.171464	-0.932718
H580	H	1.037930	0.328536	-0.432718
H581	H	0.718261	-0.465756	-0.732738
H582	H	1.218261	0.034244	-0.232738
C583	C	0.473520	-0.433201	-0.265336
C584	C	0.973520	0.066799	0.234664
C585	C	0.441938	-0.472660	-0.289457
C586	C	0.941938	0.027340	0.210543
C587	C	0.464172	-0.517767	-0.317043
C588	C	0.964172	-0.017767	0.182957
H589	H	0.491028	-0.463893	-0.247382
H590	H	0.991028	0.036107	0.252618
H591	H	0.492513	-0.406335	-0.285649
H592	H	0.992513	0.093665	0.214351
H593	H	0.422953	-0.499524	-0.269147
H594	H	0.922953	0.000476	0.230853
H595	H	0.424429	-0.441987	-0.307420
H596	H	0.924429	0.058013	0.192580
H597	H	0.483164	-0.490902	-0.337356
H598	H	0.983164	0.009098	0.162644
H599	H	0.481679	-0.548454	-0.299085
H600	H	0.981679	-0.048454	0.200915
H601	H	0.442747	-0.544541	-0.333416
H602	H	0.942747	-0.044541	0.166584
C603	C	0.478389	-0.245258	-0.150423
C604	C	0.978389	0.254742	0.349577
C605	C	0.504299	-0.285044	-0.120574
C606	C	1.004299	0.214956	0.379426
C607	C	0.528964	-0.240088	-0.093014
C608	C	1.028964	0.259912	0.406986
H609	H	0.458430	-0.218393	-0.133985
H610	H	0.958430	0.281607	0.366015
H611	H	0.497510	-0.214646	-0.168415
H612	H	0.997510	0.285354	0.331585
H613	H	0.485179	-0.315644	-0.102583
H614	H	0.985179	0.184356	0.397417
H615	H	0.524266	-0.311907	-0.136998
H616	H	1.024266	0.188093	0.363002
H617	H	0.548086	-0.209476	-0.111006
H618	H	1.048086	0.290524	0.388994
H619	H	0.509002	-0.213225	-0.076580
H620	H	1.009002	0.286775	0.423420
H621	H	0.546550	-0.267075	-0.072761
H622	H	1.046550	0.232925	0.427239
C623	C	0.018021	-0.478159	-0.292940
C624	C	0.518021	0.021841	0.207060
C625	C	-0.007869	-0.438362	-0.322802
C626	C	0.492131	0.061638	0.177198
C627	C	-0.032493	-0.483303	-0.350404
C628	C	0.467507	0.016697	0.149596
H629	H	-0.001114	-0.508800	-0.274992
H630	H	0.498886	-0.008800	0.225008
H631	H	0.038018	-0.504993	-0.309363
H632	H	0.538018	-0.004993	0.190637
H633	H	-0.027863	-0.411539	-0.306380
H634	H	0.472137	0.088461	0.193620
H635	H	0.011256	-0.407722	-0.340760
H636	H	0.511256	0.092278	0.159240
H637	H	-0.012496	-0.510137	-0.366827
H638	H	0.487504	-0.010137	0.133173
H639	H	-0.051626	-0.513942	-0.332452
H640	H	0.448374	-0.013942	0.167548
H641	H	-0.050059	-0.456307	-0.370671
H642	H	0.449941	0.043693	0.129329
C643	C	0.725766	-0.478032	-0.823821
C644	C	1.225766	0.021968	-0.323821
C645	C	0.749899	-0.517474	-0.792229
C646	C	1.249899	-0.017474	-0.292229
C647	C	0.777490	-0.562591	-0.814450
C648	C	1.277490	-0.062591	-0.314450
H649	H	0.746073	-0.451196	-0.842826
H650	H	1.246073	0.048804	-0.342826
H651	H	0.707800	-0.508729	-0.841315
H652	H	1.207800	-0.008729	-0.341315
H653	H	0.767864	-0.486782	-0.774742
H654	H	1.267864	0.013218	-0.274742
H655	H	0.729603	-0.544325	-0.773223
H656	H	1.229603	-0.044325	-0.273223
H657	H	0.759524	-0.593288	-0.831945
H658	H	1.259524	-0.093288	-0.331945
H659	H	0.797795	-0.535750	-0.833454
H660	H	1.297795	-0.035750	-0.333454
H661	H	0.793865	-0.589363	-0.793019
H662	H	1.293865	-0.089363	-0.293019
H663	H	0.171865	-0.212317	-0.130441
H664	H	0.671865	0.287683	0.369559
