data_functionalizedCrystal
_audit_creation_method	'MofGen! by Chris Wilmer'
_symmetry_space_group_name_H-M	'P1'
_symmetry_Int_Tables_number	1
_symmetry_cell_setting	triclinic
loop_
_symmetry_equiv_pos_as_xyz
  x,y,z
_cell_length_a	10.967926
_cell_length_b	10.967829
_cell_length_c	9.482900
_cell_angle_alpha	87.494390
_cell_angle_beta	92.549900
_cell_angle_gamma	87.248880
loop_
_atom_site_label
_atom_site_type_symbol
_atom_site_fract_x
_atom_site_fract_y
_atom_site_fract_z
O1	O	1.620175	0.212170	0.231862
O2	O	1.271086	0.214806	0.143741
O3	O	1.446976	0.038970	0.231865
O4	O	1.444285	0.388006	0.143737
O5	O	1.411256	0.074837	0.455722
O6	O	1.235365	0.250672	0.367597
O7	O	1.584455	0.248037	0.455718
Cu8	Cu	1.406649	0.252629	0.432098
Cu9	Cu	1.448892	0.210213	0.167361
O10	O	1.408564	0.423872	0.367594
C11	C	1.208402	0.229837	0.245166
C12	C	1.074842	0.221176	0.213873
C13	C	0.996792	0.235895	0.315886
C14	C	0.858750	0.226943	0.283546
C15	C	1.426222	0.012086	0.354295
C16	C	1.417582	-0.121457	0.385581
C17	C	1.432235	-0.199568	0.283564
C18	C	1.423306	-0.337592	0.315898
C19	C	1.647139	0.233005	0.354290
C20	C	1.780701	0.241664	0.385574
C21	C	1.429320	0.450756	0.245161
C22	C	1.437961	0.584297	0.213866
N23	N	1.376946	0.282463	0.618301
N24	N	1.478604	0.180371	-0.018837
C25	C	1.440122	0.219006	0.722228
C26	C	1.415418	0.243837	0.877234
H27	H	0.816069	0.260890	0.496862
H28	H	1.343032	0.316548	0.903005
H29	H	1.404142	-0.372894	0.427181
Br30	Br	1.469834	-0.356872	0.028364
Br31	Br	1.599543	0.059466	0.938225
Br32	Br	1.385640	-0.180291	0.571056
Br33	Br	1.015896	0.189113	0.028397
Br34	Br	1.055739	0.267936	0.501368
H35	H	1.304564	0.355169	0.644079
Br36	Br	1.560442	0.097496	0.679278
H37	H	0.823381	0.207711	0.172261
Br38	Br	1.464189	-0.140735	0.098093
