data_functionalizedCrystal
_audit_creation_method	'MofGen! by Chris Wilmer'
_symmetry_space_group_name_H-M	'P1'
_symmetry_Int_Tables_number	1
_symmetry_cell_setting	triclinic
loop_
_symmetry_equiv_pos_as_xyz
  x,y,z
_cell_length_a	16.109318
_cell_length_b	16.109304
_cell_length_c	8.140239
_cell_angle_alpha	89.999293
_cell_angle_beta	90.000860
_cell_angle_gamma	83.465600
loop_
_atom_site_label
_atom_site_type_symbol
_atom_site_fract_x
_atom_site_fract_y
_atom_site_fract_z
O1	O	1.103122	0.106934	-0.136466
O2	O	0.861062	0.120219	-0.136498
O3	O	0.988740	-0.007454	-0.136482
O4	O	0.975444	0.234607	-0.136482
O5	O	0.988733	-0.007455	0.136745
O6	O	0.861055	0.120217	0.136729
O7	O	1.103115	0.106933	0.136761
Zn8	Zn	0.982084	0.113575	0.180125
Zn9	Zn	0.982093	0.113577	-0.179863
O10	O	0.975437	0.234605	0.136745
C11	C	0.830084	0.119677	0.000111
C12	C	0.737789	0.118056	0.000098
C13	C	0.988198	-0.038430	0.000127
C14	C	0.986582	-0.130725	0.000116
C15	C	0.438719	0.112822	-0.148809
C16	C	0.525441	0.114340	-0.148819
C17	C	0.525452	0.114327	0.149068
C18	C	0.438733	0.112803	0.149077
C19	C	0.395368	0.112055	0.000133
C20	C	0.568809	0.115096	0.000115
C21	C	0.662836	0.116741	0.000105
C22	C	0.301336	0.110408	0.000142
C23	C	0.982852	-0.343062	-0.148815
C24	C	0.981326	-0.429782	-0.148813
C25	C	0.981323	-0.429780	0.149074
C26	C	0.982843	-0.343061	0.149071
C27	C	0.983612	-0.299704	0.000122
C28	C	0.980565	-0.473144	0.000126
C29	C	0.978911	-0.567170	0.000129
C30	C	0.985265	-0.205672	0.000119
C31	C	1.134093	0.107474	0.000148
C32	C	1.226388	0.109095	0.000150
C33	C	0.975979	0.265581	0.000131
C34	C	0.977595	0.357876	0.000132
N35	N	0.982084	0.113573	0.425808
N36	N	0.982100	0.113572	-0.425546
H37	H	0.403415	0.112212	-0.270088
H38	H	0.560770	0.114937	0.270333
H39	H	0.403436	0.112178	0.270370
O40	O	0.983552	-0.301067	-0.293644
C41	C	0.982574	-0.357938	-0.425097
H42	H	0.955185	-0.416306	-0.381427
H43	H	1.049072	-0.375899	-0.470893
C44	C	0.962315	-0.245265	-0.619451
C45	C	0.928669	-0.316951	-0.565819
H46	H	0.929067	-0.219981	-0.706259
H47	H	0.962977	-0.206949	-0.530891
H48	H	1.017729	-0.260242	-0.657604
H49	H	0.873261	-0.301971	-0.527649
H50	H	0.927996	-0.355263	-0.654377
H51	H	0.560733	0.114963	-0.270102
O52	O	0.980443	-0.471917	-0.293447
C53	C	0.907610	-0.512661	-0.302353
H54	H	0.857770	-0.479933	-0.217840
H55	H	0.922724	-0.580517	-0.262336
C56	C	0.936177	-0.549912	-0.584100
C57	C	0.874959	-0.509710	-0.480310
H58	H	0.916038	-0.548096	-0.693872
H59	H	0.985247	-0.522465	-0.578099
H60	H	0.948766	-0.606455	-0.550732
H61	H	0.862379	-0.453166	-0.513666
H62	H	0.825886	-0.537148	-0.486320
H63	H	0.980698	-0.465092	0.270343
H64	H	0.983456	-0.307758	0.270360
