data_functionalizedCrystal
_audit_creation_method	'MofGen! by Chris Wilmer'
_symmetry_space_group_name_H-M	'P1'
_symmetry_Int_Tables_number	1
_symmetry_cell_setting	triclinic
loop_
_symmetry_equiv_pos_as_xyz
  x,y,z
_cell_length_a	18.101395
_cell_length_b	16.625548
_cell_length_c	16.625539
_cell_angle_alpha	90.020568
_cell_angle_beta	89.972352
_cell_angle_gamma	89.967828
loop_
_atom_site_label
_atom_site_type_symbol
_atom_site_fract_x
_atom_site_fract_y
_atom_site_fract_z
Zn1	Zn	-0.294807	-1.232632	-0.455913
Zn2	Zn	0.038526	-0.899299	-0.122580
Zn3	Zn	0.371859	-0.565965	0.210754
Zn4	Zn	-0.418656	-1.232515	-0.321082
Zn5	Zn	-0.085323	-0.899182	0.012252
Zn6	Zn	0.248010	-0.565848	0.345585
Zn7	Zn	-0.294835	-1.097794	-0.321094
Zn8	Zn	0.038498	-0.764461	0.012240
Zn9	Zn	0.371831	-0.431127	0.345573
Zn10	Zn	-0.418614	-1.097744	-0.455872
Zn11	Zn	-0.085280	-0.764411	-0.122538
Zn12	Zn	0.248053	-0.431077	0.210795
O13	O	-0.356728	-1.165171	-0.388490
O14	O	-0.023395	-0.831838	-0.055157
O15	O	0.309939	-0.498505	0.278177
O16	O	-0.311242	-1.345449	-0.438040
O17	O	0.022091	-1.012116	-0.104706
O18	O	0.355425	-0.678782	0.228627
O19	O	-0.402261	-1.214616	-0.208251
O20	O	-0.068927	-0.881282	0.125082
O21	O	0.264406	-0.547949	0.458416
O22	O	-0.191199	-1.115750	-0.339000
O23	O	0.142135	-0.782417	-0.005667
O24	O	0.475468	-0.449084	0.327667
O25	O	-0.402233	-1.345363	-0.338980
O26	O	-0.068900	-1.012030	-0.005646
O27	O	0.264433	-0.678696	0.327687
O28	O	-0.191178	-1.214815	-0.438051
O29	O	0.142155	-0.881482	-0.104718
O30	O	0.475489	-0.548149	0.228616
O31	O	-0.311290	-1.115637	-0.208260
O32	O	0.022043	-0.782303	0.125074
O33	O	0.355377	-0.448970	0.458407
O34	O	-0.311249	-0.984955	-0.338960
O35	O	0.022084	-0.651622	-0.005626
O36	O	0.355418	-0.318288	0.327707
O37	O	-0.402161	-1.115665	-0.568710
O38	O	-0.068828	-0.782332	-0.235376
O39	O	0.264506	-0.448999	0.097957
O40	O	-0.402188	-0.984918	-0.437981
O41	O	-0.068855	-0.651585	-0.104647
O42	O	0.264478	-0.318252	0.228686
O43	O	-0.311201	-1.214767	-0.568740
O44	O	0.022133	-0.881434	-0.235407
O45	O	0.355466	-0.548100	0.097927
O46	O	-0.522284	-1.214567	-0.338940
O47	O	-0.188950	-0.881234	-0.005606
O48	O	0.144383	-0.547901	0.327727
O49	O	-0.522252	-1.115552	-0.437969
O50	O	-0.188919	-0.782218	-0.104636
O51	O	0.144414	-0.448885	0.228697
C52	C	-0.356718	-0.955680	-0.388467
C53	C	-0.023384	-0.622347	-0.055134
C54	C	0.309949	-0.289014	0.278199
C55	C	-0.356731	-0.866059	-0.388477
C56	C	-0.023398	-0.532726	-0.055144
C57	C	0.309936	-0.199393	0.278190
C58	C	-0.549139	-1.165063	-0.388466
C59	C	-0.215805	-0.831730	-0.055133
C60	C	0.117528	-0.498397	0.278200
C61	C	-0.631453	-1.165091	-0.388483
C62	C	-0.298119	-0.831758	-0.055150
C63	C	0.035214	-0.498424	0.278184
C64	C	-0.356673	-1.165224	-0.598799
C65	C	-0.023340	-0.831890	-0.265466
C66	C	0.309994	-0.498557	0.067868
C67	C	-0.356649	-1.165246	-0.688420
C68	C	-0.023316	-0.831913	-0.355087
C69	C	0.310017	-0.498579	-0.021753
C70	C	-0.930544	-1.165268	-0.388527
C71	C	-0.597210	-0.831935	-0.055193
C72	C	-0.263877	-0.498601	0.278140
C73	C	-0.899230	-1.103114	-0.450988
C74	C	-0.565896	-0.769781	-0.117655
C75	C	-0.232563	-0.436448	0.215679
C76	C	-0.813612	-1.102819	-0.450793
C77	C	-0.480278	-0.769486	-0.117459
C78	C	-0.146945	-0.436152	0.215874
C79	C	-0.782161	-1.165180	-0.388506
C80	C	-0.448828	-0.831847	-0.055172
C81	C	-0.115495	-0.498513	0.278161
C82	C	-0.813313	-1.142173	-0.303528
C83	C	-0.479980	-0.808840	0.029806
C84	C	-0.146647	-0.475506	0.363139
C85	C	-0.898959	-1.141772	-0.303901
C86	C	-0.565625	-0.808439	0.029432
C87	C	-0.232292	-0.475106	0.362765
C88	C	-0.898886	-1.250565	-0.410295
C89	C	-0.565552	-0.917231	-0.076962
C90	C	-0.232219	-0.583898	0.256372
C91	C	-0.813235	-1.250063	-0.412159
C92	C	-0.479901	-0.916730	-0.078825
C93	C	-0.146568	-0.583396	0.254508
C94	C	-0.698302	-1.165132	-0.388489
C95	C	-0.364968	-0.831799	-0.055155
C96	C	-0.031635	-0.498465	0.278178
C97	C	-1.014403	-1.165314	-0.388538
C98	C	-0.681070	-0.831981	-0.055205
C99	C	-0.347736	-0.498647	0.278129
C100	C	-0.163566	-1.165302	-0.388531
C101	C	0.169767	-0.831968	-0.055198
C102	C	0.503100	-0.498635	0.278135
C103	C	-0.081252	-1.165357	-0.388549
C104	C	0.252081	-0.832024	-0.055216
C105	C	0.585415	-0.498690	0.278118
C106	C	-0.356739	-1.375480	-0.388513
C107	C	-0.023406	-1.042147	-0.055180
C108	C	0.309927	-0.708813	0.278154
C109	C	-0.356744	-1.465101	-0.388523
C110	C	-0.023411	-1.131768	-0.055190
C111	C	0.309923	-0.798435	0.278144
C112	C	-0.356736	-0.537884	-0.388511
C113	C	-0.023402	-0.204550	-0.055178
C114	C	0.309931	0.128783	0.278155
C115	C	-0.356732	-0.629192	-0.388499
C116	C	-0.023399	-0.295859	-0.055166
C117	C	0.309934	0.037475	0.278167
C118	C	-0.356734	-0.701969	-0.388494
C119	C	-0.023400	-0.368635	-0.055160
C120	C	0.309933	-0.035302	0.278173
C121	C	-0.356729	-0.793283	-0.388483
C122	C	-0.023396	-0.459949	-0.055149
C123	C	0.309937	-0.126616	0.278184
C124	C	-0.356567	-1.165283	-1.016596
C125	C	-0.023233	-0.831950	-0.683263
C126	C	0.310100	-0.498617	-0.349929
C127	C	-0.356592	-1.165271	-0.925287
C128	C	-0.023259	-0.831937	-0.591954
C129	C	0.310075	-0.498604	-0.258621
C130	C	-0.356609	-1.165265	-0.852511
C131	C	-0.023275	-0.831932	-0.519178
C132	C	0.310058	-0.498598	-0.185844
C133	C	-0.356633	-1.165252	-0.761197
C134	C	-0.023300	-0.831918	-0.427863
C135	C	0.310034	-0.498585	-0.094530
C136	C	-0.356730	-1.165165	-0.178999
C137	C	-0.023396	-0.831832	0.154334
C138	C	0.309937	-0.498499	0.487667
C139	C	-0.356545	-1.165299	-0.089378
C140	C	-0.023211	-0.831966	0.243955
C141	C	0.310122	-0.498633	0.577288
H142	H	-0.792547	-1.117214	-0.513803
H143	H	-0.459214	-0.783880	-0.180469
H144	H	-0.125880	-0.450547	0.152864
H145	H	-0.919003	-1.079421	-0.285461
H146	H	-0.585669	-0.746087	0.047872
H147	H	-0.252336	-0.412754	0.381205
N148	N	-0.926298	-1.024274	-0.433146
N149	N	-0.592965	-0.690940	-0.099813
N150	N	-0.259631	-0.357607	0.233520
N151	N	-0.963808	-0.986988	-0.484067
N152	N	-0.630475	-0.653655	-0.150734
N153	N	-0.297141	-0.320322	0.182600
H154	H	-0.982924	-0.931306	-0.471466
H155	H	-0.649591	-0.597972	-0.138133
H156	H	-0.316258	-0.264639	0.195201
H157	H	-0.919777	-1.117366	-0.514202
H158	H	-0.586443	-0.784033	-0.180869
H159	H	-0.253110	-0.450700	0.152464
N160	N	-0.787666	-1.271844	-0.490600
N161	N	-0.454333	-0.938511	-0.157267
N162	N	-0.120999	-0.605178	0.176067
N163	N	-0.749709	-1.333980	-0.499965
N164	N	-0.416376	-1.000646	-0.166631
N165	N	-0.083043	-0.667313	0.166702
H166	H	-0.731644	-1.349362	-0.555363
H167	H	-0.398311	-1.016028	-0.222030
H168	H	-0.064977	-0.682695	0.111304
H169	H	-0.919675	-1.185078	-0.255776
H170	H	-0.586342	-0.851745	0.077557
H171	H	-0.253009	-0.518412	0.410891
N172	N	-0.787759	-1.197182	-0.243559
N173	N	-0.454426	-0.863849	0.089774
N174	N	-0.121092	-0.530515	0.423108
N175	N	-0.746202	-1.254091	-0.262828
N176	N	-0.412868	-0.920758	0.070506
N177	N	-0.079535	-0.587425	0.403839
H178	H	-0.728153	-1.292944	-0.220476
H179	H	-0.394819	-0.959610	0.112857
H180	H	-0.061486	-0.626277	0.446190
H181	H	-0.791822	-1.298821	-0.369981
H182	H	-0.458488	-0.965487	-0.036648
H183	H	-0.125155	-0.632154	0.296686
N184	N	-0.787998	-1.023502	-0.432706
N185	N	-0.454664	-0.690169	-0.099373
N186	N	-0.121331	-0.356835	0.233961
N187	N	-0.833374	-0.968193	-0.420182
N188	N	-0.500041	-0.634860	-0.086848
N189	N	-0.166708	-0.301526	0.246485
H190	H	-0.815286	-0.912171	-0.407406
H191	H	-0.481953	-0.578838	-0.074073
H192	H	-0.148619	-0.245505	0.259261
N193	N	-0.924287	-1.308648	-0.353218
N194	N	-0.590953	-0.975315	-0.019884
N195	N	-0.257620	-0.641981	0.313449
N196	N	-0.965524	-1.287427	-0.296730
N197	N	-0.632191	-0.954093	0.036603
N198	N	-0.298858	-0.620760	0.369936
H199	H	-0.983467	-1.328441	-0.256415
H200	H	-0.650133	-0.995108	0.076918
H201	H	-0.316800	-0.661775	0.410251
N202	N	-0.786484	-1.064783	-0.279985
N203	N	-0.453150	-0.731450	0.053348
N204	N	-0.119817	-0.398116	0.386682
N205	N	-0.744429	-1.026440	-0.325644
N206	N	-0.411096	-0.693106	0.007689
N207	N	-0.077762	-0.359773	0.341023
H208	H	-0.725480	-0.971781	-0.309021
H209	H	-0.392146	-0.638448	0.024312
H210	H	-0.058813	-0.305115	0.357646
N211	N	-0.925924	-1.276873	-0.486704
N212	N	-0.592591	-0.943540	-0.153370
N213	N	-0.259258	-0.610207	0.179963
N214	N	-0.968861	-1.233071	-0.526046
N215	N	-0.635528	-0.899738	-0.192713
N216	N	-0.302195	-0.566404	0.140620
H217	H	-0.987960	-1.251644	-0.580013
H218	H	-0.654626	-0.918310	-0.246679
H219	H	-0.321293	-0.584977	0.086654
