data_functionalizedCrystal
_audit_creation_method	'MofGen! by Chris Wilmer'
_symmetry_space_group_name_H-M	'P1'
_symmetry_Int_Tables_number	1
_symmetry_cell_setting	triclinic
loop_
_symmetry_equiv_pos_as_xyz
  x,y,z
_cell_length_a	17.639762
_cell_length_b	18.050590
_cell_length_c	17.640968
_cell_angle_alpha	101.233828
_cell_angle_beta	87.859627
_cell_angle_gamma	101.248182
loop_
_atom_site_label
_atom_site_type_symbol
_atom_site_fract_x
_atom_site_fract_y
_atom_site_fract_z
Zn1	Zn	1.247823	-0.021246	0.195069
Zn2	Zn	1.747823	0.478754	0.695069
Zn3	Zn	1.222063	-0.174467	0.068080
Zn4	Zn	1.722063	0.325533	0.568080
Zn5	Zn	1.095153	-0.069566	0.093714
Zn6	Zn	1.595153	0.430434	0.593714
Zn7	Zn	1.120800	-0.164699	0.220663
Zn8	Zn	1.620800	0.335301	0.720663
O9	O	1.171460	-0.107494	0.144381
O10	O	1.671460	0.392506	0.644381
O11	O	1.350678	-0.025437	0.156784
O12	O	1.850678	0.474563	0.656784
O13	O	1.183714	-0.184862	-0.034794
O14	O	1.683714	0.315138	0.465206
O15	O	1.115453	0.040781	0.107175
O16	O	1.615453	0.540781	0.607175
O17	O	1.331752	-0.138008	0.063486
O18	O	1.831752	0.361992	0.563486
O19	O	1.227619	0.076281	0.181640
O20	O	1.727619	0.576281	0.681640
O21	O	1.090474	-0.107791	-0.015961
O22	O	1.590474	0.392209	0.484039
O23	O	0.992283	-0.098320	0.131993
O24	O	1.492283	0.401680	0.631993
O25	O	1.159164	-0.121359	0.323542
O26	O	1.659164	0.378641	0.823542
O27	O	1.011126	-0.168213	0.225262
O28	O	1.511126	0.331787	0.725262
O29	O	1.252487	-0.015965	0.304738
O30	O	1.752487	0.484035	0.804738
O31	O	1.208583	-0.277108	0.088304
O32	O	1.708583	0.222892	0.588304
O33	O	1.134185	-0.269931	0.200406
O34	O	1.634185	0.230069	0.700406
C35	C	0.974150	-0.137450	0.184187
C36	C	1.474150	0.362550	0.684187
C37	C	0.889743	-0.150279	0.201234
C38	C	1.389743	0.349721	0.701234
C39	C	0.780590	-0.204834	0.273738
C40	C	1.280590	0.295166	0.773738
C41	C	0.859901	-0.192776	0.257714
C42	C	1.359901	0.307224	0.757714
C43	C	0.840278	-0.119821	0.160759
C44	C	1.340278	0.380179	0.660759
C45	C	0.760964	-0.131870	0.176778
C46	C	1.260964	0.368130	0.676778
C47	C	0.731126	-0.174378	0.233267
C48	C	1.231126	0.325622	0.733267
C49	C	0.711500	-0.101415	0.136307
C50	C	1.211500	0.398585	0.636307
C51	C	0.632193	-0.113467	0.152322
C52	C	1.132193	0.386533	0.652322
C53	C	0.602348	-0.155975	0.208807
C54	C	1.102348	0.344025	0.708807
C55	C	0.651818	-0.186431	0.249282
C56	C	1.151818	0.313569	0.749282
C57	C	0.741339	-0.058911	0.079814
C58	C	1.241339	0.441089	0.579814
C59	C	0.691876	-0.028456	0.039343
C60	C	1.191876	0.471544	0.539343
C61	C	0.612567	-0.040503	0.055362
C62	C	1.112567	0.459497	0.555362
C63	C	0.582722	-0.083011	0.111847
C64	C	1.082722	0.416989	0.611847
C65	C	0.563097	-0.010047	0.014887
C66	C	1.063097	0.489953	0.514887
C67	C	0.483789	-0.022099	0.030902
C68	C	0.983789	0.477901	0.530902
C69	C	0.503414	-0.095063	0.127862
C70	C	1.003414	0.404937	0.627862
C71	C	1.171395	-0.300462	0.144363
C72	C	1.671395	0.199538	0.644363
C73	C	1.171442	-0.382998	0.144366
C74	C	1.671442	0.117002	0.644366
C75	C	1.212020	-0.586293	0.083454
C76	C	1.712020	-0.086293	0.583454
C77	C	1.244585	-0.616973	0.149026
C78	C	1.744585	-0.116973	0.649026
C79	C	1.171492	-0.534115	0.144388
C80	C	1.671492	-0.034115	0.644388
C81	C	1.139009	-0.650498	0.078832
C82	C	1.639009	-0.150498	0.578832
C83	C	1.171539	-0.680089	0.144402
C84	C	1.671539	-0.180089	0.644402
C85	C	1.204100	-0.563694	0.209988
C86	C	1.704100	-0.063694	0.709988
C87	C	1.098483	-0.597231	0.139754
C88	C	1.598483	-0.097231	0.639754
C89	C	1.131032	-0.627882	0.205379
C90	C	1.631032	-0.127882	0.705379
C91	C	1.171466	-0.450024	0.144378
C92	C	1.671466	0.049976	0.644378
C93	C	1.171567	-0.764177	0.144420
C94	C	1.671567	-0.264177	0.644420
C95	C	1.369541	-0.077422	0.104420
C96	C	1.869541	0.422578	0.604420
C97	C	1.453951	-0.064607	0.087391
C98	C	1.953951	0.435393	0.587391
C99	C	1.211560	-0.062183	0.342466
C100	C	1.711560	0.437817	0.842466
C101	C	1.228648	-0.042873	0.426878
C102	C	1.728648	0.457127	0.926878
C103	C	1.171549	0.086234	0.144412
C104	C	1.671549	0.586234	0.644412
C105	C	1.171586	0.168790	0.144425
C106	C	1.671586	0.668790	0.644425
C107	C	1.131560	-0.152570	-0.052942
C108	C	1.631560	0.347430	0.447058
C109	C	1.114619	-0.171647	-0.137383
C110	C	1.614619	0.328353	0.362617
C111	C	1.041934	-0.253735	0.753443
C112	C	1.541934	0.246265	1.253443
C113	C	1.058007	-0.235580	0.832758
C114	C	1.558007	0.264420	1.332758
C115	C	1.155177	-0.125842	0.813168
C116	C	1.655177	0.374158	1.313168
C117	C	1.139110	-0.143987	0.733851
C118	C	1.639110	0.356013	1.233851
C119	C	1.082488	-0.207935	0.703995
C120	C	1.582488	0.292065	1.203995
C121	C	1.179663	-0.098186	0.684403
C122	C	1.679663	0.401814	1.184403
C123	C	1.163600	-0.116331	0.605092
C124	C	1.663600	0.383669	1.105092
C125	C	1.106982	-0.180278	0.575229
C126	C	1.606982	0.319722	1.075229
C127	C	1.066425	-0.226080	0.624684
C128	C	1.566425	0.273920	1.124684
C129	C	1.236288	-0.034241	0.714259
C130	C	1.736288	0.465759	1.214259
C131	C	1.276842	0.011560	0.664811
C132	C	1.776842	0.511560	1.164811
C133	C	1.260775	-0.006582	0.585499
C134	C	1.760775	0.493418	1.085499
C135	C	1.204158	-0.070529	0.555637
C136	C	1.704158	0.429471	1.055637
C137	C	1.301333	0.039220	0.536045
C138	C	1.801333	0.539220	1.036045
C139	C	1.285269	0.021075	0.456734
C140	C	1.785269	0.521075	0.956734
C141	C	1.188094	-0.088674	0.476326
C142	C	1.688094	0.411326	0.976326
H143	H	0.805917	-0.049101	0.066776
H144	H	1.305917	0.450899	0.566776
H145	H	1.024979	-0.272881	0.873017
H146	H	1.524979	0.227119	1.373017
F147	F	1.089890	-0.199593	0.490818
F148	F	1.589890	0.300407	0.990818
F149	F	0.620060	-0.231663	0.309413
F150	F	1.120060	0.268337	0.809413
H151	H	1.020299	-0.278138	0.600378
H152	H	1.520299	0.221862	1.100378
H153	H	1.322945	0.063624	0.689131
H154	H	1.822945	0.563624	1.189131
H155	H	1.306349	-0.626132	0.152957
H156	H	1.806349	-0.126132	0.652957
H157	H	0.995809	-0.305793	0.729137
H158	H	1.495809	0.194207	1.229137
F159	F	1.361598	0.107270	0.567829
F160	F	1.861598	0.607270	1.067829
F161	F	0.748832	-0.250067	0.333869
F162	F	1.248832	0.249933	0.833869
H163	H	1.318291	0.058371	0.416471
H164	H	1.818291	0.558371	0.916471
H165	H	1.096789	-0.646126	0.256964
H166	H	1.596789	-0.146126	0.756964
F167	F	1.215438	-0.057788	0.844951
F168	F	1.715438	0.442212	1.344951
F169	F	1.253386	-0.014933	0.798670
F170	F	1.753386	0.485067	1.298670
F171	F	1.017767	-0.585244	0.134587
F172	F	1.517767	-0.085244	0.634587
H173	H	0.479121	-0.129668	0.173869
H174	H	0.979121	0.370332	0.673869
H175	H	1.111518	-0.688005	0.023387
H176	H	1.611518	-0.188005	0.523387
F177	F	0.517939	-0.168808	0.225847
F178	F	1.017939	0.331192	0.725847
F179	F	0.912543	-0.225196	0.300792
F180	F	1.412543	0.274804	0.800792
F181	F	0.872043	-0.074584	0.100640
F182	F	1.372043	0.425416	0.600640
F183	F	0.723640	0.016782	-0.020776
F184	F	1.223640	0.516782	0.479224
H185	H	1.141969	-0.140732	0.452020
H186	H	1.641969	0.359268	0.952020
F187	F	0.594862	0.035184	-0.045237
F188	F	1.094862	0.535184	0.454763
H189	H	1.231544	-0.526276	0.265495
H190	H	1.731544	-0.026276	0.765495
H191	H	0.443515	0.002706	-0.002049
H192	H	0.943515	0.502706	0.497951
H193	H	1.246316	-0.567882	0.031967
H194	H	1.746316	-0.067882	0.531967
