data_functionalizedCrystal
_audit_creation_method	'MofGen! by Chris Wilmer'
_symmetry_space_group_name_H-M	'P1'
_symmetry_Int_Tables_number	1
_symmetry_cell_setting	triclinic
loop_
_symmetry_equiv_pos_as_xyz
  x,y,z
_cell_length_a	27.732048
_cell_length_b	27.732048
_cell_length_c	15.455313
_cell_angle_alpha	92.637842
_cell_angle_beta	87.346468
_cell_angle_gamma	82.642655
loop_
_atom_site_label
_atom_site_type_symbol
_atom_site_fract_x
_atom_site_fract_y
_atom_site_fract_z
O1	O	0.643059	0.055390	-0.072028
O2	O	1.143059	0.555390	0.427972
O3	O	0.502266	0.064134	-0.072055
O4	O	1.002266	0.564134	0.427945
O5	O	0.577035	-0.010634	-0.072024
O6	O	1.077035	0.489366	0.427976
O7	O	0.568290	0.130158	-0.072059
O8	O	1.068290	0.630158	0.427941
O9	O	0.572759	-0.006376	0.072236
O10	O	1.072759	0.493624	0.572236
O11	O	0.497991	0.068393	0.072205
O12	O	0.997991	0.568393	0.572205
O13	O	0.638783	0.059648	0.072233
O14	O	1.138783	0.559648	0.572233
Cu15	Cu	0.567996	0.064409	0.085391
Cu16	Cu	1.067996	0.564409	0.585391
Cu17	Cu	0.573053	0.059373	-0.085213
Cu18	Cu	1.073053	0.559373	0.414787
O19	O	0.564015	0.134416	0.072202
O20	O	1.064015	0.634416	0.572202
C21	C	0.482121	0.066080	0.000072
C22	C	0.982121	0.566080	0.500072
C23	C	0.428467	0.065527	0.000062
C24	C	0.928467	0.565527	0.500062
C25	C	0.089651	0.106231	0.000089
C26	C	0.589651	0.606231	0.500089
C27	C	-0.112009	0.104181	0.000098
C28	C	0.387991	0.604181	0.500098
O29	O	-0.143265	0.141402	0.000126
O30	O	0.356735	0.641402	0.500126
N31	N	-0.131133	0.059846	0.000107
N32	N	0.368867	0.559846	0.500107
C33	C	-0.099839	0.016021	0.000120
C34	C	0.400161	0.516021	0.500120
O35	O	-0.120732	-0.021736	0.000137
O36	O	0.379268	0.478264	0.500137
C37	C	0.101820	0.018072	0.000118
C38	C	0.601820	0.518072	0.500118
C39	C	0.120941	0.062409	0.000100
C40	C	0.620941	0.562409	0.500100
C41	C	0.108773	0.150565	0.000072
C42	C	0.608773	0.650565	0.500072
C43	C	0.159185	0.151077	0.000065
C44	C	0.659185	0.651077	0.500065
C45	C	0.190475	0.107256	0.000076
C46	C	0.690475	0.607256	0.500076
C47	C	0.171353	0.062922	0.000093
C48	C	0.671353	0.562922	0.500093
C49	C	0.133113	-0.025753	0.000137
C50	C	0.633113	0.474247	0.500137
C51	C	0.183530	-0.025236	0.000139
C52	C	0.683530	0.474764	0.500139
C53	C	0.202652	0.019102	0.000121
C54	C	0.702652	0.519102	0.500121
C55	C	0.253056	0.019612	0.000097
C56	C	0.753056	0.519612	0.500097
N57	N	0.272180	0.063947	0.000087
N58	N	0.772180	0.563947	0.500087
C59	C	0.240890	0.107769	0.000077
C60	C	0.740890	0.607769	0.500077
C61	C	-0.205713	0.014947	0.000120
C62	C	0.294287	0.514947	0.500120
C63	C	-0.256127	0.014434	0.000118
C64	C	0.243873	0.514434	0.500118
C65	C	-0.268294	0.102594	0.000098
C66	C	0.231706	0.602594	0.500098
C67	C	-0.217878	0.103106	0.000093
C68	C	0.282122	0.603106	0.500093
C69	C	-0.186589	0.059281	0.000110
C70	C	0.313411	0.559281	0.500110
C71	C	0.346759	0.108841	0.000062
C72	C	0.846759	0.608841	0.500062
C73	C	0.397176	0.109349	0.000052
C74	C	0.897176	0.609349	0.500052
C75	C	0.409339	0.021189	0.000077
C76	C	0.909339	0.521189	0.500077
C77	C	0.358926	0.020680	0.000083
C78	C	0.858926	0.520680	0.500083
C79	C	0.327637	0.064510	0.000078
C80	C	0.827637	0.564510	0.500078
O81	O	0.284341	-0.017590	0.000078
O82	O	0.784341	0.482410	0.500078
O83	O	0.261792	0.145520	0.000079
O84	O	0.761792	0.645520	0.500079
C85	C	0.039239	0.105719	0.000096
C86	C	0.539239	0.605719	0.500096
C87	C	0.020117	0.061385	0.000113
C88	C	0.520117	0.561385	0.500113
C89	C	0.051407	0.017563	0.000124
C90	C	0.551407	0.517563	0.500124
C91	C	-0.030297	0.060872	0.000112
C92	C	0.469703	0.560872	0.500112
C93	C	-0.061588	0.104694	0.000102
C94	C	0.438412	0.604694	0.500102
C95	C	-0.042464	0.149029	0.000093
C96	C	0.457536	0.649029	0.500093
C97	C	0.007948	0.149541	0.000086
C98	C	0.507948	0.649541	0.500086
C99	C	0.032283	-0.026771	0.000133
C100	C	0.532283	0.473229	0.500133
C101	C	-0.018129	-0.027280	0.000139
C102	C	0.481871	0.472720	0.500139
C103	C	-0.049420	0.016542	0.000129
C104	C	0.450580	0.516542	0.500129
C105	C	0.574713	-0.026512	0.000109
C106	C	1.074713	0.473488	0.500109
C107	C	0.574160	-0.080167	0.000116
C108	C	1.074160	0.419833	0.500116
C109	C	0.614865	-0.418983	0.000079
C110	C	1.114865	0.081017	0.500079
C111	C	0.612814	-0.620643	0.000067
C112	C	1.112814	-0.120643	0.500067
O113	O	0.650036	-0.651899	0.000036
O114	O	1.150036	-0.151899	0.500036
N115	N	0.568479	-0.639767	0.000059
N116	N	1.068479	-0.139767	0.500059
C117	C	0.524654	-0.608472	0.000048
C118	C	1.024654	-0.108472	0.500048
O119	O	0.486898	-0.629366	0.000032
O120	O	0.986898	-0.129366	0.500032
C121	C	0.526705	-0.406813	0.000054
C122	C	1.026705	0.093187	0.500054
C123	C	0.571043	-0.387692	0.000071
C124	C	1.071043	0.112308	0.500071
C125	C	0.659199	-0.399861	0.000095
C126	C	1.159199	0.100139	0.500095
C127	C	0.659711	-0.349449	0.000103
C128	C	1.159711	0.150551	0.500103
C129	C	0.615889	-0.318158	0.000095
C130	C	1.115889	0.181842	0.500095
C131	C	0.571555	-0.337280	0.000079
C132	C	1.071555	0.162720	0.500079
C133	C	0.482881	-0.375520	0.000038
C134	C	0.982881	0.124480	0.500038
C135	C	0.483398	-0.325103	0.000037
C136	C	0.983398	0.174897	0.500037
C137	C	0.527735	-0.305982	0.000054
C138	C	1.027735	0.194018	0.500054
C139	C	0.528245	-0.255577	0.000079
C140	C	1.028245	0.244423	0.500079
N141	N	0.572580	-0.236453	0.000087
N142	N	1.072580	0.263547	0.500087
C143	C	0.616402	-0.267744	0.000095
C144	C	1.116402	0.232256	0.500095
C145	C	0.523580	-0.714346	0.000047
C146	C	1.023580	-0.214346	0.500047
C147	C	0.523067	-0.764761	0.000047
C148	C	1.023067	-0.264761	0.500047
C149	C	0.611228	-0.776928	0.000063
C150	C	1.111228	-0.276928	0.500063
C151	C	0.611740	-0.726512	0.000069
C152	C	1.111740	-0.226512	0.500069
C153	C	0.567915	-0.695222	0.000054
C154	C	1.067915	-0.195222	0.500054
C155	C	0.617474	-0.161874	0.000112
C156	C	1.117474	0.338126	0.500112
C157	C	0.617982	-0.111457	0.000123
C158	C	1.117982	0.388543	0.500123
C159	C	0.529822	-0.099295	0.000102
C160	C	1.029822	0.400705	0.500102
C161	C	0.529314	-0.149707	0.000095
C162	C	1.029314	0.350293	0.500095
C163	C	0.573144	-0.180996	0.000097
C164	C	1.073144	0.319004	0.500097
O165	O	0.491044	-0.224293	0.000100
O166	O	0.991044	0.275707	0.500100
O167	O	0.654154	-0.246841	0.000091
O168	O	1.154154	0.253159	0.500091
C169	C	0.614353	-0.469395	0.000071
C170	C	1.114353	0.030605	0.500071
C171	C	0.570019	-0.488517	0.000055
C172	C	1.070019	0.011483	0.500055
C173	C	0.526197	-0.457226	0.000048
C174	C	1.026197	0.042774	0.500048
C175	C	0.569506	-0.538931	0.000055
C176	C	1.069506	-0.038931	0.500055
C177	C	0.613328	-0.570221	0.000063
C178	C	1.113328	-0.070221	0.500063
C179	C	0.657663	-0.551097	0.000071
C180	C	1.157663	-0.051097	0.500071
C181	C	0.658175	-0.500685	0.000079
C182	C	1.158175	-0.000685	0.500079
C183	C	0.481862	-0.476350	0.000040
C184	C	0.981862	0.023650	0.500040
C185	C	0.481354	-0.526763	0.000033
C186	C	0.981354	-0.026763	0.500033
C187	C	0.525176	-0.558053	0.000041
C188	C	1.025176	-0.058053	0.500041
C189	C	0.658928	0.057702	0.000104
C190	C	1.158928	0.557702	0.500104
C191	C	0.712583	0.058255	0.000108
C192	C	1.212583	0.558255	0.500108
C193	C	0.566336	0.150294	0.000067
C194	C	1.066336	0.650294	0.500067
C195	C	0.566889	0.203949	0.000054
C196	C	1.066889	0.703949	0.500054
N197	N	0.564444	0.067951	0.205385
N198	N	1.064444	0.567951	0.705385
N199	N	0.576609	0.055828	-0.205208
N200	N	1.076609	0.555828	0.294792
C201	C	0.596219	0.036198	0.250792
C202	C	1.096219	0.536198	0.750792
C203	C	0.593536	0.038881	0.341599
C204	C	1.093536	0.538881	0.841599
C205	C	0.559081	0.073319	0.386997
C206	C	1.059081	0.573319	0.886997
C207	C	0.527302	0.105073	0.341583
C208	C	1.027302	0.605073	0.841583
C209	C	0.529983	0.102388	0.250778
C210	C	1.029983	0.602388	0.750778
C211	C	0.547511	0.084897	0.658574
C212	C	1.047511	0.584897	1.158574
C213	C	0.544834	0.087581	0.749385
C214	C	1.044834	0.587581	1.249385
C215	C	0.611068	0.021387	0.749395
C216	C	1.111068	0.521387	1.249395
C217	C	0.613747	0.018707	0.658588
C218	C	1.113747	0.518707	1.158588
C219	C	0.581967	0.050460	0.613182
C220	C	1.081967	0.550460	1.113182
N221	N	0.556339	0.076063	0.479816
N222	N	1.056339	0.576063	0.979816
N223	N	0.584707	0.047713	0.520365
N224	N	1.084707	0.547713	1.020365
H225	H	-0.271690	-0.021671	0.000120
H226	H	0.228310	0.478329	0.500120
Br227	Br	0.422705	-0.401457	0.000012
Br228	Br	0.922705	0.098543	0.500012
H229	H	-0.067949	0.184710	0.000081
H230	H	0.432051	0.684710	0.500081
H231	H	0.516775	0.115627	0.786344
H232	H	1.016775	0.615627	1.286344
Br233	Br	0.504383	0.127989	0.596956
Br234	Br	1.004383	0.627989	1.096956
H235	H	0.057756	-0.062457	0.000144
H236	H	0.557756	0.437543	0.500144
H237	H	0.499245	0.133112	0.378551
H238	H	0.999245	0.633112	0.878551
H239	H	0.446176	-0.450878	0.000031
H240	H	0.946176	0.049122	0.500031
Br241	Br	0.636659	-0.004215	0.403227
Br242	Br	1.136659	0.495785	0.903227
Br243	Br	0.464098	-0.671888	0.000025
Br244	Br	0.964098	-0.171888	0.500025
H245	H	0.447709	-0.299629	0.000024
H246	H	0.947709	0.200371	0.500024
H247	H	-0.180240	-0.020743	0.000134
H248	H	0.319760	0.479257	0.500134
H249	H	-0.033692	-0.063388	0.000147
H250	H	0.466308	0.436612	0.500147
H251	H	-0.293779	0.138275	0.000089
H252	H	0.206221	0.638275	0.500089
Br253	Br	0.107177	-0.085929	0.000143
Br254	Br	0.607177	0.414071	0.500143
H255	H	0.504107	0.128243	0.213808
H256	H	1.004107	0.628243	0.713808
Br257	Br	0.660510	-0.028029	0.596975
Br258	Br	1.160510	0.471971	1.096975
H259	H	0.321289	0.144531	0.000061
H260	H	0.821289	0.644531	0.500061
Br261	Br	0.423123	0.169525	0.000021
Br262	Br	0.923123	0.669525	0.500021
H263	H	0.653165	-0.187345	0.000110
H264	H	1.153165	0.312655	0.500110
H265	H	0.654089	-0.095892	0.000139
H266	H	1.154089	0.404108	0.500139
H267	H	-0.202314	0.139210	0.000083
H268	H	0.297686	0.639210	0.500083
Br269	Br	0.654195	-0.021704	0.811020
Br270	Br	1.154195	0.478296	1.311020
Br271	Br	0.332975	-0.039492	0.000110
Br272	Br	0.832975	0.460508	0.500110
Br273	Br	0.185127	0.211253	0.000045
Br274	Br	0.685127	0.711253	0.500045
H275	H	0.083300	0.186253	0.000067
H276	H	0.583300	0.686253	0.500067
H277	H	0.209005	-0.060924	0.000154
H278	H	0.709005	0.439076	0.500154
H279	H	0.624278	0.008157	0.213836
H280	H	1.124278	0.508157	0.713836
Br281	Br	0.451813	-0.038281	0.000093
Br282	Br	0.951813	0.461719	0.500093
H283	H	0.695815	-0.333885	0.000113
H284	H	1.195815	0.166115	0.500113
Br285	Br	0.033891	0.209717	0.000059
Br286	Br	0.533891	0.709717	0.500059
H287	H	0.694886	-0.425333	0.000098
H288	H	1.194886	0.074667	0.500098
Br289	Br	0.671914	-0.700568	0.000094
Br290	Br	1.171914	-0.200568	0.500094
H291	H	0.493210	-0.165276	0.000106
H292	H	0.993210	0.334724	0.500106
Br293	Br	0.670700	-0.819403	0.000072
Br294	Br	1.170700	-0.319403	0.500072
H295	H	0.486963	-0.780324	0.000048
H296	H	0.986963	-0.280324	0.500048
H297	H	0.693344	-0.576583	0.000081
H298	H	1.193344	-0.076583	0.500081
Br299	Br	0.718351	-0.474743	0.000096
Br300	Br	1.218351	0.025257	0.500096
H301	H	0.494143	-0.073809	0.000099
H302	H	0.994143	0.426191	0.500099
Br303	Br	0.421175	-0.552706	0.000017
Br304	Br	0.921175	-0.052706	0.500017
