data_functionalizedCrystal
_audit_creation_method	'MofGen! by Chris Wilmer'
_symmetry_space_group_name_H-M	'P1'
_symmetry_Int_Tables_number	1
_symmetry_cell_setting	triclinic
loop_
_symmetry_equiv_pos_as_xyz
  x,y,z
_cell_length_a	25.639242
_cell_length_b	25.639239
_cell_length_c	25.639233
_cell_angle_alpha	89.981253
_cell_angle_beta	89.977834
_cell_angle_gamma	90.034213
loop_
_atom_site_label
_atom_site_type_symbol
_atom_site_fract_x
_atom_site_fract_y
_atom_site_fract_z
Zn1	Zn	0.799225	-0.208277	-0.295742
Zn2	Zn	1.132558	0.125057	0.037591
Zn3	Zn	1.465892	0.458390	0.370924
Zn4	Zn	0.799149	-0.295696	-0.208307
Zn5	Zn	1.132482	0.037638	0.125027
Zn6	Zn	1.465815	0.370971	0.458360
Zn7	Zn	0.711801	-0.208269	-0.208306
Zn8	Zn	1.045135	0.125064	0.125027
Zn9	Zn	1.378468	0.458398	0.458360
Zn10	Zn	0.711746	-0.295676	-0.295696
Zn11	Zn	1.045080	0.037657	0.037637
Zn12	Zn	1.378413	0.370990	0.370970
O13	O	0.755480	-0.251979	-0.252013
O14	O	1.088814	0.081354	0.081320
O15	O	1.422147	0.414687	0.414654
O16	O	0.872380	-0.219884	-0.284163
O17	O	1.205713	0.113449	0.049170
O18	O	1.539047	0.446782	0.382504
O19	O	0.787553	-0.284103	-0.135141
O20	O	1.120886	0.049230	0.198192
O21	O	1.454219	0.382563	0.531525
O22	O	0.723453	-0.135105	-0.219924
O23	O	1.056787	0.198228	0.113409
O24	O	1.390120	0.531562	0.446743
O25	O	0.872324	-0.284111	-0.219924
O26	O	1.205657	0.049223	0.113409
O27	O	1.538991	0.382556	0.446742
O28	O	0.787683	-0.135111	-0.284163
O29	O	1.121016	0.198223	0.049171
O30	O	1.454350	0.531556	0.382504
O31	O	0.723379	-0.219871	-0.135141
O32	O	1.056712	0.113462	0.198192
O33	O	1.390046	0.446795	0.531526
O34	O	0.638629	-0.219853	-0.219880
O35	O	0.971962	0.113481	0.113454
O36	O	1.305296	0.446814	0.446787
O37	O	0.723360	-0.284078	-0.368868
O38	O	1.056693	0.049256	-0.035534
O39	O	1.390026	0.382589	0.297799
O40	O	0.638589	-0.284070	-0.284085
O41	O	0.971922	0.049263	0.049249
O42	O	1.305255	0.382597	0.382582
O43	O	0.787630	-0.219866	-0.368901
O44	O	1.120963	0.113468	-0.035568
O45	O	1.454297	0.446801	0.297765
O46	O	0.787499	-0.368858	-0.219880
O47	O	1.120833	-0.035525	0.113453
O48	O	1.454166	0.297808	0.446787
O49	O	0.723286	-0.368844	-0.284085
O50	O	1.056619	-0.035511	0.049248
O51	O	1.389952	0.297823	0.382582
C52	C	0.619638	-0.251959	-0.251977
C53	C	0.952971	0.081375	0.081356
C54	C	1.286304	0.414708	0.414689
C55	C	0.561524	-0.251963	-0.251975
C56	C	0.894857	0.081371	0.081359
C57	C	1.228190	0.414704	0.414692
C58	C	0.201149	-0.285473	-0.285413
C59	C	0.534482	0.047860	0.047920
C60	C	0.867815	0.381193	0.381254
C61	C	0.146544	-0.285477	-0.285421
C62	C	0.479878	0.047857	0.047912
C63	C	0.813211	0.381190	0.381246
O64	O	0.118297	-0.313943	-0.313821
O65	O	0.451631	0.019390	0.019512
O66	O	0.784964	0.352724	0.352845
N67	N	0.119241	-0.251994	-0.252047
N68	N	0.452575	0.081340	0.081286
N69	N	0.785908	0.414673	0.414620
C70	C	0.146545	-0.218502	-0.218666
C71	C	0.479879	0.114831	0.114667
C72	C	0.813212	0.448165	0.448000
O73	O	0.118308	-0.190022	-0.190280
O74	O	0.451641	0.143311	0.143053
O75	O	0.784975	0.476644	0.476387
C76	C	0.201149	-0.218496	-0.218661
C77	C	0.534482	0.114837	0.114672
C78	C	0.867815	0.448170	0.448006
C79	C	0.228449	-0.251985	-0.252034
C80	C	0.561782	0.081348	0.081300
C81	C	0.895116	0.414681	0.414633
C82	C	0.228449	-0.318959	-0.318783
C83	C	0.561782	0.014374	0.014550
C84	C	0.895115	0.347708	0.347884
C85	C	0.283049	-0.318956	-0.318774
C86	C	0.616383	0.014377	0.014559
C87	C	0.949716	0.347710	0.347893
C88	C	0.310350	-0.285468	-0.285395
C89	C	0.643683	0.047865	0.047939
C90	C	0.977016	0.381199	0.381272
C91	C	0.283049	-0.251983	-0.252024
C92	C	0.616383	0.081351	0.081309
C93	C	0.949716	0.414684	0.414642
C94	C	0.228452	-0.185002	-0.185283
C95	C	0.561785	0.148331	0.148050
C96	C	0.895119	0.481664	0.481383
C97	C	0.283059	-0.185000	-0.185281
C98	C	0.616392	0.148334	0.148052
C99	C	0.949726	0.481667	0.481385
C100	C	0.310359	-0.218488	-0.218654
C101	C	0.643692	0.114845	0.114680
C102	C	0.977026	0.448178	0.448013
C103	C	0.364950	-0.218492	-0.218636
C104	C	0.698284	0.114842	0.114697
C105	C	1.031617	0.448175	0.448031
N106	N	0.392253	-0.251974	-0.252010
N107	N	0.725587	0.081359	0.081323
N108	N	1.058920	0.414692	0.414656
C109	C	0.364953	-0.285463	-0.285389
C110	C	0.698286	0.047871	0.047944
C111	C	1.031620	0.381204	0.381277
C112	C	0.031875	-0.218515	-0.218680
C113	C	0.365208	0.114818	0.114653
C114	C	0.698541	0.448151	0.447986
C115	C	-0.022728	-0.218523	-0.218683
C116	C	0.310606	0.114810	0.114651
C117	C	0.643939	0.448144	0.447984
C118	C	-0.022725	-0.285497	-0.285438
C119	C	0.310608	0.047836	0.047895
C120	C	0.643942	0.381170	0.381228
C121	C	0.031878	-0.285492	-0.285433
C122	C	0.365212	0.047842	0.047900
C123	C	0.698545	0.381175	0.381234
C124	C	0.059178	-0.251998	-0.252054
C125	C	0.392511	0.081335	0.081279
C126	C	0.725844	0.414669	0.414612
C127	C	0.479618	-0.285455	-0.285368
C128	C	0.812951	0.047878	0.047966
C129	C	1.146285	0.381212	0.381299
C130	C	0.534223	-0.285451	-0.285354
C131	C	0.867557	0.047883	0.047979
C132	C	1.200890	0.381216	0.381313
C133	C	0.534216	-0.218475	-0.218601
C134	C	0.867549	0.114858	0.114733
C135	C	1.200883	0.448192	0.448066
C136	C	0.479615	-0.218481	-0.218612
C137	C	0.812949	0.114853	0.114721
C138	C	1.146282	0.448186	0.448055
C139	C	0.452318	-0.251972	-0.252000
C140	C	0.785651	0.081361	0.081334
C141	C	1.118984	0.414694	0.414667
O142	O	0.393232	-0.190038	-0.190252
O143	O	0.726565	0.143295	0.143082
O144	O	1.059899	0.476628	0.476415
O145	O	0.393197	-0.313933	-0.313776
O146	O	0.726530	0.019401	0.019558
O147	O	1.059864	0.352734	0.352891
C148	C	0.755392	-0.387822	-0.251989
C149	C	1.088726	-0.054489	0.081344
C150	C	1.422059	0.278845	0.414678
C151	C	0.755403	-0.445936	-0.251996
C152	C	1.088736	-0.112603	0.081337
C153	C	1.422069	0.220731	0.414670
C154	C	0.789004	-0.806294	-0.218638
C155	C	1.122337	-0.472961	0.114695
C156	C	1.455670	-0.139627	0.448028
C157	C	0.789024	-0.860898	-0.218645
C158	C	1.122357	-0.527565	0.114688
C159	C	1.455691	-0.194232	0.448021
O160	O	0.817502	-0.889131	-0.190257
O161	O	1.150835	-0.555797	0.143076
O162	O	1.484168	-0.222464	0.476410
N163	N	0.755572	-0.888218	-0.252048
N164	N	1.088906	-0.554885	0.081286
N165	N	1.422239	-0.221552	0.414619
C166	C	0.722102	-0.860932	-0.285449
C167	C	1.055435	-0.527598	0.047885
C168	C	1.388768	-0.194265	0.381218
O169	O	0.693651	-0.889184	-0.313861
O170	O	1.026984	-0.555850	0.019472
O171	O	1.360317	-0.222517	0.352806
C172	C	0.722085	-0.806328	-0.285444
C173	C	1.055418	-0.472995	0.047889
C174	C	1.388751	-0.139662	0.381223
C175	C	0.755535	-0.779011	-0.252036
C176	C	1.088868	-0.445678	0.081298
C177	C	1.422201	-0.112344	0.414631
C178	C	0.822452	-0.778976	-0.185233
C179	C	1.155785	-0.445643	0.148100
C180	C	1.489118	-0.112310	0.481433
C181	C	0.822431	-0.724376	-0.185226
C182	C	1.155764	-0.391043	0.148108
C183	C	1.489097	-0.057709	0.481441
C184	C	0.788962	-0.697093	-0.218623
C185	C	1.122295	-0.363760	0.114710
C186	C	1.455628	-0.030426	0.448043
C187	C	0.755514	-0.724410	-0.252028
C188	C	1.088847	-0.391077	0.081305
C189	C	1.422180	-0.057744	0.414638
C190	C	0.688617	-0.779042	-0.318847
C191	C	1.021950	-0.445709	0.014486
C192	C	1.355284	-0.112376	0.347819
C193	C	0.688603	-0.724435	-0.318840
C194	C	1.021936	-0.391102	0.014493
C195	C	1.355270	-0.057769	0.347827
C196	C	0.722053	-0.697118	-0.285432
C197	C	1.055387	-0.363785	0.047901
C198	C	1.388720	-0.030451	0.381235
C199	C	0.722024	-0.642527	-0.285418
C200	C	1.055357	-0.309193	0.047915
C201	C	1.388690	0.024140	0.381249
N202	N	0.755475	-0.615206	-0.252016
N203	N	1.088809	-0.281873	0.081317
N204	N	1.422142	0.051460	0.414651
C205	C	0.788944	-0.642490	-0.218618
C206	C	1.122278	-0.309156	0.114715
C207	C	1.455611	0.024177	0.448048
C208	C	0.722141	-0.975602	-0.285457
C209	C	1.055474	-0.642269	0.047877
C210	C	1.388808	-0.308936	0.381210
C211	C	0.722155	-1.030204	-0.285459
C212	C	1.055489	-0.696871	0.047874
C213	C	1.388822	-0.363538	0.381207
C214	C	0.789078	-1.030167	-0.218656
C215	C	1.122412	-0.696834	0.114677
C216	C	1.455745	-0.363501	0.448010
C217	C	0.789061	-0.975564	-0.218652
C218	C	1.122395	-0.642231	0.114682
C219	C	1.455728	-0.308897	0.448015
C220	C	0.755593	-0.948282	-0.252055
C221	C	1.088926	-0.614949	0.081279
C222	C	1.422260	-0.281615	0.414612
C223	C	0.788897	-0.527824	-0.218605
C224	C	1.122231	-0.194491	0.114728
C225	C	1.455564	0.138842	0.448062
C226	C	0.788872	-0.473219	-0.218599
C227	C	1.122205	-0.139886	0.114735
C228	C	1.455538	0.193448	0.448068
C229	C	0.721951	-0.473261	-0.285403
C230	C	1.055284	-0.139928	0.047930
C231	C	1.388617	0.193406	0.381263
C232	C	0.721974	-0.527862	-0.285408
C233	C	1.055307	-0.194528	0.047926
C234	C	1.388641	0.138805	0.381259
C235	C	0.755452	-0.555142	-0.252007
C236	C	1.088785	-0.221809	0.081327
C237	C	1.422118	0.111525	0.414660
O238	O	0.693562	-0.614260	-0.313793
O239	O	1.026895	-0.280926	0.019540
O240	O	1.360229	0.052407	0.352873
O241	O	0.817396	-0.614231	-0.190216
O242	O	1.150729	-0.280898	0.143117
O243	O	1.484062	0.052436	0.476451
C244	C	0.891853	-0.252000	-0.252049
C245	C	1.225187	0.081333	0.081285
C246	C	1.558520	0.414666	0.414618
C247	C	0.949967	-0.252009	-0.252064
C248	C	1.283301	0.081324	0.081269
C249	C	1.616634	0.414657	0.414603
C250	C	0.755497	-0.251970	-0.388386
C251	C	1.088831	0.081363	-0.055053
C252	C	1.422164	0.414696	0.278281
C253	C	0.755504	-0.251966	-0.446500
C254	C	1.088838	0.081367	-0.113167
C255	C	1.422171	0.414700	0.220167
C256	C	0.755583	-0.115606	-0.252048
C257	C	1.088916	0.217727	0.081285
C258	C	1.422250	0.551060	0.414618
C259	C	0.755627	-0.057492	-0.252064
C260	C	1.088960	0.275841	0.081270
C261	C	1.422293	0.609174	0.414603
C262	C	0.789012	-0.218432	-0.806886
C263	C	1.122346	0.114902	-0.473553
C264	C	1.455679	0.448235	-0.140220
C265	C	0.789019	-0.218417	-0.861491
C266	C	1.122352	0.114916	-0.528157
C267	C	1.455685	0.448249	-0.194824
O268	O	0.817466	-0.189967	-0.889747
O269	O	1.150799	0.143367	-0.556414
O270	O	1.484133	0.476700	-0.223080
N271	N	0.755562	-0.251844	-0.888783
N272	N	1.088895	0.081490	-0.555449
N273	N	1.422229	0.414823	-0.222116
C274	C	0.722093	-0.285283	-0.861468
C275	C	1.055426	0.048050	-0.528134
C276	C	1.388760	0.381384	-0.194801
O277	O	0.693636	-0.313713	-0.889695
O278	O	1.026969	0.019620	-0.556362
O279	O	1.360302	0.352954	-0.223029
C280	C	0.722084	-0.285294	-0.806864
C281	C	1.055418	0.048039	-0.473531
C282	C	1.388751	0.381372	-0.140198
C283	C	0.755547	-0.251870	-0.779575
C284	C	1.088880	0.081464	-0.446242
C285	C	1.422214	0.414797	-0.112908
C286	C	0.822472	-0.185009	-0.779597
C287	C	1.155805	0.148324	-0.446264
C288	C	1.489138	0.481657	-0.112930
C289	C	0.822466	-0.185025	-0.724997
C290	C	1.155799	0.148309	-0.391663
C291	C	1.489133	0.481642	-0.058330
C292	C	0.789000	-0.218462	-0.697685
C293	C	1.122334	0.114871	-0.364352
C294	C	1.455667	0.448204	-0.031019
C295	C	0.755541	-0.251885	-0.724974
C296	C	1.088874	0.081448	-0.391641
C297	C	1.422208	0.414782	-0.058308
C298	C	0.688613	-0.318731	-0.779550
C299	C	1.021946	0.014603	-0.446217
C300	C	1.355280	0.347936	-0.112883
C301	C	0.688607	-0.318739	-0.724943
C302	C	1.021940	0.014594	-0.391610
C303	C	1.355273	0.347928	-0.058276
C304	C	0.722069	-0.285314	-0.697654
C305	C	1.055403	0.048019	-0.364320
C306	C	1.388736	0.381352	-0.030987
C307	C	0.722070	-0.285338	-0.643063
C308	C	1.055403	0.047995	-0.309729
C309	C	1.388736	0.381329	0.023604
N310	N	0.755526	-0.251912	-0.615771
N311	N	1.088860	0.081422	-0.282437
N312	N	1.422193	0.414755	0.050896
C313	C	0.788992	-0.218474	-0.643082
C314	C	1.122325	0.114860	-0.309749
C315	C	1.455658	0.448193	0.023585
C316	C	0.722113	-0.285256	-0.976138
C317	C	1.055446	0.048077	-0.642805
C318	C	1.388780	0.381411	-0.309472
C319	C	0.722124	-0.285247	-1.030741
C320	C	1.055457	0.048086	-0.697407
C321	C	1.388791	0.381419	-0.364074
C322	C	0.789049	-0.218381	-1.030760
C323	C	1.122383	0.114952	-0.697427
C324	C	1.455716	0.448286	-0.364093
C325	C	0.789041	-0.218392	-0.976157
C326	C	1.122374	0.114941	-0.642823
C327	C	1.455707	0.448274	-0.309490
C328	C	0.755570	-0.251829	-0.948846
C329	C	1.088903	0.081504	-0.615513
C330	C	1.422237	0.414837	-0.282180
C331	C	0.788977	-0.218509	-0.528417
C332	C	1.122311	0.114825	-0.195083
C333	C	1.455644	0.448158	0.138250
C334	C	0.788970	-0.218529	-0.473811
C335	C	1.122303	0.114805	-0.140478
C336	C	1.455636	0.448138	0.192855
C337	C	0.722043	-0.285393	-0.473797
C338	C	1.055376	0.047940	-0.140463
C339	C	1.388710	0.381274	0.192870
C340	C	0.722052	-0.285375	-0.528397
C341	C	1.055385	0.047958	-0.195064
C342	C	1.388719	0.381291	0.138269
C343	C	0.755521	-0.251929	-0.555706
C344	C	1.088854	0.081404	-0.222373
C345	C	1.422187	0.414738	0.110961
O346	O	0.693635	-0.313773	-0.614771
O347	O	1.026969	0.019561	-0.281438
O348	O	1.360302	0.352894	0.051895
O349	O	0.817439	-0.190044	-0.614847
O350	O	1.150773	0.143290	-0.281514
O351	O	1.484106	0.476623	0.051819
C352	C	0.755494	-0.251951	-0.116170
C353	C	1.088827	0.081383	0.217163
C354	C	1.422160	0.414716	0.550496
C355	C	0.755588	-0.251807	-0.058057
C356	C	1.088921	0.081526	0.275277
C357	C	1.422254	0.414859	0.608610
H358	H	0.054099	-0.191241	-0.191496
H359	H	0.387432	0.142092	0.141838
H360	H	0.720765	0.475425	0.475171
H361	H	0.849670	-0.702137	-0.158024
H362	H	1.183003	-0.368804	0.175310
H363	H	1.516337	-0.035471	0.508643
C364	C	0.888627	-0.118926	-0.774117
C365	C	1.221961	0.214408	-0.440784
C366	C	1.555294	0.547741	-0.107451
C367	C	0.859265	-0.148253	-0.809612
C368	C	1.192598	0.185080	-0.476278
C369	C	1.525931	0.518413	-0.142945
H370	H	0.911347	-0.096237	-0.792645
H371	H	1.244681	0.237096	-0.459312
H372	H	1.578014	0.570429	-0.125979
H373	H	0.865857	-0.098928	-0.752821
H374	H	1.199190	0.234406	-0.419488
H375	H	1.532524	0.567739	-0.086154
H376	H	0.908598	-0.141724	-0.752819
H377	H	1.241931	0.191610	-0.419486
H378	H	1.575264	0.524943	-0.086153
H379	H	0.839291	-0.125455	-0.830907
H380	H	1.172625	0.207878	-0.497574
H381	H	1.505958	0.541212	-0.164241
H382	H	0.882038	-0.168253	-0.830917
H383	H	1.215371	0.165081	-0.497584
H384	H	1.548704	0.498414	-0.164250
C385	C	0.855192	-0.152297	-0.981673
C386	C	1.188525	0.181036	-0.648340
C387	C	1.521859	0.514369	-0.315006
C388	C	0.825819	-0.181647	-0.946163
C389	C	1.159152	0.151687	-0.612830
C390	C	1.492486	0.485020	-0.279496
H391	H	0.877895	-0.129609	-0.963157
H392	H	1.211228	0.203725	-0.629824
H393	H	1.544561	0.537058	-0.296491
H394	H	0.875176	-0.175078	-1.002969
H395	H	1.208510	0.158255	-0.669636
H396	H	1.541843	0.491589	-0.336302
H397	H	0.832423	-0.132294	-1.002970
H398	H	1.165757	0.201039	-0.669637
H399	H	1.499090	0.534372	-0.336304
H400	H	0.848587	-0.201653	-0.924868
H401	H	1.181921	0.131681	-0.591535
H402	H	1.515254	0.465014	-0.258202
H403	H	0.805833	-0.158863	-0.924858
H404	H	1.139166	0.174470	-0.591525
H405	H	1.472500	0.507804	-0.258192
H406	H	0.694912	-1.052442	-0.312659
H407	H	1.028245	-0.719108	0.020675
H408	H	1.361579	-0.385775	0.354008
H409	H	0.816300	-0.953325	-0.191448
H410	H	1.149633	-0.619992	0.141885
H411	H	1.482966	-0.286659	0.475218
H412	H	0.556449	-0.312723	-0.312530
H413	H	0.889782	0.020610	0.020803
H414	H	1.223115	0.353943	0.354136
C415	C	0.485120	-0.351658	-0.351350
C416	C	0.818454	-0.018324	-0.018017
C417	C	1.151787	0.315009	0.315316
C418	C	0.449618	-0.322270	-0.322067
C419	C	0.782951	0.011063	0.011267
C420	C	1.116285	0.344397	0.344600
H421	H	0.466598	-0.374388	-0.374003
H422	H	0.799932	-0.041055	-0.040670
H423	H	1.133265	0.292278	0.292664
H424	H	0.506439	-0.328904	-0.371384
H425	H	0.839773	0.004429	-0.038051
H426	H	1.173106	0.337763	0.295282
H427	H	0.506395	-0.371618	-0.328522
H428	H	0.839728	-0.038285	0.004811
H429	H	1.173061	0.295049	0.338145
H430	H	0.428346	-0.302306	-0.344895
H431	H	0.761679	0.031027	-0.011562
H432	H	1.095013	0.364360	0.321772
H433	H	0.428290	-0.345026	-0.302031
H434	H	0.761623	-0.011693	0.031302
H435	H	1.094957	0.321640	0.364635
H436	H	0.694881	-0.312471	-1.052955
H437	H	1.028214	0.020862	-0.719621
H438	H	1.361548	0.354196	-0.386288
C439	C	0.299835	-0.159398	-0.096790
C440	C	0.633168	0.173935	0.236543
C441	C	0.966501	0.507268	0.569877
C442	C	0.313068	-0.148186	-0.148586
C443	C	0.646401	0.185147	0.184747
C444	C	0.979735	0.518480	0.518081
H445	H	0.318364	-0.136675	-0.074136
H446	H	0.651697	0.196658	0.259197
H447	H	0.985030	0.529992	0.592531
H448	H	0.263412	-0.154606	-0.092024
H449	H	0.596745	0.178728	0.241309
H450	H	0.930079	0.512061	0.574643
H451	H	0.308762	-0.194517	-0.089080
H452	H	0.642096	0.138816	0.244253
H453	H	0.975429	0.472149	0.577586
H454	H	0.304137	-0.113068	-0.156297
H455	H	0.637470	0.220265	0.177036
H456	H	0.970803	0.553598	0.510370
H457	H	0.349499	-0.152975	-0.153354
H458	H	0.682832	0.180358	0.179979
H459	H	1.016165	0.513692	0.513312
C460	C	0.714788	-0.355604	-0.914726
C461	C	1.048121	-0.022271	-0.581393
C462	C	1.381455	0.311062	-0.248060
C463	C	0.685327	-0.322019	-0.946118
C464	C	1.018660	0.011314	-0.612785
C465	C	1.351993	0.344647	-0.279452
H466	H	0.692077	-0.378297	-0.896193
H467	H	1.025410	-0.044964	-0.562860
H468	H	1.358743	0.288370	-0.229526
H469	H	0.737553	-0.375597	-0.936032
H470	H	1.070887	-0.042264	-0.602699
H471	H	1.404220	0.291069	-0.269365
H472	H	0.734708	-0.335694	-0.890658
H473	H	1.068041	-0.002360	-0.557324
H474	H	1.401374	0.330973	-0.223991
H475	H	0.665410	-0.341930	-0.970190
H476	H	0.998743	-0.008596	-0.636856
H477	H	1.332076	0.324737	-0.303523
H478	H	0.662552	-0.302024	-0.924811
H479	H	0.995885	0.031309	-0.591477
H480	H	1.329219	0.364642	-0.258144
H481	H	0.816298	-0.191153	-1.053007
H482	H	1.149631	0.142181	-0.719673
H483	H	1.482964	0.475514	-0.386340
C484	C	0.818558	-0.389502	-0.188915
C485	C	1.151891	-0.056169	0.144418
C486	C	1.485224	0.277164	0.477752
C487	C	0.825642	-0.443192	-0.181874
C488	C	1.158976	-0.109859	0.151459
C489	C	1.492309	0.223475	0.484792
H490	H	0.841256	-0.370967	-0.166241
H491	H	1.174589	-0.037634	0.167092
H492	H	1.507923	0.295699	0.500426
H493	H	0.826184	-0.380531	-0.224046
H494	H	1.159517	-0.047198	0.109287
H495	H	1.492851	0.286136	0.442620
H496	H	0.783429	-0.380596	-0.181223
H497	H	1.116762	-0.047263	0.152110
H498	H	1.450095	0.286070	0.485444
H499	H	0.860771	-0.452099	-0.189570
H500	H	1.194104	-0.118765	0.143763
H501	H	1.527437	0.214568	0.477097
H502	H	0.818020	-0.452167	-0.146735
H503	H	1.151353	-0.118833	0.186599
H504	H	1.484687	0.214500	0.519932
C505	C	0.818885	-1.113859	-0.189076
C506	C	1.152219	-0.780526	0.144257
C507	C	1.485552	-0.447192	0.477591
C508	C	0.825916	-1.060164	-0.181991
C509	C	1.159249	-0.726831	0.151342
C510	C	1.492583	-0.393498	0.484676
H511	H	0.841641	-1.132377	-0.166456
H512	H	1.174974	-0.799044	0.166877
H513	H	1.508307	-0.465711	0.500210
H514	H	0.783783	-1.122862	-0.181344
H515	H	1.117116	-0.789528	0.151989
H516	H	1.450450	-0.456195	0.485323
H517	H	0.826473	-1.122753	-0.224233
H518	H	1.159806	-0.789420	0.109101
H519	H	1.493140	-0.456087	0.442434
H520	H	0.818324	-1.051269	-0.146835
H521	H	1.151658	-0.717936	0.186498
H522	H	1.484991	-0.384603	0.519831
H523	H	0.861026	-1.051158	-0.189719
H524	H	1.194360	-0.717824	0.143614
H525	H	1.527693	-0.384491	0.476947
C526	C	0.855040	-0.522288	-0.152566
C527	C	1.188373	-0.188955	0.180767
C528	C	1.521707	0.144379	0.514101
C529	C	0.825692	-0.557806	-0.181887
C530	C	1.159025	-0.224472	0.151447
C531	C	1.492359	0.108861	0.484780
H532	H	0.877751	-0.540798	-0.129894
H533	H	1.211084	-0.207465	0.203439
H534	H	1.544417	0.125868	0.536772
H535	H	0.875015	-0.500964	-0.175366
H536	H	1.208348	-0.167631	0.157967
H537	H	1.541682	0.165703	0.491301
H538	H	0.832256	-0.501020	-0.132546
H539	H	1.165589	-0.167687	0.200787
H540	H	1.498923	0.165647	0.534121
H541	H	0.848476	-0.579071	-0.201909
H542	H	1.181809	-0.245738	0.131424
H543	H	1.515143	0.087595	0.464757
H544	H	0.805715	-0.579139	-0.159084
H545	H	1.139049	-0.245805	0.174250
H546	H	1.472382	0.087528	0.507583
C547	C	0.714734	-0.355687	-0.589806
C548	C	1.048067	-0.022353	-0.256472
C549	C	1.381401	0.310980	0.076861
C550	C	0.685272	-0.322116	-0.558399
C551	C	1.018605	0.011217	-0.225065
C552	C	1.351938	0.344551	0.108268
H553	H	0.692023	-0.378367	-0.608322
H554	H	1.025357	-0.045034	-0.274989
H555	H	1.358690	0.288300	0.058344
H556	H	0.734660	-0.335768	-0.613884
H557	H	1.067993	-0.002435	-0.280551
H558	H	1.401327	0.330898	0.052783
H559	H	0.737495	-0.375698	-0.568508
H560	H	1.070828	-0.042365	-0.235175
H561	H	1.404161	0.290968	0.098159
H562	H	0.662514	-0.302101	-0.579697
H563	H	0.995847	0.031232	-0.246364
H564	H	1.329180	0.364565	0.086970
H565	H	0.665337	-0.342036	-0.534318
H566	H	0.998670	-0.008703	-0.200984
H567	H	1.332004	0.324630	0.132349
H568	H	0.816229	-0.191272	-0.550645
H569	H	1.149562	0.142061	-0.217312
H570	H	1.482896	0.475395	0.116022
C571	C	0.814499	-0.129999	-0.457021
C572	C	1.147833	0.203334	-0.123687
C573	C	1.481166	0.536668	0.209646
C574	C	0.825751	-0.181780	-0.443818
C575	C	1.159085	0.151553	-0.110485
C576	C	1.492418	0.484886	0.222848
H577	H	0.837204	-0.107312	-0.438504
H578	H	1.170537	0.226021	-0.105170
H579	H	1.503871	0.559354	0.228163
H580	H	0.819291	-0.125213	-0.493446
H581	H	1.152624	0.208121	-0.160112
H582	H	1.485957	0.541454	0.173221
H583	H	0.779374	-0.122352	-0.448058
H584	H	1.112707	0.210981	-0.114724
H585	H	1.446041	0.544314	0.218609
H586	H	0.860876	-0.189428	-0.452785
H587	H	1.194209	0.143905	-0.119452
H588	H	1.527543	0.477239	0.213882
H589	H	0.820964	-0.186569	-0.407385
H590	H	1.154298	0.146764	-0.074052
H591	H	1.487631	0.480098	0.259282
H592	H	0.457387	-0.191213	-0.191436
H593	H	0.790720	0.142121	0.141897
H594	H	1.124053	0.475454	0.475230
H595	H	0.661364	-0.345949	-0.801759
H596	H	0.994697	-0.012615	-0.468426
H597	H	1.328031	0.320718	-0.135093
H598	H	0.694883	-0.953392	-0.312656
H599	H	1.028216	-0.620058	0.020677
H600	H	1.361550	-0.286725	0.354011
H601	H	0.694738	-0.550105	-0.312613
H602	H	1.028071	-0.216771	0.020720
H603	H	1.361405	0.116562	0.354054
H604	H	-0.044951	-0.191258	-0.191502
H605	H	0.288383	0.142075	0.141831
H606	H	0.621716	0.475408	0.475165
H607	H	0.661350	-0.702225	-0.346042
H608	H	0.994683	-0.368891	-0.012709
H609	H	1.328016	-0.035558	0.320624
H610	H	0.849709	-0.801185	-0.158037
H611	H	1.183042	-0.467851	0.175296
H612	H	1.516376	-0.134518	0.508630
H613	H	0.206227	-0.346229	-0.345967
H614	H	0.539560	-0.012896	-0.012634
H615	H	0.872893	0.320437	0.320699
H616	H	0.661345	-0.345963	-0.702710
H617	H	0.994678	-0.012629	-0.369376
H618	H	1.328011	0.320704	-0.036043
H619	H	0.661376	-0.801275	-0.346049
H620	H	0.994709	-0.467942	-0.012716
H621	H	1.328042	-0.134608	0.320617
H622	H	0.556454	-0.191211	-0.191422
H623	H	0.889787	0.142122	0.141911
H624	H	1.223121	0.475455	0.475244
H625	H	0.694699	-0.451039	-0.312594
H626	H	1.028032	-0.117705	0.020740
H627	H	1.361366	0.215628	0.354073
H628	H	0.054103	-0.312760	-0.312609
H629	H	0.387436	0.020573	0.020725
H630	H	0.720769	0.353906	0.354058
C631	C	0.829756	-0.114692	-0.663622
C632	C	1.163089	0.218641	-0.330289
C633	C	1.496422	0.551975	0.003045
C634	C	0.859236	-0.148264	-0.695011
C635	C	1.192569	0.185070	-0.361678
C636	C	1.525902	0.518403	-0.028345
H637	H	0.852455	-0.091993	-0.645113
H638	H	1.185788	0.241340	-0.311780
H639	H	1.519121	0.574673	0.021553
H640	H	0.806988	-0.094705	-0.684926
H641	H	1.140321	0.238629	-0.351593
H642	H	1.473655	0.571962	-0.018260
H643	H	0.809837	-0.134612	-0.639532
H644	H	1.143170	0.198721	-0.306198
H645	H	1.476504	0.532054	0.027135
H646	H	0.879152	-0.128344	-0.719104
H647	H	1.212485	0.204990	-0.385771
H648	H	1.545818	0.538323	-0.052438
H649	H	0.882012	-0.168253	-0.673705
H650	H	1.215346	0.165080	-0.340372
H651	H	1.548679	0.498414	-0.007038
H652	H	-0.044963	-0.312763	-0.312619
H653	H	0.288371	0.020570	0.020714
H654	H	0.621704	0.353903	0.354047
C655	C	0.692318	-0.315091	-0.390080
C656	C	1.025651	0.018243	-0.056747
C657	C	1.358984	0.351576	0.276587
C658	C	0.685256	-0.322144	-0.443769
C659	C	1.018589	0.011189	-0.110435
C660	C	1.351923	0.344523	0.222898
H661	H	0.669602	-0.337775	-0.371542
H662	H	1.002935	-0.004442	-0.038209
H663	H	1.336269	0.328891	0.295124
H664	H	0.727435	-0.322755	-0.381144
H665	H	1.060769	0.010578	-0.047811
H666	H	1.394102	0.343911	0.285523
H667	H	0.684696	-0.279958	-0.381142
H668	H	1.018029	0.053375	-0.047809
H669	H	1.351363	0.386708	0.285525
H670	H	0.692882	-0.357275	-0.452707
H671	H	1.026215	-0.023942	-0.119374
H672	H	1.359548	0.309391	0.213959
H673	H	0.650130	-0.314483	-0.452708
H674	H	0.983463	0.018850	-0.119375
H675	H	1.316797	0.352184	0.213959
H676	H	0.206233	-0.157734	-0.158106
H677	H	0.539567	0.175600	0.175227
H678	H	0.872900	0.508933	0.508560
H679	H	0.305272	-0.346225	-0.345950
H680	H	0.638606	-0.012892	-0.012617
H681	H	0.971939	0.320441	0.320716
