data_functionalizedCrystal
_audit_creation_method	'MofGen! by Chris Wilmer'
_symmetry_space_group_name_H-M	'P1'
_symmetry_Int_Tables_number	1
_symmetry_cell_setting	triclinic
loop_
_symmetry_equiv_pos_as_xyz
  x,y,z
_cell_length_a	13.033293
_cell_length_b	16.625545
_cell_length_c	13.033109
_cell_angle_alpha	97.153577
_cell_angle_beta	74.800007
_cell_angle_gamma	97.195104
loop_
_atom_site_label
_atom_site_type_symbol
_atom_site_fract_x
_atom_site_fract_y
_atom_site_fract_z
Zn1	Zn	1.700241	-0.233630	-0.807168
Zn2	Zn	2.200241	0.266370	-0.307168
Zn3	Zn	1.677549	-0.353294	-0.629535
Zn4	Zn	2.177549	0.146706	-0.129535
Zn5	Zn	1.500045	-0.233645	-0.606971
Zn6	Zn	2.000045	0.266355	-0.106971
Zn7	Zn	1.522542	-0.383600	-0.784507
Zn8	Zn	2.022542	0.116400	-0.284507
O9	O	1.600094	-0.301042	-0.707045
O10	O	2.100094	0.198958	-0.207045
O11	O	1.845884	-0.236815	-0.802532
O12	O	2.345884	0.263185	-0.302532
O13	O	1.635090	-0.324746	-0.477902
O14	O	2.135090	0.175254	0.022098
O15	O	1.526683	-0.120807	-0.633568
O16	O	2.026683	0.379193	-0.133568
O17	O	1.829212	-0.324732	-0.672025
O18	O	2.329212	0.175268	-0.172025
O19	O	1.673766	-0.120796	-0.780652
O20	O	2.173766	0.379204	-0.280652
O21	O	1.504679	-0.236840	-0.461324
O22	O	2.004679	0.263160	0.038676
O23	O	1.354376	-0.266226	-0.611594
O24	O	1.854376	0.233774	-0.111594
O25	O	1.565027	-0.376382	-0.936153
O26	O	2.065027	0.123618	-0.436153
O27	O	1.370905	-0.376397	-0.742030
O28	O	1.870905	0.123603	-0.242030
O29	O	1.695581	-0.266201	-0.952802
O30	O	2.195581	0.233799	-0.452802
O31	O	1.656905	-0.470151	-0.650052
O32	O	2.156905	0.029849	-0.150052
O33	O	1.543023	-0.492416	-0.763909
O34	O	2.043023	0.007584	-0.263909
C35	C	1.324096	-0.324602	-0.671905
C36	C	1.824096	0.175398	-0.171905
C37	C	1.206026	-0.334703	-0.656897
C38	C	1.706026	0.165297	-0.156897
C39	C	1.161649	-0.295791	-0.714878
C40	C	1.661649	0.204209	-0.214878
C41	C	1.039617	-0.306229	-0.699368
C42	C	1.539617	0.193771	-0.199368
C43	C	1.599975	-0.510540	-0.706997
C44	C	2.099975	-0.010540	-0.206997
C45	C	1.600025	-0.600159	-0.707024
C46	C	2.100025	-0.100159	-0.207024
C47	C	1.600069	-0.672940	-0.707051
C48	C	2.100069	-0.172940	-0.207051
C49	C	1.600134	-0.764245	-0.707082
C50	C	2.100134	-0.264245	-0.207082
C51	C	1.600191	-0.837018	-0.707103
C52	C	2.100191	-0.337018	-0.207103
C53	C	1.600254	-0.928329	-0.707132
C54	C	2.100254	-0.428329	-0.207132
C55	C	1.877170	-0.277391	-0.742323
C56	C	2.377170	0.222609	-0.242323
C57	C	1.995243	-0.267312	-0.757357
C58	C	2.495243	0.232688	-0.257357
C59	C	1.635344	-0.324670	-0.984096
C60	C	2.135344	0.175330	-0.484096
C61	C	1.650366	-0.334739	-1.102158
C62	C	2.150366	0.165261	-0.602158
C63	C	1.600246	-0.090726	-0.707120
C64	C	2.100246	0.409274	-0.207120
C65	C	1.600311	-0.001101	-0.707153
C66	C	2.100311	0.498899	-0.207153
C67	C	1.592538	-0.295734	-1.146592
C68	C	2.092538	0.204266	-0.646592
C69	C	1.608062	-0.306140	-1.268615
C70	C	2.108062	0.193860	-0.768615
C71	C	1.565042	-0.277443	-0.431080
C72	C	2.065042	0.222557	0.068920
C73	C	1.550227	-0.267129	-0.313045
C74	C	2.050227	0.232871	0.186955
H75	H	1.047587	-0.226263	-0.818478
H76	H	1.547587	0.273737	-0.318478
H77	H	0.987271	-0.347272	-0.638239
H78	H	1.487271	0.152728	-0.138239
N79	N	1.140348	-0.386180	-0.580212
N80	N	1.640348	0.113820	-0.080212
N81	N	1.041310	-0.394582	-0.567717
N82	N	1.541310	0.105418	-0.067717
H83	H	0.994924	-0.430938	-0.513555
H84	H	1.494924	0.069062	-0.013555
H85	H	1.531533	-0.254640	-1.094295
H86	H	2.031533	0.245360	-0.594295
H87	H	1.669067	-0.347241	-1.320908
H88	H	2.169067	0.152759	-0.820908
N89	N	1.473705	-0.215565	-1.247441
N90	N	1.973705	0.284435	-0.747441
N91	N	1.503295	-0.155750	-1.190296
N92	N	2.003295	0.344250	-0.690296
H93	H	1.449254	-0.119332	-1.143963
H94	H	1.949254	0.380668	-0.643963
N95	N	1.227325	-0.244299	-0.791545
N96	N	1.727325	0.255701	-0.291545
N97	N	1.326361	-0.235889	-0.804032
N98	N	1.826361	0.264111	-0.304032
H99	H	1.372745	-0.199521	-0.858179
H100	H	1.872745	0.300479	-0.358179
N101	N	1.726881	-0.386301	-1.167767
N102	N	2.226881	0.113699	-0.667767
N103	N	1.739380	-0.394684	-1.266798
N104	N	2.239380	0.105316	-0.766798
H105	H	1.793420	-0.431102	-1.313135
H106	H	2.293420	0.068898	-0.813135
