data_functionalizedCrystal
_audit_creation_method	'MofGen! by Chris Wilmer'
_symmetry_space_group_name_H-M	'P1'
_symmetry_Int_Tables_number	1
_symmetry_cell_setting	triclinic
loop_
_symmetry_equiv_pos_as_xyz
  x,y,z
_cell_length_a	17.699104
_cell_length_b	14.853559
_cell_length_c	16.776229
_cell_angle_alpha	89.995543
_cell_angle_beta	89.991971
_cell_angle_gamma	83.461486
loop_
_atom_site_label
_atom_site_type_symbol
_atom_site_fract_x
_atom_site_fract_y
_atom_site_fract_z
O1	O	1.004362	0.114098	-0.066300
O2	O	0.784024	0.128911	-0.066298
O3	O	0.900082	-0.009747	-0.066299
O4	O	0.888304	0.252756	-0.066300
O5	O	0.900066	-0.009755	0.066278
O6	O	0.784008	0.128903	0.066278
O7	O	1.004346	0.114090	0.066276
Zn8	Zn	0.894175	0.121495	0.087327
Zn9	Zn	0.894195	0.121506	-0.087349
O10	O	0.888288	0.252748	0.066276
C11	C	0.755818	0.128373	-0.000010
C12	C	0.671796	0.126771	-0.000009
C13	C	0.147111	0.199126	-0.000018
C14	C	0.226059	0.200626	-0.000020
C15	C	0.274467	0.119228	-0.000019
C16	C	0.243925	0.036326	-0.000024
C17	C	0.164978	0.034827	-0.000028
C18	C	0.562306	0.042368	-0.000012
C19	C	0.641257	0.043874	-0.000006
C20	C	0.623387	0.208167	-0.000004
C21	C	0.544440	0.206669	-0.000007
C22	C	0.513905	0.123767	-0.000016
C23	C	0.428301	0.122141	-0.000015
C24	C	0.360070	0.120853	-0.000014
C25	C	0.899541	-0.043338	-0.000012
C26	C	0.897946	-0.143416	-0.000016
C27	C	0.891184	-0.566563	-0.072284
C28	C	0.891167	-0.566566	0.072256
C29	C	0.892673	-0.472539	0.072257
C30	C	0.893433	-0.425518	-0.000014
C31	C	0.892688	-0.472526	-0.072285
C32	C	0.893411	-0.425523	0.144527
C33	C	0.894916	-0.331489	0.144531
C34	C	0.895681	-0.284468	0.072259
C35	C	0.894937	-0.331481	-0.000015
C36	C	0.895697	-0.284461	-0.072286
C37	C	0.894958	-0.331473	-0.144561
C38	C	0.893453	-0.425504	-0.144557
C39	C	0.897185	-0.190437	0.072255
C40	C	0.897200	-0.190424	-0.072288
C41	C	1.032552	0.114628	-0.000014
C42	C	1.116573	0.116230	-0.000020
C43	C	0.888828	0.286339	-0.000012
C44	C	0.890424	0.386417	-0.000013
N45	N	0.894166	0.121487	0.206538
N46	N	0.894209	0.121507	-0.206560
C47	C	0.945573	0.060114	0.248255
C48	C	0.945577	0.060113	0.331707
C49	C	0.894178	0.121490	0.373441
C50	C	0.842766	0.182866	0.331718
C51	C	0.842759	0.182861	0.248267
C52	C	0.842794	0.182883	0.668265
C53	C	0.842806	0.182885	0.751722
C54	C	0.945611	0.060135	0.751705
C55	C	0.945604	0.060131	0.668254
C56	C	0.894190	0.121503	0.626539
C57	C	0.894185	0.121502	0.536050
C58	C	0.894186	0.121496	0.463928
H59	H	0.537454	-0.025135	-0.000017
H60	H	0.895571	-0.293176	-0.203404
C61	C	1.002140	-0.007386	0.622351
H62	H	1.032753	-0.043945	0.659149
H63	H	1.033673	0.024996	0.589783
H64	H	0.974868	-0.044880	0.589811
C65	C	0.786215	0.250371	0.202375
H66	H	0.793567	0.241573	0.146698
H67	H	0.794492	0.310531	0.216041
H68	H	0.735696	0.240644	0.216066
C69	C	0.491192	0.296203	-0.000010
H70	H	0.439801	0.283437	-0.000007
H71	H	0.500468	0.330204	-0.046243
H72	H	0.500450	0.330200	0.046228
H73	H	0.987435	0.010138	0.365672
C74	C	0.786263	0.250396	0.797631
H75	H	0.793639	0.241613	0.853306
H76	H	0.735743	0.240672	0.783974
H77	H	0.794539	0.310559	0.783946
C78	C	0.897996	-0.138722	0.151744
H79	H	0.898997	-0.075986	0.141394
H80	H	0.941843	-0.161105	0.181444
H81	H	0.853636	-0.147162	0.181433
C82	C	1.002111	-0.007403	0.202355
H83	H	1.032722	-0.043960	0.239155
H84	H	1.033645	0.024979	0.169788
H85	H	0.974841	-0.044899	0.169814
H86	H	0.890585	-0.604845	-0.131128
H87	H	0.895520	-0.293220	0.203382
C88	C	0.656978	0.299360	-0.000006
H89	H	0.710928	0.288599	-0.000013
H90	H	0.640363	0.332864	0.046226
H91	H	0.640374	0.332868	-0.046244
C92	C	0.890334	-0.618286	0.151747
H93	H	0.889337	-0.681022	0.141397
H94	H	0.846480	-0.595909	0.181448
H95	H	0.934687	-0.609851	0.181435
H96	H	0.800932	0.232856	0.634307
C97	C	0.892630	-0.477217	-0.224050
H98	H	0.891616	-0.539951	-0.213696
H99	H	0.936979	-0.468782	-0.253751
H100	H	0.848772	-0.454832	-0.253739
H101	H	0.680671	-0.022414	-0.000007
H102	H	0.107702	0.265410	-0.000012
C103	C	0.892581	-0.477246	0.224017
H104	H	0.891592	-0.539982	0.213665
H105	H	0.848725	-0.454876	0.253718
H106	H	0.936932	-0.468803	0.253706
H107	H	0.283345	-0.029950	-0.000029
C108	C	0.131386	-0.056359	-0.000028
H109	H	0.171522	-0.104622	-0.000021
H110	H	0.100969	-0.060355	-0.046262
H111	H	0.100954	-0.060362	0.046208
C112	C	0.898036	-0.138708	-0.151787
H113	H	0.897375	-0.180175	-0.194827
H114	H	0.942721	-0.108991	-0.154793
H115	H	0.854513	-0.095060	-0.154792
H116	H	0.250919	0.268128	-0.000025
H117	H	0.987473	0.010160	0.785678
H118	H	0.800912	0.232837	0.365702
