data_functionalizedCrystal
_audit_creation_method	'MofGen! by Chris Wilmer'
_symmetry_space_group_name_H-M	'P1'
_symmetry_Int_Tables_number	1
_symmetry_cell_setting	triclinic
loop_
_symmetry_equiv_pos_as_xyz
  x,y,z
_cell_length_a	16.109301
_cell_length_b	14.519709
_cell_length_c	15.186229
_cell_angle_alpha	89.995307
_cell_angle_beta	89.999362
_cell_angle_gamma	83.570813
loop_
_atom_site_label
_atom_site_type_symbol
_atom_site_fract_x
_atom_site_fract_y
_atom_site_fract_z
O1	O	1.103336	0.118540	-0.073175
O2	O	0.861299	0.133292	-0.073189
O3	O	0.988735	-0.008336	-0.073174
O4	O	0.975900	0.260168	-0.073190
O5	O	0.988726	-0.008338	0.073284
O6	O	0.861291	0.133290	0.073268
O7	O	1.103327	0.118538	0.073282
Zn8	Zn	0.982308	0.125914	0.096529
Zn9	Zn	0.982319	0.125916	-0.096435
O10	O	0.975892	0.260166	0.073267
C11	C	0.830319	0.132693	0.000038
C12	C	0.738021	0.130902	0.000033
C13	C	0.988132	-0.042696	0.000055
C14	C	0.986340	-0.145073	0.000056
C15	C	0.515887	0.210775	0.000038
C16	C	0.429163	0.209085	0.000044
C17	C	0.448747	0.041048	0.000050
C18	C	0.535468	0.042739	0.000051
C19	C	0.569036	0.127606	0.000040
C20	C	0.395591	0.124224	0.000045
C21	C	0.301562	0.122390	0.000052
C22	C	0.663071	0.129440	0.000036
C23	C	0.979741	-0.519955	0.000032
C24	C	0.981574	-0.415651	0.000039
C25	C	0.983041	-0.332517	0.000045
C26	C	0.984873	-0.228207	0.000050
C27	C	1.134307	0.119136	0.000054
C28	C	1.226606	0.120928	0.000053
C29	C	0.976494	0.294526	0.000036
C30	C	0.978287	0.396903	0.000030
N31	N	0.982306	0.125911	0.228221
N32	N	0.982327	0.125911	-0.228128
C33	C	1.038754	0.063219	0.453951
C34	C	1.038756	0.063217	0.546141
C35	C	0.925873	0.188606	0.546136
C36	C	0.925867	0.188603	0.453948
C37	C	0.982312	0.125911	0.407858
C38	C	0.982321	0.125912	0.592236
C39	C	0.982323	0.125910	0.692192
C40	C	0.982309	0.125911	0.307895
H41	H	0.385892	0.276810	0.000044
H42	H	0.578745	-0.024991	0.000055
H43	H	0.879902	0.239654	0.416417
C44	C	0.782031	0.242708	0.574536
C45	C	0.863835	0.257516	0.596805
H46	H	0.743732	0.285248	0.605822
H47	H	0.773953	0.251684	0.513044
H48	H	0.772927	0.181152	0.589655
H49	H	0.872941	0.319070	0.581680
H50	H	0.871916	0.248547	0.658311
H51	H	0.421405	-0.028048	0.000064
H52	H	1.084714	0.012170	0.416427
C53	C	1.087353	-0.096418	0.574526
C54	C	1.100802	-0.005694	0.596804
H55	H	1.125663	-0.138962	0.605800
H56	H	1.031862	-0.106448	0.589644
H57	H	1.095428	-0.105376	0.513024
H58	H	1.092721	0.003266	0.658306
H59	H	1.156306	0.004340	0.581692
C60	C	0.487816	0.376702	0.000043
C61	C	0.552785	0.304059	0.000038
H62	H	0.510595	0.434291	0.000050
H63	H	0.454401	0.372552	-0.051028
H64	H	0.454397	0.372533	0.051119
H65	H	0.586200	0.308224	-0.051041
H66	H	0.586213	0.308210	0.051114
