data_functionalizedCrystal
_audit_creation_method	'MofGen! by Chris Wilmer'
_symmetry_space_group_name_H-M	'P1'
_symmetry_Int_Tables_number	1
_symmetry_cell_setting	triclinic
loop_
_symmetry_equiv_pos_as_xyz
  x,y,z
_cell_length_a	18.101395
_cell_length_b	19.077105
_cell_length_c	19.076919
_cell_angle_alpha	89.923776
_cell_angle_beta	92.272317
_cell_angle_gamma	92.272502
loop_
_atom_site_label
_atom_site_type_symbol
_atom_site_fract_x
_atom_site_fract_y
_atom_site_fract_z
Zn1	Zn	-0.358271	-1.058231	-0.440421
Zn2	Zn	0.141729	-0.558231	0.059579
Zn3	Zn	-0.477344	-1.062857	-0.322915
Zn4	Zn	0.022656	-0.562857	0.177085
Zn5	Zn	-0.348351	-0.945450	-0.318214
Zn6	Zn	0.151649	-0.445450	0.181786
Zn7	Zn	-0.476897	-0.940679	-0.435668
Zn8	Zn	0.023103	-0.440679	0.064332
O9	O	-0.415216	-1.001804	-0.379305
O10	O	0.084784	-0.501804	0.120695
O11	O	-0.378405	-1.157176	-0.428790
O12	O	0.121595	-0.657176	0.071210
O13	O	-0.456268	-1.051216	-0.223960
O14	O	0.043732	-0.551216	0.276040
O15	O	-0.246037	-0.960470	-0.334447
O16	O	0.253963	-0.460470	0.165553
O17	O	-0.465887	-1.160575	-0.342459
O18	O	0.034113	-0.660575	0.157541
O19	O	-0.253326	-1.043330	-0.424232
O20	O	0.246674	-0.543330	0.075768
O21	O	-0.361497	-0.964957	-0.220507
O22	O	0.138503	-0.464957	0.279493
O23	O	-0.361064	-0.846486	-0.329838
O24	O	0.138936	-0.346486	0.170162
O25	O	-0.465126	-0.952340	-0.534630
O26	O	0.034874	-0.452340	-0.034630
O27	O	-0.455506	-0.842981	-0.416131
O28	O	0.044494	-0.342981	0.083869
O29	O	-0.377972	-1.038704	-0.538122
O30	O	0.122028	-0.538704	-0.038122
O31	O	-0.580914	-1.046590	-0.337850
O32	O	-0.080914	-0.546590	0.162150
O33	O	-0.580586	-0.956826	-0.420689
O34	O	-0.080586	-0.456826	0.079311
C35	C	-0.407161	-0.819237	-0.371959
C36	C	0.092839	-0.319237	0.128041
C37	C	-0.403733	-0.741133	-0.368833
C38	C	0.096267	-0.241133	0.131167
C39	C	-0.607621	-1.001711	-0.379280
C40	C	-0.107621	-0.501711	0.120720
C41	C	-0.689937	-1.001735	-0.379296
C42	C	-0.189937	-0.501735	0.120704
C43	C	-0.422606	-0.994474	-0.562585
C44	C	0.077394	-0.494474	-0.062585
C45	C	-0.425755	-0.991350	-0.640688
C46	C	0.074245	-0.491350	-0.140688
C47	C	-0.989036	-1.001887	-0.379340
C48	C	-0.489036	-0.501887	0.120660
C49	C	-0.957547	-0.945531	-0.431600
C50	C	-0.457547	-0.445531	0.068400
C51	C	-0.871910	-0.945280	-0.431419
C52	C	-0.371910	-0.445280	0.068581
C53	C	-0.840650	-1.001811	-0.379319
C54	C	-0.340650	-0.501811	0.120681
C55	C	-0.867911	-0.984741	-0.304458
C56	C	-0.367911	-0.484741	0.195542
C57	C	-0.953554	-0.984379	-0.304770
C58	C	-0.453554	-0.484379	0.195230
C59	C	-0.961424	-1.075459	-0.401293
C60	C	-0.461424	-0.575459	0.098707
C61	C	-0.875820	-1.074956	-0.402900
C62	C	-0.375820	-0.574956	0.097100
C63	C	-0.756788	-1.001770	-0.379302
C64	C	-0.256788	-0.501770	0.120698
C65	C	-1.072898	-1.001927	-0.379351
C66	C	-0.572898	-0.501927	0.120649
C67	C	-0.222060	-1.001916	-0.379345
C68	C	0.277940	-0.501916	0.120655
C69	C	-0.139749	-1.001964	-0.379363
C70	C	0.360251	-0.501964	0.120637
C71	C	-0.423303	-1.185084	-0.386679
C72	C	0.076697	-0.685084	0.113321
C73	C	-0.426749	-1.263188	-0.389822
C74	C	0.073251	-0.763188	0.110178
C75	C	-0.451363	-0.702636	-0.412222
C76	C	0.048637	-0.202636	0.087778
C77	C	-0.448133	-0.629249	-0.409288
C78	C	0.051867	-0.129249	0.090712
C79	C	-0.397276	-0.594361	-0.362962
C80	C	0.102724	-0.094361	0.137038
C81	C	-0.349642	-0.632863	-0.319571
C82	C	0.150358	-0.132863	0.180429
C83	C	-0.352869	-0.706248	-0.322509
C84	C	0.147131	-0.206248	0.177491
C85	C	-0.382341	-0.375075	-0.349369
C86	C	0.117659	0.124925	0.150631
C87	C	-0.379119	-0.301684	-0.346433
C88	C	0.120881	0.198316	0.153567
C89	C	-0.477610	-0.298076	-0.436152
C90	C	0.022390	0.201924	0.063848
C91	C	-0.480836	-0.371463	-0.439082
C92	C	0.019164	0.128537	0.060918
C93	C	-0.433198	-0.409959	-0.395694
C94	C	0.066802	0.090041	0.104306
N95	N	-0.393975	-0.519348	-0.359960
N96	N	0.106025	-0.019348	0.140040
N97	N	-0.436497	-0.484970	-0.398700
N98	N	0.063503	0.015030	0.101300
C99	C	-0.381860	-1.034846	-0.679200
C100	C	0.118140	-0.534846	-0.179200
C101	C	-0.384816	-1.031902	-0.752586
C102	C	0.115184	-0.531902	-0.252586
C103	C	-0.431671	-0.985466	-0.787458
C104	C	0.068329	-0.485466	-0.287458
C105	C	-0.475568	-0.941966	-0.748941
C106	C	0.024432	-0.441966	-0.248941
C107	C	-0.472608	-0.944906	-0.675556
C108	C	0.027392	-0.444906	-0.175556
C109	C	-0.445387	-0.971847	-1.006740
C110	C	0.054613	-0.471847	-0.506740
C111	C	-0.448346	-0.968911	-1.080130
C112	C	0.051654	-0.468911	-0.580130
C113	C	-0.357593	-1.058847	-1.083770
C114	C	0.142407	-0.558847	-0.583770
C115	C	-0.354640	-1.061786	-1.010384
C116	C	0.145360	-0.561786	-0.510384
C117	C	-0.398533	-1.018283	-0.971872
C118	C	0.101467	-0.518283	-0.471872
N119	N	-0.434696	-0.982458	-0.862471
N120	N	0.065304	-0.482458	-0.362471
N121	N	-0.395505	-1.021289	-0.896861
N122	N	0.104495	-0.521289	-0.396861
C123	C	-0.407803	-1.009146	-0.196739
C124	C	0.092197	-0.509146	0.303261
C125	C	-0.404451	-1.012406	-0.118642
C126	C	0.095549	-0.512406	0.381358
H127	H	-0.853628	-0.955615	-0.486834
H128	H	-0.353628	-0.455615	0.013166
Br129	Br	-0.318274	-1.097875	-0.631881
Br130	Br	0.181726	-0.597875	-0.131881
H131	H	-0.492778	-0.731037	-0.449944
H132	H	0.007222	-0.231037	0.050056
H133	H	-0.321856	-1.094263	-1.115133
H134	H	0.178144	-0.594263	-0.615133
Br135	Br	-1.002272	-1.102367	-0.490988
Br136	Br	-0.502272	-0.602367	0.009012
Br137	Br	-0.827220	-0.896229	-0.273595
Br138	Br	-0.327220	-0.396229	0.226405
Br139	Br	-0.539153	-0.878940	-0.796267
Br140	Br	-0.039153	-0.378940	-0.296267
H141	H	-0.522250	-0.399864	-0.476804
H142	H	-0.022250	0.100136	0.023196
Br143	Br	-0.512774	-0.577006	-0.468178
Br144	Br	-0.012774	-0.077006	0.031822
H145	H	-0.980878	-0.955734	-0.487188
H146	H	-0.480878	-0.455734	0.012812
H147	H	-0.858335	-1.087883	-0.458008
H148	H	-0.358335	-0.587883	0.041992
Br149	Br	-0.280614	-0.585515	-0.256705
Br150	Br	0.219386	-0.085515	0.243295
Br151	Br	-0.542260	-0.245829	-0.495029
Br152	Br	-0.042260	0.254171	0.004971
Br153	Br	-0.988685	-0.855088	-0.407276
Br154	Br	-0.488685	-0.355088	0.092724
Br155	Br	-0.310103	-0.254336	-0.283550
Br156	Br	0.189897	0.245664	0.216450
Br157	Br	-0.511936	-0.905884	-1.127456
Br158	Br	-0.011936	-0.405884	-0.627456
H159	H	-0.314080	-0.737591	-0.287181
H160	H	0.185920	-0.237591	0.212819
Br161	Br	-0.317687	-0.427310	-0.290489
Br162	Br	0.182313	0.072690	0.209511
Br163	Br	-0.833949	-1.051222	-0.237569
Br164	Br	-0.333949	-0.551222	0.262431
H165	H	-0.349074	-1.067323	-0.783940
H166	H	0.150926	-0.567323	-0.283940
Br167	Br	-0.291051	-1.124811	-0.963062
Br168	Br	0.208949	-0.624811	-0.463062
Br169	Br	-0.504956	-0.912805	-0.954483
Br170	Br	-0.004956	-0.412805	-0.454483
H171	H	-0.848550	-0.890687	-0.416642
H172	H	-0.348550	-0.390687	0.083358
H173	H	-0.970551	-0.930687	-0.286519
H174	H	-0.470551	-0.430687	0.213481
Br175	Br	-0.988020	-1.050087	-0.237387
Br176	Br	-0.488020	-0.550087	0.262613
Br177	Br	-0.840756	-1.148249	-0.344485
Br178	Br	-0.340756	-0.648249	0.155515
H179	H	-0.981841	-1.117410	-0.363267
H180	H	-0.481841	-0.617410	0.136733
H181	H	-0.508344	-0.909480	-0.644200
H182	H	-0.008344	-0.409480	-0.144200
