data_functionalizedCrystal
_audit_creation_method	'MofGen! by Chris Wilmer'
_symmetry_space_group_name_H-M	'P1'
_symmetry_Int_Tables_number	1
_symmetry_cell_setting	triclinic
loop_
_symmetry_equiv_pos_as_xyz
  x,y,z
_cell_length_a	10.686220
_cell_length_b	12.759394
_cell_length_c	10.686551
_cell_angle_alpha	85.595060
_cell_angle_beta	90.308082
_cell_angle_gamma	94.395425
loop_
_atom_site_label
_atom_site_type_symbol
_atom_site_fract_x
_atom_site_fract_y
_atom_site_fract_z
Zn1	Zn	1.972294	-0.256138	-0.562390
Zn2	Zn	1.956069	-0.446297	-0.352634
Zn3	Zn	1.746413	-0.283014	-0.368708
Zn4	Zn	1.762499	-0.444168	-0.578412
O5	O	1.859319	-0.357404	-0.465536
O6	O	2.145683	-0.271006	-0.521133
O7	O	1.914736	-0.436776	-0.179221
O8	O	1.776434	-0.132422	-0.394422
O9	O	2.133763	-0.410716	-0.367027
O10	O	1.942388	-0.112677	-0.536719
O11	O	1.760702	-0.316812	-0.191030
O12	O	1.573005	-0.314748	-0.409958
O13	O	1.803851	-0.407087	-0.751832
O14	O	1.584824	-0.433147	-0.564026
O15	O	1.957986	-0.268942	-0.740061
O16	O	1.930334	-0.593041	-0.382563
O17	O	1.788119	-0.591477	-0.548440
C18	C	1.533399	-0.376633	-0.490476
C19	C	1.393971	-0.384883	-0.501175
C20	C	1.859248	-0.630377	-0.465521
C21	C	1.859335	-0.747147	-0.465547
C22	C	2.032032	-0.726426	-0.613851
C23	C	2.118420	-0.770924	-0.688009
C24	C	2.118497	-0.880639	-0.688031
C25	C	2.032173	-0.945860	-0.613889
C26	C	1.945785	-0.901363	-0.539730
C27	C	1.945720	-0.791644	-0.539714
C28	C	1.773084	-0.922083	-0.391435
C29	C	1.773011	-0.812368	-0.391405
C30	C	1.686760	-0.987304	-0.317293
C31	C	1.600376	-0.942807	-0.243126
C32	C	1.600303	-0.833085	-0.243107
C33	C	1.686623	-0.767870	-0.317247
C34	C	2.186512	-0.338100	-0.440500
C35	C	2.325942	-0.329874	-0.429831
C36	C	1.884523	-0.334779	-0.792736
C37	C	1.895264	-0.325137	-0.932169
C38	C	1.859427	-0.083361	-0.465576
C39	C	1.859473	0.033420	-0.465593
C40	C	1.834285	-0.379861	-0.139604
C41	C	1.823787	-0.389193	-0.000153
H42	H	1.345540	-0.438300	-0.570437
H43	H	2.188830	-0.916868	-0.748431
H44	H	2.031989	-0.637089	-0.613829
C45	C	2.212084	-0.699935	-0.768368
C46	C	2.193557	-0.594326	-0.752456
C47	C	2.279825	-0.528906	-0.826450
H48	H	2.200255	-0.713028	-0.854099
H49	H	2.295009	-0.714093	-0.743604
H50	H	2.110652	-0.580173	-0.777227
H51	H	2.205396	-0.581199	-0.666740
H52	H	2.362750	-0.543064	-0.801686
H53	H	2.267989	-0.542009	-0.912177
H54	H	2.267274	-0.457244	-0.815655
C55	C	2.032488	-1.064957	-0.614041
C56	C	2.126632	-1.089967	-0.694838
C57	C	2.126968	-1.199668	-0.694996
H58	H	1.953281	-1.093230	-0.641913
H59	H	2.048086	-1.094134	-0.531463
H60	H	2.111026	-1.060802	-0.777399
H61	H	2.205854	-1.061720	-0.666985
H62	H	2.142567	-1.228845	-0.612418
H63	H	2.047757	-1.227932	-0.722866
H64	H	2.190851	-1.216652	-0.749806
C65	C	1.731399	-0.472320	-0.935586
C66	C	1.761120	-0.572490	-0.965239
C67	C	1.676052	-0.649096	-0.905759
H68	H	1.648697	-0.460606	-0.963393
H69	H	1.736254	-0.468062	-0.847304
H70	H	1.756253	-0.576745	-1.053502
H71	H	1.843806	-0.584238	-0.937430
H72	H	1.680907	-0.644838	-0.817477
H73	H	1.593356	-0.637371	-0.933571
H74	H	1.696213	-0.717070	-0.925861
C75	C	1.390657	-0.258822	-0.337388
C76	C	1.459681	-0.319372	-0.251182
C77	C	1.519334	-0.253953	-0.166014
H78	H	1.329421	-0.225392	-0.293932
H79	H	1.445559	-0.206808	-0.381552
H80	H	1.404783	-0.371367	-0.207022
H81	H	1.520938	-0.352800	-0.294601
H82	H	1.574237	-0.201938	-0.210178
H83	H	1.458090	-0.220526	-0.122567
H84	H	1.566183	-0.295024	-0.107520
C85	C	1.506463	-1.013563	-0.162810
C86	C	1.384408	-0.992411	-0.199546
C87	C	1.297864	-1.057585	-0.125597
H88	H	1.518210	-1.000401	-0.077090
H89	H	1.518792	-1.085292	-0.173469
H90	H	1.372084	-0.920699	-0.188877
H91	H	1.372621	-1.005580	-0.285255
H92	H	1.310193	-1.129314	-0.136255
H93	H	1.309623	-1.044417	-0.039880
H94	H	1.215040	-1.043250	-0.150519
C95	C	1.988028	-0.242292	-0.996709
C96	C	2.109718	-0.260032	-0.955447
C97	C	2.195203	-0.183747	-1.014887
H98	H	1.968235	-0.174195	-0.976754
H99	H	1.983276	-0.246623	-1.084984
H100	H	2.114466	-0.255692	-0.867192
H101	H	2.129550	-0.328115	-0.975402
H102	H	2.190451	-0.188078	-1.103162
H103	H	2.175398	-0.115655	-0.994928
H104	H	2.277780	-0.195779	-0.986908
H105	H	1.529951	-0.796862	-0.182723
C106	C	1.686386	-0.648774	-0.317011
C107	C	1.592275	-0.623759	-0.236181
C108	C	1.592031	-0.514057	-0.235926
H109	H	1.670806	-0.619515	-0.399540
H110	H	1.765642	-0.620587	-0.289116
H111	H	1.513036	-0.651933	-0.264082
H112	H	1.607833	-0.652991	-0.153641
H113	H	1.671287	-0.485870	-0.208030
H114	H	1.576454	-0.484808	-0.318459
H115	H	1.528186	-0.497070	-0.181075
H116	H	1.686824	-1.076639	-0.317321
