data_functionalizedCrystal
_audit_creation_method	'MofGen! by Chris Wilmer'
_symmetry_space_group_name_H-M	'P1'
_symmetry_Int_Tables_number	1
_symmetry_cell_setting	triclinic
loop_
_symmetry_equiv_pos_as_xyz
  x,y,z
_cell_length_a	8.559649
_cell_length_b	14.048226
_cell_length_c	14.971486
_cell_angle_alpha	90.006640
_cell_angle_beta	103.303604
_cell_angle_gamma	89.993610
loop_
_atom_site_label
_atom_site_type_symbol
_atom_site_fract_x
_atom_site_fract_y
_atom_site_fract_z
O1	O	2.120074	-0.079144	0.030338
O2	O	1.654959	-0.079150	-0.015849
O3	O	1.899983	-0.079140	0.138309
O4	O	1.875050	-0.079154	-0.123819
O5	O	1.899953	0.079181	0.138315
O6	O	1.654929	0.079171	-0.015843
O7	O	2.120045	0.079177	0.030344
Zn8	Zn	1.887482	0.104311	0.007252
Zn9	Zn	1.887521	-0.104284	0.007244
O10	O	1.875021	0.079167	-0.123813
C11	C	1.595421	0.000010	-0.019346
C12	C	1.418060	0.000008	-0.029765
N13	N	1.887467	0.246672	0.007259
N14	N	1.887549	-0.246645	0.007245
C15	C	2.179583	0.000015	0.033842
C16	C	2.356943	0.000011	0.044260
C17	C	1.898853	0.000020	0.171559
C18	C	1.895512	0.000019	0.270625
C19	C	1.995998	0.296494	0.075497
C20	C	1.996009	0.396152	0.075498
C21	C	1.887495	0.445985	0.007256
C22	C	1.778953	0.396156	-0.060985
C23	C	1.778936	0.296500	-0.060982
C24	C	1.778999	0.603870	-0.060989
C25	C	1.779018	0.703533	-0.060993
C26	C	1.996072	0.703522	0.075491
C27	C	1.996055	0.603866	0.075495
C28	C	1.887514	0.554044	0.007251
C29	C	1.876150	0.000005	-0.157064
C30	C	1.879492	-0.000001	-0.256129
C31	C	2.039457	0.000022	0.337824
C32	C	2.036307	0.000012	0.430905
C33	C	1.889211	0.000007	0.456785
C34	C	1.745255	0.000002	0.389578
C35	C	1.748406	0.000004	0.296498
C36	C	1.738698	-0.000002	0.583586
C37	C	1.735547	-0.000003	0.676671
C38	C	2.026599	0.000006	0.717993
C39	C	2.029750	0.000008	0.624913
C40	C	1.885793	0.000005	0.557712
H41	H	1.334691	-0.000001	-0.101117
H42	H	2.143814	0.000006	0.772713
C43	C	2.115462	0.758325	0.150562
C44	C	2.234838	0.703516	0.225624
C45	C	2.354227	0.758325	0.300688
C46	C	2.354242	0.867943	0.300690
C47	C	2.234862	0.922758	0.225626
C48	C	2.115472	0.867948	0.150562
H49	H	2.234831	0.622365	0.225625
H50	H	2.442600	0.717747	0.356256
H51	H	2.442621	0.908516	0.356257
H52	H	2.234868	1.003908	0.225625
H53	H	2.027099	0.908526	0.094994
C54	C	1.659552	0.241692	-0.136047
C55	C	1.540244	0.296504	-0.211140
C56	C	1.420851	0.241698	-0.286205
C57	C	1.420766	0.132080	-0.286177
C58	C	1.540078	0.077263	-0.211082
C59	C	1.659471	0.132069	-0.136017
H60	H	1.540303	0.377655	-0.211163
H61	H	1.332528	0.282278	-0.341795
H62	H	1.332383	0.091510	-0.341744
H63	H	1.540019	-0.003888	-0.211059
H64	H	1.747794	0.091488	-0.080427
C65	C	2.115367	0.241682	0.150565
C66	C	2.112500	0.255404	0.252226
C67	C	2.231870	0.200596	0.327299
C68	C	2.354106	0.132066	0.300711
C69	C	2.356977	0.118341	0.199046
C70	C	2.237608	0.173149	0.123973
H71	H	2.022010	0.306137	0.271912
H72	H	2.229743	0.210757	0.402558
H73	H	2.442470	0.091494	0.356285
H74	H	2.447468	0.067608	0.179360
H75	H	2.239735	0.162989	0.048714
H76	H	1.440303	0.000010	0.115607
C77	C	2.115419	0.549044	0.150558
C78	C	2.112560	0.562755	0.252221
C79	C	2.231920	0.507932	0.327285
C80	C	2.354139	0.439397	0.300687
C81	C	2.357003	0.425683	0.199020
C82	C	2.237643	0.480506	0.123955
H83	H	2.022081	0.613491	0.271914
H84	H	2.229800	0.518084	0.402547
H85	H	2.442497	0.398813	0.356255
H86	H	2.447481	0.374947	0.179326
H87	H	2.239763	0.470354	0.048694
H88	H	1.631191	0.000002	0.241784
C89	C	1.659640	0.758347	-0.136056
C90	C	1.477717	0.744672	-0.146976
C91	C	1.358335	0.799483	-0.222040
C92	C	1.420875	0.867971	-0.286183
C93	C	1.602808	0.881649	-0.275264
C94	C	1.722190	0.826837	-0.200201
H95	H	1.431412	0.693970	-0.099492
H96	H	1.223656	0.789357	-0.230122
H97	H	1.332502	0.908546	-0.341749
H98	H	1.649112	0.932350	-0.322749
H99	H	1.856868	0.836964	-0.192118
H100	H	2.084382	0.436717	0.131063
H101	H	1.690608	0.563308	-0.116557
H102	H	1.690591	0.436736	-0.116547
H103	H	1.615768	0.000008	0.697738
H104	H	1.621473	-0.000007	0.528871
H105	H	2.159239	0.000032	0.316762
H106	H	2.153522	0.000016	0.485617
H107	H	2.149529	0.000020	0.603846
H108	H	1.625487	-0.000009	0.410656
