data_functionalizedCrystal
_audit_creation_method	'MofGen! by Chris Wilmer'
_symmetry_space_group_name_H-M	'P1'
_symmetry_Int_Tables_number	1
_symmetry_cell_setting	triclinic
loop_
_symmetry_equiv_pos_as_xyz
  x,y,z
_cell_length_a	12.759401
_cell_length_b	14.908520
_cell_length_c	12.759393
_cell_angle_alpha	93.263606
_cell_angle_beta	89.979062
_cell_angle_gamma	93.322137
loop_
_atom_site_label
_atom_site_type_symbol
_atom_site_fract_x
_atom_site_fract_y
_atom_site_fract_z
Zn1	Zn	1.582080	-0.359078	-0.618119
Zn2	Zn	2.082080	0.140922	-0.118119
Zn3	Zn	1.571808	-0.509962	-0.452566
Zn4	Zn	2.071808	-0.009962	0.047434
Zn5	Zn	1.406376	-0.359126	-0.442458
Zn6	Zn	1.906376	0.140874	0.057542
Zn7	Zn	1.396212	-0.509899	-0.628199
Zn8	Zn	1.896212	-0.009899	-0.128199
O9	O	1.489119	-0.434516	-0.535335
O10	O	1.989119	0.065484	-0.035335
O11	O	1.727738	-0.379099	-0.596170
O12	O	2.227738	0.120901	-0.096170
O13	O	1.549818	-0.490000	-0.304207
O14	O	2.049818	0.010000	0.195793
O15	O	1.438236	-0.232875	-0.457311
O16	O	1.938236	0.267125	0.042689
O17	O	1.720192	-0.489953	-0.474539
O18	O	2.220192	0.010047	0.025461
O19	O	1.567325	-0.232840	-0.586369
O20	O	2.067325	0.267160	-0.086369
O21	O	1.428275	-0.379181	-0.296781
O22	O	1.928275	0.120819	0.203219
O23	O	1.258007	-0.379120	-0.467085
O24	O	1.758007	0.120880	0.032915
O25	O	1.420913	-0.489846	-0.773880
O26	O	1.920913	0.010154	-0.273880
O27	O	1.250540	-0.489892	-0.603548
O28	O	1.750540	0.010108	-0.103548
O29	O	1.557470	-0.379038	-0.766474
O30	O	2.057470	0.120962	-0.266474
O31	O	1.539963	-0.636198	-0.484313
O32	O	2.039963	-0.136198	0.015687
O33	O	1.410953	-0.636152	-0.613349
O34	O	1.910953	-0.136152	-0.113349
C35	C	1.216153	-0.434505	-0.535314
C36	C	1.716153	0.065495	-0.035314
C37	C	1.099375	-0.434522	-0.535331
C38	C	1.599375	0.065478	-0.035331
C39	C	1.040646	-0.492289	-0.606288
C40	C	1.540646	0.007711	-0.106288
C41	C	0.930922	-0.492292	-0.606309
C42	C	1.430922	0.007708	-0.106309
C43	C	0.938665	-0.376759	-0.464407
C44	C	1.438665	0.123241	0.035593
C45	C	1.048387	-0.376752	-0.464392
C46	C	1.548387	0.123248	0.035608
C47	C	1.473269	-0.668908	-0.551045
C48	C	1.973269	-0.168908	-0.051045
C49	C	1.466584	-0.769183	-0.557800
C50	C	1.966584	-0.269183	-0.057800
C51	C	1.588499	-0.957595	-0.436237
C52	C	2.088499	-0.457595	0.063763
C53	C	1.582222	-1.051812	-0.442581
C54	C	2.082222	-0.551812	0.057419
C55	C	1.447758	-1.051834	-0.576837
C56	C	1.947758	-0.551834	-0.076837
C57	C	1.454036	-0.957617	-0.570493
C58	C	1.954036	-0.457617	-0.070493
C59	C	1.524407	-0.910501	-0.500189
C60	C	2.024407	-0.410501	-0.000189
C61	C	1.530679	-0.816283	-0.493841
C62	C	2.030679	-0.316283	0.006159
C63	C	1.396221	-0.816307	-0.628101
C64	C	1.896221	-0.316307	-0.128101
C65	C	1.389944	-0.910523	-0.634445
C66	C	1.889944	-0.410523	-0.134445
C67	C	1.763152	-0.434528	-0.535358
C68	C	2.263152	0.065472	-0.035358
C69	C	1.879928	-0.434533	-0.535367
C70	C	2.379928	0.065467	-0.035367
C71	C	1.489204	-0.434429	-0.809363
C72	C	1.989204	0.065571	-0.309363
C73	C	1.489240	-0.434392	-0.926137
C74	C	1.989240	0.065608	-0.426137
C75	C	1.505060	-0.199208	-0.519588
C76	C	2.005060	0.300792	-0.019588
C77	C	1.511853	-0.098934	-0.512877
C78	C	2.011853	0.401066	-0.012877
C79	C	1.560350	-0.376686	-0.977144
C80	C	2.060350	0.123314	-0.477144
C81	C	1.560371	-0.376647	-1.086866
C82	C	2.060371	0.123353	-0.586866
C83	C	1.418166	-0.492029	-1.094564
C84	C	1.918166	0.007971	-0.594564
C85	C	1.418142	-0.492063	-0.984844
C86	C	1.918142	0.007937	-0.484844
C87	C	1.489100	-0.434537	-0.262369
C88	C	1.989100	0.065463	0.237631
C89	C	1.489285	-0.434320	-0.145579
C90	C	1.989285	0.065680	0.354421
H91	H	0.897137	-0.329727	-0.406650
H92	H	1.397137	0.170273	0.093350
O93	O	1.095648	-0.554571	-0.682820
O94	O	1.595648	-0.054571	-0.182820
H95	H	1.142518	-0.600428	-0.638791
H96	H	1.642518	-0.100428	-0.138791
H97	H	1.618274	-0.329655	-1.128391
H98	H	2.118274	0.170345	-0.628391
H99	H	1.332652	-0.948898	-0.691687
H100	H	1.832652	-0.448898	-0.191687
H101	H	1.096206	-0.329706	-0.406610
H102	H	1.596206	0.170294	0.093390
O103	O	1.371857	-1.102669	-0.652645
O104	O	1.871857	-0.602669	-0.152645
H105	H	1.415993	-1.145531	-0.709021
H106	H	1.915993	-0.645531	-0.209021
O107	O	1.637028	-0.314479	-0.913829
O108	O	2.137028	0.185521	-0.413829
H109	H	1.687742	-0.354876	-0.866561
H110	H	2.187742	0.145124	-0.366561
O111	O	1.341485	-0.554231	-1.157882
O112	O	1.841485	-0.054231	-0.657882
H113	H	1.353453	-0.544519	-1.242748
H114	H	1.853453	-0.044519	-0.742748
O115	O	1.327067	-0.765520	-0.697073
O116	O	1.827067	-0.265520	-0.197073
H117	H	1.343817	-0.783539	-0.780764
H118	H	1.843817	-0.283539	-0.280764
H119	H	1.587976	-0.777922	-0.436593
H120	H	2.087976	-0.277922	0.063407
O121	O	0.867568	-0.554697	-0.682729
O122	O	1.367568	-0.054697	-0.182729
H123	H	0.921458	-0.594904	-0.732007
H124	H	1.421458	-0.094904	-0.232007
O125	O	1.341408	-0.554289	-0.929833
O126	O	1.841408	-0.054289	-0.429833
H127	H	1.354611	-0.625096	-0.955615
H128	H	1.854611	-0.125096	-0.455615
O129	O	1.664398	-0.906762	-0.360425
O130	O	2.164398	-0.406762	0.139575
H131	H	1.645229	-0.924905	-0.279168
H132	H	2.145229	-0.424905	0.220832
O133	O	1.651342	-1.102611	-0.373599
O134	O	2.151342	-0.602611	0.126401
H135	H	1.701321	-1.054016	-0.323644
H136	H	2.201321	-0.554016	0.176356
