data_functionalizedCrystal
_audit_creation_method	'MofGen! by Chris Wilmer'
_symmetry_space_group_name_H-M	'P1'
_symmetry_Int_Tables_number	1
_symmetry_cell_setting	triclinic
loop_
_symmetry_equiv_pos_as_xyz
  x,y,z
_cell_length_a	19.077105
_cell_length_b	16.120484
_cell_length_c	19.076919
_cell_angle_alpha	95.046610
_cell_angle_beta	90.076224
_cell_angle_gamma	90.738523
loop_
_atom_site_label
_atom_site_type_symbol
_atom_site_fract_x
_atom_site_fract_y
_atom_site_fract_z
Zn1	Zn	1.040337	-0.403262	-0.456942
Zn2	Zn	1.039017	-0.537287	-0.344927
Zn3	Zn	0.928051	-0.392095	-0.334278
Zn4	Zn	0.916861	-0.536784	-0.457659
O5	O	0.981066	-0.467357	-0.398451
O6	O	1.138276	-0.425924	-0.446240
O7	O	1.028428	-0.513564	-0.245000
O8	O	0.948182	-0.276934	-0.345793
O9	O	1.137306	-0.524392	-0.363943
O10	O	1.030678	-0.285138	-0.435913
O11	O	0.946902	-0.406892	-0.237176
O12	O	0.828452	-0.406405	-0.346488
O13	O	0.929109	-0.523535	-0.556078
O14	O	0.820230	-0.512707	-0.437136
O15	O	1.019827	-0.425436	-0.555551
O16	O	1.017576	-0.653863	-0.364638
O17	O	0.927829	-0.653494	-0.447462
C18	C	0.798901	-0.458290	-0.390734
C19	C	0.720969	-0.454433	-0.387451
C20	C	0.680093	-0.508043	-0.433036
C21	C	0.606867	-0.504408	-0.429953
C22	C	0.574519	-0.447165	-0.381281
C23	C	0.615400	-0.393548	-0.335694
C24	C	0.688624	-0.397180	-0.338781
C25	C	0.355979	-0.430354	-0.367000
C26	C	0.282749	-0.426728	-0.363916
C27	C	0.274222	-0.537586	-0.458176
C28	C	0.347448	-0.541217	-0.461255
C29	C	0.388323	-0.487598	-0.415670
N30	N	0.499670	-0.443449	-0.378128
N31	N	0.463169	-0.491310	-0.418828
C32	C	0.971363	-0.683924	-0.407299
C33	C	0.967276	-0.776577	-0.411111
C34	C	0.959816	-0.946215	-0.418084
C35	C	1.002442	-0.987665	-0.378836
C36	C	0.998291	-1.082058	-0.382716
C37	C	0.963966	-0.851814	-0.414205
C38	C	1.163943	-0.476459	-0.406199
C39	C	1.241874	-0.480338	-0.409501
C40	C	0.973367	-0.475675	-0.582072
C41	C	0.970086	-0.479220	-0.660321
C42	C	0.990826	-0.249946	-0.389585
C43	C	0.994984	-0.157298	-0.385807
C44	C	1.015774	-0.429813	-0.696809
C45	C	1.012683	-0.433140	-0.770331
C46	C	0.963906	-0.485879	-0.807364
C47	C	0.918214	-0.535288	-0.770871
C48	C	0.921302	-0.531956	-0.697350
C49	C	0.949602	-0.501317	-1.027278
C50	C	0.946518	-0.504647	-1.100804
C51	C	1.040987	-0.402498	-1.100259
C52	C	1.044074	-0.399174	-1.026737
C53	C	0.998378	-0.448580	-0.990250
N54	N	0.960747	-0.489283	-0.882516
N55	N	1.001535	-0.445171	-0.915099
C56	C	0.988779	-0.459013	-0.215544
C57	C	0.992206	-0.455240	-0.137292
H58	H	0.706425	-0.554659	-0.472667
C59	C	1.090507	-0.348887	-1.139999
C60	C	1.077354	-0.363072	-1.212311
C61	C	1.122952	-0.313687	-1.248940
H62	H	1.137602	-0.362834	-1.130531
H63	H	1.083255	-0.291809	-1.125269
H64	H	1.084611	-0.420137	-1.227036
H65	H	1.030267	-0.349120	-1.221801
H66	H	1.115700	-0.256610	-1.234210
H67	H	1.170044	-0.327639	-1.239465
H68	H	1.114029	-0.323300	-1.298006
H69	H	0.906796	-0.547595	-1.130954
C70	C	0.899946	-0.555039	-0.987798
C71	C	0.856579	-0.601947	-1.035970
C72	C	0.810826	-0.651448	-0.999624
H73	H	0.871969	-0.520409	-0.956528
H74	H	0.926307	-0.591443	-0.961743
H75	H	0.830220	-0.565547	-1.062012
H76	H	0.884536	-0.636594	-1.067241
H77	H	0.837187	-0.687852	-0.973569
H78	H	0.782854	-0.616812	-0.968355
H79	H	0.781400	-0.683287	-1.032303
H80	H	0.920208	-0.981617	-0.454597
H81	H	0.589056	-0.346936	-0.296068
H82	H	1.055495	-0.386870	-0.666662
H83	H	1.049888	-0.392910	-0.800037
H84	H	1.083794	-0.356231	-0.996590
C85	C	0.400229	-0.372099	-0.317426
C86	C	0.356224	-0.321208	-0.274131
C87	C	0.396966	-0.267536	-0.228448
H88	H	0.429298	-0.338390	-0.344050
H89	H	0.428642	-0.403925	-0.289171
H90	H	0.327824	-0.289384	-0.302383
H91	H	0.327156	-0.354893	-0.247491
H92	H	0.425378	-0.299362	-0.200193
H93	H	0.426032	-0.233833	-0.255078
H94	H	0.367114	-0.233006	-0.199062
H95	H	0.240934	-0.581239	-0.495289
H96	H	0.573589	-0.548064	-0.467073
C97	C	1.055183	-0.940311	-0.330155
C98	C	1.048847	-0.854743	-0.335913
C99	C	1.097408	-0.811090	-0.291072
H100	H	1.101277	-0.957177	-0.343007
H101	H	1.046317	-0.951869	-0.282972
H102	H	1.057717	-0.843190	-0.383086
H103	H	1.002763	-0.837852	-0.323055
H104	H	1.088543	-0.822648	-0.243889
H105	H	1.143499	-0.827963	-0.303928
H106	H	1.093112	-0.753027	-0.294968
C107	C	0.865365	-0.592658	-0.811123
C108	C	0.900894	-0.649987	-0.857180
C109	C	0.852234	-0.702859	-0.894263
H110	H	0.835024	-0.560650	-0.837269
H111	H	0.838605	-0.621655	-0.778885
H112	H	0.927642	-0.620992	-0.889413
H113	H	0.931232	-0.682014	-0.831052
H114	H	0.825474	-0.731856	-0.862026
H115	H	0.821895	-0.670844	-0.920405
H116	H	0.876334	-0.741767	-0.925512
C117	C	0.732885	-0.338938	-0.289200
C118	C	0.688885	-0.288046	-0.245899
C119	C	0.729631	-0.234388	-0.200210
H120	H	0.761958	-0.305230	-0.315819
H121	H	0.761292	-0.370774	-0.260948
H122	H	0.660489	-0.256212	-0.274148
H123	H	0.659811	-0.321731	-0.219265
H124	H	0.758039	-0.266224	-0.171958
H125	H	0.758703	-0.200686	-0.226835
H126	H	0.699783	-0.199857	-0.170821
H127	H	0.884091	-0.572180	-0.667641
H128	H	0.373781	-0.587832	-0.500887
H129	H	0.256414	-0.380104	-0.324285
