data_functionalizedCrystal
_audit_creation_method	'MofGen! by Chris Wilmer'
_symmetry_space_group_name_H-M	'P1'
_symmetry_Int_Tables_number	1
_symmetry_cell_setting	triclinic
loop_
_symmetry_equiv_pos_as_xyz
  x,y,z
_cell_length_a	17.019282
_cell_length_b	17.038272
_cell_length_c	10.268362
_cell_angle_alpha	89.994496
_cell_angle_beta	93.876638
_cell_angle_gamma	87.241387
loop_
_atom_site_label
_atom_site_type_symbol
_atom_site_fract_x
_atom_site_fract_y
_atom_site_fract_z
O1	O	1.053361	0.099546	0.009875
O2	O	0.824549	0.112259	-0.015798
O3	O	0.937595	-0.007912	-0.003104
O4	O	0.940315	0.219716	-0.002819
O5	O	0.937584	-0.007917	0.213496
O6	O	0.824538	0.112254	0.200801
O7	O	1.053350	0.099541	0.226475
Cu8	Cu	0.938943	0.105897	0.233415
Cu9	Cu	0.938956	0.105903	-0.022739
O10	O	0.940304	0.219711	0.213780
C11	C	0.795122	0.111776	0.089201
C12	C	0.707455	0.110336	0.079364
C13	C	0.666268	0.109656	0.192815
C14	C	0.583896	0.108290	0.183576
C15	C	0.542713	0.107612	0.060886
C16	C	0.583906	0.108290	-0.052573
C17	C	0.666277	0.109650	-0.043333
C18	C	0.294008	0.103501	0.027082
C19	C	0.211632	0.102144	0.017850
C20	C	0.211627	0.102143	0.254000
C21	C	0.293999	0.103507	0.263229
C22	C	0.335185	0.104181	0.149770
C23	C	0.458516	0.106219	0.051440
C24	C	0.419381	0.105569	0.159218
C25	C	0.935116	-0.037040	0.104918
C26	C	0.927736	-0.123827	0.104090
C27	C	0.995496	-0.174002	0.111694
C28	C	0.988556	-0.255547	0.110903
C29	C	0.913856	-0.286913	0.102517
C30	C	0.846091	-0.236731	0.094908
C31	C	0.853031	-0.155188	0.095690
C32	C	0.889339	-0.532649	0.099748
C33	C	0.882404	-0.614198	0.098971
C34	C	1.024869	-0.633008	0.114963
C35	C	1.031803	-0.551463	0.115752
C36	C	0.964038	-0.501288	0.108137
C37	C	0.906762	-0.370264	0.101713
C38	C	0.971133	-0.417938	0.108932
C39	C	1.082777	0.100023	0.121473
C40	C	1.170444	0.101463	0.131301
C41	C	0.942783	0.248840	0.105755
C42	C	0.950164	0.335626	0.106575
N43	N	0.938940	0.105892	0.413581
N44	N	0.938965	0.105901	-0.202904
C45	C	0.938952	0.105901	0.679253
C46	C	0.938943	0.105898	0.531414
H47	H	0.550369	0.107732	-0.152469
H48	H	0.327532	0.104048	-0.065305
O49	O	1.104326	-0.520908	0.123711
C50	C	1.112619	-0.474312	0.012448
H51	H	1.051816	-0.453922	-0.031773
H52	H	1.147648	-0.420956	0.041609
H53	H	1.145098	-0.510377	-0.062462
H54	H	0.699811	0.110206	-0.135716
O55	O	0.459476	0.106125	0.278323
C56	C	0.511505	0.039225	0.291245
H57	H	0.525307	0.016862	0.190280
H58	H	0.568441	0.055402	0.347587
H59	H	0.482841	-0.008687	0.346315
O60	O	0.543789	0.107726	0.293683
C61	C	0.491750	0.174619	0.294922
H62	H	0.477951	0.196984	0.190858
H63	H	0.434813	0.158430	0.338498
H64	H	0.520404	0.222532	0.356411
O65	O	0.787233	-0.106412	0.088079
C66	C	0.787004	-0.058663	-0.024111
H67	H	0.825339	-0.088572	-0.098214
H68	H	0.724085	-0.049414	-0.068829
H69	H	0.811400	0.000608	0.003989
H70	H	1.056324	-0.148471	0.118531
H71	H	1.043734	-0.296397	0.117098
O72	O	0.418586	0.105677	-0.067810
C73	C	0.434297	0.173702	-0.137860
H74	H	0.492640	0.197247	-0.097757
H75	H	0.438095	0.158540	-0.245453
H76	H	0.384860	0.220326	-0.127016
O77	O	1.090611	-0.681860	0.122282
C78	C	1.068473	-0.760558	0.119827
H79	H	1.006309	-0.763609	0.071848
H80	H	1.111331	-0.797550	0.061746
H81	H	1.069877	-0.784152	0.223897
H82	H	0.327525	0.104056	0.363136
H83	H	0.178102	0.101594	-0.082064
O84	O	0.171592	0.101340	0.364170
C85	C	0.128329	0.032886	0.366374
H86	H	0.156227	-0.014003	0.302499
H87	H	0.128869	0.010149	0.470864
H88	H	0.064908	0.047157	0.327542
O89	O	0.809776	-0.644539	0.090746
C90	C	0.751452	-0.582768	0.084218
H91	H	0.777282	-0.527395	0.046116
H92	H	0.699639	-0.599750	0.015506
H93	H	0.730271	-0.571210	0.185750
H94	H	0.834159	-0.491806	0.093548
H95	H	0.785269	-0.262276	0.088072
H96	H	1.031954	-0.392396	0.115731
O97	O	0.834183	-0.400700	0.093342
C98	C	0.792538	-0.375031	-0.023490
H99	H	0.836124	-0.358105	-0.097006
H100	H	0.755673	-0.424393	-0.065285
H101	H	0.752142	-0.321842	-0.002652
H102	H	0.699793	0.110215	0.292722
