data_functionalizedCrystal
_audit_creation_method	'MofGen! by Chris Wilmer'
_symmetry_space_group_name_H-M	'P1'
_symmetry_Int_Tables_number	1
_symmetry_cell_setting	triclinic
loop_
_symmetry_equiv_pos_as_xyz
  x,y,z
_cell_length_a	14.908795
_cell_length_b	14.908178
_cell_length_c	12.827885
_cell_angle_alpha	86.668641
_cell_angle_beta	86.678625
_cell_angle_gamma	96.402092
loop_
_atom_site_label
_atom_site_type_symbol
_atom_site_fract_x
_atom_site_fract_y
_atom_site_fract_z
Zn1	Zn	1.363090	-0.280595	-0.663356
Zn2	Zn	1.863090	0.219405	-0.163356
Zn3	Zn	1.354254	-0.432001	-0.477887
Zn4	Zn	1.854254	0.067999	0.022113
Zn5	Zn	1.211711	-0.289362	-0.477904
Zn6	Zn	1.711711	0.210638	0.022096
Zn7	Zn	1.202962	-0.440652	-0.641875
Zn8	Zn	1.702962	0.059348	-0.141875
O9	O	1.283004	-0.360653	-0.565255
O10	O	1.783004	0.139347	-0.065255
O11	O	1.488586	-0.293389	-0.647736
O12	O	1.988586	0.206611	-0.147736
O13	O	1.335309	-0.413128	-0.331647
O14	O	1.835309	0.086872	0.168353
O15	O	1.239151	-0.161520	-0.511501
O16	O	1.739151	0.338480	-0.011501
O17	O	1.482095	-0.404627	-0.511473
O18	O	1.982095	0.095373	-0.011473
O19	O	1.350368	-0.155079	-0.647752
O20	O	1.850368	0.344921	-0.147752
O21	O	1.230584	-0.308332	-0.331660
O22	O	1.730584	0.191668	0.168340
O23	O	1.083882	-0.316721	-0.490672
O24	O	1.583882	0.183279	0.009328
O25	O	1.224239	-0.419372	-0.790966
O26	O	1.724239	0.080628	-0.290966
O27	O	1.077454	-0.427873	-0.611141
O28	O	1.577454	0.072127	-0.111141
O29	O	1.341885	-0.301778	-0.806748
O30	O	1.841885	0.198222	-0.306748
O31	O	1.326825	-0.559828	-0.490643
O32	O	1.826825	-0.059828	0.009357
O33	O	1.215672	-0.566184	-0.611125
O34	O	1.715672	-0.066184	-0.111125
C35	C	1.047824	-0.374188	-0.548578
C36	C	1.547824	0.125812	-0.048578
C37	C	0.947211	-0.380000	-0.541466
C38	C	1.447211	0.120000	-0.041466
C39	C	0.802030	-0.446011	-0.460402
C40	C	1.302030	0.053989	0.039598
C41	C	0.896564	-0.440554	-0.467083
C42	C	1.396564	0.059446	0.032917
C43	C	0.903318	-0.324898	-0.609171
C44	C	1.403318	0.175102	-0.109171
C45	C	0.808784	-0.330356	-0.602490
C46	C	1.308784	0.169644	-0.102490
C47	C	0.758143	-0.390915	-0.528104
C48	C	1.258143	0.109085	-0.028104
C49	C	0.663607	-0.396377	-0.521429
C50	C	1.163607	0.103623	-0.021429
C51	C	0.670363	-0.280717	-0.663511
C52	C	1.170363	0.219283	-0.163511
C53	C	0.764897	-0.275260	-0.670192
C54	C	1.264897	0.224740	-0.170192
C55	C	1.269365	-0.595851	-0.548576
C56	C	1.769365	-0.095851	-0.048576
C57	C	1.263613	-0.696465	-0.541481
C58	C	1.763613	-0.196465	-0.041481
C59	C	1.368526	-0.878677	-0.670164
C60	C	1.868526	-0.378677	-0.170164
C61	C	1.363125	-0.973213	-0.663502
C62	C	1.863125	-0.473213	-0.163502
C63	C	1.247404	-0.980074	-0.521499
C64	C	1.747404	-0.480074	-0.021499
C65	C	1.252806	-0.885539	-0.528162
C66	C	1.752806	-0.385539	-0.028162
C67	C	1.313370	-0.834843	-0.602496
C68	C	1.813370	-0.334843	-0.102496
C69	C	1.318775	-0.740306	-0.609152
C70	C	1.818775	-0.240306	-0.109152
C71	C	1.203050	-0.747169	-0.467156
C72	C	1.703050	-0.247169	0.032844
C73	C	1.197649	-0.841704	-0.460493
C74	C	1.697649	-0.341704	0.039507
C75	C	1.519103	-0.347065	-0.581999
C76	C	2.019103	0.152935	-0.081999
C77	C	1.619714	-0.341275	-0.589134
C78	C	2.119714	0.158725	-0.089134
C79	C	1.283071	-0.360562	-0.837836
C80	C	1.783071	0.139438	-0.337836
C81	C	1.283100	-0.360523	-0.953994
C82	C	1.783100	0.139477	-0.453994
C83	C	1.296721	-0.124534	-0.582025
C84	C	1.796721	0.375466	-0.082025
C85	C	1.302567	-0.023915	-0.589171
C86	C	1.802567	0.476085	-0.089171
C87	C	1.231297	-0.308655	-1.005787
C88	C	1.731297	0.191345	-0.505787
C89	C	1.231325	-0.308614	-1.125842
C90	C	1.731325	0.191386	-0.625842
C91	C	1.282993	-0.360674	-0.293743
C92	C	1.782993	0.139326	0.206257
C93	C	1.283154	-0.360448	-0.177617
C94	C	1.783154	0.139552	0.322383
H95	H	0.806142	-0.225952	-0.730753
H96	H	1.306142	0.274048	-0.230753
O97	O	1.341872	-0.419310	-1.012988
O98	O	1.841872	0.080690	-0.512988
H99	H	1.322220	-0.491274	-0.985957
H100	H	1.822220	0.008726	-0.485957
H101	H	1.186921	-0.264283	-0.961248
H102	H	1.686921	0.235717	-0.461248
O103	O	1.433855	-0.823990	-0.750322
O104	O	1.933855	-0.323990	-0.250322
H105	H	1.417260	-0.842980	-0.829948
H106	H	1.917260	-0.342980	-0.329948
H107	H	1.198092	-1.021367	-0.460985
H108	H	1.698092	-0.521367	0.039015
O109	O	0.747407	-0.511324	-0.380173
O110	O	1.247407	-0.011324	0.119827
H111	H	0.701690	-0.559916	-0.420548
H112	H	1.201690	-0.059916	0.079452
O113	O	1.422617	-1.020496	-0.736482
O114	O	1.922617	-0.520496	-0.236482
H115	H	1.465641	-0.969358	-0.789282
H116	H	1.965641	-0.469358	-0.289282
H117	H	1.148337	-0.882993	-0.399975
H118	H	1.648337	-0.382993	0.100025
H119	H	0.634621	-0.235855	-0.718641
H120	H	1.134621	0.264145	-0.218641
O121	O	1.384102	-0.685628	-0.689319
O122	O	1.884102	-0.185628	-0.189319
H123	H	1.346028	-0.644885	-0.742604
H124	H	1.846028	-0.144885	-0.242604
O125	O	1.143551	-0.699894	-0.394165
O126	O	1.643551	-0.199894	0.105835
H127	H	1.157476	-0.625640	-0.411286
H128	H	1.657476	-0.125640	0.088714
O129	O	1.172585	-0.249775	-1.184829
O130	O	1.672585	0.250225	-0.684829
H131	H	1.181827	-0.258974	-1.269868
H132	H	1.681827	0.241026	-0.769868
O133	O	1.341915	-0.419275	-1.118643
O134	O	1.841915	0.080725	-0.618643
H135	H	1.298680	-0.467651	-1.062773
H136	H	1.798680	0.032349	-0.562773
H137	H	0.622376	-0.445690	-0.460863
H138	H	1.122376	0.054310	0.039137
H139	H	0.932293	-0.485418	-0.411952
H140	H	1.432293	0.014582	0.088048
H141	H	0.944566	-0.275589	-0.669727
H142	H	1.444566	0.224411	-0.169727
