data_functionalizedCrystal
_audit_creation_method	'MofGen! by Chris Wilmer'
_symmetry_space_group_name_H-M	'P1'
_symmetry_Int_Tables_number	1
_symmetry_cell_setting	triclinic
loop_
_symmetry_equiv_pos_as_xyz
  x,y,z
_cell_length_a	13.897449
_cell_length_b	18.050589
_cell_length_c	18.050582
_cell_angle_alpha	89.981795
_cell_angle_beta	89.986245
_cell_angle_gamma	90.029500
loop_
_atom_site_label
_atom_site_type_symbol
_atom_site_fract_x
_atom_site_fract_y
_atom_site_fract_z
Zn1	Zn	1.474566	-0.295681	-0.419912
Zn2	Zn	1.974566	0.204319	0.080088
Zn3	Zn	1.474450	-0.419865	-0.295731
Zn4	Zn	1.974450	0.080135	0.204269
Zn5	Zn	1.313274	-0.295696	-0.295739
Zn6	Zn	1.813274	0.204304	0.204261
Zn7	Zn	1.313207	-0.419837	-0.419882
Zn8	Zn	1.813207	0.080163	0.080118
O9	O	1.393874	-0.357770	-0.357816
O10	O	1.893874	0.142230	0.142184
O11	O	1.609532	-0.312160	-0.403449
O12	O	2.109532	0.187840	0.096551
O13	O	1.453049	-0.403411	-0.191808
O14	O	1.953049	0.096589	0.308192
O15	O	1.334747	-0.191769	-0.312226
O16	O	1.834747	0.308231	0.187774
O17	O	1.609447	-0.403397	-0.312214
O18	O	2.109447	0.096603	0.187786
O19	O	1.453247	-0.191759	-0.403455
O20	O	1.953247	0.308241	0.096545
O21	O	1.334634	-0.312185	-0.191813
O22	O	1.834634	0.187815	0.308187
O23	O	1.178284	-0.312158	-0.312197
O24	O	1.678284	0.187842	0.187803
O25	O	1.334632	-0.403350	-0.523811
O26	O	1.834632	0.096650	-0.023811
O27	O	1.178234	-0.403364	-0.403405
O28	O	1.678234	0.096636	0.096595
O29	O	1.453181	-0.312133	-0.523833
O30	O	1.953181	0.187867	-0.023833
O31	O	1.452984	-0.523786	-0.312185
O32	O	1.952984	-0.023786	0.187815
O33	O	1.334519	-0.523765	-0.403398
O34	O	1.834519	-0.023765	0.096602
C35	C	1.143260	-0.357760	-0.357799
C36	C	1.643260	0.142240	0.142201
C37	C	1.036046	-0.357773	-0.357810
C38	C	1.536046	0.142227	0.142190
C39	C	0.839751	-0.357776	-0.357829
C40	C	1.339751	0.142224	0.142171
C41	C	0.948983	-0.357772	-0.357816
C42	C	1.448983	0.142228	0.142184
C43	C	1.393758	-0.550722	-0.357804
C44	C	1.893758	-0.050722	0.142196
C45	C	1.393796	-0.633268	-0.357823
C46	C	1.893796	-0.133268	0.142177
C47	C	1.329438	-0.832734	-0.407408
C48	C	1.829438	-0.332734	0.092592
C49	C	1.305932	-0.882168	-0.339641
C50	C	1.805932	-0.382168	0.160359
C51	C	1.393891	-0.784398	-0.357833
C52	C	1.893891	-0.284398	0.142167
C53	C	1.417444	-0.882045	-0.425608
C54	C	1.917444	-0.382045	0.074392
C55	C	1.393981	-0.930383	-0.357848
C56	C	1.893981	-0.430383	0.142152
C57	C	1.370338	-0.832745	-0.290030
C58	C	1.870338	-0.332745	0.209970
C59	C	1.481891	-0.832617	-0.376043
C60	C	1.981891	-0.332617	0.123957
C61	C	1.458419	-0.882029	-0.308229
C62	C	1.958419	-0.382029	0.191771
C63	C	1.393837	-0.700300	-0.357825
C64	C	1.893837	-0.200300	0.142175
C65	C	1.394035	-1.014479	-0.357849
C66	C	1.894035	-0.514479	0.142151
C67	C	1.645467	-0.357780	-0.357834
C68	C	2.145467	0.142220	0.142166
C69	C	1.752681	-0.357785	-0.357841
C70	C	2.252681	0.142215	0.142159
C71	C	1.393912	-0.357737	-0.551522
C72	C	1.893912	0.142263	-0.051522
C73	C	1.393928	-0.357723	-0.634068
C74	C	1.893928	0.142277	-0.134068
C75	C	1.394017	-0.164064	-0.357845
C76	C	1.894017	0.335936	0.142155
C77	C	1.394078	-0.081518	-0.357857
C78	C	1.894078	0.418482	0.142143
C79	C	1.329510	-0.407258	-0.833507
C80	C	1.829510	0.092742	-0.333507
C81	C	1.417513	-0.425410	-0.882898
C82	C	1.917513	0.074590	-0.382898
C83	C	1.393976	-0.357666	-0.785198
C84	C	1.893976	0.142334	-0.285198
C85	C	1.306021	-0.339493	-0.882888
C86	C	1.806021	0.160507	-0.382888
C87	C	1.394014	-0.357613	-0.931183
C88	C	1.894014	0.142387	-0.431183
C89	C	1.482025	-0.375853	-0.833502
C90	C	1.982025	0.124147	-0.333502
C91	C	1.370473	-0.289905	-0.833488
C92	C	1.870473	0.210095	-0.333488
C93	C	1.458537	-0.308031	-0.882857
C94	C	1.958537	0.191969	-0.382857
C95	C	1.393952	-0.357699	-0.701100
C96	C	1.893952	0.142301	-0.201100
C97	C	1.394047	-0.357580	-1.015280
C98	C	1.894047	0.142420	-0.515280
C99	C	1.393892	-0.357749	-0.164864
C100	C	1.893892	0.142251	0.335136
C101	C	1.394063	-0.357554	-0.082319
C102	C	1.894063	0.142446	0.417681
H103	H	1.274853	-0.811088	-0.449272
H104	H	1.774853	-0.311088	0.050728
H105	H	1.231622	-0.324145	-0.904582
H106	H	1.731622	0.175855	-0.404582
H107	H	1.350366	-0.811179	-0.232704
H108	H	1.850366	-0.311179	0.267296
H109	H	1.231555	-0.903950	-0.324253
H110	H	1.731555	-0.403950	0.175747
H111	H	1.513133	-0.266070	-0.904390
H112	H	2.013133	0.233930	-0.404390
F113	F	1.529714	-0.910144	-0.253380
F114	F	2.029714	-0.410144	0.246620
F115	F	1.579087	-0.804148	-0.396198
F116	F	2.079087	-0.304148	0.103802
H117	H	1.437330	-0.903701	-0.482918
H118	H	1.937330	-0.403701	0.017082
F119	F	1.258320	-0.462145	-0.805182
F120	F	1.758320	0.037855	-0.305182
H121	H	1.437415	-0.482692	-0.904601
H122	H	1.937415	0.017308	-0.404601
H123	H	1.556445	-0.391267	-0.811900
H124	H	2.056445	0.108733	-0.311900
H125	H	1.350545	-0.232640	-0.811769
H126	H	1.850545	0.267360	-0.311769
