data_functionalizedCrystal
_audit_creation_method	'MofGen! by Chris Wilmer'
_symmetry_space_group_name_H-M	'P1'
_symmetry_Int_Tables_number	1
_symmetry_cell_setting	triclinic
loop_
_symmetry_equiv_pos_as_xyz
  x,y,z
_cell_length_a	18.050591
_cell_length_b	19.121063
_cell_length_c	18.050582
_cell_angle_alpha	92.415032
_cell_angle_beta	89.979078
_cell_angle_gamma	92.465257
loop_
_atom_site_label
_atom_site_type_symbol
_atom_site_fract_x
_atom_site_fract_y
_atom_site_fract_z
Zn1	Zn	1.122676	-0.279734	-0.432630
Zn2	Zn	1.622676	0.220266	0.067370
Zn3	Zn	1.117290	-0.397178	-0.313729
Zn4	Zn	1.617290	0.102822	0.186271
Zn5	Zn	0.998495	-0.279737	-0.308441
Zn6	Zn	1.498495	0.220263	0.191559
Zn7	Zn	0.993148	-0.397141	-0.437863
Zn8	Zn	1.493148	0.102859	0.062137
O9	O	1.057903	-0.338447	-0.373166
O10	O	1.557903	0.161553	0.126834
O11	O	1.225886	-0.295327	-0.416880
O12	O	1.725886	0.204673	0.083120
O13	O	1.101515	-0.381616	-0.209104
O14	O	1.601515	0.118384	0.290896
O15	O	1.019460	-0.181452	-0.320512
O16	O	1.519460	0.318548	0.179488
O17	O	1.221929	-0.381613	-0.329524
O18	O	1.721929	0.118387	0.170476
O19	O	1.110695	-0.181449	-0.411753
O20	O	1.610695	0.318551	0.088247
O21	O	1.014237	-0.295332	-0.205219
O22	O	1.514237	0.204668	0.294781
O23	O	0.893862	-0.295296	-0.325586
O24	O	1.393862	0.204704	0.174414
O25	O	1.010347	-0.381550	-0.541093
O26	O	1.510347	0.118450	-0.041093
O27	O	0.889934	-0.381552	-0.420672
O28	O	1.389934	0.118448	0.079328
O29	O	1.105510	-0.295291	-0.537248
O30	O	1.605510	0.204709	-0.037248
O31	O	1.096331	-0.495458	-0.334599
O32	O	1.596331	0.004542	0.165401
O33	O	1.005124	-0.495430	-0.425799
O34	O	1.505124	0.004570	0.074201
C35	C	0.864952	-0.338421	-0.373123
C36	C	1.364952	0.161579	0.126877
C37	C	0.782406	-0.338427	-0.373124
C38	C	1.282406	0.161573	0.126876
C39	C	0.585072	-0.291466	-0.321528
C40	C	1.085072	0.208534	0.178472
C41	C	0.532763	-0.355526	-0.306137
C42	C	1.032763	0.144474	0.193863
C43	C	0.631274	-0.338448	-0.373158
C44	C	1.131274	0.161552	0.126842
C45	C	0.536500	-0.274410	-0.388548
C46	C	1.036500	0.225590	0.111452
C47	C	0.485288	-0.338463	-0.373190
C48	C	0.985288	0.161537	0.126810
C49	C	0.580051	-0.402542	-0.357733
C50	C	1.080051	0.097458	0.142267
C51	C	0.583794	-0.321383	-0.440174
C52	C	1.083794	0.178617	0.059826
C53	C	0.531506	-0.385487	-0.424811
C54	C	1.031506	0.114513	0.075189
C55	C	0.715373	-0.338439	-0.373138
C56	C	1.215373	0.161561	0.126862
C57	C	0.401191	-0.338480	-0.373211
C58	C	0.901191	0.161520	0.126789
C59	C	1.049583	-0.520928	-0.381357
C60	C	1.549583	-0.020928	0.118643
C61	C	1.046092	-0.598994	-0.384886
C62	C	1.546092	-0.098994	0.115114
C63	C	1.091975	-0.635661	-0.339100
C64	C	1.591975	-0.135661	0.160900
C65	C	1.088695	-0.709012	-0.342424
C66	C	1.588695	-0.209012	0.157576
C67	C	1.039529	-0.745696	-0.391530
C68	C	1.539529	-0.245696	0.108470
C69	C	0.993644	-0.709024	-0.437321
C70	C	1.493644	-0.209024	0.062679
C71	C	0.996928	-0.635674	-0.434001
C72	C	1.496928	-0.135674	0.065999
C73	C	1.027241	-0.967166	-0.403932
C74	C	1.527241	-0.467166	0.096068
C75	C	1.023960	-1.040521	-0.407247
C76	C	1.523960	-0.540521	0.092753
C77	C	1.119012	-1.040504	-0.312351
C78	C	1.619012	-0.540504	0.187649
C79	C	1.122288	-0.967153	-0.309032
C80	C	1.622288	-0.467153	0.190968
C81	C	1.076406	-0.930487	-0.354825
C82	C	1.576406	-0.430487	0.145175
C83	C	1.036174	-0.820673	-0.394927
C84	C	1.536174	-0.320673	0.105073
C85	C	1.079765	-0.855512	-0.351432
C86	C	1.579765	-0.355512	0.148568
C87	C	1.251607	-0.338474	-0.373208
C88	C	1.751607	0.161526	0.126792
C89	C	1.334152	-0.338485	-0.373227
C90	C	1.834152	0.161515	0.126773
C91	C	1.057933	-0.338416	-0.566870
C92	C	1.557933	0.161584	-0.066870
C93	C	1.057946	-0.338403	-0.649415
C94	C	1.557946	0.161597	-0.149415
C95	C	1.066275	-0.155254	-0.364959
C96	C	1.566275	0.344746	0.135041
C97	C	1.069843	-0.077188	-0.361461
C98	C	1.569843	0.422812	0.138539
C99	C	1.006237	-0.385246	-0.850954
C100	C	1.506237	0.114754	-0.350954
C101	C	1.073218	-0.402419	-0.901126
C102	C	1.573218	0.097581	-0.401126
C103	C	1.057985	-0.338349	-0.800543
C104	C	1.557985	0.161651	-0.300543
C105	C	0.991042	-0.321157	-0.897452
C106	C	1.491042	0.178843	-0.397452
C107	C	1.058017	-0.338299	-0.946526
C108	C	1.558017	0.161701	-0.446526
C109	C	1.125000	-0.355556	-0.849629
C110	C	1.625000	0.144444	-0.349629
C111	C	1.042780	-0.274264	-0.845950
C112	C	1.542780	0.225736	-0.345950
C113	C	1.109809	-0.291412	-0.896099
C114	C	1.609809	0.208588	-0.396099
C115	C	1.057966	-0.338380	-0.716446
C116	C	1.557966	0.161620	-0.216446
C117	C	1.058044	-0.338268	-1.030621
C118	C	1.558044	0.161732	-0.530621
C119	C	1.057917	-0.338428	-0.180213
C120	C	1.557917	0.161572	0.319787
C121	C	1.058057	-0.338243	-0.097659
C122	C	1.558057	0.161757	0.402341
H123	H	0.508190	-0.425270	-0.468489
H124	H	1.008190	0.074730	0.031511
H125	H	0.606202	-0.306918	-0.496817
H126	H	1.106202	0.193082	0.003183
O127	O	1.027525	-0.209635	-0.817089
O128	O	1.527525	0.290365	-0.317089
C129	C	1.087606	-0.183098	-0.772939
C130	C	1.587606	0.316902	-0.272939
H131	H	1.140185	-0.209994	-0.791036
H132	H	1.640185	0.290006	-0.291036
H133	H	1.095490	-0.124252	-0.779802
H134	H	1.595490	0.375748	-0.279802
H135	H	1.075726	-0.193587	-0.712281
H136	H	1.575726	0.306413	-0.212281
O137	O	0.923517	-0.303706	-0.922502
O138	O	1.423517	0.196294	-0.422502
C139	C	0.907053	-0.236638	-0.893215
C140	C	1.407053	0.263362	-0.393215
H141	H	0.960780	-0.206223	-0.877227
H142	H	1.460780	0.293777	-0.377227
H143	H	0.876474	-0.207305	-0.936706
H144	H	1.376474	0.292695	-0.436706
H145	H	0.870591	-0.242152	-0.842030
H146	H	1.370591	0.257848	-0.342030
H147	H	0.517235	-0.220255	-0.401527
H148	H	1.017235	0.279745	0.098473
H149	H	1.132008	-0.605798	-0.299109
H150	H	1.632008	-0.105798	0.200891
O151	O	0.505951	-0.372842	-0.238607
O152	O	1.005951	0.127158	0.261393
C153	C	0.460164	-0.434334	-0.246410
C154	C	0.960164	0.065666	0.253590
H155	H	0.475700	-0.465037	-0.299242
H156	H	0.975700	0.034963	0.200758
H157	H	0.468057	-0.467937	-0.196557
H158	H	0.968057	0.032063	0.303443
H159	H	0.399712	-0.419752	-0.249739
H160	H	0.899712	0.080248	0.250261
O161	O	0.602960	-0.467171	-0.342241
O162	O	1.102960	0.032829	0.157759
C163	C	0.645285	-0.493638	-0.401946
C164	C	1.145285	0.006362	0.098054
H165	H	0.668941	-0.448289	-0.434903
H166	H	1.168941	0.051711	0.065097
H167	H	0.692649	-0.524293	-0.379657
H168	H	1.192649	-0.024293	0.120343
H169	H	0.608491	-0.529733	-0.439555
H170	H	1.108491	-0.029733	0.060445
H171	H	0.962512	-0.424957	-0.831065
H172	H	1.462512	0.075043	-0.331065
H173	H	1.181639	-0.370137	-0.828690
H174	H	1.681639	0.129863	-0.328690
H175	H	1.162323	-0.937286	-0.269045
H176	H	1.662323	-0.437286	0.230955
H177	H	1.119799	-0.825642	-0.311452
H178	H	1.619799	-0.325642	0.188548
H179	H	0.996142	-0.850549	-0.434907
H180	H	1.496142	-0.350549	0.065093
O181	O	1.133211	-0.744760	-0.298015
O182	O	1.633211	-0.244760	0.201985
C183	C	1.089145	-0.787310	-0.251917
C184	C	1.589145	-0.287310	0.248083
H185	H	1.032304	-0.798274	-0.278459
H186	H	1.532304	-0.298274	0.221541
H187	H	1.117107	-0.838893	-0.244487
H188	H	1.617107	-0.338893	0.255513
H189	H	1.082391	-0.759171	-0.195531
H190	H	1.582391	-0.259171	0.304469
O191	O	0.613176	-0.244127	-0.269448
O192	O	1.113176	0.255873	0.230552
C193	C	0.691269	-0.244328	-0.270564
C194	C	1.191269	0.255672	0.229436
H195	H	0.710538	-0.265274	-0.327086
H196	H	1.210538	0.234726	0.172914
H197	H	0.715135	-0.188649	-0.259868
H198	H	1.215135	0.311351	0.240132
H199	H	0.711283	-0.279222	-0.225644
H200	H	1.211283	0.220778	0.274356
O201	O	1.088460	-0.467088	-0.929899
O202	O	1.588460	0.032912	-0.429899
C203	C	1.033766	-0.516404	-0.906955
C204	C	1.533766	-0.016404	-0.406955
H205	H	0.980963	-0.488470	-0.891829
H206	H	1.480963	0.011530	-0.391829
H207	H	1.021511	-0.556931	-0.953970
H208	H	1.521511	-0.056931	-0.453970
H209	H	1.054595	-0.543689	-0.856514
H210	H	1.554595	-0.043689	-0.356514
O211	O	1.162183	-0.244153	-0.919641
O212	O	1.662183	0.255847	-0.419641
C213	C	1.232645	-0.262503	-0.895158
C214	C	1.732645	0.237497	-0.395158
H215	H	1.231390	-0.320779	-0.883992
H216	H	1.731390	0.179221	-0.383992
H217	H	1.275647	-0.250706	-0.939700
H218	H	1.775647	0.249294	-0.439700
H219	H	1.247874	-0.230863	-0.841987
H220	H	1.747874	0.269137	-0.341987
H221	H	1.156368	-1.070365	-0.275069
H222	H	1.656368	-0.570365	0.224931
H223	H	0.983931	-1.070387	-0.447248
H224	H	1.483931	-0.570387	0.052752
H225	H	0.989881	-0.937319	-0.441218
H226	H	1.489881	-0.437319	0.058782
H227	H	0.953615	-0.738898	-0.477307
H228	H	1.453615	-0.238898	0.022693
H229	H	0.959566	-0.605821	-0.471285
H230	H	1.459566	-0.105821	0.028715
