data_functionalizedCrystal
_audit_creation_method	'MofGen! by Chris Wilmer'
_symmetry_space_group_name_H-M	'P1'
_symmetry_Int_Tables_number	1
_symmetry_cell_setting	triclinic
loop_
_symmetry_equiv_pos_as_xyz
  x,y,z
_cell_length_a	19.188905
_cell_length_b	17.666332
_cell_length_c	12.811487
_cell_angle_alpha	84.572677
_cell_angle_beta	83.592943
_cell_angle_gamma	90.016377
loop_
_atom_site_label
_atom_site_type_symbol
_atom_site_fract_x
_atom_site_fract_y
_atom_site_fract_z
O1	O	0.926807	0.054085	0.130909
O2	O	1.426807	0.554085	0.630909
O3	O	0.723581	0.052847	0.148576
O4	O	1.223581	0.552847	0.648576
O5	O	0.830307	0.063953	-0.013072
O6	O	1.330307	0.563953	0.486928
O7	O	0.820082	0.042979	0.292556
O8	O	1.320082	0.542979	0.792556
O9	O	0.830288	-0.061943	-0.013076
O10	O	1.330288	0.438057	0.486924
O11	O	0.723562	-0.073050	0.148571
O12	O	1.223562	0.426950	0.648571
O13	O	0.926788	-0.071811	0.130904
O14	O	1.426788	0.428189	0.630904
Cu15	Cu	0.825173	-0.083926	0.139737
Cu16	Cu	1.325173	0.416074	0.639737
Cu17	Cu	0.825196	0.064961	0.139743
Cu18	Cu	1.325196	0.564961	0.639743
O19	O	0.820063	-0.082918	0.292551
O20	O	1.320063	0.417082	0.792551
C21	C	0.697557	-0.010066	0.148006
C22	C	1.197557	0.489934	0.648006
C23	C	0.620043	-0.009959	0.146301
C24	C	1.120043	0.490041	0.646301
N25	N	0.825163	-0.188645	0.139733
N26	N	1.325163	0.311355	0.639733
C27	C	0.583658	0.058725	0.145485
C28	C	1.083658	0.558725	0.645485
C29	C	0.510826	0.058846	0.143872
C30	C	1.010826	0.558846	0.643872
C31	C	0.474385	-0.009721	0.143054
C32	C	0.974385	0.490279	0.643054
C33	C	0.510779	-0.078415	0.143876
C34	C	1.010779	0.421585	0.643876
C35	C	0.583608	-0.078534	0.145500
C36	C	1.083608	0.421466	0.645500
N37	N	0.365049	-0.056516	0.080775
N38	N	0.865049	0.443484	0.580775
N39	N	0.295865	-0.056399	0.079231
N40	N	0.795865	0.443601	0.579231
C41	C	0.254954	-0.009367	0.138165
C42	C	0.754954	0.490633	0.638165
N43	N	0.285843	0.037554	0.198689
N44	N	0.785843	0.537554	0.698689
N45	N	0.355034	0.037439	0.200229
N46	N	0.855034	0.537439	0.700229
C47	C	0.395414	-0.009600	0.141294
C48	C	0.895414	0.490400	0.641294
C49	C	0.139596	0.059452	0.135601
C50	C	0.639596	0.559452	0.635601
C51	C	0.066763	0.059569	0.133995
C52	C	0.566763	0.559569	0.633995
C53	C	0.066717	-0.077693	0.133988
C54	C	0.566717	0.422307	0.633988
C55	C	0.139548	-0.077809	0.135605
C56	C	0.639548	0.422191	0.635605
C57	C	0.175984	-0.009234	0.136407
C58	C	0.675984	0.490766	0.636407
C59	C	0.867686	-0.232600	0.203232
C60	C	1.367686	0.267400	0.703232
C61	C	0.867697	-0.311848	0.203229
C62	C	1.367697	0.188152	0.703229
C63	C	0.825172	-0.347137	0.139739
C64	C	1.325172	0.152863	0.639739
C65	C	0.782646	-0.303172	0.076226
C66	C	1.282646	0.196828	0.576226
C67	C	0.782642	-0.223925	0.076223
C68	C	1.282642	0.276075	0.576223
N69	N	0.764010	-0.471408	0.137161
N70	N	1.264010	0.028592	0.637161
N71	N	0.764017	-0.546689	0.137170
N72	N	1.264017	-0.046689	0.637170
C73	C	0.825185	-0.585902	0.139742
C74	C	1.325185	-0.085902	0.639742
N75	N	0.886347	-0.546991	0.142326
N76	N	1.386347	-0.046991	0.642326
N77	N	0.886340	-0.471703	0.142323
N78	N	1.386340	0.028297	0.642323
C79	C	0.825173	-0.433066	0.139734
C80	C	1.325173	0.066934	0.639734
C81	C	0.867724	-0.715786	0.203242
C82	C	1.367724	-0.215786	0.703242
C83	C	0.867736	-0.795035	0.203231
C84	C	1.367736	-0.295035	0.703231
C85	C	0.782679	-0.786358	0.076235
C86	C	1.282679	-0.286358	0.576235
C87	C	0.782673	-0.707110	0.076239
C88	C	1.282673	-0.207110	0.576239
C89	C	0.825194	-0.671830	0.139748
C90	C	1.325194	-0.171830	0.639748
C91	C	0.952812	-0.008897	0.131474
C92	C	1.452812	0.491103	0.631474
C93	C	1.030326	-0.008999	0.133178
C94	C	1.530326	0.491001	0.633178
C95	C	0.829724	0.003690	-0.052175
C96	C	1.329724	0.503690	0.447825
C97	C	0.828008	0.011690	-0.168683
C98	C	1.328008	0.511690	0.331317
N99	N	0.825212	0.169681	0.139739
N100	N	1.325212	0.669681	0.639739
C101	C	0.824775	-0.110544	-0.387634
C102	C	1.324775	0.389456	0.112366
C103	C	0.823162	-0.103031	-0.497104
C104	C	1.323162	0.396969	0.002896
C105	C	0.823175	0.034228	-0.497094
C106	C	1.323175	0.534228	0.002906
C107	C	0.824788	0.026715	-0.387625
C108	C	1.324788	0.526715	0.112375
C109	C	0.825586	-0.045673	-0.332898
C110	C	1.325586	0.454327	0.167102
C111	C	0.827194	-0.053186	-0.223426
C112	C	1.327194	0.446814	0.276574
C113	C	0.827212	0.084073	-0.223419
C114	C	1.327212	0.584073	0.276581
C115	C	0.825599	0.091586	-0.332889
C116	C	1.325599	0.591586	0.167111
C117	C	0.820645	-0.022653	0.331655
C118	C	1.320645	0.477347	0.831655
C119	C	0.822362	-0.030647	0.448163
C120	C	1.322362	0.469353	0.948163
H121	H	0.613319	0.114565	0.146138
H122	H	1.113319	0.614565	0.646138
H123	H	0.481195	0.114778	0.143209
H124	H	0.981195	0.614778	0.643209
H125	H	0.902348	-0.687060	0.254954
H126	H	1.402348	-0.187060	0.754954
N127	N	0.471329	-0.152253	0.142811
N128	N	0.971329	0.347747	0.642811
H129	H	0.478369	-0.186874	0.208082
H130	H	0.978369	0.313126	0.708082
H131	H	0.419727	-0.141482	0.141560
H132	H	0.919727	0.358518	0.641560
H133	H	0.169174	-0.133738	0.136263
H134	H	0.669174	0.366262	0.636263
N135	N	0.178897	0.133410	0.136485
N136	N	0.678897	0.633410	0.636485
H137	H	0.230556	0.122914	0.137629
H138	H	0.730556	0.622914	0.637629
H139	H	0.171653	0.167865	0.071154
H140	H	0.671653	0.667865	0.571154
H141	H	0.902313	-0.203880	0.254942
H142	H	1.402313	0.296120	0.754942
H143	H	0.613233	-0.134467	0.146166
H144	H	1.113233	0.365533	0.646166
N145	N	0.822287	-0.173001	-0.556136
N146	N	1.322287	0.326999	-0.056136
H147	H	0.778390	-0.173551	-0.592846
H148	H	1.278390	0.326449	-0.092846
H149	H	0.864878	-0.172294	-0.610210
H150	H	1.364878	0.327706	-0.110210
N151	N	0.825639	-0.188612	-0.328594
N152	N	1.325639	0.311388	0.171406
H153	H	0.783079	-0.195391	-0.274462
H154	H	1.283079	0.304609	0.225538
H155	H	0.824903	-0.228523	-0.379948
H156	H	1.324903	0.271477	0.120052
H157	H	0.037138	0.115502	0.133337
H158	H	0.537138	0.615502	0.633337
H159	H	0.037047	-0.133522	0.133329
H160	H	0.537047	0.366478	0.633329
N161	N	0.913563	-0.359270	0.271720
N162	N	1.413563	0.140730	0.771720
H163	H	0.940499	-0.324895	0.311951
H164	H	1.440499	0.175105	0.811951
H165	H	0.883264	-0.395685	0.323142
H166	H	1.383264	0.104315	0.823142
H167	H	0.748043	-0.671321	0.024535
H168	H	1.248043	-0.171321	0.524535
N169	N	0.736784	-0.341228	0.007740
N170	N	1.236784	0.158772	0.507740
H171	H	0.743237	-0.398101	0.017379
H172	H	1.243237	0.101899	0.517379
H173	H	0.686066	-0.328829	0.028668
H174	H	1.186066	0.171171	0.528668
H175	H	0.748013	-0.188137	0.024513
H176	H	1.248013	0.311863	0.524513
N177	N	0.913629	-0.842446	0.271684
N178	N	1.413629	-0.342446	0.771684
H179	H	0.940569	-0.808067	0.311904
H180	H	1.440569	-0.308067	0.811904
H181	H	0.883356	-0.878879	0.323116
H182	H	1.383356	-0.378879	0.823116
N183	N	0.736818	-0.824407	0.007745
N184	N	1.236818	-0.324407	0.507745
H185	H	0.743274	-0.881280	0.017378
H186	H	1.243274	-0.381280	0.517378
H187	H	0.686099	-0.812012	0.028674
H188	H	1.186099	-0.312012	0.528674
N189	N	0.828053	-0.131257	-0.164394
N190	N	1.328053	0.368743	0.335606
H191	H	0.827296	-0.171212	-0.215685
H192	H	1.327296	0.328788	0.284315
H193	H	0.871952	-0.136756	-0.127686
H194	H	1.371952	0.363244	0.372314
N195	N	0.822325	0.112298	-0.556132
N196	N	1.322325	0.612298	-0.056132
H197	H	0.821184	0.107211	-0.633786
H198	H	1.321184	0.607211	-0.133786
H199	H	0.779380	0.140353	-0.528293
H200	H	1.279380	0.640353	-0.028293
N201	N	0.824742	0.169658	-0.391919
N202	N	1.324742	0.669658	0.108081
H203	H	0.823599	0.164575	-0.469574
H204	H	1.323599	0.664575	0.030426
H205	H	0.781795	0.197706	-0.364071
H206	H	1.281795	0.697706	0.135929
H207	H	0.827865	0.136895	-0.178840
H208	H	1.327865	0.636895	0.321160
