data_functionalizedCrystal
_audit_creation_method	'MofGen! by Chris Wilmer'
_symmetry_space_group_name_H-M	'P1'
_symmetry_Int_Tables_number	1
_symmetry_cell_setting	triclinic
loop_
_symmetry_equiv_pos_as_xyz
  x,y,z
_cell_length_a	8.559649
_cell_length_b	8.597304
_cell_length_c	17.766277
_cell_angle_alpha	82.293845
_cell_angle_beta	89.990263
_cell_angle_gamma	77.624625
loop_
_atom_site_label
_atom_site_type_symbol
_atom_site_fract_x
_atom_site_fract_y
_atom_site_fract_z
O1	O	2.119308	-0.053142	-0.059145
O2	O	1.655369	0.027759	-0.064393
O3	O	1.896465	-0.242259	-0.046879
O4	O	1.878212	0.216877	-0.076658
O5	O	1.896422	-0.242266	0.078310
O6	O	1.655326	0.027752	0.060796
O7	O	2.119265	-0.053149	0.066044
Cu8	Cu	1.887291	-0.012699	0.074851
Cu9	Cu	1.887343	-0.012691	-0.073200
O10	O	1.878169	0.216869	0.048531
C11	C	1.595914	0.033886	-0.002196
C12	C	1.418819	0.052135	-0.003380
C13	C	1.894481	-0.300498	0.019490
C14	C	1.888616	-0.474019	0.030740
C15	C	2.178720	-0.059276	0.003845
C16	C	2.355815	-0.077525	0.005025
C17	C	1.880152	0.275108	-0.017841
C18	C	1.886018	0.448629	-0.029095
N19	N	1.887267	-0.012707	0.178982
N20	N	1.887379	-0.012696	-0.177330
C21	C	1.994060	-0.132223	0.226120
C22	C	1.994069	-0.132232	0.304923
C23	C	1.887301	-0.012699	0.336582
C24	C	1.780487	0.106828	0.289433
C25	C	1.780470	0.106823	0.210633
C26	C	1.868636	0.132487	0.452003
C27	C	1.868664	0.132492	0.530802
C28	C	1.887344	-0.012685	0.579627
C29	C	1.906030	-0.157877	0.549645
C30	C	1.906013	-0.157882	0.470845
C31	C	1.887307	-0.012682	0.422026
C32	C	1.994153	-0.132220	0.712213
C33	C	1.994151	-0.132229	0.791017
C34	C	1.780576	0.106843	0.775525
C35	C	1.780571	0.106840	0.696723
C36	C	1.887367	-0.012691	0.665072
H37	H	1.437366	-0.202503	0.013130
F38	F	1.312240	0.215484	-0.013986
H39	H	1.888277	-0.484846	-0.088934
F40	F	2.107715	-0.259442	0.192437
H41	H	1.886333	-0.540546	0.090582
H42	H	2.081036	-0.229560	0.343310
F43	F	1.925886	-0.312399	0.438938
H44	H	1.921240	-0.276094	0.589398
H45	H	2.081108	-0.229553	0.686442
H46	H	2.081110	-0.229561	0.829399
H47	H	1.693637	0.204164	0.801301
F48	F	1.666851	0.234039	0.323127
H49	H	1.693616	0.204166	0.658339
F50	F	1.848788	0.287015	0.562703
F51	F	1.848869	0.287004	0.400046
H52	H	1.693505	0.204149	0.172251
