data_functionalizedCrystal
_audit_creation_method	'MofGen! by Chris Wilmer'
_symmetry_space_group_name_H-M	'P1'
_symmetry_Int_Tables_number	1
_symmetry_cell_setting	triclinic
loop_
_symmetry_equiv_pos_as_xyz
  x,y,z
_cell_length_a	12.827893
_cell_length_b	16.120444
_cell_length_c	16.120339
_cell_angle_alpha	89.786690
_cell_angle_beta	92.866391
_cell_angle_gamma	92.926656
loop_
_atom_site_label
_atom_site_type_symbol
_atom_site_fract_x
_atom_site_fract_y
_atom_site_fract_z
Zn1	Zn	1.547293	-0.306902	-0.486924
Zn2	Zn	1.797293	-0.056902	-0.236924
Zn3	Zn	2.047293	0.193098	0.013076
Zn4	Zn	2.297293	0.443098	0.263076
Zn5	Zn	1.546208	-0.453105	-0.354913
Zn6	Zn	1.796208	-0.203105	-0.104913
Zn7	Zn	2.046208	0.046895	0.145087
Zn8	Zn	2.296208	0.296895	0.395087
Zn9	Zn	1.380870	-0.314071	-0.347887
Zn10	Zn	1.630870	-0.064071	-0.097887
Zn11	Zn	1.880870	0.185929	0.152113
Zn12	Zn	2.130870	0.435929	0.402113
Zn13	Zn	1.363207	-0.445917	-0.493928
Zn14	Zn	1.613207	-0.195917	-0.243928
Zn15	Zn	1.863207	0.054083	0.006072
Zn16	Zn	2.113207	0.304083	0.256072
O17	O	1.459395	-0.379999	-0.420913
O18	O	1.709395	-0.129999	-0.170913
O19	O	1.959395	0.120001	0.079087
O20	O	2.209395	0.370001	0.329087
O21	O	1.693384	-0.326305	-0.469422
O22	O	1.943384	-0.076305	-0.219422
O23	O	2.193384	0.173695	0.030578
O24	O	2.443384	0.423695	0.280578
O25	O	1.531214	-0.440670	-0.237614
O26	O	1.781214	-0.190670	0.012386
O27	O	2.031214	0.059330	0.262386
O28	O	2.281214	0.309330	0.512386
O29	O	1.410793	-0.196755	-0.360459
O30	O	1.660793	0.053245	-0.110459
O31	O	1.910793	0.303245	0.139541
O32	O	2.160793	0.553245	0.389541
O33	O	1.692587	-0.433719	-0.372433
O34	O	1.942587	-0.183719	-0.122433
O35	O	2.192587	0.066281	0.127567
O36	O	2.442587	0.316281	0.377567
O37	O	1.533063	-0.191488	-0.462609
O38	O	1.783063	0.058512	-0.212609
O39	O	2.033063	0.308512	0.037391
O40	O	2.283063	0.558512	0.287391
O41	O	1.409741	-0.338522	-0.232452
O42	O	1.659741	-0.088522	0.017548
O43	O	1.909741	0.161478	0.267548
O44	O	2.159741	0.411478	0.517548
O45	O	1.232292	-0.331552	-0.367250
O46	O	1.482292	-0.081552	-0.117250
O47	O	1.732292	0.168448	0.132750
O48	O	1.982292	0.418448	0.382750
O49	O	1.380688	-0.421469	-0.609366
O50	O	1.630688	-0.171469	-0.359366
O51	O	1.880688	0.078531	-0.109366
O52	O	2.130688	0.328531	0.140634
O53	O	1.219315	-0.428420	-0.474546
O54	O	1.469315	-0.178420	-0.224546
O55	O	1.719315	0.071580	0.025454
O56	O	1.969315	0.321580	0.275454
O57	O	1.515935	-0.319335	-0.604220
O58	O	1.765935	-0.069335	-0.354220
O59	O	2.015935	0.180665	-0.104220
O60	O	2.265935	0.430665	0.145780
O61	O	1.514087	-0.568517	-0.379225
O62	O	1.764087	-0.318517	-0.129225
O63	O	2.014087	-0.068517	0.120775
O64	O	2.264087	0.181483	0.370775
O65	O	1.379637	-0.563236	-0.481359
O66	O	1.629637	-0.313236	-0.231359
O67	O	1.879637	-0.063236	0.018641
O68	O	2.129637	0.186764	0.268641
C69	C	1.187887	-0.379985	-0.420896
C70	C	1.437887	-0.129985	-0.170896
C71	C	1.687887	0.120015	0.079104
C72	C	1.937887	0.370015	0.329104
C73	C	1.071732	-0.379997	-0.420910
C74	C	1.321732	-0.129997	-0.170910
C75	C	1.571732	0.120003	0.079090
C76	C	1.821732	0.370003	0.329090
C77	C	1.020331	-0.326931	-0.468986
C78	C	1.270331	-0.076931	-0.218986
C79	C	1.520331	0.173069	0.031014
C80	C	1.770331	0.423069	0.281014
C81	C	0.900279	-0.326943	-0.469002
C82	C	1.150279	-0.076943	-0.219002
C83	C	1.400279	0.173057	0.030998
C84	C	1.650279	0.423057	0.280998
C85	C	1.444855	-0.596047	-0.431832
C86	C	1.694855	-0.346047	-0.181832
C87	C	1.944855	-0.096047	0.068168
C88	C	2.194855	0.153953	0.318168
C89	C	1.438728	-0.688472	-0.436532
C90	C	1.688728	-0.438472	-0.186532
C91	C	1.938728	-0.188472	0.063468
C92	C	2.188728	0.061528	0.313468
C93	C	1.491421	-0.901458	-0.396715
C94	C	1.741421	-0.651458	-0.146715
C95	C	1.991421	-0.401458	0.103285
C96	C	2.241421	-0.151458	0.353285
C97	C	1.427562	-0.857688	-0.445120
C98	C	1.677562	-0.607688	-0.195120
C99	C	1.927562	-0.357688	0.054880
C100	C	2.177562	-0.107688	0.304880
C101	C	1.433777	-0.763528	-0.440340
C102	C	1.683777	-0.513528	-0.190340
C103	C	1.933777	-0.263528	0.059660
C104	C	2.183777	-0.013528	0.309660
C105	C	1.485207	-0.995627	-0.401493
C106	C	1.735207	-0.745627	-0.151493
C107	C	1.985207	-0.495627	0.098507
C108	C	2.235207	-0.245627	0.348507
C109	C	1.731963	-0.380014	-0.420930
C110	C	1.981963	-0.130014	-0.170930
C111	C	2.231963	0.119986	0.079070
C112	C	2.481963	0.369986	0.329070
C113	C	1.848115	-0.380021	-0.420937
C114	C	2.098115	-0.130021	-0.170937
C115	C	2.348115	0.119979	0.079063
C116	C	2.598115	0.369979	0.329063
C117	C	1.446462	-0.368800	-0.637809
C118	C	1.696462	-0.118800	-0.387809
C119	C	1.946462	0.131200	-0.137809
C120	C	2.196462	0.381200	0.112191
C121	C	1.440951	-0.364028	-0.730237
C122	C	1.690951	-0.114028	-0.480237
C123	C	1.940951	0.135972	-0.230237
C124	C	2.190951	0.385972	0.019763
C125	C	1.474019	-0.163106	-0.409969
C126	C	1.724019	0.086894	-0.159969
C127	C	1.974019	0.336894	0.090031
C128	C	2.224019	0.586894	0.340031
C129	C	1.480251	-0.070679	-0.405305
C130	C	1.730251	0.179321	-0.155305
C131	C	1.980251	0.429321	0.094695
C132	C	2.230251	0.679321	0.344695
C133	C	1.472341	-0.391094	-0.204858
C134	C	1.722341	-0.141094	0.045142
C135	C	1.972341	0.108906	0.295142
C136	C	2.222341	0.358906	0.545142
C137	C	1.478070	-0.395632	-0.112418
C138	C	1.728070	-0.145632	0.137582
C139	C	1.978070	0.104368	0.387582
C140	C	2.228070	0.354368	0.637582
C141	C	1.430487	-0.355748	0.100515
C142	C	1.680487	-0.105748	0.350515
C143	C	1.930487	0.144252	0.600515
C144	C	2.180487	0.394252	0.850515
C145	C	1.488531	-0.403910	0.056825
C146	C	1.738531	-0.153910	0.306825
C147	C	1.988531	0.096090	0.556825
C148	C	2.238531	0.346090	0.806825
C149	C	1.482709	-0.399303	-0.037351
C150	C	1.732709	-0.149303	0.212649
C151	C	1.982709	0.100697	0.462649
C152	C	2.232709	0.350697	0.712649
C153	C	1.436308	-0.360354	0.194699
C154	C	1.686308	-0.110354	0.444699
C155	C	1.936308	0.139646	0.694699
C156	C	2.186308	0.389646	0.944699
H157	H	0.856073	-0.281513	-0.510164
H158	H	1.106073	-0.031513	-0.260164
H159	H	1.356073	0.218487	-0.010164
H160	H	1.606073	0.468487	0.239836
H161	H	1.550755	-0.868217	-0.351686
H162	H	1.800755	-0.618217	-0.101686
H163	H	2.050755	-0.368217	0.148314
H164	H	2.300755	-0.118217	0.398314
H165	H	0.892313	-0.425460	-0.379780
H166	H	1.142313	-0.175460	-0.129780
H167	H	1.392313	0.074540	0.120220
H168	H	1.642313	0.324540	0.370220
H169	H	1.542598	-0.448602	0.090149
H170	H	1.792598	-0.198602	0.340149
H171	H	2.042598	0.051398	0.590149
H172	H	2.292598	0.301398	0.840149
H173	H	1.376424	-0.311060	0.067192
H174	H	1.626424	-0.061060	0.317192
H175	H	1.876424	0.188940	0.567192
H176	H	2.126424	0.438940	0.817192
H177	H	1.368223	-0.890933	-0.490151
H178	H	1.618223	-0.640933	-0.240151
H179	H	1.868223	-0.390933	0.009849
H180	H	2.118223	-0.140933	0.259849
H181	H	1.026861	-0.425437	-0.379760
H182	H	1.276861	-0.175437	-0.129760
H183	H	1.526861	0.074563	0.120240
H184	H	1.776861	0.324563	0.370240
H185	H	1.065202	-0.281487	-0.510132
H186	H	1.315202	-0.031487	-0.260132
H187	H	1.565202	0.218513	-0.010132
H188	H	1.815202	0.468513	0.239868
