data_functionalizedCrystal
_audit_creation_method	'MofGen! by Chris Wilmer'
_symmetry_space_group_name_H-M	'P1'
_symmetry_Int_Tables_number	1
_symmetry_cell_setting	triclinic
loop_
_symmetry_equiv_pos_as_xyz
  x,y,z
_cell_length_a	13.897448
_cell_length_b	16.959455
_cell_length_c	16.959447
_cell_angle_alpha	89.985678
_cell_angle_beta	90.029368
_cell_angle_gamma	89.985361
loop_
_atom_site_label
_atom_site_type_symbol
_atom_site_fract_x
_atom_site_fract_y
_atom_site_fract_z
Zn1	Zn	-0.384074	-1.208397	0.446914
Zn2	Zn	0.115926	-0.708397	0.946914
Zn3	Zn	-0.545393	-1.208325	0.314738
Zn4	Zn	-0.045393	-0.708325	0.814738
Zn5	Zn	-0.384105	-1.076225	0.314751
Zn6	Zn	0.115895	-0.576225	0.814751
Zn7	Zn	-0.545321	-1.076195	0.446876
Zn8	Zn	-0.045321	-0.576195	0.946876
O9	O	-0.464723	-1.142286	0.380820
O10	O	0.035277	-0.642286	0.880820
O11	O	-0.405491	-1.318998	0.429390
O12	O	0.094509	-0.818998	0.929390
O13	O	-0.524040	-1.190784	0.204128
O14	O	-0.024040	-0.690784	0.704128
O15	O	-0.249119	-1.093801	0.332305
O16	O	0.250881	-0.593801	0.832305
O17	O	-0.524011	-1.318945	0.332281
O18	O	-0.024011	-0.818945	0.832281
O19	O	-0.249097	-1.190907	0.429404
O20	O	0.250903	-0.690907	0.929404
O21	O	-0.405543	-1.093731	0.204139
O22	O	0.094457	-0.593731	0.704139
O23	O	-0.405473	-0.965610	0.332268
O24	O	0.094527	-0.465610	0.832268
O25	O	-0.523888	-1.093750	0.557492
O26	O	-0.023888	-0.593750	1.057492
O27	O	-0.523917	-0.965589	0.429340
O28	O	-0.023917	-0.465589	0.929340
O29	O	-0.405421	-1.190878	0.557520
O30	O	0.094579	-0.690878	1.057520
O31	O	-0.680365	-1.190755	0.332244
O32	O	-0.180365	-0.690755	0.832244
O33	O	-0.680312	-1.093680	0.429326
O34	O	-0.180312	-0.593680	0.929326
C35	C	-0.464691	-0.936919	0.380802
C36	C	0.035309	-0.436919	0.880802
C37	C	-0.464701	-0.849063	0.380813
C38	C	0.035299	-0.349063	0.880813
C39	C	-0.715337	-1.142228	0.380797
C40	C	-0.215337	-0.642228	0.880797
C41	C	-0.822551	-1.142276	0.380814
C42	C	-0.322551	-0.642276	0.880814
C43	C	-0.464643	-1.142319	0.586988
C44	C	0.035357	-0.642319	1.086988
C45	C	-0.464609	-1.142333	0.674845
C46	C	0.035391	-0.642333	1.174845
C47	C	-1.018846	-1.142359	0.380863
C48	C	-0.518846	-0.642359	0.880863
C49	C	-0.909614	-1.142310	0.380838
C50	C	-0.409614	-0.642310	0.880838
C51	C	-0.213130	-1.142365	0.380860
C52	C	0.286870	-0.642365	0.880860
C53	C	-0.105916	-1.142399	0.380877
C54	C	0.394084	-0.642399	0.880877
C55	C	-0.464756	-1.348454	0.380838
C56	C	0.035244	-0.848454	0.880838
C57	C	-0.464770	-1.436310	0.380846
C58	C	0.035230	-0.936310	0.880846
C59	C	-0.402998	-0.477574	0.330380
C60	C	0.097002	0.022426	0.830380
C61	C	-0.526527	-0.477600	0.431305
C62	C	-0.026527	0.022400	0.931305
C63	C	-0.526513	-0.560146	0.431300
C64	C	-0.026513	-0.060146	0.931300
C65	C	-0.464742	-0.601410	0.380834
C66	C	0.035258	-0.101410	0.880834
C67	C	-0.402985	-0.560128	0.330372
C68	C	0.097015	-0.060128	0.830372
C69	C	-0.588276	-0.601434	0.481754
C70	C	-0.088276	-0.101434	0.981754
C71	C	-0.588266	-0.683985	0.481751
C72	C	-0.088266	-0.183985	0.981751
C73	C	-0.526489	-0.725251	0.431288
C74	C	-0.026489	-0.225251	0.931288
C75	C	-0.464728	-0.683963	0.380825
C76	C	0.035272	-0.183963	0.880825
C77	C	-0.402957	-0.725227	0.330359
C78	C	0.097043	-0.225227	0.830359
C79	C	-0.341191	-0.683941	0.279900
C80	C	0.158809	-0.183941	0.779900
C81	C	-0.341208	-0.601393	0.279909
C82	C	0.158792	-0.101393	0.779909
C83	C	-0.526472	-0.807799	0.431279
C84	C	-0.026472	-0.307799	0.931279
C85	C	-0.402944	-0.807781	0.330351
C86	C	0.097056	-0.307781	0.830351
C87	C	-0.464733	-1.142298	0.175454
C88	C	0.035267	-0.642298	0.675454
C89	C	-0.464495	-1.142437	0.087597
C90	C	0.035505	-0.642437	0.587597
C91	C	-0.526188	-1.091857	1.046309
C92	C	-0.026188	-0.591857	1.546309
C93	C	-0.402827	-1.192997	1.046333
C94	C	0.097173	-0.692997	1.546333
C95	C	-0.402848	-1.192976	0.963787
C96	C	0.097152	-0.692976	1.463787
C97	C	-0.464540	-1.142395	0.922498
C98	C	0.035460	-0.642395	1.422498
C99	C	-0.526212	-1.091836	0.963755
C100	C	-0.026212	-0.591836	1.463755
C101	C	-0.341184	-1.243540	0.922523
C102	C	0.158816	-0.743540	1.422523
C103	C	-0.341203	-1.243522	0.839972
C104	C	0.158797	-0.743522	1.339972
C105	C	-0.402891	-1.192937	0.798682
C106	C	0.097109	-0.692937	1.298682
C107	C	-0.464564	-1.142375	0.839944
C108	C	0.035436	-0.642375	1.339944
C109	C	-0.526257	-1.091794	0.798655
C110	C	-0.026257	-0.591794	1.298655
C111	C	-0.587926	-1.041227	0.839916
C112	C	-0.087926	-0.541227	1.339916
C113	C	-0.587900	-1.041251	0.922465
C114	C	-0.087900	-0.541251	1.422465
C115	C	-0.402917	-1.192913	0.716134
C116	C	0.097083	-0.692913	1.216134
C117	C	-0.526281	-1.091773	0.716102
C118	C	-0.026281	-0.591773	1.216102
H119	H	-0.352635	-0.841372	0.289260
H120	H	0.147365	-0.341372	0.789260
H121	H	-0.290922	-0.567771	0.238827
H122	H	0.209078	-0.067771	0.738827
C123	C	-0.273243	-0.729333	0.224391
C124	C	0.226757	-0.229333	0.724391
H125	H	-0.236461	-0.692927	0.194337
H126	H	0.263539	-0.192927	0.694337
H127	H	-0.231264	-0.761554	0.254688
H128	H	0.268736	-0.261554	0.754688
H129	H	-0.310092	-0.761516	0.189891
H130	H	0.189908	-0.261516	0.689891
C131	C	-0.594022	-1.036240	1.091690
C132	C	-0.094022	-0.536240	1.591690
H133	H	-0.585179	-1.043497	1.146767
H134	H	-0.085179	-0.543497	1.646767
H135	H	-0.579904	-0.983133	1.078162
H136	H	-0.079904	-0.483133	1.578162
H137	H	-0.658841	-1.047792	1.078147
H138	H	-0.158841	-0.547792	1.578147
C139	C	-0.334974	-1.248635	1.091744
C140	C	0.165026	-0.748635	1.591744
H141	H	-0.298253	-1.278747	1.055348
H142	H	0.201747	-0.778747	1.555348
H143	H	-0.292934	-1.218423	1.123960
H144	H	0.207066	-0.718423	1.623960
H145	H	-0.371878	-1.283076	1.123933
H146	H	0.128122	-0.783076	1.623933
H147	H	-0.352707	-0.443956	0.289300
H148	H	0.147293	0.056044	0.789300
C149	C	-0.273332	-1.299178	0.967937
C150	C	0.226668	-0.799178	1.467937
H151	H	-0.236616	-1.329295	0.931542
H152	H	0.263384	-0.829295	1.431542
H153	H	-0.231288	-1.268965	1.000148
H154	H	0.268712	-0.768965	1.500148
H155	H	-0.310237	-1.333613	1.000131
H156	H	0.189763	-0.833613	1.500131
C157	C	-0.655808	-0.985609	0.794497
C158	C	-0.155808	-0.485609	1.294497
H159	H	-0.692544	-0.955505	0.830888
H160	H	-0.192544	-0.455505	1.330888
H161	H	-0.618933	-0.951173	0.762288
H162	H	-0.118933	-0.451173	1.262288
H163	H	-0.697847	-1.015850	0.762300
H164	H	-0.197847	-0.515850	1.262300
C165	C	-0.273362	-1.299135	0.794593
C166	C	0.226638	-0.799135	1.294593
H167	H	-0.236614	-1.329257	0.831007
H168	H	0.263386	-0.829257	1.331007
H169	H	-0.310269	-1.333555	0.762377
H170	H	0.189731	-0.833555	1.262377
H171	H	-0.231334	-1.268895	0.762405
H172	H	0.268666	-0.768895	1.262405
C173	C	-0.594141	-1.036134	0.670687
C174	C	-0.094141	-0.536134	1.170687
H175	H	-0.585322	-1.043359	0.615614
H176	H	-0.085322	-0.543359	1.115614
H177	H	-0.658949	-1.047680	0.684203
H178	H	-0.158949	-0.547680	1.184203
H179	H	-0.580000	-0.983031	0.684217
H180	H	-0.080000	-0.483031	1.184217
H181	H	-0.576824	-0.443998	0.472387
H182	H	-0.076824	0.056002	0.972387
H183	H	-0.638559	-0.717593	0.522839
H184	H	-0.138559	-0.217593	1.022839
H185	H	-0.352709	-1.234086	0.682543
H186	H	0.147291	-0.734086	1.182543
C187	C	-0.656112	-0.556049	0.537351
C188	C	-0.156112	-0.056049	1.037351
H189	H	-0.692868	-0.592458	0.567423
H190	H	-0.192868	-0.092458	1.067423
H191	H	-0.619167	-0.523910	0.571817
H192	H	-0.119167	-0.023910	1.071817
H193	H	-0.698137	-0.523783	0.507136
H194	H	-0.198137	-0.023783	1.007136
C195	C	-0.594405	-0.853210	0.486777
C196	C	-0.094405	-0.353210	0.986777
H197	H	-0.631194	-0.816812	0.516835
H198	H	-0.131194	-0.316812	1.016835
H199	H	-0.636378	-0.885401	0.456477
H200	H	-0.136378	-0.385401	0.956477
H201	H	-0.557548	-0.885424	0.521273
H202	H	-0.057548	-0.385424	1.021273
H203	H	-0.638111	-1.000085	0.956067
H204	H	-0.138111	-0.500085	1.456067
