data_functionalizedCrystal
_audit_creation_method	'MofGen! by Chris Wilmer'
_symmetry_space_group_name_H-M	'P1'
_symmetry_Int_Tables_number	1
_symmetry_cell_setting	triclinic
loop_
_symmetry_equiv_pos_as_xyz
  x,y,z
_cell_length_a	19.121275
_cell_length_b	19.120786
_cell_length_c	13.032268
_cell_angle_alpha	94.409956
_cell_angle_beta	99.886552
_cell_angle_gamma	90.130801
loop_
_atom_site_label
_atom_site_type_symbol
_atom_site_fract_x
_atom_site_fract_y
_atom_site_fract_z
Zn1	Zn	1.015110	-0.365846	-0.503123
Zn2	Zn	1.515110	0.134154	-0.003123
Zn3	Zn	1.026191	-0.468259	-0.321168
Zn4	Zn	1.526191	0.031741	0.178832
Zn5	Zn	0.912722	-0.347253	-0.336084
Zn6	Zn	1.412722	0.152747	0.163916
Zn7	Zn	0.892792	-0.478101	-0.503702
Zn8	Zn	1.392792	0.021899	-0.003702
O9	O	0.961704	-0.414865	-0.416019
O10	O	1.461704	0.085135	0.083981
O11	O	1.115258	-0.383094	-0.472502
O12	O	1.615258	0.116906	0.027498
O13	O	1.024117	-0.440307	-0.176849
O14	O	1.524117	0.059693	0.323151
O15	O	0.930007	-0.252098	-0.364242
O16	O	1.430007	0.247902	0.135758
O17	O	1.123399	-0.458336	-0.338820
O18	O	1.623399	0.041664	0.161180
O19	O	1.005231	-0.265759	-0.486965
O20	O	1.505231	0.234241	0.013035
O21	O	0.940752	-0.351404	-0.187807
O22	O	1.440752	0.148596	0.312193
O23	O	0.811400	-0.360947	-0.364803
O24	O	1.311400	0.139053	0.135197
O25	O	0.896040	-0.475110	-0.649923
O26	O	1.396040	0.024890	-0.149923
O27	O	0.796758	-0.457081	-0.487952
O28	O	1.296758	0.042919	0.012048
O29	O	0.985906	-0.392637	-0.649498
O30	O	1.485906	0.107363	-0.149498
O31	O	1.004792	-0.567185	-0.339382
O32	O	1.504792	-0.067185	0.160618
O33	O	0.906785	-0.574416	-0.473489
O34	O	1.406785	-0.074416	0.026511
C35	C	0.778493	-0.408065	-0.428059
C36	C	1.278493	0.091935	0.071941
C37	C	0.700111	-0.405175	-0.433234
C38	C	1.200111	0.094825	0.066766
C39	C	0.954846	-0.596115	-0.404901
C40	C	1.454846	-0.096115	0.095099
C41	C	0.951973	-0.673660	-0.400175
C42	C	1.451973	-0.173660	0.099825
C43	C	0.667535	-0.442911	-0.365969
C44	C	1.167535	0.057089	0.134031
C45	C	0.593886	-0.440197	-0.370845
C46	C	1.093886	0.059803	0.129155
C47	C	0.552816	-0.399742	-0.442982
C48	C	1.052816	0.100258	0.057018
C49	C	0.585396	-0.362005	-0.510254
C50	C	1.085396	0.137995	-0.010254
C51	C	0.659043	-0.364723	-0.505382
C52	C	1.159043	0.135277	-0.005382
C53	C	0.330236	-0.389582	-0.461182
C54	C	0.830236	0.110418	0.038818
C55	C	0.256585	-0.386864	-0.466047
C56	C	0.756585	0.113136	0.033953
C57	C	0.265080	-0.465058	-0.326639
C58	C	0.765080	0.034942	0.173361
C59	C	0.338728	-0.467769	-0.321770
C60	C	0.838728	0.032231	0.178230
C61	C	0.371302	-0.430035	-0.389045
C62	C	0.871302	0.069965	0.110955
C63	C	0.477535	-0.396965	-0.447965
C64	C	0.977535	0.103035	0.052035
C65	C	0.446581	-0.432816	-0.384066
C66	C	0.946581	0.067184	0.115934
C67	C	0.989750	-0.717146	-0.461907
C68	C	1.489750	-0.217146	0.038093
C69	C	0.987048	-0.790007	-0.457469
C70	C	1.487048	-0.290007	0.042531
C71	C	0.946572	-0.819382	-0.391292
C72	C	1.446572	-0.319382	0.108708
C73	C	0.908791	-0.775890	-0.329558
C74	C	1.408791	-0.275890	0.170442
C75	C	0.911489	-0.703030	-0.334003
C76	C	1.411489	-0.203030	0.165997
C77	C	0.936464	-1.039019	-0.374679
C78	C	1.436464	-0.539019	0.125321
C79	C	0.933770	-1.111885	-0.370236
C80	C	1.433770	-0.611885	0.129764
C81	C	1.012027	-1.125997	-0.498149
C82	C	1.512027	-0.625997	0.001851
C83	C	1.014725	-1.053135	-0.502583
C84	C	1.514725	-0.553135	-0.002583
C85	C	0.976940	-1.009650	-0.440853
C86	C	1.476940	-0.509650	0.059147
C87	C	0.943811	-0.893858	-0.386752
C88	C	1.443811	-0.393858	0.113248
C89	C	0.979698	-0.935175	-0.445400
C90	C	1.479698	-0.435175	0.054600
C91	C	1.145630	-0.421691	-0.403932
C92	C	1.645630	0.078309	0.096068
C93	C	1.224009	-0.424600	-0.398782
C94	C	1.724009	0.075400	0.101218
C95	C	0.937514	-0.437046	-0.688704
C96	C	1.437514	0.062954	-0.188704
C97	C	0.927205	-0.446498	-0.804906
C98	C	1.427205	0.053502	-0.304906
C99	C	0.968606	-0.232909	-0.427202
C100	C	1.468606	0.267091	0.072798
C101	C	0.971547	-0.155370	-0.431968
C102	C	1.471547	0.344630	0.068032
C103	C	0.967074	-0.409906	-0.856502
C104	C	1.467074	0.090094	-0.356502
C105	C	0.956420	-0.419674	-0.976603
C106	C	1.456420	0.080326	-0.476603
C107	C	0.985842	-0.392721	-0.144395
C108	C	1.485842	0.107279	0.355605
C109	C	0.996294	-0.383077	-0.028197
C110	C	1.496294	0.116923	0.471803
H111	H	0.567366	-0.470926	-0.316071
H112	H	1.067366	0.029074	0.183929
H113	H	0.905699	-1.003619	-0.324413
H114	H	1.405699	-0.503619	0.175587
N115	N	1.027783	-0.836930	-0.524041
N116	N	1.527783	-0.336930	-0.024041
H117	H	0.993671	-0.870042	-0.572484
H118	H	1.493671	-0.370042	-0.072484
H119	H	1.053841	-0.807236	-0.566583
H120	H	1.553841	-0.307236	-0.066583
H121	H	0.910858	-0.917782	-0.332868
H122	H	1.410858	-0.417782	0.167132
N123	N	0.865135	-0.807568	-0.258179
N124	N	1.365135	-0.307568	0.241821
H125	H	0.869161	-0.860323	-0.264724
H126	H	1.369161	-0.360323	0.235276
H127	H	0.883250	-0.789172	-0.183583
H128	H	1.383250	-0.289172	0.316417
N129	N	0.900758	-0.470753	-1.035865
N130	N	1.400758	0.029247	-0.535865
H131	H	0.911485	-0.519474	-1.013140
H132	H	1.411485	-0.019474	-0.513140
H133	H	0.852477	-0.456458	-1.020877
H134	H	1.352477	0.043542	-0.520877
H135	H	0.885181	-0.485053	-0.849648
H136	H	1.385181	0.014947	-0.349648
N137	N	1.058378	-1.021454	-0.573962
N138	N	1.558378	-0.521454	-0.073962
H139	H	1.081899	-1.060059	-0.612400
H140	H	1.581899	-0.560059	-0.112400
H141	H	1.026474	-0.994106	-0.626037
H142	H	1.526474	-0.494106	-0.126037
H143	H	1.038313	-0.344511	-0.983462
H144	H	1.538313	0.155489	-0.483462
H145	H	0.900806	-1.135798	-0.316347
H146	H	1.400806	-0.635798	0.183653
N147	N	0.711831	-0.486539	-0.288157
N148	N	1.211831	0.013461	0.211843
H149	H	0.680015	-0.510033	-0.246287
H150	H	1.180015	-0.010033	0.253713
H151	H	0.737408	-0.523451	-0.326626
H152	H	1.237408	-0.023451	0.173374
H153	H	0.223147	-0.353915	-0.524786
H154	H	0.723147	0.146085	-0.024786
H155	H	0.372163	-0.500711	-0.263027
H156	H	0.872163	-0.000711	0.236973
N157	N	1.052775	-1.172891	-0.564738
N158	N	1.552775	-0.672891	-0.064738
H159	H	1.088125	-1.200864	-0.518307
H160	H	1.588125	-0.700864	-0.018307
H161	H	1.018629	-1.205965	-0.613187
H162	H	1.518629	-0.705965	-0.113187
H163	H	1.012650	-0.911257	-0.499284
H164	H	1.512650	-0.411257	0.000716
N165	N	0.229947	-0.505754	-0.254079
N166	N	0.729947	-0.005754	0.245921
H167	H	0.177060	-0.497894	-0.268107
H168	H	0.677060	0.002106	0.231893
H169	H	0.239508	-0.557382	-0.266318
H170	H	0.739508	-0.057382	0.233682
N171	N	1.022747	-0.358843	-0.797240
N172	N	1.522747	0.141157	-0.297240
H173	H	0.999318	-0.321791	-0.755791
H174	H	1.499318	0.178209	-0.255791
H175	H	1.058312	-0.384821	-0.748114
H176	H	1.558312	0.115179	-0.248114
N177	N	0.365365	-0.348884	-0.533740
N178	N	0.865365	0.151116	-0.033740
H179	H	0.328170	-0.322842	-0.580172
H180	H	0.828170	0.177158	-0.080172
H181	H	0.400904	-0.314228	-0.491230
H182	H	0.900904	0.185772	0.008770
H183	H	0.685566	-0.333994	-0.560156
H184	H	1.185566	0.166006	-0.060156
N185	N	0.541102	-0.318375	-0.588065
N186	N	1.041102	0.181625	-0.088065
H187	H	0.489504	-0.322376	-0.580943
H188	H	0.989504	0.177624	-0.080943
H189	H	0.557289	-0.267697	-0.574122
H190	H	1.057289	0.232303	-0.074122
N191	N	0.490871	-0.476448	-0.306260
N192	N	0.990871	0.023552	0.193740
H193	H	0.516452	-0.513399	-0.344656
H194	H	1.016452	-0.013399	0.155344
H195	H	0.526741	-0.445185	-0.257630
H196	H	1.026741	0.054815	0.242370
N197	N	0.433233	-0.353328	-0.525758
N198	N	0.933233	0.146672	-0.025758
H199	H	0.449355	-0.302629	-0.511853
H200	H	0.949355	0.197371	-0.011853
H201	H	0.439041	-0.370842	-0.598880
H202	H	0.939041	0.129158	-0.098880
H203	H	0.880726	-0.667624	-0.283736
H204	H	1.380726	-0.167624	0.216264
H205	H	1.022713	-0.693235	-0.515790
H206	H	1.522713	-0.193235	-0.015790
