data_functionalizedCrystal
_audit_creation_method	'MofGen! by Chris Wilmer'
_symmetry_space_group_name_H-M	'P1'
_symmetry_Int_Tables_number	1
_symmetry_cell_setting	triclinic
loop_
_symmetry_equiv_pos_as_xyz
  x,y,z
_cell_length_a	15.995350
_cell_length_b	17.699083
_cell_length_c	16.776229
_cell_angle_alpha	90.007545
_cell_angle_beta	90.003494
_cell_angle_gamma	83.387695
loop_
_atom_site_label
_atom_site_type_symbol
_atom_site_fract_x
_atom_site_fract_y
_atom_site_fract_z
O1	O	-1.110790	-0.097560	-0.066222
O2	O	-0.866990	-0.109607	-0.066239
O3	O	-0.995778	0.006594	-0.066223
O4	O	-0.982002	-0.213761	-0.066238
O5	O	-0.995761	0.006602	0.066353
O6	O	-0.866973	-0.109600	0.066338
O7	O	-1.110773	-0.097553	0.066354
Zn8	Zn	-0.988870	-0.103575	0.087395
Zn9	Zn	-0.988893	-0.103584	-0.087280
O10	O	-0.981985	-0.213754	0.066338
C11	C	-0.995276	0.034796	0.000065
C12	C	-0.993795	0.118816	0.000065
C13	C	-0.835788	-0.109105	0.000047
C14	C	-0.742841	-0.107612	0.000041
C15	C	-1.141975	-0.098054	0.000066
C16	C	-1.234923	-0.099547	0.000067
C17	C	-0.405104	-0.102250	0.000058
C18	C	-0.452706	-0.019493	0.000360
C19	C	-0.549394	-0.020987	0.000055
C20	C	-0.572659	-0.104910	0.000050
C21	C	-0.531499	-0.145732	-0.075657
C22	C	-0.434867	-0.143653	-0.075715
C23	C	-0.434505	-0.145355	0.075049
C24	C	-0.531451	-0.145335	0.076044
C25	C	-0.667354	-0.106417	0.000043
C26	C	-0.310409	-0.100745	0.000060
C27	C	-0.982487	-0.241955	0.000048
C28	C	-0.983968	-0.325976	0.000043
N29	N	-0.988861	-0.103568	0.206607
C30	C	-1.069391	0.167312	0.000072
C31	C	-1.067994	0.246257	0.000065
C32	C	-0.991001	0.276706	0.000057
C33	C	-0.915400	0.228205	0.000048
C34	C	-0.916797	0.149261	0.000050
C35	C	-0.909763	0.546577	0.000041
C36	C	-0.908372	0.625527	0.000042
C37	C	-1.060960	0.643574	0.000056
C38	C	-1.062358	0.564630	0.000058
C39	C	-0.986757	0.516135	0.000045
C40	C	-0.988272	0.430533	0.000051
C41	C	-0.989485	0.362306	0.000056
N42	N	-0.988909	-0.103585	-0.206491
C43	C	-1.045906	-0.052135	0.248331
C44	C	-1.045910	-0.052135	0.331783
C45	C	-0.988874	-0.103571	0.373509
C46	C	-0.931823	-0.155006	0.331779
C47	C	-0.931815	-0.155003	0.248329
C48	C	-0.931853	-0.155021	0.668327
C49	C	-0.931867	-0.155022	0.751783
C50	C	-1.045949	-0.052153	0.751781
C51	C	-1.045941	-0.052150	0.668330
C52	C	-0.988887	-0.103582	0.626607
C53	C	-0.988882	-0.103581	0.536119
C54	C	-0.988883	-0.103576	0.463996
H55	H	-0.434245	0.013589	0.054652
C56	C	-0.587133	0.022637	-0.073388
C57	C	-0.529282	0.058939	-0.131946
C58	C	-0.567021	0.102561	-0.205394
C59	C	-0.662612	0.109882	-0.220284
C60	C	-0.720469	0.073578	-0.161724
C61	C	-0.682730	0.029956	-0.088276
H62	H	-0.458515	0.053521	-0.120924
H63	H	-0.524190	0.129435	-0.248743
H64	H	-0.690548	0.142173	-0.274655
H65	H	-0.791236	0.078996	-0.172746
H66	H	-0.725560	0.003082	-0.044927
C67	C	-0.869105	-0.211599	0.622434
C68	C	-0.806392	-0.268203	0.668328
C69	C	-0.743642	-0.324784	0.622430
C70	C	-0.743606	-0.324762	0.530637
C71	C	-0.806322	-0.268156	0.484738
C72	C	-0.869071	-0.211574	0.530637
H73	H	-0.806416	-0.268222	0.736283
H74	H	-0.697216	-0.366688	0.656408
H75	H	-0.697155	-0.366647	0.496661
H76	H	-0.806297	-0.268137	0.416783
H77	H	-0.915498	-0.169671	0.496659
C78	C	-0.587882	0.022375	0.073363
C79	C	-0.560886	-0.004335	0.157837
C80	C	-0.599369	0.039036	0.231144
C81	C	-0.664847	0.109116	0.219976
C82	C	-0.691847	0.135829	0.135498
C83	C	-0.653364	0.092459	0.062191
H84	H	-0.512412	-0.056215	0.166107
H85	H	-0.579381	0.019261	0.293680
H86	H	-0.693334	0.141222	0.274242
H87	H	-0.740321	0.187710	0.127228
H88	H	-0.673352	0.112234	-0.000345
C89	C	-0.568763	-0.105344	0.151720
C90	C	-0.538708	-0.134539	0.234538
C91	C	-0.576196	-0.094677	0.310216
C92	C	-0.643739	-0.025620	0.303075
C93	C	-0.673798	0.003579	0.220254
C94	C	-0.636310	-0.036283	0.144576
H95	H	-0.488705	-0.185663	0.239827
H96	H	-0.553944	-0.116292	0.371526
H97	H	-0.671490	0.003889	0.359096
H98	H	-0.723801	0.054703	0.214965
H99	H	-0.658563	-0.014668	0.083266
H100	H	-0.416627	-0.113890	-0.132304
H101	H	-0.885418	-0.196910	0.785756
H102	H	-0.414018	-0.118297	0.132434
H103	H	-0.885379	-0.196884	0.365758
C104	C	-0.823674	0.659022	0.000027
C105	C	-0.760903	0.640730	0.068858
C106	C	-0.676210	0.674225	0.068844
C107	C	-0.654288	0.726013	-0.000002
C108	C	-0.717060	0.744308	-0.068838
C109	C	-0.801753	0.710813	-0.068823
H110	H	-0.777129	0.602391	0.119826
H111	H	-0.629742	0.660682	0.119801
H112	H	-0.591594	0.750809	-0.000012
H113	H	-0.700834	0.782647	-0.119805
H114	H	-0.848221	0.724356	-0.119781
C115	C	-0.391431	-0.227782	0.075743
C116	C	-0.329883	-0.255877	0.008629
C117	C	-0.286805	-0.338301	0.009315
C118	C	-0.305275	-0.392630	0.077114
C119	C	-0.366826	-0.364537	0.144233
C120	C	-0.409905	-0.282113	0.143547
H121	H	-0.316207	-0.215658	-0.041564
H122	H	-0.241240	-0.359097	-0.040371
H123	H	-0.273386	-0.453645	0.077622
H124	H	-0.380502	-0.404756	0.194426
H125	H	-0.455469	-0.261317	0.193233
C126	C	-1.108703	0.004431	0.797677
C127	C	-1.204041	0.003106	0.786188
C128	C	-1.266796	0.059686	0.832081
C129	C	-1.234213	0.117593	0.889463
C130	C	-1.138871	0.118920	0.900954
C131	C	-1.076116	0.062340	0.855061
H132	H	-1.228165	-0.039762	0.743709
H133	H	-1.337375	0.058703	0.823575
H134	H	-1.280668	0.159477	0.923436
H135	H	-1.114747	0.161788	0.943433
H136	H	-1.005537	0.063323	0.863568
H137	H	-0.848204	0.507102	0.000031
H138	H	-1.132087	0.142527	0.000083
C139	C	-0.550413	-0.229025	-0.079474
C140	C	-0.598428	-0.256966	-0.151246
C141	C	-0.617344	-0.340258	-0.155061
C142	C	-0.588245	-0.395609	-0.087102
C143	C	-0.540227	-0.367669	-0.015325
C144	C	-0.521311	-0.284377	-0.011510
H145	H	-0.619971	-0.215990	-0.201558
H146	H	-0.652890	-0.360941	-0.208195
H147	H	-0.602248	-0.457267	-0.089926
H148	H	-0.518684	-0.408645	0.034987
H149	H	-0.485765	-0.263694	0.041625
C150	C	-0.426002	0.024953	-0.072465
C151	C	-0.384287	0.098314	-0.060418
C152	C	-0.357419	0.142737	-0.133193
C153	C	-0.372266	0.113800	-0.218015
C154	C	-0.413983	0.040436	-0.230065
C155	C	-0.440851	-0.003988	-0.157291
H156	H	-0.373294	0.119738	0.002376
H157	H	-0.326538	0.197047	-0.124272
H158	H	-0.352377	0.146686	-0.271887
H159	H	-0.424976	0.019012	-0.292859
H160	H	-0.471733	-0.058298	-0.166212
H161	H	-0.546691	-0.206534	0.080614
H162	H	-0.402496	-0.204412	-0.079154
H163	H	-0.559938	-0.117384	-0.131997
H164	H	-0.852711	0.253002	0.000037
C165	C	-1.108680	0.004432	0.622430
C166	C	-1.107454	0.090621	0.633918
C167	C	-1.170191	0.147206	0.588019
C168	C	-1.234155	0.117601	0.530632
C169	C	-1.235383	0.031408	0.519142
C170	C	-1.172646	-0.025177	0.565041
H171	H	-1.060102	0.112540	0.676402
H172	H	-1.169281	0.211012	0.596526
H173	H	-1.280597	0.159489	0.496655
H174	H	-1.282735	0.009489	0.476658
H175	H	-1.173556	-0.088983	0.556535
H176	H	-0.855239	0.109776	0.000044
C177	C	-1.108648	0.004447	0.202436
C178	C	-1.171392	0.061025	0.248336
C179	C	-1.234134	0.117611	0.202444
C180	C	-1.234133	0.117619	0.110652
C181	C	-1.171387	0.061039	0.064746
C182	C	-1.108644	0.004453	0.110638
H183	H	-1.171395	0.061021	0.316291
H184	H	-1.280583	0.159495	0.236427
H185	H	-1.280579	0.159507	0.076680
H186	H	-1.171384	0.061043	-0.003209
H187	H	-1.062196	-0.037431	0.076655
C188	C	-1.151151	0.299602	0.000072
C189	C	-1.235842	0.266111	0.000086
C190	C	-1.319003	0.319456	0.000090
C191	C	-1.317473	0.406293	0.000080
C192	C	-1.232779	0.439788	0.000066
C193	C	-1.149618	0.386443	0.000062
H194	H	-1.236977	0.201826	0.000093
H195	H	-1.381699	0.294660	0.000100
H196	H	-1.379034	0.445782	0.000083
H197	H	-1.231644	0.504074	0.000059
H198	H	-1.086922	0.411239	0.000052
H199	H	-1.092360	-0.010254	0.365754
H200	H	-1.125053	0.539843	0.000068
H201	H	-0.885363	-0.196884	0.214358
H202	H	-1.122518	0.683068	0.000063
