data_functionalizedCrystal
_audit_creation_method	'MofGen! by Chris Wilmer'
_symmetry_space_group_name_H-M	'P1'
_symmetry_Int_Tables_number	1
_symmetry_cell_setting	triclinic
loop_
_symmetry_equiv_pos_as_xyz
  x,y,z
_cell_length_a	16.992694
_cell_length_b	10.489716
_cell_length_c	15.455313
_cell_angle_alpha	92.696181
_cell_angle_beta	87.142206
_cell_angle_gamma	87.598679
loop_
_atom_site_label
_atom_site_type_symbol
_atom_site_fract_x
_atom_site_fract_y
_atom_site_fract_z
O1	O	1.045307	0.265391	-0.072009
O2	O	1.545307	0.765391	0.427991
O3	O	0.817006	0.262420	-0.072035
O4	O	1.317006	0.762420	0.427965
O5	O	0.936361	0.078758	-0.072025
O6	O	1.436361	0.578758	0.427975
O7	O	0.925951	0.449053	-0.072020
O8	O	1.425951	0.949053	0.427980
O9	O	0.929536	0.089215	0.072237
O10	O	1.429536	0.589215	0.572237
O11	O	0.810180	0.272877	0.072227
O12	O	1.310180	0.772877	0.572227
O13	O	1.038481	0.275847	0.072252
O14	O	1.538481	0.775847	0.572252
Cu15	Cu	0.923707	0.275317	0.085412
Cu16	Cu	1.423707	0.775317	0.585412
Cu17	Cu	0.931779	0.262951	-0.085194
Cu18	Cu	1.431779	0.762951	0.414806
O19	O	0.919126	0.459509	0.072242
O20	O	1.419126	0.959509	0.572242
C21	C	0.784359	0.263829	0.000092
C22	C	1.284359	0.763829	0.500092
C23	C	0.697252	0.252433	0.000082
C24	C	1.197252	0.752433	0.500082
C25	C	0.647626	0.362383	0.000084
C26	C	1.147626	0.862383	0.500084
C27	C	0.565779	0.351669	0.000096
C28	C	1.065779	0.851669	0.500096
C29	C	0.533560	0.231003	0.000100
C30	C	1.033560	0.731003	0.500100
C31	C	0.583192	0.121045	0.000100
C32	C	1.083192	0.621045	0.500100
C33	C	0.665037	0.131761	0.000095
C34	C	1.165037	0.631761	0.500095
C35	C	0.289712	0.186592	0.000122
C36	C	0.789712	0.686592	0.500122
C37	C	0.207861	0.175884	0.000125
C38	C	0.707861	0.675884	0.500125
C39	C	0.190454	0.406509	0.000123
C40	C	0.690454	0.906509	0.500123
C41	C	0.272302	0.417214	0.000112
C42	C	0.772302	0.917214	0.500112
C43	C	0.321926	0.307256	0.000117
C44	C	0.821926	0.807256	0.500117
N45	N	0.449899	0.220049	0.000109
N46	N	0.949899	0.720049	0.500109
N47	N	0.405585	0.318212	0.000114
N48	N	0.905585	0.818212	0.500114
C49	C	0.932166	0.036386	0.000103
C50	C	1.432166	0.536386	0.500103
C51	C	0.929827	-0.105449	0.000095
C52	C	1.429827	0.394551	0.500095
C53	C	1.003019	-0.196754	0.000111
C54	C	1.503019	0.303246	0.500111
C55	C	0.967707	-0.282635	-0.071019
C56	C	1.467707	0.217365	0.428981
C57	C	0.960961	-0.272292	0.071211
C58	C	1.460961	0.227708	0.571211
C59	C	0.894549	-0.189466	-0.071094
C60	C	1.394549	0.310534	0.428906
C61	C	0.887810	-0.179112	0.071200
C62	C	1.387810	0.320888	0.571200
C63	C	0.852446	-0.264950	0.000052
C64	C	1.352446	0.235050	0.500052
C65	C	1.071128	0.274438	0.000123
C66	C	1.571128	0.774438	0.500123
C67	C	1.158235	0.285834	0.000127
C68	C	1.658235	0.785834	0.500127
C69	C	0.923320	0.501881	0.000112
C70	C	1.423320	1.001881	0.500112
C71	C	0.925660	0.643716	0.000114
C72	C	1.425660	1.143716	0.500114
N73	N	0.918036	0.284014	0.205407
N74	N	1.418036	0.784014	0.705407
N75	N	0.937457	0.254244	-0.205189
N76	N	1.437457	0.754244	0.294811
C77	C	0.968760	0.206020	0.250805
C78	C	1.468760	0.706020	0.750805
C79	C	0.964478	0.212610	0.341613
C80	C	1.464478	0.712610	0.841613
C81	C	0.909475	0.297201	0.387020
C82	C	1.409475	0.797201	0.887020
C83	C	0.858745	0.375198	0.341615
C84	C	1.358745	0.875198	0.841615
C85	C	0.863024	0.368601	0.250809
C86	C	1.363024	0.868601	0.750809
C87	C	0.891006	0.325643	0.658600
C88	C	1.391006	0.825643	1.158600
C89	C	0.886733	0.332238	0.749412
C90	C	1.386733	0.832238	1.249412
C91	C	0.992465	0.169647	0.749403
C92	C	1.492465	0.669647	1.249403
C93	C	0.996742	0.163063	0.658596
C94	C	1.496742	0.663063	1.158596
C95	C	0.946010	0.241055	0.613199
C96	C	1.446010	0.741055	1.113199
N97	N	0.905099	0.303942	0.479840
N98	N	1.405099	0.803942	0.979840
N99	N	0.950383	0.234307	0.520381
N100	N	1.450383	0.734307	1.020381
H101	H	0.525377	0.441202	0.000097
H102	H	1.025377	0.941202	0.500097
F103	F	0.306586	0.545642	0.000104
F104	F	0.806586	1.045642	0.500104
F105	F	1.086236	-0.157263	0.000029
F106	F	1.586236	0.342737	0.500029
H107	H	1.001450	-0.327801	-0.131149
H108	H	1.501450	0.172199	0.368851
F109	F	0.548899	-0.007377	0.000109
F110	F	1.048899	0.492623	0.500109
H111	H	0.866516	-0.153213	-0.131296
H112	H	1.366516	0.346787	0.368704
H113	H	1.013553	0.137143	0.213841
H114	H	1.513553	0.637143	0.713841
H115	H	0.788735	-0.294926	0.000007
H116	H	1.288735	0.205074	0.500007
H117	H	1.041530	0.094183	0.621627
H118	H	1.541530	0.594183	1.121627
F119	F	0.137635	0.523526	0.000120
F120	F	0.637635	1.023526	0.500120
H121	H	0.854095	-0.133921	0.131332
H122	H	1.354095	0.366079	0.631332
F123	F	0.173572	0.047450	0.000144
F124	F	0.673572	0.547450	0.500144
F125	F	0.342516	0.069563	0.000127
F126	F	0.842516	0.569563	0.500127
F127	F	1.046453	0.086645	0.797724
F128	F	1.546453	0.586645	1.297724
H129	H	0.989029	-0.308716	0.131345
H130	H	1.489029	0.191284	0.631345
H131	H	0.705442	0.042227	0.000092
H132	H	1.205442	0.542227	0.500092
F133	F	0.809033	0.451609	0.202494
F134	F	1.309033	0.951609	0.702494
H135	H	1.005781	0.149101	0.378576
H136	H	1.505781	0.649101	0.878576
F137	F	0.828188	0.422279	0.797732
F138	F	1.328188	0.922279	1.297732
H139	H	0.849699	0.389150	0.621645
H140	H	1.349699	0.889150	1.121645
H141	H	0.813957	0.444069	0.378591
H142	H	1.313957	0.944069	0.878591
H143	H	0.673852	0.460642	0.000081
H144	H	1.173852	0.960642	0.500081
