data_functionalizedCrystal
_audit_creation_method	'MofGen! by Chris Wilmer'
_symmetry_space_group_name_H-M	'P1'
_symmetry_Int_Tables_number	1
_symmetry_cell_setting	triclinic
loop_
_symmetry_equiv_pos_as_xyz
  x,y,z
_cell_length_a	21.606444
_cell_length_b	21.606444
_cell_length_c	18.878441
_cell_angle_alpha	59.991101
_cell_angle_beta	90.000323
_cell_angle_gamma	60.003978
loop_
_atom_site_label
_atom_site_type_symbol
_atom_site_fract_x
_atom_site_fract_y
_atom_site_fract_z
Zr1	Zr	0.596222	0.677538	-0.093114
O2	O	0.497396	0.806668	-0.206242
O3	O	0.626517	0.548408	-0.058417
O4	O	0.626512	0.677543	-0.206222
O5	O	0.497404	0.677529	0.058136
O6	O	0.728362	0.677548	-0.206227
O7	O	0.497400	0.677533	-0.058436
O8	O	0.728370	0.446549	0.058170
O9	O	0.497397	0.908528	-0.206261
O10	O	0.715447	0.601525	-0.043643
O11	O	0.639441	0.601519	0.043356
O12	O	0.639436	0.753558	-0.130665
O13	O	0.563429	0.753552	-0.043666
Zr14	Zr	0.758667	0.677540	0.092798
Zr15	Zr	0.758660	0.677545	-0.093121
Zr16	Zr	0.596228	0.677533	0.092805
Zr17	Zr	0.596223	0.839994	-0.093145
Zr18	Zr	0.758666	0.515084	0.092829
O19	O	0.728372	0.806670	0.058101
O20	O	0.728363	0.806678	-0.206251
O21	O	0.497405	0.806660	0.058111
O22	O	0.857492	0.548410	0.205926
O23	O	0.857483	0.548418	-0.058427
O24	O	0.626525	0.548400	0.205936
O25	O	0.857484	0.677548	-0.058451
O26	O	0.728376	0.677535	0.205907
O27	O	0.626526	0.677530	0.205911
O28	O	0.857488	0.677545	0.058121
O29	O	0.626514	0.908534	-0.206267
O30	O	0.728375	0.446544	0.205951
O31	O	0.857492	0.446550	0.205946
O32	O	0.857487	0.446554	0.058165
O33	O	0.497402	0.908523	-0.058481
O34	O	0.626519	0.908529	-0.058486
O35	O	0.715453	0.601519	0.130350
O36	O	0.791459	0.601525	0.043350
O37	O	0.715448	0.753559	-0.043672
O38	O	0.639441	0.753553	0.043327
C39	C	0.677443	0.474332	-0.000119
C40	C	0.677443	0.405366	-0.000106
C41	C	0.621329	0.429100	-0.064342
C42	C	0.621331	0.364311	-0.064360
C43	C	0.677444	0.275788	-0.000137
C44	C	0.733564	0.252054	0.064102
C45	C	0.733564	0.316842	0.064116
C46	C	0.733563	-0.009233	0.064048
C47	C	0.733557	-0.074022	0.064031
C48	C	0.621330	0.038236	-0.064428
C49	C	0.621330	0.103024	-0.064415
C50	C	0.677452	0.079285	-0.000178
C51	C	0.677450	0.149537	-0.000160
C52	C	0.677444	0.205536	-0.000151
C53	C	0.474258	0.677530	-0.000149
C54	C	0.405299	0.677527	-0.000147
C55	C	0.412577	0.598168	0.045275
C56	C	0.347779	0.598170	0.045276
C57	C	0.275705	0.677533	-0.000151
C58	C	0.268429	0.756898	-0.045574
C59	C	0.333225	0.756895	-0.045569
C60	C	0.007110	0.756914	-0.045593
C61	C	-0.057688	0.756911	-0.045596
C62	C	0.021665	0.598189	0.045252
C63	C	0.086461	0.598185	0.045257
C64	C	0.079179	0.677550	-0.000162
C65	C	0.149441	0.677547	-0.000161
C66	C	0.205445	0.677537	-0.000157
C67	C	0.880630	0.677548	-0.000166
C68	C	0.949589	0.677551	-0.000169
C69	C	0.677436	0.677546	-0.232714
C70	C	0.677434	0.677549	-0.311641
C71	C	0.677445	0.880746	-0.000197
C72	C	0.677446	0.949712	-0.000210
C73	C	0.637757	0.756908	-0.394146
C74	C	0.637764	0.756905	-0.468304
C75	C	0.677445	0.677542	-0.459955
C76	C	0.717127	0.598177	-0.377441
C77	C	0.717123	0.598180	-0.303285
C78	C	0.717129	0.598174	-0.532009
C79	C	0.717132	0.598170	-0.606169
C80	C	0.637770	0.756899	-0.697027
C81	C	0.637767	0.756902	-0.622871
C82	C	0.677448	0.677537	-0.540363
C83	C	0.677452	0.677532	0.232398
C84	C	0.677455	0.677529	0.311326
C85	C	0.880629	0.474341	-0.000127
C86	C	0.949588	0.405377	-0.000117
C87	C	0.677451	0.474325	0.232437
C88	C	0.677453	0.405356	0.311378
C89	C	0.880637	0.474334	0.232429
C90	C	0.949598	0.405368	0.311367
C91	C	0.474252	0.880744	-0.232744
C92	C	0.405290	0.949710	-0.311682
C93	C	0.474259	0.880737	-0.000188
C94	C	0.405300	0.949700	-0.000199
C95	C	0.677438	0.880753	-0.232753
C96	C	0.677435	0.949722	-0.311693
C97	C	0.942294	0.372991	-0.045529
C98	C	1.007082	0.308202	-0.045537
C99	C	1.079164	0.275795	-0.000127
C100	C	1.086456	0.308188	0.045287
C101	C	1.021668	0.372981	0.045289
C102	C	0.717132	0.372968	0.393867
C103	C	0.717131	0.308173	0.468047
C104	C	0.677456	0.275764	0.459736
C105	C	0.637772	0.308158	0.377239
C106	C	0.637769	0.372956	0.303061
C107	C	1.021665	0.372984	0.303024
C108	C	1.086468	0.308192	0.377187
C109	C	1.079203	0.275781	0.459692
C110	C	1.007129	0.308171	0.468033
C111	C	0.942327	0.372966	0.393871
C112	C	0.333223	0.982102	-0.303339
C113	C	0.268420	1.046914	-0.377503
C114	C	0.275686	1.079328	-0.460008
C115	C	0.347760	1.046934	-0.468349
C116	C	0.412561	0.982127	-0.394187
C117	C	0.412594	0.982093	0.045206
C118	C	0.347806	1.046901	0.045193
C119	C	0.275725	1.079310	-0.000220
C120	C	0.268433	1.046914	-0.045630
C121	C	0.333220	0.982112	-0.045622
C122	C	0.717118	0.982111	-0.303355
C123	C	0.717131	1.046906	-0.377521
C124	C	0.677456	1.079315	-0.460025
C125	C	0.637771	1.046920	-0.468361
C126	C	0.637764	0.982121	-0.394196
H127	H	0.575637	0.383644	-0.116667
F128	F	0.325477	0.841360	-0.093910
H129	H	0.883650	0.399325	0.400676
F130	F	0.595518	0.947664	-0.403084
F131	F	0.759374	0.513704	-0.444196
F132	F	0.595543	1.081427	-0.556175
H133	H	0.605460	0.399318	0.235897
F134	F	0.793286	0.157839	0.132451
H135	H	0.779258	0.297511	0.116424
H136	H	0.779255	-0.146105	0.116331
F137	F	1.029443	0.407437	0.093632
H138	H	0.575634	0.175102	-0.116708
H139	H	0.677468	1.132078	-0.520408
F140	F	0.595533	0.841370	-0.556112
F141	F	0.206711	1.148301	-0.538932
H142	H	0.209741	1.073279	-0.370694
F143	F	0.759371	0.273706	0.555838
H144	H	0.605439	0.821534	-0.400955
F145	F	0.999408	0.273668	0.555849
H146	H	0.883608	0.399376	-0.082519
F147	F	0.355480	1.081439	-0.556165
F148	F	0.595518	0.841369	-0.631760
H149	H	0.575627	0.501178	-0.116631
F150	F	1.029414	0.407470	0.215222
F151	F	0.595541	0.841366	-0.784840
H152	H	0.575635	0.057559	-0.116736
H153	H	1.001130	0.281835	-0.082518
H154	H	0.471239	0.955754	-0.400990
F155	F	0.793289	-0.034507	0.132419
F156	F	0.489302	0.947615	0.093542
H157	H	0.353758	1.073267	0.082175
F158	F	0.677466	0.206799	0.538692
H159	H	0.605469	0.281761	0.370485
F160	F	0.489281	0.513698	0.093620
H161	H	0.749442	0.533546	-0.599365
H162	H	0.353712	0.533548	0.082264
H163	H	0.222977	1.132076	-0.000219
H164	H	0.209736	1.073311	-0.082604
H165	H	1.145153	0.281793	0.082258
F166	F	0.759365	0.407446	0.402731
H167	H	1.145148	0.281826	0.370380
F168	F	0.325446	0.947639	-0.093945
H169	H	0.145145	0.533560	0.082245
F170	F	0.759350	0.947630	-0.215556
H171	H	1.131974	0.223020	0.520073
H172	H	0.027588	0.533566	0.082236
H173	H	-0.116376	0.821542	-0.082590
H174	H	0.327294	0.955714	-0.236166
H175	H	0.749446	1.073275	-0.370717
H176	H	0.001171	0.821538	-0.082592
H177	H	0.209740	0.821517	-0.082556
F178	F	0.759360	0.513712	-0.368557
H179	H	0.749432	0.533558	-0.236106
H180	H	1.131911	0.223036	-0.000135
