data_functionalizedCrystal
_audit_creation_method	'MofGen! by Chris Wilmer'
_symmetry_space_group_name_H-M	'P1'
_symmetry_Int_Tables_number	1
_symmetry_cell_setting	triclinic
loop_
_symmetry_equiv_pos_as_xyz
  x,y,z
_cell_length_a	18.215407
_cell_length_b	19.805405
_cell_length_c	18.215399
_cell_angle_alpha	89.972077
_cell_angle_beta	89.982632
_cell_angle_gamma	90.024169
loop_
_atom_site_label
_atom_site_type_symbol
_atom_site_fract_x
_atom_site_fract_y
_atom_site_fract_z
Zn1	Zn	1.125063	-0.269516	-0.416068
Zn2	Zn	1.124967	-0.382707	-0.293001
Zn3	Zn	1.001995	-0.269533	-0.293020
Zn4	Zn	1.001957	-0.382664	-0.416032
O5	O	1.063495	-0.326105	-0.354530
O6	O	1.228034	-0.284543	-0.399750
O7	O	1.108630	-0.367719	-0.190020
O8	O	1.018376	-0.174814	-0.309366
O9	O	1.227964	-0.367704	-0.309334
O10	O	1.108793	-0.174802	-0.399768
O11	O	1.018283	-0.284570	-0.190033
O12	O	0.899006	-0.284528	-0.309331
O13	O	1.018311	-0.367629	-0.519021
O14	O	0.898978	-0.367645	-0.399707
O15	O	1.108756	-0.284501	-0.519047
O16	O	1.108593	-0.477418	-0.309299
O17	O	1.018219	-0.477386	-0.399688
C18	C	0.872289	-0.326084	-0.354517
C19	C	0.790490	-0.326092	-0.354529
C20	C	1.063412	-0.501961	-0.354504
C21	C	1.063443	-0.577193	-0.354517
C22	C	0.602332	-0.282879	-0.401683
C23	C	0.525473	-0.282885	-0.401686
C24	C	0.525411	-0.369350	-0.307390
C25	C	0.602268	-0.369340	-0.307384
C26	C	0.640727	-0.326106	-0.354535
C27	C	0.487011	-0.326121	-0.354543
C28	C	0.403677	-0.326128	-0.354546
C29	C	0.724066	-0.326098	-0.354532
C30	C	1.110495	-0.612473	-0.401626
C31	C	1.110522	-0.683161	-0.401640
C32	C	1.063499	-0.718569	-0.354540
C33	C	1.016442	-0.683284	-0.307428
C34	C	1.016412	-0.612597	-0.307419
C35	C	1.016560	-0.968357	-0.307466
C36	C	1.016595	-1.039049	-0.307478
C37	C	1.110670	-1.038921	-0.401687
C38	C	1.110640	-0.968234	-0.401678
C39	C	1.063580	-0.932956	-0.354569
C40	C	1.063551	-0.856307	-0.354556
C41	C	1.063532	-0.795216	-0.354549
C42	C	1.255448	-0.326126	-0.354544
C43	C	1.337247	-0.326135	-0.354549
C44	C	1.063540	-0.326058	-0.546483
C45	C	1.063559	-0.326038	-0.628282
C46	C	1.063600	-0.149562	-0.354573
C47	C	1.063644	-0.074330	-0.354591
C48	C	1.110671	-0.282713	-0.816491
C49	C	1.110680	-0.282693	-0.893350
C50	C	1.016500	-0.369259	-0.893311
C51	C	1.016488	-0.369275	-0.816454
C52	C	1.063578	-0.326003	-0.778046
C53	C	1.063598	-0.325967	-0.931762
C54	C	1.063607	-0.325946	-1.015096
C55	C	1.063568	-0.326023	-0.694707
C56	C	1.063493	-0.326103	-0.163324
C57	C	1.063617	-0.325932	-0.081525
H58	H	0.633642	-0.247672	-0.440074
H59	H	1.148986	-1.067654	-0.440047
Br60	Br	0.473368	-0.224214	-0.465673
Br61	Br	1.174577	-0.223985	-0.764368
H62	H	1.148790	-0.583649	-0.439977
Br63	Br	1.174369	-0.731038	-0.465590
H64	H	0.978096	-0.583873	-0.269059
Br65	Br	1.174462	-0.920185	-0.465597
Br66	Br	1.174601	-0.223944	-0.945523
Br67	Br	0.952564	-0.428024	-0.764273
H68	H	0.978162	-0.404492	-0.924592
H69	H	0.978300	-1.067876	-0.269122
H70	H	0.978244	-0.939639	-0.269107
Br71	Br	0.654381	-0.428000	-0.243382
Br72	Br	0.473213	-0.428024	-0.243404
H73	H	0.978152	-0.712118	-0.269082
