data_functionalizedCrystal
_audit_creation_method	'MofGen! by Chris Wilmer'
_symmetry_space_group_name_H-M	'P1'
_symmetry_Int_Tables_number	1
_symmetry_cell_setting	triclinic
loop_
_symmetry_equiv_pos_as_xyz
  x,y,z
_cell_length_a	16.109301
_cell_length_b	16.109301
_cell_length_c	18.366186
_cell_angle_alpha	89.992337
_cell_angle_beta	89.993316
_cell_angle_gamma	83.461532
loop_
_atom_site_label
_atom_site_type_symbol
_atom_site_fract_x
_atom_site_fract_y
_atom_site_fract_z
O1	O	1.103137	0.106869	-0.060512
O2	O	1.603137	0.606869	0.439488
O3	O	0.861075	0.120168	-0.060522
O4	O	1.361075	0.620168	0.439478
O5	O	0.988756	-0.007512	-0.060510
O6	O	1.488756	0.492488	0.439490
O7	O	0.975456	0.234550	-0.060525
O8	O	1.475456	0.734550	0.439475
O9	O	0.988734	-0.007518	0.060590
O10	O	1.488734	0.492482	0.560590
O11	O	0.861053	0.120162	0.060577
O12	O	1.361053	0.620162	0.560577
O13	O	1.103115	0.106863	0.060587
O14	O	1.603115	0.606863	0.560587
Zn15	Zn	0.982081	0.113512	0.079809
Zn16	Zn	1.482081	0.613512	0.579809
Zn17	Zn	0.982110	0.113520	-0.079744
Zn18	Zn	1.482110	0.613520	0.420256
O19	O	0.975435	0.234544	0.060574
O20	O	1.475435	0.734544	0.560574
C21	C	0.830089	0.119627	0.000026
C22	C	1.330089	0.619627	0.500026
C23	C	0.737794	0.118011	0.000022
C24	C	1.237794	0.618011	0.500022
C25	C	0.988206	-0.038490	0.000041
C26	C	1.488206	0.461510	0.500041
C27	C	0.986591	-0.130785	0.000041
C28	C	1.486591	0.369215	0.500041
C29	C	0.428796	0.188494	0.000030
C30	C	0.928796	0.688494	0.500030
C31	C	0.515516	0.190020	0.000026
C32	C	1.015516	0.690020	0.500026
C33	C	0.535389	0.038531	0.000026
C34	C	1.035389	0.538531	0.500026
C35	C	0.448671	0.037007	0.000025
C36	C	0.948671	0.537007	0.500025
C37	C	0.395376	0.111991	0.000031
C38	C	0.895376	0.611991	0.500031
C39	C	0.568815	0.115041	0.000028
C40	C	1.068815	0.615041	0.500028
C41	C	0.662841	0.116694	0.000023
C42	C	1.162841	0.616694	0.500023
C43	C	0.301344	0.110338	0.000034
C44	C	0.801344	0.610338	0.500034
C45	C	1.058599	-0.353058	0.000033
C46	C	1.558599	0.146942	0.500033
C47	C	1.057075	-0.439778	0.000027
C48	C	1.557075	0.060222	0.500027
C49	C	0.905586	-0.419904	0.000023
C50	C	1.405586	0.080096	0.500023
C51	C	0.907111	-0.333185	0.000024
C52	C	1.407111	0.166815	0.500024
C53	C	0.983620	-0.299765	0.000033
C54	C	1.483620	0.200235	0.500033
C55	C	0.980571	-0.473204	0.000026
C56	C	1.480571	0.026796	0.500026
C57	C	0.978918	-0.567230	0.000019
C58	C	1.478918	-0.067230	0.500019
C59	C	0.985273	-0.205733	0.000038
C60	C	1.485273	0.294267	0.500038
C61	C	1.134101	0.107405	0.000037
C62	C	1.634101	0.607405	0.500037
C63	C	1.226396	0.109020	0.000036
C64	C	1.726396	0.609020	0.500036
C65	C	0.975984	0.265522	0.000023
C66	C	1.475984	0.765522	0.500023
C67	C	0.977599	0.357817	0.000017
C68	C	1.477599	0.857817	0.500017
N69	N	0.982068	0.113505	0.188700
N70	N	1.482068	0.613505	0.688700
N71	N	0.982130	0.113519	-0.188635
N72	N	1.482130	0.613519	0.311365
C73	C	1.038623	0.056996	0.226807
C74	C	1.538623	0.556996	0.726807
C75	C	1.038628	0.056992	0.303034
C76	C	1.538628	0.556992	0.803034
C77	C	0.982086	0.113512	0.341153
C78	C	1.482086	0.613512	0.841153
C79	C	0.925520	0.170026	0.303038
C80	C	1.425520	0.670026	0.803038
C81	C	0.925511	0.170022	0.226811
C82	C	1.425511	0.670022	0.726811
C83	C	0.971173	0.189235	0.461908
C84	C	1.471173	0.689235	0.961908
C85	C	0.971188	0.189239	0.538133
C86	C	1.471188	0.689239	1.038133
C87	C	0.982110	0.113523	0.576261
C88	C	1.482110	0.613523	1.076261
C89	C	0.993034	0.037798	0.538154
C90	C	1.493034	0.537798	1.038154
C91	C	0.993025	0.037795	0.461927
C92	C	1.493025	0.537795	0.961927
C93	C	0.982089	0.113522	0.423808
C94	C	1.482089	0.613522	0.923808
C95	C	1.038674	0.057005	0.697022
C96	C	1.538674	0.557005	1.197022
C97	C	1.038673	0.057000	0.773251
C98	C	1.538673	0.557000	1.273251
C99	C	0.925569	0.170040	0.773253
C100	C	1.425569	0.670040	1.273253
C101	C	0.925565	0.170038	0.697025
C102	C	1.425565	0.670038	1.197025
C103	C	0.982122	0.113521	0.658914
C104	C	1.482122	0.613521	1.158914
H105	H	0.542722	0.252317	0.000025
H106	H	1.042722	0.752317	0.500025
H107	H	0.578792	-0.022518	0.000023
H108	H	1.078792	0.477482	0.500023
O109	O	1.099640	-0.003984	0.655913
O110	O	1.599640	0.496016	1.155913
H111	H	1.090131	0.005505	0.596506
H112	H	1.590131	0.505505	1.096506
H113	H	0.421461	-0.025296	0.000023
H114	H	0.921461	0.474704	0.500023
O115	O	0.826234	-0.275699	0.000033
O116	O	1.326234	0.224301	0.500033
H117	H	0.789621	-0.287574	-0.049321
H118	H	1.289621	0.212426	0.450679
H119	H	0.879528	0.216057	0.804289
H120	H	1.379528	0.716057	1.304289
O121	O	0.823072	-0.455959	0.000026
O122	O	1.323072	0.044041	0.500026
H123	H	0.787051	-0.434553	-0.049335
H124	H	1.287051	0.065447	0.450665
H125	H	1.084684	0.010974	0.334066
H126	H	1.584684	0.510974	0.834066
H127	H	0.879516	0.216056	0.665997
H128	H	1.379516	0.716056	1.165997
O129	O	1.099687	-0.003947	0.814350
O130	O	1.599687	0.496053	1.314350
H131	H	1.089132	-0.068768	0.799726
H132	H	1.589132	0.431232	1.299726
O133	O	1.141114	-0.317006	0.000027
O134	O	1.641114	0.182994	0.500027
H135	H	1.192995	-0.368637	0.000017
H136	H	1.692995	0.131363	0.500017
O137	O	1.137944	-0.497262	0.000037
O138	O	1.637944	0.002738	0.500037
H139	H	1.191398	-0.459450	0.000050
H140	H	1.691398	0.040550	0.500050
H141	H	0.962298	0.250898	0.569154
H142	H	1.462298	0.750898	1.069154
O143	O	0.864505	0.230968	0.185702
O144	O	1.364505	0.730968	0.685702
H145	H	0.899481	0.271383	0.150954
H146	H	1.399481	0.771383	0.650954
H147	H	0.879481	0.216044	0.334078
H148	H	1.379481	0.716044	0.834078
H149	H	0.385405	0.249551	0.000035
H150	H	0.885405	0.749551	0.500035
H151	H	1.084673	0.010975	0.195779
H152	H	1.584673	0.510975	0.695779
H153	H	1.001918	-0.023862	0.430904
H154	H	1.501918	0.476138	0.930904
H155	H	1.001927	-0.023857	0.569195
H156	H	1.501927	0.476143	1.069195
H157	H	0.962264	0.250896	0.430871
H158	H	1.462264	0.750896	0.930871
