data_functionalizedCrystal
_audit_creation_method	'MofGen! by Chris Wilmer'
_symmetry_space_group_name_H-M	'P1'
_symmetry_Int_Tables_number	1
_symmetry_cell_setting	triclinic
loop_
_symmetry_equiv_pos_as_xyz
  x,y,z
_cell_length_a	25.639242
_cell_length_b	19.805406
_cell_length_c	19.805399
_cell_angle_alpha	90.014352
_cell_angle_beta	90.027395
_cell_angle_gamma	89.995496
loop_
_atom_site_label
_atom_site_type_symbol
_atom_site_fract_x
_atom_site_fract_y
_atom_site_fract_z
Zn1	Zn	0.799393	-0.269560	0.382923
Zn2	Zn	1.049393	-0.019560	0.632923
Zn3	Zn	1.299393	0.230440	0.882923
Zn4	Zn	1.549393	0.480440	1.132923
Zn5	Zn	0.799367	-0.382748	0.269761
Zn6	Zn	1.049367	-0.132748	0.519761
Zn7	Zn	1.299367	0.117252	0.769761
Zn8	Zn	1.549367	0.367252	1.019761
Zn9	Zn	0.711961	-0.269569	0.269732
Zn10	Zn	0.961961	-0.019569	0.519732
Zn11	Zn	1.211961	0.230431	0.769732
Zn12	Zn	1.461961	0.480431	1.019732
Zn13	Zn	0.711973	-0.382703	0.382892
Zn14	Zn	0.961973	-0.132703	0.632892
Zn15	Zn	1.211973	0.117297	0.882892
Zn16	Zn	1.461973	0.367297	1.132892
O17	O	0.755674	-0.326145	0.326327
O18	O	1.005674	-0.076145	0.576327
O19	O	1.255674	0.173855	0.826327
O20	O	1.505674	0.423855	1.076327
O21	O	0.872555	-0.284589	0.367937
O22	O	1.122555	-0.034589	0.617937
O23	O	1.372555	0.215411	0.867937
O24	O	1.622555	0.465411	1.117937
O25	O	0.787757	-0.367757	0.175041
O26	O	1.037757	-0.117757	0.425041
O27	O	1.287757	0.132243	0.675041
O28	O	1.537757	0.382243	0.925041
O29	O	0.723565	-0.174851	0.284748
O30	O	0.973565	0.075149	0.534748
O31	O	1.223565	0.325149	0.784748
O32	O	1.473565	0.575149	1.034748
O33	O	0.872536	-0.367748	0.284797
O34	O	1.122536	-0.117748	0.534797
O35	O	1.372536	0.132252	0.784797
O36	O	1.622536	0.382252	1.034797
O37	O	0.787800	-0.174844	0.367909
O38	O	1.037800	0.075156	0.617909
O39	O	1.287800	0.325156	0.867909
O40	O	1.537800	0.575156	1.117909
O41	O	0.723540	-0.284606	0.175020
O42	O	0.973540	-0.034606	0.425020
O43	O	1.223540	0.215394	0.675020
O44	O	1.473540	0.465394	0.925020
O45	O	0.638798	-0.284562	0.284718
O46	O	0.888798	-0.034562	0.534718
O47	O	1.138798	0.215438	0.784718
O48	O	1.388798	0.465438	1.034718
O49	O	0.723585	-0.367671	0.477613
O50	O	0.973585	-0.117671	0.727613
O51	O	1.223585	0.132329	0.977613
O52	O	1.473585	0.382329	1.227613
O53	O	0.638806	-0.367681	0.367857
O54	O	0.888806	-0.117681	0.617857
O55	O	1.138806	0.132319	0.867857
O56	O	1.388806	0.382319	1.117857
O57	O	0.787812	-0.284545	0.477636
O58	O	1.037812	-0.034545	0.727636
O59	O	1.287812	0.215455	0.977636
O60	O	1.537812	0.465455	1.227636
O61	O	0.787769	-0.477458	0.284767
O62	O	1.037769	-0.227458	0.534767
O63	O	1.287769	0.022542	0.784767
O64	O	1.537769	0.272542	1.034767
O65	O	0.723561	-0.477426	0.367884
O66	O	0.973561	-0.227426	0.617884
O67	O	1.223561	0.022574	0.867884
O68	O	1.473561	0.272574	1.117884
C69	C	0.619831	-0.326118	0.326281
C70	C	0.869831	-0.076118	0.576281
C71	C	1.119831	0.173882	0.826281
C72	C	1.369831	0.423882	1.076281
C73	C	0.561717	-0.326123	0.326278
C74	C	0.811717	-0.076123	0.576278
C75	C	1.061717	0.173877	0.826278
C76	C	1.311717	0.423877	1.076278
C77	C	0.755684	-0.149602	0.326329
C78	C	1.005684	0.100398	0.576329
C79	C	1.255684	0.350398	0.826329
C80	C	1.505684	0.600398	1.076329
C81	C	0.755688	-0.074370	0.326330
C82	C	1.005688	0.175630	0.576330
C83	C	1.255688	0.425630	0.826330
C84	C	1.505688	0.675630	1.076330
C85	C	0.755678	-0.502001	0.326340
C86	C	1.005678	-0.252001	0.576340
C87	C	1.255678	-0.002001	0.826340
C88	C	1.505678	0.247999	1.076340
C89	C	0.755727	-0.577233	0.326369
C90	C	1.005727	-0.327233	0.576369
C91	C	1.255727	-0.077233	0.826369
C92	C	1.505727	0.172767	1.076369
C93	C	0.201368	-0.369497	0.369576
C94	C	0.451368	-0.119497	0.619576
C95	C	0.701368	0.130503	0.869576
C96	C	0.951368	0.380503	1.119576
C97	C	0.146763	-0.369501	0.369587
C98	C	0.396763	-0.119501	0.619587
C99	C	0.646763	0.130499	0.869587
C100	C	0.896763	0.380499	1.119587
O101	O	0.118538	-0.406346	0.406362
O102	O	0.368538	-0.156346	0.656362
O103	O	0.618538	0.093654	0.906362
O104	O	0.868538	0.343654	1.156362
N105	N	0.119435	-0.326164	0.326371
N106	N	0.369435	-0.076164	0.576371
N107	N	0.619435	0.173836	0.826371
N108	N	0.869435	0.423836	1.076371
C109	C	0.146713	-0.282814	0.283147
C110	C	0.396713	-0.032814	0.533147
C111	C	0.646713	0.217186	0.783147
C112	C	0.896713	0.467186	1.033147
O113	O	0.118454	-0.245952	0.246390
O114	O	0.368454	0.004048	0.496390
O115	O	0.618454	0.254048	0.746390
O116	O	0.868454	0.504048	0.996390
C117	C	0.201316	-0.282807	0.283140
C118	C	0.451316	-0.032807	0.533140
C119	C	0.701316	0.217193	0.783140
C120	C	0.951316	0.467193	1.033140
C121	C	0.228642	-0.326152	0.326354
C122	C	0.478642	-0.076152	0.576354
C123	C	0.728642	0.173848	0.826354
C124	C	0.978642	0.423848	1.076354
C125	C	0.228693	-0.412839	0.412787
C126	C	0.478693	-0.162839	0.662787
C127	C	0.728693	0.087161	0.912787
C128	C	0.978693	0.337161	1.162787
C129	C	0.283294	-0.412835	0.412775
C130	C	0.533294	-0.162835	0.662775
C131	C	0.783294	0.087165	0.912775
C132	C	1.033294	0.337165	1.162775
C133	C	0.310569	-0.369490	0.369553
C134	C	0.560569	-0.119490	0.619553
C135	C	0.810569	0.130510	0.869553
C136	C	1.060569	0.380510	1.119553
C137	C	0.283243	-0.326149	0.326342
C138	C	0.533243	-0.076149	0.576342
C139	C	0.783243	0.173851	0.826342
C140	C	1.033243	0.423851	1.076342
C141	C	0.228594	-0.239454	0.239920
C142	C	0.478594	0.010546	0.489920
C143	C	0.728594	0.260546	0.739920
C144	C	0.978594	0.510546	0.989920
C145	C	0.283201	-0.239451	0.239917
C146	C	0.533201	0.010549	0.489917
C147	C	0.783201	0.260549	0.739917
C148	C	1.033201	0.510549	0.989917
C149	C	0.310527	-0.282796	0.283131
C150	C	0.560527	-0.032796	0.533131
C151	C	0.810527	0.217204	0.783131
C152	C	1.060527	0.467204	1.033131
C153	C	0.365118	-0.282801	0.283108
C154	C	0.615118	-0.032801	0.533108
C155	C	0.865118	0.217199	0.783108
C156	C	1.115118	0.467199	1.033108
N157	N	0.392447	-0.326139	0.326324
N158	N	0.642447	-0.076139	0.576324
N159	N	0.892447	0.173861	0.826324
N160	N	1.142447	0.423861	1.076324
C161	C	0.365172	-0.369483	0.369546
C162	C	0.615172	-0.119483	0.619546
C163	C	0.865172	0.130517	0.869546
C164	C	1.115172	0.380517	1.119546
C165	C	0.032042	-0.282831	0.283166
C166	C	0.282042	-0.032831	0.533166
C167	C	0.532042	0.217169	0.783166
C168	C	0.782042	0.467169	1.033166
C169	C	-0.022560	-0.282841	0.283168
C170	C	0.227440	-0.032841	0.533168
C171	C	0.477440	0.217159	0.783168
C172	C	0.727440	0.467159	1.033168
C173	C	-0.022506	-0.369528	0.369609
C174	C	0.227494	-0.119528	0.619609
C175	C	0.477494	0.130472	0.869609
C176	C	0.727494	0.380472	1.119609
C177	C	0.032097	-0.369521	0.369602
C178	C	0.282097	-0.119521	0.619602
C179	C	0.532097	0.130479	0.869602
C180	C	0.782097	0.380479	1.119602
C181	C	0.059371	-0.326169	0.326381
C182	C	0.309371	-0.076169	0.576381
C183	C	0.559371	0.173831	0.826381
C184	C	0.809371	0.423831	1.076381
C185	C	0.479837	-0.369473	0.369518
C186	C	0.729837	-0.119473	0.619518
C187	C	0.979837	0.130527	0.869518
C188	C	1.229837	0.380527	1.119518
C189	C	0.534442	-0.369468	0.369500
C190	C	0.784442	-0.119468	0.619500
C191	C	1.034442	0.130532	0.869500
C192	C	1.284442	0.380532	1.119500
C193	C	0.534384	-0.282779	0.283062
C194	C	0.784384	-0.032779	0.533062
C195	C	1.034384	0.217221	0.783062
C196	C	1.284384	0.467221	1.033062
C197	C	0.479783	-0.282787	0.283077
C198	C	0.729783	-0.032787	0.533077
C199	C	0.979783	0.217213	0.783077
C200	C	1.229783	0.467213	1.033077
C201	C	0.452511	-0.326136	0.326310
C202	C	0.702511	-0.076136	0.576310
C203	C	0.952511	0.173864	0.826310
C204	C	1.202511	0.423864	1.076310
O205	O	0.393378	-0.245972	0.246354
O206	O	0.643378	0.004028	0.496354
O207	O	0.893378	0.254028	0.746354
O208	O	1.143378	0.504028	0.996354
O209	O	0.393438	-0.406333	0.406303
O210	O	0.643438	-0.156333	0.656303
O211	O	0.893438	0.093667	0.906303
O212	O	1.143438	0.343667	1.156303
C213	C	0.892047	-0.326172	0.326374
C214	C	1.142047	-0.076172	0.576374
C215	C	1.392047	0.173828	0.826374
C216	C	1.642047	0.423828	1.076374
C217	C	0.950161	-0.326184	0.326393
C218	C	1.200161	-0.076184	0.576393
C219	C	1.450161	0.173816	0.826393
C220	C	1.700161	0.423816	1.076393
C221	C	0.755703	-0.326102	0.502870
C222	C	1.005703	-0.076102	0.752870
C223	C	1.255703	0.173898	1.002870
C224	C	1.505703	0.423898	1.252870
C225	C	0.755715	-0.326084	0.578102
C226	C	1.005715	-0.076084	0.828102
C227	C	1.255715	0.173916	1.078102
C228	C	1.505715	0.423916	1.328102
C229	C	0.722248	-0.039029	0.283034
C230	C	0.972248	0.210971	0.533034
C231	C	1.222248	0.460971	0.783034
C232	C	1.472248	0.710971	1.033034
C233	C	0.722252	0.031660	0.283041
C234	C	0.972252	0.281660	0.533041
C235	C	1.222252	0.531660	0.783041
C236	C	1.472252	0.781660	1.033041
C237	C	0.755698	0.067005	0.326341
C238	C	1.005698	0.317005	0.576341
C239	C	1.255698	0.567005	0.826341
C240	C	1.505698	0.817005	1.076341
C241	C	0.789139	0.031659	0.369642
C242	C	1.039139	0.281659	0.619642
C243	C	1.289139	0.531659	0.869642
C244	C	1.539139	0.781659	1.119642
C245	C	0.789133	-0.039028	0.369637
C246	C	1.039133	0.210972	0.619637
C247	C	1.289133	0.460972	0.869637
C248	C	1.539133	0.710972	1.119637
C249	C	0.789165	0.316732	0.369662
C250	C	1.039165	0.566732	0.619662
C251	C	1.289165	0.816732	0.869662
C252	C	1.539165	1.066732	1.119662
C253	C	0.789170	0.387424	0.369661
C254	C	1.039170	0.637424	0.619661
C255	C	1.289170	0.887424	0.869661
C256	C	1.539170	1.137424	1.119661
C257	C	0.722284	0.387420	0.283066
C258	C	0.972284	0.637420	0.533066
C259	C	1.222284	0.887420	0.783066
C260	C	1.472284	1.137420	1.033066
C261	C	0.722277	0.316733	0.283061
C262	C	0.972277	0.566733	0.533061
C263	C	1.222277	0.816733	0.783061
C264	C	1.472277	1.066733	1.033061
C265	C	0.755717	0.281393	0.326364
C266	C	1.005717	0.531393	0.576364
C267	C	1.255717	0.781393	0.826364
C268	C	1.505717	1.031393	1.076364
C269	C	0.755712	0.204744	0.326356
C270	C	1.005712	0.454744	0.576356
C271	C	1.255712	0.704744	0.826356
C272	C	1.505712	0.954744	1.076356
C273	C	0.755706	0.143652	0.326346
C274	C	1.005706	0.393652	0.576346
C275	C	1.255706	0.643652	0.826346
C276	C	1.505706	0.893652	1.076346
C277	C	0.755675	-0.326139	0.150471
C278	C	1.005675	-0.076139	0.400471
C279	C	1.255675	0.173861	0.650471
C280	C	1.505675	0.423861	0.900471
C281	C	0.755763	-0.325966	0.075240
C282	C	1.005763	-0.075966	0.325240
C283	C	1.255763	0.174034	0.575240
C284	C	1.505763	0.424034	0.825240
C285	C	0.789159	-0.282798	0.613459
C286	C	1.039159	-0.032798	0.863459
C287	C	1.289159	0.217202	1.113459
C288	C	1.539159	0.467202	1.363459
C289	C	0.789164	-0.282779	0.684148
C290	C	1.039164	-0.032779	0.934148
C291	C	1.289164	0.217221	1.184148
C292	C	1.539164	0.467221	1.434148
C293	C	0.755728	-0.326049	0.719478
C294	C	1.005728	-0.076049	0.969478
C295	C	1.255728	0.173951	1.219478
C296	C	1.505728	0.423951	1.469478
C297	C	0.722281	-0.369337	0.684116
C298	C	0.972281	-0.119337	0.934116
C299	C	1.222281	0.130663	1.184116
C300	C	1.472281	0.380663	1.434116
C301	C	0.722274	-0.369352	0.613429
C302	C	0.972274	-0.119352	0.863429
C303	C	1.222274	0.130648	1.113429
C304	C	1.472274	0.380648	1.363429
C305	C	0.722311	-0.369274	0.969189
C306	C	0.972311	-0.119274	1.219189
C307	C	1.222311	0.130726	1.469189
C308	C	1.472311	0.380726	1.719189
C309	C	0.722322	-0.369256	1.039881
C310	C	0.972322	-0.119256	1.289881
C311	C	1.222322	0.130744	1.539881
C312	C	1.472322	0.380744	1.789881
C313	C	0.789202	-0.282700	1.039908
C314	C	1.039202	-0.032700	1.289908
C315	C	1.289202	0.217300	1.539908
C316	C	1.539202	0.467300	1.789908
C317	C	0.789194	-0.282716	0.969221
C318	C	1.039194	-0.032716	1.219221
C319	C	1.289194	0.217284	1.469221
C320	C	1.539194	0.467284	1.719221
C321	C	0.755745	-0.326000	0.933865
C322	C	1.005745	-0.076000	1.183865
C323	C	1.255745	0.174000	1.433865
C324	C	1.505745	0.424000	1.683865
C325	C	0.755739	-0.326020	0.857217
C326	C	1.005739	-0.076020	1.107217
C327	C	1.255739	0.173980	1.357217
C328	C	1.505739	0.423980	1.607217
C329	C	0.755737	-0.326033	0.796125
C330	C	1.005737	-0.076033	1.046125
C331	C	1.255737	0.173967	1.296125
C332	C	1.505737	0.423967	1.546125
H333	H	0.556689	-0.404768	0.404690
H334	H	0.806689	-0.154768	0.654690
H335	H	1.056689	0.095232	0.904690
H336	H	1.306689	0.345232	1.154690
H337	H	0.816388	-0.247565	0.584698
H338	H	1.066388	0.002435	0.834698
H339	H	1.316388	0.252435	1.084698
H340	H	1.566388	0.502435	1.334698
H341	H	0.556601	-0.247491	0.247869
H342	H	0.806601	0.002509	0.497869
H343	H	1.056601	0.252509	0.747869
H344	H	1.306601	0.502509	0.997869
H345	H	0.305538	-0.448130	0.447965
H346	H	0.555538	-0.198130	0.697965
H347	H	0.805538	0.051870	0.947965
H348	H	1.055538	0.301870	1.197965
F349	F	0.824800	-0.236629	1.077542
F350	F	1.074800	0.013371	1.327542
F351	F	1.324800	0.263371	1.577542
F352	F	1.574800	0.513371	1.827542
F353	F	0.686655	0.069270	0.236967
F354	F	0.936655	0.319270	0.486967
F355	F	1.186655	0.569270	0.736967
F356	F	1.436655	0.819270	0.986967
F357	F	0.686681	0.279119	0.236973
F358	F	0.936681	0.529119	0.486973
F359	F	1.186681	0.779119	0.736973
F360	F	1.436681	1.029119	0.986973
F361	F	-0.051636	-0.236715	0.237166
F362	F	0.198364	0.013285	0.487166
F363	F	0.448364	0.263285	0.737166
F364	F	0.698364	0.513285	0.987166
H365	H	0.695014	-0.067802	0.247771
H366	H	0.945014	0.182198	0.497771
H367	H	1.195014	0.432198	0.747771
H368	H	1.445014	0.682198	0.997771
F369	F	0.312224	-0.193307	0.193915
F370	F	0.562224	0.056693	0.443915
F371	F	0.812224	0.306693	0.693915
F372	F	1.062224	0.556693	0.943915
H373	H	0.816399	-0.247533	0.712932
H374	H	1.066399	0.002467	0.962932
H375	H	1.316399	0.252467	1.212932
H376	H	1.566399	0.502467	1.462932
F377	F	0.824783	-0.236664	0.931624
F378	F	1.074783	0.013336	1.181624
F379	F	1.324783	0.263336	1.431624
F380	F	1.574783	0.513336	1.681624
H381	H	0.695092	-0.404493	1.068645
H382	H	0.945092	-0.154493	1.318645
H383	H	1.195092	0.095507	1.568645
H384	H	1.445092	0.345507	1.818645
H385	H	0.816370	0.060441	0.404901
H386	H	1.066370	0.310441	0.654901
H387	H	1.316370	0.560441	0.904901
H388	H	1.566370	0.810441	1.154901
F389	F	0.199674	-0.458976	0.458795
F390	F	0.449674	-0.208976	0.708795
F391	F	0.699674	0.041024	0.958795
F392	F	0.949674	0.291024	1.208795
H393	H	0.695054	0.416202	0.247808
H394	H	0.945054	0.666202	0.497808
H395	H	1.195054	0.916202	0.747808
H396	H	1.445054	1.166202	0.997808
F397	F	0.686711	-0.415341	0.931570
F398	F	0.936711	-0.165341	1.181570
F399	F	1.186711	0.084659	1.431570
F400	F	1.436711	0.334659	1.681570
F401	F	0.824724	-0.076641	0.415719
F402	F	1.074724	0.173359	0.665719
F403	F	1.324724	0.423359	0.915719
F404	F	1.574724	0.673359	1.165719
F405	F	0.686694	-0.415386	0.721719
F406	F	0.936694	-0.165386	0.971719
F407	F	1.186694	0.084614	1.221719
F408	F	1.436694	0.334614	1.471719
F409	F	0.686677	-0.415421	0.575799
F410	F	0.936677	-0.165421	0.825799
F411	F	1.186677	0.084579	1.075799
F412	F	1.436677	0.334579	1.325799
H413	H	0.816399	0.287967	0.404914
H414	H	1.066399	0.537967	0.654914
H415	H	1.316399	0.787967	0.904914
H416	H	1.566399	1.037967	1.154914
F417	F	0.450820	-0.415611	0.415531
F418	F	0.700820	-0.165611	0.665531
F419	F	0.950820	0.084389	0.915531
F420	F	1.200820	0.334389	1.165531
F421	F	0.061175	-0.415654	0.415597
F422	F	0.311175	-0.165654	0.665597
F423	F	0.561175	0.084346	0.915597
F424	F	0.811175	0.334346	1.165597
H425	H	-0.044723	-0.404820	0.404805
H426	H	0.205277	-0.154820	0.654805
H427	H	0.455277	0.095180	0.904805
H428	H	0.705277	0.345180	1.154805
H429	H	0.054245	-0.247529	0.247965
H430	H	0.304245	0.002471	0.497965
H431	H	0.554245	0.252471	0.747965
H432	H	0.804245	0.502471	0.997965
H433	H	0.457533	-0.247493	0.247887
H434	H	0.707533	0.002507	0.497887
H435	H	0.957533	0.252507	0.747887
H436	H	1.207533	0.502507	0.997887
F437	F	0.824769	0.425040	0.415750
F438	F	1.074769	0.675040	0.665750
F439	F	1.324769	0.925040	0.915750
F440	F	1.574769	1.175040	1.165750
F441	F	0.199523	-0.193316	0.193929
F442	F	0.449523	0.056684	0.443929
F443	F	0.699523	0.306684	0.693929
F444	F	0.949523	0.556684	0.943929
