data_functionalizedCrystal
_audit_creation_method	'MofGen! by Chris Wilmer'
_symmetry_space_group_name_H-M	'P1'
_symmetry_Int_Tables_number	1
_symmetry_cell_setting	triclinic
loop_
_symmetry_equiv_pos_as_xyz
  x,y,z
_cell_length_a	11.026607
_cell_length_b	16.109301
_cell_length_c	9.483334
_cell_angle_alpha	80.660810
_cell_angle_beta	78.643382
_cell_angle_gamma	83.976251
loop_
_atom_site_label
_atom_site_type_symbol
_atom_site_fract_x
_atom_site_fract_y
_atom_site_fract_z
O1	O	1.591103	-0.358315	0.120914
O2	O	1.924436	-0.024982	0.454247
O3	O	2.257770	0.308351	0.787580
O4	O	1.237813	-0.318674	0.120913
O5	O	1.571146	0.014660	0.454246
O6	O	1.904479	0.347993	0.787580
O7	O	1.424165	-0.218917	0.120898
O8	O	1.757499	0.114417	0.454232
O9	O	2.090832	0.447750	0.787565
O10	O	1.404750	-0.458072	0.120928
O11	O	1.738084	-0.124739	0.454261
O12	O	2.071417	0.208594	0.787595
O13	O	1.461987	-0.198546	-0.120880
O14	O	1.795320	0.134788	0.212454
O15	O	2.128653	0.468121	0.545787
O16	O	1.275634	-0.298303	-0.120865
O17	O	1.608967	0.035031	0.212468
O18	O	1.942301	0.368364	0.545801
O19	O	1.628924	-0.337944	-0.120865
O20	O	1.962258	-0.004611	0.212469
O21	O	2.295591	0.328722	0.545802
Cu22	Cu	1.455733	-0.316264	-0.142941
Cu23	Cu	1.789066	0.017070	0.190392
Cu24	Cu	2.122399	0.350403	0.523725
Cu25	Cu	1.411004	-0.340355	0.142990
Cu26	Cu	1.744338	-0.007021	0.476323
Cu27	Cu	2.077671	0.326312	0.809656
O28	O	1.442572	-0.437701	-0.120850
O29	O	1.775905	-0.104368	0.212483
O30	O	2.109238	0.228965	0.545816
C31	C	1.211515	-0.301175	0.000023
C32	C	1.544849	0.032158	0.333357
C33	C	1.878182	0.365492	0.666690
C34	C	1.076810	-0.279374	0.000023
C35	C	1.410144	0.053959	0.333356
C36	C	1.743477	0.387293	0.666689
N37	N	1.487201	-0.299320	-0.344050
N38	N	1.820534	0.034013	-0.010716
N39	N	2.153867	0.367347	0.322617
C40	C	1.442290	-0.177638	0.000009
C41	C	1.775623	0.155695	0.333342
C42	C	2.108957	0.489028	0.666675
C43	C	1.439933	-0.084990	0.000007
C44	C	1.773266	0.248344	0.333340
C45	C	2.106600	0.581677	0.666673
C46	C	1.002979	-0.339571	0.000031
C47	C	1.336313	-0.006237	0.333364
C48	C	1.669646	0.327096	0.666698
C49	C	0.863754	-0.317040	0.000030
C50	C	1.197087	0.016294	0.333363
C51	C	1.530421	0.349627	0.666697
C52	C	1.655221	-0.355443	0.000028
C53	C	1.988554	-0.022110	0.333361
C54	C	2.321888	0.311223	0.666695
C55	C	1.789925	-0.377245	0.000038
C56	C	2.123258	-0.043912	0.333372
C57	C	2.456592	0.289422	0.666705
C58	C	1.424447	-0.478980	0.000043
C59	C	1.757780	-0.145647	0.333376
C60	C	2.091113	0.187687	0.666709
C61	C	1.426802	-0.571630	0.000054
C62	C	1.760135	-0.238296	0.333388
C63	C	2.093469	0.095037	0.666721
C64	C	1.545025	0.121532	0.000030
C65	C	1.878358	0.454865	0.333363
C66	C	2.211691	0.788199	0.666696
C67	C	1.542799	0.208585	0.000042
C68	C	1.876132	0.541918	0.333375
C69	C	2.209465	0.875251	0.666708
C70	C	1.321701	0.221843	0.000036
C71	C	1.655034	0.555176	0.333369
C72	C	1.988368	0.888509	0.666702
C73	C	1.323927	0.134791	0.000034
C74	C	1.657260	0.468124	0.333367
C75	C	1.990594	0.801457	0.666701
C76	C	1.435594	0.084638	0.000024
C77	C	1.768927	0.417971	0.333357
C78	C	2.102260	0.751305	0.666690
C79	C	1.431141	0.258743	0.000037
C80	C	1.764475	0.592076	0.333371
C81	C	2.097808	0.925409	0.666704
C82	C	1.428727	0.353129	0.000050
C83	C	1.762060	0.686463	0.333384
C84	C	2.095394	1.019796	0.666717
C85	C	1.438008	-0.009755	0.000014
C86	C	1.771342	0.323579	0.333347
C87	C	2.104675	0.656912	0.666680
C88	C	1.420272	-0.335355	-0.416274
C89	C	1.753605	-0.002021	-0.082941
C90	C	2.086938	0.331312	0.250393
C91	C	1.446485	-0.321253	-0.583682
C92	C	1.779818	0.012080	-0.250348
C93	C	2.113151	0.345414	0.082985
N94	N	1.379546	-0.357293	0.344098
N95	N	1.712879	-0.023960	0.677431
N96	N	2.046213	0.309374	1.010765
H97	H	1.042844	-0.407786	0.000031
H98	H	1.376177	-0.074453	0.333364
H99	H	1.709510	0.258880	0.666698
H100	H	1.234809	0.104751	0.000033
H101	H	1.568142	0.438085	0.333367
H102	H	1.901475	0.771418	0.666700
N103	N	0.810976	-0.226670	0.000001
N104	N	1.144310	0.106663	0.333335
N105	N	1.477643	0.439997	0.666668
H106	H	0.719001	-0.223383	-0.000002
H107	H	1.052335	0.109950	0.333332
H108	H	1.385668	0.443283	0.666665
H109	H	0.825347	-0.205641	0.089626
H110	H	1.158681	0.127692	0.422959
H111	H	1.492014	0.461025	0.756292
H112	H	1.302838	-0.398590	-0.593806
H113	H	1.636172	-0.065256	-0.260473
H114	H	1.969505	0.268077	0.072860
H115	H	1.230786	0.262688	0.000041
H116	H	1.564120	0.596021	0.333374
H117	H	1.897453	0.929354	0.666708
H118	H	0.829782	-0.445466	0.000037
H119	H	1.163115	-0.112132	0.333371
H120	H	1.496449	0.221201	0.666704
H121	H	1.343569	-0.376649	-0.354175
H122	H	1.676902	-0.043315	-0.020841
H123	H	2.010236	0.290018	0.312492
N124	N	1.660825	0.248383	0.000041
N125	N	1.994158	0.581717	0.333374
N126	N	2.327492	0.915050	0.666708
H127	H	1.695526	0.222778	0.089664
H128	H	2.028859	0.556111	0.422998
H129	H	2.362192	0.889444	0.756331
H130	H	1.723473	0.237886	-0.089650
H131	H	2.056806	0.571220	0.243684
H132	H	2.390139	0.904553	0.577017
H133	H	1.563912	-0.258033	-0.406151
H134	H	1.897245	0.075300	-0.072818
H135	H	2.230579	0.408633	0.260516
H136	H	1.523201	-0.279964	-0.645777
H137	H	1.856534	0.053370	-0.312444
H138	H	2.189868	0.386703	0.020889
H139	H	1.635950	0.080700	0.000025
H140	H	1.969284	0.414033	0.333358
H141	H	2.302617	0.747366	0.666691
N142	N	1.024027	-0.189009	-0.000006
N143	N	1.357360	0.144324	0.333327
N144	N	1.690693	0.477658	0.666660
H145	H	0.932052	-0.185722	-0.000009
H146	H	1.265385	0.147611	0.333324
H147	H	1.598718	0.480944	0.666658
H148	H	1.038398	-0.167980	0.089618
H149	H	1.371731	0.165353	0.422951
H150	H	1.705064	0.498686	0.756285
