data_functionalizedCrystal
_audit_creation_method	'MofGen! by Chris Wilmer'
_symmetry_space_group_name_H-M	'P1'
_symmetry_Int_Tables_number	1
_symmetry_cell_setting	triclinic
loop_
_symmetry_equiv_pos_as_xyz
  x,y,z
_cell_length_a	18.426585
_cell_length_b	12.970454
_cell_length_c	18.426585
_cell_angle_alpha	59.999357
_cell_angle_beta	90.001513
_cell_angle_gamma	60.001354
loop_
_atom_site_label
_atom_site_type_symbol
_atom_site_fract_x
_atom_site_fract_y
_atom_site_fract_z
Zr1	Zr	0.699106	1.128569	-0.095261
O2	O	0.583224	1.343660	-0.211140
O3	O	0.734630	0.913478	-0.059737
O4	O	0.734622	1.128578	-0.211143
O5	O	0.583238	1.128552	0.059697
O6	O	0.854048	1.128585	-0.211146
O7	O	0.583231	1.128560	-0.059734
O8	O	0.854062	0.743810	0.059691
O9	O	0.583224	1.513327	-0.211141
O10	O	0.838907	1.001953	-0.044590
O11	O	0.749785	1.001942	0.044542
O12	O	0.749776	1.255195	-0.133719
O13	O	0.660655	1.255184	-0.044586
Zr14	Zr	0.889586	1.128569	0.095213
Zr15	Zr	0.889576	1.128580	-0.095266
Zr16	Zr	0.699116	1.128557	0.095217
Zr17	Zr	0.699106	1.399169	-0.095262
Zr18	Zr	0.889586	0.857969	0.095214
O19	O	0.854062	1.343660	0.059689
O20	O	0.854048	1.343676	-0.211147
O21	O	0.583238	1.343643	0.059696
O22	O	1.005469	0.913478	0.211092
O23	O	1.005455	0.913494	-0.059744
O24	O	0.734644	0.913462	0.211099
O25	O	1.005455	1.128585	-0.059745
O26	O	0.854070	1.128560	0.211095
O27	O	0.734644	1.128552	0.211098
O28	O	1.005461	1.128578	0.059686
O29	O	0.734622	1.513336	-0.211145
O30	O	0.854070	0.743801	0.211096
O31	O	1.005469	0.743810	0.211092
O32	O	1.005461	0.743820	0.059687
O33	O	0.583231	1.513318	-0.059736
O34	O	0.734630	1.513327	-0.059740
O35	O	0.838916	1.001942	0.133670
O36	O	0.928038	1.001953	0.044538
O37	O	0.838907	1.255195	-0.044591
O38	O	0.749785	1.255184	0.044541
C39	C	0.794346	0.790089	-0.000023
C40	C	0.794346	0.675213	-0.000023
C41	C	0.556097	1.128554	-0.000018
C42	C	0.475237	1.128550	-0.000016
C43	C	0.179122	1.128593	-0.000032
C44	C	0.261508	1.128587	-0.000030
C45	C	0.327177	1.128572	-0.000025
C46	C	0.409568	1.128565	-0.000021
C47	C	1.032596	1.128583	-0.000030
C48	C	1.113455	1.128588	-0.000032
C49	C	0.794334	1.128583	-0.238284
C50	C	0.794330	1.128588	-0.319147
C51	C	0.794346	1.467048	-0.000025
C52	C	0.794346	1.581925	-0.000026
C53	C	0.794363	1.128544	-0.615231
C54	C	0.794356	1.128550	-0.532849
C55	C	0.794346	1.128566	-0.467192
C56	C	0.794340	1.128572	-0.384805
C57	C	0.794358	1.128554	0.238235
C58	C	0.794363	1.128550	0.319099
C59	C	1.032596	0.790104	-0.000029
C60	C	1.113455	0.675232	-0.000031
C61	C	0.794358	0.790075	0.238237
C62	C	0.794363	0.675194	0.319100
C63	C	1.032608	0.790089	0.238231
C64	C	1.113472	0.675213	0.319092
C65	C	0.556084	1.467048	-0.238279
C66	C	0.475220	1.581925	-0.319141
C67	C	0.556097	1.467034	-0.000019
C68	C	0.475237	1.581906	-0.000018
C69	C	0.794334	1.467062	-0.238285
C70	C	0.794330	1.581944	-0.319149
C71	C	1.104903	0.621287	-0.046563
C72	C	1.180872	0.513367	-0.046583
C73	C	1.265392	0.459388	-0.000064
C74	C	1.273944	0.513343	0.046470
C75	C	1.197975	0.621268	0.046484
C76	C	0.840890	0.621244	0.403606
C77	C	0.840890	0.513316	0.479593
C78	C	0.794368	0.459331	0.471073
C79	C	0.747835	0.513292	0.386558
C80	C	0.747830	0.621225	0.310572
C81	C	1.197975	0.621271	0.310539
C82	C	1.273962	0.513347	0.386510
C83	C	1.265445	0.459360	0.471033
C84	C	1.180933	0.513312	0.479584
C85	C	1.104947	0.621241	0.403614
C86	C	0.390717	1.635880	-0.310588
C87	C	0.314730	1.743837	-0.386559
C88	C	0.323247	1.797830	-0.471081
C89	C	0.407759	1.743871	-0.479632
C90	C	0.483745	1.635923	-0.403662
C91	C	0.483790	1.635862	0.046507
C92	C	0.407821	1.743811	0.046505
C93	C	0.323300	1.797795	-0.000016
C94	C	0.314749	1.743834	-0.046547
C95	C	0.390717	1.635894	-0.046550
C96	C	0.840861	1.635894	-0.310599
C97	C	0.840874	1.743823	-0.386572
C98	C	0.794351	1.797808	-0.471093
C99	C	0.747818	1.743847	-0.479641
C100	C	0.747810	1.635912	-0.403669
H101	H	1.173892	0.469450	-0.084476
H102	H	0.878746	1.591956	-0.241785
H103	H	0.878786	0.469394	0.548402
H104	H	1.327325	0.371476	0.532885
H105	H	0.552604	1.591917	0.084396
H106	H	1.342769	0.469430	0.379532
H107	H	1.174011	0.469339	0.548412
O108	O	0.794350	0.354615	0.544954
C109	C	0.757326	0.288589	0.679501
C110	C	0.757305	0.407297	0.595875
H111	H	0.727361	0.331149	0.720684
H112	H	0.828457	0.187528	0.720809
H113	H	0.716118	0.259235	0.658881
H114	H	0.798471	0.436775	0.616416
H115	H	0.686150	0.508282	0.554587
O116	O	0.886083	1.796124	-0.378099
C117	C	0.978401	1.784655	-0.277752
C118	C	0.927225	1.725321	-0.287223
H119	H	1.011693	1.727415	-0.204284
H120	H	0.930238	1.906940	-0.310943
H121	H	1.031213	1.763467	-0.311029
H122	H	0.874413	1.746405	-0.253941
H123	H	0.975443	1.603054	-0.254056
O124	O	0.794520	1.902523	-0.544824
C125	C	0.882588	1.968547	-0.628330
C126	C	0.882524	1.849840	-0.544788
H127	H	0.953730	1.925987	-0.628338
H128	H	0.852760	2.069609	-0.628338
H129	H	0.841304	1.997899	-0.690199
H130	H	0.923816	1.820364	-0.482875
H131	H	0.912318	1.748855	-0.544858
H132	H	0.261449	1.885686	-0.000007
H133	H	0.709940	1.787818	-0.548468
H134	H	1.036144	0.665147	0.410590
H135	H	0.383765	1.591924	-0.241772
H136	H	0.709958	0.469322	0.379633
O137	O	0.702626	0.673408	0.228551
C138	C	0.610301	0.662004	0.144314
C139	C	0.661477	0.602763	0.237253
H140	H	0.577003	0.604935	0.151318
H141	H	0.658464	0.640715	0.106405
H142	H	0.557494	0.784312	0.106408
H143	H	0.714284	0.480447	0.275233
H144	H	0.613258	0.624164	0.275094
O145	O	1.206420	0.673484	0.228507
C146	C	1.306734	0.661802	0.144233
C147	C	1.297288	0.602641	0.237184
H148	H	1.380196	0.604530	0.151217
H149	H	1.273549	0.784099	0.106231
H150	H	1.273439	0.640508	0.106433
H151	H	1.330588	0.623831	0.275058
H152	H	1.330449	0.480362	0.275119
O153	O	1.339212	0.354721	-0.000174
C154	C	1.473790	0.288604	-0.037139
C155	C	1.390222	0.407284	-0.037087
H156	H	1.515064	0.331047	-0.066963
H157	H	1.453202	0.259329	-0.078423
H158	H	1.515002	0.187521	0.034000
H159	H	1.348972	0.508443	-0.108193
H160	H	1.410870	0.436436	0.004247
H161	H	0.709915	1.591998	-0.410642
O162	O	0.232709	1.796025	-0.378082
C163	C	0.148475	1.784608	-0.277731
C164	C	0.241412	1.725360	-0.287206
H165	H	0.155479	1.727523	-0.204262
H166	H	0.110555	1.763347	-0.310923
H167	H	0.110581	1.906912	-0.311005
H168	H	0.279379	1.603049	-0.253927
H169	H	0.279264	1.746734	-0.254038
O170	O	0.249339	1.902639	-0.544783
C171	C	0.089251	2.057563	-0.602712
C172	C	0.172880	1.938851	-0.519178
H173	H	0.027413	2.086899	-0.582041
H174	H	0.089158	2.015157	-0.643972
H175	H	0.089274	2.158601	-0.643974
H176	H	0.172912	1.837774	-0.477848
H177	H	0.172941	1.981376	-0.477984
H178	H	0.414684	1.787846	-0.548459
H179	H	0.552549	1.591994	-0.410637
H180	H	0.245922	1.787804	-0.084423
O181	O	1.022851	0.673463	-0.091693
C182	C	0.920055	0.617670	-0.108670
C183	C	1.013008	0.558384	-0.057496
H184	H	0.912060	0.524664	-0.081029
H185	H	0.912028	0.668154	-0.182130
H186	H	0.867235	0.704120	-0.100697
H187	H	1.065884	0.471884	-0.065397
H188	H	1.020960	0.507992	0.015944
H189	H	0.414801	1.787728	0.084399
H190	H	0.383741	1.591966	-0.084433
H191	H	1.342771	0.469377	0.084344
H192	H	0.878774	0.665186	0.410561
H193	H	1.204952	0.665176	0.084381
