data_functionalizedCrystal
_audit_creation_method	'MofGen! by Chris Wilmer'
_symmetry_space_group_name_H-M	'P1'
_symmetry_Int_Tables_number	1
_symmetry_cell_setting	triclinic
loop_
_symmetry_equiv_pos_as_xyz
  x,y,z
_cell_length_a	19.902436
_cell_length_b	20.875650
_cell_length_c	20.875641
_cell_angle_alpha	60.100828
_cell_angle_beta	89.997815
_cell_angle_gamma	62.451083
loop_
_atom_site_label
_atom_site_type_symbol
_atom_site_fract_x
_atom_site_fract_y
_atom_site_fract_z
Zr1	Zr	0.678205	0.694223	-0.105634
O2	O	0.579781	0.820418	-0.208848
O3	O	0.704667	0.563008	-0.070745
O4	O	0.714597	0.686997	-0.204181
O5	O	0.566238	0.703879	0.026149
O6	O	0.825164	0.687009	-0.204193
O7	O	0.569850	0.696428	-0.075413
O8	O	0.807401	0.465214	0.034498
O9	O	0.584002	0.925674	-0.212542
O10	O	0.802951	0.618847	-0.059799
O11	O	0.717740	0.624399	0.016005
O12	O	0.729432	0.770380	-0.141098
O13	O	0.644221	0.775932	-0.065294
Zr14	Zr	0.848785	0.706125	0.056326
Zr15	Zr	0.854546	0.694242	-0.105653
Zr16	Zr	0.672444	0.706107	0.056346
Zr17	Zr	0.684937	0.862095	-0.111526
Zr18	Zr	0.842053	0.538254	0.062218
O19	O	0.822324	0.837341	0.021438
O20	O	0.830515	0.820444	-0.208876
O21	O	0.571589	0.837315	0.021466
O22	O	0.947210	0.579930	0.159541
O23	O	0.955402	0.563034	-0.070773
O24	O	0.696476	0.579904	0.159569
O25	O	0.960753	0.696469	-0.075457
O26	O	0.812393	0.713351	0.154873
O27	O	0.701827	0.713340	0.154885
O28	O	0.957140	0.703920	0.026105
O29	O	0.724169	0.925689	-0.212558
O30	O	0.802821	0.474660	0.163250
O31	O	0.942989	0.474674	0.163235
O32	O	0.947568	0.465229	0.034483
O33	O	0.579422	0.935120	-0.083790
O34	O	0.719590	0.935134	-0.083806
O35	O	0.797559	0.629968	0.091790
O36	O	0.882769	0.624416	0.015987
O37	O	0.809251	0.775950	-0.065313
O38	O	0.724040	0.781502	0.010491
C39	C	0.755075	0.490193	-0.017284
C40	C	0.752217	0.418927	-0.014783
C41	C	0.731618	0.017822	0.003845
C42	C	0.734264	0.084825	0.001447
C43	C	0.780062	0.115430	-0.039326
C44	C	0.823223	0.079022	-0.077697
C45	C	0.820581	0.012016	-0.075294
C46	C	0.792736	0.315513	-0.050751
C47	C	0.795373	0.382526	-0.053153
C48	C	0.706415	0.388323	0.025993
C49	C	0.703773	0.321320	0.028388
C50	C	0.746937	0.284915	-0.009980
N51	N	0.782765	0.183919	-0.041780
N52	N	0.744238	0.216422	-0.007521
C53	C	0.542920	0.700151	-0.024629
C54	C	0.468058	0.700143	-0.024621
C55	C	0.196013	0.700185	-0.024665
C56	C	0.270888	0.604578	0.026393
C57	C	0.348779	0.604535	0.026663
C58	C	0.330978	0.700164	-0.024643
C59	C	0.277592	0.751936	0.008500
C60	C	0.199992	0.751328	0.008870
C61	C	0.203120	0.744727	-0.108910
C62	C	0.281919	0.742875	-0.108714
C63	C	0.407252	0.700157	-0.024631
C64	C	0.119737	0.700194	-0.024674
C65	C	0.984071	0.700197	-0.024679
C66	C	1.058933	0.700205	-0.024687
C67	C	0.770702	0.685310	-0.227265
C68	C	0.773147	0.680265	-0.296030
C69	C	0.771916	0.910156	-0.032024
C70	C	0.774774	0.981421	-0.034525
C71	C	0.735922	0.756992	-0.370773
C72	C	0.738230	0.752246	-0.435382
C73	C	0.777760	0.670773	-0.425246
C74	C	0.814990	0.594041	-0.350495
C75	C	0.812686	0.598787	-0.285888
C76	C	0.788770	0.648097	-0.613920
C77	C	0.791069	0.643356	-0.678535
C78	C	0.714310	0.801563	-0.763417
C79	C	0.712005	0.806302	-0.698805
C80	C	0.749239	0.729569	-0.624060
N81	N	0.780118	0.665921	-0.491285
N82	N	0.746885	0.734422	-0.558022
C83	C	0.756289	0.715038	0.177958
C84	C	0.753843	0.720083	0.246722
C85	C	0.975651	0.490216	-0.017309
C86	C	1.047654	0.418958	-0.014816
C87	C	0.747869	0.505057	0.185328
C88	C	0.742565	0.438836	0.256593
C89	C	0.968444	0.505080	0.185303
C90	C	1.038002	0.438867	0.256560
C91	C	0.558546	0.895268	-0.234611
C92	C	0.488989	0.961481	-0.305868
C93	C	0.551340	0.910133	-0.031999
C94	C	0.479337	0.981390	-0.034492
C95	C	0.779122	0.895291	-0.234635
C96	C	0.784426	0.961512	-0.305901
C97	C	1.039803	0.382587	-0.053211
C98	C	1.107452	0.315640	-0.050884
C99	C	1.182951	0.285062	-0.010157
C100	C	1.190801	0.321440	0.028239
C101	C	1.123153	0.388389	0.025907
C102	C	0.781739	0.410646	0.329626
C103	C	0.776752	0.348434	0.396594
C104	C	0.732597	0.314409	0.390527
C105	C	0.693418	0.342606	0.317486
C106	C	0.698400	0.404821	0.250520
C107	C	1.115154	0.404874	0.250455
C108	C	1.180518	0.342669	0.317402
C109	C	1.168729	0.314453	0.390454
C110	C	1.091569	0.348452	0.396558
C111	C	1.026207	0.410660	0.329611
C112	C	0.411838	0.995482	-0.299763
C113	C	0.346474	1.057708	-0.366711
C114	C	0.358263	1.085928	-0.439763
C115	C	0.435422	1.051925	-0.445867
C116	C	0.500784	0.989704	-0.378920
C117	C	0.487188	1.017768	0.003896
C118	C	0.419540	1.084731	0.001551
C119	C	0.344042	1.115312	-0.039179
C120	C	0.336192	1.078931	-0.077572
C121	C	0.403839	1.011973	-0.075230
C122	C	0.828588	0.995517	-0.299809
C123	C	0.833587	1.057731	-0.366764
C124	C	0.794418	1.085942	-0.439811
C125	C	0.750254	1.051930	-0.445901
C126	C	0.745261	0.989713	-0.378947
H127	H	0.671273	0.417971	0.057231
Br128	Br	1.131175	0.443159	0.151321
Br129	Br	0.801203	1.170382	-0.530671
Br130	Br	0.863222	0.494653	-0.184448
Br131	Br	0.633495	0.296420	0.309266
H132	H	0.718365	1.074909	-0.505385
H133	H	0.709295	0.962033	-0.383918
H134	H	1.243339	0.314993	0.312419
H135	H	1.081982	0.325469	0.456046
Br136	Br	1.274752	0.194200	-0.007000
H137	H	0.817695	0.438342	0.334581
Br138	Br	0.829930	0.310179	0.495710
Br139	Br	0.430212	1.134089	0.053662
H140	H	0.819089	0.585616	-0.553068
Br141	Br	0.921503	0.456782	0.337912
H142	H	1.129556	0.417995	0.057178
H143	H	0.703727	0.823336	-0.379035
H144	H	0.707918	0.814726	-0.496239
H145	H	0.679819	0.872646	-0.707067
H146	H	0.683997	0.864034	-0.824279
H147	H	0.728546	0.263750	0.445061
H148	H	0.402223	0.972509	-0.240286
H149	H	0.666502	0.427765	0.191056
H150	H	0.823258	0.577008	-0.670273
H151	H	1.221958	0.263798	0.444961
H152	H	0.699126	0.114456	0.032698
Br153	Br	0.334166	0.702324	0.110688
Br154	Br	0.241768	1.103841	-0.358409
H155	H	0.694320	-0.007086	0.037043
Br156	Br	0.269548	1.170372	-0.530614
Br157	Br	0.393169	0.962608	-0.127330
H158	H	0.261923	0.822408	-0.027044
Br159	Br	0.605488	0.943563	-0.387219
Br160	Br	0.641614	0.279792	0.083723
Br161	Br	0.589642	0.976284	0.059175
Br162	Br	0.451409	1.090231	-0.545016
H163	H	0.288965	1.169834	-0.041079
Br164	Br	0.233723	1.120441	-0.132842
H165	H	0.860485	0.972558	-0.240337
Br166	Br	0.851293	0.266138	-0.102847
Br167	Br	0.857531	0.424061	-0.108492
Br168	Br	0.885382	0.120552	-0.133029
H169	H	0.855724	-0.017623	-0.106538
Br170	Br	0.413251	0.537316	-0.010057
Br171	Br	0.893523	1.103880	-0.358481
Br172	Br	0.272502	0.536892	-0.010111
Br173	Br	0.868642	0.483468	-0.336738
H174	H	0.384147	0.570033	0.088872
Br175	Br	0.265969	0.547460	0.129445
Br176	Br	0.194376	0.700459	0.112063
H177	H	1.101046	0.286029	-0.082151
Br178	Br	0.197748	0.688306	-0.155605
Br179	Br	0.343269	0.679876	-0.150034
Br180	Br	0.258145	0.858731	-0.177005
Br181	Br	0.111707	0.868543	-0.049414
Br182	Br	0.115493	0.862049	-0.172543
H183	H	1.252281	0.296533	0.061398
Br184	Br	0.937349	0.424073	-0.108492
