data_functionalizedCrystal
_audit_creation_method	'MofGen! by Chris Wilmer'
_symmetry_space_group_name_H-M	'P1'
_symmetry_Int_Tables_number	1
_symmetry_cell_setting	triclinic
loop_
_symmetry_equiv_pos_as_xyz
  x,y,z
_cell_length_a	10.654556
_cell_length_b	13.596369
_cell_length_c	10.654551
_cell_angle_alpha	90.003147
_cell_angle_beta	84.486385
_cell_angle_gamma	90.005723
loop_
_atom_site_label
_atom_site_type_symbol
_atom_site_fract_x
_atom_site_fract_y
_atom_site_fract_z
O1	O	1.667839	0.081795	0.176437
O2	O	1.302361	0.081794	0.193235
O3	O	1.493502	0.081795	0.002097
O4	O	1.476698	0.081794	0.367575
O5	O	1.493483	-0.081788	0.002087
O6	O	1.302342	-0.081789	0.193225
O7	O	1.667819	-0.081788	0.176427
Zn8	Zn	1.485078	-0.107761	0.184824
Zn9	Zn	1.485103	0.107767	0.184838
O10	O	1.476678	-0.081789	0.367565
C11	C	1.255554	0.000002	0.191995
C12	C	1.116111	0.000002	0.188300
N13	N	1.485069	-0.254853	0.184814
C14	C	0.919591	0.089179	0.183106
C15	C	1.050614	0.089175	0.186571
C16	C	1.050581	-0.089172	0.186552
C17	C	0.919562	-0.089167	0.183079
C18	C	0.919611	0.192147	0.183122
C19	C	1.050633	0.192142	0.186587
C20	C	1.485101	-0.656144	0.184839
C21	C	1.485089	-0.544492	0.184837
C22	C	1.485086	-0.455502	0.184828
C23	C	1.485072	-0.343843	0.184823
C24	C	1.714627	0.000005	0.177667
C25	C	1.854070	0.000012	0.181362
C26	C	1.492259	0.000005	-0.044706
C27	C	1.488566	0.000012	-0.184149
N28	N	1.485121	0.254858	0.184838
C29	C	1.486844	0.089179	-0.249655
C30	C	1.483364	0.089175	-0.380676
C31	C	1.483333	-0.089172	-0.380673
C32	C	1.486804	-0.089167	-0.249653
C33	C	1.486868	0.192147	-0.249659
C34	C	1.483388	0.192142	-0.380679
C35	C	1.477922	0.000002	0.414368
C36	C	1.481615	0.000002	0.553811
H37	H	0.866223	-0.161775	0.181633
H38	H	0.894791	0.231686	0.094451
C39	C	1.610607	0.235310	-0.209692
C40	C	1.607326	0.326584	-0.123859
C41	C	1.731066	0.369744	-0.083889
C42	C	1.858088	0.321630	-0.129752
C43	C	1.861375	0.230350	-0.215590
C44	C	1.737634	0.187190	-0.255560
H45	H	1.513292	0.362207	-0.089904
H46	H	1.728633	0.437316	-0.020346
H47	H	1.949688	0.353579	-0.100164
H48	H	1.955408	0.194728	-0.249545
H49	H	1.740068	0.119618	-0.319104
H50	H	1.570183	0.231677	-0.426966
C51	C	1.122628	-0.187263	0.188451
C52	C	1.199387	-0.211790	0.299700
C53	C	1.271433	-0.309882	0.301603
C54	C	1.266720	-0.383448	0.192256
C55	C	1.189958	-0.358923	0.080999
C56	C	1.117912	-0.260830	0.079097
H57	H	1.202879	-0.157331	0.380653
H58	H	1.328257	-0.328037	0.383963
H59	H	1.320052	-0.456062	0.193664
H60	H	1.186466	-0.413382	0.000047
H61	H	1.061088	-0.242675	-0.003264
C62	C	0.849752	0.235305	0.303953
C63	C	0.924879	0.272280	0.411071
C64	C	0.855018	0.315432	0.531905
C65	C	0.710031	0.321609	0.545621
C66	C	0.634896	0.284633	0.438500
C67	C	0.704756	0.241481	0.317666
H68	H	1.032215	0.267708	0.400920
H69	H	0.910639	0.342804	0.611203
H70	H	0.658316	0.353552	0.635070
H71	H	0.527560	0.289204	0.448651
H72	H	0.649135	0.214109	0.238368
H73	H	1.488199	-0.161775	-0.196322
H74	H	1.391795	0.224101	-0.410247
H75	H	1.102343	0.224094	0.097142
C76	C	1.084222	0.245525	0.306389
C77	C	1.046636	0.353961	0.328478
C78	C	1.080235	0.407335	0.448276
C79	C	1.151419	0.352273	0.545984
C80	C	1.189008	0.243831	0.523898
C81	C	1.155410	0.190457	0.404100
H82	H	0.993938	0.394727	0.256146
H83	H	1.052409	0.487612	0.464625
H84	H	1.176291	0.391783	0.634666
H85	H	1.241707	0.203065	0.596231
H86	H	1.183236	0.110181	0.387751
C87	C	1.481394	-0.187263	-0.452735
C88	C	1.372989	-0.260819	-0.421405
C89	C	1.371048	-0.358912	-0.493466
C90	C	1.477512	-0.383448	-0.596856
C91	C	1.585925	-0.309890	-0.628191
C92	C	1.587866	-0.211797	-0.556131
H93	H	1.294170	-0.242658	-0.344864
H94	H	1.290793	-0.413364	-0.470269
H95	H	1.476075	-0.456062	-0.650200
H96	H	1.664744	-0.328051	-0.704732
H97	H	1.668122	-0.157345	-0.579327
C98	C	1.369629	0.245552	-0.187122
C99	C	1.271600	0.288596	-0.269082
C100	C	1.154363	0.341997	-0.206545
C101	C	1.135155	0.352355	-0.062048
C102	C	1.233186	0.309311	0.019921
C103	C	1.350423	0.255909	-0.042616
H104	H	1.285817	0.280929	-0.376056
H105	H	1.081794	0.373862	-0.267225
H106	H	1.048369	0.391887	-0.015754
H107	H	1.218969	0.316977	0.126895
H108	H	1.422992	0.224044	0.018064
