data_functionalizedCrystal
_audit_creation_method	'MofGen! by Chris Wilmer'
_symmetry_space_group_name_H-M	'P1'
_symmetry_Int_Tables_number	1
_symmetry_cell_setting	triclinic
loop_
_symmetry_equiv_pos_as_xyz
  x,y,z
_cell_length_a	19.077236
_cell_length_b	12.759394
_cell_length_c	19.076929
_cell_angle_alpha	92.272992
_cell_angle_beta	89.889628
_cell_angle_gamma	92.306804
loop_
_atom_site_label
_atom_site_type_symbol
_atom_site_fract_x
_atom_site_fract_y
_atom_site_fract_z
Zn1	Zn	1.058321	-0.381344	-0.440560
Zn2	Zn	1.558321	0.118656	0.059440
Zn3	Zn	1.062986	-0.549721	-0.323062
Zn4	Zn	1.562986	-0.049721	0.176938
Zn5	Zn	0.945541	-0.380802	-0.318340
Zn6	Zn	1.445541	0.119198	0.181660
Zn7	Zn	0.940803	-0.563729	-0.435800
Zn8	Zn	1.440803	-0.063729	0.064200
O9	O	1.001913	-0.468899	-0.379440
O10	O	1.501913	0.031101	0.120560
O11	O	1.157273	-0.398044	-0.428941
O12	O	1.657273	0.101956	0.071059
O13	O	1.051342	-0.521224	-0.224105
O14	O	1.551342	-0.021224	0.275895
O15	O	0.960532	-0.233852	-0.334569
O16	O	1.460532	0.266148	0.165431
O17	O	1.160700	-0.521750	-0.342616
O18	O	1.660700	-0.021750	0.157384
O19	O	1.043391	-0.234250	-0.424363
O20	O	1.543391	0.265750	0.075637
O21	O	0.965056	-0.397120	-0.220636
O22	O	1.465056	0.102880	0.279364
O23	O	0.846580	-0.410703	-0.329954
O24	O	1.346580	0.089297	0.170046
O25	O	0.952456	-0.545625	-0.534763
O26	O	1.452456	-0.045625	-0.034763
O27	O	0.843098	-0.545099	-0.416251
O28	O	1.343098	-0.045099	0.083749
O29	O	1.038797	-0.411627	-0.538259
O30	O	1.538797	0.088373	-0.038259
O31	O	1.046747	-0.698601	-0.338001
O32	O	1.546747	-0.198601	0.161999
O33	O	0.956980	-0.708893	-0.420830
O34	O	1.456980	-0.208893	0.079170
C35	C	0.819342	-0.479363	-0.372074
C36	C	1.319342	0.020637	0.127926
C37	C	0.741237	-0.483866	-0.368939
C38	C	1.241237	0.016134	0.131061
C39	C	0.702757	-0.421686	-0.412480
C40	C	1.202757	0.078314	0.087520
C41	C	0.629369	-0.425911	-0.409528
C42	C	1.129369	0.074089	0.090472
C43	C	0.594463	-0.492324	-0.363039
C44	C	1.094463	0.007676	0.136961
C45	C	0.632949	-0.554507	-0.319494
C46	C	1.132949	-0.054507	0.180506
C47	C	0.706335	-0.550275	-0.322442
C48	C	1.206335	-0.050275	0.177558
C49	C	0.375173	-0.511870	-0.349391
C50	C	0.875173	-0.011870	0.150609
C51	C	0.301781	-0.516099	-0.346447
C52	C	0.801781	-0.016099	0.153553
C53	C	0.298206	-0.387502	-0.436481
C54	C	0.798206	0.112498	0.063519
C55	C	0.371594	-0.383281	-0.439429
C56	C	0.871594	0.116719	0.060571
C57	C	0.410074	-0.445459	-0.395881
C58	C	0.910074	0.054541	0.104119
N59	N	0.519449	-0.496647	-0.360023
N60	N	1.019449	0.003353	0.139977
N61	N	0.485086	-0.441130	-0.398894
N62	N	0.985086	0.058870	0.101106
C63	C	1.001874	-0.741868	-0.379427
C64	C	1.501874	-0.241868	0.120573
C65	C	1.001921	-0.858643	-0.379448
C66	C	1.501921	-0.358643	0.120552
C67	C	1.088132	-0.858908	-0.473015
C68	C	1.588132	-0.358908	0.026985
C69	C	1.131259	-0.913900	-0.519805
C70	C	1.631259	-0.413900	-0.019805
C71	C	1.131300	-1.023620	-0.519822
C72	C	1.631300	-0.523620	-0.019822
C73	C	1.088208	-1.078351	-0.473045
C74	C	1.588208	-0.578351	0.026955
C75	C	1.045081	-1.023359	-0.426255
C76	C	1.545081	-0.523359	0.073745
C77	C	1.045046	-0.913636	-0.426242
C78	C	1.545046	-0.413636	0.073758
C79	C	0.958867	-1.023095	-0.332692
C80	C	1.458867	-0.523095	0.167308
C81	C	0.958829	-0.913374	-0.332671
C82	C	1.458829	-0.413374	0.167329
C83	C	0.915775	-1.077825	-0.285916
C84	C	1.415775	-0.577825	0.214084
C85	C	0.872650	-1.022833	-0.239121
C86	C	1.372650	-0.522833	0.260879
C87	C	0.872611	-0.913106	-0.239106
C88	C	1.372611	-0.413106	0.260894
C89	C	0.915701	-0.858382	-0.285881
C90	C	1.415701	-0.358382	0.214119
C91	C	1.185196	-0.458395	-0.386836
C92	C	1.685196	0.041605	0.113164
C93	C	1.263300	-0.453919	-0.389988
C94	C	1.763300	0.046081	0.110012
C95	C	0.994578	-0.480249	-0.562720
C96	C	1.494578	0.019751	-0.062720
C97	C	0.991452	-0.485086	-0.640823
C98	C	1.491452	0.014914	-0.140823
C99	C	1.001970	-0.194864	-0.379470
C100	C	1.501970	0.305136	0.120530
C101	C	1.001994	-0.078087	-0.379482
C102	C	1.501994	0.421913	0.120518
C103	C	0.969037	-0.519859	-1.080263
C104	C	1.469037	-0.019859	-0.580263
C105	C	0.971971	-0.515299	-1.006877
C106	C	1.471971	-0.015299	-0.506877
C107	C	1.018395	-0.443260	-0.972008
C108	C	1.518395	0.056740	-0.472008
C109	C	1.061881	-0.375768	-1.010529
C110	C	1.561881	0.124232	-0.510529
C111	C	1.058943	-0.380324	-1.083914
C112	C	1.558943	0.119676	-0.583914
C113	C	1.032000	-0.422150	-0.752728
C114	C	1.532000	0.077850	-0.252728
C115	C	1.034937	-0.417602	-0.679338
C116	C	1.534937	0.082398	-0.179338
C117	C	0.945025	-0.557132	-0.675691
C118	C	1.445025	-0.057132	-0.175691
C119	C	0.942094	-0.561685	-0.749077
C120	C	1.442094	-0.061685	-0.249077
C121	C	0.985578	-0.494190	-0.787592
C122	C	1.485578	0.005810	-0.287592
N123	N	1.021397	-0.438599	-0.896996
N124	N	1.521397	0.061401	-0.396996
N125	N	0.982572	-0.498846	-0.862602
N126	N	1.482572	0.001154	-0.362602
C127	C	1.009260	-0.457515	-0.196876
C128	C	1.509260	0.042485	0.303124
C129	C	1.012522	-0.452375	-0.118779
C130	C	1.512522	0.047625	0.381221
H131	H	0.604523	-0.608576	-0.281638
H132	H	1.104523	-0.108576	0.218362
H133	H	0.731172	-0.367608	-0.450338
H134	H	1.231172	0.132392	0.049662
H135	H	1.088110	-0.769567	-0.473000
H136	H	1.588110	-0.269567	0.027000
N137	N	1.177741	-0.854867	-0.570249
N138	N	1.677741	-0.354867	-0.070249
H139	H	1.205067	-0.906354	-0.599892
H140	H	1.705067	-0.406354	-0.099892
H141	H	1.147800	-0.813014	-0.601586
H142	H	1.647800	-0.313014	-0.101586
N143	N	0.915664	-0.740042	-0.285872
N144	N	1.415664	-0.240042	0.214128
H145	H	0.866927	-0.717227	-0.296807
H146	H	1.366927	-0.217227	0.203193
H147	H	0.930565	-0.709968	-0.238189
H148	H	1.430565	-0.209968	0.261811
H149	H	0.400009	-0.329205	-0.477288
H150	H	0.900009	0.170795	0.022712
N151	N	0.747839	-0.617339	-0.275476
N152	N	1.247839	-0.117339	0.224524
H153	H	0.734634	-0.693839	-0.285788
H154	H	1.234634	-0.193839	0.214212
H155	H	0.799612	-0.604492	-0.284416
H156	H	1.299612	-0.104492	0.215584
H157	H	0.266868	-0.336878	-0.471935
H158	H	0.766868	0.163122	0.028065
N159	N	1.085026	-0.339933	-0.641718
N160	N	1.585026	0.160067	-0.141718
H161	H	1.057715	-0.290995	-0.610109
H162	H	1.557715	0.209005	-0.110109
H163	H	1.118773	-0.379003	-0.612632
H164	H	1.618773	0.120997	-0.112632
H165	H	0.598041	-0.375280	-0.444985
H166	H	1.098041	0.124720	0.055015
H167	H	1.166411	-1.068395	-0.557930
H168	H	1.666411	-0.568395	-0.057930
N169	N	0.264129	-0.587738	-0.296306
N170	N	0.764129	-0.087738	0.203694
H171	H	0.299641	-0.626486	-0.269165
H172	H	0.799641	-0.126486	0.230835
H173	H	0.234973	-0.544641	-0.262617
H174	H	0.734973	-0.044641	0.237383
N175	N	0.918952	-0.597543	-1.117866
N176	N	1.418952	-0.097543	-0.617866
H177	H	0.923686	-0.590189	-1.170200
H178	H	1.423686	-0.090189	-0.670200
H179	H	0.930374	-0.671162	-1.105471
H180	H	1.430374	-0.171162	-0.605471
N181	N	0.915823	-1.196165	-0.285929
N182	N	1.415823	-0.696165	0.214071
H183	H	0.881982	-1.222489	-0.249197
H184	H	1.381982	-0.722489	0.250803
H185	H	0.900976	-1.226236	-0.333628
H186	H	1.400976	-0.726236	0.166372
N187	N	0.416670	-0.578928	-0.302421
N188	N	0.916670	-0.078928	0.197579
H189	H	0.383419	-0.621642	-0.272526
H190	H	0.883419	-0.121642	0.227474
H191	H	0.445982	-0.627628	-0.332187
H192	H	0.945982	-0.127628	0.167813
H193	H	1.088239	-1.167691	-0.473069
H194	H	1.588239	-0.667691	0.026931
N195	N	1.078887	-0.349339	-0.794263
N196	N	1.578887	0.150661	-0.294263
H197	H	1.108738	-0.303010	-0.761036
H198	H	1.608738	0.196990	-0.261036
H199	H	1.110181	-0.392112	-0.826025
H200	H	1.610181	0.107888	-0.326025
N201	N	0.826176	-1.081860	-0.188675
N202	N	1.326176	-0.581860	0.311325
H203	H	0.832744	-1.159711	-0.195788
H204	H	1.332744	-0.659711	0.304212
H205	H	0.839156	-1.058961	-0.138938
H206	H	1.339156	-0.558961	0.361062
N207	N	0.925060	-0.588096	-0.965353
N208	N	1.425060	-0.088096	-0.465353
H209	H	0.954814	-0.633268	-0.936046
H210	H	1.454814	-0.133268	-0.436046
H211	H	0.893724	-0.545308	-0.933645
H212	H	1.393724	-0.045308	-0.433645
H213	H	1.099677	-0.317108	-0.982133
H214	H	1.599677	0.182892	-0.482133
H215	H	0.904292	-0.620348	-0.777462
H216	H	1.404292	-0.120348	-0.277462
N217	N	1.105839	-0.307531	-1.125459
N218	N	1.605839	0.192469	-0.625459
H219	H	1.135694	-0.261202	-1.092236
H220	H	1.635694	0.238798	-0.592236
H221	H	1.137129	-0.350320	-1.157215
H222	H	1.637129	0.149680	-0.657215
N223	N	0.826091	-0.853796	-0.188642
N224	N	1.326091	-0.353796	0.311358
H225	H	0.798801	-0.905120	-0.159016
H226	H	1.298801	-0.405120	0.340984
H227	H	0.856001	-0.804601	-0.157290
H228	H	1.356001	-0.304601	0.342710
H229	H	0.909622	-0.612081	-0.644325
H230	H	1.409622	-0.112081	-0.144325
