data_functionalizedCrystal
_audit_creation_method	'MofGen! by Chris Wilmer'
_symmetry_space_group_name_H-M	'P1'
_symmetry_Int_Tables_number	1
_symmetry_cell_setting	triclinic
loop_
_symmetry_equiv_pos_as_xyz
  x,y,z
_cell_length_a	12.759401
_cell_length_b	18.050589
_cell_length_c	12.759386
_cell_angle_alpha	89.937415
_cell_angle_beta	89.958941
_cell_angle_gamma	90.029746
loop_
_atom_site_label
_atom_site_type_symbol
_atom_site_fract_x
_atom_site_fract_y
_atom_site_fract_z
Zn1	Zn	1.606376	-0.295351	-0.594028
Zn2	Zn	1.606164	-0.419631	-0.418351
Zn3	Zn	1.430613	-0.295462	-0.418363
Zn4	Zn	1.430626	-0.419507	-0.593988
O5	O	1.518445	-0.357488	-0.506182
O6	O	1.753369	-0.311842	-0.570735
O7	O	1.582783	-0.403258	-0.271331
O8	O	1.454012	-0.191523	-0.441687
O9	O	1.753214	-0.403150	-0.441666
O10	O	1.583145	-0.191441	-0.570747
O11	O	1.453807	-0.312032	-0.271340
O12	O	1.283594	-0.311912	-0.441648
O13	O	1.454033	-0.402939	-0.741015
O14	O	1.283603	-0.403047	-0.570679
O15	O	1.583157	-0.311722	-0.741044
O16	O	1.582795	-0.523539	-0.441627
O17	O	1.453828	-0.523448	-0.570668
C18	C	1.245478	-0.357479	-0.506161
C19	C	1.128701	-0.357493	-0.506177
C20	C	1.073871	-0.405019	-0.573258
C21	C	0.964147	-0.405022	-0.573279
C22	C	0.964092	-0.309970	-0.439129
C23	C	1.073814	-0.309964	-0.439114
C24	C	0.814286	-0.431619	-0.697140
C25	C	0.759452	-0.479157	-0.764212
C26	C	0.795031	-0.551627	-0.780161
C27	C	0.885442	-0.576573	-0.729024
C28	C	0.940270	-0.529039	-0.661945
C29	C	0.904693	-0.456559	-0.646015
C30	C	1.223678	-0.283374	-0.315252
C31	C	1.278508	-0.235843	-0.248166
C32	C	1.242931	-0.163373	-0.232206
C33	C	1.152516	-0.138429	-0.283325
C34	C	1.097686	-0.185960	-0.350410
C35	C	1.133271	-0.258430	-0.366372
C36	C	1.518318	-0.550440	-0.506165
C37	C	1.518360	-0.632986	-0.506192
C38	C	1.448296	-0.832414	-0.576340
C39	C	1.422647	-0.881901	-0.480471
C40	C	1.518463	-0.784116	-0.506206
C41	C	1.544164	-0.881711	-0.602086
C42	C	1.518561	-0.930101	-0.506228
C43	C	1.492763	-0.832516	-0.410286
C44	C	1.614325	-0.832321	-0.531966
C45	C	1.588712	-0.881786	-0.436031
C46	C	1.518404	-0.700018	-0.506195
C47	C	1.518620	-1.014198	-0.506228
C48	C	1.792478	-0.357497	-0.506204
C49	C	1.909255	-0.357502	-0.506213
C50	C	1.518620	-0.357305	-0.780216
C51	C	1.518694	-0.357227	-0.896993
C52	C	1.518601	-0.163782	-0.506223
C53	C	1.518667	-0.081236	-0.506240
C54	C	1.518331	-0.357616	-0.233215
C55	C	1.518460	-0.357485	-0.116438
C56	C	1.451784	-0.405257	-0.061275
C57	C	1.451898	-0.405126	0.048449
C58	C	1.585374	-0.309450	0.047836
C59	C	1.585253	-0.309577	-0.061886
C60	C	1.328412	-0.432119	0.198728
C61	C	1.261745	-0.479902	0.253894
C62	C	1.246264	-0.552488	0.218593
C63	C	1.297465	-0.577306	0.128126
C64	C	1.364140	-0.529526	0.072964
C65	C	1.379601	-0.456930	0.108265
C66	C	1.708741	-0.282592	-0.212166
C67	C	1.775422	-0.234816	-0.267330
C68	C	1.790914	-0.162229	-0.232030
C69	C	1.739731	-0.137414	-0.141560
C70	C	1.673050	-0.185190	-0.086396
C71	C	1.657557	-0.257777	-0.121703
H72	H	1.013880	-0.549350	-0.620309
H73	H	0.785316	-0.372607	-0.684171
Cl74	Cl	1.356554	-0.798941	-0.667781
Cl75	Cl	1.367810	-0.465481	-0.129852
Cl76	Cl	1.428504	-0.560718	-0.040758
H77	H	1.648092	-0.903327	-0.376662
Cl78	Cl	1.142868	-0.464766	-0.657570
H79	H	1.341625	-0.903694	-0.458702
H80	H	1.470970	-0.810994	-0.329188
Cl81	Cl	1.347844	-0.340857	0.243097
H82	H	1.695329	-0.810530	-0.553781
Cl83	Cl	0.895085	-0.250225	-0.354824
Cl84	Cl	1.577666	-0.915080	-0.727259
Cl85	Cl	1.107779	-0.047323	-0.263254
H86	H	1.284864	-0.636416	0.099397
Cl87	Cl	1.759211	-0.046160	-0.097173
H88	H	1.631373	-0.164979	-0.012732
H89	H	1.817101	-0.255028	-0.340993
H90	H	1.191981	-0.591394	0.263518
Cl91	Cl	1.669322	-0.249215	0.116424
Cl92	Cl	1.874755	-0.102170	-0.301374
H93	H	0.685840	-0.458839	-0.805849
H94	H	1.220056	-0.459689	0.327553
H95	H	1.352128	-0.256159	-0.206542
Cl96	Cl	1.311853	-0.103624	-0.147854
H97	H	1.252660	-0.342384	-0.328251
H98	H	1.696117	-0.341695	-0.240927
Cl99	Cl	0.930155	-0.667687	-0.749064
Cl100	Cl	0.726100	-0.611385	-0.864487
H101	H	1.024071	-0.165643	-0.392041
