data_functionalizedCrystal
_audit_creation_method	'MofGen! by Chris Wilmer'
_symmetry_space_group_name_H-M	'P1'
_symmetry_Int_Tables_number	1
_symmetry_cell_setting	triclinic
loop_
_symmetry_equiv_pos_as_xyz
  x,y,z
_cell_length_a	27.732048
_cell_length_b	27.732025
_cell_length_c	10.868271
_cell_angle_alpha	90.009406
_cell_angle_beta	90.001179
_cell_angle_gamma	82.638061
loop_
_atom_site_label
_atom_site_type_symbol
_atom_site_fract_x
_atom_site_fract_y
_atom_site_fract_z
O1	O	0.640922	0.057518	-0.102127
O2	O	0.500128	0.066263	-0.102158
O3	O	0.574904	-0.008507	-0.102179
O4	O	0.566147	0.132288	-0.102106
O5	O	0.574898	-0.008510	0.102466
O6	O	0.500122	0.066261	0.102486
O7	O	0.640916	0.057515	0.102518
Zn8	Zn	0.570518	0.061887	0.134994
Zn9	Zn	0.570526	0.061891	-0.134634
O10	O	0.566141	0.132285	0.102538
C11	C	0.482118	0.066079	0.000159
C12	C	0.428463	0.065526	0.000145
C13	C	0.574719	-0.026515	0.000131
C14	C	0.574170	-0.080171	0.000094
C15	C	0.570277	-0.463335	-0.111387
C16	C	0.572329	-0.261675	-0.111426
O17	O	0.572617	-0.235607	-0.206299
N18	N	0.572582	-0.236456	0.000123
C19	C	0.572326	-0.261654	0.111689
O20	O	0.572593	-0.235577	0.206567
C21	C	0.570277	-0.463313	0.111727
C22	C	0.570019	-0.488530	0.000171
C23	C	0.570019	-0.488551	-0.222933
C24	C	0.569503	-0.538963	-0.222923
C25	C	0.569245	-0.564158	-0.111365
C26	C	0.569503	-0.538941	0.000182
C27	C	0.570024	-0.488512	0.223292
C28	C	0.569512	-0.538930	0.223291
C29	C	0.569254	-0.564146	0.111736
C30	C	0.568729	-0.614548	0.111751
N31	N	0.568476	-0.639767	0.000202
C32	C	0.568734	-0.614572	-0.111356
C33	C	0.573401	-0.155780	0.111661
C34	C	0.573912	-0.105366	0.111652
C35	C	0.573916	-0.105390	-0.111463
C36	C	0.573401	-0.155805	-0.111453
C37	C	0.573147	-0.181000	0.000113
C38	C	0.567650	-0.720440	-0.111324
C39	C	0.567132	-0.770856	-0.111304
C40	C	0.567131	-0.770827	0.111811
C41	C	0.567646	-0.720415	0.111791
C42	C	0.567907	-0.695223	0.000213
O43	O	0.568447	-0.640648	0.206574
O44	O	0.568477	-0.640660	-0.206220
C45	C	0.570792	-0.412923	-0.111398
C46	C	0.571050	-0.387707	0.000149
C47	C	0.570792	-0.412902	0.111707
C48	C	0.571561	-0.337292	0.000140
C49	C	0.571820	-0.312097	-0.111418
C50	C	0.571566	-0.337317	-0.222966
C51	C	0.571051	-0.387728	-0.222955
C52	C	0.571045	-0.387682	0.223255
C53	C	0.571560	-0.337271	0.223235
C54	C	0.571819	-0.312076	0.111678
C55	C	0.089645	0.106230	0.000219
C56	C	-0.112014	0.104179	0.000229
O57	O	-0.143273	0.141400	0.000302
N58	N	-0.131135	0.059843	0.000204
C59	C	-0.099836	0.016017	0.000184
O60	O	-0.120726	-0.021740	0.000176
C61	C	0.101822	0.018069	0.000183
C62	C	0.120939	0.062407	0.000196
C63	C	0.108763	0.150565	0.000233
C64	C	0.159175	0.151077	0.000224
C65	C	0.190469	0.107254	0.000201
C66	C	0.171351	0.062920	0.000187
C67	C	0.133119	-0.025757	0.000172
C68	C	0.183537	-0.025240	0.000175
C69	C	0.202654	0.019099	0.000188
C70	C	0.253057	0.019609	0.000154
N71	N	0.272177	0.063945	0.000179
C72	C	0.240883	0.107768	0.000203
C73	C	-0.205710	0.014943	0.000183
C74	C	-0.256125	0.014430	0.000181
C75	C	-0.268299	0.102592	0.000228
C76	C	-0.217884	0.103105	0.000221
C77	C	-0.186590	0.059279	0.000208
C78	C	0.346752	0.108840	0.000182
C79	C	0.397169	0.109348	0.000168
C80	C	0.409339	0.021187	0.000127
C81	C	0.358927	0.020678	0.000135
C82	C	0.327634	0.064509	0.000167
O83	O	0.284344	-0.017592	0.000096
O84	O	0.261783	0.145519	0.000238
C85	C	0.039233	0.105718	0.000228
C86	C	0.020115	0.061383	0.000214
C87	C	0.051410	0.017560	0.000191
C88	C	-0.030299	0.060870	0.000212
C89	C	-0.061593	0.104692	0.000236
C90	C	-0.042473	0.149028	0.000261
C91	C	0.007939	0.149540	0.000251
C92	C	0.032289	-0.026776	0.000166
C93	C	-0.018123	-0.027284	0.000174
C94	C	-0.049417	0.016538	0.000197
C95	C	0.658926	0.057700	0.000198
C96	C	0.712581	0.058253	0.000204
C97	C	0.566326	0.150294	0.000226
C98	C	0.566874	0.203949	0.000254
N99	N	0.570516	0.061885	0.319008
N100	N	0.570532	0.061890	-0.318648
C101	C	0.570524	0.061890	0.570014
C102	C	0.570518	0.061888	0.430336
H103	H	0.567864	-0.699935	-0.202181
O104	O	-0.274634	-0.028671	-0.000010
C105	C	-0.279666	-0.104168	-0.106102
C106	C	-0.258666	-0.055377	-0.106033
H107	H	-0.266773	-0.125769	-0.191825
H108	H	-0.266734	-0.125837	-0.020526
H109	H	-0.321074	-0.097001	-0.106039
H110	H	-0.217258	-0.062499	-0.106139
H111	H	-0.271637	-0.033723	-0.191601
H112	H	0.434828	-0.014493	0.000104
H113	H	0.574113	-0.084838	0.202492
O114	O	0.026425	0.192654	0.000326
C115	C	0.009010	0.280043	0.000301
C116	C	-0.011985	0.231249	0.000242
H117	H	-0.022035	0.311260	0.000207
H118	H	0.032291	0.282523	0.085965
H119	H	0.032323	0.282467	-0.085322
H120	H	-0.035320	0.228792	0.085807
H121	H	-0.035239	0.228790	-0.085479
O122	O	0.571876	-0.312734	0.331532
C123	C	0.614373	-0.261626	0.461050
C124	C	0.614065	-0.289379	0.338355
H125	H	0.648484	-0.242745	0.466619
H126	H	0.580798	-0.233316	0.466656
H127	H	0.614077	-0.288305	0.540757
H128	H	0.614377	-0.262738	0.258579
H129	H	0.647637	-0.317696	0.332857
O130	O	-0.298752	0.145131	0.000090
C131	C	-0.362726	0.195730	-0.105922
C132	C	-0.328273	0.147536	-0.105917
H133	H	-0.386596	0.197694	-0.191633
H134	H	-0.386665	0.197692	-0.020334
H135	H	-0.340396	0.227502	-0.105839
H136	H	-0.350564	0.115737	-0.106044
H137	H	-0.304333	0.145616	-0.191497
O138	O	-0.199396	0.146217	0.000296
C139	C	-0.216807	0.233607	0.000263
C140	C	-0.237805	0.184814	0.000203
H141	H	-0.247849	0.264825	0.000161
H142	H	-0.193528	0.236086	0.085930
H143	H	-0.193491	0.236028	-0.085357
H144	H	-0.261142	0.182360	0.085764
H145	H	-0.261056	0.182356	-0.085522
H146	H	0.570836	-0.408191	0.314101
O147	O	-0.175267	-0.027601	-0.000007
C148	C	-0.111312	-0.078208	-0.106106
C149	C	-0.145750	-0.030003	-0.106021
H150	H	-0.087446	-0.080170	-0.191823
H151	H	-0.087369	-0.080188	-0.020524
H152	H	-0.133654	-0.109970	-0.106070
H153	H	-0.123447	0.001786	-0.106101
H154	H	-0.169695	-0.028065	-0.191596
H155	H	0.412731	0.145456	0.000178
H156	H	0.209014	-0.060929	0.000166
O157	O	0.316310	0.151385	0.000041
C158	C	0.252351	0.201992	-0.106002
C159	C	0.286790	0.153789	-0.105968
H160	H	0.228482	0.203956	-0.191714
H161	H	0.228411	0.203969	-0.020415
H162	H	0.274692	0.233755	-0.105937
H163	H	0.264487	0.121998	-0.106077
H164	H	0.310731	0.151854	-0.191548
H165	H	0.174735	0.187182	0.000234
H166	H	0.574123	-0.084868	-0.202298
O167	O	0.114638	-0.068871	0.000226
C168	C	0.132056	-0.156260	0.000148
C169	C	0.153049	-0.107465	0.000110
H170	H	0.163101	-0.187475	0.000028
H171	H	0.108780	-0.158737	0.085817
H172	H	0.108739	-0.158687	-0.085470
H173	H	0.176388	-0.105004	0.085670
H174	H	0.176298	-0.105008	-0.085616
H175	H	0.057765	-0.062462	0.000150
H176	H	0.343361	-0.015426	0.000107
O177	O	0.573129	-0.180173	0.220154
C178	C	0.573204	-0.174818	0.441450
C179	C	0.573503	-0.147136	0.318672
H180	H	0.573516	-0.148121	0.521133
H181	H	0.539115	-0.193731	0.447119
H182	H	0.606797	-0.203106	0.446984
H183	H	0.539933	-0.118825	0.313055
H184	H	0.607614	-0.128256	0.313055
O185	O	-0.072926	0.191567	0.000120
C186	C	-0.136903	0.242160	-0.105897
C187	C	-0.102449	0.193967	-0.105885
H188	H	-0.160774	0.244121	-0.191605
H189	H	-0.160841	0.244124	-0.020307
H190	H	-0.114574	0.273933	-0.105823
H191	H	-0.124739	0.162167	-0.106002
H192	H	-0.078510	0.192045	-0.191468
H193	H	-0.033683	-0.063393	0.000154
O194	O	0.570345	-0.463978	0.331577
C195	C	0.612845	-0.412870	0.461085
C196	C	0.612533	-0.440622	0.338391
H197	H	0.646956	-0.393987	0.466646
H198	H	0.579269	-0.384560	0.466698
H199	H	0.612553	-0.439549	0.540793
H200	H	0.612842	-0.413980	0.258614
H201	H	0.646106	-0.468939	0.332885
O202	O	0.566902	-0.795278	-0.219785
C203	C	0.566924	-0.789968	-0.441084
C204	C	0.567198	-0.762253	-0.318325
H205	H	0.567153	-0.763278	-0.520786
H206	H	0.600531	-0.818236	-0.446749
H207	H	0.532848	-0.808907	-0.446590
H208	H	0.601251	-0.743285	-0.312736
H209	H	0.533569	-0.734012	-0.312711
H210	H	0.569296	-0.559490	-0.313763
H211	H	0.573190	-0.176333	-0.202292
O212	O	0.569178	-0.563369	0.331703
C213	C	0.527142	-0.572959	0.522437
C214	C	0.527457	-0.545254	0.399697
H215	H	0.493420	-0.558317	0.577456
H216	H	0.526699	-0.613326	0.503368
H217	H	0.561100	-0.567724	0.577393
H218	H	0.493505	-0.550450	0.344679
H219	H	0.527926	-0.504898	0.418852
O220	O	0.570172	-0.464103	-0.331362
C221	C	0.528423	-0.442994	-0.522087
C222	C	0.528194	-0.470681	-0.399302
H223	H	0.494492	-0.448310	-0.577063
H224	H	0.528796	-0.402613	-0.503083
H225	H	0.562174	-0.457590	-0.577054
H226	H	0.494448	-0.456126	-0.344273
H227	H	0.527846	-0.511058	-0.418393
H228	H	0.567837	-0.699881	0.202629
O229	O	0.571728	-0.312852	-0.331375
C230	C	0.530007	-0.291685	-0.522107
C231	C	0.529756	-0.319402	-0.399371
H232	H	0.496082	-0.296979	-0.577128
H233	H	0.530387	-0.251310	-0.503031
H234	H	0.563763	-0.306274	-0.577064
H235	H	0.496006	-0.304854	-0.344353
H236	H	0.529402	-0.359773	-0.418534
O237	O	0.566819	-0.795353	0.220093
C238	C	0.524345	-0.846463	0.349613
C239	C	0.524636	-0.818716	0.226930
H240	H	0.490238	-0.865351	0.355192
H241	H	0.557924	-0.874768	0.355188
H242	H	0.524643	-0.819780	0.429331
H243	H	0.524321	-0.845362	0.147142
H244	H	0.491059	-0.790404	0.221463
H245	H	0.083287	0.186253	0.000256
H246	H	0.570840	-0.408255	-0.313796
