data_functionalizedCrystal
_audit_creation_method	'MofGen! by Chris Wilmer'
_symmetry_space_group_name_H-M	'P1'
_symmetry_Int_Tables_number	1
_symmetry_cell_setting	triclinic
loop_
_symmetry_equiv_pos_as_xyz
  x,y,z
_cell_length_a	23.532407
_cell_length_b	16.109318
_cell_length_c	14.586319
_cell_angle_alpha	90.000075
_cell_angle_beta	89.991566
_cell_angle_gamma	83.158621
loop_
_atom_site_label
_atom_site_type_symbol
_atom_site_fract_x
_atom_site_fract_y
_atom_site_fract_z
O1	O	0.073249	1.102546	-0.076174
O2	O	0.573249	1.602546	0.423826
O3	O	0.082349	0.860414	-0.076193
O4	O	0.582349	1.360414	0.423807
O5	O	-0.005106	0.988782	-0.076166
O6	O	0.494894	1.488782	0.423834
O7	O	0.160703	0.974179	-0.076201
O8	O	0.660703	1.474179	0.423799
O9	O	-0.005107	0.988773	0.076315
O10	O	0.494893	1.488773	0.576315
O11	O	0.082347	0.860405	0.076287
O12	O	0.582347	1.360405	0.576287
O13	O	0.073248	1.102537	0.076307
O14	O	0.573248	1.602537	0.576307
Cu15	Cu	0.077797	0.981470	0.090220
Cu16	Cu	0.577797	1.481470	0.590220
Cu17	Cu	0.077799	0.981481	-0.090106
Cu18	Cu	0.577799	1.481481	0.409894
O19	O	0.160702	0.974170	0.076280
O20	O	0.660702	1.474170	0.576280
C21	C	0.081978	0.829438	0.000045
C22	C	0.581978	1.329438	0.500045
C23	C	0.080867	0.737152	0.000038
C24	C	0.580867	1.237152	0.500038
C25	C	0.077282	0.438112	-0.083062
C26	C	0.577282	0.938112	0.416938
C27	C	0.078321	0.524825	-0.083068
C28	C	0.578321	1.024825	0.416932
C29	C	0.078312	0.524834	0.083175
C30	C	0.578312	1.024834	0.583175
C31	C	0.077269	0.438123	0.083179
C32	C	0.577269	0.938123	0.583179
C33	C	0.076757	0.394764	0.000058
C34	C	0.576757	0.894764	0.500058
C35	C	0.078840	0.568188	0.000047
C36	C	0.578840	1.068188	0.500047
C37	C	0.079967	0.662206	0.000042
C38	C	0.579967	1.162206	0.500042
C39	C	0.075629	0.300740	0.000064
C40	C	0.575629	0.800740	0.500064
C41	C	-0.026324	0.988405	0.000077
C42	C	0.473676	1.488405	0.500077
C43	C	-0.089545	0.987287	0.000084
C44	C	0.410455	1.487287	0.500084
C45	C	-0.488391	1.056240	0.000039
C46	C	0.011609	1.556240	0.500039
C47	C	-0.547795	1.055201	0.000032
C48	C	-0.047795	1.555201	0.500032
O49	O	-0.584301	1.119121	0.000003
O50	O	-0.084301	1.619121	0.500003
N51	N	-0.570706	0.978887	0.000026
N52	N	-0.070706	1.478887	0.500026
C53	C	-0.534209	0.903606	0.000018
C54	C	-0.034209	1.403606	0.500018
O55	O	-0.559151	0.838600	0.000012
O56	O	-0.059151	1.338600	0.500012
C57	C	-0.474806	0.904646	0.000019
C58	C	0.025194	1.404646	0.500019
C59	C	-0.451899	0.980965	0.000034
C60	C	0.048101	1.480965	0.500034
C61	C	-0.465483	1.132553	0.000053
C62	C	0.034517	1.632553	0.500053
C63	C	-0.406083	1.133591	0.000062
C64	C	0.093917	1.633591	0.500062
C65	C	-0.369591	1.058316	0.000056
C66	C	0.130409	1.558316	0.500056
C67	C	-0.392499	0.982003	0.000043
C68	C	0.107501	1.482003	0.500043
C69	C	-0.438311	0.829366	0.000005
C70	C	0.061689	1.329366	0.500005
C71	C	-0.378904	0.830412	0.000004
C72	C	0.121096	1.330412	0.500004
C73	C	-0.355997	0.906731	0.000019
C74	C	0.144003	1.406731	0.500019
C75	C	-0.296607	0.907767	0.000046
C76	C	0.203393	1.407767	0.500046
N77	N	-0.273696	0.984081	0.000052
N78	N	0.226304	1.484081	0.500052
C79	C	-0.310188	1.059356	0.000057
C80	C	0.189812	1.559356	0.500057
C81	C	-0.658960	0.901429	0.000016
C82	C	-0.158960	1.401429	0.500016
C83	C	-0.718362	0.900389	0.000022
C84	C	-0.218362	1.400389	0.500022
C85	C	-0.731943	1.051984	0.000034
C86	C	-0.231943	1.551984	0.500034
C87	C	-0.672540	1.053024	0.000034
C88	C	-0.172540	1.553024	0.500034
C89	C	-0.636049	0.977743	0.000021
C90	C	-0.136049	1.477743	0.500021
C91	C	-0.185443	1.061530	0.000076
C92	C	0.314557	1.561530	0.500076
C93	C	-0.126037	1.062562	0.000089
C94	C	0.373963	1.562562	0.500089
C95	C	-0.112461	0.910967	0.000072
C96	C	0.387539	1.410967	0.500072
C97	C	-0.171861	0.909935	0.000064
C98	C	0.328139	1.409935	0.500064
C99	C	-0.208352	0.985224	0.000063
C100	C	0.291648	1.485224	0.500063
O101	O	-0.260066	0.843881	0.000071
O102	O	0.239934	1.343881	0.500071
O103	O	-0.285237	1.124352	0.000051
O104	O	0.214763	1.624352	0.500051
C105	C	0.181920	0.974546	0.000035
C106	C	0.681920	1.474546	0.500035
C107	C	0.245141	0.975664	0.000022
C108	C	0.745141	1.475664	0.500022
C109	C	0.073619	1.133513	0.000067
C110	C	0.573619	1.633513	0.500067
C111	C	0.074729	1.225799	0.000068
C112	C	0.574729	1.725799	0.500068
N113	N	0.077796	0.981469	0.217052
N114	N	0.577796	1.481469	0.717052
N115	N	0.077796	0.981489	-0.216938
N116	N	0.577796	1.481489	0.283062
C117	C	0.039084	1.038329	0.452070
C118	C	0.539084	1.538329	0.952070
C119	C	0.039083	1.038331	0.548052
C120	C	0.539083	1.538331	1.048052
C121	C	0.116509	0.924623	0.548037
C122	C	0.616509	1.424623	1.048037
C123	C	0.116508	0.924617	0.452057
C124	C	0.616508	1.424617	0.952057
C125	C	0.077796	0.981475	0.404076
C126	C	0.577796	1.481475	0.904076
C127	C	0.077796	0.981483	0.596037
C128	C	0.577796	1.481483	1.096037
C129	C	0.077795	0.981485	0.700104
C130	C	0.577795	1.481485	1.200104
C131	C	0.077796	0.981472	0.300003
C132	C	0.577796	1.481472	0.800003
H133	H	0.078730	0.560148	0.150849
H134	H	0.578730	1.060148	0.650849
H135	H	0.007562	1.084624	0.413007
H136	H	0.507562	1.584624	0.913007
H137	H	0.076840	0.402829	0.150870
H138	H	0.576840	0.902829	0.650870
H139	H	-0.653894	1.115169	0.000045
H140	H	-0.153894	1.615169	0.500045
H141	H	0.148029	0.878332	0.587112
H142	H	0.648029	1.378332	1.087112
N143	N	0.078883	0.571581	-0.172719
N144	N	0.578883	1.071581	0.327281
H145	H	0.078399	0.530953	-0.225372
H146	H	0.578399	1.030953	0.274628
H147	H	0.114597	0.600531	-0.176349
H148	H	0.614597	1.100531	0.323651
H149	H	-0.190513	0.847790	0.000078
H150	H	0.309487	1.347790	0.500078
N151	N	0.076727	0.391344	-0.172710
N152	N	0.576727	0.891344	0.327290
H153	H	0.077216	0.431966	-0.225367
H154	H	0.577216	0.931966	0.274633
H155	H	0.041011	0.362398	-0.176323
H156	H	0.541011	0.862398	0.323677
H157	H	0.007560	1.084626	0.587125
H158	H	0.507560	1.584626	1.087125
H159	H	0.148031	0.878316	0.412978
H160	H	0.648031	1.378316	0.912978
H161	H	-0.107389	1.124713	0.000103
H162	H	0.392611	1.624713	0.500103
H163	H	-0.215147	1.122838	0.000072
H164	H	0.284853	1.622838	0.500072
H165	H	-0.387437	1.195738	0.000070
H166	H	0.112563	1.695738	0.500070
N167	N	-0.504837	1.213749	0.000059
N168	N	-0.004837	1.713749	0.500059
H169	H	-0.481302	1.262243	0.000069
H170	H	0.018698	1.762243	0.500069
H171	H	-0.529782	1.216618	0.056589
H172	H	-0.029782	1.716618	0.556589
H173	H	-0.761666	1.113277	0.000034
H174	H	-0.261666	1.613277	0.500034
H175	H	-0.082738	0.849681	0.000071
H176	H	0.417262	1.349681	0.500071
H177	H	-0.737007	0.838242	0.000026
H178	H	-0.237007	1.338242	0.500026
N179	N	-0.619603	0.820229	0.000010
N180	N	-0.119603	1.320229	0.500010
H181	H	-0.643135	0.771732	0.000008
H182	H	-0.143135	1.271732	0.500008
H183	H	-0.594666	0.817352	0.056538
H184	H	-0.094666	1.317352	0.556538
H185	H	-0.456951	0.767219	-0.000013
H186	H	0.043049	1.267219	0.499987
H187	H	-0.349195	0.769108	-0.000007
H188	H	0.150805	1.269108	0.499993
