data_functionalizedCrystal
_audit_creation_method	'MofGen! by Chris Wilmer'
_symmetry_space_group_name_H-M	'P1'
_symmetry_Int_Tables_number	1
_symmetry_cell_setting	triclinic
loop_
_symmetry_equiv_pos_as_xyz
  x,y,z
_cell_length_a	13.032831
_cell_length_b	12.759399
_cell_length_c	12.759393
_cell_angle_alpha	89.967969
_cell_angle_beta	82.806365
_cell_angle_gamma	82.820015
loop_
_atom_site_label
_atom_site_type_symbol
_atom_site_fract_x
_atom_site_fract_y
_atom_site_fract_z
Zn1	Zn	1.597744	-0.622490	-0.797709
Zn2	Zn	1.597637	-0.798195	-0.622014
Zn3	Zn	1.422976	-0.600199	-0.599763
Zn4	Zn	1.422964	-0.775780	-0.775383
O5	O	1.510330	-0.699166	-0.698717
O6	O	1.743972	-0.664507	-0.793058
O7	O	1.574429	-0.771983	-0.472036
O8	O	1.446210	-0.456141	-0.626053
O9	O	1.743894	-0.793597	-0.663976
O10	O	1.574610	-0.472518	-0.771482
O11	O	1.446107	-0.626516	-0.455689
O12	O	1.276733	-0.604780	-0.604404
O13	O	1.446188	-0.755394	-0.925370
O14	O	1.276723	-0.733779	-0.733431
O15	O	1.574598	-0.642772	-0.941773
O16	O	1.574417	-0.942236	-0.642327
O17	O	1.446085	-0.925768	-0.755006
C18	C	1.238809	-0.664429	-0.664081
C19	C	1.122651	-0.649594	-0.649288
C20	C	1.510266	-0.972125	-0.698685
C21	C	1.510335	-1.088911	-0.698719
C22	C	1.577233	-1.152322	-0.640133
C23	C	1.577300	-1.262055	-0.640177
C24	C	1.443561	-1.244953	-0.757394
C25	C	1.443500	-1.135223	-0.757356
C26	C	1.070887	-0.706909	-0.706437
C27	C	0.950831	-0.691577	-0.691150
C28	C	1.782912	-0.734039	-0.733489
C29	C	1.899070	-0.748900	-0.748307
C30	C	1.510403	-0.699069	-0.972760
C31	C	1.510434	-0.699028	-1.089541
C32	C	1.510423	-0.425145	-0.698776
C33	C	1.510463	-0.308373	-0.698801
C34	C	1.443641	-0.623274	-1.135893
C35	C	1.443665	-0.623245	-1.245620
C36	C	1.577286	-0.774727	-1.262634
C37	C	1.577255	-0.774760	-1.152908
C38	C	1.510318	-0.699194	-0.425748
C39	C	1.510489	-0.698966	-0.308994
H40	H	1.631778	-1.313681	-0.592472
H41	H	1.389145	-1.282674	-0.805132
H42	H	1.631649	-0.836453	-1.115168
C43	C	1.133322	-0.517959	-0.518039
C44	C	1.062504	-0.568024	-0.567957
H45	H	1.096189	-0.467596	-0.467832
H46	H	1.175866	-0.569082	-0.483152
H47	H	1.175927	-0.483230	-0.569280
H48	H	1.019904	-0.602760	-0.516717
H49	H	1.019942	-0.516894	-0.602845
C50	C	0.783398	-0.610629	-0.610389
C51	C	0.890687	-0.610021	-0.609798
H52	H	0.746269	-0.560288	-0.560158
H53	H	0.765598	-0.593061	-0.678742
H54	H	0.765564	-0.678948	-0.592650
H55	H	0.908523	-0.541703	-0.627545
H56	H	0.908495	-0.627582	-0.541429
C57	C	1.591759	-1.030900	-0.500632
C58	C	1.650702	-1.101415	-0.575687
H59	H	1.637120	-0.999481	-0.460844
H60	H	1.551918	-0.977433	-0.535518
H61	H	1.546276	-1.067973	-0.454622
H62	H	1.696180	-1.064341	-0.621702
H63	H	1.690561	-1.154890	-0.540799
C64	C	1.066502	-0.829872	-0.829051
C65	C	0.959212	-0.830470	-0.829646
H66	H	1.103629	-0.880233	-0.879262
H67	H	1.084346	-0.761570	-0.846806
H68	H	1.084295	-0.847426	-0.760681
H69	H	0.941418	-0.812909	-0.898014
H70	H	0.941361	-0.898788	-0.811898
H71	H	1.631690	-0.836385	-1.314241
H72	H	1.389023	-1.083589	-0.805068
C73	C	1.311553	-0.473550	-1.130099
C74	C	1.370179	-0.540042	-1.066237
H75	H	1.266193	-0.422172	-1.087095
H76	H	1.357109	-0.439174	-1.178710
H77	H	1.271582	-0.514211	-1.167790
H78	H	1.410156	-0.499381	-1.028552
H79	H	1.324617	-0.574420	-1.017608
H80	H	1.389274	-0.561559	-1.283355
H81	H	1.115450	-0.767324	-0.766686
