data_functionalizedCrystal
_audit_creation_method	'MofGen! by Chris Wilmer'
_symmetry_space_group_name_H-M	'P1'
_symmetry_Int_Tables_number	1
_symmetry_cell_setting	triclinic
loop_
_symmetry_equiv_pos_as_xyz
  x,y,z
_cell_length_a	16.109302
_cell_length_b	11.026607
_cell_length_c	14.586319
_cell_angle_alpha	89.998207
_cell_angle_beta	89.994552
_cell_angle_gamma	96.023899
loop_
_atom_site_label
_atom_site_type_symbol
_atom_site_fract_x
_atom_site_fract_y
_atom_site_fract_z
O1	O	1.126504	0.155976	-0.076280
O2	O	0.887350	0.175385	-0.076272
O3	O	0.987106	-0.010965	-0.076272
O4	O	1.026748	0.342326	-0.076280
O5	O	0.987097	-0.010967	0.076209
O6	O	0.887341	0.175383	0.076208
O7	O	1.126494	0.155973	0.076201
Cu8	Cu	1.006917	0.165678	0.090127
Cu9	Cu	1.006928	0.165681	-0.090199
O10	O	1.026738	0.342323	0.076201
C11	C	0.856253	0.174598	-0.000031
C12	C	0.763604	0.172240	-0.000028
C13	C	0.550441	0.166787	0.083080
C14	C	0.463387	0.164559	0.083077
C15	C	0.463409	0.164568	-0.083166
C16	C	0.550461	0.166787	-0.083162
C17	C	0.593975	0.167903	-0.000036
C18	C	0.419869	0.163455	-0.000043
C19	C	0.325482	0.161039	-0.000047
C20	C	0.688369	0.170317	-0.000032
C21	C	0.979788	-0.056174	-0.000033
C22	C	0.957987	-0.190880	-0.000035
C23	C	1.018183	-0.264709	-0.000038
C24	C	0.995652	-0.403934	-0.000041
C25	C	1.157592	0.156761	-0.000042
C26	C	1.250240	0.159118	-0.000051
C27	C	1.034056	0.387533	-0.000041
C28	C	1.055857	0.522238	-0.000044
N29	N	1.006915	0.165675	0.216959
N30	N	1.006935	0.165674	-0.217031
C31	C	1.051110	0.083186	0.451966
C32	C	1.051112	0.083183	0.547947
C33	C	0.962734	0.248166	0.547956
C34	C	0.962728	0.248163	0.451977
C35	C	1.006921	0.165674	0.403984
C36	C	1.006929	0.165675	0.595945
C37	C	1.006931	0.165672	0.700012
C38	C	1.006918	0.165675	0.299910
H39	H	0.585907	0.167693	-0.150849
Cl40	Cl	1.106664	-0.020522	0.608264
Cl41	Cl	0.852664	-0.252416	-0.000041
Cl42	Cl	1.106662	-0.020518	0.391636
Cl43	Cl	0.907185	0.351866	0.608294
H44	H	0.926740	0.315334	0.412907
Cl45	Cl	0.890324	-0.465465	-0.000047
H46	H	0.427946	0.163650	0.150759
Cl47	Cl	0.408698	0.163136	-0.187661
Cl48	Cl	1.123507	-0.203172	-0.000047
Cl49	Cl	0.605142	0.168182	0.187581
Cl50	Cl	1.161186	-0.416234	-0.000052
