data_functionalizedCrystal
_audit_creation_method	'MofGen! by Chris Wilmer'
_symmetry_space_group_name_H-M	'P1'
_symmetry_Int_Tables_number	1
_symmetry_cell_setting	triclinic
loop_
_symmetry_equiv_pos_as_xyz
  x,y,z
_cell_length_a	21.883469
_cell_length_b	21.882911
_cell_length_c	21.879399
_cell_angle_alpha	60.006540
_cell_angle_beta	60.013207
_cell_angle_gamma	59.992231
loop_
_atom_site_label
_atom_site_type_symbol
_atom_site_fract_x
_atom_site_fract_y
_atom_site_fract_z
O1	O	0.084645	-0.892842	0.746620
O2	O	0.031867	-0.695139	0.601571
O3	O	0.157054	-0.820237	0.601476
O4	O	-0.040542	-0.767744	0.746716
O5	O	0.198586	-0.778715	0.642912
O6	O	0.073399	-0.653617	0.643007
O7	O	0.126177	-0.851320	0.788056
Cu8	Cu	0.103580	-0.748677	0.719315
Cu9	Cu	0.054464	-0.797782	0.670313
O10	O	0.000990	-0.726222	0.788151
N11	N	0.138128	-0.714145	0.753785
N12	N	0.019923	-0.832320	0.635843
C13	C	0.190018	-0.547369	0.805644
C14	C	0.190029	-0.662289	0.805630
C15	C	0.218780	-0.633565	0.834353
C16	C	0.344122	-0.611968	0.768360
C17	C	0.422474	-0.638085	0.742222
C18	C	0.422504	-0.764859	0.790561
C19	C	0.344154	-0.738739	0.816702
C20	C	0.208899	-0.508180	0.728617
C21	C	0.182748	-0.429822	0.702522
C22	C	0.118843	-0.429847	0.830485
C23	C	0.144993	-0.508205	0.856580
C24	C	0.112994	-0.643364	0.824587
C25	C	0.086865	-0.669476	0.798467
C26	C	0.214799	-0.733437	0.734451
C27	C	0.240932	-0.707325	0.760562
C28	C	0.113084	-0.643389	0.959747
C29	C	0.087018	-0.669524	1.038102
C30	C	0.214996	-0.733501	1.038048
C31	C	0.241061	-0.707367	0.959690
C32	C	0.190103	-0.662308	0.920542
C33	C	0.304966	-0.662293	0.805598
C34	C	-0.117460	-0.854702	0.612901
C35	C	-0.002405	-0.854864	0.498145
C36	C	-0.002621	-0.969735	0.613108
C37	C	-0.002603	-0.854858	0.613180
C38	C	-0.031272	-0.883541	0.584334
N39	N	0.460550	-0.714150	0.753681
O40	O	0.699805	-0.721060	0.574973
O41	O	0.700047	-0.866553	0.772482
O42	O	0.699952	-0.866219	0.647213
O43	O	0.699900	-0.721394	0.700242
O44	O	0.575478	-0.824800	0.688791
O45	O	0.575573	-0.825134	0.814060
O46	O	0.575331	-0.679641	0.616551
Cu47	Cu	0.564087	-0.748606	0.719102
Cu48	Cu	0.711292	-0.797588	0.669931
O49	O	0.575426	-0.679975	0.741820
N50	N	0.814828	-0.832044	0.635345
N51	N	0.138106	-0.391772	0.753815
O52	O	-0.040520	-0.152377	0.746758
O53	O	0.156993	-0.152371	0.601281
O54	O	0.031698	-0.152390	0.601639
O55	O	0.084775	-0.152358	0.746401
O56	O	0.073234	-0.276876	0.643130
O57	O	0.198529	-0.276856	0.642772
O58	O	0.001015	-0.276863	0.788249
Cu59	Cu	0.103564	-0.288226	0.719299
Cu60	Cu	0.054444	-0.141007	0.670231
O61	O	0.126310	-0.276844	0.787892
N62	N	0.019892	-0.037461	0.635717
N63	N	0.138332	-0.714192	1.076133
O64	O	0.131293	-0.892804	1.315506
O65	O	-0.014162	-0.695219	1.315533
O66	O	-0.013826	-0.820490	1.315480
O67	O	0.130957	-0.767533	1.315559
O68	O	0.027651	-0.778981	1.191001
O69	O	0.027314	-0.653710	1.191054
O70	O	0.172770	-0.851295	1.191026
Cu71	Cu	0.103829	-0.748713	1.179674
Cu72	Cu	0.054778	-0.797802	1.326885
O73	O	0.172434	-0.726024	1.191079
N74	N	0.020275	-0.832331	1.430426
C75	C	0.047687	-0.649466	0.602306
C76	C	0.202716	-0.804385	0.602188
C77	C	0.110357	-0.896993	0.787321
C78	C	-0.044672	-0.742074	0.787439
C79	C	0.637839	-0.865879	0.818154
C80	C	0.637724	-0.865466	0.663023
C81	C	0.637536	-0.680313	0.570880
C82	C	0.637655	-0.680728	0.726010
C83	C	0.202592	-0.214459	0.601942
C84	C	0.047481	-0.214636	0.602435
C85	C	-0.044635	-0.214620	0.787537
C86	C	0.110528	-0.214598	0.787096
C87	C	-0.013455	-0.649572	1.253296
C88	C	-0.013030	-0.804697	1.253206
C89	C	0.172063	-0.896942	1.253263
C90	C	0.171648	-0.741808	1.253325
H91	H	0.071582	-0.606692	0.927876
C92	C	0.032362	-0.214821	0.541870
C93	C	0.014916	-0.278889	0.567553
C94	C	0.001002	-0.279099	0.511777
H95	H	-0.008489	-0.171470	0.530174
H96	H	0.075619	-0.214869	0.498309
H97	H	-0.028336	-0.278835	0.611100
H98	H	0.055758	-0.322250	0.579243
H99	H	0.044259	-0.279146	0.468216
H100	H	-0.039847	-0.235745	0.500085
H101	H	-0.010829	-0.322571	0.529192
C102	C	0.637595	-0.620144	0.741292
C103	C	0.637651	-0.647283	0.814358
C104	C	0.637586	-0.591492	0.828465
H105	H	0.680957	-0.606444	0.706813
H106	H	0.594138	-0.577590	0.735789
H107	H	0.681104	-0.689824	0.819853
H108	H	0.594292	-0.660978	0.848851
H109	H	0.594128	-0.548938	0.822962
H110	H	0.680949	-0.577795	0.793982
H111	H	0.637617	-0.609895	0.878043
C112	C	-0.120306	-0.727070	0.848283
C113	C	-0.133523	-0.666924	0.865411
C114	C	-0.203184	-0.653088	0.921465
H115	H	-0.158450	-0.715179	0.831174
H116	H	-0.120445	-0.770374	0.891807
H117	H	-0.133391	-0.623629	0.821896
H118	H	-0.095398	-0.678799	0.882533
H119	H	-0.203322	-0.696392	0.964989
H120	H	-0.241321	-0.641200	0.904350
H121	H	-0.212158	-0.612283	0.933098
H122	H	-0.101359	-0.214623	0.833209
C123	C	0.125836	-0.214641	0.847661
C124	C	0.198913	-0.214659	0.820522
C125	C	0.213046	-0.214714	0.876299
H126	H	0.091379	-0.171246	0.861342
H127	H	0.120320	-0.258073	0.890226
H128	H	0.204421	-0.171231	0.777971
H129	H	0.233384	-0.258051	0.806846
H130	H	0.207530	-0.258147	0.918863
H131	H	0.178585	-0.171318	0.889976
H132	H	0.262631	-0.214734	0.857895
H133	H	-0.059121	-0.592825	1.253304
H134	H	0.259468	-0.815577	0.556577
C135	C	0.232931	-0.972600	1.253134
C136	C	0.250126	-0.985872	1.189083
C137	C	0.306188	-1.055563	1.188943
H138	H	0.276432	-0.972767	1.253112
H139	H	0.215786	-1.010709	1.296508
H140	H	0.267273	-0.947773	1.145721
H141	H	0.206641	-0.985720	1.189092
H142	H	0.289043	-1.093673	1.232317
H143	H	0.349684	-1.055724	1.188923
H144	H	0.317857	-1.064581	1.145489
H145	H	0.259199	-0.214112	0.556156
H146	H	0.217133	-0.730478	1.253340
H147	H	-0.058496	-0.816008	1.253133
C148	C	0.637895	-0.926873	0.893751
C149	C	0.637918	-0.990818	0.893653
C150	C	0.637962	-1.047017	0.963281
H151	H	0.681305	-0.938720	0.902929
H152	H	0.594486	-0.909774	0.931874
H153	H	0.681322	-1.007914	0.855541
H154	H	0.594510	-0.978995	0.884488
H155	H	0.594553	-1.029918	1.001404
H156	H	0.681373	-1.058857	0.972453
H157	H	0.637971	-1.090407	0.963226
C158	C	0.032566	-0.573781	0.541533
C159	C	-0.027605	-0.560589	0.524461
C160	C	-0.041549	-0.490881	0.468474
H161	H	0.020665	-0.535665	0.558684
H162	H	0.075827	-0.573566	0.497976
H163	H	-0.070857	-0.560798	0.568010
H164	H	-0.015720	-0.598687	0.507299
H165	H	0.001712	-0.490666	0.424917
H166	H	-0.053448	-0.452771	0.485630
H167	H	-0.082372	-0.481924	0.456879
C168	C	0.003362	-0.648855	1.080525
C169	C	-0.035679	-0.603784	1.029465
C170	C	-0.112742	-0.584722	1.068519
H171	H	-0.009573	-0.693099	1.111092
H172	H	-0.009496	-0.622238	1.111078
H173	H	-0.022826	-0.630401	0.998925
H174	H	-0.022767	-0.559531	0.998896
H175	H	-0.125600	-0.558105	1.099071
H176	H	-0.125669	-0.628969	1.099085
H177	H	-0.139241	-0.554134	1.033881
C178	C	0.125513	-0.972779	0.847959
C179	C	0.198559	-1.018838	0.820925
C180	C	0.212543	-1.088660	0.876759
H181	H	0.119980	-0.966398	0.890534
H182	H	0.090986	-0.995288	0.861589
H183	H	0.233076	-0.996334	0.807305
H184	H	0.204109	-1.025240	0.778357
H185	H	0.178016	-1.111169	0.890389
H186	H	0.207007	-1.082271	0.919331
H187	H	0.262103	-1.119921	0.858422
C188	C	0.637710	-0.926025	0.647766
C189	C	0.637618	-0.898875	0.574712
C190	C	0.637595	-0.954636	0.560634
H191	H	0.681136	-0.968608	0.653254
H192	H	0.594317	-0.939677	0.682280
H193	H	0.681007	-0.885234	0.540208
H194	H	0.594195	-0.856299	0.569207
H195	H	0.594202	-0.968288	0.595148
H196	H	0.681022	-0.997216	0.566126
H197	H	0.637526	-0.936220	0.511069
H198	H	0.637457	-0.634634	0.514159
H199	H	0.303780	-0.722782	0.927774
C200	C	0.270360	-0.782530	1.080505
C201	C	0.315303	-0.847768	1.061435
C202	C	0.366308	-0.892956	1.100539
H203	H	0.300989	-0.756035	1.067686
H204	H	0.243838	-0.795438	1.132793
H205	H	0.341823	-0.834860	1.009159
H206	H	0.284694	-0.874283	1.074257
H207	H	0.339786	-0.905864	1.152827
H208	H	0.396932	-0.866455	1.087716
H209	H	0.396803	-0.937228	1.087611
C210	C	0.003198	-0.648889	0.819163
C211	C	-0.035790	-0.603881	0.864243
C212	C	-0.112864	-0.584914	0.883333
H213	H	-0.009789	-0.622257	0.774933
H214	H	-0.009653	-0.693192	0.845779
H215	H	-0.022945	-0.559586	0.837627
H216	H	-0.022826	-0.630498	0.908482
H217	H	-0.125715	-0.629216	0.909949
H218	H	-0.125843	-0.558285	0.839100
H219	H	-0.139327	-0.554380	0.913927
H220	H	0.256252	-0.770113	0.697763
C221	C	0.324588	-0.727806	0.739824
C222	C	0.356775	-0.701153	0.661879
C223	C	0.433836	-0.720003	0.642745
H224	H	0.332949	-0.705807	0.761755
H225	H	0.346670	-0.780679	0.757776
H226	H	0.334701	-0.648290	0.643935
H227	H	0.348436	-0.723147	0.639930
H228	H	0.455919	-0.772877	0.660697
H229	H	0.442190	-0.698003	0.664681
H230	H	0.455687	-0.701928	0.589858
C231	C	0.301774	-0.793494	0.857079
C232	C	0.352867	-0.866029	0.861184
C233	C	0.313855	-0.916487	0.898367
H234	H	0.271232	-0.791597	0.906199
H235	H	0.271203	-0.780422	0.830386
H236	H	0.383426	-0.879098	0.887878
H237	H	0.383411	-0.867951	0.812075
H238	H	0.283283	-0.903415	0.871674
H239	H	0.283314	-0.914583	0.947484
H240	H	0.348515	-0.965707	0.901151
H241	H	0.071542	-0.606694	0.861281
H242	H	0.454413	-0.827107	0.799589
H243	H	0.312222	-0.549720	0.759316
C244	C	0.464947	-0.583390	0.701658
C245	C	0.445859	-0.530612	0.637526
C246	C	0.484979	-0.480219	0.600134
H247	H	0.452155	-0.558540	0.733810
H248	H	0.517230	-0.609861	0.687632
H249	H	0.393588	-0.504144	0.651554
H250	H	0.458654	-0.555441	0.605356
H251	H	0.537262	-0.506690	0.586108
H252	H	0.472183	-0.455375	0.632292
H253	H	0.472039	-0.444408	0.556613
C254	C	0.257737	-0.550568	0.673200
C255	C	0.268650	-0.499473	0.600155
C256	C	0.313626	-0.538492	0.549083
H257	H	0.304757	-0.581137	0.680604
H258	H	0.233814	-0.581119	0.680693
H259	H	0.292574	-0.468935	0.592665
H260	H	0.221644	-0.468902	0.592727
H261	H	0.289703	-0.569043	0.556576
H262	H	0.360643	-0.569060	0.556494
H263	H	0.321031	-0.503831	0.499516
H264	H	0.198119	-0.397913	0.639797
H265	H	0.082193	-0.397958	0.871963
H266	H	0.129609	-0.540114	0.919306
