data_functionalizedCrystal
_audit_creation_method	'MofGen! by Chris Wilmer'
_symmetry_space_group_name_H-M	'P1'
_symmetry_Int_Tables_number	1
_symmetry_cell_setting	triclinic
loop_
_symmetry_equiv_pos_as_xyz
  x,y,z
_cell_length_a	12.837943
_cell_length_b	11.026607
_cell_length_c	9.482900
_cell_angle_alpha	101.400185
_cell_angle_beta	79.713792
_cell_angle_gamma	101.707478
loop_
_atom_site_label
_atom_site_type_symbol
_atom_site_fract_x
_atom_site_fract_y
_atom_site_fract_z
O1	O	1.448507	0.304923	-0.120860
O2	O	1.143730	0.288994	-0.120869
O3	O	1.270858	0.117385	-0.120860
O4	O	1.321378	0.476532	-0.120869
O5	O	1.245064	0.152398	0.120930
O6	O	1.117936	0.324007	0.120921
O7	O	1.422713	0.339936	0.120930
Cu8	Cu	1.267969	0.335168	0.143003
Cu9	Cu	1.298473	0.293761	-0.142942
O10	O	1.295585	0.511545	0.120921
C11	C	1.091209	0.301120	0.000025
C12	C	0.973137	0.285072	0.000021
C13	C	1.248642	0.088603	0.000033
C14	C	1.220859	-0.049325	0.000027
C15	C	1.297573	-0.114260	0.000027
C16	C	1.268860	-0.256815	0.000021
C17	C	0.768177	0.477992	0.000037
C18	C	0.657239	0.462920	0.000035
C19	C	0.640320	0.239857	0.000025
C20	C	0.751258	0.254930	0.000027
C21	C	0.815183	0.374000	0.000031
C22	C	0.926124	0.389070	0.000023
C23	C	0.909202	0.166011	0.000023
C24	C	0.798264	0.150938	0.000021
C25	C	1.475235	0.327809	0.000033
C26	C	1.593307	0.343856	0.000027
C27	C	1.317802	0.540326	0.000025
C28	C	1.345585	0.678253	0.000021
N29	N	1.246522	0.364292	0.344122
N30	N	1.319927	0.264629	-0.344061
C31	C	1.292139	0.302344	0.416324
C32	C	1.274304	0.326586	0.583740
H33	H	1.384506	-0.064314	0.000039
O34	O	0.959906	0.053843	0.000026
H35	H	0.896814	-0.031482	0.000015
O36	O	1.361326	0.208276	0.334051
H37	H	1.364463	0.203983	0.215466
O38	O	0.995077	0.517490	0.000028
H39	H	1.035518	0.543948	0.098574
H40	H	0.746200	0.053996	0.000035
O41	O	0.571359	0.111444	0.000048
H42	H	0.530918	0.084966	-0.098499
O43	O	1.205081	0.420624	0.666008
H44	H	1.201943	0.424916	0.784593
O45	O	1.153693	-0.322947	0.000027
H46	H	1.149212	-0.424535	0.000037
H47	H	0.820226	0.574944	0.000038
H48	H	0.618971	0.547601	0.000044
H49	H	1.194259	0.435269	0.406248
O50	O	1.460751	-0.255616	0.000032
H51	H	1.465233	-0.154023	0.000047
O52	O	1.105698	-0.115462	0.000033
H53	H	1.101216	-0.217050	0.000043
O54	O	1.389149	0.170588	0.573674
H55	H	1.392298	0.166304	0.455089
