data_functionalizedCrystal
_audit_creation_method	'MofGen! by Chris Wilmer'
_symmetry_space_group_name_H-M	'P1'
_symmetry_Int_Tables_number	1
_symmetry_cell_setting	triclinic
loop_
_symmetry_equiv_pos_as_xyz
  x,y,z
_cell_length_a	27.440280
_cell_length_b	20.016444
_cell_length_c	27.440280
_cell_angle_alpha	60.007398
_cell_angle_beta	90.005633
_cell_angle_gamma	59.997619
loop_
_atom_site_label
_atom_site_type_symbol
_atom_site_fract_x
_atom_site_fract_y
_atom_site_fract_z
Zr1	Zr	0.469504	0.731163	-0.063864
Zr2	Zr	0.969504	1.231163	0.436136
O3	O	0.391688	0.870536	-0.141678
O4	O	0.891688	1.370536	0.358322
O5	O	0.493359	0.591791	-0.040013
O6	O	0.993359	1.091791	0.459987
O7	O	0.493362	0.731147	-0.141671
O8	O	0.993362	1.231147	0.358329
O9	O	0.391683	0.731193	0.040173
O10	O	0.891683	1.231193	0.540173
O11	O	0.573565	0.731134	-0.141661
O12	O	1.073565	1.231134	0.358339
O13	O	0.391685	0.731180	-0.040021
O14	O	0.891685	1.231180	0.459979
O15	O	0.573560	0.481851	0.040186
O16	O	1.073560	0.981851	0.540186
O17	O	0.391688	0.980476	-0.141674
O18	O	0.891688	1.480476	0.358326
O19	O	0.563388	0.649107	-0.029829
O20	O	1.063388	1.149107	0.470171
O21	O	0.503532	0.649126	0.030011
O22	O	1.003532	1.149126	0.530011
O23	O	0.503535	0.813200	-0.089678
O24	O	1.003535	1.313200	0.410322
O25	O	0.443679	0.813220	-0.029838
O26	O	0.943679	1.313220	0.470162
Zr27	Zr	0.597415	0.731164	0.064051
Zr28	Zr	1.097415	1.231164	0.564051
Zr29	Zr	0.597419	0.731143	-0.063848
Zr30	Zr	1.097419	1.231143	0.436152
Zr31	Zr	0.469501	0.731184	0.064035
Zr32	Zr	0.969501	1.231184	0.564035
Zr33	Zr	0.469505	0.906504	-0.063858
Zr34	Zr	0.969505	1.406504	0.436142
Zr35	Zr	0.597415	0.555823	0.064045
Zr36	Zr	1.097415	1.055823	0.564045
O37	O	0.573560	0.870536	0.040200
O38	O	1.073560	1.370536	0.540200
O39	O	0.573565	0.870507	-0.141656
O40	O	1.073565	1.370507	0.358344
O41	O	0.391683	0.870565	0.040178
O42	O	0.891683	1.370565	0.540178
O43	O	0.675232	0.591791	0.141866
O44	O	1.175232	1.091791	0.641866
O45	O	0.675237	0.591762	-0.039990
O46	O	1.175237	1.091762	0.460010
O47	O	0.493354	0.591820	0.141843
O48	O	0.993354	1.091820	0.641843
O49	O	0.675237	0.731134	-0.039985
O50	O	1.175237	1.231134	0.460015
O51	O	0.573557	0.731180	0.141858
O52	O	1.073557	1.231180	0.641858
O53	O	0.493355	0.731193	0.141848
O54	O	0.993355	1.231193	0.641848
O55	O	0.675235	0.731147	0.040208
O56	O	1.175235	1.231147	0.540208
O57	O	0.493363	0.980459	-0.141662
O58	O	0.993363	1.480459	0.358338
O59	O	0.573557	0.481868	0.141849
O60	O	1.073557	0.981868	0.641849
O61	O	0.675232	0.481851	0.141862
O62	O	1.175232	0.981851	0.641862
O63	O	0.675234	0.481835	0.040199
O64	O	1.175234	0.981835	0.540199
O65	O	0.391685	0.980492	-0.040012
O66	O	0.891685	1.480492	0.459988
O67	O	0.493360	0.980476	-0.039999
O68	O	0.993360	1.480476	0.460001
O69	O	0.563384	0.649126	0.089865
O70	O	1.063384	1.149126	0.589865
O71	O	0.623240	0.649107	0.030026
O72	O	1.123240	1.149107	0.530026
O73	O	0.563388	0.813201	-0.029823
O74	O	1.063388	1.313201	0.470177
O75	O	0.503532	0.813220	0.030017
O76	O	1.003532	1.313220	0.530017
C77	C	0.533459	0.511839	0.000086
C78	C	1.033459	1.011839	0.500086
C79	C	0.533459	0.437402	0.000083
C80	C	1.033459	0.937402	0.500083
C81	C	0.564706	0.266122	-0.031143
C82	C	1.064706	0.766122	0.468857
C83	C	0.564707	0.196174	-0.031138
C84	C	1.064707	0.696174	0.468862
C85	C	0.502213	0.196208	0.031334
C86	C	1.002213	0.696208	0.531334
C87	C	0.502215	0.266149	0.031333
C88	C	1.002215	0.766149	0.531333
C89	C	0.533460	0.301108	0.000091
C90	C	1.033460	0.801108	0.500091
C91	C	0.533460	0.161219	0.000097
C92	C	1.033460	0.661219	0.500097
C93	C	0.533461	0.085379	0.000102
C94	C	1.033461	0.585379	0.500102
C95	C	0.533459	0.376952	0.000086
C96	C	1.033459	0.876952	0.500086
C97	C	0.373459	0.731189	0.000074
C98	C	0.873459	1.231189	0.500074
C99	C	0.319156	0.731198	0.000067
C100	C	0.819156	1.231198	0.500067
C101	C	0.013700	0.645493	0.031351
C102	C	0.513700	1.145493	0.531351
C103	C	-0.037318	0.645488	0.031356
C104	C	0.462682	1.145488	0.531356
O105	O	-0.037136	0.572641	0.057943
O106	O	0.462864	1.072641	0.557943
N107	N	-0.094077	0.731142	0.000115
N108	N	0.405923	1.231142	0.500115
C109	C	-0.099817	0.816807	-0.031129
C110	C	0.400183	1.316807	0.468871
O111	O	-0.152780	0.889662	-0.057701
O112	O	0.347220	1.389662	0.442299
C113	C	-0.048799	0.816811	-0.031130
C114	C	0.451201	1.316811	0.468870
C115	C	0.007959	0.731151	0.000108
C116	C	0.507959	1.231151	0.500108
C117	C	0.070456	0.559840	0.062587
C118	C	0.570456	1.059840	0.562587
C119	C	0.121471	0.559846	0.062580
C120	C	0.621471	1.059846	0.562580
C121	C	0.115730	0.645504	0.031338
C122	C	0.615730	1.145504	0.531338
C123	C	0.058974	0.731157	0.000102
C124	C	0.558974	1.231157	0.500102
C125	C	-0.054540	0.902475	-0.062370
C126	C	0.445460	1.402475	0.437630
C127	C	-0.003516	0.902472	-0.062368
C128	C	0.496484	1.402472	0.437632
C129	C	0.053243	0.816812	-0.031130
C130	C	0.553243	1.316812	0.468870
C131	C	0.104248	0.816821	-0.031147
C132	C	0.604248	1.316821	0.468853
N133	N	0.161007	0.731167	0.000094
N134	N	0.661007	1.231167	0.500094
C135	C	0.166748	0.645508	0.031336
C136	C	0.666748	1.145508	0.531336
C137	C	-0.206956	0.816791	-0.031122
C138	C	0.293044	1.316791	0.468878
C139	C	-0.257973	0.816788	-0.031125
C140	C	0.242027	1.316788	0.468875
C141	C	-0.195470	0.645469	0.031361
C142	C	0.304530	1.145469	0.531361
C143	C	-0.144452	0.645473	0.031359
C144	C	0.355548	1.145473	0.531359
C145	C	-0.150197	0.731137	0.000119
C146	C	0.349803	1.231137	0.500119
C147	C	0.273880	0.645526	0.031320
C148	C	0.773880	1.145526	0.531320
C149	C	0.324897	0.645540	0.031309
C150	C	0.824897	1.145540	0.531309
C151	C	0.262390	0.816858	-0.031174
C152	C	0.762390	1.316858	0.468826
C153	C	0.211378	0.816846	-0.031165
C154	C	0.711378	1.316846	0.468835
C155	C	0.217127	0.731172	0.000086
C156	C	0.717127	1.231172	0.500086
O157	O	0.104111	0.889630	-0.057719
O158	O	0.604111	1.389630	0.442281
O159	O	0.219712	0.572666	0.057910
O160	O	0.719712	1.072666	0.557910
C161	C	0.693461	0.731138	0.000114
C162	C	1.193461	1.231138	0.500114
C163	C	0.747764	0.731129	0.000120
C164	C	1.247764	1.231129	0.500120
C165	C	0.533464	0.731138	-0.159889
C166	C	1.033464	1.231138	0.340111
C167	C	0.533466	0.731129	-0.214185
C168	C	1.033466	1.231129	0.285815
C169	C	0.533460	0.950488	0.000102
C170	C	1.033460	1.450488	0.500102
C171	C	0.533460	1.024925	0.000104
C172	C	1.033460	1.524925	0.500104
C173	C	0.564715	0.645493	-0.417653
C174	C	1.064715	1.145493	0.082347
C175	C	0.564717	0.645488	-0.366630
C176	C	1.064717	1.145488	0.133370
O177	O	0.591304	0.572641	-0.313674
O178	O	1.091304	1.072641	0.186326
N179	N	0.533472	0.731142	-0.372354
N180	N	1.033472	1.231142	0.127646
C181	C	0.502228	0.816807	-0.429104
C182	C	1.002228	1.316807	0.070896
O183	O	0.475652	0.889661	-0.429286
O184	O	0.975652	1.389661	0.070714
C185	C	0.502230	0.816811	-0.480125
C186	C	1.002230	1.316811	0.019875
C187	C	0.533472	0.731151	-0.474397
C188	C	1.033472	1.231151	0.025603
C189	C	0.595956	0.559840	-0.411928
C190	C	1.095956	1.059840	0.088072
C191	C	0.595953	0.559846	-0.462946
C192	C	1.095953	1.059846	0.037054
C193	C	0.564710	0.645504	-0.519691
C194	C	1.064710	1.145504	-0.019691
C195	C	0.533470	0.731157	-0.525416
C196	C	1.033470	1.231157	-0.025416
C197	C	0.470990	0.902475	-0.536873
C198	C	0.970990	1.402475	-0.036873
C199	C	0.470995	0.902472	-0.587895
C200	C	0.970995	1.402472	-0.087895
C201	C	0.502238	0.816812	-0.582167
C202	C	1.002238	1.316812	-0.082167
C203	C	0.502224	0.816821	-0.633179
C204	C	1.002224	1.316821	-0.133179
N205	N	0.533470	0.731167	-0.627456
N206	N	1.033470	1.231167	-0.127456
C207	C	0.564713	0.645508	-0.570712
C208	C	1.064713	1.145508	-0.070712
C209	C	0.502226	0.816791	-0.321954
C210	C	1.002226	1.316791	0.178046
C211	C	0.502220	0.816788	-0.270934
C212	C	1.002220	1.316788	0.229066
C213	C	0.564710	0.645468	-0.208464
C214	C	1.064710	1.145468	0.291536
C215	C	0.564712	0.645473	-0.259485
C216	C	1.064712	1.145473	0.240515
C217	C	0.533471	0.731137	-0.316231
C218	C	1.033471	1.231137	0.183769
C219	C	0.564704	0.645527	-0.677857
C220	C	1.064704	1.145527	-0.177857
C221	C	0.564697	0.645540	-0.728883
C222	C	1.064697	1.145540	-0.228883
C223	C	0.502209	0.816859	-0.791349
C224	C	1.002209	1.316859	-0.291349
C225	C	0.502214	0.816846	-0.740327
C226	C	1.002214	1.316846	-0.240327
C227	C	0.533466	0.731172	-0.683580
C228	C	1.033466	1.231172	-0.183580
O229	O	0.475653	0.889630	-0.686154
O230	O	0.975653	1.389630	-0.186154
O231	O	0.591290	0.572666	-0.570539
O232	O	1.091290	1.072666	-0.070539
C233	C	0.533455	0.731189	0.160076
C234	C	1.033455	1.231189	0.660076
C235	C	0.533454	0.731198	0.214372
C236	C	1.033454	1.231198	0.714372
C237	C	0.693461	0.511813	0.000106
C238	C	1.193461	1.011813	0.500106
C239	C	0.747763	0.437367	0.000110
C240	C	1.247763	0.937367	0.500110
C241	C	0.533455	0.511865	0.160068
C242	C	1.033455	1.011865	0.660068
C243	C	0.533453	0.437436	0.214362
C244	C	1.033453	0.937436	0.714362
C245	C	0.693456	0.511839	0.160088
C246	C	1.193456	1.011839	0.660088
C247	C	0.747757	0.437402	0.214389
C248	C	1.247757	0.937402	0.714389
C249	C	0.373463	0.950488	-0.159901
C250	C	0.873463	1.450488	0.340099
C251	C	0.319162	1.024925	-0.214201
C252	C	0.819162	1.524925	0.285799
C253	C	0.373459	0.950514	0.000082
C254	C	0.873459	1.450514	0.500082
C255	C	0.319156	1.024960	0.000078
C256	C	0.819156	1.524960	0.500078
C257	C	0.533465	0.950462	-0.159881
C258	C	1.033465	1.450462	0.340119
C259	C	0.533466	1.024890	-0.214174
C260	C	1.033466	1.524890	0.285826
C261	C	0.742022	0.402407	-0.031137
C262	C	1.242022	0.902407	0.468863
C263	C	0.793040	0.332467	-0.031146
C264	C	1.293040	0.832467	0.468854
C265	C	0.849799	0.297484	0.000097
C266	C	1.349799	0.797484	0.500097
C267	C	0.855540	0.332452	0.031345
C268	C	1.355540	0.832452	0.531345
C269	C	0.804522	0.402395	0.031350
C270	C	1.304522	0.902395	0.531350
C271	C	0.564695	0.402484	0.271108
C272	C	1.064695	0.902484	0.771108
C273	C	0.564691	0.332561	0.322127
C274	C	1.064691	0.832561	0.822127
C275	C	0.533449	0.297586	0.316400
C276	C	1.033449	0.797586	0.816400
C277	C	0.502203	0.332545	0.259648
C278	C	1.002203	0.832545	0.759648
C279	C	0.502204	0.402472	0.208629
C280	C	1.002204	0.902472	0.708629
C281	C	0.804508	0.402436	0.208653
C282	C	1.304508	0.902436	0.708653
C283	C	0.855534	0.332504	0.259669
C284	C	1.355534	0.832504	0.759669
C285	C	0.849810	0.297535	0.316421
C286	C	1.349810	0.797535	0.816421
C287	C	0.793054	0.332509	0.322155
C288	C	1.293054	0.832509	0.822155
C289	C	0.742028	0.402444	0.271139
C290	C	1.242028	0.902444	0.771139
C291	C	0.262412	1.059900	-0.208466
C292	C	0.762412	1.559900	0.291534
C293	C	0.211385	1.129853	-0.259482
C294	C	0.711385	1.629853	0.240518
C295	C	0.217110	1.164825	-0.316233
C296	C	0.717110	1.664825	0.183767
C297	C	0.273866	1.129848	-0.321968
C298	C	0.773866	1.629848	0.178032
C299	C	0.324891	1.059900	-0.270952
C300	C	0.824891	1.559900	0.229048
C301	C	0.324898	1.059927	0.031319
C302	C	0.824898	1.559927	0.531319
C303	C	0.273879	1.129886	0.031313
C304	C	0.773879	1.629886	0.531313
C305	C	0.217120	1.164872	0.000069
C306	C	0.717120	1.664872	0.500069
C307	C	0.211380	1.129901	-0.031177
C308	C	0.711380	1.629901	0.468823
C309	C	0.262398	1.059948	-0.031174
C310	C	0.762398	1.559948	0.468826
C311	C	0.564715	1.059843	-0.208428
C312	C	1.064715	1.559843	0.291572
C313	C	0.564728	1.129767	-0.259438
C314	C	1.064728	1.629767	0.240562
C315	C	0.533489	1.164742	-0.316194
C316	C	1.033489	1.664742	0.183806
C317	C	0.502239	1.129782	-0.321939
C318	C	1.002239	1.629782	0.178061
C319	C	0.502230	1.059855	-0.270930
C320	C	1.002230	1.559855	0.229070
H321	H	0.476774	0.167737	0.056770
H322	H	0.976774	0.667737	0.556770
C323	C	0.786764	0.294028	0.384583
C324	C	1.286764	0.794028	0.884583
H325	H	0.825284	0.247362	0.414140
H326	H	1.325284	0.747362	0.914140
H327	H	0.765565	0.344228	0.389070
H328	H	1.265565	0.844228	0.889070
H329	H	0.765572	0.266731	0.389057
H330	H	1.265572	0.766731	0.889057
H331	H	0.891337	0.240531	0.000090
H332	H	1.391337	0.740531	0.500090
H333	H	0.590151	0.167689	-0.056571
H334	H	1.090151	0.667689	0.443429
C335	C	0.280204	1.168332	0.065691
C336	C	0.780204	1.668332	0.565691
H337	H	0.321315	1.137461	0.084307
H338	H	0.821315	1.637461	0.584307
H339	H	0.261609	1.234360	0.038734
H340	H	0.761609	1.734360	0.538734
H341	H	0.261597	1.156873	0.095253
H342	H	0.761597	1.656873	0.595253
H343	H	0.371099	1.031424	-0.275629
H344	H	0.871099	1.531424	0.224371
H345	H	0.175583	1.221832	0.000071
H346	H	0.675583	1.721832	0.500071
H347	H	0.476771	0.294634	0.056769
H348	H	0.976771	0.794634	0.556769
H349	H	0.809205	0.430851	0.056798
H350	H	1.309205	0.930851	0.556798
H351	H	0.788355	0.304005	-0.056591
H352	H	1.288355	0.804005	0.443409
H353	H	0.901743	0.304036	0.254989
H354	H	1.401743	0.804036	0.754989
H355	H	0.167683	0.490093	0.088015
H356	H	0.667683	0.990093	0.588015
H357	H	0.533453	0.240648	0.357947
H358	H	1.033453	0.740648	0.857947
H359	H	0.476781	1.031404	-0.275617
H360	H	0.976781	1.531404	0.224383
H361	H	0.165160	1.158397	-0.056615
H362	H	0.665160	1.658397	0.443385
H363	H	0.371109	1.031448	0.056766
H364	H	0.871109	1.531448	0.556766
C365	C	0.160980	1.241761	-0.372347
C366	C	0.660980	1.741761	0.127653
H367	H	0.172513	1.257589	-0.406971
H368	H	0.672513	1.757589	0.093029
H369	H	0.137899	1.218837	-0.372348
H370	H	0.637899	1.718837	0.127652
H371	H	0.137904	1.296333	-0.372344
H372	H	0.637904	1.796333	0.127656
H373	H	0.257715	1.031479	-0.056613
H374	H	0.757715	1.531479	0.443387
H375	H	0.901760	0.303958	0.056782
H376	H	1.401760	0.803958	0.556782
H377	H	0.476767	0.304059	0.254993
H378	H	0.976767	0.804059	0.754993
H379	H	0.590153	1.031377	-0.162219
H380	H	1.090153	1.531377	0.337781
H381	H	0.165161	0.886597	-0.056610
H382	H	0.665161	1.386597	0.443390
C383	C	0.467849	0.911075	-0.853771
C384	C	0.967849	1.411075	-0.353771
H385	H	0.472331	0.898803	-0.883333
H386	H	0.972331	1.398803	-0.383333
H387	H	0.426743	0.946287	-0.858257
H388	H	0.926743	1.446287	-0.358257
H389	H	0.483288	0.946256	-0.858236
H390	H	0.983288	1.446256	-0.358236
H391	H	0.891363	0.240590	0.357956
H392	H	1.391363	0.740590	0.857956
H393	H	0.476765	0.430921	0.162426
H394	H	0.976765	0.930921	0.662426
C395	C	0.679594	0.440881	-0.065511
C396	C	1.179594	0.940881	0.434489
H397	H	0.683490	0.410043	-0.084125
H398	H	1.183490	0.910043	0.415875
H399	H	0.658386	0.429425	-0.038553
H400	H	1.158386	0.929425	0.461447
H401	H	0.658395	0.506915	-0.095074
H402	H	1.158395	1.006915	0.404926
C403	C	-0.189162	0.551245	0.065736
C404	C	0.310838	1.051245	0.565736
H405	H	-0.227677	0.563518	0.061266
H406	H	0.272323	1.063518	0.561266
H407	H	-0.167964	0.516034	0.050315
H408	H	0.332036	1.016034	0.550315
H409	H	-0.167962	0.516064	0.106838
H410	H	0.332038	1.016064	0.606838
C411	C	0.387330	0.551310	0.065677
C412	C	0.887330	1.051310	0.565677
H413	H	0.383438	0.500297	0.084289
H414	H	0.883438	1.000297	0.584289
H415	H	0.408531	0.547740	0.038713
H416	H	0.908531	1.047740	0.538713
H417	H	0.408532	0.547758	0.095241
H418	H	0.908532	1.047758	0.595241
C419	C	-0.320402	0.911013	-0.065491
C420	C	0.179598	1.411013	0.434509
H421	H	-0.316508	0.962024	-0.084093
H422	H	0.183492	1.462024	0.415907
H423	H	-0.341610	0.914575	-0.095053
H424	H	0.158390	1.414575	0.404947
H425	H	-0.341598	0.914579	-0.038520
H426	H	0.158402	1.414579	0.461480
H427	H	0.257739	1.031429	-0.162260
H428	H	0.757739	1.531429	0.337740
C429	C	0.599096	1.168220	-0.253107
C430	C	1.099096	1.668220	0.246893
H431	H	0.617688	1.137385	-0.211999
H432	H	1.117688	1.637385	0.288001
H433	H	0.628670	1.156747	-0.271697
H434	H	1.128670	1.656747	0.228303
H435	H	0.572124	1.234257	-0.271712
H436	H	1.072124	1.734257	0.228288
H437	H	0.533501	1.221681	-0.357724
H438	H	1.033501	1.721681	0.142276
H439	H	0.590137	0.430953	0.275783
H440	H	1.090137	0.930953	0.775783
C441	C	0.599065	0.551245	-0.146039
C442	C	1.099065	1.051245	0.353961
H443	H	0.594587	0.563517	-0.116477
H444	H	1.094587	1.063517	0.383523
H445	H	0.583627	0.516068	-0.141580
H446	H	1.083627	1.016068	0.358420
H447	H	0.640175	0.516029	-0.141547
H448	H	1.140175	1.016029	0.358453
H449	H	0.476805	1.158270	-0.368157
H450	H	0.976805	1.658270	0.131843
H451	H	0.278570	0.575763	0.056769
H452	H	0.778570	1.075763	0.556769
H453	H	0.695822	0.430904	0.275818
H454	H	1.195822	0.930904	0.775818
H455	H	-0.098240	0.575721	0.056802
H456	H	0.401760	1.075721	0.556802
C457	C	0.599081	0.304563	-0.065499
C458	C	1.099081	0.804563	0.434501
H459	H	0.617696	0.273698	-0.084094
H460	H	1.117696	0.773698	0.415906
H461	H	0.572120	0.370593	-0.095066
H462	H	1.072120	0.870593	0.404934
H463	H	0.628649	0.293090	-0.038525
H464	H	1.128649	0.793090	0.461475
H465	H	0.165177	1.158320	-0.254801
H466	H	0.665177	1.658320	0.245199
H467	H	0.809180	0.430897	0.162448
H468	H	1.309180	0.930897	0.662448
C469	C	0.280159	1.168311	-0.384395
C470	C	0.780159	1.668311	0.115605
H471	H	0.321265	1.137470	-0.380510
H472	H	0.821265	1.637470	0.119490
H473	H	0.261545	1.156848	-0.405590
H474	H	0.761545	1.656848	0.094410
H475	H	0.261554	1.234346	-0.405594
H476	H	0.761554	1.734346	0.094406
C477	C	0.076782	0.465608	0.096953
C478	C	0.576782	0.965608	0.596953
H479	H	0.117895	0.414605	0.115549
H480	H	0.617895	0.914605	0.615549
H481	H	0.058185	0.462033	0.126520
H482	H	0.558185	0.962033	0.626520
H483	H	0.058182	0.462040	0.069983
H484	H	0.558182	0.962040	0.569983
C485	C	0.630325	0.465622	-0.456642
C486	C	1.130325	0.965622	0.043358
H487	H	0.625852	0.477880	-0.495152
H488	H	1.125852	0.977880	0.004848
H489	H	0.671427	0.430427	-0.435439
H490	H	1.171427	0.930427	0.064561
H491	H	0.614892	0.430432	-0.435450
H492	H	1.114892	0.930432	0.064550
C493	C	0.599069	0.294110	0.384546
C494	C	1.099069	0.794110	0.884546
H495	H	0.617683	0.324946	0.380646
H496	H	1.117683	0.824946	0.880646
H497	H	0.572107	0.305586	0.405749
H498	H	1.072107	0.805586	0.905749
H499	H	0.628637	0.228073	0.405749
H500	H	1.128637	0.728073	0.905749
H501	H	0.476771	0.886541	-0.275605
H502	H	0.976771	1.386541	0.224395
H503	H	-0.100747	0.972228	-0.087807
H504	H	0.399253	1.472228	0.412193
C505	C	-0.009838	0.996705	-0.096737
C506	C	0.490162	1.496705	0.403263
H507	H	-0.050949	1.047713	-0.115342
H508	H	0.449051	1.547713	0.384658
H509	H	0.008768	1.000275	-0.069776
H510	H	0.508768	1.500275	0.430224
H511	H	0.008759	1.000266	-0.126307
H512	H	0.508759	1.500266	0.373693
C513	C	-0.213281	0.911028	-0.065499
C514	C	0.286719	1.411028	0.434501
H515	H	-0.254392	0.962033	-0.084107
H516	H	0.245608	1.462033	0.415893
H517	H	-0.194679	0.914607	-0.038541
H518	H	0.305321	1.414607	0.461459
H519	H	-0.194682	0.914586	-0.095067
H520	H	0.305318	1.414586	0.404933
C521	C	0.256084	0.911075	-0.065568
C522	C	0.756084	1.411075	0.434432
H523	H	0.294599	0.898802	-0.061099
H524	H	0.794599	1.398802	0.438901
H525	H	0.234883	0.946234	-0.106664
H526	H	0.734883	1.446234	0.393336
H527	H	0.234887	0.946308	-0.050157
H528	H	0.734887	1.446308	0.449843
C529	C	0.599066	0.551311	-0.722579
C530	C	1.099066	1.051311	-0.222579
H531	H	0.617677	0.500297	-0.681475
H532	H	1.117677	1.000297	-0.181475
H533	H	0.572098	0.547752	-0.741187
H534	H	1.072098	1.047752	-0.241187
H535	H	0.628635	0.547745	-0.741178
H536	H	1.128635	1.047745	-0.241178
H537	H	0.590152	0.575763	-0.631657
H538	H	1.090152	1.075763	-0.131657
H539	H	0.621401	0.490083	-0.365727
H540	H	1.121401	0.990083	0.134273
H541	H	0.476780	0.886553	-0.368158
H542	H	0.976780	1.386553	0.131842
C543	C	0.599078	0.551248	-0.253181
C544	C	1.099078	1.051248	0.246819
H545	H	0.617684	0.500238	-0.212076
H546	H	1.117684	1.000238	0.287924
H547	H	0.572111	0.547693	-0.271792
H548	H	1.072111	1.047693	0.228208
H549	H	0.628652	0.547676	-0.271775
H550	H	1.128652	1.047676	0.228225
C551	C	0.436626	0.996702	-0.543186
C552	C	0.936626	1.496702	-0.043186
H553	H	0.418029	1.047709	-0.584291
H554	H	0.918029	1.547709	-0.084291
H555	H	0.407056	1.000282	-0.524591
H556	H	0.907056	1.500282	-0.024591
H557	H	0.463600	1.000256	-0.524578
H558	H	0.963600	1.500256	-0.024578
H559	H	0.445555	0.972231	-0.634099
H560	H	0.945555	1.472231	-0.134099
H561	H	0.476765	0.886597	-0.744992
H562	H	0.976765	1.386597	-0.244992
