data_functionalizedCrystal
_audit_creation_method	'MofGen! by Chris Wilmer'
_symmetry_space_group_name_H-M	'P1'
_symmetry_Int_Tables_number	1
_symmetry_cell_setting	triclinic
loop_
_symmetry_equiv_pos_as_xyz
  x,y,z
_cell_length_a	8.965430
_cell_length_b	14.971486
_cell_length_c	14.971494
_cell_angle_alpha	96.384157
_cell_angle_beta	90.002137
_cell_angle_gamma	89.998857
loop_
_atom_site_label
_atom_site_type_symbol
_atom_site_fract_x
_atom_site_fract_y
_atom_site_fract_z
O1	O	-0.123862	-1.186948	0.116556
O2	O	-0.123902	-0.926548	0.130514
O3	O	-0.123878	-1.063724	-0.006665
O4	O	-0.123886	-1.049773	0.253734
O5	O	0.124201	-1.063712	-0.006656
O6	O	0.124177	-0.926537	0.130523
O7	O	0.124217	-1.186936	0.116565
Cu8	Cu	0.146848	-1.056736	0.123545
Cu9	Cu	-0.146534	-1.056749	0.123534
O10	O	0.124192	-1.049761	0.253744
C11	C	0.000132	-0.893218	0.129895
C12	C	0.000117	-0.793921	0.128024
N13	N	0.353198	-1.056732	0.123552
N14	N	-0.352883	-1.056759	0.123520
C15	C	0.450492	-0.993274	0.186972
C16	C	0.549918	-1.074121	0.204414
C17	C	0.549899	-0.975920	0.106117
C18	C	0.450434	-1.137620	0.141035
C19	C	0.450407	-1.039366	0.042702
C20	C	0.549788	-1.120271	0.060110
C21	C	0.000159	-1.063093	-0.039985
C22	C	0.000152	-1.061219	-0.139281
C23	C	0.000179	-1.220267	0.117184
C24	C	0.000185	-1.319564	0.119055
C25	C	0.000116	-0.736698	0.208613
C26	C	0.000139	-0.643398	0.206850
C27	C	0.000151	-0.607323	0.124497
C28	C	0.000156	-0.664554	0.043902
C29	C	0.000144	-0.757851	0.045666
C30	C	0.000177	-0.470091	0.040231
C31	C	0.000186	-0.376787	0.038466
C32	C	0.000171	-0.355638	0.201415
C33	C	0.000159	-0.448936	0.203179
C34	C	0.000162	-0.506160	0.122583
C35	C	-0.135077	-1.060347	-0.185931
C36	C	-0.135079	-1.058581	-0.279230
C37	C	0.000150	-1.057693	-0.325879
C38	C	0.135390	-1.058562	-0.279222
C39	C	0.135390	-1.060322	-0.185924
C40	C	0.135379	-1.054896	-0.473685
C41	C	0.135379	-1.053138	-0.566990
C42	C	-0.135091	-1.053155	-0.566991
C43	C	-0.135090	-1.054915	-0.473693
C44	C	0.000151	-1.055786	-0.427043
C45	C	0.000152	-1.050392	0.287064
C46	C	0.000150	-1.052266	0.386360
H47	H	0.406894	-0.939658	0.240653
O48	O	-0.280945	-1.055863	-0.423379
H49	H	-0.345796	-1.116440	-0.449194
O50	O	0.607911	-1.093577	0.294950
H51	H	0.568184	-1.040791	0.347492
O52	O	0.281223	-1.052192	-0.617317
H53	H	0.287667	-0.990483	-0.651934
O54	O	0.281246	-1.061264	-0.135605
H55	H	0.287719	-1.122978	-0.100998
H56	H	-0.245208	-1.052444	-0.604978
O57	O	0.392826	-1.228183	0.160664
H58	H	0.269029	-1.227449	0.160560
O59	O	0.607192	-1.191441	-0.010956
H60	H	0.730986	-1.190560	-0.010855
H61	H	0.000176	-0.309041	0.267038
H62	H	-0.245197	-1.057874	-0.317209
H63	H	0.000135	-0.478304	0.270238
H64	H	0.245507	-1.055586	-0.435703
O65	O	0.000218	-0.337871	-0.050354
H66	H	0.000244	-0.393335	-0.106101
O67	O	-0.280940	-1.061298	-0.135625
H68	H	-0.287417	-1.123020	-0.101030
H69	H	0.245496	-1.057834	-0.317210
H70	H	0.406663	-1.024634	-0.025635
H71	H	0.000181	-0.516681	-0.025399
H72	H	0.593594	-0.907567	0.091384
H73	H	0.000187	-0.635174	-0.023152
H74	H	0.000105	-0.766062	0.275674
O75	O	0.000139	-0.581676	0.293770
H76	H	0.000110	-0.622435	0.351330
H77	H	0.000144	-0.804442	-0.019958
