data_functionalizedCrystal
_audit_creation_method	'MofGen! by Chris Wilmer'
_symmetry_space_group_name_H-M	'P1'
_symmetry_Int_Tables_number	1
_symmetry_cell_setting	triclinic
loop_
_symmetry_equiv_pos_as_xyz
  x,y,z
_cell_length_a	17.052832
_cell_length_b	12.478028
_cell_length_c	12.478026
_cell_angle_alpha	60.562461
_cell_angle_beta	107.613343
_cell_angle_gamma	65.450559
loop_
_atom_site_label
_atom_site_type_symbol
_atom_site_fract_x
_atom_site_fract_y
_atom_site_fract_z
Zr1	Zr	0.679097	1.298491	-0.062852
O2	O	0.517066	1.545981	-0.305091
O3	O	0.742006	1.051003	0.031197
O4	O	0.707067	1.298491	-0.226519
O5	O	0.564506	1.298493	0.133404
O6	O	0.841886	1.298490	-0.187051
O7	O	0.552004	1.298493	-0.047375
O8	O	0.904384	0.855778	0.273956
O9	O	0.502008	1.741204	-0.327603
O10	O	0.853456	1.152797	0.076853
O11	O	0.762173	1.152798	0.182312
O12	O	0.721038	1.444184	-0.121115
O13	O	0.629754	1.444185	-0.015656
Zr14	Zr	0.914057	1.298489	0.288417
Zr15	Zr	0.894118	1.298489	0.000095
Zr16	Zr	0.699036	1.298491	0.225470
Zr17	Zr	0.655082	1.609849	-0.098755
Zr18	Zr	0.938072	0.987131	0.324320
O19	O	0.851149	1.545977	0.194368
O20	O	0.822797	1.545978	-0.215589
O21	O	0.545417	1.545981	0.104866
O22	O	1.076089	1.050999	0.530656
O23	O	1.047737	1.051000	0.120700
O24	O	0.770357	1.051003	0.441154
O25	O	1.028648	1.298488	0.092161
O26	O	0.886087	1.298489	0.452084
O27	O	0.751268	1.298491	0.412616
O28	O	1.041151	1.298487	0.272940
O29	O	0.672921	1.741202	-0.277569
O30	O	0.920233	0.855778	0.503134
O31	O	1.091146	0.855776	0.553168
O32	O	1.075297	0.855776	0.323990
O33	O	0.517857	1.741204	-0.098425
O34	O	0.688770	1.741202	-0.048391
O35	O	0.872117	1.152797	0.346680
O36	O	0.963400	1.152796	0.241221
O37	O	0.830982	1.444182	0.043253
O38	O	0.739698	1.444183	0.148712
C39	C	0.826617	0.909029	0.157692
C40	C	0.836812	0.776849	0.172934
C41	C	0.527619	1.298493	0.034046
C42	C	0.436337	1.298494	0.007323
C43	C	0.206590	1.298481	0.330398
C44	C	0.292359	1.298470	0.355514
C45	C	0.328357	1.298476	0.268469
C46	C	0.278579	1.298493	0.156302
C47	C	0.192808	1.298492	0.131192
C48	C	0.314575	1.298487	0.069263
C49	C	0.264797	1.298504	-0.042903
C50	C	0.179034	1.298504	-0.068009
C51	C	0.143035	1.298497	0.019036
C52	C	0.400346	1.298489	0.094373
C53	C	0.386564	1.298499	-0.104833
C54	C	0.300795	1.298511	-0.129949
C55	C	1.065535	1.298487	0.191519
C56	C	1.156817	1.298486	0.218242
C57	C	0.771636	1.298490	-0.247864
C58	C	0.763171	1.298491	-0.370265
C59	C	0.766538	1.687952	0.067873
C60	C	0.756343	1.820131	0.052631
C61	C	0.821518	1.298490	0.473430
C62	C	0.829983	1.298490	0.595830
C63	C	1.095575	0.909026	0.236429
C64	C	1.197052	0.776845	0.278394
C65	C	0.851558	0.909029	0.518339
C66	C	0.870218	0.776849	0.655981
C67	C	1.120516	0.909026	0.597076
C68	C	1.230458	0.776845	0.761441
C69	C	0.472638	1.687955	-0.371511
C70	C	0.362696	1.820136	-0.535876
C71	C	0.497579	1.687955	-0.010864
C72	C	0.396102	1.820135	-0.052828
C73	C	0.741597	1.687952	-0.292774
C74	C	0.722937	1.820132	-0.430416
C75	C	1.187316	0.714772	0.212290
C76	C	1.282653	0.590592	0.251689
C77	C	1.387726	0.528478	0.357200
C78	C	1.397459	0.590563	0.423304
C79	C	1.302122	0.714750	0.383896
C80	C	1.329746	0.714771	0.783582
C81	C	1.433054	0.590590	0.938010
C82	C	1.437072	0.528478	1.070295
C83	C	1.337773	0.590564	1.048146
C84	C	1.234467	0.714751	0.893720
C85	C	0.263407	1.882225	-0.558019
C86	C	0.160096	2.006444	-0.712451
C87	C	0.156077	2.068563	-0.844736
C88	C	0.255377	2.006469	-0.822587
C89	C	0.358685	1.882260	-0.668158
C90	C	0.405836	1.882221	0.013262
C91	C	0.310494	2.006436	-0.026173
C92	C	0.205421	2.068554	-0.131689
C93	C	0.195689	2.006463	-0.197786
C94	C	0.291028	1.882259	-0.158360
C95	C	0.796401	0.822331	0.686472
C96	C	0.813912	0.698152	0.815783
C97	C	0.905244	0.528491	0.914608
C98	C	0.979063	0.483009	0.884107
C99	C	0.961548	0.607187	0.754792
C100	C	0.631600	1.989772	-0.529204
C101	C	0.614063	2.113986	-0.658526
C102	C	0.687859	2.068556	-0.689063
C103	C	0.779205	1.898899	-0.590261
C104	C	0.796746	1.774688	-0.460935
H105	H	0.440869	1.298474	0.185700
Br106	Br	1.343246	0.506250	1.227694
Br107	Br	1.517103	0.359936	0.410666
H108	H	0.893666	1.298480	-0.339552
Br109	Br	0.548424	1.797950	0.156462
Br110	Br	1.269418	0.506357	0.161964
Br111	Br	0.076041	2.237119	-0.185179
H112	H	0.539677	2.252119	-0.738961
Br113	Br	1.324323	0.799048	0.604078
Br114	Br	1.540068	0.506243	0.566501
H115	H	0.839285	1.861932	-0.615145
H116	H	0.110125	2.057059	-0.283701
H117	H	0.913514	0.638657	0.287602
H118	H	0.318441	2.056969	0.027665
Br119	Br	0.657035	1.298472	-0.477945
Br120	Br	0.664037	2.237152	-0.864586
H121	H	1.310065	0.765273	0.437740
Br122	Br	0.444759	1.298463	0.302554
Br123	Br	0.628511	1.050444	-0.138495
Br124	Br	0.672442	1.052575	0.552378
Br125	Br	1.099725	0.798972	0.863699
H126	H	0.871119	1.636561	-0.380512
Br127	Br	0.268831	1.797943	-0.378514
H128	H	1.101767	0.765344	0.126359
H129	H	1.513897	0.540052	0.956016
H130	H	0.332886	1.298453	0.446841
Br131	Br	0.713719	0.759915	0.857149
H132	H	0.415875	1.298500	-0.175709
Br133	Br	1.577285	0.359936	1.279866
H134	H	0.079254	2.056980	-0.730455
Br135	Br	0.015862	2.237134	-1.054311
H136	H	0.439527	1.831708	-0.650145
Br137	Br	0.928999	0.359983	1.090103
Br138	Br	1.103010	0.252746	1.018244
Br139	Br	1.061744	0.545430	0.713437
H140	H	0.138512	1.298499	-0.159329
Br141	Br	0.026621	1.298530	-0.015065
Br142	Br	0.157748	1.298443	0.448540
Br143	Br	0.531427	2.051472	-0.487799
H144	H	0.260256	1.298524	-0.221276
H145	H	0.252091	2.057062	-0.930313
H146	H	0.283088	1.831712	-0.212180
