data_functionalizedCrystal
_audit_creation_method	'MofGen! by Chris Wilmer'
_symmetry_space_group_name_H-M	'P1'
_symmetry_Int_Tables_number	1
_symmetry_cell_setting	triclinic
loop_
_symmetry_equiv_pos_as_xyz
  x,y,z
_cell_length_a	15.944551
_cell_length_b	14.044190
_cell_length_c	13.101039
_cell_angle_alpha	93.663707
_cell_angle_beta	86.646591
_cell_angle_gamma	88.345258
loop_
_atom_site_label
_atom_site_type_symbol
_atom_site_fract_x
_atom_site_fract_y
_atom_site_fract_z
O1	O	1.127905	0.117025	-0.085118
O2	O	1.627905	0.617025	0.414882
O3	O	0.884485	0.132096	-0.085145
O4	O	1.384485	0.632096	0.414855
O5	O	1.002537	-0.013423	-0.085111
O6	O	1.502537	0.486577	0.414889
O7	O	1.009853	0.262545	-0.085151
O8	O	1.509853	0.762545	0.414849
O9	O	0.994068	-0.002965	0.085316
O10	O	1.494068	0.497035	0.585316
O11	O	0.876016	0.142554	0.085283
O12	O	1.376016	0.642554	0.585283
O13	O	1.119436	0.127484	0.085310
O14	O	1.619436	0.627484	0.585310
Zn15	Zn	0.996381	0.136679	0.112355
Zn16	Zn	1.496381	0.636679	0.612355
Zn17	Zn	1.007539	0.122900	-0.112190
Zn18	Zn	1.507539	0.622900	0.387810
O19	O	1.001384	0.273003	0.085277
O20	O	1.501384	0.773003	0.585277
C21	C	0.848910	0.136699	0.000066
C22	C	1.348910	0.636699	0.500066
C23	C	0.755524	0.134823	0.000057
C24	C	1.255524	0.634823	0.500057
C25	C	0.995103	-0.043509	0.000105
C26	C	1.495103	0.456491	0.500105
C27	C	0.985559	-0.148735	0.000113
C28	C	1.485559	0.351265	0.500113
C29	C	1.035799	-0.399020	0.000078
C30	C	1.535799	0.100980	0.500078
C31	C	0.968126	-0.341395	0.000078
C32	C	1.468126	0.158605	0.500078
C33	C	0.977828	-0.234189	0.000097
C34	C	1.477828	0.265811	0.500097
C35	C	1.026098	-0.506236	0.000059
C36	C	1.526098	-0.006236	0.500059
C37	C	0.533574	0.040140	0.000090
C38	C	1.033574	0.540140	0.500090
C39	C	0.480023	0.078952	-0.083946
C40	C	0.980023	0.578952	0.416054
C41	C	0.584543	0.131430	0.000069
C42	C	1.084543	0.631430	0.500069
C43	C	0.471697	0.089284	0.084082
C44	C	0.971697	0.589284	0.584082
C45	C	0.419384	0.128146	0.000086
C46	C	0.919384	0.628146	0.500086
C47	C	0.532226	0.170262	-0.084036
C48	C	1.032226	0.670262	0.415964
C49	C	0.523902	0.180587	0.084067
C50	C	1.023902	0.680587	0.584067
C51	C	0.470374	0.219463	0.000011
C52	C	0.970374	0.719463	0.500011
C53	C	0.679688	0.133319	0.000059
C54	C	1.179688	0.633319	0.500059
C55	C	0.324241	0.126264	0.000089
C56	C	0.824241	0.626264	0.500089
C57	C	1.155011	0.122880	0.000097
C58	C	1.655011	0.622880	0.500097
C59	C	1.248397	0.124756	0.000100
C60	C	1.748397	0.624756	0.500100
C61	C	1.008818	0.303088	0.000058
C62	C	1.508818	0.803088	0.500058
C63	C	1.018362	0.408314	0.000043
C64	C	1.518362	0.908314	0.500043
N65	N	0.988772	0.146083	0.265602
N66	N	1.488772	0.646083	0.765602
N67	N	1.015154	0.113490	-0.265437
N68	N	1.515154	0.613490	0.234563
C69	C	0.978421	0.158885	0.474641
C70	C	1.478421	0.658885	0.974641
C71	C	1.025504	0.100691	0.525530
C72	C	1.525504	0.600691	1.025530
C73	C	1.019744	0.107814	0.641847
C74	C	1.519744	0.607814	1.141847
C75	C	0.984180	0.151763	0.358314
C76	C	1.484180	0.651763	0.858314
H77	H	0.902904	-0.372576	0.000065
H78	H	1.402904	0.127424	0.500065
H79	H	1.101016	-0.367841	0.000096
H80	H	1.601016	0.132159	0.500096
N81	N	0.435913	0.314603	-0.000067
N82	N	0.935913	0.814603	0.499933
N83	N	0.455340	0.365289	-0.072289
N84	N	0.955340	0.865289	0.427711
H85	H	0.431001	0.432481	-0.072349
H86	H	0.931001	0.932481	0.427651
H87	H	0.561237	-0.035630	-0.000003
H88	H	1.061237	0.464370	0.499997
H89	H	0.460550	0.035980	-0.154982
H90	H	0.960550	0.535980	0.345018
N91	N	0.548348	0.234466	0.173180
N92	N	1.048348	0.734466	0.673180
N93	N	0.493567	0.270902	0.237228
N94	N	0.993567	0.770902	0.737228
H95	H	0.510832	0.308951	0.300172
H96	H	1.010832	0.808951	0.800172
N97	N	0.922444	0.228110	0.529563
N98	N	1.422444	0.728110	1.029563
N99	N	0.930877	0.314989	0.517671
N100	N	1.430877	0.814989	1.017671
H101	H	0.891345	0.363882	0.556468
H102	H	1.391345	0.863882	1.056468
H103	H	1.070139	0.045520	0.481741
H104	H	1.570139	0.545520	0.981741
N105	N	0.565363	0.213210	-0.173244
N106	N	1.065363	0.713210	0.326756
N107	N	0.642919	0.221559	-0.187658
N108	N	1.142919	0.721559	0.312342
H109	H	0.666325	0.251896	-0.250656
H110	H	1.166325	0.751896	0.249344
H111	H	0.445187	0.055015	0.155126
H112	H	0.945187	0.555015	0.655126
