data_functionalizedCrystal
_audit_creation_method	'MofGen! by Chris Wilmer'
_symmetry_space_group_name_H-M	'P1'
_symmetry_Int_Tables_number	1
_symmetry_cell_setting	triclinic
loop_
_symmetry_equiv_pos_as_xyz
  x,y,z
_cell_length_a	21.295411
_cell_length_b	12.827893
_cell_length_c	12.827892
_cell_angle_alpha	90.015172
_cell_angle_beta	90.013331
_cell_angle_gamma	90.022557
loop_
_atom_site_label
_atom_site_type_symbol
_atom_site_fract_x
_atom_site_fract_y
_atom_site_fract_z
Zn1	Zn	-0.355914	-1.597705	0.416153
Zn2	Zn	-0.022581	-1.264371	0.749486
Zn3	Zn	0.310753	-0.931038	1.082820
Zn4	Zn	-0.250655	-1.597589	0.590880
Zn5	Zn	0.082678	-1.264256	0.924213
Zn6	Zn	0.416012	-0.930923	1.257547
Zn7	Zn	-0.250663	-1.422936	0.416154
Zn8	Zn	0.082670	-1.089603	0.749487
Zn9	Zn	0.416004	-0.756270	1.082820
Zn10	Zn	-0.355890	-1.422932	0.590853
Zn11	Zn	-0.022557	-1.089599	0.924186
Zn12	Zn	0.310776	-0.756265	1.257519
O13	O	-0.303281	-1.510291	0.503510
O14	O	0.030053	-1.176957	0.836843
O15	O	0.363386	-0.843624	1.170176
O16	O	-0.341958	-1.743926	0.439342
O17	O	-0.008625	-1.410592	0.772675
O18	O	0.324709	-1.077259	1.106009
O19	O	-0.162566	-1.574375	0.567714
O20	O	0.170767	-1.241041	0.901047
O21	O	0.504100	-0.907708	1.234381
O22	O	-0.264638	-1.446170	0.269917
O23	O	0.068695	-1.112836	0.603251
O24	O	0.402029	-0.779503	0.936584
O25	O	-0.264624	-1.743841	0.567713
O26	O	0.068709	-1.410507	0.901047
O27	O	0.402042	-1.077174	1.234380
O28	O	-0.341966	-1.574571	0.269917
O29	O	-0.008632	-1.241238	0.603250
O30	O	0.324701	-0.907905	0.936584
O31	O	-0.162572	-1.446058	0.439343
O32	O	0.170761	-1.112724	0.772677
O33	O	0.504094	-0.779391	1.106010
O34	O	-0.264615	-1.276700	0.439317
O35	O	0.068718	-0.943366	0.772650
O36	O	0.402052	-0.610033	1.105983
O37	O	-0.443983	-1.446163	0.567666
O38	O	-0.110649	-1.112829	0.901000
O39	O	0.222684	-0.779496	1.234333
O40	O	-0.341925	-1.276697	0.567667
O41	O	-0.008592	-0.943363	0.901000
O42	O	0.324742	-0.610030	1.234334
O43	O	-0.444000	-1.574567	0.439315
O44	O	-0.110667	-1.241234	0.772649
O45	O	0.222666	-0.907901	1.105982
O46	O	-0.264601	-1.574371	0.737113
O47	O	0.068732	-1.241037	1.070446
O48	O	0.402066	-0.907704	1.403779
O49	O	-0.341917	-1.446051	0.737092
O50	O	-0.008584	-1.112717	1.070426
O51	O	0.324750	-0.779384	1.403759
C52	C	-0.303269	-1.238781	0.503490
C53	C	0.030065	-0.905447	0.836823
C54	C	0.363398	-0.572114	1.170156
C55	C	-0.303278	-1.122628	0.503506
C56	C	0.030055	-0.789294	0.836840
C57	C	0.363388	-0.455961	1.170173
C58	C	-0.467471	-1.510377	0.503488
C59	C	-0.134138	-1.177044	0.836821
C60	C	0.199196	-0.843711	1.170154
C61	C	-0.537439	-1.510414	0.503478
C62	C	-0.204106	-1.177081	0.836812
C63	C	0.129228	-0.843748	1.170145
C64	C	-0.303269	-1.510226	0.775020
C65	C	0.030064	-1.176893	1.108353
C66	C	0.363397	-0.843560	1.441686
C67	C	-0.303286	-1.510294	0.891173
C68	C	0.030048	-1.176961	1.224506
C69	C	0.363381	-0.843628	1.557839
C70	C	-0.570316	-1.577272	0.436643
C71	C	-0.236982	-1.243938	0.769976
C72	C	0.096351	-0.910605	1.103310
C73	C	-0.636058	-1.577270	0.436598
C74	C	-0.302725	-1.243937	0.769931
C75	C	0.030608	-0.910604	1.103264
C76	C	-0.668922	-1.510422	0.503406
C77	C	-0.335588	-1.177089	0.836740
C78	C	-0.002255	-0.843756	1.170073
C79	C	-0.636037	-1.443552	0.570246
C80	C	-0.302703	-1.110219	0.903580
C81	C	0.030630	-0.776885	1.236913
C82	C	-0.570296	-1.443548	0.570282
C83	C	-0.236962	-1.110215	0.903616
C84	C	0.096371	-0.776881	1.236949
N85	N	-0.772145	-1.502384	0.594824
N86	N	-0.438812	-1.169051	0.928157
N87	N	-0.105478	-0.835718	1.261490
N88	N	-0.834597	-1.502394	0.594786
N89	N	-0.501263	-1.169061	0.928120
N90	N	-0.167930	-0.835728	1.261453
C91	C	-0.866996	-1.510429	0.503300
C92	C	-0.533663	-1.177096	0.836634
C93	C	-0.200330	-0.843762	1.169967
N94	N	-0.834585	-1.518474	0.411851
N95	N	-0.501252	-1.185141	0.745184
N96	N	-0.167919	-0.851807	1.078518
N97	N	-0.772128	-1.518469	0.411889
N98	N	-0.438795	-1.185136	0.745223
N99	N	-0.105462	-0.851803	1.078556
C100	C	-0.740207	-1.510419	0.503374
C101	C	-0.406874	-1.177086	0.836708
C102	C	-0.073540	-0.843752	1.170041
C103	C	-0.971159	-1.577288	0.436410
C104	C	-0.637825	-1.243955	0.769744
C105	C	-0.304492	-0.910622	1.103077
C106	C	-1.036903	-1.577280	0.436363
C107	C	-0.703569	-1.243946	0.769697
C108	C	-0.370236	-0.910613	1.103030
C109	C	-1.036880	-1.443567	0.570021
C110	C	-0.703546	-1.110233	0.903355
C111	C	-0.370213	-0.776900	1.236688
C112	C	-0.971137	-1.443570	0.570059
C113	C	-0.637804	-1.110237	0.903392
C114	C	-0.304471	-0.776903	1.236726
C115	C	-0.938281	-1.510436	0.503255
C116	C	-0.604947	-1.177103	0.836588
C117	C	-0.271614	-0.843770	1.169922
C118	C	-0.139729	-1.510264	0.503456
C119	C	0.193604	-1.176931	0.836790
C120	C	0.526938	-0.843598	1.170123
C121	C	-0.069761	-1.510430	0.503171
C122	C	0.263572	-1.177097	0.836505
C123	C	0.596905	-0.843763	1.169838
C124	C	-0.303293	-1.782861	0.503531
C125	C	0.030040	-1.449527	0.836864
C126	C	0.363374	-1.116194	1.170197
C127	C	-0.303298	-1.899014	0.503540
C128	C	0.030035	-1.565681	0.836873
C129	C	0.363368	-1.232347	1.170206
C130	C	-0.341475	-1.070869	0.567117
C131	C	-0.008142	-0.737536	0.900451
C132	C	0.325192	-0.404202	1.233784
C133	C	-0.341486	-0.950819	0.567136
C134	C	-0.008153	-0.617485	0.900469
C135	C	0.325181	-0.284152	1.233803
C136	C	-0.303305	-1.510384	0.230940
C137	C	0.030028	-1.177050	0.564273
C138	C	0.363361	-0.843717	0.897606
C139	C	-0.303316	-1.510424	0.114787
C140	C	0.030017	-1.177090	0.448120
C141	C	0.363351	-0.843757	0.781453
C142	C	-0.265002	-1.446846	0.943041
C143	C	0.068332	-1.113512	1.276374
C144	C	0.401665	-0.780179	1.609708
C145	C	-0.265018	-1.446915	1.063091
C146	C	0.068316	-1.113581	1.396425
C147	C	0.401649	-0.780248	1.729758
H148	H	-0.543568	-1.631718	0.382245
H149	H	-0.210235	-1.298385	0.715578
H150	H	0.123099	-0.965052	1.048911
Br151	Br	-0.680687	-1.667986	0.345860
Br152	Br	-0.347354	-1.334653	0.679193
Br153	Br	-0.014020	-1.001319	1.012527
Br154	Br	-0.926564	-1.668030	0.345747
Br155	Br	-0.593231	-1.334696	0.679080
Br156	Br	-0.259897	-1.001363	1.012414
H157	H	-0.232244	-1.392589	1.107697
H158	H	0.101089	-1.059256	1.441030
H159	H	0.434423	-0.725923	1.774363
H160	H	-1.063670	-1.631722	0.381932
H161	H	-0.730336	-1.298388	0.715265
H162	H	-0.397003	-0.965055	1.048598
H163	H	-0.336097	-1.564743	1.070189
H164	H	-0.002763	-1.231410	1.403522
H165	H	0.330570	-0.898077	1.736856
H166	H	-1.063636	-1.389127	0.624408
H167	H	-0.730303	-1.055794	0.957741
H168	H	-0.396970	-0.722461	1.291074
Br169	Br	-0.357933	-1.600932	0.965282
Br170	Br	-0.024600	-1.267598	1.298615
Br171	Br	0.308733	-0.934265	1.631949
H172	H	-0.662798	-1.389121	0.624639
H173	H	-0.329465	-1.055787	0.957973
H174	H	0.003868	-0.722454	1.291306
H175	H	-0.374170	-1.115433	0.621560
H176	H	-0.040837	-0.782100	0.954893
H177	H	0.292496	-0.448767	1.288226
Br178	Br	-0.525674	-1.352804	0.660993
Br179	Br	-0.192340	-1.019470	0.994327
Br180	Br	0.140993	-0.686137	1.327660
H181	H	-0.270593	-0.943518	0.449081
H182	H	0.062740	-0.610185	0.782414
H183	H	0.396074	-0.276852	1.115747
H184	H	-0.374185	-0.906307	0.621599
H185	H	-0.040852	-0.572974	0.954932
H186	H	0.292481	-0.239641	1.288265
H187	H	-0.944369	-1.389134	0.624490
H188	H	-0.611035	-1.055800	0.957823
H189	H	-0.277702	-0.722467	1.291157
H190	H	-0.270588	-1.078063	0.449056
H191	H	0.062746	-0.744730	0.782389
H192	H	0.396079	-0.411397	1.115723
Br193	Br	-0.210344	-1.356225	0.868932
Br194	Br	0.122989	-1.022892	1.202265
Br195	Br	0.456323	-0.689558	1.535599
