data_functionalizedCrystal
_audit_creation_method	'MofGen! by Chris Wilmer'
_symmetry_space_group_name_H-M	'P1'
_symmetry_Int_Tables_number	1
_symmetry_cell_setting	triclinic
loop_
_symmetry_equiv_pos_as_xyz
  x,y,z
_cell_length_a	16.625548
_cell_length_b	16.625546
_cell_length_c	18.215399
_cell_angle_alpha	89.970824
_cell_angle_beta	89.980331
_cell_angle_gamma	90.023536
loop_
_atom_site_label
_atom_site_type_symbol
_atom_site_fract_x
_atom_site_fract_y
_atom_site_fract_z
Zn1	Zn	1.232673	-0.320987	-0.416106
Zn2	Zn	1.732673	0.179013	0.083894
Zn3	Zn	1.232579	-0.455827	-0.293037
Zn4	Zn	1.732579	0.044173	0.206963
Zn5	Zn	1.097837	-0.321015	-0.293054
Zn6	Zn	1.597837	0.178985	0.206946
Zn7	Zn	1.097806	-0.455784	-0.416063
Zn8	Zn	1.597806	0.044216	0.083937
O9	O	1.165224	-0.388403	-0.354565
O10	O	1.665224	0.111597	0.145435
O11	O	1.345493	-0.338880	-0.399792
O12	O	1.845493	0.161120	0.100208
O13	O	1.214679	-0.437974	-0.190055
O14	O	1.714679	0.062026	0.309945
O15	O	1.115776	-0.208179	-0.309403
O16	O	1.615776	0.291821	0.190597
O17	O	1.345424	-0.437947	-0.309374
O18	O	1.845424	0.062053	0.190626
O19	O	1.214840	-0.208158	-0.399808
O20	O	1.714840	0.291842	0.100192
O21	O	1.115685	-0.338928	-0.190068
O22	O	1.615685	0.161072	0.309932
O23	O	0.985001	-0.338886	-0.309360
O24	O	1.485001	0.161114	0.190640
O25	O	1.115722	-0.437873	-0.519053
O26	O	1.615722	0.062127	-0.019053
O27	O	0.984977	-0.437900	-0.399734
O28	O	1.484977	0.062100	0.100266
O29	O	1.214809	-0.338838	-0.519085
O30	O	1.714809	0.161162	-0.019085
O31	O	1.214648	-0.568654	-0.309332
O32	O	1.714648	-0.068654	0.190668
O33	O	1.115631	-0.568622	-0.399718
O34	O	1.615631	-0.068622	0.100282
C35	C	0.955733	-0.388392	-0.354545
C36	C	1.455733	0.111608	0.145455
C37	C	0.866112	-0.388406	-0.354553
C38	C	1.366112	0.111594	0.145447
C39	C	0.537936	-0.388411	-0.354585
C40	C	1.037936	0.111589	0.145415
C41	C	0.629245	-0.388408	-0.354574
C42	C	1.129245	0.111592	0.145426
C43	C	0.702021	-0.388409	-0.354568
C44	C	1.202021	0.111591	0.145432
C45	C	0.793335	-0.388405	-0.354558
C46	C	1.293335	0.111595	0.145442
C47	C	1.165147	-0.597894	-0.354534
C48	C	1.665147	-0.097894	0.145466
C49	C	1.165188	-0.687515	-0.354546
C50	C	1.665188	-0.187515	0.145454
C51	C	1.165329	-1.015691	-0.354622
C52	C	1.665329	-0.515691	0.145378
C53	C	1.165287	-0.924382	-0.354603
C54	C	1.665287	-0.424382	0.145397
C55	C	1.165258	-0.851606	-0.354584
C56	C	1.665258	-0.351606	0.145416
C57	C	1.165218	-0.760292	-0.354565
C58	C	1.665218	-0.260292	0.145435
C59	C	1.375533	-0.388415	-0.354586
C60	C	1.875533	0.111585	0.145414
C61	C	1.465154	-0.388420	-0.354595
C62	C	1.965154	0.111580	0.145405
C63	C	1.165273	-0.388348	-0.546518
C64	C	1.665273	0.111652	-0.046518
C65	C	1.165294	-0.388324	-0.628317
C66	C	1.665294	0.111676	-0.128317
C67	C	1.165322	-0.178094	-0.354612
C68	C	1.665322	0.321906	0.145388
C69	C	1.165364	-0.088473	-0.354632
C70	C	1.665364	0.411527	0.145368
C71	C	1.216907	-0.336708	-0.816529
C72	C	1.716907	0.163292	-0.316529
C73	C	1.216916	-0.336685	-0.893388
C74	C	1.716916	0.163315	-0.393388
C75	C	1.113738	-0.439815	-0.893343
C76	C	1.613738	0.060185	-0.393343
C77	C	1.113725	-0.439834	-0.816486
C78	C	1.613725	0.060166	-0.316486
C79	C	1.165314	-0.388282	-0.778081
C80	C	1.665314	0.111718	-0.278081
C81	C	1.165336	-0.388239	-0.931797
C82	C	1.665336	0.111761	-0.431797
C83	C	1.165346	-0.388214	-1.015131
C84	C	1.665346	0.111786	-0.515131
C85	C	1.165303	-0.388305	-0.694742
C86	C	1.665303	0.111695	-0.194742
C87	C	1.165221	-0.388400	-0.163359
C88	C	1.665221	0.111600	0.336641
C89	C	1.165356	-0.388197	-0.081560
C90	C	1.665356	0.111803	0.418440
H91	H	1.258912	-0.294729	-0.785262
H92	H	1.758912	0.205271	-0.285262
H93	H	1.258927	-0.294687	-0.924689
H94	H	1.758927	0.205313	-0.424689
H95	H	1.071738	-0.481788	-0.924622
H96	H	1.571738	0.018212	-0.424622
C97	C	1.056963	-0.496565	-0.774190
C98	C	1.556963	0.003435	-0.274190
C99	C	0.993665	-0.461628	-0.721357
C100	C	1.493665	0.038372	-0.221357
C101	C	0.936900	-0.518352	-0.679062
C102	C	1.436900	-0.018352	-0.179062
C103	C	0.943433	-0.610013	-0.689601
C104	C	1.443433	-0.110013	-0.189601
C105	C	1.006733	-0.644955	-0.742436
C106	C	1.506733	-0.144955	-0.242436
C107	C	1.063498	-0.588231	-0.784731
C108	C	1.563498	-0.088231	-0.284731
H109	H	0.988826	-0.393771	-0.713554
H110	H	1.488826	0.106229	-0.213554
H111	H	0.890041	-0.492485	-0.639950
H112	H	1.390041	0.007515	-0.139950
H113	H	0.901412	-0.652004	-0.658292
H114	H	1.401412	-0.152004	-0.158292
H115	H	1.011572	-0.712812	-0.750239
H116	H	1.511572	-0.212812	-0.250239
H117	H	1.110357	-0.614098	-0.823843
H118	H	1.610357	-0.114098	-0.323843
