data_functionalizedCrystal
_audit_creation_method	'MofGen! by Chris Wilmer'
_symmetry_space_group_name_H-M	'P1'
_symmetry_Int_Tables_number	1
_symmetry_cell_setting	triclinic
loop_
_symmetry_equiv_pos_as_xyz
  x,y,z
_cell_length_a	8.597187
_cell_length_b	11.792254
_cell_length_c	7.681481
_cell_angle_alpha	84.218036
_cell_angle_beta	88.166928
_cell_angle_gamma	84.768036
loop_
_atom_site_label
_atom_site_type_symbol
_atom_site_fract_x
_atom_site_fract_y
_atom_site_fract_z
O1	O	2.038038	0.202356	-0.455624
O2	O	2.538038	0.702356	0.044376
O3	O	1.588082	0.210417	-0.387364
O4	O	2.088082	0.710417	0.112636
O5	O	1.823970	0.041409	-0.423137
O6	O	2.323970	0.541409	0.076863
O7	O	1.802149	0.371363	-0.419851
O8	O	2.302149	0.871363	0.080149
O9	O	1.853003	0.020558	-0.134682
O10	O	2.353003	0.520558	0.365318
O11	O	1.617115	0.189566	-0.098909
O12	O	2.117115	0.689566	0.401091
O13	O	2.067071	0.181505	-0.167169
O14	O	2.567071	0.681505	0.332831
Zn15	Zn	1.846703	0.182225	-0.087241
Zn16	Zn	2.346703	0.682225	0.412759
Zn17	Zn	1.808450	0.209697	-0.467292
Zn18	Zn	2.308450	0.709697	0.032708
O19	O	1.831183	0.350513	-0.131397
O20	O	2.331183	0.850513	0.368603
C21	C	1.544994	0.197964	-0.234398
C22	C	2.044994	0.697964	0.265602
C23	C	1.373351	0.191908	-0.208359
C24	C	1.873351	0.691908	0.291641
C25	C	1.837112	-0.011331	-0.278701
C26	C	2.337112	0.488669	0.221299
C27	C	1.832998	-0.137417	-0.278079
C28	C	2.332998	0.362583	0.221921
C29	C	1.829655	-0.239813	-0.277578
C30	C	2.329655	0.260187	0.222422
C31	C	1.825474	-0.368272	-0.276960
C32	C	2.325474	0.131728	0.223040
C33	C	2.110158	0.193958	-0.320139
C34	C	2.610158	0.693958	0.179861
C35	C	2.281800	0.200014	-0.346190
C36	C	2.781800	0.700014	0.153810
C37	C	1.818040	0.403253	-0.275836
C38	C	2.318040	0.903253	0.224164
C39	C	1.822153	0.529340	-0.276470
C40	C	2.322153	1.029340	0.223530
N41	N	1.872821	0.163476	0.172133
N42	N	2.372821	0.663476	0.672133
N43	N	1.782344	0.228437	-0.726668
N44	N	2.282344	0.728437	-0.226668
H45	H	1.334740	0.211588	-0.484112
H46	H	1.834740	0.711588	0.015888
C47	C	1.657562	0.318008	0.190668
C48	C	2.157562	0.818008	0.690668
N49	N	1.563572	0.385474	0.128394
N50	N	2.063572	0.885474	0.628394
C51	C	1.997609	0.073899	0.254804
C52	C	2.497609	0.573899	0.754804
N53	N	2.091595	0.006429	0.317074
N54	N	2.591595	0.506429	0.817074
H55	H	1.320416	0.180349	-0.070445
H56	H	1.820416	0.680349	0.429555
