data_functionalizedCrystal
_audit_creation_method	'MofGen! by Chris Wilmer'
_symmetry_space_group_name_H-M	'P1'
_symmetry_Int_Tables_number	1
_symmetry_cell_setting	triclinic
loop_
_symmetry_equiv_pos_as_xyz
  x,y,z
_cell_length_a	15.297327
_cell_length_b	21.395364
_cell_length_c	21.395356
_cell_angle_alpha	90.024334
_cell_angle_beta	99.650480
_cell_angle_gamma	80.276484
loop_
_atom_site_label
_atom_site_type_symbol
_atom_site_fract_x
_atom_site_fract_y
_atom_site_fract_z
Zn1	Zn	-0.358808	-0.914750	-0.397382
Zn2	Zn	0.141192	-0.414750	0.102618
Zn3	Zn	-0.509684	-0.896529	-0.310731
Zn4	Zn	-0.009684	-0.396529	0.189269
Zn5	Zn	-0.358876	-0.809958	-0.292626
Zn6	Zn	0.141124	-0.309958	0.207374
Zn7	Zn	-0.509680	-0.791809	-0.415470
Zn8	Zn	-0.009680	-0.291809	0.084530
O9	O	-0.434262	-0.853261	-0.354052
O10	O	0.065738	-0.353261	0.145948
O11	O	-0.378794	-1.000014	-0.385895
O12	O	0.121206	-0.500014	0.114105
O13	O	-0.489709	-0.885015	-0.220655
O14	O	0.010291	-0.385015	0.279345
O15	O	-0.232612	-0.839080	-0.291375
O16	O	0.267388	-0.339080	0.208625
O17	O	-0.489643	-0.986627	-0.322233
O18	O	0.010357	-0.486627	0.177767
O19	O	-0.232562	-0.916069	-0.368339
O20	O	0.267438	-0.416069	0.131661
O21	O	-0.378911	-0.821412	-0.207353
O22	O	0.121089	-0.321412	0.292647
O23	O	-0.378908	-0.719869	-0.308914
O24	O	0.121092	-0.219869	0.191086
O25	O	-0.489637	-0.808148	-0.500745
O26	O	0.010363	-0.308148	-0.000745
O27	O	-0.489703	-0.706536	-0.399166
O28	O	0.010297	-0.206536	0.100834
O29	O	-0.378791	-0.898471	-0.487456
O30	O	0.121209	-0.398471	0.012544
O31	O	-0.635938	-0.867417	-0.339772
O32	O	-0.135938	-0.367417	0.160228
O33	O	-0.635935	-0.790480	-0.416723
O34	O	-0.135935	-0.290480	0.083277
C35	C	-0.434313	-0.690468	-0.354038
C36	C	0.065687	-0.190468	0.145962
C37	C	-0.434357	-0.620821	-0.354050
C38	C	0.065643	-0.120821	0.145950
C39	C	-0.376734	-0.595089	-0.387272
C40	C	0.123266	-0.095089	0.112728
C41	C	-0.376713	-0.529656	-0.387271
C42	C	0.123287	-0.029656	0.112729
C43	C	-0.434330	-0.489956	-0.354057
C44	C	0.065670	0.010044	0.145943
C45	C	-0.491957	-0.515695	-0.320828
C46	C	0.008043	-0.015695	0.179172
C47	C	-0.491970	-0.581128	-0.320824
C48	C	0.008030	-0.081128	0.179176
C49	C	-0.515587	-0.376470	-0.358780
C50	C	-0.015587	0.123530	0.141220
C51	C	-0.515575	-0.311039	-0.358788
C52	C	-0.015575	0.188961	0.141212
C53	C	-0.434290	-0.288140	-0.354063
C54	C	0.065710	0.211860	0.145937
C55	C	-0.353013	-0.330681	-0.349343
C56	C	0.146987	0.169319	0.150657
C57	C	-0.353026	-0.396114	-0.349340
C58	C	0.146974	0.103886	0.150660
C59	C	-0.434322	-0.419005	-0.354056
C60	C	0.065678	0.080995	0.145944
C61	C	-0.376639	-0.191459	-0.387285
C62	C	0.123361	0.308541	0.112715
C63	C	-0.376616	-0.126025	-0.387280
C64	C	0.123384	0.373975	0.112720
C65	C	-0.491869	-0.112064	-0.320841
C66	C	0.008131	0.387936	0.179159
C67	C	-0.491884	-0.177498	-0.320842
C68	C	0.008116	0.322502	0.179158
C69	C	-0.434270	-0.217191	-0.354068
C70	C	0.065730	0.282809	0.145932
C71	C	-0.668673	-0.825019	-0.382188
C72	C	-0.168673	-0.325019	0.117812
C73	C	-0.768955	-0.812994	-0.394246
C74	C	-0.268955	-0.312994	0.105754
C75	C	-1.051513	-0.939464	-0.268087
C76	C	-0.551513	-0.439464	0.231913
C77	C	-0.957293	-0.950762	-0.256755
C78	C	-0.457293	-0.450762	0.243245
C79	C	-0.910204	-0.916321	-0.291127
C80	C	-0.410204	-0.416321	0.208873
C81	C	-0.957344	-0.870580	-0.336833
C82	C	-0.457344	-0.370580	0.163167
C83	C	-1.051573	-0.859278	-0.348162
C84	C	-0.551573	-0.359278	0.151838
C85	C	-0.910264	-0.836135	-0.371202
C86	C	-0.410264	-0.336135	0.128798
C87	C	-0.957404	-0.790394	-0.416908
C88	C	-0.457404	-0.290394	0.083092
C89	C	-1.051624	-0.779094	-0.428236
C90	C	-0.551624	-0.279094	0.071764
C91	C	-1.098713	-0.813535	-0.393864
C92	C	-0.598713	-0.313535	0.106136
C93	C	-0.816035	-0.847437	-0.359872
C94	C	-0.316035	-0.347437	0.140128
C95	C	-0.816095	-0.767250	-0.439948
C96	C	-0.316095	-0.267250	0.060052
C97	C	-0.910315	-0.755953	-0.451280
C98	C	-0.410315	-0.255953	0.048720
C99	C	-0.198935	-0.881631	-0.325820
C100	C	0.301065	-0.381631	0.174180
C101	C	-0.098653	-0.893721	-0.313789
C102	C	0.401347	-0.393721	0.186211
C103	C	-0.434206	-0.853317	-0.517469
C104	C	0.065794	-0.353317	-0.017469
C105	C	-0.434182	-0.853341	-0.587107
C106	C	0.065818	-0.353341	-0.087107
C107	C	-0.434222	-0.016689	-0.354064
C108	C	0.065778	0.483311	0.145936
C109	C	-0.434234	-0.086329	-0.354064
C110	C	0.065766	0.413671	0.145936
C111	C	-0.376483	-0.820235	-0.612883
C112	C	0.123517	-0.320235	-0.112883
C113	C	-0.376466	-0.820234	-0.678317
C114	C	0.123534	-0.320234	-0.178317
C115	C	-0.434139	-0.853353	-0.717970
C116	C	0.065861	-0.353353	-0.217970
C117	C	-0.491849	-0.886462	-0.692188
C118	C	0.008151	-0.386462	-0.192188
C119	C	-0.491871	-0.886456	-0.626756
C120	C	0.008129	-0.386456	-0.126756
C121	C	-0.441209	-0.908956	-0.822507
C122	C	0.058791	-0.408956	-0.322507
C123	C	-0.441181	-0.908964	-0.887936
C124	C	0.058819	-0.408964	-0.387936
C125	C	-0.434078	-0.853371	-0.919784
C126	C	0.065922	-0.353371	-0.419784
C127	C	-0.426984	-0.797771	-0.886191
C128	C	0.073016	-0.297771	-0.386191
C129	C	-0.427006	-0.797765	-0.820760
C130	C	0.072994	-0.297765	-0.320760
C131	C	-0.434123	-0.853363	-0.788921
C132	C	0.065877	-0.353363	-0.288921
C133	C	-0.376358	-0.820261	-1.016510
C134	C	0.123642	-0.320261	-0.516510
C135	C	-0.376348	-0.820259	-1.081945
C136	C	0.123652	-0.320259	-0.581945
C137	C	-0.491726	-0.886492	-1.095815
C138	C	0.008274	-0.386492	-0.595815
C139	C	-0.491741	-0.886488	-1.030381
C140	C	0.008259	-0.386488	-0.530381
C141	C	-0.434052	-0.853374	-0.990732
C142	C	0.065948	-0.353374	-0.490732
C143	C	-0.434253	-0.853250	-0.191263
C144	C	0.065747	-0.353250	0.308737
C145	C	-0.434022	-0.853378	-0.121595
C146	C	0.065978	-0.353378	0.378405
H147	H	-0.538869	-0.483367	-0.293784
H148	H	-0.038869	0.016633	0.206216
O149	O	-0.314147	-0.784544	-0.973739
O150	O	0.185853	-0.284544	-0.473739
H151	H	-0.329638	-0.733502	-0.988130
H152	H	0.170362	-0.233502	-0.488130
H153	H	-0.446953	-0.954238	-0.915282
H154	H	0.053047	-0.454238	-0.415282
H155	H	-0.538855	-0.913418	-0.605770
H156	H	-0.038855	-0.413418	-0.105770
O157	O	-0.314589	-0.637898	-0.423104
O158	O	0.185411	-0.137898	0.076896
H159	H	-0.324281	-0.687722	-0.417526
H160	H	0.175719	-0.187722	0.082474
O161	O	-0.265373	-0.442000	-0.344244
O162	O	0.234627	0.058000	0.155756
H163	H	-0.256106	-0.472913	-0.301168
H164	H	0.243894	0.027087	0.198832
O165	O	-0.448863	-0.968922	-0.788157
O166	O	0.051137	-0.468922	-0.288157
H167	H	-0.453775	-1.007586	-0.822505
H168	H	0.046225	-0.507586	-0.322505
H169	H	-1.089862	-0.967497	-0.240102
H170	H	-0.589862	-0.467497	0.259898
H171	H	-0.538807	-0.913427	-0.724478
H172	H	-0.038807	-0.413427	-0.224478
H173	H	-0.421232	-0.752493	-0.793412
H174	H	0.078768	-0.252493	-0.293412
O175	O	-0.554042	-0.205252	-0.285012
O176	O	-0.054042	0.294748	0.214988
H177	H	-0.544366	-0.257421	-0.290585
H178	H	-0.044366	0.242579	0.209415
H179	H	-0.833486	-0.925522	-0.281897
H180	H	-0.333486	-0.425522	0.218103
H181	H	-0.581755	-0.276406	-0.362634
H182	H	-0.081755	0.223594	0.137366
O183	O	-0.314491	-0.234280	-0.423109
O184	O	0.185509	0.265720	0.076891
H185	H	-0.274404	-0.205393	-0.446201
H186	H	0.225596	0.294607	0.053799
H187	H	-0.329785	-0.508702	-0.414323
H188	H	0.170215	-0.008702	0.085677
H189	H	-0.918915	-0.988003	-0.219541
H190	H	-0.418915	-0.488003	0.280459
H191	H	-0.329688	-0.105077	-0.414331
H192	H	0.170312	0.394923	0.085669
H193	H	-1.090003	-0.741841	-0.465446
H194	H	-0.590003	-0.241841	0.034554
H195	H	-0.538782	-0.079741	-0.293797
H196	H	-0.038782	0.420259	0.206203
O197	O	-0.265330	-0.305997	-0.344241
O198	O	0.234670	0.194003	0.155759
H199	H	-0.278969	-0.253352	-0.345027
H200	H	0.221031	0.246648	0.154973
H201	H	-0.329365	-0.793295	-1.102931
H202	H	0.170635	-0.293295	-0.602931
O203	O	-0.603264	-0.401167	-0.363881
O204	O	-0.103264	0.098833	0.136119
H205	H	-0.659777	-0.360594	-0.367175
H206	H	-0.159777	0.139406	0.132825
H207	H	-0.538895	-0.602077	-0.293770
H208	H	-0.038895	-0.102077	0.206230
O209	O	-0.765313	-0.730094	-0.477016
O210	O	-0.265313	-0.230094	0.022984
H211	H	-0.813921	-0.696379	-0.510691
H212	H	-0.313921	-0.196379	-0.010691
H213	H	-0.948710	-0.718710	-0.488494
H214	H	-0.448710	-0.218710	0.011506
H215	H	-1.175435	-0.804340	-0.403090
H216	H	-0.675435	-0.304340	0.096910
O217	O	-0.765196	-0.896781	-0.310591
O218	O	-0.265196	-0.396781	0.189409
H219	H	-0.722338	-0.873902	-0.273529
H220	H	-0.222338	-0.373902	0.226471
O221	O	-0.314259	-0.784525	-0.570117
O222	O	0.185741	-0.284525	-0.070117
H223	H	-0.274134	-0.761503	-0.599038
H224	H	0.225866	-0.261503	-0.099038
H225	H	-0.421194	-0.752503	-0.912119
H226	H	0.078806	-0.252503	-0.412119
O227	O	-0.314224	-0.784532	-0.706129
O228	O	0.185776	-0.284532	-0.206129
H229	H	-0.274109	-0.761509	-0.667566
H230	H	0.225891	-0.261509	-0.167566
H231	H	-0.538682	-0.913460	-1.128100
H232	H	-0.038682	-0.413460	-0.628100
O233	O	-0.553954	-0.922213	-1.002571
O234	O	-0.053954	-0.422213	-0.502571
H235	H	-0.594047	-0.945250	-1.041134
H236	H	-0.094047	-0.445250	-0.541134
