data_functionalizedCrystal
_audit_creation_method	'MofGen! by Chris Wilmer'
_symmetry_space_group_name_H-M	'P1'
_symmetry_Int_Tables_number	1
_symmetry_cell_setting	triclinic
loop_
_symmetry_equiv_pos_as_xyz
  x,y,z
_cell_length_a	11.026607
_cell_length_b	18.266242
_cell_length_c	11.026607
_cell_angle_alpha	90.003139
_cell_angle_beta	108.586017
_cell_angle_gamma	90.007945
loop_
_atom_site_label
_atom_site_type_symbol
_atom_site_fract_x
_atom_site_fract_y
_atom_site_fract_z
O1	O	1.726742	0.060879	0.533627
O2	O	1.360162	0.060880	0.472864
O3	O	1.513070	0.060877	0.319956
O4	O	1.573834	0.060882	0.686536
O5	O	1.513035	-0.060885	0.319938
O6	O	1.360127	-0.060882	0.472846
O7	O	1.726707	-0.060883	0.533610
Zn8	Zn	1.543411	-0.080215	0.503226
Zn9	Zn	1.543458	0.080212	0.503248
O10	O	1.573798	-0.060880	0.686518
C11	C	1.312485	-0.000001	0.461645
C12	C	1.170471	-0.000000	0.428228
N13	N	1.543388	-0.189702	0.503211
C14	C	1.116821	0.000002	0.520498
C15	C	0.970043	0.000002	0.485962
C16	C	1.611134	-0.228012	0.435552
C17	C	1.611141	-0.304657	0.435548
C18	C	1.543419	-0.342988	0.503227
C19	C	1.475659	-0.304669	0.570889
C20	C	1.475643	-0.228025	0.570881
N21	N	1.551831	-0.463319	0.612442
N22	N	1.551852	-0.536127	0.612448
C23	C	1.543459	-0.573911	0.503254
N24	N	1.535067	-0.536136	0.394056
N25	N	1.535053	-0.463321	0.394053
C26	C	1.543427	-0.426095	0.503243
C27	C	1.611215	-0.695328	0.435584
C28	C	1.611212	-0.771975	0.435576
C29	C	1.475739	-0.771985	0.570930
C30	C	1.475733	-0.695340	0.570926
C31	C	1.543478	-0.657017	0.503256
C32	C	1.774384	-0.000000	0.544828
C33	C	1.916398	0.000004	0.578245
C34	C	1.501843	-0.000003	0.272287
C35	C	1.468426	-0.000000	0.130273
N36	N	1.543488	0.189699	0.503255
C37	C	1.560695	0.000001	0.076624
C38	C	1.526160	0.000003	-0.070155
C39	C	1.585026	0.000002	0.734187
C40	C	1.618443	0.000004	0.876200
H41	H	1.179555	-0.000001	0.625061
H42	H	1.107738	0.000017	0.323666
C43	C	1.402079	-0.813461	0.644438
C44	C	1.342726	-0.763500	0.703673
C45	C	1.274840	-0.801684	0.771382
H46	H	1.459390	-0.843352	0.707616
H47	H	1.338958	-0.843354	0.586996
H48	H	1.405840	-0.733620	0.761109
H49	H	1.285395	-0.733607	0.640523
H50	H	1.211718	-0.831577	0.713941
H51	H	1.332160	-0.831574	0.834554
H52	H	1.234551	-0.767792	0.811571
H53	H	1.665258	-0.000004	0.139357
H54	H	1.666372	-0.664124	0.380478
H55	H	1.420516	-0.335882	0.625993
C56	C	1.757803	-0.000033	-0.039953
C57	C	1.764357	-0.000052	0.088960
C58	C	1.892710	-0.000095	0.166235
H59	H	1.799175	0.042417	-0.057409
H60	H	1.799050	-0.042511	-0.057513
H61	H	1.723127	0.042422	0.106513
H62	H	1.723012	-0.042498	0.106456
H63	H	1.933957	-0.042573	0.148676
H64	H	1.934072	0.042355	0.148768
H65	H	1.897174	-0.000115	0.253711
C66	C	1.684666	-0.813477	0.361897
C67	C	1.636686	-0.794828	0.232150
C68	C	1.704334	-0.833038	0.164242
H69	H	1.675025	-0.864623	0.371427
H70	H	1.772749	-0.800886	0.394304
H71	H	1.548624	-0.807423	0.199753
H72	H	1.646328	-0.743688	0.222581
H73	H	1.792417	-0.820448	0.196649
H74	H	1.694689	-0.884183	0.173782
H75	H	1.671797	-0.820386	0.076204
H76	H	1.420574	-0.664146	0.626026
H77	H	1.421590	0.000008	-0.132884
C78	C	1.329073	-0.000034	0.046420
C79	C	1.322524	-0.000049	-0.082492
C80	C	1.194171	-0.000089	-0.159771
H81	H	1.287726	0.042415	0.063895
H82	H	1.287799	-0.042513	0.063958
H83	H	1.363780	0.042426	-0.100023
H84	H	1.363844	-0.042494	-0.100006
H85	H	1.152898	-0.042568	-0.142233
H86	H	1.152835	0.042360	-0.142285
H87	H	1.189710	-0.000106	-0.247246
H88	H	0.979125	0.000001	0.682816
C89	C	1.684157	-0.186442	0.361514
C90	C	1.598922	-0.142604	0.268621
C91	C	1.666010	-0.104351	0.200199
H92	H	1.724304	-0.220263	0.321079
H93	H	1.747329	-0.156396	0.418555
H94	H	1.535773	-0.172648	0.211588
H95	H	1.558772	-0.108770	0.309022
H96	H	1.729182	-0.074304	0.257240
H97	H	1.706154	-0.138177	0.159772
H98	H	1.608191	-0.074597	0.137171
H99	H	0.907314	0.000019	0.381393
C100	C	1.684819	-0.346130	0.362052
C101	C	1.744160	-0.296163	0.302806
C102	C	1.812052	-0.334339	0.235101
H103	H	1.627514	-0.376041	0.298880
H104	H	1.747948	-0.376003	0.419498
H105	H	1.681039	-0.266303	0.245365
H106	H	1.801486	-0.266250	0.365949
H107	H	1.875180	-0.364212	0.292547
H108	H	1.754737	-0.364249	0.171936
H109	H	1.852332	-0.300442	0.194905
H110	H	1.420475	-0.196833	0.625978
