data_functionalizedCrystal
_audit_creation_method	'MofGen! by Chris Wilmer'
_symmetry_space_group_name_H-M	'P1'
_symmetry_Int_Tables_number	1
_symmetry_cell_setting	triclinic
loop_
_symmetry_equiv_pos_as_xyz
  x,y,z
_cell_length_a	8.497374
_cell_length_b	17.077404
_cell_length_c	17.077396
_cell_angle_alpha	90.019501
_cell_angle_beta	89.987669
_cell_angle_gamma	89.998682
loop_
_atom_site_label
_atom_site_type_symbol
_atom_site_fract_x
_atom_site_fract_y
_atom_site_fract_z
Zn1	Zn	0.628046	1.200174	0.443931
Zn2	Zn	0.891873	1.200131	0.312702
Zn3	Zn	0.628102	1.068905	0.312679
Zn4	Zn	0.891779	1.068923	0.443925
O5	O	0.759950	1.134533	0.378309
O6	O	0.663060	1.310015	0.426535
O7	O	0.856946	1.182698	0.202852
O8	O	0.407332	1.086329	0.330082
O9	O	0.856892	1.309983	0.330122
O10	O	0.407291	1.182771	0.426513
O11	O	0.663154	1.086287	0.202835
O12	O	0.663063	0.959061	0.330077
O13	O	0.856732	1.086359	0.553773
O14	O	0.856786	0.959074	0.426503
O15	O	0.662969	1.182788	0.553777
O16	O	1.112623	1.182715	0.330116
O17	O	1.112554	1.086318	0.426526
C18	C	0.759922	0.930585	0.378288
C19	C	0.759947	0.843336	0.378297
C20	C	0.860971	0.802373	0.428426
C21	C	0.860974	0.720392	0.428438
C22	C	0.759961	0.679376	0.378317
C23	C	0.658926	0.720345	0.328187
C24	C	0.658916	0.802324	0.328179
C25	C	0.658957	0.549475	0.328205
C26	C	0.658969	0.467490	0.328212
C27	C	0.861016	0.467543	0.428465
C28	C	0.861005	0.549522	0.428457
C29	C	0.759972	0.590485	0.378325
C30	C	1.169830	1.134523	0.378321
C31	C	1.348474	1.134544	0.378308
C32	C	0.759834	1.134581	0.583054
C33	C	0.759784	1.134601	0.670303
C34	C	0.759980	1.339277	0.378331
C35	C	0.759993	1.426527	0.378341
C36	C	0.759952	1.134531	0.174361
C37	C	0.759557	1.134663	0.087112
C38	C	0.658883	1.184813	0.711297
C39	C	0.658831	1.184823	0.793277
C40	C	0.759689	1.134623	0.834263
C41	C	0.860594	1.084405	0.793264
C42	C	0.860637	1.084392	0.711285
C43	C	0.860499	1.084437	0.964134
C44	C	0.860458	1.084450	1.046118
C45	C	0.658693	1.184867	1.046127
C46	C	0.658736	1.184854	0.964148
C47	C	0.759644	1.134637	0.923154
H48	H	0.576671	0.582824	0.287389
H49	H	0.942582	1.043572	1.079487
H50	H	0.576671	1.225713	0.826651
H51	H	0.943240	0.687044	0.469257
O52	O	0.560877	0.680588	0.279392
C53	C	0.595173	0.700571	0.201127
H54	H	0.655800	0.760095	0.199447
H55	H	0.481225	0.703355	0.166014
H56	H	0.676222	0.654424	0.174632
H57	H	0.942645	1.043532	0.930759
H58	H	0.942708	1.043529	0.826641
O59	O	0.560680	1.233494	0.671524
C60	C	0.403440	1.216359	0.691567
H61	H	0.395460	1.153652	0.714089
H62	H	0.325524	1.223117	0.637656
H63	H	0.362186	1.258451	0.739161
H64	H	0.943268	0.582915	0.469265
O65	O	0.958932	0.427724	0.477252
C66	C	0.869263	0.380313	0.528017
H67	H	0.745022	0.405016	0.532958
H68	H	0.926484	0.379416	0.588383
H69	H	0.863775	0.318169	0.503762
O70	O	0.958822	1.035601	0.671582
C71	C	1.047816	0.991287	0.725334
H72	H	1.053234	1.023444	0.783780
H73	H	1.172129	0.982916	0.701652
H74	H	0.990051	0.931668	0.734034
H75	H	0.576618	1.225736	0.930779
H76	H	0.576527	1.225754	1.079507
O77	O	0.959147	0.842091	0.477188
C78	C	1.048338	0.788353	0.521423
H79	H	0.983733	0.729915	0.524192
H80	H	1.065317	0.812065	0.583256
H81	H	1.168081	0.779623	0.492591
O82	O	0.560690	0.427767	0.279505
C83	C	0.471530	0.481498	0.235247
H84	H	0.466141	0.539951	0.267395
H85	H	0.347217	0.457800	0.226976
H86	H	0.529132	0.490192	0.175582
O87	O	0.561007	0.842205	0.279443
C88	C	0.650691	0.889591	0.228661
H89	H	0.770315	0.901885	0.256256
H90	H	0.586400	0.947234	0.218186
H91	H	0.667877	0.857974	0.170478
