data_functionalizedCrystal
_audit_creation_method	'MofGen! by Chris Wilmer'
_symmetry_space_group_name_H-M	'P1'
_symmetry_Int_Tables_number	1
_symmetry_cell_setting	triclinic
loop_
_symmetry_equiv_pos_as_xyz
  x,y,z
_cell_length_a	19.077105
_cell_length_b	25.639239
_cell_length_c	19.077271
_cell_angle_alpha	87.669759
_cell_angle_beta	89.892926
_cell_angle_gamma	87.734929
loop_
_atom_site_label
_atom_site_type_symbol
_atom_site_fract_x
_atom_site_fract_y
_atom_site_fract_z
Zn1	Zn	1.058199	-0.226646	-0.440409
Zn2	Zn	1.062808	-0.317727	-0.322892
Zn3	Zn	0.945416	-0.226938	-0.318200
Zn4	Zn	0.940633	-0.310680	-0.435648
O5	O	1.001764	-0.270497	-0.379287
O6	O	1.157141	-0.241555	-0.428776
O7	O	1.051166	-0.308755	-0.223936
O8	O	0.960449	-0.153735	-0.334439
O9	O	1.160527	-0.308471	-0.342438
O10	O	1.043311	-0.153521	-0.424226
O11	O	0.964918	-0.242053	-0.220489
O12	O	0.846450	-0.235219	-0.329823
O13	O	0.952298	-0.296461	-0.534613
O14	O	0.842936	-0.296744	-0.416112
O15	O	1.038673	-0.234722	-0.538111
O16	O	1.046528	-0.389956	-0.337821
O17	O	0.956766	-0.384778	-0.420662
C18	C	0.819197	-0.265249	-0.371942
C19	C	0.741094	-0.263016	-0.368816
C20	C	0.702592	-0.294052	-0.412203
C21	C	0.629206	-0.291947	-0.409269
C22	C	0.594322	-0.258808	-0.362945
C23	C	0.632829	-0.227768	-0.319557
C24	C	0.706214	-0.229871	-0.322494
C25	C	0.375038	-0.249075	-0.349353
C26	C	0.301647	-0.246976	-0.346417
C27	C	0.298029	-0.311154	-0.436131
C28	C	0.371416	-0.313256	-0.439062
C29	C	0.409916	-0.282215	-0.395676
N30	N	0.519309	-0.256656	-0.359944
N31	N	0.484928	-0.284364	-0.398681
C32	C	1.001647	-0.406338	-0.379250
C33	C	1.001660	-0.464452	-0.379260
C34	C	1.048617	-0.827501	-0.336233
C35	C	1.048643	-0.882106	-0.336244
O36	O	1.088446	-0.912625	-0.299620
N37	N	1.001885	-0.906739	-0.379339
C38	C	0.955102	-0.876763	-0.422431
O39	O	0.915333	-0.902729	-0.459088
C40	C	0.955079	-0.822159	-0.422424
C41	C	1.001836	-0.797530	-0.379321
C42	C	1.095370	-0.802872	-0.293134
C43	C	1.095342	-0.748271	-0.293123
C44	C	1.048561	-0.718299	-0.336211
C45	C	1.001808	-0.742929	-0.379310
C46	C	0.908300	-0.792185	-0.465520
C47	C	0.908281	-0.737578	-0.465509
C48	C	0.955038	-0.712948	-0.422406
C49	C	0.954999	-0.658357	-0.422386
N50	N	1.001757	-0.633724	-0.379291
C51	C	1.048538	-0.663696	-0.336203
C52	C	0.955155	-0.991435	-0.422444
C53	C	0.955173	-1.046038	-0.422448
C54	C	1.048716	-1.051377	-0.336261
C55	C	1.048693	-0.996773	-0.336254
C56	C	1.001913	-0.966803	-0.379349
C57	C	1.048475	-0.549029	-0.336182
C58	C	1.048441	-0.494423	-0.336173
C59	C	0.954902	-0.489089	-0.422362
C60	C	0.954933	-0.543690	-0.422369
C61	C	1.001725	-0.573659	-0.379277
O62	O	0.915218	-0.627805	-0.458993
O63	O	1.088306	-0.637723	-0.299559
C64	C	1.185043	-0.275767	-0.386661
C65	C	1.263146	-0.278012	-0.389804
C66	C	0.994438	-0.264773	-0.562571
C67	C	0.991316	-0.262333	-0.640676
C68	C	1.001900	-0.134127	-0.379340
C69	C	1.001957	-0.076014	-0.379363
C70	C	0.968924	-0.244877	-1.080132
C71	C	0.971861	-0.247167	-1.006744
C72	C	1.018230	-0.283043	-0.971844
C73	C	1.061670	-0.316628	-1.010336
C74	C	1.058737	-0.314334	-1.083723
C75	C	1.031822	-0.293624	-0.752555
C76	C	1.034751	-0.295916	-0.679163
C77	C	0.944943	-0.226454	-0.675576
C78	C	0.942010	-0.224167	-0.748964
C79	C	0.985453	-0.257749	-0.787449
N80	N	1.021231	-0.285387	-0.896830
N81	N	0.982454	-0.255403	-0.862462
C82	C	1.009102	-0.276163	-0.196717
C83	C	1.012360	-0.278460	-0.118618
H84	H	0.737561	-0.204595	-0.287168
C85	C	0.856868	-0.819270	-0.512935
C86	C	0.885082	-0.855917	-0.569360
C87	C	0.833647	-0.883003	-0.616777
C88	C	0.753999	-0.873440	-0.607769
C89	C	0.725781	-0.836791	-0.551342
C90	C	0.777216	-0.809706	-0.503924
H91	H	0.944046	-0.862998	-0.576030
H92	H	0.854536	-0.910133	-0.658549
H93	H	0.715924	-0.893490	-0.642871
H94	H	0.666817	-0.829711	-0.544671
H95	H	0.756327	-0.782576	-0.462153
H96	H	0.399813	-0.340243	-0.476782
H97	H	0.931164	-0.215664	-1.108542
C98	C	0.740961	-0.330506	-0.463162
C99	C	0.792591	-0.373919	-0.434633
C100	C	0.830957	-0.410372	-0.485595
C101	C	0.817694	-0.403412	-0.565085
C102	C	0.766062	-0.359996	-0.593618
C103	C	0.727695	-0.323543	-0.542656
H104	H	0.802411	-0.379074	-0.375786
H105	H	0.869179	-0.442512	-0.464473
H106	H	0.846096	-0.430396	-0.602810
H107	H	0.756242	-0.354842	-0.652465
H108	H	0.689474	-0.291404	-0.563778
C109	C	1.099877	-0.467331	-0.288758
C110	C	1.153783	-0.430369	-0.321461
C111	C	1.205217	-0.403279	-0.274049
C112	C	1.202747	-0.413151	-0.193935
C113	C	1.148839	-0.450115	-0.161228
C114	C	1.097404	-0.477205	-0.208640
H115	H	1.155614	-0.423060	-0.380770
H116	H	1.245123	-0.375916	-0.298261
H117	H	1.240822	-0.393097	-0.158838
H118	H	1.147008	-0.457424	-0.101919
H119	H	1.057499	-0.504568	-0.184428
H120	H	1.086580	-0.573424	-0.301094
C121	C	1.100130	-0.969683	-0.288846
C122	C	1.071924	-0.933033	-0.232421
C123	C	1.123365	-0.905946	-0.185012
C124	C	1.203012	-0.915510	-0.194028
C125	C	1.231222	-0.952162	-0.250456
C126	C	1.179781	-0.979248	-0.297865
H127	H	1.012961	-0.925952	-0.225744
H128	H	1.102481	-0.878814	-0.143240
H129	H	1.241091	-0.895459	-0.158933
H130	H	1.290185	-0.959243	-0.257132
H131	H	1.200665	-1.006381	-0.339636
H132	H	0.597861	-0.317220	-0.444599
C133	C	0.903500	-0.570783	-0.469783
C134	C	0.931722	-0.607423	-0.526212
C135	C	0.880294	-0.634511	-0.573635
C136	C	0.800645	-0.624958	-0.564628
C137	C	0.772418	-0.588316	-0.508196
C138	C	0.823846	-0.561229	-0.460773
H139	H	0.990687	-0.614496	-0.532882
H140	H	0.901190	-0.661635	-0.615410
H141	H	0.762575	-0.645010	-0.599733
H142	H	0.713453	-0.581243	-0.501526
H143	H	0.802950	-0.534104	-0.418998
C144	C	1.146783	-0.721185	-0.245714
C145	C	1.144317	-0.731060	-0.165600
C146	C	1.195764	-0.703980	-0.118190
C147	C	1.249677	-0.667026	-0.150895
C148	C	1.252145	-0.657149	-0.231013
C149	C	1.200698	-0.684229	-0.278422
H150	H	1.104405	-0.758418	-0.141387
H151	H	1.193937	-0.711292	-0.058882
H152	H	1.287762	-0.646980	-0.115799
H153	H	1.292057	-0.629791	-0.255226
H154	H	1.202526	-0.676917	-0.337731
H155	H	0.936491	-0.219821	-0.975411
H156	H	0.406376	-0.223803	-0.314020
C157	C	0.594459	-0.191315	-0.268598
C158	C	0.513739	-0.189002	-0.265361
C159	C	0.475371	-0.152549	-0.214399
C160	C	0.517724	-0.118409	-0.166675
C161	C	0.598449	-0.120721	-0.169911
C162	C	0.636817	-0.157173	-0.220872
H163	H	0.482382	-0.214276	-0.300690
H164	H	0.415613	-0.150839	-0.212004
H165	H	0.489322	-0.091425	-0.128950
H166	H	0.629805	-0.095447	-0.134581
H167	H	0.696575	-0.158884	-0.223268
H168	H	0.266675	-0.336425	-0.471455
C169	C	1.100182	-1.084352	-0.288868
C170	C	1.100206	-1.144414	-0.288886
C171	C	1.151668	-1.177391	-0.241495
C172	C	1.203105	-1.150305	-0.194086
C173	C	1.203082	-1.090241	-0.194066
C174	C	1.151620	-1.057264	-0.241457
H175	H	1.062128	-1.164467	-0.323982
H176	H	1.151685	-1.221855	-0.241510
H177	H	1.241200	-1.174717	-0.159004
H178	H	1.241161	-1.070188	-0.158969
H179	H	1.151604	-1.012800	-0.241442
H180	H	0.904248	-0.194955	-0.777374
C181	C	0.903735	-1.073126	-0.469857
C182	C	0.852280	-1.040151	-0.517250
C183	C	0.800843	-1.067237	-0.564663
C184	C	0.800862	-1.127299	-0.564684
C185	C	0.852320	-1.160278	-0.517290
C186	C	0.903756	-1.133191	-0.469876
H187	H	0.852264	-0.995687	-0.517236
H188	H	0.762751	-1.042824	-0.599748
H189	H	0.762785	-1.147350	-0.599783
H190	H	0.852335	-1.204742	-0.517304
H191	H	0.941849	-1.157605	-0.434791
C192	C	1.085763	-0.335380	-0.640772
C193	C	1.133550	-0.372319	-0.683102
C194	C	1.184558	-0.411781	-0.644710
C195	C	1.187778	-0.414305	-0.563988
C196	C	1.139989	-0.377365	-0.521653
C197	C	1.088982	-0.337902	-0.560044
H198	H	1.131168	-0.370451	-0.742862
H199	H	1.219934	-0.439127	-0.676050
H200	H	1.225537	-0.443517	-0.535568
H201	H	1.142371	-0.379232	-0.461893
H202	H	1.053605	-0.310557	-0.528705
H203	H	0.273247	-0.219984	-0.308699
H204	H	1.133468	-0.827269	-0.258047
C205	C	1.079630	-0.330558	-0.794869
C206	C	1.074264	-0.390146	-0.784525
C207	C	1.122087	-0.427078	-0.826836
C208	C	1.175276	-0.404421	-0.879490
C209	C	1.180644	-0.344830	-0.889836
C210	C	1.132821	-0.307898	-0.847525
H211	H	1.034889	-0.406921	-0.745545
H212	H	1.118113	-0.471192	-0.819176
H213	H	1.210678	-0.431760	-0.910810
H214	H	1.220020	-0.328055	-0.928816
H215	H	1.136795	-0.263784	-0.855184
H216	H	1.099428	-0.345836	-0.981915
H217	H	0.917055	-0.967035	-0.457535
H218	H	1.094107	-0.341680	-1.115058
H219	H	0.870188	-0.713178	-0.500604
H220	H	0.916811	-0.464678	-0.457441
H221	H	0.909575	-0.199113	-0.644233
