data_functionalizedCrystal
_audit_creation_method	'MofGen! by Chris Wilmer'
_symmetry_space_group_name_H-M	'P1'
_symmetry_Int_Tables_number	1
_symmetry_cell_setting	triclinic
loop_
_symmetry_equiv_pos_as_xyz
  x,y,z
_cell_length_a	17.639617
_cell_length_b	12.759399
_cell_length_c	12.759393
_cell_angle_alpha	89.969094
_cell_angle_beta	78.756784
_cell_angle_gamma	101.200819
loop_
_atom_site_label
_atom_site_type_symbol
_atom_site_fract_x
_atom_site_fract_y
_atom_site_fract_z
Zn1	Zn	1.208571	-0.093909	-0.919373
Zn2	Zn	1.208488	-0.269646	-0.743670
Zn3	Zn	1.076371	-0.129434	-0.708119
Zn4	Zn	1.076364	-0.305022	-0.883738
O5	O	1.142448	-0.199503	-0.813725
O6	O	1.319180	-0.087548	-0.925857
O7	O	1.190931	-0.251110	-0.591924
O8	O	1.093945	0.022309	-0.736178
O9	O	1.319119	-0.216662	-0.796768
O10	O	1.191072	0.048410	-0.891385
O11	O	1.093865	-0.148096	-0.565805
O12	O	0.965750	-0.182399	-0.701624
O13	O	1.093933	-0.276955	-1.035495
O14	O	0.965745	-0.311403	-0.830651
O15	O	1.191065	-0.121851	-1.061676
O16	O	1.190924	-0.421370	-0.762215
O17	O	1.093853	-0.447361	-0.865122
C18	C	1.142400	-0.472483	-0.813688
C19	C	1.142452	-0.589246	-0.813727
C20	C	0.937065	-0.254595	-0.758413
C21	C	0.849201	-0.278189	-0.734776
C22	C	1.193054	-0.630524	-0.760235
C23	C	1.193105	-0.740235	-0.760284
C24	C	1.091944	-0.767381	-0.867318
C25	C	1.091898	-0.657671	-0.867275
C26	C	0.560357	-0.020239	-0.993558
C27	C	0.477795	-0.042435	-0.971325
C28	C	0.477754	-0.176659	-0.836712
C29	C	0.560317	-0.154477	-0.858936
C30	C	0.601612	-0.076265	-0.937360
C31	C	0.601572	-0.210503	-0.802739
C32	C	0.684128	-0.188319	-0.824958
C33	C	0.725429	-0.110109	-0.903375
C34	C	0.684168	-0.054081	-0.959579
C35	C	0.560276	-0.288710	-0.724310
C36	C	0.601531	-0.344736	-0.668112
C37	C	0.684088	-0.322558	-0.690337
C38	C	0.725389	-0.244347	-0.768754
C39	C	0.725349	-0.378585	-0.634133
C40	C	0.807906	-0.356401	-0.656352
C41	C	0.807945	-0.222163	-0.790974
C42	C	1.348634	-0.144196	-0.869253
C43	C	1.436498	-0.120628	-0.892916
C44	C	1.142508	-0.199386	-1.087774
C45	C	1.142533	-0.199336	-1.204558
C46	C	1.142519	0.074549	-0.813791
C47	C	1.142549	0.191334	-0.813819
C48	C	1.193113	-0.118562	-1.273055
C49	C	1.193126	-0.118513	-1.382783
C50	C	1.091977	-0.280023	-1.355506
C51	C	1.091960	-0.280067	-1.245779
C52	C	1.142435	-0.199531	-0.540754
C53	C	1.142563	-0.199244	-0.424012
H54	H	1.234219	-0.574814	-0.716635
C55	C	1.036244	-0.612259	-0.926149
N56	N	0.994335	-0.578052	-0.970503
C57	C	1.036313	-0.368927	-1.170427
N58	N	0.994399	-0.435852	-1.113671
H59	H	1.234313	-0.052737	-1.438549
C60	C	0.469461	-0.313112	-0.699872
N61	N	0.401059	-0.331494	-0.681469
C62	C	0.853289	-0.418037	-0.594536
N63	N	0.887472	-0.464462	-0.547972
C64	C	1.036329	-0.842660	-0.926203
N65	N	0.994435	-0.899361	-0.970552
C66	C	0.729597	0.031950	-1.045855
N67	N	0.763815	0.096747	-1.110834
C68	C	1.248768	-0.785636	-0.701433
N69	N	1.290696	-0.819830	-0.657102
H70	H	0.841570	-0.158479	-0.854837
C71	C	0.816244	-0.085707	-0.927819
N72	N	0.884646	-0.067330	-0.946231
C73	C	1.036349	-0.368820	-1.400860
N74	N	0.994448	-0.435703	-1.435020
C75	C	0.556097	-0.430768	-0.581850
N76	N	0.521877	-0.495571	-0.516879
C77	C	0.432417	0.019201	-1.033158
N78	N	0.398239	0.065625	-1.079729
H79	H	0.593982	0.043445	-1.057422
C80	C	0.679914	-0.464609	-0.547864
N81	N	0.645691	-0.529404	-0.482885
H82	H	0.444120	-0.240336	-0.772856
H83	H	1.234290	-0.052824	-1.239496
