data_functionalizedCrystal
_audit_creation_method	'MofGen! by Chris Wilmer'
_symmetry_space_group_name_H-M	'P1'
_symmetry_Int_Tables_number	1
_symmetry_cell_setting	triclinic
loop_
_symmetry_equiv_pos_as_xyz
  x,y,z
_cell_length_a	16.109302
_cell_length_b	17.019294
_cell_length_c	14.586319
_cell_angle_alpha	86.117240
_cell_angle_beta	89.994552
_cell_angle_gamma	83.427801
loop_
_atom_site_label
_atom_site_type_symbol
_atom_site_fract_x
_atom_site_fract_y
_atom_site_fract_z
O1	O	1.103039	0.101398	-0.084285
O2	O	0.860966	0.114015	-0.085274
O3	O	0.988756	-0.007128	-0.075709
O4	O	0.975249	0.222541	-0.093849
O5	O	0.988747	-0.007130	0.076772
O6	O	0.860957	0.114014	0.067207
O7	O	1.103030	0.101396	0.068196
Cu8	Cu	0.981993	0.107704	0.081624
Cu9	Cu	0.982003	0.107707	-0.098702
O10	O	0.975240	0.222539	0.058631
C11	C	0.829987	0.113503	-0.008992
C12	C	0.737693	0.111971	-0.008868
C13	C	0.988239	-0.036518	0.002850
C14	C	0.986703	-0.124088	0.009761
C15	C	0.525351	0.108426	0.074520
C16	C	0.438632	0.106977	0.074631
C17	C	0.438652	0.106983	-0.091612
C18	C	0.525370	0.108426	-0.091722
C19	C	0.568716	0.109151	-0.008654
C20	C	0.395280	0.106260	-0.008432
C21	C	0.301255	0.104689	-0.008313
C22	C	0.662747	0.110720	-0.008773
C23	C	0.985988	-0.165223	-0.070109
C24	C	0.984539	-0.247504	-0.063612
C25	C	0.983811	-0.288648	0.022755
C26	C	0.984524	-0.247507	0.102631
C27	C	0.985966	-0.165227	0.096134
C28	C	0.979449	-0.537080	0.046531
C29	C	0.978008	-0.619366	0.053023
C30	C	0.978022	-0.619357	-0.113221
C31	C	0.979470	-0.537076	-0.119711
C32	C	0.980178	-0.495941	-0.039835
C33	C	0.982333	-0.372753	0.029398
C34	C	0.981650	-0.411838	-0.046479
C35	C	1.134009	0.101908	-0.008088
C36	C	1.226303	0.103440	-0.008218
C37	C	0.975757	0.251929	-0.019930
C38	C	0.977293	0.339499	-0.026847
N39	N	0.981991	0.107702	0.208456
N40	N	0.982011	0.107702	-0.225534
C41	C	1.038595	0.054078	0.447696
C42	C	1.038598	0.054076	0.543678
C43	C	0.925401	0.161329	0.535219
C44	C	0.925395	0.161327	0.439240
C45	C	0.981997	0.107702	0.395481
C46	C	0.982005	0.107703	0.587442
C47	C	0.982008	0.107701	0.691509
C48	C	0.981994	0.107703	0.291407
H49	H	0.560641	0.109016	0.142160
H50	H	0.983960	-0.280993	-0.128651
C51	C	0.390929	0.106180	0.166124
C52	C	0.438613	0.106975	0.257491
C53	C	0.390911	0.106175	0.348988
C54	C	0.295525	0.104581	0.349118
C55	C	0.247837	0.103786	0.257746
C56	C	0.295539	0.104585	0.166249
H57	H	0.509227	0.108156	0.257399
H58	H	0.426214	0.106764	0.416627
H59	H	0.260214	0.103989	0.416849
H60	H	0.177222	0.102605	0.257839
H61	H	0.260236	0.103997	0.098611
C62	C	0.977232	-0.664605	-0.201080
C63	C	1.048397	-0.730147	-0.218773
C64	C	1.047602	-0.775395	-0.306636
C65	C	0.975642	-0.755101	-0.376805
C66	C	0.904471	-0.689556	-0.359114
C67	C	0.905266	-0.644308	-0.271251
H68	H	1.101671	-0.745173	-0.166828
H69	H	1.100288	-0.823917	-0.319731
H70	H	0.975053	-0.788597	-0.441846
H71	H	0.851197	-0.674530	-0.411059
H72	H	0.852581	-0.595787	-0.258155
H73	H	0.980064	-0.503581	-0.190041
C74	C	1.100849	-0.004913	0.399561
C75	C	1.100850	-0.004920	0.293988
C76	C	1.163104	-0.063916	0.245856
C77	C	1.225357	-0.122904	0.303298
C78	C	1.225358	-0.122899	0.408877
C79	C	1.163105	-0.063904	0.457009
H80	H	1.054765	0.038748	0.251461
H81	H	1.163103	-0.063919	0.167699
H82	H	1.271441	-0.166576	0.267668
H83	H	1.271444	-0.166568	0.451404
H84	H	1.163106	-0.063901	0.535166
H85	H	0.879318	0.204990	0.570858
H86	H	1.084684	0.010410	0.586189
C87	C	0.390968	0.106191	-0.182984
C88	C	0.438672	0.106985	-0.274474
C89	C	0.390990	0.106194	-0.365849
C90	C	0.295604	0.104610	-0.365734
C91	C	0.247894	0.103816	-0.274241
C92	C	0.295576	0.104606	-0.182866
H93	H	0.509288	0.108158	-0.274563
H94	H	0.426309	0.106782	-0.433578
H95	H	0.260306	0.104024	-0.433375
H96	H	0.177278	0.102643	-0.274152
H97	H	0.260257	0.104019	-0.115136
H98	H	0.560680	0.109015	-0.159456
C99	C	0.863134	0.220317	0.381794
C100	C	0.800905	0.279332	0.429919
C101	C	0.738645	0.338317	0.372473
C102	C	0.738614	0.338287	0.266902
C103	C	0.800846	0.279269	0.218771
C104	C	0.863106	0.220285	0.276217
H105	H	0.800925	0.279357	0.508075
H106	H	0.692576	0.382006	0.408103
H107	H	0.692525	0.381951	0.224376
H108	H	0.800825	0.279245	0.140616
H109	H	0.909174	0.176596	0.240587
H110	H	0.986585	-0.131729	-0.140438
C111	C	0.977169	-0.664639	0.148022
C112	C	0.905171	-0.644360	0.214959
C113	C	0.904317	-0.689639	0.309948
C114	C	0.975460	-0.755198	0.338001
C115	C	1.047464	-0.775480	0.271063
C116	C	1.048318	-0.730201	0.176074
H117	H	0.852501	-0.595827	0.194193
H118	H	0.851015	-0.674625	0.359499
H119	H	0.974828	-0.788717	0.408317
H120	H	1.100133	-0.824014	0.291828
H121	H	1.101620	-0.745215	0.126523
C122	C	0.980245	-0.491846	0.134397
C123	C	0.907892	-0.494196	0.203168
C124	C	0.908694	-0.448961	0.291039
C125	C	0.981849	-0.401376	0.310140
C126	C	1.054207	-0.399024	0.241367
C127	C	1.053406	-0.444259	0.153495
H128	H	0.853733	-0.529422	0.189030
H129	H	0.855129	-0.450702	0.341950
H130	H	0.982442	-0.367890	0.375188
H131	H	1.108366	-0.363798	0.255505
H132	H	1.106971	-0.442518	0.102585
H133	H	0.983926	-0.281013	0.172953
H134	H	0.986537	-0.131735	0.161172
C135	C	0.982453	-0.366581	-0.141481
C136	C	1.055608	-0.318988	-0.168087
C137	C	1.056415	-0.273724	-0.263089
C138	C	0.984065	-0.276052	-0.331485
C139	C	0.910904	-0.323646	-0.304880
C140	C	0.910098	-0.368911	-0.209878
H141	H	1.109170	-0.317263	-0.117455
H142	H	1.110574	-0.238491	-0.282783
H143	H	0.984662	-0.242544	-0.401811
H144	H	0.857342	-0.325372	-0.355512
H145	H	0.855939	-0.404144	-0.190184
H146	H	0.981743	-0.406262	0.099718
