data_functionalizedCrystal
_audit_creation_method	'MofGen! by Chris Wilmer'
_symmetry_space_group_name_H-M	'P1'
_symmetry_Int_Tables_number	1
_symmetry_cell_setting	triclinic
loop_
_symmetry_equiv_pos_as_xyz
  x,y,z
_cell_length_a	8.559649
_cell_length_b	15.995350
_cell_length_c	7.681481
_cell_angle_alpha	84.260013
_cell_angle_beta	94.913240
_cell_angle_gamma	76.635520
loop_
_atom_site_label
_atom_site_type_symbol
_atom_site_fract_x
_atom_site_fract_y
_atom_site_fract_z
O1	O	2.105023	-0.019508	-0.146402
O2	O	1.639818	0.023734	-0.146408
O3	O	1.885137	-0.120592	-0.146403
O4	O	1.859704	0.124818	-0.146407
O5	O	1.915332	-0.138392	0.146455
O6	O	1.670013	0.005934	0.146450
O7	O	2.135218	-0.037308	0.146457
Zn8	Zn	1.907409	-0.018513	0.192951
Zn9	Zn	1.867627	0.004939	-0.192902
O10	O	1.889898	0.107018	0.146452
C11	C	1.595386	0.018111	0.000020
C12	C	1.418005	0.027866	0.000017
C13	C	1.899183	-0.160619	0.000023
C14	C	1.896030	-0.253366	0.000013
C15	C	1.884710	-0.590386	0.000019
C16	C	1.709930	-0.531678	-0.000641
C17	C	1.713151	-0.435230	0.000019
C18	C	1.890325	-0.423187	0.000015
C19	C	1.993741	-0.479970	0.167249
C20	C	1.989366	-0.576332	0.167389
C21	C	1.958639	-0.556680	-0.165646
C22	C	1.958369	-0.459598	-0.167856
C23	C	1.893508	-0.328694	0.000018
C24	C	1.881533	-0.684880	0.000027
C25	C	2.179650	-0.031685	0.000025
C26	C	2.357029	-0.041439	0.000016
C27	C	1.875853	0.147046	0.000022
C28	C	1.879005	0.239793	0.000020
N29	N	1.934572	-0.034520	0.456286
N30	N	1.840477	0.020939	-0.456237
H31	H	1.334498	0.094668	0.000007
H32	H	1.744425	0.077545	0.468564
N33	N	2.055075	-0.105533	0.550646
N34	N	2.071914	-0.115450	0.715234
H35	H	2.157013	-0.165604	0.781879
N36	N	1.863479	-0.410807	-0.323053
N37	N	1.928122	-0.371288	-0.433664
H38	H	1.861109	-0.336815	-0.543265
N39	N	1.461790	-0.125233	0.000039
N40	N	1.571794	-0.155078	0.123491
H41	H	1.645794	-0.214259	0.123510
N42	N	2.120072	-0.606842	-0.167084
N43	N	2.156141	-0.648268	-0.293476
H44	H	2.270150	-0.683700	-0.294478
H45	H	1.633053	-0.395166	-0.119861
H46	H	1.627735	-0.538430	-0.120568
N47	N	1.638152	-0.559750	0.148967
N48	N	1.715160	-0.622806	0.256072
H49	H	1.664471	-0.642635	0.361736
N50	N	1.643121	-0.403921	0.150650
N51	N	1.500126	-0.405066	0.170224
H52	H	1.450664	-0.382955	0.276615
N53	N	1.926705	-0.603747	0.324221
N54	N	1.886499	-0.551716	0.432808
H55	H	1.842240	-0.571073	0.543574
H56	H	2.118419	-0.617289	0.174974
N57	N	2.157834	-0.473223	0.175031
N58	N	2.200491	-0.426375	0.057129
H59	H	2.316382	-0.421609	0.062618
H60	H	1.946720	-0.455304	0.291703
N61	N	1.870588	-0.568187	-0.324646
N62	N	1.752265	-0.601375	-0.317792
H63	H	1.690066	-0.609504	-0.430077
H64	H	2.086530	-0.451930	-0.177957
