data_functionalizedCrystal
_audit_creation_method	'MofGen! by Chris Wilmer'
_symmetry_space_group_name_H-M	'P1'
_symmetry_Int_Tables_number	1
_symmetry_cell_setting	triclinic
loop_
_symmetry_equiv_pos_as_xyz
  x,y,z
_cell_length_a	27.780692
_cell_length_b	27.781107
_cell_length_c	27.780936
_cell_angle_alpha	90.003441
_cell_angle_beta	120.002640
_cell_angle_gamma	60.000171
loop_
_atom_site_label
_atom_site_type_symbol
_atom_site_fract_x
_atom_site_fract_y
_atom_site_fract_z
O1	O	-0.424554	-0.330250	-0.014310
O2	O	-0.325993	-0.260243	0.014259
O3	O	-0.424556	-0.260250	-0.084308
O4	O	-0.325991	-0.330244	0.084257
O5	O	-0.344492	-0.340306	-0.084308
O6	O	-0.245930	-0.340300	0.014260
O7	O	-0.344491	-0.410307	-0.014310
Zn8	Zn	-0.282498	-0.388014	-0.000025
Zn9	Zn	-0.387985	-0.282536	-0.000026
O10	O	-0.245928	-0.410301	0.084258
C11	C	-0.177687	-0.207636	0.029879
C12	C	-0.211480	-0.237338	0.025794
C13	C	-0.206381	-0.149705	0.030285
C14	C	-0.090521	-0.207640	0.029875
C15	C	-0.031114	-0.237345	0.025786
C16	C	-0.119347	-0.149709	0.030281
C17	C	-0.177684	-0.120472	0.029875
C18	C	-0.211474	-0.056977	0.025786
C19	C	-0.119350	-0.236741	0.030285
C20	C	-0.238774	-0.005680	0.022482
C21	C	-0.238782	-0.261333	0.022492
C22	C	0.016879	-0.261344	0.022480
C23	C	-0.273021	0.058675	0.018337
C24	C	-0.273033	-0.291437	0.018351
C25	C	0.077090	-0.291452	0.018335
C26	C	-0.579956	-0.462930	-0.029949
C27	C	-0.639364	-0.433229	-0.025863
C28	C	-0.551126	-0.520860	-0.030357
C29	C	-0.492789	-0.462926	-0.029946
C30	C	-0.458998	-0.433221	-0.025856
C31	C	-0.464091	-0.520856	-0.030354
C32	C	-0.492786	-0.550093	-0.029949
C33	C	-0.458992	-0.613587	-0.025862
C34	C	-0.551129	-0.433826	-0.030355
C35	C	-0.431690	-0.664884	-0.022559
C36	C	-0.687360	-0.409234	-0.022561
C37	C	-0.431698	-0.409222	-0.022550
C38	C	-0.397438	-0.729239	-0.018416
C39	C	-0.747573	-0.379130	-0.018418
C40	C	-0.397450	-0.379114	-0.018404
C41	C	-0.492797	-0.207642	-0.372384
C42	C	-0.459004	-0.237344	-0.402088
C43	C	-0.551137	-0.149713	-0.401487
C44	C	-0.492797	-0.207642	-0.285218
C45	C	-0.459004	-0.237344	-0.221723
C46	C	-0.551137	-0.149714	-0.314453
C47	C	-0.579966	-0.120480	-0.372384
C48	C	-0.639375	-0.056987	-0.402087
C49	C	-0.464100	-0.236743	-0.314454
C50	C	-0.687371	-0.005691	-0.426083
C51	C	-0.431703	-0.261339	-0.426085
C52	C	-0.431703	-0.261340	-0.170425
C53	C	-0.747585	0.058661	-0.456188
C54	C	-0.397452	-0.291444	-0.456191
C55	C	-0.397452	-0.291444	-0.106070
O56	O	0.234756	-0.410325	-0.014324
O57	O	0.094757	-0.340317	0.014243
O58	O	0.094752	-0.340326	-0.084323
O59	O	0.234761	-0.410316	0.084242
O60	O	0.094755	-0.260268	-0.084327
O61	O	0.094761	-0.260259	0.014240
O62	O	0.234759	-0.330267	-0.014328
Zn63	Zn	0.164760	-0.282552	-0.000044
Zn64	Zn	0.164756	-0.388032	-0.000040
O65	O	0.234764	-0.330258	0.084239
O66	O	-0.344480	0.248998	-0.014325
O67	O	-0.245918	0.080436	0.014241
O68	O	-0.344485	0.178993	-0.084325
O69	O	-0.245913	0.150441	0.084241
O70	O	-0.424545	0.178995	-0.084321
O71	O	-0.325978	0.080439	0.014245
O72	O	-0.424540	0.249001	-0.014321
Zn73	Zn	-0.387970	0.164720	-0.000037
Zn74	Zn	-0.282488	0.164716	-0.000042
O75	O	-0.325973	0.150444	0.084245
O76	O	-0.905261	0.248980	-0.494988
O77	O	-0.765254	0.080422	-0.424992
O78	O	-0.765258	0.178987	-0.424987
O79	O	-0.905258	0.150415	-0.494993
O80	O	-0.765260	0.178989	-0.505047
O81	O	-0.765256	0.080424	-0.505053
O82	O	-0.905263	0.248983	-0.575048
Zn83	Zn	-0.835260	0.164704	-0.552762
Zn84	Zn	-0.835257	0.164701	-0.447279
O85	O	-0.905260	0.150417	-0.575054
O86	O	-0.325986	-0.330249	-0.575053
O87	O	-0.424555	-0.260250	-0.505056
O88	O	-0.325990	-0.260246	-0.505051
O89	O	-0.424551	-0.330253	-0.575058
O90	O	-0.245929	-0.340301	-0.424991
O91	O	-0.344494	-0.340305	-0.424996
O92	O	-0.245924	-0.410304	-0.494993
Zn93	Zn	-0.282498	-0.388015	-0.447283
Zn94	Zn	-0.387982	-0.282539	-0.552766
O95	O	-0.344490	-0.410308	-0.494998
C96	C	-0.090516	-0.550073	0.372332
C97	C	-0.031106	-0.613565	0.402035
C98	C	-0.119344	-0.520839	0.401436
C99	C	-0.177685	-0.462910	0.285167
C100	C	-0.211478	-0.433208	0.221673
C101	C	-0.206382	-0.433809	0.314403
C102	C	-0.177684	-0.462911	0.372334
C103	C	-0.211476	-0.433210	0.402038
C104	C	-0.119345	-0.520838	0.314402
C105	C	-0.238777	-0.409214	0.426036
C106	C	0.016889	-0.664861	0.426031
C107	C	-0.238780	-0.409211	0.170375
C108	C	-0.273027	-0.379111	0.456142
C109	C	0.077103	-0.729214	0.456136
C110	C	-0.273031	-0.379107	0.106020
C111	C	-0.177705	-0.120506	-0.372403
C112	C	-0.211495	-0.057014	-0.402108
C113	C	-0.206404	-0.149741	-0.401505
C114	C	-0.090537	-0.207667	-0.285236
C115	C	-0.031127	-0.237367	-0.221741
C116	C	-0.119369	-0.236770	-0.314470
C117	C	-0.177709	-0.207669	-0.372401
C118	C	-0.211504	-0.237373	-0.402103
C119	C	-0.119364	-0.149739	-0.314472
C120	C	-0.238808	-0.261370	-0.426099
C121	C	-0.238794	-0.005718	-0.426106
C122	C	0.016869	-0.261361	-0.170443
C123	C	-0.273061	-0.291475	-0.456203
C124	C	-0.273043	0.058634	-0.456213
C125	C	0.077083	-0.291464	-0.106087
C126	C	0.507226	-0.462917	0.372317
C127	C	0.541022	-0.433214	0.402020
C128	C	0.535920	-0.520845	0.401421
C129	C	0.420053	-0.462919	0.285151
C130	C	0.360644	-0.433218	0.221656
C131	C	0.448880	-0.520847	0.314387
C132	C	0.507221	-0.550080	0.372318
C133	C	0.541010	-0.613572	0.402023
C134	C	0.448885	-0.433816	0.314386
C135	C	0.568310	-0.664868	0.426020
C136	C	0.568326	-0.409218	0.426016
C137	C	0.312647	-0.409223	0.170358
C138	C	0.602557	-0.729220	0.456127
C139	C	0.602579	-0.379112	0.456121
C140	C	0.252433	-0.379120	0.106003
C141	C	-0.579946	0.194571	-0.372389
C142	C	-0.639352	0.190480	-0.402089
C143	C	-0.551117	0.194971	-0.401493
C144	C	-0.492781	0.194585	-0.285228
C145	C	-0.458991	0.190509	-0.221735
C146	C	-0.464085	0.194986	-0.314464
C147	C	-0.492779	0.194568	-0.372393
C148	C	-0.458987	0.190472	-0.402097
C149	C	-0.551119	0.194989	-0.314460
C150	C	-0.431685	0.187163	-0.426095
C151	C	-0.687346	0.187173	-0.426083
C152	C	-0.431691	0.187215	-0.170438
C153	C	-0.397434	0.183011	-0.456201
C154	C	-0.747557	0.183025	-0.456185
C155	C	-0.397443	0.183083	-0.106085
O156	O	-0.424573	0.248956	-0.575073
O157	O	-0.326002	0.080394	-0.505077
O158	O	-0.424562	0.178953	-0.505068
O159	O	-0.326013	0.150397	-0.575082
O160	O	-0.344497	0.178955	-0.425009
O161	O	-0.245937	0.080397	-0.425019
O162	O	-0.344508	0.248958	-0.495014
Zn163	Zn	-0.282510	0.164678	-0.447305
Zn164	Zn	-0.388000	0.164675	-0.552786
O165	O	-0.245948	0.150400	-0.495023
C166	C	-0.177678	0.134868	0.372314
C167	C	-0.211470	0.138961	0.402018
C168	C	-0.119342	0.134466	0.401413
C169	C	-0.177677	0.134851	0.285148
C170	C	-0.211467	0.138927	0.221655
C171	C	-0.119341	0.134449	0.314380
C172	C	-0.090514	0.134867	0.372309
C173	C	-0.031109	0.138961	0.402008
C174	C	-0.206373	0.134450	0.314385
C175	C	0.016884	0.142269	0.426002
C176	C	-0.238771	0.142269	0.426016
C177	C	-0.238767	0.142222	0.170359
C178	C	0.077094	0.146418	0.456104
C179	C	-0.273021	0.146419	0.456123
C180	C	-0.273016	0.146354	0.106005
H181	H	-0.095227	-0.284339	0.030940
H182	H	0.424793	-0.386235	0.290900
H183	H	-0.575257	-0.386229	-0.031005
Cl184	Cl	-0.082105	-0.557080	0.474918
Cl185	Cl	-0.391606	0.195996	-0.278230
Cl186	Cl	-0.278845	-0.113469	0.031315
H187	H	-0.575263	-0.126246	-0.449086
H188	H	-0.253327	-0.386213	0.290930
H189	H	-0.253355	-0.126267	-0.449101
H190	H	0.582865	-0.544312	0.449020
H191	H	-0.417143	-0.284334	-0.290979
H192	H	-0.095214	-0.544310	0.290933
H193	H	-0.095213	-0.126242	0.030939
H194	H	-0.095238	-0.126264	-0.291003
Cl195	Cl	-0.588358	-0.113460	-0.278200
Cl196	Cl	-0.391613	-0.557093	-0.031362
H197	H	-0.575249	0.195624	-0.449092
H198	H	-0.095234	-0.284369	-0.290998
H199	H	0.424748	-0.544316	0.290914
Cl200	Cl	-0.588362	0.196000	-0.278217
H201	H	-0.575254	-0.544331	-0.031014
H202	H	-0.095217	0.133792	0.290904
Cl203	Cl	-0.082087	0.133459	0.474901
H204	H	-0.253325	0.133805	0.290914
