data_functionalizedCrystal
_audit_creation_method	'MofGen! by Chris Wilmer'
_symmetry_space_group_name_H-M	'P1'
_symmetry_Int_Tables_number	1
_symmetry_cell_setting	triclinic
loop_
_symmetry_equiv_pos_as_xyz
  x,y,z
_cell_length_a	19.851628
_cell_length_b	17.052862
_cell_length_c	19.851628
_cell_angle_alpha	50.263530
_cell_angle_beta	90.005779
_cell_angle_gamma	70.263327
loop_
_atom_site_label
_atom_site_type_symbol
_atom_site_fract_x
_atom_site_fract_y
_atom_site_fract_z
Zr1	Zr	0.762787	0.878447	-0.202110
O2	O	0.676916	1.045898	-0.331370
O3	O	0.774068	0.710999	-0.147444
O4	O	0.795761	0.878431	-0.309660
O5	O	0.655223	0.878478	-0.058306
O6	O	0.906621	0.878415	-0.309644
O7	O	0.655223	0.878466	-0.169154
O8	O	0.867816	0.578911	-0.019470
O9	O	0.694029	1.177983	-0.348480
O10	O	0.879788	0.779861	-0.142290
O11	O	0.797055	0.779881	-0.059577
O12	O	0.822596	0.977011	-0.250565
O13	O	0.739863	0.977031	-0.167852
Zr14	Zr	0.939597	0.878442	-0.025295
Zr15	Zr	0.939596	0.878423	-0.202086
Zr16	Zr	0.762788	0.878467	-0.025320
Zr17	Zr	0.790080	1.089108	-0.229399
Zr18	Zr	0.912304	0.667781	0.001994
O19	O	0.928316	1.045890	-0.079961
O20	O	0.928315	1.045863	-0.331335
O21	O	0.676917	1.045925	-0.079996
O22	O	1.025468	0.710992	0.103965
O23	O	1.025467	0.710964	-0.147409
O24	O	0.774069	0.711027	0.103930
O25	O	1.047161	0.878411	-0.169099
O26	O	0.906623	0.878458	0.082255
O27	O	0.795763	0.878474	0.082239
O28	O	1.047162	0.878423	-0.058251
O29	O	0.834568	1.177963	-0.348461
O30	O	0.867817	0.578926	0.121055
O31	O	1.008356	0.578906	0.121075
O32	O	1.008355	0.578891	-0.019450
O33	O	0.694029	1.177998	-0.207955
O34	O	0.834569	1.177979	-0.207936
O35	O	0.879789	0.779879	0.023160
O36	O	0.962522	0.779858	-0.059554
O37	O	0.905330	0.977008	-0.167828
O38	O	0.822597	0.977029	-0.085115
C39	C	0.817053	0.614940	-0.079569
C40	C	0.805467	0.525509	-0.067984
C41	C	0.945547	0.273384	-0.208043
C42	C	0.956432	0.357413	-0.218934
C43	C	0.918692	0.399441	-0.181197
C44	C	0.870065	0.357432	-0.132568
C45	C	0.859175	0.273400	-0.121683
C46	C	0.832319	0.399458	-0.094837
C47	C	0.783693	0.357448	-0.046208
C48	C	0.772805	0.273425	-0.035324
C49	C	0.810545	0.231397	-0.073061
C50	C	0.843209	0.483489	-0.105722
C51	C	0.756837	0.483506	-0.019362
C52	C	0.745953	0.399476	-0.008471
C53	C	0.630032	0.878476	-0.113733
C54	C	0.554972	0.878486	-0.113744
C55	C	0.342440	0.985955	-0.172749
C56	C	0.313117	0.932216	-0.198475
C57	C	0.417561	0.878457	-0.113716
C58	C	0.313145	0.932203	-0.088007
C59	C	0.284827	0.878436	-0.113691
C60	C	0.389226	0.824717	-0.139488
C61	C	0.389254	0.824719	-0.028979
C62	C	0.359974	0.770901	-0.054675
C63	C	0.494025	0.878472	-0.113733
C64	C	0.208366	0.878413	-0.113675
C65	C	1.072353	0.878414	-0.113672
C66	C	1.147413	0.878403	-0.113661
C67	C	0.851191	0.878420	-0.334841
C68	C	0.851190	0.878412	-0.409893
C69	C	0.885331	1.141949	-0.147836
C70	C	0.896918	1.231380	-0.159421
C71	C	0.882377	0.770942	-0.577121
C72	C	0.922039	0.824649	-0.561695
C73	C	0.851194	0.878457	-0.680082
C74	C	0.811565	0.824694	-0.561740
C75	C	0.851193	0.878429	-0.547326
C76	C	0.890900	0.932165	-0.665644
C77	C	0.780382	0.932194	-0.665685
C78	C	0.820034	0.985980	-0.650322
C79	C	0.851196	0.878470	-0.756557
C80	C	0.851193	0.878425	-0.470857
C81	C	0.851194	0.878469	0.107436
C82	C	0.851194	0.878477	0.182488
C83	C	1.038214	0.614909	-0.079538
C84	C	1.101687	0.525468	-0.067943
C85	C	0.817055	0.614965	0.141570
C86	C	0.805469	0.525542	0.228207
C87	C	1.038215	0.614934	0.141600
C88	C	1.101689	0.525500	0.228248
C89	C	0.664169	1.141956	-0.369006
C90	C	0.600695	1.231389	-0.455653
C91	C	0.664171	1.141980	-0.147867
C92	C	0.600697	1.231421	-0.159463
C93	C	0.885330	1.141925	-0.368975
C94	C	0.896916	1.231348	-0.455612
C95	C	1.088309	0.483466	-0.105692
C96	C	1.147943	0.399438	-0.094815
C97	C	1.220955	0.357407	-0.046183
C98	C	1.234333	0.399417	-0.008433
C99	C	1.174700	0.483449	-0.019316
C100	C	0.843214	0.483547	0.312087
C101	C	0.832326	0.399536	0.393497
C102	C	0.783697	0.357517	0.391025
C103	C	0.745947	0.399520	0.307135
C104	C	0.756831	0.483535	0.225726
C105	C	1.174690	0.483491	0.225763
C106	C	1.234339	0.399470	0.307169
C107	C	1.220984	0.357455	0.391060
C108	C	1.147976	0.399473	0.393543
C109	C	1.088329	0.483498	0.312137
C110	C	0.527696	1.273409	-0.453169
C111	C	0.468050	1.357455	-0.534579
C112	C	0.481406	1.399475	-0.618471
C113	C	0.554413	1.357451	-0.620952
C114	C	0.614058	1.273412	-0.539544
C115	C	0.614077	1.273432	-0.121721
C116	C	0.554445	1.357483	-0.132621
C117	C	0.481434	1.399517	-0.181256
C118	C	0.468055	1.357503	-0.219002
C119	C	0.527687	1.273459	-0.208108
C120	C	0.945550	1.273340	-0.453110
C121	C	0.956451	1.357351	-0.534506
C122	C	0.918713	1.399374	-0.618404
C123	C	0.870076	1.357373	-0.620904
C124	C	0.859180	1.273357	-0.539508
H125	H	0.927557	0.467862	-0.190067
Br126	Br	0.679952	0.342481	0.303796
H127	H	1.269506	0.288982	-0.037327
H128	H	1.293780	0.365268	0.305132
H129	H	0.432832	1.467904	-0.684751
Br130	Br	0.768933	0.243496	0.501519
Br131	Br	1.021853	0.748904	-0.487204
Br132	Br	0.946875	1.007834	-0.739918
H133	H	1.293787	0.365183	0.031164
H134	H	0.726095	0.517716	0.157431
Br135	Br	1.192836	0.540499	0.111921
Br136	Br	1.022417	0.414427	-0.284934
Br137	Br	1.301942	0.243421	0.501533
Br138	Br	0.713127	1.216390	-0.542931
Br139	Br	1.192869	0.540435	0.031929
Br140	Br	1.022457	1.414339	-0.531093
H141	H	0.819574	1.239176	-0.541558
H142	H	1.137113	0.365252	0.461858
H143	H	0.882812	0.517750	0.314117
Br144	Br	0.258240	1.007929	-0.317895
H145	H	0.516806	1.239201	-0.384868
H146	H	0.335765	1.076850	-0.222724
Br147	Br	0.368963	1.414559	-0.285003
Br148	Br	0.679967	0.342446	0.057531
H149	H	0.976267	0.239165	-0.238770
Br150	Br	0.713158	1.216408	-0.055714
H151	H	0.408609	1.391656	-0.532540
H152	H	1.028889	0.517691	0.314173
H153	H	0.565279	1.391674	-0.689267
H154	H	0.565352	1.391676	-0.101878
Br155	Br	0.443902	0.749067	-0.175877
H156	H	0.432884	1.467951	-0.190120
Br157	Br	0.933508	1.513398	-0.728864
Br158	Br	1.129770	0.342441	-0.146052
Br159	Br	0.818858	1.414425	-0.734775
H160	H	0.793678	1.076942	-0.680689
Br161	Br	0.509514	1.216450	-0.259331
H162	H	1.028865	0.517687	-0.145304
Br163	Br	0.996776	1.216329	-0.339259
H164	H	0.801690	0.162967	-0.064191
Br165	Br	0.909200	0.540493	-0.171718
H166	H	0.720505	0.977603	-0.710372
Br167	Br	0.926406	0.619460	-0.526787
Br168	Br	0.705609	0.540545	0.031847
Br169	Br	0.706800	0.216429	0.030656
H170	H	0.422181	0.779330	0.042653
Br171	Br	0.371260	0.619323	0.028487
H172	H	0.863071	0.365347	0.461796
Br173	Br	0.258287	1.007969	-0.051783
Br174	Br	0.755705	0.748940	-0.487273
