data_functionalizedCrystal
_audit_creation_method	'MofGen! by Chris Wilmer'
_symmetry_space_group_name_H-M	'P1'
_symmetry_Int_Tables_number	1
_symmetry_cell_setting	triclinic
loop_
_symmetry_equiv_pos_as_xyz
  x,y,z
_cell_length_a	15.944551
_cell_length_b	10.654550
_cell_length_c	9.130313
_cell_angle_alpha	89.996249
_cell_angle_beta	90.001710
_cell_angle_gamma	83.991834
loop_
_atom_site_label
_atom_site_type_symbol
_atom_site_fract_x
_atom_site_fract_y
_atom_site_fract_z
O1	O	-1.115460	-0.161965	0.121646
O2	O	-0.615460	0.338035	0.621646
O3	O	-0.871026	-0.181934	0.121682
O4	O	-0.371026	0.318066	0.621682
O5	O	-0.998863	0.010863	0.121654
O6	O	-0.498863	0.510863	0.621654
O7	O	-0.987623	-0.354761	0.121674
O8	O	-0.487623	0.145239	0.621674
O9	O	-0.998855	0.010866	-0.121945
O10	O	-0.498855	0.510866	0.378055
O11	O	-0.871018	-0.181930	-0.121916
O12	O	-0.371018	0.318070	0.378084
O13	O	-1.115452	-0.161961	-0.121953
O14	O	-0.615452	0.338039	0.378047
Cu15	Cu	-0.993235	-0.171946	-0.144177
Cu16	Cu	-0.493235	0.328054	0.355823
Cu17	Cu	-0.993243	-0.171950	0.143907
Cu18	Cu	-0.493243	0.328050	0.643907
O19	O	-0.987615	-0.354758	-0.121925
O20	O	-0.487615	0.145242	0.378075
C21	C	-0.839723	-0.181103	-0.000112
C22	C	-0.339723	0.318897	0.499888
C23	C	-0.746463	-0.178618	-0.000099
C24	C	-0.246463	0.321382	0.499901
C25	C	-1.146755	-0.162792	-0.000155
C26	C	-0.646755	0.337208	0.499845
C27	C	-1.240015	-0.165278	-0.000159
C28	C	-0.740015	0.334722	0.499841
C29	C	-0.998034	0.057652	-0.000144
C30	C	-0.498034	0.557652	0.499856
C31	C	-0.995565	0.197063	-0.000142
C32	C	-0.495565	0.697063	0.499858
C33	C	-0.530880	-0.053173	-0.000134
C34	C	-0.030880	0.446827	0.499866
C35	C	-0.470201	-0.111427	0.119976
C36	C	0.029799	0.388573	0.619976
C37	C	-0.575711	-0.174122	-0.000116
C38	C	-0.075711	0.325878	0.499884
C39	C	-0.470216	-0.111452	-0.120193
C40	C	0.029784	0.388548	0.379807
C41	C	-0.410773	-0.169770	-0.000140
C42	C	0.089227	0.330230	0.499860
C43	C	-0.516260	-0.232409	0.120093
C44	C	-0.016260	0.267591	0.620093
C45	C	-0.516281	-0.232417	-0.120184
C46	C	-0.016281	0.267583	0.379816
C47	C	-0.455620	-0.290759	-0.000044
C48	C	0.044380	0.209241	0.499956
C49	C	-0.670728	-0.176625	-0.000102
C50	C	-0.170728	0.323375	0.499898
C51	C	-0.315757	-0.167276	-0.000144
C52	C	0.184243	0.332724	0.499856
C53	C	-0.988444	-0.401547	-0.000123
C54	C	-0.488444	0.098453	0.499877
C55	C	-0.990913	-0.540958	-0.000116
C56	C	-0.490913	-0.040958	0.499884
N57	N	-0.993235	-0.171942	-0.346800
N58	N	-0.493235	0.328058	0.153200
C59	C	-1.070833	0.277522	-0.000152
C60	C	-0.570833	0.777522	0.499848
C61	C	-1.068508	0.408513	-0.000134
C62	C	-0.568508	0.908513	0.499866
C63	C	-0.915639	0.378572	-0.000101
C64	C	-0.415639	0.878572	0.499899
C65	C	-0.917965	0.247584	-0.000108
C66	C	-0.417965	0.747584	0.499892
C67	C	-1.049864	-0.086603	-0.576811
C68	C	-0.549864	0.413397	-0.076811
C69	C	-1.049859	-0.086605	-0.423474
C70	C	-0.549859	0.413395	0.076526
C71	C	-0.936618	-0.257291	-0.423470
C72	C	-0.436618	0.242709	0.076530
C73	C	-0.936627	-0.257295	-0.576804
C74	C	-0.436627	0.242705	-0.076804
N75	N	-0.993250	-0.171943	0.346529
N76	N	-0.493250	0.328057	0.846529
H77	H	-0.563632	0.047204	0.000009
H78	H	-0.063632	0.547204	0.500009
Br79	Br	-0.436238	-0.026154	-0.289435
Br80	Br	0.063762	0.473846	0.210565
H81	H	-1.095961	-0.017115	-0.361062
H82	H	-0.595961	0.482885	0.138938
H83	H	-0.890516	-0.326781	-0.361033
H84	H	-0.390516	0.173219	0.138967
H85	H	-0.449797	-0.060272	0.221516
H86	H	0.050203	0.439728	0.721516
Br87	Br	-1.126710	0.029228	-0.680853
Br88	Br	-0.626710	0.529228	-0.180853
H89	H	-0.536706	-0.283530	-0.221728
H90	H	-0.036706	0.216470	0.278272
H91	H	-0.856669	0.182070	-0.000095
H92	H	-0.356669	0.682070	0.499905
H93	H	-1.134019	0.236393	-0.000176
H94	H	-0.634019	0.736393	0.499824
Br95	Br	-0.859795	-0.373131	-0.680855
Br96	Br	-0.359795	0.126869	-0.180855
Br97	Br	-1.170663	0.517705	-0.000140
Br98	Br	-0.670663	1.017705	0.499860
H99	H	-0.536546	-0.283528	0.221748
H100	H	-0.036546	0.216472	0.721748
Br101	Br	-0.401319	-0.458231	0.000067
Br102	Br	0.098681	0.041769	0.500067
Br103	Br	-0.810331	0.447145	-0.000051
Br104	Br	-0.310331	0.947145	0.499949
