data_functionalizedCrystal
_audit_creation_method	'MofGen! by Chris Wilmer'
_symmetry_space_group_name_H-M	'P1'
_symmetry_Int_Tables_number	1
_symmetry_cell_setting	triclinic
loop_
_symmetry_equiv_pos_as_xyz
  x,y,z
_cell_length_a	19.805407
_cell_length_b	19.805405
_cell_length_c	19.805399
_cell_angle_alpha	89.973385
_cell_angle_beta	89.982197
_cell_angle_gamma	90.024042
loop_
_atom_site_label
_atom_site_type_symbol
_atom_site_fract_x
_atom_site_fract_y
_atom_site_fract_z
Zn1	Zn	1.034734	-0.269527	-0.382692
Zn2	Zn	1.034648	-0.382716	-0.269506
Zn3	Zn	0.921549	-0.269541	-0.269520
Zn4	Zn	0.921512	-0.382674	-0.382656
O5	O	0.978111	-0.326115	-0.326094
O6	O	1.129439	-0.284554	-0.367687
O7	O	1.019625	-0.367726	-0.174791
O8	O	0.936615	-0.174822	-0.284554
O9	O	1.129376	-0.367713	-0.284529
O10	O	1.019771	-0.174813	-0.367701
O11	O	0.936531	-0.284576	-0.174802
O12	O	0.826827	-0.284536	-0.284519
O13	O	0.936551	-0.367642	-0.477378
O14	O	0.826800	-0.367655	-0.367639
O15	O	1.019735	-0.284514	-0.477404
O16	O	1.019589	-0.477427	-0.284494
O17	O	0.936468	-0.477396	-0.367625
C18	C	0.802255	-0.326093	-0.326077
C19	C	0.727023	-0.326101	-0.326086
C20	C	0.691712	-0.282876	-0.369452
C21	C	0.621024	-0.282880	-0.369455
C22	C	0.585647	-0.326112	-0.326094
C23	C	0.620963	-0.369338	-0.282724
C24	C	0.691650	-0.369330	-0.282718
C25	C	0.335890	-0.369368	-0.282744
C26	C	0.265197	-0.369374	-0.282755
C27	C	0.265263	-0.282918	-0.369481
C28	C	0.335950	-0.282910	-0.369476
C29	C	0.371260	-0.326134	-0.326103
C30	C	0.447908	-0.326128	-0.326099
C31	C	0.509000	-0.326121	-0.326100
C32	C	0.978034	-0.501971	-0.326069
C33	C	0.978063	-0.577203	-0.326081
C34	C	1.021337	-0.612483	-0.369410
C35	C	1.021361	-0.683172	-0.369422
C36	C	0.978114	-0.718578	-0.326103
C37	C	0.934835	-0.683292	-0.282772
C38	C	0.934808	-0.612605	-0.282763
C39	C	0.934944	-0.968366	-0.282807
C40	C	0.934976	-1.039058	-0.282817
C41	C	1.021497	-1.038932	-0.369466
C42	C	1.021470	-0.968245	-0.369457
C43	C	0.978189	-0.932965	-0.326129
C44	C	0.978162	-0.856317	-0.326117
C45	C	0.978144	-0.795225	-0.326111
C46	C	1.154653	-0.326136	-0.326111
C47	C	1.229885	-0.326146	-0.326118
C48	C	0.978149	-0.326072	-0.502636
C49	C	0.978165	-0.326054	-0.577868
C50	C	0.978207	-0.149572	-0.326133
C51	C	0.978247	-0.074340	-0.326150
C52	C	1.021480	-0.282766	-0.613227
C53	C	1.021487	-0.282747	-0.683916
C54	C	0.978182	-0.326018	-0.719244
C55	C	0.934862	-0.369308	-0.683880
C56	C	0.934852	-0.369323	-0.613193
C57	C	0.934900	-0.369244	-0.968954
C58	C	0.934915	-0.369227	-1.039646
C59	C	1.021535	-0.282668	-1.039677
C60	C	1.021525	-0.282684	-0.968989
C61	C	0.978203	-0.325970	-0.933632
C62	C	0.978195	-0.325990	-0.856983
C63	C	0.978193	-0.326002	-0.795891
C64	C	0.978112	-0.326108	-0.150238
C65	C	0.978227	-0.325936	-0.075006
H66	H	0.592277	-0.247684	-0.404769
H67	H	0.236396	-0.404580	-0.247443
H68	H	0.720511	-0.247674	-0.404763
C69	C	0.887808	-0.416406	-0.574922
C70	C	0.849902	-0.454315	-0.620989
C71	C	0.806565	-0.497704	-0.585760
H72	H	0.858265	-0.390599	-0.547342
H73	H	0.913673	-0.445940	-0.547363
H74	H	0.824039	-0.424785	-0.648536
H75	H	0.879428	-0.480136	-0.648571
H76	H	0.832430	-0.527238	-0.558200
H77	H	0.777026	-0.471892	-0.558181
H78	H	0.780845	-0.523435	-0.617010
C79	C	0.887842	-0.721819	-0.235847
C80	C	0.844465	-0.762428	-0.274135
C81	C	0.801174	-0.797934	-0.230928
H82	H	0.862000	-0.690759	-0.210025
H83	H	0.913746	-0.749427	-0.206394
H84	H	0.818564	-0.734822	-0.303577
H85	H	0.870289	-0.793500	-0.299955
H86	H	0.827077	-0.825542	-0.201474
H87	H	0.775336	-0.766869	-0.205108
H88	H	0.771741	-0.825496	-0.256899
C89	C	1.068313	-0.929719	-0.416531
C90	C	1.029945	-0.889131	-0.459861
C91	C	1.073072	-0.853625	-0.503231
H92	H	1.094104	-0.960778	-0.442404
H93	H	1.097799	-0.902095	-0.390683
H94	H	1.000471	-0.916752	-0.485707
H95	H	1.004155	-0.858059	-0.434006
H96	H	1.102558	-0.826002	-0.477383
H97	H	1.098861	-0.884689	-0.529100
H98	H	1.047046	-0.826078	-0.532631
C99	C	0.374236	-0.235897	-0.416578
C100	C	0.328182	-0.198029	-0.454545
C101	C	0.363425	-0.154705	-0.497934
H102	H	0.401818	-0.261748	-0.446081
H103	H	0.401795	-0.206334	-0.390749
H104	H	0.300635	-0.227589	-0.480372
H105	H	0.300599	-0.172165	-0.425059
H106	H	0.390984	-0.125142	-0.472105
H107	H	0.391006	-0.180561	-0.527433
H108	H	0.332183	-0.129002	-0.523695
C109	C	0.226804	-0.236008	-0.416495
C110	C	0.157327	-0.245249	-0.407208
C111	C	0.121879	-0.202045	-0.450499
H112	H	0.238321	-0.245932	-0.461980
H113	H	0.238362	-0.190502	-0.406664
H114	H	0.145773	-0.290745	-0.417044
H115	H	0.145789	-0.235320	-0.361732
H116	H	0.133438	-0.156539	-0.440668
H117	H	0.133402	-0.211972	-0.495982
H118	H	0.074736	-0.208304	-0.444200
C119	C	0.582434	-0.416250	-0.235719
C120	C	0.512971	-0.407021	-0.245018
C121	C	0.477460	-0.450233	-0.201736
H122	H	0.593921	-0.406326	-0.190231
H123	H	0.593971	-0.461754	-0.245549
H124	H	0.501439	-0.361527	-0.235183
H125	H	0.501464	-0.416949	-0.290497
H126	H	0.488996	-0.495737	-0.211567
H127	H	0.488952	-0.440306	-0.156251
H128	H	0.430326	-0.443981	-0.208044
H129	H	0.720399	-0.404528	-0.247405
C130	C	1.068527	-0.235553	-1.077980
C131	C	1.053837	-0.168588	-1.060781
C132	C	1.097118	-0.125171	-1.096043
H133	H	1.062375	-0.241644	-1.125149
H134	H	1.114008	-0.245430	-1.066386
H135	H	1.008367	-0.158715	-1.072379
H136	H	1.059993	-0.162476	-1.013618
H137	H	1.142599	-0.135048	-1.084449
H138	H	1.090962	-0.131268	-1.143210
H139	H	1.087160	-0.079731	-1.084373
C140	C	1.068552	-1.077115	-0.416547
C141	C	1.106431	-1.030977	-0.454469
C142	C	1.149788	-1.066124	-0.497840
H143	H	1.042725	-1.104691	-0.446079
H144	H	1.098107	-1.104671	-0.390706
H145	H	1.076879	-1.003432	-0.480308
H146	H	1.132272	-1.003399	-0.424955
H147	H	1.179343	-1.093680	-0.472000
H148	H	1.123955	-1.093699	-0.527368
H149	H	1.175498	-1.034824	-0.523571
C150	C	0.374098	-0.416371	-0.235631
C151	C	0.327984	-0.454245	-0.197675
C152	C	0.363159	-0.497559	-0.154272
H153	H	0.401669	-0.390513	-0.206122
H154	H	0.401661	-0.445931	-0.261450
H155	H	0.300432	-0.424689	-0.171859
H156	H	0.300411	-0.480117	-0.227167
H157	H	0.390723	-0.527119	-0.180090
H158	H	0.390730	-0.471695	-0.124767
H159	H	0.331877	-0.523266	-0.128518
C160	C	0.887916	-0.416262	-0.722356
C161	C	0.897208	-0.406998	-0.791830
C162	C	0.853980	-0.450249	-0.827293
H163	H	0.842416	-0.406395	-0.710849
H164	H	0.897801	-0.461758	-0.710800
H165	H	0.887318	-0.361513	-0.803381
H166	H	0.942700	-0.416870	-0.803357
H167	H	0.863865	-0.495745	-0.815737
H168	H	0.808482	-0.440379	-0.815780
H169	H	0.860283	-0.443974	-0.874434
H170	H	0.899756	-1.067884	-0.247540
C171	C	1.068315	-0.574167	-0.416521
C172	C	1.106203	-0.620198	-0.454483
C173	C	1.149478	-0.584929	-0.497898
H174	H	1.097873	-0.546580	-0.390732
H175	H	1.042407	-0.546612	-0.446021
H176	H	1.132109	-0.647742	-0.424987
H177	H	1.076663	-0.647788	-0.480286
H178	H	1.123570	-0.557373	-0.527398
H179	H	1.179032	-0.557342	-0.472104
H180	H	1.175186	-0.616155	-0.523665
H181	H	0.899648	-0.404465	-1.068408
H182	H	1.056604	-0.711894	-0.404700
C183	C	0.887852	-0.930158	-0.235796
C184	C	0.820882	-0.947416	-0.250458
C185	C	0.777483	-0.912237	-0.207154
H186	H	0.893931	-0.882977	-0.241946
H187	H	0.897756	-0.941781	-0.190320
H188	H	0.810982	-0.935788	-0.295923
H189	H	0.814782	-0.994590	-0.244304
H190	H	0.787386	-0.923860	-0.161679
H191	H	0.783568	-0.865058	-0.213308
H192	H	0.732039	-0.923946	-0.217092
H193	H	0.899569	-0.583880	-0.247482
H194	H	1.056746	-0.247532	-0.584468
H195	H	1.056791	-0.247450	-0.940229
C196	C	1.068592	-0.235726	-0.722184
C197	C	1.106531	-0.197851	-0.676116
C198	C	1.149940	-0.154533	-0.711342
H199	H	1.042799	-0.206162	-0.749763
H200	H	1.098107	-0.261603	-0.749744
H201	H	1.077020	-0.171976	-0.648567
H202	H	1.132338	-0.227397	-0.648535
H203	H	1.179454	-0.180410	-0.738903
H204	H	1.124141	-0.124973	-0.738921
H205	H	1.175690	-0.128834	-0.680091
C206	C	0.887831	-0.416304	-0.930693
C207	C	0.849919	-0.454202	-0.976764
C208	C	0.806551	-0.497563	-0.941540
H209	H	0.858292	-0.390478	-0.903125
H210	H	0.913673	-0.445847	-0.903121
H211	H	0.824079	-0.424664	-1.004324
H212	H	0.879440	-0.480042	-1.004333
H213	H	0.832393	-0.527106	-0.913969
H214	H	0.777017	-0.471732	-0.913974
H215	H	0.780827	-0.523287	-0.972794
