data_functionalizedCrystal
_audit_creation_method	'MofGen! by Chris Wilmer'
_symmetry_space_group_name_H-M	'P1'
_symmetry_Int_Tables_number	1
_symmetry_cell_setting	triclinic
loop_
_symmetry_equiv_pos_as_xyz
  x,y,z
_cell_length_a	16.625546
_cell_length_b	13.897449
_cell_length_c	13.897441
_cell_angle_alpha	90.026069
_cell_angle_beta	89.966553
_cell_angle_gamma	89.977604
loop_
_atom_site_label
_atom_site_type_symbol
_atom_site_fract_x
_atom_site_fract_y
_atom_site_fract_z
Zn1	Zn	-0.320977	-1.474671	-0.545499
Zn2	Zn	0.179023	-0.974671	-0.045499
Zn3	Zn	-0.455828	-1.474551	-0.384193
Zn4	Zn	0.044172	-0.974551	0.115807
Zn5	Zn	-0.321013	-1.313360	-0.384203
Zn6	Zn	0.178987	-0.813360	0.115797
Zn7	Zn	-0.455772	-1.313328	-0.545430
Zn8	Zn	0.044228	-0.813328	-0.045430
O9	O	-0.388397	-1.393977	-0.464831
O10	O	0.111603	-0.893977	0.035169
O11	O	-0.338874	-1.609636	-0.524126
O12	O	0.161126	-1.109636	-0.024126
O13	O	-0.437982	-1.453132	-0.249212
O14	O	0.062018	-0.953132	0.250788
O15	O	-0.208176	-1.334821	-0.405632
O16	O	0.291824	-0.834821	0.094368
O17	O	-0.437948	-1.609549	-0.405615
O18	O	0.062052	-1.109549	0.094385
O19	O	-0.208150	-1.453336	-0.524136
O20	O	0.291850	-0.953336	-0.024136
O21	O	-0.338934	-1.334705	-0.249220
O22	O	0.161066	-0.834705	0.250780
O23	O	-0.338880	-1.178374	-0.405565
O24	O	0.161120	-0.678374	0.094435
O25	O	-0.437853	-1.334767	-0.680421
O26	O	0.062147	-0.834767	-0.180421
O27	O	-0.437887	-1.178351	-0.524018
O28	O	0.062113	-0.678351	-0.024018
O29	O	-0.338820	-1.453305	-0.680472
O30	O	0.161180	-0.953305	-0.180472
O31	O	-0.568653	-1.453101	-0.405548
O32	O	-0.068653	-0.953101	0.094452
O33	O	-0.568611	-1.334651	-0.524009
O34	O	-0.068611	-0.834651	-0.024009
C35	C	-0.388382	-1.143363	-0.464786
C36	C	0.111618	-0.643363	0.035214
C37	C	-0.388394	-1.036149	-0.464789
C38	C	0.111606	-0.536149	0.035211
C39	C	-0.388396	-0.949079	-0.464801
C40	C	0.111604	-0.449079	0.035199
C41	C	-0.388400	-0.839847	-0.464826
C42	C	0.111600	-0.339847	0.035174
C43	C	-0.597888	-1.393886	-0.464791
C44	C	-0.097888	-0.893886	0.035209
C45	C	-0.687509	-1.393935	-0.464806
C46	C	-0.187509	-0.893935	0.035194
C47	C	-1.015685	-1.394104	-0.464906
C48	C	-0.515685	-0.894104	0.035094
C49	C	-0.924376	-1.394054	-0.464881
C50	C	-0.424376	-0.894054	0.035119
C51	C	-0.851600	-1.394019	-0.464856
C52	C	-0.351600	-0.894019	0.035144
C53	C	-0.760286	-1.393970	-0.464831
C54	C	-0.260286	-0.893970	0.035169
C55	C	-0.178088	-1.394095	-0.464893
C56	C	0.321912	-0.894095	0.035107
C57	C	-0.088467	-1.394146	-0.464919
C58	C	0.411533	-0.894146	0.035081
C59	C	-0.388326	-1.394046	-0.716424
C60	C	0.111674	-0.894046	-0.216424
C61	C	-0.388296	-1.394075	-0.823638
C62	C	0.111704	-0.894075	-0.323638
C63	C	-0.388410	-0.645570	-0.464866
C64	C	0.111590	-0.145570	0.035134
C65	C	-0.388408	-0.752784	-0.464850
C66	C	0.111592	-0.252784	0.035150
C67	C	-0.388241	-1.394101	-1.019934
C68	C	0.111759	-0.894101	-0.519934
C69	C	-0.388274	-1.394084	-0.910701
C70	C	0.111726	-0.894084	-0.410701
C71	C	-0.388410	-1.393965	-0.214217
C72	C	0.111590	-0.893965	0.285783
C73	C	-0.388213	-1.394122	-0.107004
C74	C	0.111787	-0.894122	0.392996
