data_functionalizedCrystal
_audit_creation_method	'MofGen! by Chris Wilmer'
_symmetry_space_group_name_H-M	'P1'
_symmetry_Int_Tables_number	1
_symmetry_cell_setting	triclinic
loop_
_symmetry_equiv_pos_as_xyz
  x,y,z
_cell_length_a	11.792241
_cell_length_b	27.731996
_cell_length_c	26.809956
_cell_angle_alpha	89.987824
_cell_angle_beta	89.980305
_cell_angle_gamma	83.407402
loop_
_atom_site_label
_atom_site_type_symbol
_atom_site_fract_x
_atom_site_fract_y
_atom_site_fract_z
O1	O	1.504792	0.066249	-0.041438
O2	O	1.174230	0.073077	-0.041451
O3	O	1.349809	-0.000676	-0.041433
O4	O	1.329214	0.140002	-0.041456
O5	O	1.349729	-0.000677	0.041526
O6	O	1.174151	0.073075	0.041509
O7	O	1.504713	0.066248	0.041521
Zn8	Zn	1.339420	0.069661	0.054686
Zn9	Zn	1.339524	0.069663	-0.054616
O10	O	1.329135	0.140000	0.041504
C11	C	1.131913	0.072647	0.000028
C12	C	1.005941	0.071363	0.000023
C13	C	1.349346	-0.018687	0.000048
C14	C	1.348072	-0.072350	0.000053
C15	C	0.775306	0.069003	0.000038
C16	C	0.903648	0.070314	0.000030
C17	C	1.340098	-0.405112	-0.045193
C18	C	1.335259	-0.606799	-0.045202
O19	O	1.334621	-0.632873	-0.083661
N20	N	1.334615	-0.632020	0.000019
C21	C	1.335173	-0.606816	0.045245
O22	O	1.334502	-0.632896	0.083708
C23	C	1.340003	-0.405130	0.045253
C24	C	1.340659	-0.379912	0.000030
C25	C	1.340752	-0.379894	-0.090413
C26	C	1.341968	-0.329476	-0.090410
C27	C	1.342529	-0.304276	-0.045187
C28	C	1.341875	-0.329494	0.000033
C29	C	1.340553	-0.379927	0.090479
C30	C	1.341758	-0.329502	0.090477
C31	C	1.342414	-0.304284	0.045254
C32	C	1.343652	-0.253876	0.045258
N33	N	1.344297	-0.228654	0.000037
C34	C	1.343735	-0.253854	-0.045185
C35	C	1.332639	-0.712704	0.045237
C36	C	1.331433	-0.763126	0.045235
C37	C	1.331517	-0.763104	-0.045211
C38	C	1.332731	-0.712683	-0.045209
C39	C	1.333283	-0.687483	0.000017
C40	C	1.346289	-0.147973	-0.045176
C41	C	1.347510	-0.097550	-0.045170
C42	C	1.347420	-0.097575	0.045277
C43	C	1.346206	-0.147994	0.045271
C44	C	1.345636	-0.173191	0.000040
O45	O	1.344278	-0.227770	0.083697
O46	O	1.344381	-0.227765	-0.083642
C47	C	1.338882	-0.455531	-0.045195
C48	C	1.338227	-0.480749	0.000024
C49	C	1.338789	-0.455549	0.045247
C50	C	1.337022	-0.531170	0.000023
C51	C	1.336460	-0.556370	-0.045200
C52	C	1.337104	-0.531149	-0.090421
C53	C	1.338320	-0.480731	-0.090418
C54	C	1.338145	-0.480770	0.090468
C55	C	1.336930	-0.531188	0.090461
C56	C	1.336369	-0.556388	0.045239
C57	C	1.547030	0.066677	0.000042
C58	C	1.673002	0.067961	0.000043
C59	C	1.329597	0.158011	0.000021
C60	C	1.330872	0.211674	0.000013
N61	N	1.339357	0.069660	0.129282
N62	N	1.339596	0.069661	-0.129212
C63	C	1.261700	0.102305	0.526158
C64	C	1.261641	0.102304	0.317280
O65	O	1.195471	0.130055	0.290273
N66	N	1.339396	0.069659	0.291161
C67	C	1.417167	0.037008	0.317264
O68	O	1.483294	0.009237	0.290255
C69	C	1.417220	0.037006	0.526141
C70	C	1.339467	0.069658	0.552258
C71	C	1.183952	0.134953	0.552275
C72	C	1.183972	0.134954	0.604491
C73	C	1.261739	0.102308	0.630591
C74	C	1.339487	0.069659	0.604474
C75	C	1.494985	0.004354	0.552243
C76	C	1.494990	0.004356	0.604466
C77	C	1.417236	0.037007	0.630582
C78	C	1.417274	0.037014	0.682790
N79	N	1.339518	0.069660	0.708909
C80	C	1.261751	0.102307	0.682810
C81	C	1.417136	0.037012	0.207601
C82	C	1.417124	0.037013	0.155382
C83	C	1.261595	0.102309	0.155402
C84	C	1.261613	0.102310	0.207622
C85	C	1.339380	0.069658	0.233720
C86	C	1.261799	0.102307	0.792467
C87	C	1.261828	0.102307	0.844688
C88	C	1.417352	0.037010	0.844664
C89	C	1.417327	0.037012	0.792448
C90	C	1.339541	0.069662	0.766351
O91	O	1.483400	0.009275	0.709829
O92	O	1.195617	0.130066	0.709827
C93	C	1.261680	0.102303	0.473942
C94	C	1.339428	0.069655	0.447825
C95	C	1.417195	0.037008	0.473924
C96	C	1.339416	0.069656	0.395606
C97	C	1.261649	0.102303	0.369506
C98	C	1.183893	0.134948	0.395626
C99	C	1.183913	0.134950	0.447842
C100	C	1.494951	0.004362	0.447805
C101	C	1.494926	0.004364	0.395589
C102	C	1.417158	0.037010	0.369489
H103	H	1.345820	-0.168482	-0.082007
H104	H	1.558277	-0.022224	0.469051
N105	N	1.330915	-0.788851	-0.091405
N106	N	1.251037	-0.778971	-0.121683
H107	H	1.250602	-0.797157	-0.154305
H108	H	1.120575	0.161533	0.374367
N109	N	1.574374	-0.028990	0.368922
N110	N	1.643799	-0.058135	0.392238
H111	H	1.699905	-0.081693	0.373407
H112	H	1.480673	0.010431	0.865922
H113	H	1.336405	-0.551717	0.127291
H114	H	1.120619	0.161538	0.531029
H115	H	1.558298	-0.022234	0.530986
H116	H	1.348047	-0.077020	-0.081998
H117	H	1.347883	-0.077049	0.082096
H118	H	1.198512	0.128898	0.865951
H119	H	1.333094	-0.692192	0.082068
N120	N	1.342633	-0.303727	-0.136610
N121	N	1.342127	-0.326242	-0.176980
H122	H	1.342593	-0.308060	-0.209612
N123	N	1.574431	-0.029004	0.631116
N124	N	1.643838	-0.058153	0.607787
H125	H	1.699944	-0.081713	0.626608
N126	N	1.496570	0.003615	0.765729
N127	N	1.495604	-0.041054	0.771580
H128	H	1.551494	-0.064659	0.752696
H129	H	1.120656	0.161540	0.625752
N130	N	1.496584	0.003653	0.234248
N131	N	1.565997	-0.025490	0.210915
H132	H	1.622111	-0.049050	0.229733
N133	N	1.340171	-0.405622	-0.136615
N134	N	1.340752	-0.383090	-0.176982
H135	H	1.340348	-0.401258	-0.209616
N136	N	1.330789	-0.788876	0.091435
N137	N	1.331290	-0.766364	0.131806
H138	H	1.330831	-0.784548	0.164437
H139	H	1.333263	-0.692153	-0.082034
N140	N	1.104484	0.168307	0.474508
N141	N	1.035062	0.197451	0.451190
H142	H	0.978959	0.221012	0.470019
H143	H	1.342191	-0.308986	0.127306
N144	N	1.339894	-0.405671	0.136679
N145	N	1.340392	-0.383155	0.177049
H146	H	1.339927	-0.401336	0.209681
N147	N	1.345525	-0.173750	0.091467
N148	N	1.265596	-0.163868	0.121740
H149	H	1.265102	-0.182055	0.154367
N150	N	1.339006	-0.454976	-0.136613
N151	N	1.418932	-0.464856	-0.166888
H152	H	1.419417	-0.446669	-0.199516
N153	N	1.336546	-0.556904	-0.136611
N154	N	1.335467	-0.601922	-0.136599
H155	H	1.335070	-0.620114	-0.169219
N156	N	1.338713	-0.455040	0.136669
N157	N	1.338136	-0.477570	0.177037
H158	H	1.338542	-0.459401	0.209670
H159	H	1.198457	0.128894	0.771225
N160	N	1.182182	0.135665	0.234289
N161	N	1.112760	0.164811	0.210973
H162	H	1.056655	0.188369	0.229804
H163	H	1.198276	0.128892	0.134143
N164	N	1.496560	0.003659	0.128715
N165	N	1.565977	-0.025489	0.152031
H166	H	1.622076	-0.049049	0.133200
