data_functionalizedCrystal
_audit_creation_method	'MofGen! by Chris Wilmer'
_symmetry_space_group_name_H-M	'P1'
_symmetry_Int_Tables_number	1
_symmetry_cell_setting	triclinic
loop_
_symmetry_equiv_pos_as_xyz
  x,y,z
_cell_length_a	19.188925
_cell_length_b	19.188930
_cell_length_c	11.804783
_cell_angle_alpha	76.675961
_cell_angle_beta	76.683120
_cell_angle_gamma	83.143665
loop_
_atom_site_label
_atom_site_type_symbol
_atom_site_fract_x
_atom_site_fract_y
_atom_site_fract_z
O1	O	0.913604	0.074593	0.099056
O2	O	0.710293	0.086332	0.099055
O3	O	0.817819	-0.021190	0.099032
O4	O	0.806078	0.182115	0.099079
O5	O	0.842885	0.003909	-0.099002
O6	O	0.735359	0.111431	-0.098980
O7	O	0.938671	0.099693	-0.098978
Cu8	Cu	0.839304	0.107854	-0.117061
Cu9	Cu	0.809660	0.078171	0.117138
O10	O	0.831145	0.207215	-0.098956
C11	C	0.696815	0.098502	0.000037
C12	C	0.619310	0.097363	0.000035
C13	C	0.829972	-0.034651	0.000011
C14	C	0.828833	-0.112154	0.000001
C15	C	0.057538	0.152825	0.000051
C16	C	0.130361	0.153901	0.000057
C17	C	0.175297	0.090811	0.000041
C18	C	0.147402	0.026636	0.000048
C19	C	0.074580	0.025561	0.000054
N20	N	0.304509	0.053680	-0.067382
N21	N	0.373687	0.054706	-0.067389
C22	C	0.394708	0.094046	0.000028
N23	N	0.343938	0.132334	0.067438
N24	N	0.274754	0.131311	0.067440
C25	C	0.254262	0.091969	0.000036
C26	C	0.501556	0.159382	0.000036
C27	C	0.574379	0.160454	0.000050
C28	C	0.591421	0.033189	0.000029
C29	C	0.518598	0.032117	0.000027
C30	C	0.473670	0.095216	0.000025
C31	C	0.891925	-0.157079	-0.000004
C32	C	0.890851	-0.229905	0.000015
C33	C	0.826684	-0.257801	0.000015
C34	C	0.763583	-0.212867	0.000027
C35	C	0.764658	-0.140044	0.000020
N36	N	0.786167	-0.357263	-0.067380
N37	N	0.785151	-0.426442	-0.067376
C38	C	0.823443	-0.477212	0.000040
N39	N	0.862802	-0.456190	0.067435
N40	N	0.863820	-0.387004	0.067426
C41	C	0.825512	-0.336764	0.000024
C42	C	0.885374	-0.601104	0.000057
C43	C	0.884297	-0.673932	0.000083
C44	C	0.757029	-0.656891	0.000083
C45	C	0.758107	-0.584066	0.000069
C46	C	0.822282	-0.556176	0.000050
C47	C	0.952148	0.087522	0.000042
C48	C	1.029652	0.088660	0.000051
C49	C	0.818991	0.220675	0.000067
C50	C	0.820129	0.298177	0.000085
N51	N	0.860159	0.128731	-0.281784
C52	C	0.738704	0.007149	-0.655836
C53	C	0.722914	-0.008648	-0.531188
C54	C	0.757224	0.025695	-0.468831
C55	C	0.807327	0.075839	-0.531134
C56	C	0.823123	0.091634	-0.655795
C57	C	0.841642	0.110180	-0.468789
C58	C	0.891745	0.160323	-0.531093
C59	C	0.907538	0.176116	-0.655741
C60	C	0.873229	0.141773	-0.718098
C61	C	0.825846	0.094385	-0.344129
C62	C	0.910265	0.178869	-0.344087
C63	C	0.926055	0.194667	-0.468736
N64	N	0.788810	0.057288	0.281860
H65	H	0.020961	0.204205	0.000055
H66	H	0.495894	-0.020132	0.000020
N67	N	0.958716	0.227330	-0.719411
N68	N	1.013770	0.208770	-0.788967
H69	H	1.049912	0.244942	-0.833938
N70	N	0.158845	0.219453	0.000056
N71	N	0.118723	0.275783	0.000057
H72	H	0.138837	0.322081	0.000053
H73	H	0.713279	-0.103466	0.000024
H74	H	0.183994	-0.024732	0.000038
N75	N	0.950914	-0.572602	0.000068
N76	N	0.951865	-0.507581	0.000060
H77	H	0.998153	-0.487452	0.000071
H78	H	0.966850	0.235495	-0.519481
N79	N	0.602879	0.225992	0.000060
N80	N	0.631048	0.230214	0.083536
H81	H	0.651179	0.276501	0.083543
H82	H	0.051876	-0.026692	0.000054
H83	H	0.704783	-0.679603	0.000090
H84	H	0.628007	-0.018181	0.000024
H85	H	0.935675	-0.710511	0.000085
N86	N	0.957471	-0.128581	-0.000025
N87	N	0.982833	-0.079275	-0.083507
H88	H	1.029125	-0.059147	-0.083522
N89	N	0.945314	0.213943	-0.280387
N90	N	0.931206	0.199834	-0.169090
H91	H	0.955959	0.224600	-0.124093
H92	H	0.706732	-0.547486	0.000067
H93	H	0.785052	0.053558	-0.293414
N94	N	0.889372	0.157914	-0.845427
N95	N	0.934111	0.202680	-0.901044
H96	H	0.945512	0.214079	-0.990972
N97	N	0.741090	0.009550	-0.341507
N98	N	0.696354	-0.035221	-0.285894
H99	H	0.684955	-0.046624	-0.195965
H100	H	0.682122	-0.049477	-0.480470
H101	H	0.710780	-0.020812	-0.706619
N102	N	0.455669	0.223838	0.000034
N103	N	0.480579	0.281126	0.000043
H104	H	0.448174	0.326650	0.000041
N105	N	0.955309	-0.275793	-0.000013
N106	N	1.008594	-0.262789	-0.083503
H107	H	1.054119	-0.295195	-0.083527
N108	N	0.698044	-0.241371	0.000038
N109	N	0.697092	-0.306392	0.000044
H110	H	0.650802	-0.326524	0.000058
