data_functionalizedCrystal
_audit_creation_method	'MofGen! by Chris Wilmer'
_symmetry_space_group_name_H-M	'P1'
_symmetry_Int_Tables_number	1
_symmetry_cell_setting	triclinic
loop_
_symmetry_equiv_pos_as_xyz
  x,y,z
_cell_length_a	15.944551
_cell_length_b	19.188930
_cell_length_c	14.421503
_cell_angle_alpha	89.999163
_cell_angle_beta	89.996859
_cell_angle_gamma	83.321760
loop_
_atom_site_label
_atom_site_type_symbol
_atom_site_fract_x
_atom_site_fract_y
_atom_site_fract_z
O1	O	1.114192	0.090038	-0.077026
O2	O	0.869601	0.101140	-0.077050
O3	O	0.998955	-0.006048	-0.077019
O4	O	0.984838	0.197227	-0.077057
O5	O	0.998934	-0.006032	0.077204
O6	O	0.869580	0.101156	0.077173
O7	O	1.114171	0.090054	0.077198
Cu8	Cu	0.991873	0.095607	0.091267
Cu9	Cu	0.991899	0.095588	-0.091120
O10	O	0.984817	0.197243	0.077167
C11	C	0.838298	0.100687	0.000059
C12	C	0.745057	0.099306	0.000050
C13	C	0.530462	0.029563	0.000081
C14	C	0.469331	0.061941	-0.075965
C15	C	0.574341	0.096806	0.000062
C16	C	0.469332	0.061973	0.076087
C17	C	0.409437	0.094386	0.000077
C18	C	0.514438	0.129203	-0.076047
C19	C	0.514446	0.129225	0.076073
C20	C	0.453332	0.161652	0.000008
C21	C	0.669338	0.098198	0.000052
C22	C	0.314441	0.093000	0.000080
C23	C	0.998487	-0.032052	0.000095
C24	C	0.997115	-0.109560	0.000103
C25	C	1.073016	-0.154288	0.000115
C26	C	1.071726	-0.227115	0.000100
C27	C	0.994532	-0.255211	0.000092
C28	C	0.918622	-0.210474	0.000075
C29	C	0.919913	-0.137648	0.000080
N30	N	0.935519	-0.363364	0.052571
N31	N	0.934298	-0.432545	0.052568
C32	C	0.990637	-0.474630	0.000073
N33	N	1.048256	-0.444921	-0.052407
N34	N	1.049480	-0.375733	-0.052400
C35	C	0.993123	-0.334178	0.000085
C36	C	1.065145	-0.598326	0.000067
C37	C	1.063852	-0.671154	0.000046
C38	C	0.910745	-0.654511	0.000030
C39	C	0.912040	-0.581685	0.000041
C40	C	0.989242	-0.553597	0.000064
C41	C	1.145474	0.090507	0.000087
C42	C	1.238715	0.091889	0.000089
C43	C	0.985285	0.223247	0.000050
C44	C	0.986657	0.300755	0.000036
N45	N	0.991862	0.095619	0.219549
N46	N	0.991917	0.095569	-0.219401
C47	C	0.932038	0.145161	0.469188
C48	C	1.007887	0.158716	0.530995
C49	C	0.991882	0.095603	0.408710
C50	C	0.916052	0.082064	0.530997
C51	C	0.991895	0.095588	0.591431
C52	C	1.067770	0.109189	0.469157
C53	C	0.975885	0.032510	0.469153
C54	C	1.051789	0.046038	0.530932
C55	C	0.991874	0.095613	0.303449
C56	C	0.991913	0.095578	0.696690
H57	H	1.135880	-0.131424	0.000131
H58	H	0.881481	0.187105	0.442078
H59	H	0.449336	0.033493	-0.140247
C60	C	0.829419	0.066595	0.567694
H61	H	0.836247	0.024977	0.603935
H62	H	0.793001	0.060555	0.516925
H63	H	0.805567	0.104714	0.604877
C64	C	0.541299	0.167601	-0.162984
H65	H	0.600789	0.168226	-0.162470
H66	H	0.514187	0.214379	-0.163189
H67	H	0.525505	0.143878	-0.216926
H68	H	1.133536	-0.263540	0.000106
C69	C	0.408247	0.237115	-0.000061
H70	H	0.423676	0.260880	-0.054130
H71	H	0.424376	0.261184	0.053438
H72	H	0.348866	0.235833	0.000445
C73	C	0.836421	-0.088443	0.000069
H74	H	0.848247	-0.041048	0.000069
H75	H	0.804743	-0.096961	0.053842
H76	H	0.804769	-0.096956	-0.053727
C77	C	1.120234	-0.010587	0.567337
H78	H	1.174047	-0.000858	0.546047
H79	H	1.109323	-0.055287	0.545225
H80	H	1.119566	-0.010539	0.633207
H81	H	0.564003	-0.026244	-0.000003
C82	C	0.833710	-0.241377	0.000069
H83	H	0.843811	-0.291155	0.000077
H84	H	0.802475	-0.226023	-0.053715
H85	H	0.802463	-0.226023	0.053854
C86	C	1.150061	-0.567426	0.000082
H87	H	1.195082	-0.604498	0.000073
H88	H	1.153741	-0.539367	0.053867
H89	H	1.153753	-0.539359	-0.053702
C90	C	1.154428	0.124738	0.432627
H91	H	1.190606	0.131199	0.483477
H92	H	1.147544	0.166136	0.395964
H93	H	1.178603	0.086462	0.395913
H94	H	1.125662	-0.707571	0.000051
C95	C	0.825833	-0.685408	0.000018
H96	H	0.835933	-0.735187	0.000020
H97	H	0.794599	-0.670050	-0.053765
H98	H	0.794584	-0.670058	0.053804
C99	C	0.828548	-0.532482	0.000044
H100	H	0.782388	-0.559643	0.000045
H101	H	0.825874	-0.503722	-0.053733
H102	H	0.825866	-0.503732	0.053836
C103	C	0.541497	0.167621	0.162913
H104	H	0.526238	0.143667	0.216897
H105	H	0.514026	0.214281	0.163451
H106	H	0.600926	0.168586	0.161976
H107	H	0.449343	0.033526	0.140376
C108	C	1.026178	0.230782	0.567706
H109	H	0.983602	0.265949	0.546574
H110	H	1.079640	0.240740	0.545627
H111	H	1.026556	0.230120	0.633574
H112	H	0.962318	-0.020823	0.441967
