data_functionalizedCrystal
_audit_creation_method	'MofGen! by Chris Wilmer'
_symmetry_space_group_name_H-M	'P1'
_symmetry_Int_Tables_number	1
_symmetry_cell_setting	triclinic
loop_
_symmetry_equiv_pos_as_xyz
  x,y,z
_cell_length_a	14.971486
_cell_length_b	17.019294
_cell_length_c	14.048226
_cell_angle_alpha	86.114596
_cell_angle_beta	89.998499
_cell_angle_gamma	83.504267
loop_
_atom_site_label
_atom_site_type_symbol
_atom_site_fract_x
_atom_site_fract_y
_atom_site_fract_z
O1	O	1.186691	0.102801	-0.087476
O2	O	0.926261	0.115111	-0.088511
O3	O	1.063741	-0.005870	-0.078576
O4	O	1.049211	0.223782	-0.097411
O5	O	1.063724	-0.005877	0.079746
O6	O	0.926244	0.115104	0.069811
O7	O	1.186675	0.102794	0.070846
Zn8	Zn	1.056457	0.108948	0.095465
Zn9	Zn	1.056479	0.108957	-0.113131
O10	O	1.049195	0.223775	0.060910
C11	C	0.892929	0.114557	-0.009308
C12	C	0.793636	0.112907	-0.009183
C13	C	0.736234	0.183981	-0.015011
C14	C	0.642939	0.182426	-0.014869
C15	C	0.607047	0.109797	-0.008906
C16	C	0.664456	0.038718	-0.003075
C17	C	0.757750	0.040274	-0.003210
C18	C	0.470002	0.035480	-0.002796
C19	C	0.376702	0.033924	-0.002663
C20	C	0.355190	0.177632	-0.014455
C21	C	0.448484	0.179188	-0.014590
C22	C	0.505887	0.108109	-0.008761
C23	C	1.063181	-0.035263	0.002993
C24	C	1.061528	-0.122836	0.010169
C25	C	1.060763	-0.163969	-0.072761
C26	C	1.059204	-0.246252	-0.066016
C27	C	1.058417	-0.287400	0.023660
C28	C	1.059180	-0.246261	0.106596
C29	C	1.060732	-0.163979	0.099850
C30	C	1.053723	-0.535838	0.048347
C31	C	1.052173	-0.618126	0.055087
C32	C	1.052195	-0.618111	-0.117525
C33	C	1.053753	-0.535828	-0.124264
C34	C	1.054511	-0.494695	-0.041328
C35	C	1.056826	-0.371507	0.030557
C36	C	1.056096	-0.410590	-0.048226
C37	C	1.220007	0.103348	-0.008359
C38	C	1.319300	0.104998	-0.008491
C39	C	1.049754	0.253168	-0.020661
C40	C	1.051407	0.340741	-0.027843
N41	N	1.056449	0.108941	0.237826
N42	N	1.056494	0.108958	-0.255491
C43	C	1.117344	0.055392	0.292042
C44	C	1.117350	0.055392	0.391700
C45	C	1.056464	0.108944	0.437140
C46	C	0.995563	0.162495	0.382917
C47	C	0.995553	0.162491	0.283261
C48	C	0.995588	0.162501	0.590631
C49	C	0.995599	0.162506	0.690293
C50	C	1.117385	0.055402	0.699069
C51	C	1.117376	0.055398	0.599413
C52	C	1.056475	0.108950	0.545197
H53	H	0.347482	-0.025217	0.002194
C54	C	0.533146	-0.042707	0.003612
C55	C	0.600236	-0.061393	-0.077075
C56	C	0.663379	-0.139578	-0.070673
C57	C	0.659432	-0.199078	0.016416
C58	C	0.592339	-0.180395	0.097108
C59	C	0.529195	-0.102209	0.090707
H60	H	0.603161	-0.017346	-0.141548
H61	H	0.713046	-0.153409	-0.130407
H62	H	0.706174	-0.256956	0.021154
H63	H	0.589414	-0.224442	0.161582
H64	H	0.479529	-0.088379	0.150441
C65	C	1.054614	-0.490561	-0.222906
C66	C	0.978053	-0.425106	-0.252007
C67	C	0.978917	-0.379836	-0.350649
C68	C	1.056342	-0.400022	-0.420189
C69	C	1.132909	-0.465481	-0.391089
C70	C	1.132045	-0.510750	-0.292447
H71	H	0.920733	-0.410160	-0.200528
H72	H	0.922237	-0.331379	-0.372190
H73	H	1.056982	-0.366511	-0.493209
H74	H	1.190229	-0.480427	-0.442568
H75	H	1.188725	-0.559207	-0.270906
H76	H	0.477704	0.238329	-0.019455
H77	H	1.166928	0.011787	0.255051
H78	H	1.166935	0.011788	0.435842
C79	C	0.928568	0.221397	0.223621
C80	C	0.861626	0.280332	0.273597
C81	C	0.794636	0.339237	0.213959
C82	C	0.794588	0.339208	0.104344
C83	C	0.861533	0.280271	0.054361
C84	C	0.928523	0.221366	0.114000
H85	H	0.861659	0.280356	0.354746
H86	H	0.745079	0.382866	0.250960
H87	H	0.744998	0.382813	0.060196
H88	H	0.861500	0.280247	-0.026788
H89	H	0.978080	0.177737	0.076999
C90	C	1.051349	-0.663358	-0.208749
C91	C	1.127912	-0.728809	-0.227118
C92	C	1.127061	-0.774055	-0.318346
C93	C	1.049646	-0.753850	-0.391206
C94	C	0.973078	-0.688395	-0.372839
C95	C	0.973929	-0.643149	-0.281611
H96	H	1.185224	-0.743769	-0.173181
H97	H	1.183742	-0.822509	-0.331942
H98	H	1.049016	-0.787343	-0.458738
H99	H	0.915766	-0.673435	-0.426776
H100	H	0.917247	-0.594695	-0.268015
H101	H	1.061408	-0.130472	-0.145784
C102	C	1.051265	-0.663404	0.153726
C103	C	0.973804	-0.643218	0.223224
C104	C	0.972881	-0.688502	0.321851
C105	C	1.049419	-0.753972	0.350981
C106	C	1.126885	-0.774160	0.281482
C107	C	1.127808	-0.728876	0.182854
H108	H	0.917141	-0.594751	0.201661
H109	H	0.915535	-0.673557	0.373299
H110	H	1.048735	-0.787493	0.423992
H111	H	1.183548	-0.822627	0.303044
H112	H	1.185155	-0.743821	0.131407
C113	C	0.820897	-0.037908	0.003198
C114	C	0.816947	-0.097402	0.090293
C115	C	0.880093	-0.175585	0.096707
C116	C	0.947190	-0.194275	0.016027
C117	C	0.951142	-0.134780	-0.071074
C118	C	0.887996	-0.056596	-0.077488
H119	H	0.767275	-0.083568	0.150022
H120	H	0.877167	-0.219628	0.161184
H121	H	0.993934	-0.252151	0.020775
H122	H	1.000814	-0.148613	-0.130803
H123	H	0.890923	-0.012554	-0.141966
H124	H	1.061343	-0.130488	0.167380
C125	C	1.054575	-0.490606	0.139578
C126	C	0.976732	-0.493050	0.210981
C127	C	0.977591	-0.447817	0.302219
C128	C	1.056293	-0.400140	0.322054
C129	C	1.134142	-0.397695	0.250649
C130	C	1.133283	-0.442928	0.159411
H131	H	0.918467	-0.528345	0.196300
H132	H	0.919961	-0.449628	0.355077
H133	H	1.056928	-0.366656	0.389593
H134	H	1.192407	-0.362400	0.265330
H135	H	1.190913	-0.441117	0.106552
C136	C	0.579800	0.260610	-0.021280
C137	C	0.583747	0.320102	-0.108376
C138	C	0.520611	0.398292	-0.114783
C139	C	0.453527	0.416989	-0.034094
C140	C	0.449577	0.357495	0.053009
C141	C	0.512714	0.279306	0.059416
H142	H	0.633409	0.306263	-0.168112
H143	H	0.523535	0.442333	-0.179262
H144	H	0.406789	0.474869	-0.038837
H145	H	0.399915	0.371334	0.112745
H146	H	0.509789	0.235265	0.123895
H147	H	0.765449	0.243124	-0.019867
C148	C	1.056964	-0.365329	-0.146867
C149	C	1.134396	-0.385515	-0.216398
C150	C	1.135269	-0.340246	-0.315040
C151	C	1.058710	-0.274791	-0.344149
C152	C	0.981272	-0.254602	-0.274616
C153	C	0.980399	-0.299871	-0.175975
H154	H	1.191075	-0.433972	-0.194851
H155	H	1.192595	-0.355192	-0.366512
H156	H	1.059357	-0.241281	-0.417169
H157	H	0.924593	-0.206145	-0.296163
H158	H	0.923074	-0.284925	-0.124502
C159	C	1.184349	-0.003508	0.549424
C160	C	1.182972	-0.093341	0.570497
C161	C	1.249944	-0.152248	0.520506
C162	C	1.318293	-0.121322	0.449443
C163	C	1.319673	-0.031484	0.428366
C164	C	1.252701	0.027423	0.478357
H165	H	1.132374	-0.116238	0.623106
H166	H	1.248922	-0.218752	0.536109
H167	H	1.367869	-0.164929	0.412436
H168	H	1.370271	-0.008587	0.375757
H169	H	1.253723	0.093927	0.462754
H170	H	0.308448	0.235508	-0.019198
H171	H	1.058534	-0.279770	0.179612
H172	H	1.056188	-0.405020	0.103571
C173	C	1.184374	-0.003509	0.758705
C174	C	1.184382	-0.003510	0.868323
C175	C	1.251370	-0.062415	0.927964
C176	C	1.318350	-0.121318	0.877988
C177	C	1.318344	-0.121319	0.768365
C178	C	1.251356	-0.062415	0.708723
H179	H	1.134797	0.040096	0.905323
H180	H	1.251373	-0.062414	1.009115
H181	H	1.367938	-0.164923	0.922139
H182	H	1.367929	-0.164925	0.731364
H183	H	1.251352	-0.062416	0.627572
H184	H	0.946019	0.206113	0.727285
H185	H	0.635226	-0.020418	0.001794
H186	H	0.945993	0.206107	0.546491
H187	H	1.058584	-0.279739	-0.133546
H188	H	0.945984	0.206096	0.419920
