data_functionalizedCrystal
_audit_creation_method	'MofGen! by Chris Wilmer'
_symmetry_space_group_name_H-M	'P1'
_symmetry_Int_Tables_number	1
_symmetry_cell_setting	triclinic
loop_
_symmetry_equiv_pos_as_xyz
  x,y,z
_cell_length_a	13.101039
_cell_length_b	14.519709
_cell_length_c	14.044220
_cell_angle_alpha	88.434511
_cell_angle_beta	93.667477
_cell_angle_gamma	86.641741
loop_
_atom_site_label
_atom_site_type_symbol
_atom_site_fract_x
_atom_site_fract_y
_atom_site_fract_z
O1	O	0.085082	-1.238528	-0.119055
O2	O	0.418416	-0.905194	0.214278
O3	O	0.751749	-0.571861	0.547611
O4	O	0.085114	-0.971233	-0.133688
O5	O	0.418447	-0.637900	0.199645
O6	O	0.751781	-0.304566	0.532979
O7	O	0.085089	-1.100868	0.011619
O8	O	0.418422	-0.767534	0.344952
O9	O	0.751755	-0.434201	0.678286
O10	O	0.085108	-1.108893	-0.264362
O11	O	0.418441	-0.775560	0.068971
O12	O	0.751774	-0.442226	0.402304
O13	O	-0.085340	-1.091568	0.001176
O14	O	0.247994	-0.758235	0.334510
O15	O	0.581327	-0.424901	0.667843
O16	O	-0.085314	-0.961933	-0.144131
O17	O	0.248019	-0.628600	0.189202
O18	O	0.581353	-0.295266	0.522536
O19	O	-0.085346	-1.229228	-0.129498
O20	O	0.247988	-0.895895	0.203835
O21	O	0.581321	-0.562561	0.537168
Zn22	Zn	-0.112389	-1.094104	-0.138473
Zn23	Zn	0.220944	-0.760771	0.194861
Zn24	Zn	0.554278	-0.427437	0.528194
Zn25	Zn	0.112157	-1.106357	-0.124714
Zn26	Zn	0.445491	-0.773023	0.208620
Zn27	Zn	0.778824	-0.439690	0.541953
O28	O	-0.085320	-1.099593	-0.274805
O29	O	0.248013	-0.766260	0.058528
O30	O	0.581346	-0.432926	0.391861
C31	C	-0.000096	-0.932168	-0.138227
C32	C	0.333237	-0.598835	0.195106
C33	C	0.666571	-0.265502	0.528440
C34	C	-0.000084	-0.829623	-0.136183
C35	C	0.333249	-0.496290	0.197151
C36	C	0.666582	-0.162956	0.530484
N37	N	-0.265636	-1.085748	-0.147862
N38	N	0.067697	-0.752415	0.185471
N39	N	0.401031	-0.419082	0.518805
C40	C	-0.000133	-1.268292	-0.124959
C41	C	0.333200	-0.934959	0.208374
C42	C	0.666533	-0.601626	0.541708
C43	C	-0.000138	-1.370838	-0.127003
C44	C	0.333195	-1.037505	0.206330
C45	C	0.666528	-0.704172	0.539664
C46	C	-0.474676	-1.074381	-0.160646
C47	C	-0.141343	-0.741048	0.172688
C48	C	0.191990	-0.407714	0.506021
C49	C	-0.525562	-1.126083	-0.102536
C50	C	-0.192229	-0.792750	0.230797
C51	C	0.141105	-0.459417	0.564130
C52	C	-0.641879	-1.119759	-0.109649
C53	C	-0.308546	-0.786425	0.223684
C54	C	0.024787	-0.453092	0.557018
C55	C	-0.358348	-1.080705	-0.153534
C56	C	-0.025015	-0.747372	0.179799
C57	C	0.308318	-0.414038	0.513133
N58	N	0.265404	-1.114719	-0.115317
N59	N	0.598737	-0.781386	0.218017
N60	N	0.932071	-0.448052	0.551350
C61	C	-0.000126	-1.092705	0.041718
C62	C	0.333208	-0.759372	0.375051
C63	C	0.666541	-0.426039	0.708385
C64	C	-0.000126	-1.082228	0.146962
C65	C	0.333208	-0.748895	0.480295
C66	C	0.666541	-0.415561	0.813628
C67	C	-0.000131	-0.454118	-0.128661
C68	C	0.333202	-0.120784	0.204672
C69	C	0.666535	0.212549	0.538005
C70	C	-0.000118	-0.558595	-0.130750
C71	C	0.333215	-0.225262	0.202583
C72	C	0.666549	0.108072	0.535917
C73	C	-0.000107	-0.641867	-0.132422
C74	C	0.333226	-0.308534	0.200912
C75	C	0.666560	0.024800	0.534245
C76	C	-0.000095	-0.746351	-0.134511
C77	C	0.333238	-0.413017	0.198822
C78	C	0.666571	-0.079684	0.532156
C79	C	-0.000104	-1.107756	-0.304904
C80	C	0.333229	-0.774422	0.028429
C81	C	0.666563	-0.441089	0.361762
C82	C	-0.000097	-1.118233	-0.410147
C83	C	0.333236	-0.784900	-0.076814
C84	C	0.666569	-0.451566	0.256519
C85	C	-0.000109	-1.063075	0.339657
C86	C	0.333225	-0.729741	0.672990
C87	C	0.666558	-0.396408	1.006323
C88	C	-0.000114	-1.137382	0.397163
C89	C	0.333219	-0.804049	0.730497
C90	C	0.666552	-0.470716	1.063830
C91	C	-0.000105	-1.126725	0.504385
C92	C	0.333229	-0.793392	0.837719
C93	C	0.666562	-0.460059	1.171052
C94	C	-0.000118	-1.073730	0.232424
C95	C	0.333215	-0.740397	0.565758
C96	C	0.666549	-0.407064	0.899091
H97	H	-0.518464	-1.025371	-0.215734
H98	H	-0.185130	-0.692038	0.117600
H99	H	0.148203	-0.358704	0.450933
H100	H	-0.000054	-1.209007	0.365875
H101	H	0.333279	-0.875674	0.699208
H102	H	0.666613	-0.542341	1.032541
H103	H	-0.000098	-0.991459	0.370948
H104	H	0.333236	-0.658126	0.704281
H105	H	0.666569	-0.324793	1.037615
H106	H	-0.481769	-1.175098	-0.047446
H107	H	-0.148436	-0.841765	0.285888
H108	H	0.184897	-0.508431	0.619221
