data_functionalizedCrystal
_audit_creation_method	'MofGen! by Chris Wilmer'
_symmetry_space_group_name_H-M	'P1'
_symmetry_Int_Tables_number	1
_symmetry_cell_setting	triclinic
loop_
_symmetry_equiv_pos_as_xyz
  x,y,z
_cell_length_a	16.120444
_cell_length_b	16.120566
_cell_length_c	16.120297
_cell_angle_alpha	89.874982
_cell_angle_beta	95.615117
_cell_angle_gamma	89.830856
loop_
_atom_site_label
_atom_site_type_symbol
_atom_site_fract_x
_atom_site_fract_y
_atom_site_fract_z
Zn1	Zn	-0.422256	-1.224976	-0.554884
Zn2	Zn	-0.172256	-0.974976	-0.304884
Zn3	Zn	0.077744	-0.724976	-0.054884
Zn4	Zn	0.327744	-0.474976	0.195116
Zn5	Zn	-0.554941	-1.224869	-0.422191
Zn6	Zn	-0.304941	-0.974869	-0.172191
Zn7	Zn	-0.054941	-0.724869	0.077809
Zn8	Zn	0.195059	-0.474869	0.327809
Zn9	Zn	-0.408173	-1.093716	-0.408120
Zn10	Zn	-0.158173	-0.843716	-0.158120
Zn11	Zn	0.091827	-0.593716	0.091880
Zn12	Zn	0.341827	-0.343716	0.341880
Zn13	Zn	-0.554175	-1.078867	-0.554115
Zn14	Zn	-0.304175	-0.828867	-0.304115
Zn15	Zn	-0.054175	-0.578867	-0.054115
Zn16	Zn	0.195825	-0.328867	0.195885
O17	O	-0.484886	-1.155607	-0.484827
O18	O	-0.234886	-0.905607	-0.234827
O19	O	0.015114	-0.655607	0.015173
O20	O	0.265114	-0.405607	0.265173
O21	O	-0.446072	-1.340998	-0.543493
O22	O	-0.196072	-1.090998	-0.293493
O23	O	0.053928	-0.840998	-0.043493
O24	O	0.303928	-0.590998	0.206507
O25	O	-0.529899	-1.213641	-0.303692
O26	O	-0.279899	-0.963641	-0.053692
O27	O	-0.029899	-0.713641	0.196308
O28	O	0.220101	-0.463641	0.446308
O29	O	-0.293410	-1.117387	-0.422021
O30	O	-0.043410	-0.867387	-0.172021
O31	O	0.206590	-0.617387	0.077979
O32	O	0.456590	-0.367387	0.327979
O33	O	-0.543555	-1.340919	-0.446003
O34	O	-0.293555	-1.090919	-0.196003
O35	O	-0.043555	-0.840919	0.053997
O36	O	0.206445	-0.590919	0.303997
O37	O	-0.303757	-1.213824	-0.529849
O38	O	-0.053757	-0.963824	-0.279849
O39	O	0.196243	-0.713824	-0.029849
O40	O	0.446243	-0.463824	0.220151
O41	O	-0.422069	-1.117284	-0.293354
O42	O	-0.172069	-0.867284	-0.043354
O43	O	0.077931	-0.617284	0.206646
O44	O	0.327931	-0.367284	0.456646
O45	O	-0.421326	-0.975711	-0.421276
O46	O	-0.171326	-0.725711	-0.171276
O47	O	0.078674	-0.475711	0.078724
O48	O	0.328674	-0.225711	0.328724
O49	O	-0.542249	-1.092079	-0.670850
O50	O	-0.292249	-0.842079	-0.420850
O51	O	-0.042249	-0.592079	-0.170850
O52	O	0.207751	-0.342079	0.079150
O53	O	-0.528593	-0.964801	-0.528538
O54	O	-0.278593	-0.714801	-0.278538
O55	O	-0.028593	-0.464801	-0.028538
O56	O	0.221407	-0.214801	0.221462
O57	O	-0.445329	-1.199425	-0.671415
O58	O	-0.195329	-0.949425	-0.421415
O59	O	0.054671	-0.699425	-0.171415
O60	O	0.304671	-0.449425	0.078585
O61	O	-0.671470	-1.199243	-0.445258
O62	O	-0.421470	-0.949243	-0.195258
O63	O	-0.171470	-0.699243	0.054742
O64	O	0.078530	-0.449243	0.304742
O65	O	-0.670907	-1.091975	-0.542182
O66	O	-0.420907	-0.841975	-0.292182
O67	O	-0.170907	-0.591975	-0.042182
O68	O	0.079093	-0.341975	0.207818
C69	C	-0.473348	-0.940169	-0.473297
C70	C	-0.223348	-0.690169	-0.223297
C71	C	0.026652	-0.440169	0.026703
C72	C	0.276652	-0.190169	0.276703
C73	C	-0.468433	-0.848002	-0.468385
C74	C	-0.218433	-0.598002	-0.218385
C75	C	0.031567	-0.348002	0.031615
C76	C	0.281567	-0.098002	0.281615
C77	C	-0.459441	-0.679251	-0.459423
C78	C	-0.209441	-0.429251	-0.209423
C79	C	0.040559	-0.179251	0.040577
C80	C	0.290559	0.070749	0.290577
C81	C	-0.510404	-0.632799	-0.510242
C82	C	-0.260404	-0.382799	-0.260242
C83	C	-0.010404	-0.132799	-0.010242
C84	C	0.239596	0.117201	0.239758
C85	C	-0.505400	-0.538901	-0.505255
C86	C	-0.255400	-0.288901	-0.255255
C87	C	-0.005400	-0.038901	-0.005255
C88	C	0.244600	0.211099	0.244745
C89	C	-0.464443	-0.773159	-0.464409
C90	C	-0.214443	-0.523159	-0.214409
C91	C	0.035557	-0.273159	0.035591
C92	C	0.285557	-0.023159	0.285591
C93	C	-0.701432	-1.144008	-0.495183
C94	C	-0.451432	-0.894008	-0.245183
C95	C	-0.201432	-0.644008	0.004817
C96	C	0.048568	-0.394008	0.254817
C97	C	-0.794077	-1.139120	-0.499645
C98	C	-0.544077	-0.889120	-0.249645
C99	C	-0.294077	-0.639120	0.000355
C100	C	-0.044077	-0.389120	0.250355
C101	C	-1.005235	-1.181158	-0.461871
C102	C	-0.755235	-0.931158	-0.211871
C103	C	-0.505235	-0.681158	0.038129
C104	C	-0.255235	-0.431158	0.288129
C105	C	-0.963695	-1.130210	-0.507801
C106	C	-0.713695	-0.880210	-0.257801
C107	C	-0.463695	-0.630210	-0.007801
C108	C	-0.213695	-0.380210	0.242199
C109	C	-0.869311	-1.135169	-0.503262
C110	C	-0.619311	-0.885169	-0.253262
C111	C	-0.369311	-0.635169	-0.003262
C112	C	-0.119311	-0.385169	0.246738
C113	C	-1.099628	-1.176200	-0.466409
C114	C	-0.849628	-0.926200	-0.216409
C115	C	-0.599628	-0.676200	0.033591
C116	C	-0.349628	-0.426200	0.283591
C117	C	-0.267497	-1.167274	-0.474451
C118	C	-0.017497	-0.917274	-0.224451
C119	C	0.232503	-0.667274	0.025549
C120	C	0.482503	-0.417274	0.275549
C121	C	-0.174859	-1.172245	-0.470029
C122	C	0.075141	-0.922245	-0.220029
C123	C	0.325141	-0.672245	0.029971
C124	C	0.575141	-0.422245	0.279971
C125	C	-0.495274	-1.144108	-0.702219
C126	C	-0.245274	-0.894108	-0.452219
C127	C	0.004726	-0.644108	-0.202219
C128	C	0.254726	-0.394108	0.047781
C129	C	-0.499701	-1.139207	-0.794859
C130	C	-0.249701	-0.889207	-0.544859
C131	C	0.000299	-0.639207	-0.294859
C132	C	0.250299	-0.389207	-0.044859
C133	C	-0.496472	-0.371887	-0.496390
C134	C	-0.246472	-0.121887	-0.246390
C135	C	0.003528	0.128113	0.003610
C136	C	0.253528	0.378113	0.253610
C137	C	-0.501414	-0.464054	-0.501283
C138	C	-0.251414	-0.214054	-0.251283
C139	C	-0.001414	0.035946	-0.001283
C140	C	0.248586	0.285946	0.248717
C141	C	-0.507763	-1.130231	-0.964470
C142	C	-0.257763	-0.880231	-0.714470
C143	C	-0.007763	-0.630231	-0.464470
C144	C	0.242237	-0.380231	-0.214470
C145	C	-0.461769	-1.181161	-1.006034
C146	C	-0.211769	-0.931161	-0.756034
C147	C	0.038231	-0.681161	-0.506034
C148	C	0.288231	-0.431161	-0.256034
C149	C	-0.466255	-1.176166	-1.100411
C150	C	-0.216255	-0.926166	-0.850411
C151	C	0.033745	-0.676166	-0.600411
C152	C	0.283745	-0.426166	-0.350411
C153	C	-0.503278	-1.135224	-0.870084
C154	C	-0.253278	-0.885224	-0.620084
C155	C	-0.003278	-0.635224	-0.370084
C156	C	0.246722	-0.385224	-0.120084
C157	C	-0.474481	-1.167113	-0.268281
C158	C	-0.224481	-0.917113	-0.018281
C159	C	0.025519	-0.667113	0.231719
C160	C	0.275519	-0.417113	0.481719
C161	C	-0.469828	-1.172187	-0.175639
C162	C	-0.219828	-0.922187	0.074361
C163	C	0.030172	-0.672187	0.324361
C164	C	0.280172	-0.422187	0.574361
H165	H	-0.412057	-0.648502	-0.412174
H166	H	-0.162057	-0.398502	-0.162174
H167	H	0.087943	-0.148502	0.087826
H168	H	0.337943	0.101498	0.337826
H169	H	-0.419023	-1.228513	-0.970739
H170	H	-0.169023	-0.978513	-0.720739
H171	H	0.080977	-0.728513	-0.470739
H172	H	0.330977	-0.478513	-0.220739
N173	N	-1.010475	-1.067498	-0.564405
N174	N	-0.760475	-0.817498	-0.314405
N175	N	-0.510475	-0.567498	-0.064405
N176	N	-0.260475	-0.317498	0.185595
H177	H	-1.072246	-1.072798	-0.559665
H178	H	-0.822246	-0.822798	-0.309665
H179	H	-0.572246	-0.572798	-0.059665
H180	H	-0.322246	-0.322798	0.190335
H181	H	-0.991582	-1.009756	-0.547498
H182	H	-0.741582	-0.759756	-0.297498
H183	H	-0.491582	-0.509756	-0.047498
H184	H	-0.241582	-0.259756	0.202502
H185	H	-0.969916	-1.228495	-0.419141
H186	H	-0.719916	-0.978495	-0.169141
H187	H	-0.469916	-0.728495	0.080859
H188	H	-0.219916	-0.478495	0.330859
N189	N	-0.564369	-1.067496	-1.011211
N190	N	-0.314369	-0.817496	-0.761211
N191	N	-0.064369	-0.567496	-0.511211
N192	N	0.185631	-0.317496	-0.261211
H193	H	-0.559582	-1.072775	-1.072982
H194	H	-0.309582	-0.822775	-0.822982
H195	H	-0.059582	-0.572775	-0.572982
H196	H	0.190418	-0.322775	-0.322982
H197	H	-0.623883	-1.077985	-0.999599
H198	H	-0.373883	-0.827985	-0.749599
H199	H	-0.123883	-0.577985	-0.499599
H200	H	0.126117	-0.327985	-0.249599
N201	N	-0.573189	-0.673520	-0.572826
N202	N	-0.323189	-0.423520	-0.322826
N203	N	-0.073189	-0.173520	-0.072826
N204	N	0.176811	0.076480	0.177174
H205	H	-0.562408	-0.656055	-0.631005
H206	H	-0.312408	-0.406055	-0.381005
H207	H	-0.062408	-0.156055	-0.131005
H208	H	0.187592	0.093945	0.118995
H209	H	-0.567886	-0.735789	-0.567489
H210	H	-0.317886	-0.485789	-0.317489
H211	H	-0.067886	-0.235789	-0.067489
H212	H	0.182114	0.014211	0.182511
