data_functionalizedCrystal
_audit_creation_method	'MofGen! by Chris Wilmer'
_symmetry_space_group_name_H-M	'P1'
_symmetry_Int_Tables_number	1
_symmetry_cell_setting	triclinic
loop_
_symmetry_equiv_pos_as_xyz
  x,y,z
_cell_length_a	16.625548
_cell_length_b	12.759400
_cell_length_c	16.625539
_cell_angle_alpha	90.025767
_cell_angle_beta	89.979432
_cell_angle_gamma	89.984247
loop_
_atom_site_label
_atom_site_type_symbol
_atom_site_fract_x
_atom_site_fract_y
_atom_site_fract_z
Zn1	Zn	1.232724	0.418234	-0.455924
Zn2	Zn	1.732724	0.918234	0.044076
Zn3	Zn	1.232646	0.593936	-0.321097
Zn4	Zn	1.732646	1.093936	0.178903
Zn5	Zn	1.097886	0.418274	-0.321104
Zn6	Zn	1.597886	0.918274	0.178896
Zn7	Zn	1.097875	0.593875	-0.455887
Zn8	Zn	1.597875	1.093875	0.044113
O9	O	1.165283	0.506080	-0.388503
O10	O	1.665283	1.006080	0.111497
O11	O	1.345546	0.441550	-0.438051
O12	O	1.845546	0.941550	0.061949
O13	O	1.214741	0.570676	-0.208265
O14	O	1.714741	1.070676	0.291735
O15	O	1.115810	0.271248	-0.339007
O16	O	1.615810	0.771248	0.160993
O17	O	1.345488	0.570637	-0.338994
O18	O	1.845488	1.070637	0.161006
O19	O	1.214875	0.271219	-0.438058
O20	O	1.714875	0.771219	0.061942
O21	O	1.115734	0.441618	-0.208271
O22	O	1.615734	0.941618	0.291729
O23	O	0.985052	0.441560	-0.338971
O24	O	1.485052	0.941560	0.161029
O25	O	1.115791	0.570534	-0.568724
O26	O	1.615791	1.070534	-0.068724
O27	O	0.985044	0.570573	-0.437995
O28	O	1.485044	1.070573	0.062005
O29	O	1.214864	0.441492	-0.568751
O30	O	1.714864	0.941492	-0.068751
O31	O	1.214730	0.740949	-0.338958
O32	O	1.714730	1.240949	0.161042
O33	O	1.115715	0.740904	-0.437988
O34	O	1.615715	1.240904	0.062012
C35	C	1.165235	0.779047	-0.388486
C36	C	1.665235	1.279047	0.111514
C37	C	1.165288	0.895824	-0.388506
C38	C	1.665288	1.395824	0.111494
C39	C	0.955792	0.506065	-0.388480
C40	C	1.455792	1.006065	0.111520
C41	C	0.866171	0.506084	-0.388490
C42	C	1.366171	1.006084	0.111510
C43	C	1.165335	0.506002	-0.598812
C44	C	1.665335	1.006002	-0.098812
C45	C	1.165357	0.505968	-0.688433
C46	C	1.665357	1.005968	-0.188433
C47	C	0.537995	0.506091	-0.388524
C48	C	1.037995	1.006091	0.111476
C49	C	0.629303	0.506086	-0.388512
C50	C	1.129303	1.006086	0.111488
C51	C	0.702080	0.506088	-0.388506
C52	C	1.202080	1.006088	0.111494
C53	C	0.793394	0.506082	-0.388495
C54	C	1.293394	1.006082	0.111505
C55	C	1.375591	0.506096	-0.388526
C56	C	1.875591	1.006096	0.111474
C57	C	1.465213	0.506103	-0.388536
C58	C	1.965213	1.006103	0.111464
C59	C	1.165353	0.232047	-0.388537
C60	C	1.665353	0.732047	0.111463
C61	C	1.165382	0.115270	-0.388552
C62	C	1.665382	0.615270	0.111448
C63	C	1.216903	0.950674	-0.336998
C64	C	1.716903	1.450674	0.163002
C65	C	1.216952	1.060398	-0.337023
C66	C	1.716952	1.560398	0.162977
C67	C	1.113765	1.060412	-0.440065
C68	C	1.613765	1.560412	0.059935
C69	C	1.113721	0.950690	-0.440044
C70	C	1.613721	1.450690	0.059956
C71	C	1.268470	0.895808	-0.285460
C72	C	1.768470	1.395808	0.214540
C73	C	1.320088	0.950658	-0.233947
C74	C	1.820088	1.450658	0.266053
C75	C	1.320138	1.060382	-0.233972
C76	C	1.820138	1.560382	0.266028
C77	C	1.268569	1.115256	-0.285510
C78	C	1.768569	1.615256	0.214490
C79	C	1.165394	0.505851	-1.016609
C80	C	1.665394	1.005851	-0.516609
C81	C	1.165382	0.505887	-0.925300
C82	C	1.665382	1.005887	-0.425300
C83	C	1.165376	0.505910	-0.852524
C84	C	1.665376	1.005910	-0.352524
C85	C	1.165363	0.505945	-0.761209
C86	C	1.665363	1.005945	-0.261209
C87	C	1.165277	0.506082	-0.179012
C88	C	1.665277	1.006082	0.320988
C89	C	1.165411	0.505819	-0.089391
C90	C	1.665411	1.005819	0.410609
H91	H	1.268433	0.806465	-0.285432
H92	H	1.768433	1.306465	0.214568
O93	O	1.375807	1.119548	-0.178417
O94	O	1.875807	1.619548	0.321583
H95	H	1.411651	1.062959	-0.142574
H96	H	1.911651	1.562959	0.357426
H97	H	1.071692	0.906031	-0.481987
H98	H	1.571692	1.406031	0.018013
O99	O	1.058143	1.119590	-0.495646
O100	O	1.558143	1.619590	0.004354
H101	H	0.994862	1.098599	-0.481757
H102	H	1.494862	1.598599	0.018243
O103	O	1.375722	0.891483	-0.178376
O104	O	1.875722	1.391483	0.321624
H105	H	1.367017	0.805971	-0.187010
H106	H	1.867017	1.305971	0.312990
O107	O	1.268618	1.233602	-0.285539
O108	O	1.768618	1.733602	0.214461
H109	H	1.313170	1.262528	-0.241061
H110	H	1.813170	1.762528	0.258939
