data_functionalizedCrystal
_audit_creation_method	'MofGen! by Chris Wilmer'
_symmetry_space_group_name_H-M	'P1'
_symmetry_Int_Tables_number	1
_symmetry_cell_setting	triclinic
loop_
_symmetry_equiv_pos_as_xyz
  x,y,z
_cell_length_a	15.297327
_cell_length_b	12.759395
_cell_length_c	15.298025
_cell_angle_alpha	80.314969
_cell_angle_beta	88.388309
_cell_angle_gamma	80.295935
loop_
_atom_site_label
_atom_site_type_symbol
_atom_site_fract_x
_atom_site_fract_y
_atom_site_fract_z
Zn1	Zn	-0.263256	-1.665010	0.555602
Zn2	Zn	-0.435055	-1.605846	0.434452
Zn3	Zn	-0.288579	-1.454711	0.409138
Zn4	Zn	-0.409700	-1.464844	0.580890
O5	O	-0.349147	-1.547603	0.495021
O6	O	-0.286058	-1.804182	0.539543
O7	O	-0.436833	-1.556797	0.308514
O8	O	-0.162631	-1.503127	0.407389
O9	O	-0.412279	-1.760715	0.450535
O10	O	-0.144027	-1.657633	0.514996
O11	O	-0.329218	-1.445759	0.289915
O12	O	-0.304632	-1.309035	0.431910
O13	O	-0.369065	-1.520397	0.700117
O14	O	-0.393620	-1.316479	0.558096
O15	O	-0.261473	-1.667458	0.681538
O16	O	-0.554280	-1.566622	0.475055
O17	O	-0.535652	-1.463028	0.582642
C18	C	-0.349123	-1.274636	0.495000
C19	C	-0.349130	-1.157861	0.495016
C20	C	-0.217847	-1.203117	0.587913
C21	C	-0.152213	-1.170883	0.634369
C22	C	-0.152224	-1.061162	0.634380
C23	C	-0.217873	-0.983669	0.587928
C24	C	-0.283507	-1.015902	0.541472
C25	C	-0.283491	-1.125628	0.541468
C26	C	-0.414785	-0.970646	0.448571
C27	C	-0.414780	-1.080368	0.448564
C28	C	-0.480435	-0.893153	0.402119
C29	C	-0.546074	-0.925386	0.355667
C30	C	-0.546061	-1.035115	0.355659
C31	C	-0.480414	-1.112601	0.402108
C32	C	-0.576748	-1.509538	0.534359
C33	C	-0.674112	-1.493357	0.551217
C34	C	-0.987206	-1.663756	0.374830
C35	C	-0.895729	-1.678958	0.358986
C36	C	-0.840320	-1.632559	0.407043
C37	C	-0.876397	-1.570956	0.470946
C38	C	-0.967884	-1.555746	0.486786
C39	C	-0.820999	-1.524549	0.518999
C40	C	-0.857076	-1.462945	0.582902
C41	C	-0.948554	-1.447739	0.598740
C42	C	-1.003963	-1.494137	0.550683
C43	C	-0.729512	-1.539759	0.503158
C44	C	-0.710190	-1.431748	0.615114
C45	C	-0.801667	-1.416546	0.630958
C46	C	-0.120654	-1.585849	0.455548
C47	C	-0.023284	-1.602148	0.438727
C48	C	-0.309616	-1.601657	0.723500
C49	C	-0.292770	-1.624692	0.820864
C50	C	-0.349164	-0.821636	0.495036
C51	C	-0.349151	-0.938413	0.495027
C52	C	-0.228836	-1.712081	0.856929
C53	C	-0.212997	-1.733717	0.948406
C54	C	-0.261096	-1.667969	1.003826
C55	C	-0.325035	-1.580582	0.967762
C56	C	-0.340871	-1.558940	0.876276
C57	C	-0.373131	-1.514828	1.023173
C58	C	-0.437070	-1.427441	0.987108
C59	C	-0.452903	-1.405803	0.895631
C60	C	-0.404805	-1.471550	0.840210
C61	C	-0.357295	-1.536470	1.114659
C62	C	-0.469330	-1.383329	1.134005
C63	C	-0.485169	-1.361694	1.042529
C64	C	-0.388546	-1.493749	1.267434
C65	C	-0.405396	-1.470719	1.170071
H66	H	-0.098762	-1.233990	0.672187
O67	O	-0.547334	-1.276925	1.007396
C68	C	-0.613083	-1.314769	0.964284
H69	H	-0.584561	-1.396324	0.945263
H70	H	-0.635950	-1.254805	0.901971
H71	H	-0.671905	-1.323779	1.010757
H72	H	-0.480436	-0.803813	0.402128
H73	H	-0.599506	-1.061349	0.317825
O74	O	-0.245878	-1.688966	1.092715
C75	C	-0.324544	-1.709156	1.137785
H76	H	-0.384124	-1.670287	1.093783
H77	H	-0.329521	-1.673644	1.201675
H78	H	-0.323598	-1.799860	1.154341
H79	H	-0.160939	-1.804868	0.977763
O80	O	-0.609881	-0.850251	0.310471
C81	C	-0.667830	-0.902225	0.269491
H82	H	-0.632456	-0.985734	0.260311
H83	H	-0.689010	-0.852637	0.202056
H84	H	-0.728881	-0.910332	0.312965
H85	H	-0.866359	-1.729114	0.306957
O86	O	-0.480377	-1.219222	0.402262
C87	C	-0.488513	-1.271960	0.490084
H88	H	-0.464908	-1.223164	0.537999
H89	H	-0.446309	-1.355662	0.498894
H90	H	-0.560900	-1.279700	0.504374
H91	H	-0.305233	-1.607620	1.144013
O92	O	-0.694588	-1.599504	0.440986
C93	C	-0.732084	-1.552225	0.357541
H94	H	-0.798850	-1.500353	0.367204
H95	H	-0.741971	-1.618290	0.318852
H96	H	-0.685753	-1.499802	0.319090
H97	H	-0.508490	-1.329786	1.179128
O98	O	-1.041154	-1.708746	0.328233
C99	C	-1.129638	-1.682062	0.355886
H100	H	-1.130439	-1.661547	0.425641
H101	H	-1.165404	-1.753568	0.355969
H102	H	-1.164621	-1.609498	0.308410
O103	O	-0.751473	-1.647476	0.391576
C104	C	-0.731514	-1.711776	0.324855
H105	H	-0.786316	-1.761516	0.321749
H106	H	-0.665700	-1.768064	0.340714
H107	H	-0.726385	-1.657747	0.258153
H108	H	-0.504965	-1.334644	0.866270
H109	H	-1.078451	-1.481766	0.563582
O110	O	-0.217864	-1.309663	0.587748
C111	C	-0.209718	-1.330250	0.499923
H112	H	-0.233338	-1.252584	0.452013
H113	H	-0.251904	-1.393356	0.491107
H114	H	-0.137326	-1.361456	0.485633
H115	H	-0.977926	-1.397562	0.650763
O116	O	-0.836807	-1.356841	0.693087
C117	C	-0.879849	-1.421224	0.758867
H118	H	-0.898843	-1.491307	0.730394
H119	H	-0.942180	-1.370495	0.781715
H120	H	-0.833330	-1.453929	0.817683
H121	H	-0.189677	-1.765599	0.811798
H122	H	-0.098775	-1.034920	0.672202
O123	O	-0.656506	-1.386560	0.661855
C124	C	-0.707961	-1.328942	0.721663
H125	H	-0.779397	-1.306001	0.697076
H126	H	-0.679969	-1.252740	0.726381
H127	H	-0.706127	-1.381489	0.789895
H128	H	-0.417700	-1.453942	0.765722
O129	O	-0.217772	-0.877132	0.588054
C130	C	-0.145748	-0.865297	0.638992
H131	H	-0.124699	-0.942682	0.688085
H132	H	-0.166496	-0.795321	0.676766
H133	H	-0.087808	-0.848319	0.593317
