data_functionalizedCrystal
_audit_creation_method	'MofGen! by Chris Wilmer'
_symmetry_space_group_name_H-M	'P1'
_symmetry_Int_Tables_number	1
_symmetry_cell_setting	triclinic
loop_
_symmetry_equiv_pos_as_xyz
  x,y,z
_cell_length_a	10.654562
_cell_length_b	9.130313
_cell_length_c	10.654550
_cell_angle_alpha	90.000110
_cell_angle_beta	95.512497
_cell_angle_gamma	89.996930
loop_
_atom_site_label
_atom_site_type_symbol
_atom_site_fract_x
_atom_site_fract_y
_atom_site_fract_z
O1	O	1.667825	-0.121892	-0.176469
O2	O	1.302348	-0.121873	-0.193259
O3	O	1.493490	-0.121877	-0.002125
O4	O	1.476683	-0.121887	-0.367603
O5	O	1.493487	0.121721	-0.002130
O6	O	1.302346	0.121726	-0.193264
O7	O	1.667822	0.121707	-0.176474
Cu8	Cu	1.485084	0.143959	-0.184869
Cu9	Cu	1.485087	-0.144125	-0.184863
O10	O	1.476681	0.121711	-0.367608
C11	C	1.255549	-0.000071	-0.192025
C12	C	1.116107	-0.000064	-0.188327
N13	N	1.485091	0.346582	-0.184873
N14	N	1.485089	-0.346748	-0.184850
C15	C	1.050575	0.132710	-0.186605
C16	C	0.919553	0.132686	-0.183140
C17	C	0.919605	-0.132899	-0.183125
C18	C	1.050626	-0.132873	-0.186580
C19	C	1.116056	0.265519	-0.188351
C20	C	1.050523	0.398304	-0.186630
C21	C	0.919501	0.398280	-0.183165
C22	C	0.854011	0.265470	-0.181421
C23	C	1.714621	-0.000098	-0.177708
C24	C	1.854064	-0.000115	-0.181406
C25	C	1.492254	-0.000080	0.044671
C26	C	1.488563	-0.000085	0.184114
C27	C	1.569750	0.423232	-0.100268
C28	C	1.569747	0.576568	-0.100253
C29	C	1.400421	0.576592	-0.269459
C30	C	1.400419	0.423258	-0.269467
C31	C	1.654422	0.346556	-0.015674
C32	C	1.739089	0.423206	0.068937
C33	C	1.739086	0.576543	0.068952
C34	C	1.654415	0.653229	-0.015644
C35	C	1.477916	-0.000090	-0.414403
C36	C	1.481608	-0.000094	-0.553847
C37	C	1.601103	-0.000086	0.263595
C38	C	1.597627	-0.000096	0.394615
C39	C	1.369059	-0.000097	0.366662
C40	C	1.372537	-0.000098	0.235644
C41	C	1.717129	-0.000073	0.212064
C42	C	1.829680	-0.000072	0.291546
C43	C	1.826203	-0.000083	0.422567
C44	C	1.710176	-0.000093	0.474106
H45	H	1.222740	0.265554	-0.191176
H46	H	1.917847	-0.000097	0.487279
Cl47	Cl	1.231054	-0.000096	0.135719
H48	H	1.707355	-0.000117	0.580794
Cl49	Cl	0.837122	0.565206	-0.180993
H50	H	1.808018	0.360760	0.137819
H51	H	1.103855	0.506432	-0.188041
H52	H	1.654411	0.778087	-0.015616
Cl53	Cl	1.223207	-0.000106	0.431457
H54	H	1.654435	0.221701	-0.015681
H55	H	0.747324	0.265461	-0.178597
H56	H	1.103983	-0.240990	-0.187989
Cl57	Cl	0.837275	-0.299847	-0.180924
H58	H	1.808016	0.638950	0.137853
H59	H	1.924144	-0.000101	0.249574
Cl60	Cl	1.293990	0.672997	-0.375805
H61	H	1.331481	0.360849	-0.338359
H62	H	1.719973	-0.000060	0.105382
