data_functionalizedCrystal
_audit_creation_method	'MofGen! by Chris Wilmer'
_symmetry_space_group_name_H-M	'P1'
_symmetry_Int_Tables_number	1
_symmetry_cell_setting	triclinic
loop_
_symmetry_equiv_pos_as_xyz
  x,y,z
_cell_length_a	19.805407
_cell_length_b	25.639239
_cell_length_c	19.805399
_cell_angle_alpha	89.971274
_cell_angle_beta	89.980427
_cell_angle_gamma	90.038686
loop_
_atom_site_label
_atom_site_type_symbol
_atom_site_fract_x
_atom_site_fract_y
_atom_site_fract_z
Zn1	Zn	1.034678	-0.208163	-0.382714
Zn2	Zn	1.534678	0.291837	0.117286
Zn3	Zn	1.034569	-0.295597	-0.269524
Zn4	Zn	1.534569	0.204403	0.230476
Zn5	Zn	0.921493	-0.208177	-0.269539
Zn6	Zn	1.421493	0.291823	0.230461
Zn7	Zn	0.921432	-0.295569	-0.382670
Zn8	Zn	1.421432	0.204431	0.117330
O9	O	0.978043	-0.251877	-0.326112
O10	O	1.478043	0.248123	0.173888
O11	O	1.129380	-0.219767	-0.367711
O12	O	1.629380	0.280233	0.132289
O13	O	1.019548	-0.284018	-0.174809
O14	O	1.519548	0.215982	0.325191
O15	O	0.936578	-0.135010	-0.284576
O16	O	1.436578	0.364990	0.215424
O17	O	1.129300	-0.284004	-0.284551
O18	O	1.629300	0.215996	0.215449
O19	O	1.019735	-0.135000	-0.367726
O20	O	1.519735	0.365000	0.132274
O21	O	0.936472	-0.219791	-0.174820
O22	O	1.436472	0.280209	0.325180
O23	O	0.826768	-0.219764	-0.284534
O24	O	1.326768	0.280236	0.215466
O25	O	0.936475	-0.283957	-0.477393
O26	O	1.436475	0.216043	0.022607
O27	O	0.826723	-0.283971	-0.367651
O28	O	1.326723	0.216029	0.132349
O29	O	1.019676	-0.219740	-0.477425
O30	O	1.519676	0.280260	0.022575
O31	O	1.019489	-0.368758	-0.284508
O32	O	1.519489	0.131242	0.215492
O33	O	0.936368	-0.368738	-0.367637
O34	O	1.436368	0.131262	0.132363
C35	C	0.802187	-0.251867	-0.326090
C36	C	1.302187	0.248133	0.173910
C37	C	0.726955	-0.251875	-0.326097
C38	C	1.226955	0.248125	0.173903
C39	C	0.977929	-0.387719	-0.326081
C40	C	1.477929	0.112281	0.173919
C41	C	0.977942	-0.445833	-0.326090
C42	C	1.477942	0.054167	0.173910
C43	C	0.691605	-0.285357	-0.369306
C44	C	1.191605	0.214643	0.130694
C45	C	0.620917	-0.285358	-0.369315
C46	C	1.120917	0.214642	0.130685
C47	C	0.585579	-0.251879	-0.326112
C48	C	1.085579	0.248121	0.173888
C49	C	0.620934	-0.218393	-0.282901
C50	C	1.120934	0.281607	0.217099
C51	C	0.691621	-0.218390	-0.282895
C52	C	1.191621	0.281610	0.217105
C53	C	0.335860	-0.218404	-0.282923
C54	C	0.835860	0.281596	0.217077
C55	C	0.265168	-0.218411	-0.282931
C56	C	0.765168	0.281589	0.217069
C57	C	0.265156	-0.285373	-0.369343
C58	C	0.765156	0.214627	0.130657
C59	C	0.335843	-0.285370	-0.369338
C60	C	0.835843	0.214630	0.130662
C61	C	0.371192	-0.251882	-0.326129
C62	C	0.871192	0.248118	0.173871
C63	C	0.447840	-0.251881	-0.326121
C64	C	0.947840	0.248119	0.173879
C65	C	0.508932	-0.251883	-0.326117
C66	C	1.008932	0.248117	0.173883
C67	C	1.021437	-0.806194	-0.282901
C68	C	1.521437	-0.306194	0.217099
C69	C	1.021463	-0.860799	-0.282910
C70	C	1.521463	-0.360799	0.217090
O71	O	1.058326	-0.889034	-0.246154
O72	O	1.558326	-0.389034	0.253846
N73	N	0.978162	-0.888116	-0.326157
N74	N	1.478162	-0.388116	0.173843
C75	C	0.934836	-0.860825	-0.369402
C76	C	1.434836	-0.360825	0.130598
O77	O	0.898008	-0.889075	-0.406189
O78	O	1.398008	-0.389075	0.093811
C79	C	0.934814	-0.806222	-0.369396
C80	C	1.434814	-0.306222	0.130604
C81	C	0.978113	-0.778908	-0.326141
C82	C	1.478113	-0.278908	0.173859
C83	C	1.064733	-0.778880	-0.239650
C84	C	1.564733	-0.278880	0.260350
C85	C	1.064706	-0.724279	-0.239640
C86	C	1.564706	-0.224279	0.260360
C87	C	1.021382	-0.696993	-0.282881
C88	C	1.521382	-0.196993	0.217119
C89	C	0.978086	-0.724307	-0.326132
C90	C	1.478086	-0.224307	0.173868
C91	C	0.891492	-0.778933	-0.412645
C92	C	1.391492	-0.278933	0.087355
C93	C	0.891474	-0.724326	-0.412635
C94	C	1.391474	-0.224326	0.087365
C95	C	0.934773	-0.697012	-0.369381
C96	C	1.434773	-0.197012	0.130619
C97	C	0.934735	-0.642421	-0.369363
C98	C	1.434735	-0.142421	0.130637
N99	N	0.978036	-0.615104	-0.326116
N100	N	1.478036	-0.115104	0.173884
C101	C	1.021360	-0.642390	-0.282875
C102	C	1.521360	-0.142390	0.217125
C103	C	0.934887	-0.975496	-0.369413
C104	C	1.434887	-0.475496	0.130587
C105	C	0.934906	-1.030098	-0.369416
C106	C	1.434906	-0.530098	0.130584
C107	C	1.021533	-1.030068	-0.282924
C108	C	1.521533	-0.530068	0.217076
C109	C	1.021511	-0.975464	-0.282918
C110	C	1.521511	-0.475464	0.217082
C111	C	0.978188	-0.948179	-0.326166
C112	C	1.478188	-0.448179	0.173834
C113	C	1.021299	-0.527725	-0.282857
C114	C	1.521299	-0.027725	0.217143
C115	C	1.021266	-0.473119	-0.282849
C116	C	1.521266	0.026881	0.217151
C117	C	0.934641	-0.473155	-0.369343
C118	C	1.434641	0.026845	0.130657
C119	C	0.934671	-0.527756	-0.369349
C120	C	1.434671	-0.027756	0.130651
C121	C	0.978006	-0.555039	-0.326104
C122	C	1.478006	-0.055039	0.173896
O123	O	0.897893	-0.614151	-0.406101
O124	O	1.397893	-0.114151	0.093899
O125	O	1.058188	-0.614134	-0.246101
O126	O	1.558188	-0.114134	0.253899
C127	C	1.154585	-0.251887	-0.326134
C128	C	1.654585	0.248113	0.173866
C129	C	1.229817	-0.251891	-0.326144
C130	C	1.729817	0.248109	0.173856
C131	C	0.978081	-0.251844	-0.502655
C132	C	1.478081	0.248156	-0.002655
C133	C	0.978097	-0.251830	-0.577887
C134	C	1.478097	0.248170	-0.077887
C135	C	0.978175	-0.115504	-0.326158
C136	C	1.478175	0.384496	0.173842
C137	C	0.978232	-0.057389	-0.326177
C138	C	1.478232	0.442611	0.173823
C139	C	1.021421	-0.218390	-0.613249
C140	C	1.521421	0.281610	-0.113249
C141	C	1.021428	-0.218375	-0.683937
C142	C	1.521428	0.281625	-0.183937
C143	C	0.978114	-0.251802	-0.719262
C144	C	1.478114	0.248198	-0.219262
C145	C	0.934785	-0.285243	-0.683895
C146	C	1.434785	0.214757	-0.183895
C147	C	0.934775	-0.285255	-0.613208
C148	C	1.434775	0.214745	-0.113208
C149	C	0.934823	-0.285194	-0.968969
C150	C	1.434823	0.214806	-0.468969
C151	C	0.934838	-0.285181	-1.039661
C152	C	1.434838	0.214819	-0.539661
C153	C	1.021476	-0.218314	-1.039698
C154	C	1.521476	0.281686	-0.539698
C155	C	1.021466	-0.218326	-0.969011
C156	C	1.521466	0.281674	-0.469011
C157	C	0.978135	-0.251765	-0.933650
C158	C	1.478135	0.248235	-0.433650
C159	C	0.978127	-0.251780	-0.857001
C160	C	1.478127	0.248220	-0.357001
C161	C	0.978125	-0.251790	-0.795909
C162	C	1.478125	0.248210	-0.295909
C163	C	0.978044	-0.251872	-0.150256
C164	C	1.478044	0.248128	0.349744
C165	C	0.978159	-0.251738	-0.075024
C166	C	1.478159	0.248262	0.424976
H167	H	0.592138	-0.312624	-0.404500
H168	H	1.092138	0.187376	0.095500
H169	H	0.899563	-0.312402	-1.068421
H170	H	1.399563	0.187598	-0.568421
H171	H	0.899603	-0.953283	-0.404628
H172	H	1.399603	-0.453283	0.095372
H173	H	0.856230	-0.801163	-0.447864
H174	H	1.356230	-0.301163	0.052136
N175	N	1.068031	-0.557152	-0.236214
N176	N	1.568031	-0.057152	0.263786
H177	H	1.116381	-0.547603	-0.246766
H178	H	1.616381	-0.047603	0.253234
H179	H	1.057480	-0.547667	-0.187863
H180	H	1.557480	-0.047667	0.312137
H181	H	0.720372	-0.312622	-0.404485
H182	H	1.220372	0.187378	0.095515
H183	H	0.592156	-0.191131	-0.247727
H184	H	1.092156	0.308869	0.252273
H185	H	0.899415	-0.549996	-0.404573
H186	H	1.399415	-0.049996	0.095427
H187	H	1.056739	-0.191108	-0.940252
H188	H	1.556739	0.308892	-0.440252
N189	N	0.373979	-0.182294	-0.236311
N190	N	0.873979	0.317706	0.263689
H191	H	0.424121	-0.187369	-0.242860
H192	H	0.924121	0.312631	0.257140
H193	H	0.361655	-0.144964	-0.246931
H194	H	0.861655	0.355036	0.253069
H195	H	0.236367	-0.312639	-0.404528
H196	H	0.736367	0.187361	0.095472
H197	H	1.056694	-0.191171	-0.584492
H198	H	1.556694	0.308829	-0.084492
N199	N	0.373957	-0.321483	-0.415931
N200	N	0.873957	0.178517	0.084069
H201	H	0.340837	-0.342694	-0.443307
H202	H	0.840837	0.157306	0.056693
H203	H	0.403317	-0.300230	-0.447301
H204	H	0.903317	0.199770	0.052699
N205	N	1.068265	-1.059508	-0.236291
N206	N	1.568265	-0.559508	0.263709
H207	H	1.116616	-1.049964	-0.246849
H208	H	1.616616	-0.549964	0.253151
H209	H	1.057725	-1.050030	-0.187935
H210	H	1.557725	-0.550030	0.312065
N211	N	0.844747	-0.694894	-0.459279
N212	N	1.344747	-0.194894	0.040721
H213	H	0.855236	-0.704365	-0.507650
H214	H	1.355236	-0.204365	-0.007650
H215	H	0.796415	-0.704453	-0.448666
H216	H	1.296415	-0.204453	0.051334
H217	H	0.899365	-0.450930	-0.404548
H218	H	1.399365	0.049070	0.095452
N219	N	0.729752	-0.182273	-0.236296
N220	N	1.229752	0.317727	0.263704
H221	H	0.696641	-0.161064	-0.208927
H222	H	1.196641	0.338936	0.291073
H223	H	0.759053	-0.203519	-0.204920
H224	H	1.259053	0.296481	0.295080
H225	H	0.236399	-0.191145	-0.247749
H226	H	0.736399	0.308855	0.252251
H227	H	1.056769	-0.953228	-0.247697
H228	H	1.556769	-0.453228	0.252303
N229	N	1.111465	-0.808305	-0.193008
N230	N	1.611465	-0.308305	0.306992
H231	H	1.138885	-0.782708	-0.165613
H232	H	1.638885	-0.282708	0.334387
H233	H	1.083942	-0.830994	-0.161659
H234	H	1.583942	-0.330994	0.338341
N235	N	0.888068	-0.321242	-0.930835
N236	N	1.388068	0.178758	-0.430835
H237	H	0.860626	-0.342410	-0.963941
H238	H	1.360626	0.157590	-0.463941
H239	H	0.915566	-0.345451	-0.901488
H240	H	1.415566	0.154549	-0.401488
H241	H	1.056525	-0.450882	-0.247624
H242	H	1.556525	0.049118	0.252376
N243	N	1.111417	-0.694823	-0.192997
N244	N	1.611417	-0.194823	0.307003
H245	H	1.138867	-0.720401	-0.165613
H246	H	1.638867	-0.220401	0.334387
H247	H	1.142713	-0.672135	-0.220582
H248	H	1.642713	-0.172135	0.279418
H249	H	1.056708	-0.191146	-0.712726
H250	H	1.556708	0.308854	-0.212726
N251	N	0.888051	-0.321286	-0.721992
N252	N	1.388051	0.178714	-0.221992
H253	H	0.894628	-0.316203	-0.772138
H254	H	1.394628	0.183797	-0.272138
H255	H	0.898535	-0.358633	-0.709630
H256	H	1.398535	0.141367	-0.209630
N257	N	0.888193	-1.059556	-0.416057
N258	N	1.388193	-0.559556	0.083943
H259	H	0.860745	-1.033979	-0.443445
H260	H	1.360745	-0.533979	0.056555
H261	H	0.915731	-1.082174	-0.447414
H262	H	1.415731	-0.582174	0.052586
H263	H	0.899489	-0.312480	-0.584417
H264	H	1.399489	0.187520	-0.084417
H265	H	1.056756	-0.191085	-1.068497
H266	H	1.556756	0.308915	-0.568497
