data_functionalizedCrystal
_audit_creation_method	'MofGen! by Chris Wilmer'
_symmetry_space_group_name_H-M	'P1'
_symmetry_Int_Tables_number	1
_symmetry_cell_setting	triclinic
loop_
_symmetry_equiv_pos_as_xyz
  x,y,z
_cell_length_a	17.699083
_cell_length_b	15.995350
_cell_length_c	16.176319
_cell_angle_alpha	89.995430
_cell_angle_beta	89.998611
_cell_angle_gamma	83.387695
loop_
_atom_site_label
_atom_site_type_symbol
_atom_site_fract_x
_atom_site_fract_y
_atom_site_fract_z
O1	O	1.004255	0.105885	-0.068627
O2	O	1.337588	0.439219	0.264707
O3	O	1.670921	0.772552	0.598040
O4	O	0.783899	0.119661	-0.068653
O5	O	1.117233	0.452995	0.264680
O6	O	1.450566	0.786328	0.598014
O7	O	0.900101	-0.009127	-0.068638
O8	O	1.233434	0.324207	0.264695
O9	O	1.566767	0.657540	0.598028
O10	O	0.888054	0.234673	-0.068641
O11	O	1.221387	0.568006	0.264692
O12	O	1.554720	0.901340	0.598025
O13	O	0.900085	-0.009135	0.068855
O14	O	1.233418	0.324199	0.402188
O15	O	1.566751	0.657532	0.735521
O16	O	0.783883	0.119653	0.068840
O17	O	1.117217	0.452986	0.402173
O18	O	1.450550	0.786320	0.735507
O19	O	1.004239	0.105877	0.068867
O20	O	1.337572	0.439210	0.402200
O21	O	1.670905	0.772544	0.735533
Cu22	Cu	0.894060	0.112764	0.081408
Cu23	Cu	1.227393	0.446098	0.414741
Cu24	Cu	1.560726	0.779431	0.748074
Cu25	Cu	0.894079	0.112774	-0.081194
Cu26	Cu	1.227412	0.446107	0.252139
Cu27	Cu	1.560745	0.779441	0.585473
O28	O	0.888038	0.234665	0.068852
O29	O	1.221371	0.567998	0.402185
O30	O	1.554704	0.901332	0.735519
C31	C	0.755694	0.119163	0.000090
C32	C	1.089027	0.452497	0.333423
C33	C	1.422360	0.785830	0.666757
C34	C	0.671673	0.117683	0.000080
C35	C	1.005006	0.451016	0.333413
C36	C	1.338340	0.784349	0.666746
C37	C	0.899595	-0.040324	0.000107
C38	C	1.232928	0.293009	0.333440
C39	C	1.566261	0.626342	0.666773
C40	C	0.898101	-0.133272	0.000102
C41	C	1.231435	0.200062	0.333435
C42	C	1.564768	0.533395	0.666768
C43	C	0.623178	0.193278	0.000079
C44	C	0.956511	0.526612	0.333412
C45	C	1.289844	0.859945	0.666746
C46	C	0.544232	0.191882	0.000090
C47	C	0.877565	0.525215	0.333423
C48	C	1.210899	0.858549	0.666756
C49	C	0.513783	0.114889	0.000095
C50	C	0.847117	0.448222	0.333429
C51	C	1.180450	0.781556	0.666762
C52	C	0.562285	0.039287	0.000098
C53	C	0.895618	0.372621	0.333432
C54	C	1.228951	0.705954	0.666765
C55	C	0.641229	0.040685	0.000094
C56	C	0.974562	0.374018	0.333427
C57	C	1.307895	0.707351	0.666760
C58	C	0.243912	0.033651	0.000119
C59	C	0.577246	0.366984	0.333452
C60	C	0.910579	0.700317	0.666786
C61	C	0.164962	0.032259	0.000121
C62	C	0.498295	0.365592	0.333455
C63	C	0.831629	0.698926	0.666788
C64	C	0.146916	0.184848	0.000115
C65	C	0.480249	0.518181	0.333448
C66	C	0.813582	0.851515	0.666782
C67	C	0.225860	0.186245	0.000110
C68	C	0.559193	0.519579	0.333444
C69	C	0.892526	0.852912	0.666777
C70	C	0.274354	0.110644	0.000118
C71	C	0.607688	0.443977	0.333451
C72	C	0.941021	0.777311	0.666784
C73	C	0.359956	0.112159	0.000108
C74	C	0.693289	0.445492	0.333441
C75	C	1.026623	0.778826	0.666774
C76	C	0.428183	0.113373	0.000099
C77	C	0.761516	0.446706	0.333433
C78	C	1.094850	0.780040	0.666766
C79	C	0.892739	-0.471008	0.000104
C80	C	1.226073	-0.137675	0.333437
C81	C	1.559406	0.195658	0.666771
C82	C	0.809983	-0.423406	-0.000214
C83	C	1.143316	-0.090073	0.333119
C84	C	1.476649	0.243261	0.666452
C85	C	0.811476	-0.326719	0.000096
C86	C	1.144810	0.006615	0.333429
C87	C	1.478143	0.339948	0.666762
C88	C	0.895399	-0.303453	0.000102
C89	C	1.228732	0.029880	0.333436
C90	C	1.562066	0.363213	0.666769
C91	C	0.936208	-0.344618	0.078621
C92	C	1.269542	-0.011285	0.411955
C93	C	1.602875	0.322048	0.745288
C94	C	0.934129	-0.441250	0.078687
C95	C	1.267463	-0.107917	0.412020
C96	C	1.600796	0.225417	0.745353
C97	C	0.935857	-0.441602	-0.077669
C98	C	1.269190	-0.108269	0.255665
C99	C	1.602524	0.225064	0.588998
C100	C	0.935838	-0.344657	-0.078706
C101	C	1.269171	-0.011324	0.254627
C102	C	1.602504	0.322010	0.587960
C103	C	0.896907	-0.208759	0.000104
C104	C	1.230240	0.124574	0.333438
C105	C	1.563573	0.457908	0.666771
C106	C	0.891234	-0.565703	0.000108
C107	C	1.224567	-0.232370	0.333441
C108	C	1.557901	0.100964	0.666774
C109	C	1.032445	0.106375	0.000122
C110	C	1.365778	0.439708	0.333455
C111	C	1.699111	0.773042	0.666788
C112	C	1.116465	0.107856	0.000126
C113	C	1.449799	0.441189	0.333460
C114	C	1.783132	0.774522	0.666793
C115	C	0.888544	0.265863	0.000105
C116	C	1.221877	0.599196	0.333438
C117	C	1.555210	0.932529	0.666772
C118	C	0.890037	0.358810	0.000104
C119	C	1.223370	0.692143	0.333438
C120	C	1.556703	1.025477	0.666771
N121	N	0.894052	0.112757	0.195773
N122	N	1.227385	0.446090	0.529106
N123	N	1.560719	0.779424	0.862439
N124	N	0.894092	0.112775	-0.195559
N125	N	1.227426	0.446108	0.137774
N126	N	1.560759	0.779441	0.471107
C127	C	0.945521	0.055753	0.239043
C128	C	1.278855	0.389086	0.572377
C129	C	1.612188	0.722420	0.905710
C130	C	0.945525	0.055752	0.325591
C131	C	1.278858	0.389085	0.658924
C132	C	1.612192	0.722419	0.992257
C133	C	0.894063	0.112760	0.368865
C134	C	1.227396	0.446093	0.702199
C135	C	1.560729	0.779427	1.035532
C136	C	0.842588	0.169767	0.325589
C137	C	1.175921	0.503100	0.658922
C138	C	1.509254	0.836433	0.992255
C139	C	0.842581	0.169763	0.239043
C140	C	1.175914	0.503096	0.572376
C141	C	1.509247	0.836429	0.905710
C142	C	0.842614	0.169782	0.674617
C143	C	1.175947	0.503116	1.007950
C144	C	1.509280	0.836449	1.341284
C145	C	0.842626	0.169783	0.761168
C146	C	1.175959	0.503117	1.094502
C147	C	1.509293	0.836450	1.427835
C148	C	0.945558	0.055772	0.761164
C149	C	1.278891	0.389105	1.094498
C150	C	1.612225	0.722438	1.427831
C151	C	0.945551	0.055768	0.674619
C152	C	1.278884	0.389101	1.007952
C153	C	1.612218	0.722434	1.341286
C154	C	0.894074	0.112771	0.631350
C155	C	1.227407	0.446104	0.964683
C156	C	1.560740	0.779438	1.298016
C157	C	0.894069	0.112770	0.537505
C158	C	1.227403	0.446104	0.870839
C159	C	1.560736	0.779437	1.204172
C160	C	0.894070	0.112765	0.462708
C161	C	1.227403	0.446099	0.796041
C162	C	1.560737	0.779432	1.129375
H163	H	0.647962	0.255975	0.000074
H164	H	0.981296	0.589308	0.333407
H165	H	1.314629	0.922642	0.666741
H166	H	0.800682	0.216181	0.360828
H167	H	1.134015	0.549514	0.694161
H168	H	1.467349	0.882847	1.027495
H169	H	0.680714	-0.020873	0.000094
H170	H	1.014047	0.312460	0.333427
H171	H	1.347380	0.645793	0.666760
H172	H	0.283388	-0.027909	0.000126
H173	H	0.616721	0.305425	0.333459
H174	H	0.950054	0.638758	0.666792
H175	H	0.800716	0.216208	0.796401
H176	H	1.134049	0.549541	1.129735
H177	H	1.467383	0.882874	1.463068
H178	H	0.987471	0.009354	0.796403
H179	H	1.320805	0.342687	1.129737
H180	H	1.654138	0.676020	1.463070
H181	H	0.107421	0.246406	0.000113
H182	H	0.440755	0.579739	0.333447
H183	H	0.774088	0.913073	0.666780
Cl184	Cl	1.010251	-0.015899	0.620220
Cl185	Cl	1.343584	0.317435	0.953553
Cl186	Cl	1.676918	0.650768	1.286886
H187	H	0.504750	0.253440	0.000088
H188	H	0.838083	0.586773	0.333422
H189	H	1.171416	0.920106	0.666755
Cl190	Cl	0.777870	0.241426	0.184646
Cl191	Cl	1.111204	0.574759	0.517980
Cl192	Cl	1.444537	0.908092	0.851313
H193	H	0.250646	0.248941	0.000102
H194	H	0.583980	0.582274	0.333435
H195	H	0.917313	0.915607	0.666769
H196	H	0.140174	-0.030442	0.000127
H197	H	0.473508	0.302892	0.333460
H198	H	0.806841	0.636225	0.666793
Cl199	Cl	0.758989	-0.453916	0.085968
Cl200	Cl	1.092322	-0.120582	0.419302
Cl201	Cl	1.425655	0.212751	0.752635
Cl202	Cl	0.524006	-0.057505	0.000110
Cl203	Cl	0.857339	0.275829	0.333444
Cl204	Cl	1.190673	0.609162	0.666777
Cl205	Cl	0.758920	-0.451906	-0.087150
Cl206	Cl	1.092253	-0.118573	0.246183
Cl207	Cl	1.425586	0.214761	0.579517
Cl208	Cl	0.761947	-0.282727	-0.086804
Cl209	Cl	1.095280	0.050606	0.246529
Cl210	Cl	1.428613	0.383939	0.579862
H211	H	0.779168	-0.298792	0.056470
H212	H	1.112501	0.034542	0.389803
H213	H	1.445835	0.367875	0.723136
Cl214	Cl	0.888160	-0.469421	0.169295
Cl215	Cl	1.221493	-0.136088	0.502628
Cl216	Cl	1.554827	0.197246	0.835961
H217	H	0.994887	-0.473622	0.082254
H218	H	1.328221	-0.140289	0.415587
H219	H	1.661554	0.193045	0.748921
H220	H	0.800700	0.216198	0.639394
H221	H	1.134034	0.549531	0.972727
H222	H	1.467367	0.882865	1.306060
H223	H	0.907851	-0.316183	0.137047
H224	H	1.241184	0.017151	0.470381
H225	H	1.574518	0.350484	0.803714
Cl226	Cl	1.031400	-0.323006	0.083142
Cl227	Cl	1.364734	0.010328	0.416475
Cl228	Cl	1.698067	0.343661	0.749809
H229	H	0.908807	-0.462083	-0.137181
H230	H	1.242140	-0.128750	0.196153
H231	H	1.575474	0.204583	0.529486
Cl232	Cl	0.890150	-0.301999	-0.168402
Cl233	Cl	1.223484	0.031334	0.164932
Cl234	Cl	1.556817	0.364667	0.498265
Cl235	Cl	1.030327	-0.321128	-0.086024
Cl236	Cl	1.363660	0.012205	0.247309
Cl237	Cl	1.696994	0.345538	0.580643
Cl238	Cl	1.010225	-0.015915	0.184650
Cl239	Cl	1.343558	0.317419	0.517983
Cl240	Cl	1.676892	0.650752	0.851317
H241	H	0.996873	-0.473487	-0.078191
H242	H	1.330206	-0.140154	0.255142
H243	H	1.663540	0.193179	0.588475
Cl244	Cl	1.010230	-0.015912	0.379990
Cl245	Cl	1.343563	0.317421	0.713323
Cl246	Cl	1.676897	0.650755	1.046656
