data_functionalizedCrystal
_audit_creation_method	'MofGen! by Chris Wilmer'
_symmetry_space_group_name_H-M	'P1'
_symmetry_Int_Tables_number	1
_symmetry_cell_setting	triclinic
loop_
_symmetry_equiv_pos_as_xyz
  x,y,z
_cell_length_a	12.759401
_cell_length_b	16.120484
_cell_length_c	12.759401
_cell_angle_alpha	87.116031
_cell_angle_beta	90.003890
_cell_angle_gamma	92.925678
loop_
_atom_site_label
_atom_site_type_symbol
_atom_site_fract_x
_atom_site_fract_y
_atom_site_fract_z
Zn1	Zn	1.584803	-0.332037	0.615158
Zn2	Zn	1.918136	0.001297	0.948491
Zn3	Zn	2.251469	0.334630	1.281825
Zn4	Zn	1.575800	-0.471424	0.448368
Zn5	Zn	1.909133	-0.138091	0.781701
Zn6	Zn	2.242467	0.195243	1.115035
Zn7	Zn	1.409150	-0.332027	0.439497
Zn8	Zn	1.742483	0.001306	0.772830
Zn9	Zn	2.075817	0.334639	1.106164
Zn10	Zn	1.400152	-0.471413	0.624008
Zn11	Zn	1.733485	-0.138080	0.957342
Zn12	Zn	2.066819	0.195253	1.290675
O13	O	1.492476	-0.401725	0.531758
O14	O	1.825810	-0.068392	0.865091
O15	O	2.159143	0.264941	1.198425
O16	O	1.730629	-0.350535	0.593042
O17	O	2.063962	-0.017202	0.926375
O18	O	2.397296	0.316132	1.259708
O19	O	1.553692	-0.452933	0.300170
O20	O	1.887025	-0.119600	0.633504
O21	O	2.220358	0.213733	0.966837
O22	O	1.439984	-0.215361	0.455382
O23	O	1.773318	0.117972	0.788716
O24	O	2.106651	0.451305	1.122049
O25	O	1.724015	-0.452942	0.470502
O26	O	2.057348	-0.119609	0.803835
O27	O	2.390681	0.213724	1.137168
O28	O	1.569035	-0.215368	0.584440
O29	O	1.902369	0.117965	0.917773
O30	O	2.235702	0.451299	1.251106
O31	O	1.431255	-0.350519	0.293653
O32	O	1.764588	-0.017186	0.626986
O33	O	2.097921	0.316147	0.960319
O34	O	1.260936	-0.350509	0.463964
O35	O	1.594269	-0.017176	0.797297
O36	O	1.927603	0.316158	1.130631
O37	O	1.424648	-0.452924	0.769855
O38	O	1.757982	-0.119591	1.103189
O39	O	2.091315	0.213743	1.436522
O40	O	1.254325	-0.452915	0.599524
O41	O	1.587659	-0.119582	0.932857
O42	O	1.920992	0.213752	1.266191
O43	O	1.560310	-0.350525	0.763353
O44	O	1.893644	-0.017191	1.096686
O45	O	2.226977	0.316142	1.430020
O46	O	1.544967	-0.588090	0.479083
O47	O	1.878300	-0.254757	0.812417
O48	O	2.211633	0.078577	1.145750
O49	O	1.415919	-0.588082	0.608126
O50	O	1.749252	-0.254749	0.941459
O51	O	2.082585	0.078585	1.274792
C52	C	1.219510	-0.401710	0.531742
C53	C	1.552843	-0.068377	0.865076
C54	C	1.886176	0.264956	1.198409
C55	C	1.102732	-0.401724	0.531762
C56	C	1.436066	-0.068391	0.865095
C57	C	1.769399	0.264943	1.198429
C58	C	0.934718	-0.455141	0.602255
C59	C	1.268052	-0.121807	0.935589
C60	C	1.601385	0.211526	1.268922
C61	C	1.044443	-0.455131	0.602244
C62	C	1.377776	-0.121798	0.935577
C63	C	1.711110	0.211535	1.268911
C64	C	1.051291	-0.348329	0.461280
C65	C	1.384624	-0.014995	0.794613
C66	C	1.717958	0.318338	1.127947
C67	C	0.941568	-0.348343	0.461287
C68	C	1.274901	-0.015009	0.794620
C69	C	1.608235	0.318324	1.127954
C70	C	1.478518	-0.618337	0.545551
C71	C	1.811851	-0.285003	0.878884
C72	C	2.145184	0.048330	1.212217
C73	C	1.472642	-0.711004	0.551486
C74	C	1.805976	-0.377671	0.884820
C75	C	2.139309	-0.044337	1.218153
C76	C	1.461922	-0.880668	0.562345
C77	C	1.795255	-0.547335	0.895678
C78	C	2.128588	-0.214001	1.229012
C79	C	1.523219	-0.921942	0.501188
C80	C	1.856552	-0.588609	0.834521
C81	C	2.189886	-0.255276	1.167855
C82	C	1.517254	-1.016349	0.507230
C83	C	1.850587	-0.683016	0.840563
C84	C	2.183921	-0.349682	1.173896
C85	C	1.467885	-0.786253	0.556304
C86	C	1.801219	-0.452919	0.889638
C87	C	2.134552	-0.119586	1.222971
C88	C	1.766508	-0.401741	0.531774
C89	C	2.099842	-0.068408	0.865107
C90	C	2.433175	0.264926	1.198441
C91	C	1.883285	-0.401748	0.531781
C92	C	2.216618	-0.068414	0.865114
C93	C	2.549951	0.264919	1.198448
C94	C	1.492480	-0.401724	0.805791
C95	C	1.825813	-0.068391	1.139124
C96	C	2.159146	0.264942	1.472458
C97	C	1.492481	-0.401724	0.922568
C98	C	1.825815	-0.068390	1.255901
C99	C	2.159148	0.264943	1.589234
C100	C	1.506518	-0.184268	0.517934
C101	C	1.839851	0.149065	0.851268
C102	C	2.173184	0.482398	1.184601
C103	C	1.512501	-0.091601	0.512043
C104	C	1.845835	0.241732	0.845377
C105	C	2.179168	0.575066	1.178710
C106	C	1.563103	-0.348413	1.083777
C107	C	1.896436	-0.015080	1.417111
C108	C	2.229769	0.318254	1.750444
C109	C	1.563112	-0.348413	0.974053
C110	C	1.896445	-0.015080	1.307386
C111	C	2.229779	0.318254	1.640720
C112	C	1.421844	-0.455044	0.980812
C113	C	1.755177	-0.121711	1.314146
C114	C	2.088511	0.211623	1.647479
C115	C	1.421841	-0.455048	1.090535
C116	C	1.755174	-0.121715	1.423868
C117	C	2.088508	0.211619	1.757201
C118	C	1.492465	-0.401741	1.258791
C119	C	1.825799	-0.068407	1.592125
C120	C	2.159132	0.264926	1.925458
C121	C	1.492469	-0.401728	1.142014
C122	C	1.825802	-0.068394	1.475347
C123	C	2.159136	0.264939	1.808681
H124	H	0.887267	-0.498627	0.659656
H125	H	1.220600	-0.165293	0.992989
H126	H	1.553934	0.168040	1.326322
H127	H	1.580176	-0.886376	0.444292
H128	H	1.913510	-0.553043	0.777625
H129	H	2.246843	-0.219709	1.110958
H130	H	1.364321	-0.498467	1.137953
H131	H	1.697654	-0.165134	1.471286
H132	H	2.030988	0.168199	1.804620
H133	H	1.364340	-0.498454	0.938885
H134	H	1.697673	-0.165121	1.272218
H135	H	2.031007	0.168212	1.605551
H136	H	1.620630	-0.305000	0.926641
H137	H	1.953963	0.028334	1.259975
H138	H	2.287297	0.361667	1.593308
H139	H	0.899690	-0.304862	0.403893
H140	H	1.233023	0.028471	0.737226
H141	H	1.566357	0.361804	1.070560
H142	H	1.404967	-0.916232	0.619235
H143	H	1.738301	-0.582898	0.952569
H144	H	2.071634	-0.249565	1.285902
H145	H	1.098759	-0.304847	0.403888
H146	H	1.432092	0.028486	0.737221
H147	H	1.765425	0.361819	1.070554
H148	H	1.086315	-0.498610	0.659630
H149	H	1.419649	-0.165277	0.992964
H150	H	1.752982	0.168056	1.326297
H151	H	1.620612	-0.304996	1.125688
H152	H	1.953946	0.028338	1.459021
H153	H	2.287279	0.361671	1.792355
