data_functionalizedCrystal
_audit_creation_method	'MofGen! by Chris Wilmer'
_symmetry_space_group_name_H-M	'P1'
_symmetry_Int_Tables_number	1
_symmetry_cell_setting	triclinic
loop_
_symmetry_equiv_pos_as_xyz
  x,y,z
_cell_length_a	10.723024
_cell_length_b	9.616153
_cell_length_c	10.723024
_cell_angle_alpha	90.001062
_cell_angle_beta	84.467869
_cell_angle_gamma	90.006580
loop_
_atom_site_label
_atom_site_type_symbol
_atom_site_fract_x
_atom_site_fract_y
_atom_site_fract_z
O1	O	1.657193	0.115633	0.175022
O2	O	1.294041	0.115637	0.191776
O3	O	1.483994	0.115630	0.001823
O4	O	1.467240	0.115640	0.364975
O5	O	1.483968	-0.115662	0.001827
O6	O	1.294015	-0.115654	0.191779
O7	O	1.657167	-0.115659	0.175026
Zn8	Zn	1.475587	-0.152379	0.183403
Zn9	Zn	1.475621	0.152357	0.183398
O10	O	1.467214	-0.115651	0.364979
C11	C	1.247528	-0.000008	0.190558
C12	C	1.108974	-0.000006	0.186911
N13	N	1.475572	-0.360353	0.183406
C14	C	1.033991	-0.000002	0.293198
C15	C	0.890788	-0.000001	0.289431
C16	C	1.373650	-0.580719	0.284678
C17	C	1.373874	-0.419552	0.285057
C18	C	1.606028	-0.418803	0.212963
C19	C	1.605473	-0.580021	0.213679
C20	C	1.448338	-0.580268	0.052246
C21	C	1.445343	-0.419042	0.053098
C22	C	1.703680	-0.000010	0.176243
C23	C	1.842234	-0.000003	0.179891
C24	C	1.482762	-0.000014	-0.044675
C25	C	1.479114	-0.000009	-0.183229
N26	N	1.475646	0.360332	0.183386
C27	C	1.585401	-0.000009	-0.258212
C28	C	1.581634	-0.000004	-0.401415
C29	C	1.468447	-0.000004	0.411477
C30	C	1.472094	0.000000	0.550031
H31	H	1.075814	-0.000008	0.386984
H32	H	1.683800	-0.619013	0.142872
H33	H	1.276413	-0.619530	0.267177
H34	H	1.067152	0.000027	0.093125
Cl35	Cl	0.941699	0.000003	0.039396
Cl36	Cl	1.331599	-0.000012	-0.350504
H37	H	1.630456	-0.378411	0.307555
Cl38	Cl	0.791315	0.000016	0.429921
H39	H	1.276940	-0.380036	0.267282
H40	H	1.679187	-0.000018	-0.216390
H41	H	1.522705	-0.618387	-0.023145
Cl42	Cl	1.400401	-0.643209	0.434051
Cl43	Cl	1.400915	-0.359973	0.435288
H44	H	1.629366	-0.617607	0.309353
H45	H	1.683778	-0.380454	0.141198
Cl46	Cl	1.334308	0.000006	-0.247788
Cl47	Cl	1.304549	-0.643113	0.008815
Cl48	Cl	1.297172	-0.360065	0.018501
Cl49	Cl	1.552457	-0.356856	-0.068864
H50	H	1.672624	-0.000009	-0.465848
