data_functionalizedCrystal
_audit_creation_method	'MofGen! by Chris Wilmer'
_symmetry_space_group_name_H-M	'P1'
_symmetry_Int_Tables_number	1
_symmetry_cell_setting	triclinic
loop_
_symmetry_equiv_pos_as_xyz
  x,y,z
_cell_length_a	12.827892
_cell_length_b	12.827893
_cell_length_c	12.759393
_cell_angle_alpha	90.021430
_cell_angle_beta	89.969144
_cell_angle_gamma	89.986588
loop_
_atom_site_label
_atom_site_type_symbol
_atom_site_fract_x
_atom_site_fract_y
_atom_site_fract_z
Zn1	Zn	-0.416027	-1.597674	-0.594069
Zn2	Zn	-0.590807	-1.597567	-0.418391
Zn3	Zn	-0.416075	-1.422914	-0.418399
Zn4	Zn	-0.590720	-1.422901	-0.594024
O5	O	-0.503407	-1.510264	-0.506221
O6	O	-0.439228	-1.743896	-0.570780
O7	O	-0.567685	-1.574360	-0.271371
O8	O	-0.269832	-1.446147	-0.441724
O9	O	-0.567638	-1.743817	-0.441711
O10	O	-0.269797	-1.574542	-0.570788
O11	O	-0.439310	-1.446043	-0.271377
O12	O	-0.439226	-1.276676	-0.441681
O13	O	-0.567490	-1.446124	-0.741051
O14	O	-0.567537	-1.276666	-0.570711
O15	O	-0.439144	-1.574529	-0.741084
O16	O	-0.737032	-1.574347	-0.441667
O17	O	-0.736968	-1.446020	-0.570703
C18	C	-0.503378	-1.238754	-0.506192
C19	C	-0.503390	-1.122601	-0.506205
C20	C	-0.774917	-1.510199	-0.506202
C21	C	-0.891070	-1.510266	-0.506229
C22	C	-0.566833	-1.070777	-0.442251
C23	C	-0.566847	-0.950727	-0.442263
C24	C	-0.942852	-1.573842	-0.442449
C25	C	-1.062902	-1.573913	-0.442475
C26	C	-0.230837	-1.510358	-0.506262
C27	C	-0.114684	-1.510398	-0.506280
C28	C	-0.503302	-1.510337	-0.780254
C29	C	-0.503257	-1.510368	-0.897031
C30	C	-0.503429	-0.782834	-0.506241
C31	C	-0.503416	-0.898987	-0.506228
C32	C	-0.436420	-1.577238	-0.951912
C33	C	-0.436383	-1.577263	-1.061636
C34	C	-0.570027	-1.443545	-1.061588
C35	C	-0.570059	-1.443516	-0.951866
C36	C	-0.359265	-1.654442	-0.951940
C37	C	-0.359227	-1.654467	-1.061664
C38	C	-0.503437	-1.510251	-0.233253
C39	C	-0.503187	-1.510422	-0.116477
H40	H	-0.621140	-1.115286	-0.387492
H41	H	-1.107433	-1.628339	-0.387868
C42	C	-1.054534	-1.436861	-0.580055
N43	N	-1.009222	-1.381474	-0.635623
H44	H	-0.282330	-1.625510	-1.095710
C45	C	-0.643568	-1.369938	-0.891501
N46	N	-0.698936	-1.314514	-0.846034
H47	H	-0.898310	-1.628223	-0.387827
C48	C	-0.430019	-1.062477	-0.580184
N49	N	-0.374751	-1.017192	-0.635904
C50	C	-0.643503	-1.370010	-1.121918
N51	N	-0.698847	-1.314622	-1.167356
H52	H	-0.388281	-1.731301	-0.917909
C53	C	-0.640227	-0.890522	-0.368290
N54	N	-0.695500	-0.845174	-0.312572
H55	H	-0.935615	-1.455894	-0.560858
C56	C	-0.388525	-1.763802	-1.101904
N57	N	-0.410595	-1.846149	-1.132213
C58	C	-0.249936	-1.625184	-0.911733
N59	N	-0.167592	-1.603144	-0.881450
H60	H	-0.449094	-0.943547	-0.560980
