data_functionalizedCrystal
_audit_creation_method	'MofGen! by Chris Wilmer'
_symmetry_space_group_name_H-M	'P1'
_symmetry_Int_Tables_number	1
_symmetry_cell_setting	triclinic
loop_
_symmetry_equiv_pos_as_xyz
  x,y,z
_cell_length_a	12.759401
_cell_length_b	18.050589
_cell_length_c	12.759393
_cell_angle_alpha	89.971089
_cell_angle_beta	89.979541
_cell_angle_gamma	90.029746
loop_
_atom_site_label
_atom_site_type_symbol
_atom_site_fract_x
_atom_site_fract_y
_atom_site_fract_z
Zn1	Zn	1.606163	-0.295598	-0.594027
Zn2	Zn	1.606014	-0.419804	-0.418350
Zn3	Zn	1.430463	-0.295636	-0.418362
Zn4	Zn	1.430412	-0.419754	-0.593987
O5	O	1.518263	-0.357698	-0.506182
O6	O	1.753164	-0.312079	-0.570735
O7	O	1.582686	-0.403370	-0.271331
O8	O	1.453854	-0.191706	-0.441686
O9	O	1.753055	-0.403333	-0.441666
O10	O	1.582939	-0.191678	-0.570746
O11	O	1.453709	-0.312144	-0.271339
O12	O	1.283435	-0.312095	-0.441648
O13	O	1.453767	-0.403247	-0.741014
O14	O	1.283398	-0.403284	-0.570679
O15	O	1.582890	-0.312030	-0.741043
O16	O	1.582636	-0.523722	-0.441627
O17	O	1.453622	-0.523685	-0.570667
C18	C	1.245295	-0.357689	-0.506161
C19	C	1.128519	-0.357703	-0.506177
C20	C	1.073665	-0.405257	-0.573257
C21	C	0.963941	-0.405260	-0.573278
C22	C	0.963934	-0.310152	-0.439129
C23	C	1.073656	-0.310146	-0.439114
C24	C	1.518136	-0.550650	-0.506164
C25	C	1.518178	-0.633196	-0.506192
C26	C	1.448089	-0.832653	-0.576339
C27	C	1.422474	-0.882101	-0.480470
C28	C	1.518281	-0.784326	-0.506206
C29	C	1.543948	-0.881961	-0.602085
C30	C	1.518379	-0.930311	-0.506227
C31	C	1.492616	-0.832686	-0.410286
C32	C	1.614134	-0.832542	-0.531966
C33	C	1.588555	-0.881967	-0.436031
C34	C	1.518222	-0.700228	-0.506194
C35	C	1.518438	-1.014408	-0.506228
C36	C	1.792296	-0.357708	-0.506203
C37	C	1.909073	-0.357712	-0.506212
C38	C	1.518339	-0.357629	-0.780215
C39	C	1.518372	-0.357600	-0.896992
C40	C	1.518419	-0.163992	-0.506222
C41	C	1.518485	-0.081447	-0.506239
C42	C	1.585557	-0.405046	-1.061585
C43	C	1.585532	-0.405081	-0.951861
C44	C	1.451225	-0.310085	-0.951853
C45	C	1.451246	-0.310055	-1.061575
C46	C	1.518247	-0.357713	-0.233214
C47	C	1.518418	-0.357534	-0.116438
H48	H	1.118320	-0.271417	-0.384489
C49	C	1.659440	-0.457280	-1.121930
N50	N	1.715087	-0.496627	-1.167379
C51	C	1.367781	-0.803393	-0.656346
N52	N	1.307291	-0.781351	-0.716600
C53	C	1.377357	-0.257849	-0.891493
N54	N	1.321724	-0.218499	-0.846032
C55	C	1.668800	-0.911041	-0.355827
N56	N	1.729235	-0.932943	-0.295415
C57	C	1.659413	-0.457332	-0.891527
N58	N	1.715070	-0.496685	-0.846084
H59	H	1.470852	-0.811131	-0.329188
H60	H	1.118331	-0.443979	-0.627867
C61	C	1.377388	-0.257782	-1.121917
N62	N	1.321759	-0.218413	-1.167367
H63	H	0.919284	-0.443983	-0.627904
C64	C	0.903575	-0.257847	-0.365358
N65	N	0.858114	-0.218451	-0.309790
H66	H	1.565618	-0.903606	-0.683161
H67	H	1.341460	-0.903885	-0.458702
C68	C	1.723547	-0.803099	-0.561446
N69	N	1.805954	-0.780917	-0.583664
