data_functionalizedCrystal
_audit_creation_method	'MofGen! by Chris Wilmer'
_symmetry_space_group_name_H-M	'P1'
_symmetry_Int_Tables_number	1
_symmetry_cell_setting	triclinic
loop_
_symmetry_equiv_pos_as_xyz
  x,y,z
_cell_length_a	10.489741
_cell_length_b	10.489741
_cell_length_c	8.965430
_cell_angle_alpha	89.999293
_cell_angle_beta	89.998843
_cell_angle_gamma	95.460826
loop_
_atom_site_label
_atom_site_type_symbol
_atom_site_fract_x
_atom_site_fract_y
_atom_site_fract_z
O1	O	1.694053	-0.179958	-0.123946
O2	O	1.322858	-0.196851	-0.123969
O3	O	1.516902	-0.002807	-0.123948
O4	O	1.500009	-0.374003	-0.123967
O5	O	1.516886	-0.002820	0.124130
O6	O	1.322841	-0.196864	0.124110
O7	O	1.694037	-0.179971	0.124133
Cu8	Cu	1.508438	-0.188419	0.146773
Cu9	Cu	1.508457	-0.188404	-0.146609
O10	O	1.499993	-0.374016	0.124112
C11	C	1.275318	-0.195582	0.000067
C12	C	1.133688	-0.191765	0.000059
C13	C	1.065548	-0.068300	0.000079
C14	C	0.973430	-0.126617	-0.122237
C15	C	0.973447	-0.126659	0.122349
C16	C	1.043435	-0.250133	-0.122358
C17	C	1.043462	-0.250158	0.122338
C18	C	0.951371	-0.308564	-0.000007
C19	C	1.515618	0.044718	0.000090
C20	C	1.511801	0.186348	0.000087
C21	C	1.741577	-0.181241	0.000093
C22	C	1.883206	-0.185058	0.000092
C23	C	1.501277	-0.421541	0.000070
C24	C	1.505094	-0.563170	0.000063
N25	N	1.508433	-0.188429	0.353122
C26	C	1.388336	0.254488	0.000069
C27	C	1.446652	0.346604	0.122388
C28	C	1.446697	0.346591	-0.122198
C29	C	1.570167	0.276599	0.122508
C30	C	1.570195	0.276576	-0.122189
C31	C	1.628600	0.368665	0.000161
N32	N	1.508471	-0.188384	-0.352958
C33	C	1.418666	-0.278138	0.450418
C34	C	1.534163	-0.303949	0.549838
C35	C	1.392986	-0.162629	0.549830
C36	C	1.623988	-0.214298	0.450352
C37	C	1.482735	-0.072927	0.450336
C38	C	1.598314	-0.098690	0.549711
H39	H	1.074502	-0.302361	0.225749
N40	N	0.934573	-0.061136	0.252096
N41	N	0.859479	-0.118113	0.343692
H42	H	0.832027	-0.071832	0.435321
N43	N	1.756045	0.430702	0.000233
N44	N	1.793091	0.503368	-0.104805
H45	H	1.883097	0.547188	-0.104750
H46	H	1.622355	0.245761	0.226035
N47	N	1.693684	-0.003511	0.604074
N48	N	1.782120	-0.035339	0.685386
H49	H	1.849481	0.031874	0.723783
N50	N	1.082087	-0.315646	-0.252216
N51	N	1.138977	-0.414452	-0.238854
H52	H	1.166272	-0.460728	-0.330562
H53	H	1.622398	0.245537	-0.225600
N54	N	1.260988	0.192212	0.000219
N55	N	1.186466	0.210891	0.105079
H56	H	1.096527	0.166909	0.105192
N57	N	1.381160	0.385442	-0.251944
N58	N	1.422090	0.361628	-0.378889
H59	H	1.375797	0.389060	-0.470518
N60	N	1.381098	0.385495	0.252104
N61	N	1.266833	0.344378	0.273891
H62	H	1.220527	0.371840	0.365498
N63	N	1.323507	-0.373383	0.395735
N64	N	1.256260	-0.441950	0.485253
H65	H	1.189056	-0.509217	0.446634
N66	N	1.561438	-0.426462	0.604677
N67	N	1.482258	-0.489907	0.686254
H68	H	1.501511	-0.576436	0.724979
H69	H	1.721659	-0.236216	0.406840
H70	H	1.460937	0.024699	0.406596
H71	H	1.295338	-0.140828	0.593530
H72	H	0.942422	-0.074371	-0.225643
N73	N	1.127823	0.059049	-0.000076
N74	N	1.109574	0.133388	-0.105262
H75	H	1.153556	0.223327	-0.105378
H76	H	0.901947	-0.410168	-0.000079
