data_functionalizedCrystal
_audit_creation_method	'MofGen! by Chris Wilmer'
_symmetry_space_group_name_H-M	'P1'
_symmetry_Int_Tables_number	1
_symmetry_cell_setting	triclinic
loop_
_symmetry_equiv_pos_as_xyz
  x,y,z
_cell_length_a	10.654550
_cell_length_b	11.792241
_cell_length_c	9.130313
_cell_angle_alpha	89.998583
_cell_angle_beta	89.996220
_cell_angle_gamma	84.339159
loop_
_atom_site_label
_atom_site_type_symbol
_atom_site_fract_x
_atom_site_fract_y
_atom_site_fract_z
O1	O	1.667383	0.159415	-0.121920
O2	O	1.301862	0.174603	-0.121897
O3	O	1.493493	0.001859	-0.121899
O4	O	1.475752	0.332159	-0.121918
O5	O	1.493490	0.001864	0.121700
O6	O	1.301859	0.174608	0.121702
O7	O	1.667381	0.159419	0.121678
Cu8	Cu	1.484620	0.167014	0.143933
Cu9	Cu	1.484623	0.167008	-0.144151
O10	O	1.475750	0.332164	0.121680
C11	C	1.255066	0.173490	-0.000095
C12	C	1.115632	0.170154	-0.000085
C13	C	1.035858	0.271863	-0.000113
C14	C	0.904847	0.268721	-0.000138
C15	C	0.933394	0.062152	-0.000114
C16	C	1.064404	0.065295	-0.000079
C17	C	1.087087	0.376722	-0.000119
C18	C	1.007312	0.478439	-0.000148
C19	C	0.876300	0.475297	-0.000173
C20	C	0.825063	0.370438	-0.000170
C21	C	1.492377	-0.040432	-0.000100
C22	C	1.489042	-0.166454	-0.000101
C23	C	1.482908	-0.397180	-0.000125
C24	C	1.486316	-0.268787	-0.000112
C25	C	1.714177	0.160532	-0.000127
C26	C	1.853611	0.163869	-0.000146
C27	C	1.476865	0.374455	-0.000122
C28	C	1.480201	0.500476	-0.000130
N29	N	1.484627	0.167017	0.346555
N30	N	1.484625	0.166996	-0.346774
C31	C	1.569503	0.090552	0.423206
C32	C	1.569500	0.090539	0.576543
C33	C	1.399740	0.243465	0.576564
C34	C	1.399739	0.243472	0.423230
C35	C	1.654392	0.014097	0.346531
C36	C	1.739275	-0.062373	0.423182
C37	C	1.739272	-0.062387	0.576519
C38	C	1.654385	0.014070	0.653205
H39	H	1.049039	0.563812	-0.000139
H40	H	1.193762	0.379291	-0.000106
O41	O	1.821545	-0.136782	0.651046
C42	C	1.753825	-0.207367	0.739765
H43	H	1.654774	-0.210119	0.693563
H44	H	1.804461	-0.297152	0.741491
H45	H	1.747481	-0.171909	0.855978
H46	H	0.891666	-0.023220	-0.000136
H47	H	1.330629	0.305714	0.639012
O48	O	0.798986	0.574205	-0.000259
C49	C	0.872301	0.667423	-0.000218
H50	H	0.969884	0.639379	-0.046311
H51	H	0.824484	0.738746	-0.070960
H52	H	0.881820	0.699523	0.116647
H53	H	1.654404	0.014104	0.221677
H54	H	0.718383	0.367888	-0.000167
O55	O	1.141724	-0.033610	-0.000130
C56	C	1.068419	-0.126834	-0.000112
H57	H	0.970855	-0.098802	-0.046254
H58	H	1.116276	-0.198159	-0.070825
H59	H	1.058849	-0.158927	0.116752
H60	H	1.808381	-0.124628	0.360737
H61	H	1.654381	0.014045	0.778062
H62	H	1.330624	0.305736	0.360820
