data_functionalizedCrystal
_audit_creation_method	'MofGen! by Chris Wilmer'
_symmetry_space_group_name_H-M	'P1'
_symmetry_Int_Tables_number	1
_symmetry_cell_setting	triclinic
loop_
_symmetry_equiv_pos_as_xyz
  x,y,z
_cell_length_a	17.038272
_cell_length_b	23.532407
_cell_length_c	16.098538
_cell_angle_alpha	92.700973
_cell_angle_beta	87.069734
_cell_angle_gamma	86.980117
loop_
_atom_site_label
_atom_site_type_symbol
_atom_site_fract_x
_atom_site_fract_y
_atom_site_fract_z
O1	O	1.039966	0.121251	-0.069166
O2	O	0.812351	0.119288	-0.069191
O3	O	0.933021	0.037699	-0.069163
O4	O	0.919295	0.202840	-0.069195
O5	O	0.925973	0.042445	0.069349
O6	O	0.805302	0.124034	0.069321
O7	O	1.032917	0.125997	0.069345
Zn8	Zn	0.917990	0.125769	0.091324
Zn9	Zn	0.927278	0.119516	-0.091170
O10	O	0.912247	0.207586	0.069317
C11	C	0.779712	0.119875	0.000062
C12	C	0.692959	0.114548	0.000054
C13	C	0.642483	0.163453	0.000045
C14	C	0.560969	0.158445	0.000057
C15	C	0.529932	0.104532	0.000072
C16	C	0.580415	0.055624	0.000084
C17	C	0.661927	0.060632	0.000077
C18	C	0.284304	0.086837	0.000098
C19	C	0.202786	0.081832	0.000102
C20	C	0.183345	0.184654	0.000077
C21	C	0.264860	0.189657	0.000066
C22	C	0.315335	0.140750	0.000081
C23	C	0.446612	0.099411	0.000083
C24	C	0.398653	0.145871	0.000077
C25	C	0.929147	0.018838	0.000095
C26	C	0.928096	-0.044434	0.000101
C27	C	0.992917	-0.440131	0.000063
C28	C	0.991941	-0.499583	0.000056
O29	O	1.052030	-0.533169	0.000032
N30	N	0.920202	-0.525981	0.000049
C31	C	0.849435	-0.492924	0.000040
O32	O	0.788325	-0.520836	0.000033
C33	C	0.850412	-0.433473	0.000041
C34	C	0.922155	-0.407078	0.000056
C35	C	1.064654	-0.413736	0.000077
C36	C	1.065630	-0.354288	0.000085
C37	C	0.994868	-0.321236	0.000079
C38	C	0.923131	-0.347631	0.000064
C39	C	0.779646	-0.400418	0.000026
C40	C	0.780629	-0.340963	0.000025
C41	C	0.852372	-0.314569	0.000041
C42	C	0.853344	-0.255130	0.000066
N43	N	0.925083	-0.228732	0.000073
C44	C	0.995845	-0.261785	0.000079
C45	C	0.847388	-0.617774	0.000038
C46	C	0.846410	-0.677223	0.000043
C47	C	0.988917	-0.683878	0.000058
C48	C	0.989894	-0.624428	0.000058
C49	C	0.919127	-0.591376	0.000045
C50	C	0.997889	-0.136940	0.000097
C51	C	0.998858	-0.077487	0.000108
C52	C	0.856352	-0.070837	0.000089
C53	C	0.855382	-0.130285	0.000082
C54	C	0.926157	-0.163336	0.000083
O55	O	0.793287	-0.221508	0.000086
O56	O	1.056945	-0.233865	0.000076
C57	C	1.065556	0.125410	0.000090
C58	C	1.152310	0.130737	0.000093
C59	C	0.916121	0.226447	0.000057
C60	C	0.917172	0.289719	0.000045
N61	N	0.911658	0.130036	0.215872
N62	N	0.933616	0.115244	-0.215718
C63	C	0.962894	0.095421	0.259469
C64	C	0.958471	0.098412	0.346657
C65	C	0.902816	0.136022	0.390246
C66	C	0.851574	0.170639	0.346643
C67	C	0.855994	0.167644	0.259457
C68	C	0.886795	0.146867	0.653493
C69	C	0.882380	0.149860	0.740685
C70	C	0.989277	0.077632	0.740693
C71	C	0.993694	0.074644	0.653505
C72	C	0.942450	0.109258	0.609909
C73	C	0.898295	0.139081	0.479366
C74	C	0.946968	0.106195	0.520791
H75	H	0.555138	0.011727	0.000108
H76	H	1.030996	0.049450	0.776196
O77	O	0.822347	0.190421	0.787709
H78	H	0.762327	0.179607	0.771000
H79	H	0.845071	0.175052	0.618004
O80	O	0.771056	-0.582125	0.000045
H81	H	0.721013	-0.610473	0.000051
O82	O	0.702262	-0.428874	0.000005
H83	H	0.713455	-0.475767	0.000010
O84	O	1.022907	0.054845	0.212453
H85	H	1.062725	0.079292	0.172712
O86	O	0.413134	0.041263	0.000092
H87	H	0.430570	0.019508	0.056553
O88	O	1.140984	-0.449378	0.000098
H89	H	1.178219	-0.441487	-0.056345
H90	H	0.723001	-0.314056	0.000013
H91	H	0.177520	0.037928	0.000114
H92	H	0.423926	0.189766	0.000069
O93	O	1.067273	-0.595960	0.000059
H94	H	1.116310	-0.628937	0.000057
O95	O	0.791547	0.211207	0.393651
H96	H	0.797087	0.207480	0.461602
H97	H	0.814271	0.195831	0.223961
O98	O	0.716375	0.007886	0.000084
H99	H	0.681102	-0.030445	0.000088
O100	O	1.076241	-0.049017	0.000112
H101	H	1.125281	-0.081993	0.000102
H102	H	0.992280	0.075571	0.485298
H103	H	0.852981	0.169705	0.514864
O104	O	1.065244	-0.719533	0.000056
H105	H	1.052505	-0.765306	0.000043
H106	H	0.519874	0.198268	0.000049
H107	H	0.787989	-0.698708	0.000045
O108	O	0.338737	0.034088	0.000117
H109	H	0.330624	0.006540	-0.056334
H110	H	1.055521	-0.163843	0.000094
H111	H	0.796962	-0.151776	0.000093
H112	H	1.124051	-0.332803	0.000094
H113	H	0.290124	0.233559	0.000043
H114	H	0.798739	-0.043915	0.000087
O115	O	1.013746	0.061089	0.393683
H116	H	1.053200	0.034442	0.348725
O117	O	1.053716	0.034074	0.606490
H118	H	1.088596	0.010501	0.651454
H119	H	0.142240	0.224472	0.000066
O120	O	0.675957	0.221602	0.000036
H121	H	0.627159	0.254767	0.000043
