data_functionalizedCrystal
_audit_creation_method	'MofGen! by Chris Wilmer'
_symmetry_space_group_name_H-M	'P1'
_symmetry_Int_Tables_number	1
_symmetry_cell_setting	triclinic
loop_
_symmetry_equiv_pos_as_xyz
  x,y,z
_cell_length_a	14.908558
_cell_length_b	19.120786
_cell_length_c	14.908308
_cell_angle_alpha	89.316475
_cell_angle_beta	89.824401
_cell_angle_gamma	89.019029
loop_
_atom_site_label
_atom_site_type_symbol
_atom_site_fract_x
_atom_site_fract_y
_atom_site_fract_z
Zn1	Zn	1.326488	-0.364772	0.566465
Zn2	Zn	1.329367	-0.475326	0.409708
Zn3	Zn	1.185495	-0.351345	0.408241
Zn4	Zn	1.170437	-0.474494	0.551409
O5	O	1.252947	-0.416484	0.483956
O6	O	1.452388	-0.385405	0.552585
O7	O	1.317789	-0.453609	0.283994
O8	O	1.209295	-0.255320	0.434916
O9	O	1.454504	-0.466628	0.437417
O10	O	1.312881	-0.265185	0.551162
O11	O	1.212087	-0.362521	0.282915
O12	O	1.057979	-0.361713	0.420317
O13	O	1.183631	-0.465210	0.678926
O14	O	1.046916	-0.452190	0.525503
O15	O	1.298281	-0.384597	0.689987
O16	O	1.303188	-0.573021	0.422819
O17	O	1.186423	-0.572410	0.526926
C18	C	1.019902	-0.405405	0.471118
C19	C	0.920202	-0.400683	0.465646
C20	C	0.785412	-0.346860	0.403267
C21	C	0.879089	-0.351293	0.408405
C22	C	0.867632	-0.445642	0.517755
C23	C	0.773955	-0.441209	0.512617
C24	C	0.732848	-0.391817	0.455370
C25	C	0.639169	-0.387388	0.450228
C26	C	0.627714	-0.481733	0.559582
C27	C	0.721392	-0.486166	0.564720
C28	C	1.243507	-0.598078	0.473419
C29	C	1.239549	-0.675769	0.468945
C30	C	1.291576	-0.717344	0.527412
C31	C	1.287853	-0.790344	0.523210
C32	C	1.232108	-0.821767	0.460537
C33	C	1.180075	-0.780186	0.402068
C34	C	1.183794	-0.707188	0.406275
C35	C	1.218180	-1.041919	0.444809
C36	C	1.214468	-1.114923	0.440605
C37	C	1.322245	-1.125076	0.561748
C38	C	1.325963	-1.052076	0.565946
C39	C	1.273927	-1.010502	0.507480
C40	C	1.228304	-0.896384	0.456239
C41	C	1.277727	-0.935886	0.511784
C42	C	1.486901	-0.427607	0.496844
C43	C	1.586599	-0.432347	0.502337
C44	C	1.238955	-0.426308	0.717913
C45	C	1.232993	-0.430495	0.817611
C46	C	1.262447	-0.234184	0.494555
C47	C	1.266495	-0.156498	0.499071
C48	C	1.266938	-0.406650	0.250915
C49	C	1.273085	-0.402275	0.151238
C50	C	1.341171	-0.354404	1.016476
C51	C	1.335572	-0.358335	1.110152
C52	C	1.216191	-0.442285	1.098641
C53	C	1.221790	-0.438353	1.004965
C54	C	1.284283	-0.394412	0.963886
C55	C	1.289886	-0.390485	0.870208
C56	C	1.170502	-0.474431	0.858699
C57	C	1.164902	-0.478362	0.952375
H58	H	0.754874	-0.526378	0.611331
H59	H	1.165312	-0.478059	1.132104
C60	C	0.912866	-0.499969	0.580721
N61	N	0.946938	-0.540890	0.628146
H62	H	1.323111	-0.910299	0.562815
H63	H	1.340773	-0.354707	0.836763
C64	C	1.409917	-0.306072	0.971287
N65	N	1.461698	-0.269668	0.937252
H66	H	1.182918	-0.921976	0.405208
H67	H	0.584907	-0.518341	0.602008
H68	H	1.114021	-0.514136	0.985834
H69	H	0.921883	-0.314682	0.365980
H70	H	0.751942	-0.306644	0.356653
H71	H	0.605702	-0.347170	0.403615
C72	C	1.398155	-0.314325	1.167998
N73	N	1.445297	-0.281174	1.211567
C74	C	1.107921	-0.518443	0.800842
N75	N	1.060789	-0.551594	0.757263
H76	H	1.336974	-0.691765	0.578443
C77	C	1.387305	-1.017517	0.634875
N78	N	1.433517	-0.991487	0.686786
C79	C	1.345100	-0.836074	0.587516
N80	N	1.388225	-0.870517	0.635952
C81	C	1.379475	-1.170813	0.626062
N82	N	1.422579	-1.205263	0.674508
H83	H	1.169069	-1.140505	0.389569
C84	C	1.160917	-0.996197	0.380514
N85	N	1.117774	-0.961756	0.332091
H86	H	1.134682	-0.805776	0.351042
H87	H	1.141427	-0.673337	0.358667
