data_functionalizedCrystal
_audit_creation_method	'MofGen! by Chris Wilmer'
_symmetry_space_group_name_H-M	'P1'
_symmetry_Int_Tables_number	1
_symmetry_cell_setting	triclinic
loop_
_symmetry_equiv_pos_as_xyz
  x,y,z
_cell_length_a	6.394989
_cell_length_b	9.065218
_cell_length_c	7.540329
_cell_angle_alpha	89.999489
_cell_angle_beta	89.997344
_cell_angle_gamma	85.756798
loop_
_atom_site_label
_atom_site_type_symbol
_atom_site_fract_x
_atom_site_fract_y
_atom_site_fract_z
O1	O	-0.306380	-1.963198	0.147474
O2	O	0.193620	-1.463198	0.647474
O3	O	-0.331511	-1.534143	0.147476
O4	O	0.168489	-1.034143	0.647476
O5	O	-0.014997	-1.754761	0.147476
O6	O	0.485003	-1.254761	0.647476
O7	O	-0.622895	-1.742581	0.147474
O8	O	-0.122895	-1.242581	0.647474
O9	O	-0.014979	-1.754759	-0.147489
O10	O	0.485021	-1.254759	0.352511
O11	O	-0.331493	-1.534141	-0.147489
O12	O	0.168507	-1.034141	0.352511
O13	O	-0.306363	-1.963196	-0.147491
O14	O	0.193637	-1.463196	0.352509
Cu15	Cu	-0.318926	-1.748669	-0.174423
Cu16	Cu	0.181074	-1.248669	0.325577
Cu17	Cu	-0.318947	-1.748671	0.174408
Cu18	Cu	0.181053	-1.248671	0.674408
O19	O	-0.622877	-1.742579	-0.147491
O20	O	-0.122877	-1.242579	0.352509
C21	C	-0.329087	-1.479134	-0.000007
C22	C	0.170913	-0.979134	0.499993
C23	C	-0.321865	-1.315225	-0.000006
C24	C	0.178135	-0.815225	0.499994
N25	N	-0.318947	-1.748673	0.419756
N26	N	0.181053	-1.248673	0.919756
C27	C	-0.308787	-2.018206	-0.000005
C28	C	0.191213	-1.518206	0.499995
C29	C	-0.316008	-2.182115	0.000006
C30	C	0.183992	-1.682115	0.500006
C31	C	0.062879	-1.752352	0.000000
C32	C	0.562879	-1.252352	0.500000
C33	C	0.299253	-1.744991	0.000002
C34	C	0.799253	-1.244991	0.500002
N35	N	-0.318911	-1.748678	-0.419771
N36	N	0.181089	-1.248678	0.080229
