data_functionalizedCrystal
_audit_creation_method	'MofGen! by Chris Wilmer'
_symmetry_space_group_name_H-M	'P1'
_symmetry_Int_Tables_number	1
_symmetry_cell_setting	triclinic
loop_
_symmetry_equiv_pos_as_xyz
  x,y,z
_cell_length_a	16.974829
_cell_length_b	12.837942
_cell_length_c	15.455313
_cell_angle_alpha	92.949088
_cell_angle_beta	83.671566
_cell_angle_gamma	89.101883
loop_
_atom_site_label
_atom_site_type_symbol
_atom_site_fract_x
_atom_site_fract_y
_atom_site_fract_z
O1	O	1.065465	0.122902	-0.146920
O2	O	0.835828	0.140734	-0.130803
O3	O	0.945554	-0.019055	-0.138499
O4	O	0.955739	0.282691	-0.139224
O5	O	0.939277	-0.009955	0.006204
O6	O	0.829550	0.149834	0.013900
O7	O	1.059187	0.132002	-0.002218
Cu8	Cu	0.943796	0.141749	0.019054
Cu9	Cu	0.951220	0.130987	-0.152074
O10	O	0.949461	0.291791	0.005478
C11	C	0.803093	0.144774	-0.056374
C12	C	0.714903	0.143240	-0.050184
C13	C	0.938975	-0.053106	-0.065906
C14	C	0.928715	-0.168123	-0.065188
C15	C	0.218121	0.135176	-0.006875
C16	C	0.300984	0.136617	-0.012692
C17	C	0.345838	0.132369	-0.094480
C18	C	0.307825	0.126690	-0.170455
C19	C	0.224962	0.125257	-0.164636
C20	C	0.594027	0.136129	-0.120340
C21	C	0.676895	0.137559	-0.126153
C22	C	0.670049	0.147488	0.031610
C23	C	0.587185	0.146048	0.037421
C24	C	0.549179	0.140375	-0.038553
N25	N	0.430538	0.133838	-0.100429
N26	N	0.464480	0.138914	-0.032604
C27	C	1.052066	-0.409798	-0.073863
C28	C	1.042429	-0.517868	-0.073188
C29	C	0.899805	-0.492336	-0.063169
C30	C	0.909442	-0.384266	-0.063844
C31	C	0.985575	-0.343001	-0.069190
C32	C	0.995211	-0.234929	-0.069859
C33	C	0.852588	-0.209399	-0.059846
C34	C	0.842951	-0.317469	-0.059171
C35	C	1.091923	0.127962	-0.076648
C36	C	1.180113	0.129495	-0.082844
C37	C	0.956040	0.325841	-0.067116
C38	C	0.966301	0.440859	-0.067840
N39	N	0.938580	0.149318	0.139415
N40	N	0.956441	0.123410	-0.272435
C41	C	0.985215	0.081458	0.181538
C42	C	0.981279	0.087192	0.272622
C43	C	0.930711	0.160790	0.321581
C44	C	0.884070	0.228652	0.279452
C45	C	0.888003	0.222913	0.188370
C46	C	0.913733	0.185534	0.594353
C47	C	0.909806	0.191270	0.685441
C48	C	1.007014	0.049807	0.678605
C49	C	1.010946	0.044079	0.587522
C50	C	0.964302	0.111937	0.545401
N51	N	0.926688	0.166654	0.414683
N52	N	0.968321	0.106067	0.452300
H53	H	0.181606	0.138640	0.059726
H54	H	1.026397	0.021531	0.141681
O55	O	0.557204	0.130740	-0.194203
C56	C	0.577327	0.217811	-0.243459
H57	H	0.635782	0.250185	-0.225199
H58	H	0.528678	0.280528	-0.229160
C59	C	0.514268	0.144708	-0.363675
C60	C	0.586067	0.184465	-0.341253
H61	H	0.519656	0.124141	-0.423999
H62	H	0.500708	0.086048	-0.330490
H63	H	0.473734	0.196979	-0.351753
H64	H	0.626597	0.132191	-0.353165
H65	H	0.599634	0.243115	-0.374443
H66	H	0.344351	0.123238	-0.237048
H67	H	0.850026	0.278170	0.154074
O68	O	0.543735	0.150235	0.116940
C69	C	0.595052	0.155533	0.182747
H70	H	0.654320	0.187900	0.155529
H71	H	0.604846	0.074090	0.206247
C72	C	0.485023	0.187861	0.293079
C73	C	0.557815	0.227623	0.259652
H74	H	0.462053	0.232326	0.340521
H75	H	0.450449	0.184288	0.248745
H76	H	0.493195	0.119993	0.312657
H77	H	0.549641	0.295485	0.240066
H78	H	0.592387	0.231210	0.303986
H79	H	1.114056	-0.376200	-0.078208
H80	H	0.798445	-0.154999	-0.056033
O81	O	1.026551	0.021132	0.313442
C82	C	1.006870	-0.082782	0.292665
H83	H	0.979160	-0.086669	0.228690
H84	H	0.962771	-0.111410	0.346885
C85	C	1.116409	-0.147592	0.361722
C86	C	1.082381	-0.152368	0.283143
H87	H	1.162986	-0.190519	0.355853
H88	H	1.129667	-0.077584	0.375724
H89	H	1.079652	-0.171448	0.406898
H90	H	1.119134	-0.128501	0.237972
H91	H	1.069131	-0.222374	0.269134
O92	O	0.337780	0.142091	0.061190
C93	C	0.280422	0.145553	0.134625
H94	H	0.223163	0.110269	0.115592
H95	H	0.268519	0.230049	0.159635
C96	C	0.381521	0.126194	0.230143
C97	C	0.311196	0.082850	0.206768
H98	H	0.400504	0.087520	0.274647
H99	H	0.420165	0.123865	0.180670
H100	H	0.371593	0.196606	0.250980
H101	H	0.321128	0.012444	0.185922
H102	H	0.272554	0.085165	0.256240
H103	H	0.875755	0.240789	0.560065
O104	O	0.720503	0.133257	-0.205589
C105	C	0.770846	0.044066	-0.213821
H106	H	0.745467	-0.016271	-0.167413
H107	H	0.832231	0.066768	-0.197004
C108	C	0.808370	0.071585	-0.365218
C109	C	0.777195	-0.002526	-0.308224
H110	H	0.812290	0.042846	-0.423451
H111	H	0.774455	0.131677	-0.359672
H112	H	0.859521	0.090497	-0.351193
H113	H	0.726041	-0.021427	-0.322242
H114	H	0.811101	-0.062623	-0.313775
H115	H	0.701003	0.152108	0.093464
O116	O	1.107001	-0.582807	-0.077878
C117	C	1.108930	-0.650808	-0.152718
H118	H	1.073636	-0.614286	-0.202459
H119	H	1.081735	-0.728219	-0.133917
C120	C	1.238800	-0.714708	-0.131583
C121	C	1.195457	-0.669848	-0.192679
H122	H	1.292173	-0.726458	-0.156231
H123	H	1.237499	-0.668898	-0.081160
H124	H	1.216128	-0.779212	-0.115921
H125	H	1.218122	-0.605339	-0.208332
H126	H	1.196763	-0.715648	-0.243106
H127	H	1.052122	-0.015851	0.547661
H128	H	0.194017	0.120634	-0.226498
O129	O	1.069185	-0.194899	-0.075211
C130	C	1.113460	-0.233802	-0.153029
H131	H	1.071352	-0.259330	-0.202288
H132	H	1.151598	-0.303428	-0.138821
C133	C	1.218907	-0.116404	-0.130184
C134	C	1.167188	-0.147750	-0.190688
H135	H	1.252052	-0.063325	-0.153412
H136	H	1.189079	-0.090197	-0.077754
H137	H	1.250680	-0.174434	-0.118349
H138	H	1.135409	-0.089724	-0.202513
H139	H	1.197012	-0.173945	-0.243120
O140	O	0.860604	0.262787	0.732873
C141	C	0.820288	0.321464	0.676165
H142	H	0.818990	0.274900	0.611530
H143	H	0.852259	0.397708	0.664250
C144	C	0.736407	0.402656	0.797013
C145	C	0.734808	0.345461	0.717630
H146	H	0.683681	0.417463	0.822591
H147	H	0.763571	0.363127	0.835219
H148	H	0.763054	0.466186	0.787073
H149	H	0.708171	0.281927	0.727572
H150	H	0.707638	0.384980	0.679426
H151	H	0.837821	-0.525953	-0.058826
H152	H	0.780965	-0.351082	-0.054821
O153	O	0.835015	0.300115	0.327137
C154	C	0.841530	0.290616	0.416563
H155	H	0.901116	0.252355	0.424772
H156	H	0.791601	0.240503	0.445857
C157	C	0.762417	0.446614	0.453503
C158	C	0.835605	0.399629	0.463586
H159	H	0.758759	0.513856	0.482511
H160	H	0.758025	0.453012	0.393256
H161	H	0.720817	0.404842	0.477914
H162	H	0.877203	0.441394	0.439165
H163	H	0.840004	0.393240	0.523831
H164	H	1.044988	-0.005441	0.712909
