data_functionalizedCrystal
_audit_creation_method	'MofGen! by Chris Wilmer'
_symmetry_space_group_name_H-M	'P1'
_symmetry_Int_Tables_number	1
_symmetry_cell_setting	triclinic
loop_
_symmetry_equiv_pos_as_xyz
  x,y,z
_cell_length_a	25.639242
_cell_length_b	25.639240
_cell_length_c	18.050582
_cell_angle_alpha	89.968180
_cell_angle_beta	89.976905
_cell_angle_gamma	90.027658
loop_
_atom_site_label
_atom_site_type_symbol
_atom_site_fract_x
_atom_site_fract_y
_atom_site_fract_z
Zn1	Zn	0.799254	-0.208255	-0.420027
Zn2	Zn	1.299254	0.291745	0.079973
Zn3	Zn	0.799185	-0.295683	-0.295817
Zn4	Zn	1.299185	0.204317	0.204183
Zn5	Zn	0.711828	-0.208255	-0.295833
Zn6	Zn	1.211828	0.291745	0.204167
Zn7	Zn	0.711785	-0.295654	-0.419947
Zn8	Zn	1.211785	0.204346	0.080053
O9	O	0.755513	-0.251962	-0.357906
O10	O	1.255513	0.248038	0.142094
O11	O	0.872410	-0.219865	-0.403576
O12	O	1.372410	0.280135	0.096424
O13	O	0.787586	-0.284098	-0.191894
O14	O	1.287586	0.215902	0.308106
O15	O	0.723473	-0.135090	-0.312348
O16	O	1.223473	0.364910	0.187652
O17	O	0.872359	-0.284097	-0.312320
O18	O	1.372359	0.215903	0.187680
O19	O	0.787705	-0.135090	-0.403592
O20	O	1.287705	0.364910	0.096408
O21	O	0.723405	-0.219865	-0.191906
O22	O	1.223405	0.280135	0.308094
O23	O	0.638657	-0.219837	-0.312271
O24	O	1.138657	0.280163	0.187729
O25	O	0.723399	-0.284048	-0.523883
O26	O	1.223399	0.215952	-0.023883
O27	O	0.638625	-0.284048	-0.403457
O28	O	1.138625	0.215952	0.096543
O29	O	0.787662	-0.219836	-0.523941
O30	O	1.287662	0.280164	-0.023941
O31	O	0.787543	-0.368844	-0.312243
O32	O	1.287543	0.131156	0.187757
O33	O	0.723331	-0.368823	-0.403441
O34	O	1.223331	0.131177	0.096559
C35	C	0.619671	-0.251940	-0.357858
C36	C	1.119671	0.248060	0.142142
C37	C	0.561556	-0.251943	-0.357855
C38	C	1.061556	0.248057	0.142145
C39	C	0.310371	-0.218471	-0.310507
C40	C	0.810371	0.281529	0.189493
C41	C	0.364975	-0.218466	-0.310498
C42	C	0.864975	0.281534	0.189502
O43	O	0.393219	-0.189977	-0.270200
O44	O	0.893219	0.310023	0.229800
N45	N	0.392283	-0.251949	-0.357892
N46	N	0.892283	0.248051	0.142108
C47	C	0.364983	-0.285435	-0.405304
C48	C	0.864983	0.214565	0.094696
O49	O	0.393224	-0.313914	-0.445616
O50	O	0.893224	0.186086	0.054384
C51	C	0.310380	-0.285437	-0.405316
C52	C	0.810380	0.214563	0.094684
C53	C	0.283075	-0.251956	-0.357914
C54	C	0.783075	0.248044	0.142086
C55	C	0.283066	-0.184992	-0.263109
C56	C	0.783066	0.315008	0.236891
C57	C	0.228466	-0.184998	-0.263118
C58	C	0.728466	0.315002	0.236882
C59	C	0.201170	-0.218483	-0.310525
C60	C	0.701170	0.281517	0.189475
C61	C	0.228474	-0.251962	-0.357923
C62	C	0.728474	0.248038	0.142077
C63	C	0.283081	-0.318920	-0.452731
C64	C	0.783081	0.181080	0.047269
C65	C	0.228474	-0.318919	-0.452740
C66	C	0.728474	0.181081	0.047260
C67	C	0.201169	-0.285438	-0.405338
C68	C	0.701169	0.214562	0.094662
C69	C	0.146578	-0.285452	-0.405338
C70	C	0.646578	0.214548	0.094662
N71	N	0.119271	-0.251969	-0.357944
N72	N	0.619271	0.248031	0.142056
C73	C	0.146567	-0.218484	-0.310537
C74	C	0.646567	0.281516	0.189463
C75	C	0.479653	-0.285428	-0.405274
C76	C	0.979653	0.214572	0.094726
C77	C	0.534256	-0.285430	-0.405259
C78	C	1.034256	0.214570	0.094741
C79	C	0.534244	-0.218460	-0.310454
C80	C	1.034244	0.281540	0.189546
C81	C	0.479641	-0.218462	-0.310466
C82	C	0.979641	0.281538	0.189534
C83	C	0.452346	-0.251946	-0.357881
C84	C	0.952346	0.248054	0.142119
C85	C	0.031901	-0.218499	-0.310559
C86	C	0.531901	0.281501	0.189441
C87	C	-0.022704	-0.218509	-0.310569
C88	C	0.477296	0.281491	0.189431
C89	C	-0.022688	-0.285477	-0.405377
C90	C	0.477312	0.214523	0.094623
C91	C	0.031913	-0.285469	-0.405364
C92	C	0.531913	0.214531	0.094636
C93	C	0.059206	-0.251976	-0.357952
C94	C	0.559206	0.248024	0.142048
O95	O	0.118300	-0.313925	-0.445617
O96	O	0.618300	0.186075	0.054383
O97	O	0.118319	-0.190005	-0.270239
O98	O	0.618319	0.309995	0.229761
C99	C	0.755439	-0.387804	-0.357848
C100	C	1.255439	0.112196	0.142152
C101	C	0.755455	-0.445918	-0.357848
C102	C	1.255455	0.054082	0.142152
C103	C	0.788975	-0.806243	-0.405503
C104	C	1.288975	-0.306243	0.094497
C105	C	0.788990	-0.860847	-0.405518
C106	C	1.288990	-0.360847	0.094482
O107	O	0.817402	-0.889051	-0.445976
O108	O	1.317402	-0.389051	0.054024
N109	N	0.755586	-0.888201	-0.357978
N110	N	1.255586	-0.388201	0.142022
C111	C	0.722159	-0.860947	-0.310425
C112	C	1.222159	-0.360947	0.189575
O113	O	0.693747	-0.889228	-0.269990
O114	O	1.193747	-0.389228	0.230010
C115	C	0.722142	-0.806344	-0.310414
C116	C	1.222142	-0.306344	0.189586
C117	C	0.755553	-0.778993	-0.357952
C118	C	1.255553	-0.278993	0.142048
C119	C	0.822383	-0.778892	-0.453037
C120	C	1.322383	-0.278892	0.046963
C121	C	0.822368	-0.724291	-0.453021
C122	C	1.322368	-0.224291	0.046979
C123	C	0.788945	-0.697042	-0.405470
C124	C	1.288945	-0.197042	0.094530
C125	C	0.755538	-0.724393	-0.357936
C126	C	1.255538	-0.224393	0.142064
C127	C	0.688713	-0.779092	-0.262865
C128	C	1.188713	-0.279092	0.237135
C129	C	0.688698	-0.724485	-0.262859
C130	C	1.188698	-0.224485	0.237141
C131	C	0.722109	-0.697134	-0.310397
C132	C	1.222109	-0.197134	0.189603
C133	C	0.722100	-0.642543	-0.310369
C134	C	1.222100	-0.142543	0.189631
N135	N	0.755505	-0.615189	-0.357909
N136	N	1.255505	-0.115189	0.142091
C137	C	0.788928	-0.642438	-0.405459
C138	C	1.288928	-0.142438	0.094541
C139	C	0.722198	-0.975618	-0.310452
C140	C	1.222198	-0.475618	0.189548
C141	C	0.722218	-1.030220	-0.310459
C142	C	1.222218	-0.530220	0.189541
C143	C	0.789049	-1.030116	-0.405553
C144	C	1.289049	-0.530116	0.094447
C145	C	0.789031	-0.975513	-0.405542
C146	C	1.289031	-0.475513	0.094458
C147	C	0.755603	-0.948264	-0.357992
C148	C	1.255603	-0.448264	0.142008
C149	C	0.788894	-0.527773	-0.405421
C150	C	1.288894	-0.027773	0.094579
C151	C	0.788878	-0.473168	-0.405399
C152	C	1.288878	0.026832	0.094601
C153	C	0.722046	-0.473277	-0.310308
C154	C	1.222046	0.026723	0.189692
C155	C	0.722064	-0.527877	-0.310327
C156	C	1.222064	-0.027877	0.189673
C157	C	0.755490	-0.555124	-0.357890
C158	C	1.255490	-0.055124	0.142110
O159	O	0.693702	-0.614304	-0.269933
O160	O	1.193702	-0.114304	0.230067
O161	O	0.817330	-0.614151	-0.445894
O162	O	1.317330	-0.114151	0.054106
C163	C	0.891886	-0.251984	-0.357955
C164	C	1.391886	0.248016	0.142045
C165	C	0.950000	-0.251994	-0.357976
C166	C	1.450000	0.248006	0.142024
C167	C	0.755534	-0.251939	-0.551612
C168	C	1.255534	0.248061	-0.051612
C169	C	0.755542	-0.251929	-0.634157
C170	C	1.255542	0.248071	-0.134157
C171	C	0.755601	-0.115589	-0.357981
C172	C	1.255601	0.384411	0.142019
C173	C	0.755639	-0.057475	-0.358012
C174	C	1.255639	0.442525	0.141988
C175	C	0.720623	-0.286799	-0.833577
C176	C	1.220623	0.213201	-0.333577
C177	C	0.768323	-0.299584	-0.882975
C178	C	1.268323	0.200416	-0.382975
C179	C	0.755568	-0.251889	-0.785288
C180	C	1.255568	0.248111	-0.285288
C181	C	0.707894	-0.239090	-0.882972
C182	C	1.207894	0.260910	-0.382972
C183	C	0.755589	-0.251851	-0.931273
C184	C	1.255589	0.248149	-0.431273
C185	C	0.803293	-0.264698	-0.833599
C186	C	1.303293	0.235302	-0.333599
C187	C	0.742833	-0.204182	-0.833591
C188	C	1.242833	0.295818	-0.333591
C189	C	0.790566	-0.216949	-0.882967
C190	C	1.290566	0.283051	-0.382967
C191	C	0.755555	-0.251912	-0.701190
C192	C	1.255555	0.248088	-0.201190
C193	C	0.755607	-0.251828	-1.015370
C194	C	1.255607	0.248172	-0.515370
C195	C	0.755523	-0.251947	-0.164954
C196	C	1.255523	0.248053	0.335046
C197	C	0.755615	-0.251810	-0.082409
C198	C	1.255615	0.248190	0.417591
H199	H	0.305285	-0.157722	-0.224505
H200	H	0.805285	0.342278	0.275495
H201	H	-0.044922	-0.312741	-0.443971
H202	H	0.455078	0.187259	0.056029
C203	C	0.651928	-0.694514	-0.210551
C204	C	1.151928	-0.194514	0.289449
H205	H	0.632037	-0.718627	-0.182241
H206	H	1.132037	-0.218627	0.317759
H207	H	0.629128	-0.673215	-0.238919
H208	H	1.129128	-0.173215	0.261081
H209	H	0.671938	-0.673217	-0.178211
H210	H	1.171938	-0.173217	0.321789
C211	C	0.685471	-1.060303	-0.258164
C212	C	1.185471	-0.560303	0.241836
H213	H	0.690265	-1.096726	-0.264975
H214	H	1.190265	-0.596726	0.235025
H215	H	0.650335	-1.051372	-0.268978
H216	H	1.150335	-0.551372	0.231022
H217	H	0.693147	-1.051373	-0.208273
H218	H	1.193147	-0.551373	0.291727
C219	C	0.825627	-0.443085	-0.457699
C220	C	1.325627	0.056915	0.042301
H221	H	0.845528	-0.467137	-0.486026
H222	H	1.345528	0.032863	0.013974
H223	H	0.848417	-0.421780	-0.429325
H224	H	1.348417	0.078220	0.070675
H225	H	0.805600	-0.421785	-0.490023
H226	H	1.305600	0.078215	0.009977
H227	H	0.054145	-0.312736	-0.443957
H228	H	0.554145	0.187264	0.056043
H229	H	0.816237	-0.953247	-0.444252
H230	H	1.316237	-0.453247	0.055748
H231	H	0.054117	-0.191223	-0.271955
H232	H	0.554117	0.308777	0.228045
H233	H	-0.044933	-0.191244	-0.271966
H234	H	0.455067	0.308756	0.228034
H235	H	0.457413	-0.191196	-0.271870
H236	H	0.957413	0.308804	0.228130
H237	H	0.779107	-0.339912	-0.904667
H238	H	1.279107	0.160088	-0.404667
C239	C	0.198438	-0.148162	-0.210984
C240	C	0.698438	0.351838	0.289016
H241	H	0.222521	-0.128218	-0.182759
H242	H	0.722521	0.371782	0.317241
H243	H	0.177114	-0.168125	-0.178569
H244	H	0.677114	0.331875	0.321431
H245	H	0.177161	-0.125407	-0.239466
H246	H	0.677161	0.374593	0.260534
C247	C	0.825666	-0.557737	-0.457732
C248	C	1.325666	-0.057737	0.042268
H249	H	0.845562	-0.533622	-0.486031
H250	H	1.345562	-0.033622	0.013969
H251	H	0.805664	-0.579038	-0.490072
H252	H	1.305664	-0.079038	0.009928
H253	H	0.848470	-0.579032	-0.429357
H254	H	1.348470	-0.079032	0.070643
H255	H	0.843631	-0.275554	-0.812002
H256	H	1.343631	0.224446	-0.312002
C257	C	0.685314	-0.557965	-0.258036
C258	C	1.185314	-0.057965	0.241964
H259	H	0.665405	-0.533913	-0.229717
H260	H	1.165405	-0.033913	0.270283
H261	H	0.705331	-0.579272	-0.225714
H262	H	1.205331	-0.079272	0.274286
H263	H	0.662523	-0.579262	-0.286426
H264	H	1.162523	-0.079262	0.213574
H265	H	0.820161	-0.187410	-0.904516
H266	H	1.320161	0.312590	-0.404516
H267	H	0.694979	-0.953435	-0.271725
H268	H	1.194979	-0.453435	0.228275
H269	H	0.849572	-0.702025	-0.491732
H270	H	1.349572	-0.202025	0.008268
H271	H	0.556479	-0.191194	-0.271854
H272	H	1.056479	0.308806	0.228146
H273	H	0.849599	-0.801073	-0.491763
H274	H	1.349599	-0.301073	0.008237
C275	C	0.825810	-1.060098	-0.457862
C276	C	1.325810	-0.560098	0.042138
H277	H	0.821029	-1.096534	-0.451062
H278	H	1.321029	-0.596534	0.048938
H279	H	0.860944	-1.051131	-0.447050
H280	H	1.360944	-0.551131	0.052950
H281	H	0.818128	-1.051132	-0.507750
H282	H	1.318128	-0.551132	-0.007750
H283	H	0.732034	-0.163865	-0.811883
H284	H	1.232034	0.336135	-0.311883
C285	C	0.651957	-0.809166	-0.210578
C286	C	1.151957	-0.309166	0.289422
H287	H	0.632047	-0.785109	-0.182269
H288	H	1.132047	-0.285109	0.317731
H289	H	0.671970	-0.830470	-0.178248
H290	H	1.171970	-0.330470	0.321752
H291	H	0.629166	-0.830466	-0.238965
H292	H	1.129166	-0.330466	0.261035
C293	C	0.653419	-0.224483	-0.912269
C294	C	1.153419	0.275517	-0.412269
H295	H	0.628628	-0.249335	-0.895348
H296	H	1.128628	0.250665	-0.395348
H297	H	0.653894	-0.224261	-0.964890
H298	H	1.153894	0.275739	-0.464890
H299	H	0.644125	-0.190844	-0.894627
H300	H	1.144125	0.309156	-0.394627
C301	C	0.313104	-0.355746	-0.504881
C302	C	0.813104	0.144254	-0.004881
H303	H	0.289020	-0.375680	-0.533119
H304	H	0.789020	0.124320	-0.033119
H305	H	0.334387	-0.378503	-0.476419
H306	H	0.834387	0.121497	0.023581
H307	H	0.334422	-0.335770	-0.537294
H308	H	0.834422	0.164230	-0.037294
H309	H	0.206253	-0.346184	-0.491354
H310	H	0.706253	0.153816	0.008646
C311	C	0.685282	-0.443295	-0.258009
C312	C	1.185282	0.056705	0.241991
H313	H	0.690056	-0.406859	-0.264819
H314	H	1.190056	0.093141	0.235181
H315	H	0.692953	-0.452260	-0.208121
H316	H	1.192953	0.047740	0.291879
H317	H	0.650148	-0.452264	-0.268837
H318	H	1.150148	0.047736	0.231163
C319	C	0.564285	-0.322262	-0.457396
C320	C	1.064285	0.177738	0.042604
H321	H	0.540203	-0.342201	-0.485632
H322	H	1.040203	0.157799	0.014368
H323	H	0.585567	-0.345015	-0.428926
H324	H	1.085567	0.154985	0.071074
H325	H	0.585603	-0.302289	-0.489812
H326	H	1.085603	0.197711	0.010188
C327	C	0.680739	-0.326730	-0.804274
C328	C	1.180739	0.173270	-0.304274
H329	H	0.689882	-0.360598	-0.821185
H330	H	1.189882	0.139402	-0.321185
H331	H	0.646951	-0.317983	-0.821905
H332	H	1.146951	0.182017	-0.321905
H333	H	0.680788	-0.326251	-0.751649
H334	H	1.180788	0.173749	-0.251649
C335	C	0.449633	-0.322261	-0.457436
C336	C	0.949633	0.177739	0.042564
H337	H	0.473721	-0.342201	-0.485656
H338	H	0.973721	0.157799	0.014344
H339	H	0.428357	-0.302291	-0.489854
H340	H	0.928357	0.197709	0.010146
H341	H	0.428309	-0.345022	-0.428975
H342	H	0.928309	0.154978	0.071025
