data_functionalizedCrystal
_audit_creation_method	'MofGen! by Chris Wilmer'
_symmetry_space_group_name_H-M	'P1'
_symmetry_Int_Tables_number	1
_symmetry_cell_setting	triclinic
loop_
_symmetry_equiv_pos_as_xyz
  x,y,z
_cell_length_a	16.625548
_cell_length_b	12.645330
_cell_length_c	16.625539
_cell_angle_alpha	89.973614
_cell_angle_beta	89.979432
_cell_angle_gamma	90.013714
loop_
_atom_site_label
_atom_site_type_symbol
_atom_site_fract_x
_atom_site_fract_y
_atom_site_fract_z
Zn1	Zn	1.232735	-0.422007	-0.455920
Zn2	Zn	1.232662	-0.599293	-0.321092
Zn3	Zn	1.097897	-0.422048	-0.321101
Zn4	Zn	1.097891	-0.599232	-0.455882
O5	O	1.165296	-0.510645	-0.388499
O6	O	1.345558	-0.445533	-0.438047
O7	O	1.214757	-0.575824	-0.208261
O8	O	1.115817	-0.273695	-0.339004
O9	O	1.345504	-0.575784	-0.338990
O10	O	1.214882	-0.273665	-0.438056
O11	O	1.115746	-0.445602	-0.208267
O12	O	0.985064	-0.445543	-0.338967
O13	O	1.115806	-0.575681	-0.568719
O14	O	0.985059	-0.575720	-0.437990
O15	O	1.214876	-0.445474	-0.568747
O16	O	1.214751	-0.747632	-0.338952
O17	O	1.115735	-0.747588	-0.437982
C18	C	0.955806	-0.510630	-0.388476
C19	C	0.866184	-0.510649	-0.388486
C20	C	0.538009	-0.510656	-0.388520
C21	C	0.629317	-0.510651	-0.388508
C22	C	0.702094	-0.510653	-0.388502
C23	C	0.793408	-0.510647	-0.388491
C24	C	1.165256	-0.786075	-0.388480
C25	C	1.165312	-0.903905	-0.388498
C26	C	1.227503	-1.071453	-0.326072
C27	C	1.227706	-0.948893	-0.326225
C28	C	1.188356	-0.948288	-0.473491
C29	C	1.188849	-1.070886	-0.473160
C30	C	1.080054	-1.071234	-0.366769
C31	C	1.080463	-0.948630	-0.364863
C32	C	1.375605	-0.510661	-0.388522
C33	C	1.465226	-0.510668	-0.388532
C34	C	1.165349	-0.510566	-0.598808
C35	C	1.165371	-0.510532	-0.688429
C36	C	1.165359	-0.234140	-0.388535
C37	C	1.165386	-0.116310	-0.388551
C38	C	1.165408	-0.510414	-1.016605
C39	C	1.165396	-0.510450	-0.925296
C40	C	1.165390	-0.510474	-0.852520
C41	C	1.165377	-0.510509	-0.761205
C42	C	1.165291	-0.510647	-0.179008
C43	C	1.165424	-0.510382	-0.089387
H44	H	1.213289	-0.918889	-0.263205
H45	H	1.063088	-0.919632	-0.302316
C46	C	1.273112	-1.109411	-0.498075
C47	C	1.322909	-1.178276	-0.440148
C48	C	1.407174	-1.216794	-0.465062
C49	C	1.441643	-1.186448	-0.547903
C50	C	1.391846	-1.117580	-0.605836
C51	C	1.307580	-1.079062	-0.580922
H52	H	1.297393	-1.200743	-0.378819
H53	H	1.444037	-1.267775	-0.422176
H54	H	1.504021	-1.214962	-0.566346
H55	H	1.417361	-1.095113	-0.667164
H56	H	1.270717	-1.028081	-0.623808
H57	H	1.250024	-0.917498	-0.492249
C58	C	1.129103	-0.908917	-0.538071
C59	C	1.159976	-0.842914	-0.609567
C60	C	1.100723	-0.803541	-0.674146
C61	C	1.010597	-0.830172	-0.667230
C62	C	0.979720	-0.896179	-0.595732
C63	C	1.038973	-0.935551	-0.531153
H64	H	1.226696	-0.823197	-0.614689
H65	H	1.123580	-0.754679	-0.727074
H66	H	0.966734	-0.801026	-0.715036
H67	H	0.913000	-0.915896	-0.590610
H68	H	1.016115	-0.984414	-0.478225
C69	C	1.313086	-0.909155	-0.345694
C70	C	1.358419	-0.839380	-0.284834
C71	C	1.443803	-0.799645	-0.304307
C72	C	1.483854	-0.829686	-0.384639
C73	C	1.438522	-0.899465	-0.445504
C74	C	1.353137	-0.939199	-0.426032
H75	H	1.328770	-0.817139	-0.225363
H76	H	1.477361	-0.747990	-0.259250
H77	H	1.547061	-0.800272	-0.399054
H78	H	1.468170	-0.921706	-0.504976
H79	H	1.319579	-0.990854	-0.471089
C80	C	1.208280	-1.111378	-0.240683
C81	C	1.261388	-1.077481	-0.169336
C82	C	1.242160	-1.117409	-0.083943
C83	C	1.169825	-1.191235	-0.069898
C84	C	1.116713	-1.225137	-0.141247
C85	C	1.135941	-1.185209	-0.226639
H86	H	1.314939	-1.022826	-0.179732
H87	H	1.281478	-1.092312	-0.031126
H88	H	1.155592	-1.220793	-0.006685
H89	H	1.063162	-1.279792	-0.130851
H90	H	1.096623	-1.210306	-0.279456
H91	H	1.031683	-0.918017	-0.407033
H92	H	1.290366	-1.102182	-0.340318
C93	C	1.130389	-1.110977	-0.538194
C94	C	1.083407	-1.031434	-0.590267
C95	C	1.024953	-1.071520	-0.655305
C96	C	1.013480	-1.191147	-0.668269
C97	C	1.060463	-1.270697	-0.616195
C98	C	1.118918	-1.230612	-0.551158
H99	H	1.091898	-0.942872	-0.580671
H100	H	0.990173	-1.012631	-0.693853
H101	H	0.970209	-1.220821	-0.716414
H102	H	1.051972	-1.359259	-0.625791
H103	H	1.153698	-1.289500	-0.512609
C104	C	1.051743	-1.113109	-0.284497
C105	C	1.101521	-1.089944	-0.208421
C106	C	1.073220	-1.131819	-0.126146
C107	C	0.995143	-1.196858	-0.119946
C108	C	0.945360	-1.220027	-0.196025
C109	C	0.973661	-1.178152	-0.278300
H110	H	1.159323	-1.041795	-0.213008
H111	H	1.110073	-1.114668	-0.069828
H112	H	0.974193	-1.227857	-0.059041
H113	H	0.887558	-1.268176	-0.191438
H114	H	0.936808	-1.195303	-0.334618
H115	H	1.033771	-1.100244	-0.412275
