data_functionalizedCrystal
_audit_creation_method	'MofGen! by Chris Wilmer'
_symmetry_space_group_name_H-M	'P1'
_symmetry_Int_Tables_number	1
_symmetry_cell_setting	triclinic
loop_
_symmetry_equiv_pos_as_xyz
  x,y,z
_cell_length_a	14.519731
_cell_length_b	14.519709
_cell_length_c	9.798715
_cell_angle_alpha	89.995905
_cell_angle_beta	89.996220
_cell_angle_gamma	83.684499
loop_
_atom_site_label
_atom_site_type_symbol
_atom_site_fract_x
_atom_site_fract_y
_atom_site_fract_z
O1	O	1.223855	0.120983	-0.113497
O2	O	1.557188	0.454316	0.219836
O3	O	1.890521	0.787649	0.553170
O4	O	0.955380	0.135199	-0.113499
O5	O	1.288714	0.468532	0.219834
O6	O	1.622047	0.801865	0.553167
O7	O	1.096736	-0.006147	-0.113486
O8	O	1.430069	0.327186	0.219848
O9	O	1.763402	0.660520	0.553181
O10	O	1.082499	0.262329	-0.113511
O11	O	1.415833	0.595662	0.219823
O12	O	1.749166	0.928995	0.553156
O13	O	1.096725	-0.006147	0.113496
O14	O	1.430058	0.327186	0.446830
O15	O	1.763392	0.660519	0.780163
O16	O	0.955370	0.135198	0.113483
O17	O	1.288703	0.468532	0.446816
O18	O	1.622036	0.801865	0.780149
O19	O	1.223844	0.120982	0.113485
O20	O	1.557177	0.454316	0.446819
O21	O	1.890511	0.787649	0.780152
Zn22	Zn	1.089605	0.128090	0.149522
Zn23	Zn	1.422939	0.461424	0.482856
Zn24	Zn	1.756272	0.794757	0.816189
Zn25	Zn	1.089619	0.128091	-0.149536
Zn26	Zn	1.422952	0.461424	0.183797
Zn27	Zn	1.756286	0.794757	0.517130
O28	O	1.082489	0.262328	0.113472
O29	O	1.415822	0.595662	0.446805
O30	O	1.749155	0.928995	0.780138
C31	C	0.921016	0.134532	-0.000008
C32	C	1.254349	0.467866	0.333325
C33	C	1.587682	0.801199	0.666658
C34	C	0.818635	0.132536	-0.000009
C35	C	1.151969	0.465870	0.333324
C36	C	1.485302	0.799203	0.666658
C37	C	0.735491	0.130915	-0.000014
C38	C	1.068825	0.464248	0.333319
C39	C	1.402158	0.797581	0.666652
C40	C	0.631182	0.128888	-0.000015
C41	C	0.964516	0.462221	0.333319
C42	C	1.297849	0.795555	0.666652
C43	C	0.548043	0.127280	-0.000014
C44	C	0.881377	0.460613	0.333319
C45	C	1.214710	0.793946	0.666652
C46	C	0.443728	0.125253	-0.000017
C47	C	0.777061	0.458586	0.333316
C48	C	1.110395	0.791920	0.666649
C49	C	1.096067	-0.040507	0.000006
C50	C	1.429400	0.292826	0.333339
C51	C	1.762734	0.626160	0.666672
C52	C	1.094079	-0.142889	0.000006
C53	C	1.427412	0.190445	0.333340
C54	C	1.760745	0.523778	0.666673
C55	C	1.086759	-0.517785	-0.000029
C56	C	1.420093	-0.184452	0.333304
C57	C	1.753426	0.148882	0.666637
C58	C	1.088792	-0.413477	-0.000019
C59	C	1.422125	-0.080143	0.333314
C60	C	1.755459	0.253190	0.666648
C61	C	1.090419	-0.330340	-0.000010
C62	C	1.423752	0.002993	0.333323
C63	C	1.757085	0.336327	0.666656
C64	C	1.092452	-0.226025	-0.000002
C65	C	1.425785	0.107308	0.333331
C66	C	1.759118	0.440641	0.666664
C67	C	1.258209	0.121649	-0.000009
C68	C	1.591542	0.454982	0.333325
C69	C	1.924875	0.788315	0.666658
C70	C	1.360589	0.123645	-0.000017
C71	C	1.693922	0.456978	0.333316
C72	C	2.027256	0.790311	0.666650
C73	C	1.083157	0.296688	-0.000023
C74	C	1.416491	0.630022	0.333311
C75	C	1.749824	0.963355	0.666644
C76	C	1.085146	0.399070	-0.000032
C77	C	1.418479	0.732403	0.333301
C78	C	1.751812	1.065736	0.666634
N79	N	1.089603	0.128090	0.353622
N80	N	1.422936	0.461423	0.686955
N81	N	1.756269	0.794756	1.020289
N82	N	1.089629	0.128084	-0.353636
N83	N	1.422962	0.461418	-0.020303
N84	N	1.756296	0.794751	0.313030
C85	C	1.148956	0.068483	0.421405
C86	C	1.482289	0.401816	0.754738
C87	C	1.815622	0.735149	1.088071
C88	C	1.148970	0.068479	0.578567
C89	C	1.482304	0.401813	0.911901
C90	C	1.815637	0.735146	1.245234
H91	H	1.199756	0.017449	0.363087
H92	H	1.533090	0.350782	0.696420
H93	H	1.866423	0.684116	1.029754
H94	H	1.199788	0.017450	0.636857
H95	H	1.533122	0.350784	0.970191
H96	H	1.866455	0.684117	1.303524
C97	C	1.020978	0.197033	0.567643
C98	C	1.354311	0.530366	0.900976
C99	C	1.687644	0.863699	1.234310
H100	H	0.983755	0.234432	0.630566
H101	H	1.317088	0.567765	0.963899
H102	H	1.650421	0.901099	1.297233
H103	H	0.982464	0.163855	0.511911
H104	H	1.315797	0.497188	0.845244
H105	H	1.649131	0.830521	1.178577
H106	H	1.054369	0.235364	0.511894
H107	H	1.387702	0.568697	0.845227
H108	H	1.721035	0.902030	1.178561
H109	H	1.038795	0.179116	0.411942
H110	H	1.372129	0.512449	0.745275
H111	H	1.705462	0.845782	1.078608
