data_functionalizedCrystal
_audit_creation_method	'MofGen! by Chris Wilmer'
_symmetry_space_group_name_H-M	'P1'
_symmetry_Int_Tables_number	1
_symmetry_cell_setting	triclinic
loop_
_symmetry_equiv_pos_as_xyz
  x,y,z
_cell_length_a	29.839131
_cell_length_b	12.594517
_cell_length_c	12.594509
_cell_angle_alpha	90.007751
_cell_angle_beta	89.965034
_cell_angle_gamma	89.964937
loop_
_atom_site_label
_atom_site_type_symbol
_atom_site_fract_x
_atom_site_fract_y
_atom_site_fract_z
Zn1	Zn	-0.178916	-1.627079	-0.601425
Zn2	Zn	0.321084	-1.127079	-0.101425
Zn3	Zn	-0.254051	-1.626891	-0.423425
Zn4	Zn	0.245949	-1.126891	0.076575
Zn5	Zn	-0.178927	-1.449083	-0.423496
Zn6	Zn	0.321073	-0.949083	0.076504
Zn7	Zn	-0.254011	-1.448986	-0.601397
Zn8	Zn	0.245989	-0.948986	-0.101397
O9	O	-0.216476	-1.538010	-0.512436
O10	O	0.283524	-1.038010	-0.012436
O11	O	-0.188895	-1.776000	-0.577794
O12	O	0.311105	-1.276000	-0.077794
O13	O	-0.244107	-1.603266	-0.274489
O14	O	0.255893	-1.103266	0.225511
O15	O	-0.116059	-1.472814	-0.447139
O16	O	0.383941	-0.972814	0.052861
O17	O	-0.244096	-1.775862	-0.447019
O18	O	0.255904	-1.275862	0.052981
O19	O	-0.116050	-1.603587	-0.577863
O20	O	0.383950	-1.103587	-0.077863
O21	O	-0.188914	-1.472631	-0.274540
O22	O	0.311086	-0.972631	0.225460
O23	O	-0.188876	-1.300124	-0.447113
O24	O	0.311124	-0.800124	0.052887
O25	O	-0.244029	-1.472649	-0.750347
O26	O	0.255971	-0.972649	-0.250347
O27	O	-0.244040	-1.300054	-0.577816
O28	O	0.255960	-0.800054	-0.077816
O29	O	-0.188857	-1.603493	-0.750367
O30	O	0.311143	-1.103493	-0.250367
O31	O	-0.316913	-1.603173	-0.446993
O32	O	0.183087	-1.103173	0.053007
O33	O	-0.316884	-1.472467	-0.577748
O34	O	0.183116	-0.972467	-0.077748
C35	C	-0.216455	-1.261469	-0.512470
C36	C	0.283545	-0.761469	-0.012470
C37	C	-0.216456	-1.143164	-0.512510
C38	C	0.283544	-0.643164	-0.012510
C39	C	-0.246518	-1.073903	-0.583467
C40	C	0.253482	-0.573903	-0.083467
C41	C	-0.205555	-1.003137	-0.609661
C42	C	0.294445	-0.503137	-0.109661
C43	C	-0.257449	-1.003130	-0.486306
C44	C	0.242551	-0.503130	0.013694
C45	C	-0.175472	-1.073956	-0.538755
C46	C	0.324528	-0.573956	-0.038755
C47	C	-0.227394	-1.073955	-0.415354
C48	C	0.272606	-0.573955	0.084646
C49	C	-0.186403	-1.003222	-0.441512
C50	C	0.313597	-0.503222	0.058488
C51	C	-0.333199	-1.537818	-0.512383
C52	C	0.166801	-1.037818	-0.012383
C53	C	-0.383133	-1.537833	-0.512396
C54	C	0.116867	-1.037833	-0.012396
C55	C	-0.692779	-1.606192	-0.444451
C56	C	-0.192779	-1.106192	0.055549
C57	C	-0.880452	-1.606324	-0.444492
C58	C	-0.380452	-1.106324	0.055508
O59	O	-0.904719	-1.664293	-0.386682
O60	O	-0.404719	-1.164293	0.113318
N61	N	-0.903918	-1.538231	-0.512516
N62	N	-0.403918	-1.038231	-0.012516
C63	C	-0.880464	-1.470105	-0.580539
C64	C	-0.380464	-0.970105	-0.080539
O65	O	-0.904729	-1.412198	-0.638406
O66	O	-0.404729	-0.912198	-0.138406
C67	C	-0.692791	-1.469980	-0.580502
C68	C	-0.192791	-0.969980	-0.080502
C69	C	-0.669328	-1.538070	-0.512467
C70	C	-0.169328	-1.038070	-0.012467
C71	C	-0.669315	-1.674277	-0.376421
C72	C	-0.169315	-1.174277	0.123579
C73	C	-0.622400	-1.674240	-0.376407
C74	C	-0.122400	-1.174240	0.123593
C75	C	-0.598948	-1.606117	-0.444423
C76	C	-0.098948	-1.106117	0.055577
C77	C	-0.622412	-1.538032	-0.512453
C78	C	-0.122412	-1.038032	-0.012453
C79	C	-0.669337	-1.401860	-0.648530
C80	C	-0.169337	-0.901860	-0.148530
C81	C	-0.622416	-1.401837	-0.648517
C82	C	-0.122416	-0.901837	-0.148517
C83	C	-0.598952	-1.469927	-0.580481
C84	C	-0.098952	-0.969927	-0.080481
C85	C	-0.552045	-1.469872	-0.580455
C86	C	-0.052045	-0.969872	-0.080455
N87	N	-0.528579	-1.537965	-0.512431
N88	N	-0.028579	-1.037965	-0.012431
C89	C	-0.552030	-1.606087	-0.444415
C90	C	-0.052030	-1.106087	0.055585
C91	C	-0.978994	-1.470174	-0.580552
C92	C	-0.478994	-0.970174	-0.080552
C93	C	-1.025912	-1.470204	-0.580560
C94	C	-0.525912	-0.970204	-0.080560
C95	C	-1.025897	-1.606424	-0.444514
C96	C	-0.525897	-1.106424	0.055486
C97	C	-0.978979	-1.606388	-0.444502
C98	C	-0.478979	-1.106388	0.055498
C99	C	-0.955528	-1.538267	-0.512528
C100	C	-0.455528	-1.038267	-0.012528
C101	C	-0.453505	-1.606002	-0.444391
C102	C	0.046495	-1.106002	0.055609
C103	C	-0.406585	-1.605956	-0.444380
C104	C	0.093415	-1.105956	0.055620
C105	C	-0.406604	-1.469740	-0.580430
C106	C	0.093396	-0.969740	-0.080430
C107	C	-0.453519	-1.469782	-0.580437
C108	C	0.046481	-0.969782	-0.080437
C109	C	-0.476968	-1.537922	-0.512414
C110	C	0.023032	-1.037922	-0.012414
O111	O	-0.527749	-1.411941	-0.638243
O112	O	-0.027749	-0.911941	-0.138243
O113	O	-0.527757	-1.664002	-0.386573
O114	O	-0.027757	-1.164002	0.113427
C115	C	-0.739695	-1.606230	-0.444464
C116	C	-0.239695	-1.106230	0.055536
C117	C	-0.763158	-1.538145	-0.512494
C118	C	-0.263158	-1.038145	-0.012494
C119	C	-0.739707	-1.470022	-0.580510
C120	C	-0.239707	-0.970022	-0.080510
C121	C	-0.810076	-1.538175	-0.512502
C122	C	-0.310076	-1.038175	-0.012502
C123	C	-0.833528	-1.606297	-0.444486
C124	C	-0.333528	-1.106297	0.055514
C125	C	-0.810062	-1.674390	-0.376462
C126	C	-0.310062	-1.174390	0.123538
C127	C	-0.763146	-1.674353	-0.376449
C128	C	-0.263146	-1.174353	0.123551
C129	C	-0.763173	-1.401929	-0.648534
C130	C	-0.263173	-0.901929	-0.148534
C131	C	-0.810089	-1.401971	-0.648541
C132	C	-0.310089	-0.901971	-0.148541
C133	C	-0.833540	-1.470094	-0.580525
C134	C	-0.333540	-0.970094	-0.080525
C135	C	-0.099298	-1.538232	-0.512512
C136	C	0.400702	-1.038232	-0.012512
C137	C	-0.049364	-1.538327	-0.512544
C138	C	0.450636	-1.038327	-0.012544
C139	C	-0.216437	-1.538081	-0.790057
C140	C	0.283563	-1.038081	-0.290057
C141	C	-0.216420	-1.538112	-0.908362
C142	C	0.283580	-1.038112	-0.408362
C143	C	-0.216494	-0.815631	-0.512418
C144	C	0.283506	-0.315631	-0.012418
C145	C	-0.216491	-0.933936	-0.512453
C146	C	0.283509	-0.433936	-0.012453
C147	C	-0.246411	-1.466968	-0.977605
C148	C	0.253589	-0.966968	-0.477605
C149	C	-0.257393	-1.564077	-1.048369
C150	C	0.242607	-1.064077	-0.548369
C151	C	-0.205412	-1.441078	-1.048397
C152	C	0.294588	-0.941078	-0.548397
C153	C	-0.227423	-1.635271	-0.977568
C154	C	0.272577	-1.135271	-0.477568
C155	C	-0.175423	-1.512207	-0.977590
C156	C	0.324577	-1.012207	-0.477590
C157	C	-0.186389	-1.609383	-1.048323
C158	C	0.313611	-1.109383	-0.548323
C159	C	-0.216483	-1.538000	-0.235895
C160	C	0.283517	-1.038000	0.264105
C161	C	-0.216373	-1.538176	-0.117590
C162	C	0.283627	-1.038176	0.382410
H163	H	-0.271892	-1.104941	-0.643543
H164	H	0.228108	-0.604941	-0.143543
H165	H	-0.744045	-1.729798	-0.321048
H166	H	-0.244045	-1.229798	0.178952
H167	H	-0.140810	-1.104936	-0.560987
H168	H	0.359190	-0.604936	-0.060987
H169	H	-0.387502	-1.414272	-0.635804
H170	H	0.112498	-0.914272	-0.135804
Cl171	Cl	-0.241834	-1.762042	-0.929743
Cl172	Cl	0.258166	-1.262042	-0.429743
H173	H	-1.045000	-1.661893	-0.389133
H174	H	-0.545000	-1.161893	0.110867
H175	H	-0.744082	-1.346457	-0.703922
H176	H	-0.244082	-0.846457	-0.203922
Cl177	Cl	-0.698823	-1.316268	-0.734080
Cl178	Cl	-0.198823	-0.816268	-0.234080
Cl179	Cl	-0.285628	-1.374152	-0.929658
Cl180	Cl	0.214372	-0.874152	-0.429658
H181	H	-0.140783	-1.490234	-0.946477
H182	H	0.359217	-0.990234	-0.446477
H183	H	-0.292043	-1.586022	-1.079459
H184	H	0.207957	-1.086022	-0.579459
Cl185	Cl	-0.483017	-1.384161	-0.665947
Cl186	Cl	0.016983	-0.884161	-0.165947
H187	H	-0.196317	-0.972030	-0.691799
H188	H	0.303683	-0.472030	-0.191799
Cl189	Cl	-0.191066	-1.314345	-1.096432
Cl190	Cl	0.308934	-0.814345	-0.596432
Cl191	Cl	-0.839553	-1.760027	-0.290956
Cl192	Cl	-0.339553	-1.260027	0.209044
Cl193	Cl	-0.949520	-1.384524	-0.666078
Cl194	Cl	-0.449520	-0.884524	-0.166078
H195	H	-0.161006	-1.669644	-1.079178
H196	H	0.338994	-1.169644	-0.579178
H197	H	-0.160967	-0.972382	-0.381482
H198	H	0.339033	-0.472382	0.118518
H199	H	-0.292101	-0.972015	-0.464169
H200	H	0.207899	-0.472015	0.035831
H201	H	-0.387482	-1.661402	-0.388973
H202	H	0.112518	-1.161402	0.111027
Cl203	Cl	-0.241668	-1.121985	-0.288555
Cl204	Cl	0.258332	-0.621985	0.211445
H205	H	-0.472591	-1.661491	-0.389003
H206	H	0.027409	-1.161491	0.110997
H207	H	-0.603298	-1.729687	-0.321010
H208	H	-0.103298	-1.229687	0.178990
H209	H	-1.045012	-1.414748	-0.635952
H210	H	-0.545012	-0.914748	-0.135952
H211	H	-0.603325	-1.346365	-0.703916
H212	H	-0.103325	-0.846365	-0.203916
H213	H	-0.829189	-1.346515	-0.703943
H214	H	-0.329189	-0.846515	-0.203943
H215	H	-0.959877	-1.661833	-0.389102
H216	H	-0.459877	-1.161833	0.110898
Cl217	Cl	-0.698789	-1.759930	-0.290904
Cl218	Cl	-0.198789	-1.259930	0.209096
