data_functionalizedCrystal
_audit_creation_method	'MofGen! by Chris Wilmer'
_symmetry_space_group_name_H-M	'P1'
_symmetry_Int_Tables_number	1
_symmetry_cell_setting	triclinic
loop_
_symmetry_equiv_pos_as_xyz
  x,y,z
_cell_length_a	19.188930
_cell_length_b	10.723023
_cell_length_c	9.798715
_cell_angle_alpha	90.001817
_cell_angle_beta	90.017560
_cell_angle_gamma	83.806164
loop_
_atom_site_label
_atom_site_type_symbol
_atom_site_fract_x
_atom_site_fract_y
_atom_site_fract_z
O1	O	-0.927156	-0.155779	-0.113926
O2	O	-0.427156	0.344221	0.386074
O3	O	-0.723981	-0.176749	-0.113832
O4	O	-0.223981	0.323251	0.386168
O5	O	-0.830256	0.015410	-0.113877
O6	O	-0.330256	0.515410	0.386123
O7	O	-0.820882	-0.347937	-0.113882
O8	O	-0.320882	0.152063	0.386118
O9	O	-0.830248	0.015410	0.113105
O10	O	-0.330248	0.515410	0.613105
O11	O	-0.723973	-0.176749	0.113150
O12	O	-0.223973	0.323251	0.613150
O13	O	-0.927148	-0.155778	0.113056
O14	O	-0.427148	0.344222	0.613056
Zn15	Zn	-0.825559	-0.166264	0.149141
Zn16	Zn	-0.325559	0.333736	0.649141
Zn17	Zn	-0.825570	-0.166264	-0.149918
Zn18	Zn	-0.325570	0.333736	0.350082
O19	O	-0.820874	-0.347937	0.113101
O20	O	-0.320874	0.152063	0.613101
C21	C	-0.697962	-0.176070	-0.000329
C22	C	-0.197962	0.323930	0.499671
C23	C	-0.620444	-0.174031	-0.000293
C24	C	-0.120444	0.325969	0.499707
C25	C	-0.829570	0.061895	-0.000387
C26	C	-0.329570	0.561895	0.499613
C27	C	-0.827529	0.200407	-0.000392
C28	C	-0.327529	0.700407	0.499608
C29	C	-0.953168	-0.156457	-0.000450
C30	C	-0.453168	0.343543	0.499550
C31	C	-1.030685	-0.158496	-0.000495
C32	C	-0.530685	0.341504	0.499505
C33	C	-0.576253	-0.286784	-0.000316
C34	C	-0.076253	0.213216	0.499684
C35	C	-0.503416	-0.284869	-0.000331
C36	C	-0.003416	0.215131	0.499669
C37	C	-0.474775	-0.170195	-0.000351
C38	C	0.025225	0.329805	0.499649
C39	C	-0.518976	-0.057427	-0.000320
C40	C	-0.018976	0.442573	0.499680
C41	C	-0.591811	-0.059346	-0.000292
C42	C	-0.091811	0.440654	0.499708
N43	N	-0.366228	-0.082541	-0.077656
N44	N	0.133772	0.417459	0.422344
N45	N	-0.297037	-0.080726	-0.077687
N46	N	0.202963	0.419274	0.422313
C47	C	-0.255329	-0.164408	-0.000434
C48	C	0.244671	0.335592	0.499566
N49	N	-0.285423	-0.249992	0.076833
N50	N	0.214577	0.250008	0.576833
N51	N	-0.354619	-0.251810	0.076857
N52	N	0.145381	0.248190	0.576857
C53	C	-0.395799	-0.168102	-0.000381
C54	C	0.104201	0.331898	0.499619
C55	C	-0.132159	-0.275091	-0.000471
C56	C	0.367841	0.224909	0.499529
C57	C	-0.059322	-0.273171	-0.000478
C58	C	0.440678	0.226829	0.499522
C59	C	-0.074883	-0.045726	-0.000481
C60	C	0.425117	0.454274	0.499519
C61	C	-0.147719	-0.047650	-0.000460
C62	C	0.352281	0.452350	0.499540
C63	C	-0.176352	-0.162335	-0.000462
C64	C	0.323648	0.337665	0.499538
C65	C	-0.821560	-0.394423	-0.000392
C66	C	-0.321560	0.105577	0.499608
C67	C	-0.823601	-0.532935	-0.000397
C68	C	-0.323601	-0.032935	0.499603
N69	N	-0.825557	-0.166262	0.353241
N70	N	-0.325557	0.333738	0.853241
C71	C	-0.826615	0.262166	0.117190
C72	C	-0.326615	0.762166	0.617190
C73	C	-0.824506	0.405326	0.117188
C74	C	-0.324506	0.905326	0.617188
N75	N	-0.825578	-0.166255	-0.354017
N76	N	-0.325578	0.333745	0.145983
C77	C	-0.870179	-0.085229	0.420999
C78	C	-0.370179	0.414771	0.920999
C79	C	-0.870190	-0.085224	0.578162
C80	C	-0.370190	0.414776	1.078162
H81	H	-0.599561	-0.380170	-0.000320
H82	H	-0.099561	0.119830	0.499680
H83	H	-0.787376	-0.235640	0.587722
H84	H	-0.287376	0.264360	1.087722
H85	H	-0.827398	0.209057	0.217857
H86	H	-0.327398	0.709057	0.717857
H87	H	-0.823716	0.458436	0.217854
H88	H	-0.323716	0.958436	0.717854
Cl89	Cl	-0.929179	0.021886	0.668119
Cl90	Cl	-0.429179	0.521886	1.168119
Cl91	Cl	-0.826332	0.282397	-0.155822
Cl92	Cl	-0.326332	0.782397	0.344178
H93	H	-0.183701	0.044166	-0.000449
H94	H	0.316299	0.544166	0.499551
Cl95	Cl	-0.824808	0.385079	-0.155831
Cl96	Cl	-0.324808	0.885079	0.344169
H97	H	-0.908371	-0.015851	0.362660
H98	H	-0.408371	0.484149	0.862660
Cl99	Cl	-0.447851	-0.426626	-0.000357
Cl100	Cl	0.052149	0.073374	0.499643
Cl101	Cl	-0.482970	0.086735	-0.000337
Cl102	Cl	0.017030	0.586735	0.499663
Cl103	Cl	-0.647369	0.082413	-0.000264
Cl104	Cl	-0.147369	0.582413	0.499736
H105	H	-0.787361	-0.235631	0.411581
H106	H	-0.287361	0.264369	0.911581
H107	H	-0.155474	-0.368475	-0.000453
H108	H	0.344526	0.131525	0.499547
H109	H	-0.051564	0.047644	-0.000581
H110	H	0.448436	0.547644	0.499419
Cl111	Cl	-0.003765	-0.414931	-0.000500
Cl112	Cl	0.496235	0.085069	0.499500
