data_functionalizedCrystal
_audit_creation_method	'MofGen! by Chris Wilmer'
_symmetry_space_group_name_H-M	'P1'
_symmetry_Int_Tables_number	1
_symmetry_cell_setting	triclinic
loop_
_symmetry_equiv_pos_as_xyz
  x,y,z
_cell_length_a	9.065218
_cell_length_b	15.944551
_cell_length_c	8.140239
_cell_angle_alpha	89.995530
_cell_angle_beta	89.997198
_cell_angle_gamma	84.257312
loop_
_atom_site_label
_atom_site_type_symbol
_atom_site_fract_x
_atom_site_fract_y
_atom_site_fract_z
O1	O	1.957519	0.123161	-0.136622
O2	O	2.457519	0.623161	0.363378
O3	O	1.527998	0.133263	-0.136625
O4	O	2.027998	0.633263	0.363375
O5	O	1.754488	0.006026	-0.136608
O6	O	2.254488	0.506026	0.363392
O7	O	1.731029	0.250398	-0.136638
O8	O	2.231029	0.750398	0.363362
O9	O	1.754475	0.006024	0.136619
O10	O	2.254475	0.506024	0.636619
O11	O	1.527986	0.133261	0.136603
O12	O	2.027986	0.633261	0.636603
O13	O	1.957507	0.123159	0.136605
O14	O	2.457507	0.623159	0.636605
Zn15	Zn	1.742744	0.128210	0.179985
Zn16	Zn	2.242744	0.628210	0.679985
Zn17	Zn	1.742761	0.128212	-0.180004
Zn18	Zn	2.242761	0.628212	0.319996
O19	O	1.731017	0.250396	0.136589
O20	O	2.231017	0.750396	0.636589
C21	C	1.473028	0.132291	-0.000011
C22	C	1.973028	0.632291	0.499989
C23	C	1.309253	0.129388	-0.000012
C24	C	1.809253	0.629388	0.499988
C25	C	1.753508	-0.025276	0.000005
C26	C	2.253508	0.474724	0.500005
C27	C	1.750588	-0.118544	0.000006
C28	C	2.250588	0.381456	0.500006
C29	C	1.603221	-0.334518	-0.000017
C30	C	2.103221	0.165482	0.499983
C31	C	1.671647	-0.395017	0.134701
C32	C	2.171647	0.104983	0.634701
C33	C	1.745306	-0.289310	-0.000006
C34	C	2.245306	0.210690	0.499994
C35	C	1.671693	-0.394999	-0.134680
C36	C	2.171693	0.105001	0.365320
C37	C	1.740194	-0.454262	-0.000026
C38	C	2.240194	0.045738	0.499974
C39	C	1.813772	-0.348581	0.134823
C40	C	2.313772	0.151419	0.634823
C41	C	1.813798	-0.348557	-0.134679
C42	C	2.313798	0.151443	0.365321
C43	C	1.882327	-0.409038	0.000072
C44	C	2.382327	0.090962	0.500072
C45	C	1.748247	-0.194286	0.000006
C46	C	2.248247	0.305714	0.500006
C47	C	1.737264	-0.549285	-0.000026
C48	C	2.237264	-0.049285	0.499974
C49	C	2.012477	0.124131	-0.000012
C50	C	2.512477	0.624131	0.499988
C51	C	2.176252	0.127034	-0.000022
C52	C	2.676252	0.627034	0.499978
C53	C	1.731997	0.281698	-0.000028
C54	C	2.231997	0.781698	0.499972
C55	C	1.734917	0.374966	-0.000040
C56	C	2.234917	0.874966	0.499960
N57	N	1.742744	0.128208	0.425667
N58	N	2.242744	0.628208	0.925667
N59	N	1.742773	0.128207	-0.425687
N60	N	2.242773	0.628207	0.074313
H61	H	1.611545	-0.415581	0.248593
H62	H	2.111545	0.084419	0.748593
H63	H	1.611583	-0.415531	-0.248581
H64	H	2.111583	0.084469	0.251419
N65	N	1.893300	-0.321522	0.285869
N66	N	2.393300	0.178478	0.785869
H67	H	1.982089	-0.292136	0.251720
H68	H	2.482089	0.207864	0.751720
H69	H	1.823608	-0.281640	0.352806
H70	H	2.323608	0.218360	0.852806
N71	N	1.447004	-0.291579	0.000155
N72	N	1.947004	0.208421	0.500155
H73	H	1.450068	-0.228435	-0.000888
H74	H	1.950068	0.271565	0.499112
H75	H	1.392850	-0.309235	-0.100552
H76	H	1.892850	0.190765	0.399448
H77	H	1.873848	-0.327971	-0.248577
H78	H	2.373848	0.172029	0.251423
H79	H	2.000369	-0.441303	0.000149
H80	H	2.500369	0.058697	0.500149
