data_functionalizedCrystal
_audit_creation_method	'MofGen! by Chris Wilmer'
_symmetry_space_group_name_H-M	'P1'
_symmetry_Int_Tables_number	1
_symmetry_cell_setting	triclinic
loop_
_symmetry_equiv_pos_as_xyz
  x,y,z
_cell_length_a	15.995350
_cell_length_b	16.992695
_cell_length_c	16.053802
_cell_angle_alpha	87.258926
_cell_angle_beta	92.577622
_cell_angle_gamma	87.080299
loop_
_atom_site_label
_atom_site_type_symbol
_atom_site_fract_x
_atom_site_fract_y
_atom_site_fract_z
O1	O	-1.121056	-0.097771	-0.069359
O2	O	-0.787723	0.235563	0.263975
O3	O	-0.454390	0.568896	0.597308
O4	O	-0.878117	-0.110251	-0.069376
O5	O	-0.544784	0.223083	0.263957
O6	O	-0.211450	0.556416	0.597291
O7	O	-0.998613	0.010132	-0.069361
O8	O	-0.665279	0.343465	0.263972
O9	O	-0.331946	0.676798	0.597306
O10	O	-1.000561	-0.218153	-0.069374
O11	O	-0.667228	0.115180	0.263959
O12	O	-0.333894	0.448514	0.597293
O13	O	-0.991978	0.003533	0.069497
O14	O	-0.658645	0.336866	0.402831
O15	O	-0.325312	0.670199	0.736164
O16	O	-0.871483	-0.116849	0.069482
O17	O	-0.538150	0.216484	0.402815
O18	O	-0.204816	0.549817	0.736149
O19	O	-1.114422	-0.104370	0.069499
O20	O	-0.781089	0.228964	0.402833
O21	O	-0.447756	0.562297	0.736166
Zn22	Zn	-0.991899	-0.111657	0.091537
Zn23	Zn	-0.658566	0.221676	0.424871
Zn24	Zn	-0.325233	0.555009	0.758204
Zn25	Zn	-1.000640	-0.102963	-0.091414
Zn26	Zn	-0.667307	0.230370	0.241919
Zn27	Zn	-0.333973	0.563704	0.575253
O28	O	-0.993927	-0.224752	0.069484
O29	O	-0.660593	0.108581	0.402817
O30	O	-0.327260	0.441915	0.736151
C31	C	-0.992790	0.036045	0.000068
C32	C	-0.659456	0.369378	0.333401
C33	C	-0.326123	0.702711	0.666735
C34	C	-0.985314	0.123089	0.000067
C35	C	-0.651980	0.456422	0.333400
C36	C	-0.318647	0.789756	0.666734
C37	C	-0.843571	-0.113034	0.000051
C38	C	-0.510238	0.220299	0.333384
C39	C	-0.176904	0.553633	0.666718
C40	C	-0.750517	-0.111487	0.000044
C41	C	-0.417184	0.221847	0.333378
C42	C	-0.083851	0.555180	0.666711
C43	C	-1.148969	-0.101586	0.000071
C44	C	-0.815635	0.231747	0.333404
C45	C	-0.482302	0.565080	0.666737
C46	C	-1.242022	-0.103133	0.000072
C47	C	-0.908689	0.230200	0.333405
C48	C	-0.575356	0.563534	0.666738
C49	C	-0.412397	-0.105932	0.000062
C50	C	-0.079064	0.227401	0.333395
C51	C	0.254269	0.560734	0.666729
C52	C	-0.454079	-0.020213	0.000377
C53	C	-0.120746	0.313121	0.333710
C54	C	0.212587	0.646454	0.667043
C55	C	-0.550888	-0.021745	0.000058
C56	C	-0.217555	0.311589	0.333391
C57	C	0.115778	0.644922	0.666725
C58	C	-0.580143	-0.108688	0.000054
C59	C	-0.246809	0.224646	0.333387
C60	C	0.086524	0.557979	0.666720
C61	C	-0.545673	-0.147206	-0.079240
C62	C	-0.212340	0.186127	0.254093
C63	C	0.120993	0.519460	0.587427
C64	C	-0.448896	-0.145050	-0.079301
C65	C	-0.115563	0.188284	0.254033
C66	C	0.217770	0.521617	0.587366
C67	C	-0.441132	-0.154325	0.078607
C68	C	-0.107798	0.179008	0.411940
C69	C	0.225535	0.512341	0.745274
C70	C	-0.538026	-0.154355	0.079649
C71	C	-0.204693	0.178979	0.412983
C72	C	0.128641	0.512312	0.746316
C73	C	-0.674945	-0.110249	0.000046
C74	C	-0.341612	0.223084	0.333380
C75	C	-0.008278	0.556418	0.666713
C76	C	-0.317595	-0.104373	0.000064
C77	C	0.015738	0.228960	0.333397
C78	C	0.349072	0.562294	0.666731
C79	C	-0.999750	-0.250665	0.000054
C80	C	-0.666416	0.082668	0.333387
C81	C	-0.333083	0.416002	0.666720
C82	C	-1.007226	-0.337709	0.000049
C83	C	-0.673893	-0.004376	0.333382
C84	C	-0.340559	0.328958	0.666715
N85	N	-0.985940	-0.117590	0.216397
N86	N	-0.652607	0.215743	0.549730
N87	N	-0.319273	0.549076	0.883064
C88	C	-1.057449	0.173329	0.000073
C89	C	-0.724115	0.506662	0.333406
C90	C	-0.390782	0.839996	0.666740
C91	C	-1.050419	0.255116	0.000065
C92	C	-0.717086	0.588449	0.333398
C93	C	-0.383753	0.921783	0.666731
C94	C	-0.971254	0.286661	0.000056
C95	C	-0.637921	0.619994	0.333390
C96	C	-0.304587	0.953328	0.666723
C97	C	-0.899114	0.236415	0.000048
C98	C	-0.565780	0.569748	0.333381
C99	C	-0.232447	0.903081	0.666714
C100	C	-0.906144	0.154630	0.000050
C101	C	-0.572811	0.487963	0.333384
C102	C	-0.239477	0.821296	0.666717
C103	C	-0.942116	0.530260	0.000043
C104	C	-0.608783	0.863593	0.333376
C105	C	-0.275450	1.196926	0.666709
C106	C	-0.935091	0.612051	0.000043
C107	C	-0.601758	0.945384	0.333376
C108	C	-0.268424	1.278718	0.666709
C109	C	-1.086398	0.630747	0.000058
C110	C	-0.753064	0.964080	0.333392
C111	C	-0.419731	1.297414	0.666725
C112	C	-1.093421	0.548959	0.000066
C113	C	-0.760087	0.882292	0.333399
C114	C	-0.426754	1.215626	0.666732
C115	C	-1.021281	0.498720	0.000053
C116	C	-0.687947	0.832053	0.333386
C117	C	-0.354614	1.165387	0.666719
N118	N	-0.964067	0.370260	0.000050
N119	N	-0.630734	0.703594	0.333384
N120	N	-0.297400	1.036927	0.666717
N121	N	-1.028469	0.415123	0.000053
N122	N	-0.695135	0.748456	0.333386
N123	N	-0.361802	1.081790	0.666719
N124	N	-1.006606	-0.097024	-0.216274
N125	N	-0.673272	0.236310	0.117060
N126	N	-0.339939	0.569643	0.450393
C127	C	-1.037232	-0.066386	0.260097
C128	C	-0.703899	0.266948	0.593431
C129	C	-0.370565	0.600281	0.926764
C130	C	-1.033072	-0.070544	0.347504
C131	C	-0.699738	0.262790	0.680837
C132	C	-0.366405	0.596123	1.014170
C133	C	-0.977623	-0.125910	0.391208
C134	C	-0.644290	0.207423	0.724541
C135	C	-0.310956	0.540756	1.057874
C136	C	-0.926325	-0.177117	0.347501
C137	C	-0.592992	0.156216	0.680835
C138	C	-0.259658	0.489550	1.014168
C139	C	-0.930482	-0.172955	0.260097
C140	C	-0.597148	0.160378	0.593430
C141	C	-0.263815	0.493712	0.926763
C142	C	-0.959465	-0.144068	0.652615
C143	C	-0.626131	0.189265	0.985949
C144	C	-0.292798	0.522598	1.319282
C145	C	-0.955314	-0.148228	0.740026
C146	C	-0.621980	0.185105	1.073359
C147	C	-0.288647	0.518438	1.406693
C148	C	-1.062060	-0.041653	0.740022
C149	C	-0.728726	0.291680	1.073355
C150	C	-0.395393	0.625013	1.406689
C151	C	-1.066215	-0.037499	0.652616
C152	C	-0.732882	0.295834	0.985949
C153	C	-0.399548	0.629167	1.319282
C154	C	-1.014914	-0.088703	0.608917
C155	C	-0.681581	0.244630	0.942250
C156	C	-0.348247	0.577963	1.275584
N157	N	-0.973371	-0.130163	0.480551
N158	N	-0.640038	0.203170	0.813884
N159	N	-0.306704	0.536504	1.147218
N160	N	-1.019162	-0.084446	0.519575
N161	N	-0.685829	0.248887	0.852909
N162	N	-0.352496	0.582221	1.186242
H163	H	-0.430547	0.011355	0.057242
H164	H	-0.097214	0.344688	0.390575
H165	H	0.236119	0.678022	0.723908
O166	O	-0.864311	0.476076	0.000050
O167	O	-0.530978	0.809410	0.333383
O168	O	-0.197644	1.142743	0.666717
H169	H	-0.808083	0.511754	0.000059
H170	H	-0.474750	0.845087	0.333392
H171	H	-0.141417	1.178420	0.666726
O172	O	-0.875147	-0.228183	0.212970
O173	O	-0.541814	0.105151	0.546304
O174	O	-0.208481	0.438484	0.879637
H175	H	-0.834134	-0.193249	0.173176
H176	H	-0.500801	0.140084	0.506509
H177	H	-0.167468	0.473418	0.839842
O178	O	-0.570224	-0.231632	-0.083150
O179	O	-0.236891	0.101701	0.250183
O180	O	0.096443	0.435034	0.583516
H181	H	-0.545104	-0.257477	-0.139717
H182	H	-0.211770	0.075857	0.193616
H183	H	0.121563	0.409190	0.526949
O184	O	-0.582006	0.018712	0.075347
O185	O	-0.248673	0.352046	0.408680
O186	O	0.084660	0.685379	0.742014
H187	H	-0.651338	0.017655	0.075196
H188	H	-0.318005	0.350988	0.408530
H189	H	0.015328	0.684322	0.741863
O190	O	-0.404622	-0.238087	0.079330
O191	O	-0.071289	0.095246	0.412663
O192	O	0.262044	0.428579	0.745997
H193	H	-0.366194	-0.245257	0.024051
H194	H	-0.032860	0.088076	0.357385
H195	H	0.300473	0.421410	0.690718
O196	O	-0.428673	0.028543	-0.074516
O197	O	-0.095340	0.361877	0.258817
O198	O	0.237993	0.695210	0.592151
H199	H	-0.449473	0.000678	-0.132507
H200	H	-0.116139	0.334011	0.200826
H201	H	0.217194	0.667344	0.534159
O202	O	-1.117386	0.013570	0.787159
O203	O	-0.784053	0.346903	1.120492
O204	O	-0.450720	0.680237	1.453826
H205	H	-1.156646	0.052764	0.742084
H206	H	-0.823313	0.386097	1.075417
H207	H	-0.489979	0.719430	1.408750
O208	O	-0.407652	-0.120973	0.158219
O209	O	-0.074319	0.212360	0.491552
O210	O	0.259014	0.545694	0.824886
H211	H	-0.367439	-0.166929	0.194352
H212	H	-0.034106	0.166405	0.527685
H213	H	0.299227	0.499738	0.861018
H214	H	-0.557405	-0.217983	0.084436
H215	H	-0.224072	0.115350	0.417769
H216	H	0.109262	0.448683	0.751102
H217	H	-0.834656	0.262105	0.000036
H218	H	-0.501322	0.595438	0.333369
H219	H	-0.167989	0.928772	0.666702
H220	H	-0.870621	0.637730	0.000049
H221	H	-0.537288	0.971064	0.333383
H222	H	-0.203955	1.304397	0.666716
O223	O	-0.828342	0.100435	0.000053
O224	O	-0.495009	0.433769	0.333386
O225	O	-0.161676	0.767102	0.666719
H226	H	-0.772111	0.136108	0.000056
H227	H	-0.438778	0.469441	0.333390
H228	H	-0.105445	0.802775	0.666723
H229	H	-1.157885	0.523282	0.000073
H230	H	-0.824552	0.856615	0.333406
H231	H	-0.491219	1.189948	0.666739
H232	H	-1.082388	-0.021304	0.224519
H233	H	-0.749055	0.312030	0.557852
H234	H	-0.415721	0.645363	0.891186
O235	O	-0.895497	-0.207948	0.787158
O236	O	-0.562164	0.125386	1.120492
O237	O	-0.228830	0.458719	1.453825
H238	H	-0.931397	-0.247981	0.826958
H239	H	-0.598063	0.085352	1.160292
H240	H	-0.264730	0.418686	1.493625
H241	H	-0.917695	-0.185762	0.617042
H242	H	-0.584361	0.147571	0.950376
H243	H	-0.251028	0.480904	1.283709
H244	H	-0.421032	-0.207824	-0.082902
H245	H	-0.087699	0.125510	0.250431
H246	H	0.245635	0.458843	0.583765
O247	O	-1.088409	-0.015331	0.394641
O248	O	-0.755076	0.318003	0.727974
O249	O	-0.421743	0.651336	1.061308
H250	H	-1.127677	0.023857	0.349567
H251	H	-0.794344	0.357190	0.682900
H252	H	-0.461011	0.690523	1.016233
H253	H	-1.111366	0.007585	0.617034
H254	H	-0.778032	0.340918	0.950367
H255	H	-0.444699	0.674251	1.283700
H256	H	-0.881173	-0.222195	0.383090
H257	H	-0.547840	0.111138	0.716424
H258	H	-0.214506	0.444471	1.049757
H259	H	-0.431356	-0.111395	-0.138572
H260	H	-0.098023	0.221938	0.194762
H261	H	0.235310	0.555271	0.528095
O262	O	-0.588439	0.026158	-0.075363
O263	O	-0.255105	0.359491	0.257970
O264	O	0.078228	0.692825	0.591303
H265	H	-0.537442	0.050503	-0.111756
H266	H	-0.204109	0.383836	0.221578
H267	H	0.129225	0.717169	0.554911
O268	O	-0.584372	-0.104583	-0.157409
O269	O	-0.251039	0.228751	0.175924
O270	O	0.082294	0.562084	0.509257
H271	H	-0.653472	-0.108401	-0.158322
H272	H	-0.320138	0.224933	0.175011
H273	H	0.013195	0.558266	0.508345
O274	O	-0.567756	-0.117166	0.157360
O275	O	-0.234423	0.216168	0.490693
O276	O	0.098911	0.549501	0.824027
H277	H	-0.612345	-0.066370	0.139379
H278	H	-0.279012	0.266963	0.472713
H279	H	0.054321	0.600296	0.806046
O280	O	-1.142837	0.139312	0.000073
O281	O	-0.809504	0.472645	0.333406
O282	O	-0.476171	0.805978	0.666740
H283	H	-1.175067	0.156813	0.056665
H284	H	-0.841734	0.490147	0.389998
H285	H	-0.508401	0.823480	0.723332
O286	O	-1.128220	0.309306	0.000085
O287	O	-0.794887	0.642640	0.333418
O288	O	-0.461554	0.975973	0.666752
H289	H	-1.184449	0.273630	0.000107
H290	H	-0.851115	0.606964	0.333440
H291	H	-0.517782	0.940297	0.666773
H292	H	-1.145130	0.671660	0.000067
H293	H	-0.811796	1.004993	0.333400
H294	H	-0.478463	1.338327	0.666734
