data_functionalizedCrystal
_audit_creation_method	'MofGen! by Chris Wilmer'
_symmetry_space_group_name_H-M	'P1'
_symmetry_Int_Tables_number	1
_symmetry_cell_setting	triclinic
loop_
_symmetry_equiv_pos_as_xyz
  x,y,z
_cell_length_a	17.038278
_cell_length_b	17.038272
_cell_length_c	9.730223
_cell_angle_alpha	89.998176
_cell_angle_beta	89.999541
_cell_angle_gamma	91.111028
loop_
_atom_site_label
_atom_site_type_symbol
_atom_site_fract_x
_atom_site_fract_y
_atom_site_fract_z
O1	O	1.048749	0.170523	-0.114303
O2	O	1.548749	0.670523	0.385697
O3	O	0.820938	0.167818	-0.114304
O4	O	1.320938	0.667818	0.385696
O5	O	0.933490	0.055265	-0.114293
O6	O	1.433490	0.555265	0.385707
O7	O	0.936197	0.283076	-0.114314
O8	O	1.436197	0.783076	0.385686
O9	O	0.933488	0.055268	0.114287
O10	O	1.433488	0.555268	0.614287
O11	O	0.820937	0.167821	0.114276
O12	O	1.320937	0.667821	0.614276
O13	O	1.048748	0.170526	0.114277
O14	O	1.548748	0.670526	0.614277
Zn15	Zn	0.934842	0.169174	0.150568
Zn16	Zn	1.434842	0.669174	0.650568
Zn17	Zn	0.934844	0.169170	-0.150595
Zn18	Zn	1.434844	0.669170	0.349405
O19	O	0.936196	0.283079	0.114266
O20	O	1.436196	0.783079	0.614266
C21	C	0.791645	0.165356	-0.000014
C22	C	1.291645	0.665356	0.499986
C23	C	0.704361	0.158009	-0.000014
C24	C	1.204361	0.658009	0.499986
C25	C	0.931026	0.025974	-0.000003
C26	C	1.431026	0.525974	0.499997
C27	C	0.923678	-0.061310	-0.000003
C28	C	1.423678	0.438690	0.499997
C29	C	0.210935	0.112872	-0.000014
C30	C	0.710935	0.612872	0.499986
C31	C	0.292947	0.119781	-0.000007
C32	C	0.792947	0.619781	0.499993
C33	C	0.329347	0.194155	-0.000020
C34	C	0.829347	0.694155	0.499980
C35	C	0.283730	0.261623	-0.000027
C36	C	0.783730	0.761623	0.499973
C37	C	0.201720	0.254713	-0.000025
C38	C	0.701720	0.754713	0.499975
C39	C	0.576734	0.218567	-0.000018
C40	C	1.076734	0.718567	0.499982
C41	C	0.658751	0.225473	-0.000025
C42	C	1.158751	0.725473	0.499975
C43	C	0.667962	0.083630	-0.000002
C44	C	1.167962	0.583630	0.499998
C45	C	0.585949	0.076726	-0.000008
C46	C	1.085949	0.576726	0.499992
C47	C	0.540340	0.144194	-0.000008
C48	C	1.040340	0.644194	0.499992
C49	C	0.413176	0.201219	-0.000017
C50	C	0.913176	0.701219	0.499983
C51	C	0.456513	0.137129	-0.000001
C52	C	0.956513	0.637129	0.499999
C53	C	0.991142	-0.106920	-0.000002
C54	C	1.491142	0.393080	0.499998
C55	C	0.984233	-0.188932	-0.000015
C56	C	1.484233	0.311068	0.499985
C57	C	0.909859	-0.225332	-0.000019
C58	C	1.409859	0.274668	0.499981
C59	C	0.842391	-0.179716	-0.000025
C60	C	1.342391	0.320284	0.499975
C61	C	0.849300	-0.097706	-0.000022
C62	C	1.349300	0.402294	0.499978
C63	C	0.885449	-0.472720	-0.000038
C64	C	1.385449	0.027280	0.499962
C65	C	0.878544	-0.554736	-0.000037
C66	C	1.378544	-0.054736	0.499963
C67	C	1.020387	-0.563946	-0.000030
C68	C	1.520387	-0.063946	0.499970
C69	C	1.027290	-0.481934	-0.000018
C70	C	1.527290	0.018066	0.499982
C71	C	0.959821	-0.436325	-0.000031
C72	C	1.459821	0.063675	0.499969
C73	C	0.902796	-0.309161	-0.000028
C74	C	1.402796	0.190839	0.499972
C75	C	0.966886	-0.352497	-0.000032
C76	C	1.466886	0.147503	0.499968
C77	C	1.078041	0.172988	-0.000016
C78	C	1.578041	0.672988	0.499984
C79	C	1.165325	0.180335	-0.000026
C80	C	1.665325	0.680335	0.499974
C81	C	0.938660	0.312370	-0.000027
C82	C	1.438660	0.812370	0.499973
C83	C	0.946008	0.399654	-0.000036
C84	C	1.446008	0.899654	0.499964
N85	N	0.934847	0.169176	0.356105
N86	N	1.434847	0.669176	0.856105
N87	N	0.934845	0.169162	-0.356132
N88	N	1.434845	0.669162	0.143868
C89	C	0.984699	0.119357	0.428036
C90	C	1.484699	0.619357	0.928036
C91	C	0.984697	0.119347	0.571919
C92	C	1.484697	0.619347	1.071919
C93	C	0.884987	0.218983	0.571927
C94	C	1.384987	0.718983	1.071927
C95	C	0.884986	0.218989	0.428047
C96	C	1.384986	0.718989	0.928047
C97	C	1.042269	0.061835	0.428032
C98	C	1.542269	0.561835	0.928032
C99	C	1.042266	0.061825	0.571915
C100	C	1.542266	0.561825	1.071915
H101	H	0.181305	0.052309	-0.000012
H102	H	0.681305	0.552309	0.499988
H103	H	0.313374	0.322180	-0.000030
H104	H	0.813374	0.822180	0.499970
H105	H	0.781834	-0.209360	-0.000038
H106	H	1.281834	0.290640	0.499962
H107	H	0.426872	0.076575	-0.000006
H108	H	0.926872	0.576575	0.499994
H109	H	0.830511	-0.435595	-0.000048
H110	H	1.330511	0.064405	0.499952
H111	H	0.688384	0.286039	-0.000016
H112	H	1.188384	0.786039	0.499984
H113	H	1.100363	0.084248	0.383404
H114	H	1.600363	0.584248	0.883404
H115	H	0.844385	0.259548	0.369482
H116	H	1.344385	0.759548	0.869482
H117	H	0.330080	0.064845	0.000008
H118	H	0.830080	0.564845	0.500008
H119	H	0.539609	0.273505	-0.000025
H120	H	1.039609	0.773505	0.499975
H121	H	0.844391	0.259539	0.630518
H122	H	1.344391	0.759539	1.130518
H123	H	1.025378	0.000729	0.388984
H124	H	1.525378	0.500729	0.888984
H125	H	0.556319	0.016163	0.000003
H126	H	1.056319	0.516163	0.500003
H127	H	1.019898	0.003710	0.616536
H128	H	1.519898	0.503710	1.116536
H129	H	0.442822	0.261775	-0.000031
H130	H	0.942822	0.761775	0.499969
H131	H	1.087852	-0.452303	-0.000014
H132	H	1.587852	0.047697	0.499986
H133	H	0.164585	0.309649	-0.000029
H134	H	0.664585	0.809649	0.499971
H135	H	0.794364	-0.060571	-0.000023
H136	H	1.294364	0.439429	0.499977
H137	H	0.842240	-0.338808	-0.000029
H138	H	1.342240	0.161192	0.499971
H139	H	0.705105	0.028701	-0.000000
H140	H	1.205105	0.528701	0.500000
H141	H	1.103362	0.078762	0.610964
H142	H	1.603362	0.578762	1.110964
H143	H	1.039169	-0.226064	-0.000010
H144	H	1.539169	0.273936	0.499990
H145	H	1.051704	-0.077289	0.000011
H146	H	1.551704	0.422711	0.500011
H147	H	1.075316	-0.601089	-0.000022
H148	H	1.575316	-0.101089	0.499978
H149	H	0.817978	-0.584370	-0.000019
H150	H	1.317978	-0.084370	0.499981
H151	H	1.027440	-0.322857	-0.000058
H152	H	1.527440	0.177143	0.499942
