data_functionalizedCrystal
_audit_creation_method	'MofGen! by Chris Wilmer'
_symmetry_space_group_name_H-M	'P1'
_symmetry_Int_Tables_number	1
_symmetry_cell_setting	triclinic
loop_
_symmetry_equiv_pos_as_xyz
  x,y,z
_cell_length_a	14.908571
_cell_length_b	18.050589
_cell_length_c	14.908294
_cell_angle_alpha	86.730603
_cell_angle_beta	89.824575
_cell_angle_gamma	86.724558
loop_
_atom_site_label
_atom_site_type_symbol
_atom_site_fract_x
_atom_site_fract_y
_atom_site_fract_z
Zn1	Zn	1.345227	-0.387559	0.587600
Zn2	Zn	1.845227	0.112441	1.087600
Zn3	Zn	1.353788	-0.505025	0.437246
Zn4	Zn	1.853788	-0.005025	0.937246
Zn5	Zn	1.203545	-0.373294	0.428597
Zn6	Zn	1.703545	0.126706	0.928597
Zn7	Zn	1.194815	-0.504142	0.578897
Zn8	Zn	1.694815	-0.004142	1.078897
O9	O	1.274344	-0.442505	0.508085
O10	O	1.774344	0.057495	1.008085
O11	O	1.472187	-0.409480	0.574917
O12	O	1.972187	0.090520	1.074917
O13	O	1.341095	-0.481950	0.310273
O14	O	1.841095	0.018050	0.810273
O15	O	1.222410	-0.271266	0.449712
O16	O	1.722410	0.228734	0.949712
O17	O	1.478477	-0.495781	0.464452
O18	O	1.978477	0.004219	0.964452
O19	O	1.326503	-0.281746	0.566531
O20	O	1.826503	0.218254	1.066531
O21	O	1.230712	-0.385168	0.303919
O22	O	1.730712	0.114832	0.803919
O23	O	1.076562	-0.384313	0.441273
O24	O	1.576562	0.115687	0.941273
O25	O	1.207531	-0.494278	0.705877
O26	O	1.707531	0.005722	1.205877
O27	O	1.070148	-0.480446	0.551698
O28	O	1.570148	0.019554	1.051698
O29	O	1.318038	-0.408624	0.712271
O30	O	1.818038	0.091376	1.212271
O31	O	1.332630	-0.608828	0.456013
O32	O	1.832630	-0.108828	0.956013
O33	O	1.215833	-0.608180	0.560084
O34	O	1.715833	-0.108180	1.060084
C35	C	1.040730	-0.430736	0.494603
C36	C	1.540730	0.069264	0.994603
C37	C	0.940788	-0.425721	0.488857
C38	C	1.440788	0.074279	0.988857
C39	C	0.746365	-0.516540	0.592890
C40	C	1.246365	-0.016540	1.092890
C41	C	0.652460	-0.511829	0.587495
C42	C	1.152460	-0.011829	1.087495
C43	C	0.659072	-0.411586	0.472675
C44	C	1.159072	0.088414	0.972675
C45	C	0.752977	-0.416297	0.478070
C46	C	1.252977	0.083703	0.978070
C47	C	0.796620	-0.468776	0.538179
C48	C	1.296620	0.031224	1.038179
C49	C	0.890527	-0.473489	0.543570
C50	C	1.390527	0.026511	1.043570
C51	C	0.897137	-0.373243	0.428755
C52	C	1.397137	0.126757	0.928755
C53	C	0.803232	-0.368533	0.423360
C54	C	1.303232	0.131467	0.923360
C55	C	1.274236	-0.635451	0.508064
C56	C	1.774236	-0.135451	1.008064
C57	C	1.274271	-0.718000	0.508090
C58	C	1.774271	-0.218000	1.008090
C59	C	1.210817	-0.917127	0.564666
C60	C	1.710817	-0.417127	1.064666
C61	C	1.193636	-0.961796	0.481356
C62	C	1.693636	-0.461796	0.981356
C63	C	1.274358	-0.869135	0.508106
C64	C	1.774358	-0.369135	1.008106
C65	C	1.291583	-0.971551	0.591428
C66	C	1.791583	-0.471551	1.091428
C67	C	1.274441	-1.015125	0.508130
C68	C	1.774441	-0.515125	1.008130
C69	C	1.257137	-0.912712	0.424751
C70	C	1.757137	-0.412712	0.924751
C71	C	1.355118	-0.922467	0.534880
C72	C	1.855118	-0.422467	1.034880
C73	C	1.337972	-0.967113	0.451516
C74	C	1.837972	-0.467113	0.951516
C75	C	1.274308	-0.785034	0.508094
C76	C	1.774308	-0.285034	1.008094
C77	C	1.274491	-1.099224	0.508133
C78	C	1.774491	-0.599224	1.008133
C79	C	1.508870	-0.454320	0.521620
C80	C	2.008870	0.045680	1.021620
C81	C	1.608810	-0.459355	0.527388
C82	C	2.108810	0.040645	1.027388
C83	C	1.260855	-0.452944	0.742611
C84	C	1.760855	0.047056	1.242611
C85	C	1.255108	-0.457392	0.842552
C86	C	1.755108	0.042608	1.342552
C87	C	1.274475	-0.248808	0.508127
C88	C	1.774475	0.251192	1.008127
C89	C	1.274531	-0.166265	0.508145
C90	C	1.774531	0.333735	1.008145
C91	C	1.287832	-0.432056	0.274474
C92	C	1.787832	0.067944	0.774474
C93	C	1.293754	-0.427407	0.174544
C94	C	1.793754	0.072593	0.674544
C95	C	1.189473	-0.508248	0.980087
C96	C	1.689473	-0.008248	1.480087
C97	C	1.194872	-0.504074	0.886183
C98	C	1.694872	-0.004074	1.386183
C99	C	1.309946	-0.414880	0.892831
C100	C	1.809946	0.085120	1.392831
C101	C	1.304547	-0.419055	0.986735
C102	C	1.804547	0.080945	1.486735
C103	C	1.244309	-0.465741	1.030359
C104	C	1.744309	0.034259	1.530359
C105	C	1.238915	-0.469919	1.124265
C106	C	1.738915	0.030081	1.624265
C107	C	1.353984	-0.380722	1.130911
C108	C	1.853984	0.119278	1.630911
C109	C	1.359383	-0.376547	1.037007
C110	C	1.859383	0.123453	1.537007
H111	H	0.623521	-0.368856	0.423743
H112	H	1.123521	0.131144	0.923743
C113	C	1.101419	-0.985361	0.450770
C114	C	1.601419	-0.485361	0.950770
N115	N	1.031959	-1.003108	0.427739
N116	N	1.531959	-0.503108	0.927739
C117	C	1.414310	-0.333963	1.186219
C118	C	1.914310	0.166037	1.686219
N119	N	1.459749	-0.298747	1.227877
N120	N	1.959749	0.201253	1.727877
H121	H	1.242522	-0.887111	0.354272
H122	H	1.742522	-0.387111	0.854272
H123	H	1.391746	-0.988912	0.403637
H124	H	1.891746	-0.488912	0.903637
C125	C	1.123217	-0.559607	1.028076
C126	C	1.623217	-0.059607	1.528076
N127	N	1.073310	-0.598290	1.064220
N128	N	1.573310	-0.098290	1.564220
H129	H	0.926059	-0.516222	0.592513
H130	H	1.426059	-0.016222	1.092513
C131	C	1.172651	-0.521272	1.172250
C132	C	1.672651	-0.021272	1.672250
N133	N	1.122736	-0.559951	1.208390
N134	N	1.622736	-0.059951	1.708390
C135	C	0.794374	-0.574269	0.659007
C136	C	1.294374	-0.074269	1.159007
N137	N	0.830534	-0.617751	0.708808
N138	N	1.330534	-0.117751	1.208808
H139	H	1.150213	-0.538683	0.845254
H140	H	1.650213	-0.038683	1.345254
H141	H	1.423358	-0.905010	0.557544
H142	H	1.923358	-0.405010	1.057544
H143	H	0.611546	-0.550722	0.632048
H144	H	1.111546	-0.050722	1.132048
H145	H	1.306119	-0.997237	0.661883
H146	H	1.806119	-0.497237	1.161883
C147	C	1.425640	-0.325195	0.989010
C148	C	1.925640	0.174805	1.489010
N149	N	1.475548	-0.286517	0.952859
N150	N	1.975548	0.213483	1.452859
C151	C	0.755214	-0.310809	0.357243
C152	C	1.255214	0.189191	0.857243
N153	N	0.719047	-0.267332	0.307441
N154	N	1.219047	0.232668	0.807441
C155	C	1.138129	-0.887473	0.629176
C156	C	1.638129	-0.387473	1.129176
N157	N	1.083380	-0.865136	0.677759
N158	N	1.583380	-0.365136	1.177759
C159	C	0.952425	-0.320702	0.368566
C160	C	1.452425	0.179298	0.868566
N161	N	0.994069	-0.281131	0.323231
N162	N	1.494069	0.218869	0.823231
H163	H	1.358983	-0.376866	0.857296
H164	H	1.858983	0.123134	1.357296
