data_functionalizedCrystal
_audit_creation_method	'MofGen! by Chris Wilmer'
_symmetry_space_group_name_H-M	'P1'
_symmetry_Int_Tables_number	1
_symmetry_cell_setting	triclinic
loop_
_symmetry_equiv_pos_as_xyz
  x,y,z
_cell_length_a	19.188928
_cell_length_b	17.666332
_cell_length_c	17.699083
_cell_angle_alpha	90.005385
_cell_angle_beta	83.213413
_cell_angle_gamma	90.022693
loop_
_atom_site_label
_atom_site_type_symbol
_atom_site_fract_x
_atom_site_fract_y
_atom_site_fract_z
O1	O	-0.926253	-0.063243	-0.094482
O2	O	-0.722956	-0.063180	-0.107204
O3	O	-0.830348	-0.063206	0.009353
O4	O	-0.818861	-0.063216	-0.211040
O5	O	-0.830336	0.062690	0.009356
O6	O	-0.722944	0.062717	-0.107202
O7	O	-0.926241	0.062654	-0.094480
Cu8	Cu	-0.824591	0.074181	-0.100841
Cu9	Cu	-0.824606	-0.074707	-0.100844
O10	O	-0.818849	0.062680	-0.211038
C11	C	-0.696938	-0.000224	-0.106791
C12	C	-0.619432	-0.000200	-0.105556
N13	N	-0.824586	0.178900	-0.100838
C14	C	-0.872168	0.780939	-0.049244
C15	C	-0.872170	0.701691	-0.049246
C16	C	-0.824604	0.662082	-0.100838
C17	C	-0.777046	0.701726	-0.152445
C18	C	-0.777051	0.780973	-0.152447
N19	N	-0.762804	0.537688	-0.110647
N20	N	-0.762802	0.462407	-0.110640
C21	C	-0.824589	0.423318	-0.100836
N22	N	-0.886380	0.462352	-0.091024
N23	N	-0.886382	0.537640	-0.091026
C24	C	-0.824594	0.576153	-0.100842
C25	C	-0.872149	0.297753	-0.049237
C26	C	-0.872151	0.218504	-0.049244
C27	C	-0.777021	0.218541	-0.152440
C28	C	-0.777025	0.297789	-0.152437
C29	C	-0.824588	0.337390	-0.100832
C30	C	-0.574585	-0.000212	-0.173948
C31	C	-0.501760	-0.000217	-0.172787
C32	C	-0.473785	-0.000224	-0.103230
C33	C	-0.518642	-0.000207	-0.034829
C34	C	-0.591466	-0.000195	-0.035992
N35	N	-0.365750	-0.043094	-0.050064
N36	N	-0.296570	-0.043107	-0.048964
C37	C	-0.254372	-0.000258	-0.099722
N38	N	-0.283967	0.042595	-0.151633
N39	N	-0.353153	0.042605	-0.152735
C40	C	-0.394821	-0.000236	-0.101961
C41	C	-0.130559	-0.000274	-0.166859
C42	C	-0.057733	-0.000274	-0.165696
C43	C	-0.074617	-0.000271	-0.027735
C44	C	-0.147442	-0.000264	-0.028901
C45	C	-0.175408	-0.000269	-0.098465
C46	C	0.047742	-0.000291	-0.094895
C47	C	-0.029764	-0.000280	-0.096138
C48	C	-0.829931	-0.000258	0.037551
C49	C	-0.828696	-0.000257	0.121568
N50	N	-0.824614	0.820574	-0.100842
C51	C	-0.819266	-0.000270	-0.239235
C52	C	-0.820501	-0.000275	-0.323252
C53	C	-0.891733	-0.000276	0.170272
C54	C	-0.890568	-0.000282	0.249214
C55	C	-0.826366	-0.000264	0.279450
C56	C	-0.763324	-0.000248	0.230739
C57	C	-0.764489	-0.000247	0.151799
C58	C	-0.758624	-0.000253	0.549096
C59	C	-0.757464	-0.000252	0.628042
C60	C	-0.884703	-0.000287	0.646511
C61	C	-0.885868	-0.000287	0.567571
C62	C	-0.822826	-0.000274	0.518867
C63	C	-0.824090	-0.000269	0.433269
C64	C	-0.825102	-0.000264	0.365046
H65	H	-0.910898	0.813180	-0.007226
O66	O	-0.697341	-0.000333	0.501871
C67	C	-0.658365	-0.065532	0.515528
H68	H	-0.675618	-0.087277	0.575467
H69	H	-0.600123	-0.050846	0.509789
H70	H	-0.667836	-0.111192	0.472373
H71	H	-0.183958	-0.000258	0.026791
H72	H	-0.944014	-0.000285	0.145661
O73	O	-0.918415	0.336110	0.000919
C74	C	-0.960380	0.284129	0.046473
H75	H	-0.961122	0.227639	0.015440
H76	H	-1.016154	0.307005	0.058182
H77	H	-0.937799	0.275709	0.102631
H78	H	-0.910896	0.669414	-0.007227
H79	H	-0.713158	-0.000233	0.112143
O80	O	-0.701019	-0.000198	0.260233
C81	C	-0.713506	-0.000219	0.340352
H82	H	-0.768021	0.023599	0.359074
H83	H	-0.672428	0.036345	0.364456
H84	H	-0.710165	-0.060617	0.362312
H85	H	-0.738319	0.669473	-0.194454
H86	H	-0.051841	-0.000324	0.028899
O87	O	-0.918184	0.180000	0.001058
C88	C	-0.880741	0.134316	0.047641
H89	H	-0.826127	0.122386	0.017207
H90	H	-0.909895	0.078610	0.059932
H91	H	-0.875924	0.165009	0.103450
H92	H	-0.941899	-0.000295	0.288867
O93	O	-0.458213	-0.000369	-0.239245
C94	C	-0.470919	-0.065566	-0.281494
H95	H	-0.495906	-0.111128	-0.241450
H96	H	-0.419209	-0.087470	-0.312009
H97	H	-0.507914	-0.050823	-0.325185
H98	H	-0.495861	-0.000223	0.021805
H99	H	-0.938148	-0.000297	0.542958
H100	H	-0.021218	-0.000280	-0.221391
O101	O	-0.730783	0.819361	-0.202597
C102	C	-0.688813	0.767412	-0.248151
H103	H	-0.688076	0.710924	-0.217125
H104	H	-0.633038	0.790334	-0.259849
H105	H	-0.711386	0.758970	-0.304316
O106	O	-0.635006	-0.000322	0.030468
C107	C	-0.622363	-0.065516	0.072722
H108	H	-0.597424	-0.111092	0.032682
H109	H	-0.674093	-0.087397	0.103244
H110	H	-0.585350	-0.050777	0.116409
H111	H	-0.738296	0.186292	-0.194451
O112	O	-0.730757	0.336177	-0.202583
C113	C	-0.688786	0.284227	-0.248135
H114	H	-0.688047	0.227742	-0.217105
H115	H	-0.633012	0.307151	-0.259834
H116	H	-0.711359	0.275781	-0.304298
H117	H	-0.936034	-0.000301	0.686176
O118	O	-0.601777	-0.000357	-0.241505
C119	C	-0.643436	-0.065550	-0.246292
H120	H	-0.626308	-0.111114	-0.206784
H121	H	-0.636794	-0.087453	-0.307307
H122	H	-0.700891	-0.050801	-0.228659
O123	O	-0.695111	-0.000108	0.657450
C124	C	-0.690626	0.065086	0.702580
H125	H	-0.727068	0.110654	0.684031
H126	H	-0.634339	0.086981	0.695312
H127	H	-0.706844	0.050343	0.764887
H128	H	-0.153330	-0.000267	-0.223503
