data_functionalizedCrystal
_audit_creation_method	'MofGen! by Chris Wilmer'
_symmetry_space_group_name_H-M	'P1'
_symmetry_Int_Tables_number	1
_symmetry_cell_setting	triclinic
loop_
_symmetry_equiv_pos_as_xyz
  x,y,z
_cell_length_a	21.883469
_cell_length_b	21.882911
_cell_length_c	21.879399
_cell_angle_alpha	60.006540
_cell_angle_beta	60.013207
_cell_angle_gamma	59.992231
loop_
_atom_site_label
_atom_site_type_symbol
_atom_site_fract_x
_atom_site_fract_y
_atom_site_fract_z
O1	O	0.084645	-0.892842	0.746620
O2	O	0.031867	-0.695139	0.601571
O3	O	0.157054	-0.820237	0.601476
O4	O	-0.040542	-0.767744	0.746716
O5	O	0.198586	-0.778715	0.642912
O6	O	0.073399	-0.653617	0.643007
O7	O	0.126177	-0.851320	0.788056
Cu8	Cu	0.103580	-0.748677	0.719315
Cu9	Cu	0.054464	-0.797782	0.670313
O10	O	0.000990	-0.726222	0.788151
N11	N	0.138128	-0.714145	0.753785
N12	N	0.019923	-0.832320	0.635843
C13	C	0.190018	-0.547369	0.805644
C14	C	0.190029	-0.662289	0.805630
C15	C	0.218780	-0.633565	0.834353
C16	C	0.344122	-0.611968	0.768360
C17	C	0.422474	-0.638085	0.742222
C18	C	0.422504	-0.764859	0.790561
C19	C	0.344154	-0.738739	0.816702
C20	C	0.208899	-0.508180	0.728617
C21	C	0.182748	-0.429822	0.702522
C22	C	0.118843	-0.429847	0.830485
C23	C	0.144993	-0.508205	0.856580
C24	C	0.112994	-0.643364	0.824587
C25	C	0.086865	-0.669476	0.798467
C26	C	0.214799	-0.733437	0.734451
C27	C	0.240932	-0.707325	0.760562
C28	C	0.113084	-0.643389	0.959747
C29	C	0.087018	-0.669524	1.038102
C30	C	0.214996	-0.733501	1.038048
C31	C	0.241061	-0.707367	0.959690
C32	C	0.190103	-0.662308	0.920542
C33	C	0.304966	-0.662293	0.805598
C34	C	-0.117460	-0.854702	0.612901
C35	C	-0.002405	-0.854864	0.498145
C36	C	-0.002621	-0.969735	0.613108
C37	C	-0.002603	-0.854858	0.613180
C38	C	-0.031272	-0.883541	0.584334
N39	N	0.460550	-0.714150	0.753681
O40	O	0.699805	-0.721060	0.574973
O41	O	0.700047	-0.866553	0.772482
O42	O	0.699952	-0.866219	0.647213
O43	O	0.699900	-0.721394	0.700242
O44	O	0.575478	-0.824800	0.688791
O45	O	0.575573	-0.825134	0.814060
O46	O	0.575331	-0.679641	0.616551
Cu47	Cu	0.564087	-0.748606	0.719102
Cu48	Cu	0.711292	-0.797588	0.669931
O49	O	0.575426	-0.679975	0.741820
N50	N	0.814828	-0.832044	0.635345
N51	N	0.138106	-0.391772	0.753815
O52	O	-0.040520	-0.152377	0.746758
O53	O	0.156993	-0.152371	0.601281
O54	O	0.031698	-0.152390	0.601639
O55	O	0.084775	-0.152358	0.746401
O56	O	0.073234	-0.276876	0.643130
O57	O	0.198529	-0.276856	0.642772
O58	O	0.001015	-0.276863	0.788249
Cu59	Cu	0.103564	-0.288226	0.719299
Cu60	Cu	0.054444	-0.141007	0.670231
O61	O	0.126310	-0.276844	0.787892
N62	N	0.019892	-0.037461	0.635717
N63	N	0.138332	-0.714192	1.076133
O64	O	0.131293	-0.892804	1.315506
O65	O	-0.014162	-0.695219	1.315533
O66	O	-0.013826	-0.820490	1.315480
O67	O	0.130957	-0.767533	1.315559
O68	O	0.027651	-0.778981	1.191001
O69	O	0.027314	-0.653710	1.191054
O70	O	0.172770	-0.851295	1.191026
Cu71	Cu	0.103829	-0.748713	1.179674
Cu72	Cu	0.054778	-0.797802	1.326885
O73	O	0.172434	-0.726024	1.191079
N74	N	0.020275	-0.832331	1.430426
C75	C	0.047687	-0.649466	0.602306
C76	C	0.202716	-0.804385	0.602188
C77	C	0.110357	-0.896993	0.787321
C78	C	-0.044672	-0.742074	0.787439
C79	C	0.637839	-0.865879	0.818154
C80	C	0.637724	-0.865466	0.663023
C81	C	0.637536	-0.680313	0.570880
C82	C	0.637655	-0.680728	0.726010
C83	C	0.202592	-0.214459	0.601942
C84	C	0.047481	-0.214636	0.602435
C85	C	-0.044635	-0.214620	0.787537
C86	C	0.110528	-0.214598	0.787096
C87	C	-0.013455	-0.649572	1.253296
C88	C	-0.013030	-0.804697	1.253206
C89	C	0.172063	-0.896942	1.253263
C90	C	0.171648	-0.741808	1.253325
H91	H	0.024299	-0.654107	1.070013
H92	H	0.036413	-0.592673	0.556752
H93	H	0.121632	-0.953785	0.832877
H94	H	-0.101428	-0.730886	0.833046
H95	H	0.217133	-0.730478	1.253340
H96	H	0.121892	-0.214588	0.832572
C97	C	0.279383	-0.819495	0.540568
C98	C	0.350929	-0.840060	0.554219
C99	C	0.427596	-0.855169	0.492599
C100	C	0.432718	-0.849714	0.417328
C101	C	0.361169	-0.829149	0.403673
C102	C	0.284502	-0.814039	0.465293
H103	H	0.347140	-0.844098	0.609942
H104	H	0.480561	-0.870393	0.502708
H105	H	0.489472	-0.860900	0.371713
H106	H	0.364958	-0.825110	0.347950
H107	H	0.231537	-0.798815	0.455185
H108	H	0.637457	-0.634634	0.514159
H109	H	0.259199	-0.214112	0.556156
H110	H	-0.059121	-0.592825	1.253304
C111	C	0.637632	-0.619262	0.741334
C112	C	0.637702	-0.634587	0.818085
C113	C	0.637678	-0.573121	0.833409
C114	C	0.637585	-0.496330	0.771982
C115	C	0.637515	-0.481002	0.695226
C116	C	0.637539	-0.542467	0.679902
H117	H	0.637771	-0.691436	0.863561
H118	H	0.637730	-0.584469	0.890229
H119	H	0.637568	-0.450830	0.783326
H120	H	0.637446	-0.424153	0.649750
H121	H	0.637487	-0.531120	0.623082
H122	H	0.036114	-0.214639	0.556956
C123	C	0.637928	-0.927589	0.894785
C124	C	0.637960	-0.912632	0.956468
C125	C	0.638049	-0.974342	1.033098
C126	C	0.638105	-1.051008	1.048045
C127	C	0.638072	-1.065969	0.986360
C128	C	0.637984	-1.004259	0.909729
H129	H	0.637919	-0.855876	0.945406
H130	H	0.638074	-0.963267	1.078762
H131	H	0.638171	-1.096689	1.104771
H132	H	0.638114	-1.122725	0.997422
H133	H	0.637959	-1.015334	0.864066
C134	C	-0.121264	-0.214619	0.849241
C135	C	-0.182963	-0.214630	0.834302
C136	C	-0.259591	-0.214630	0.896005
C137	C	-0.274520	-0.214618	0.972647
C138	C	-0.212819	-0.214608	0.987590
C139	C	-0.136191	-0.214608	0.925886
H140	H	-0.171913	-0.214639	0.777564
H141	H	-0.305266	-0.214638	0.884943
H142	H	-0.331245	-0.214618	1.018324
H143	H	-0.223869	-0.214599	1.044328
H144	H	-0.090516	-0.214600	0.936948
H145	H	0.071582	-0.606692	0.927876
C146	C	-0.074455	-0.819967	1.253102
C147	C	-0.059121	-0.896715	1.253038
C148	C	-0.120545	-0.911985	1.252933
C149	C	-0.197304	-0.850507	1.252892
C150	C	-0.212641	-0.773754	1.252956
C151	C	-0.151217	-0.758484	1.253061
H152	H	-0.002296	-0.942229	1.253068
H153	H	-0.109191	-0.968803	1.252886
H154	H	-0.242774	-0.861811	1.252814
H155	H	-0.269466	-0.728240	1.252926
H156	H	-0.162571	-0.701666	1.253108
H157	H	0.303780	-0.722782	0.927774
C158	C	0.271052	-0.783053	1.081105
C159	C	0.355772	-0.803858	1.037976
C160	C	0.411830	-0.853413	1.081034
C161	C	0.383169	-0.882162	1.167220
C162	C	0.298445	-0.861357	1.210354
C163	C	0.242387	-0.811803	1.167296
H164	H	0.376992	-0.782576	0.974172
H165	H	0.474549	-0.868814	1.049103
H166	H	0.424667	-0.918845	1.199094
H167	H	0.277225	-0.882640	1.274158
H168	H	0.179669	-0.796402	1.199227
C169	C	0.056999	-0.593820	0.874155
C170	C	0.000665	-0.623810	0.949734
C171	C	-0.055332	-0.574267	0.999305
C172	C	-0.054996	-0.494733	0.973297
C173	C	0.001340	-0.464739	0.897714
C174	C	0.057337	-0.514283	0.848143
H175	H	0.000414	-0.682689	0.968990
H176	H	-0.097036	-0.596471	1.055256
H177	H	-0.096449	-0.458058	1.009992
H178	H	0.001590	-0.405860	0.878457
H179	H	0.099041	-0.492078	0.792191
C180	C	0.233759	-0.973601	1.253254
C181	C	0.218810	-1.035277	1.253221
C182	C	0.280506	-1.111936	1.253212
C183	C	0.357152	-1.126920	1.253235
C184	C	0.372105	-1.065242	1.253267
C185	C	0.310409	-0.988583	1.253277
H186	H	0.162068	-1.024187	1.253204
H187	H	0.269436	-1.157594	1.253188
H188	H	0.402824	-1.183667	1.253228
H189	H	0.428847	-1.076333	1.253284
H190	H	0.321479	-0.942926	1.253300
C191	C	0.637749	-0.926933	0.647698
C192	C	0.637681	-0.911608	0.570947
C193	C	0.637707	-0.973075	0.555622
C194	C	0.637801	-1.049866	0.617049
C195	C	0.637869	-1.065195	0.693805
C196	C	0.637844	-1.003728	0.709130
H197	H	0.637611	-0.854759	0.525471
H198	H	0.637656	-0.961727	0.498802
H199	H	0.637820	-1.095367	0.605704
H200	H	0.637939	-1.122043	0.739281
H201	H	0.637895	-1.015076	0.765950
H202	H	0.256252	-0.770113	0.697763
C203	C	0.002127	-0.648661	0.819305
C204	C	-0.033392	-0.710605	0.862910
C205	C	-0.118128	-0.689788	0.883744
C206	C	-0.167346	-0.607027	0.860972
C207	C	-0.131828	-0.545078	0.817364
C208	C	-0.047092	-0.565894	0.796531
H209	H	0.003043	-0.771874	0.879769
H210	H	-0.144420	-0.735648	0.916025
H211	H	-0.230073	-0.591618	0.876394
H212	H	-0.168263	-0.483808	0.800505
H213	H	-0.020800	-0.520035	0.764250
C214	C	0.301080	-0.794100	0.857664
C215	C	0.344188	-0.878188	0.869870
C216	C	0.301115	-0.933550	0.910836
C217	C	0.214932	-0.904824	0.939595
C218	C	0.171818	-0.820732	0.927390
C219	C	0.214892	-0.765371	0.886424
H220	H	0.407990	-0.899456	0.848580
H221	H	0.333031	-0.995800	0.919871
H222	H	0.183046	-0.945806	0.969920
H223	H	0.108016	-0.799464	0.948680
H224	H	0.182976	-0.703120	0.877389
H225	H	0.303660	-0.722726	0.745118
H226	H	0.454413	-0.827107	0.799589
H227	H	0.454353	-0.597104	0.711898
H228	H	0.245557	-0.540066	0.687141
C229	C	0.301018	-0.527877	0.756148
C230	C	0.311745	-0.470902	0.676194
C231	C	0.268638	-0.386809	0.663981
C232	C	0.214803	-0.359692	0.731721
C233	C	0.204073	-0.416668	0.811680
C234	C	0.247180	-0.500761	0.823893
H235	H	0.351599	-0.490974	0.626044
H236	H	0.276581	-0.344632	0.604790
H237	H	0.182893	-0.297441	0.722680
H238	H	0.164220	-0.396595	0.861830
H239	H	0.239237	-0.542938	0.883085
H240	H	0.198119	-0.397913	0.639797
H241	H	0.129609	-0.540114	0.919306
C242	C	0.069330	-0.386761	0.886512
C243	C	0.048581	-0.429867	0.971243
C244	C	-0.000930	-0.386782	1.027270
C245	C	-0.029691	-0.300592	0.998565
C246	C	-0.008943	-0.257481	0.913830
C247	C	0.040568	-0.300565	0.857803
H248	H	0.069873	-0.493675	0.992496
H249	H	-0.016289	-0.418697	1.089997
H250	H	-0.066342	-0.268698	1.040040
H251	H	-0.030234	-0.193673	0.892577
H252	H	0.055928	-0.268651	0.795076
