data_functionalizedCrystal
_audit_creation_method	'MofGen! by Chris Wilmer'
_symmetry_space_group_name_H-M	'P1'
_symmetry_Int_Tables_number	1
_symmetry_cell_setting	triclinic
loop_
_symmetry_equiv_pos_as_xyz
  x,y,z
_cell_length_a	12.759401
_cell_length_b	12.759400
_cell_length_c	12.759393
_cell_angle_alpha	89.969510
_cell_angle_beta	89.979062
_cell_angle_gamma	90.016209
loop_
_atom_site_label
_atom_site_type_symbol
_atom_site_fract_x
_atom_site_fract_y
_atom_site_fract_z
Zn1	Zn	1.606266	-0.418173	-0.594020
Zn2	Zn	1.606158	-0.593888	-0.418340
Zn3	Zn	1.430565	-0.418229	-0.418355
Zn4	Zn	1.430557	-0.593815	-0.593978
O5	O	1.518387	-0.506026	-0.506173
O6	O	1.753273	-0.441489	-0.570727
O7	O	1.582823	-0.570641	-0.271321
O8	O	1.453921	-0.271200	-0.441682
O9	O	1.753193	-0.570587	-0.441656
O10	O	1.583008	-0.271159	-0.570742
O11	O	1.453816	-0.441584	-0.271332
O12	O	1.283543	-0.441513	-0.441640
O13	O	1.453908	-0.570461	-0.741004
O14	O	1.283537	-0.570516	-0.570669
O15	O	1.583000	-0.441418	-0.741036
O16	O	1.582815	-0.740900	-0.441615
O17	O	1.453802	-0.740846	-0.570655
C18	C	1.245419	-0.506013	-0.506152
C19	C	1.128643	-0.506033	-0.506168
C20	C	1.073805	-0.573307	-0.573248
C21	C	0.964081	-0.573311	-0.573269
C22	C	0.964042	-0.438764	-0.439122
C23	C	1.073764	-0.438756	-0.439107
C24	C	1.518324	-0.778994	-0.506151
C25	C	1.518394	-0.895770	-0.506177
C26	C	1.585645	-0.950625	-0.439060
C27	C	1.585710	-1.060349	-0.439093
C28	C	1.451262	-1.060353	-0.573362
C29	C	1.451204	-0.950631	-0.573334
C30	C	1.652835	-0.895764	-0.371904
C31	C	1.720091	-0.950619	-0.304781
C32	C	1.720156	-1.060343	-0.304813
C33	C	1.652964	-1.115212	-0.371969
C34	C	1.792420	-0.506040	-0.506195
C35	C	1.909197	-0.506046	-0.506204
C36	C	1.518465	-0.505925	-0.780207
C37	C	1.518499	-0.505882	-0.896984
C38	C	1.518478	-0.231993	-0.506218
C39	C	1.518517	-0.115216	-0.506238
C40	C	1.585722	-0.438679	-0.951864
C41	C	1.585740	-0.438633	-1.061588
C42	C	1.451308	-0.573004	-1.061542
C43	C	1.451285	-0.573044	-0.951820
C44	C	1.518369	-0.506051	-0.233206
C45	C	1.518539	-0.505798	-0.116430
H46	H	0.919437	-0.628090	-0.627893
H47	H	1.396442	-0.905968	-0.627988
H48	H	1.118414	-0.383967	-0.384482
O49	O	1.652940	-0.789180	-0.371773
C50	C	1.726642	-0.752517	-0.298089
H51	H	1.788070	-0.815705	-0.283443
H52	H	1.766451	-0.679051	-0.329802
H53	H	1.685004	-0.733149	-0.221442
O54	O	1.650891	-0.373282	-0.898643
C55	C	1.627983	-0.268562	-0.925493
H56	H	1.544058	-0.263247	-0.955640
H57	H	1.637037	-0.216680	-0.853349
H58	H	1.684330	-0.241081	-0.989200
H59	H	1.640479	-0.383908	-1.106266
O60	O	1.652837	-1.221799	-0.371999
C61	C	1.552188	-1.258567	-0.344912
H62	H	1.491625	-1.195375	-0.362790
H63	H	1.533532	-1.331950	-0.392305
H64	H	1.550019	-1.278108	-0.257742
H65	H	1.396587	-0.627687	-1.106203
O66	O	1.386025	-1.113812	-0.638487
C67	C	1.400515	-1.222418	-0.624136
H68	H	1.434975	-1.237437	-0.543091
H69	H	1.321838	-1.264178	-0.631201
H70	H	1.456448	-1.253463	-0.686511
O71	O	1.385949	-0.638431	-0.898665
C72	C	1.326618	-0.697689	-0.970591
H73	H	1.369662	-0.701306	-1.048812
H74	H	1.315375	-0.780475	-0.938867
H75	H	1.246841	-0.659206	-0.982253
H76	H	1.774803	-0.905940	-0.250111
O77	O	1.785521	-1.113469	-0.239519
C78	C	1.844828	-1.041514	-0.180263
H79	H	1.801751	-0.963341	-0.176569
H80	H	1.856091	-1.073273	-0.097503
H81	H	1.924596	-1.029745	-0.218799
O82	O	0.910680	-0.373569	-0.373867
C83	C	0.847146	-0.433305	-0.305931
H84	H	0.880193	-0.516040	-0.299287
H85	H	0.845864	-0.395204	-0.225146
H86	H	0.764006	-0.436973	-0.338423
O87	O	1.126953	-0.638683	-0.638496
C88	C	1.055017	-0.698077	-0.697689
H89	H	0.976815	-0.655053	-0.701408
H90	H	1.086756	-0.709377	-0.780444
H91	H	1.043312	-0.777826	-0.659082
