data_functionalizedCrystal
_audit_creation_method	'MofGen! by Chris Wilmer'
_symmetry_space_group_name_H-M	'P1'
_symmetry_Int_Tables_number	1
_symmetry_cell_setting	triclinic
loop_
_symmetry_equiv_pos_as_xyz
  x,y,z
_cell_length_a	6.817900
_cell_length_b	11.168121
_cell_length_c	27.923456
_cell_angle_alpha	95.539349
_cell_angle_beta	98.963413
_cell_angle_gamma	108.508496
loop_
_atom_site_label
_atom_site_type_symbol
_atom_site_fract_x
_atom_site_fract_y
_atom_site_fract_z
V1	V	-4.002646	-0.176574	-0.151277
O2	O	-3.964275	0.006562	-0.148393
O3	O	-3.979664	-0.348266	-0.150246
O4	O	-3.932169	-0.174702	-0.217252
O5	O	-4.012099	-0.168205	-0.080923
V6	V	-4.485841	-0.154569	-0.142861
O7	O	-4.264624	-0.224843	-0.169736
O8	O	-4.674061	-0.106300	-0.124402
O9	O	-4.285617	0.017123	-0.143892
O10	O	-4.641609	-0.337705	-0.145745
O11	O	-4.593785	-0.162938	-0.213215
O12	O	-4.333112	-0.156441	-0.076886
C13	C	-3.831563	-0.390095	-0.147861
C14	C	-3.893912	-0.530461	-0.147458
C15	C	-4.094918	-0.599180	-0.149579
C16	C	-4.159363	-0.744256	-0.149163
C17	C	-3.770977	-0.168694	-0.233332
C18	C	-3.794806	-0.168300	-0.287267
C19	C	-4.124957	-0.172070	-0.624188
C20	C	-4.214600	-0.170539	-0.826895
O21	O	-4.381137	-0.175671	-0.855205
N22	N	-4.043583	-0.164019	-0.849770
C23	C	-3.850138	-0.157874	-0.821965
O24	O	-3.706729	-0.152281	-0.846072
C25	C	-3.760493	-0.159396	-0.619258
C26	C	-3.931529	-0.165929	-0.596386
C27	C	-4.295977	-0.178600	-0.601316
C28	C	-4.273569	-0.178990	-0.550643
C29	C	-4.080141	-0.172849	-0.522841
C30	C	-3.909121	-0.166319	-0.545713
C31	C	-3.567046	-0.153242	-0.591453
C32	C	-3.544648	-0.153620	-0.540773
C33	C	-3.715683	-0.160153	-0.517901
C34	C	-3.693285	-0.160567	-0.467238
N35	N	-3.864301	-0.167086	-0.444363
C36	C	-4.057729	-0.173227	-0.472165
C37	C	-3.897217	-0.157078	-0.928389
C38	C	-3.919629	-0.156700	-0.979066
C39	C	-4.284088	-0.169362	-0.983993
C40	C	-4.261679	-0.169749	-0.933316
C41	C	-4.068233	-0.163597	-0.905514
C42	C	-4.010657	-0.174046	-0.365747
C43	C	-3.988234	-0.174441	-0.315069
C44	C	-3.623774	-0.161772	-0.310146
C45	C	-3.646198	-0.161384	-0.360820
C46	C	-3.839653	-0.167518	-0.388619
O47	O	-3.526808	-0.155423	-0.438898
O48	O	-4.201098	-0.178792	-0.448047
C49	C	-4.147365	-0.171680	-0.674862
C50	C	-3.976345	-0.165150	-0.697733
C51	C	-3.782917	-0.159009	-0.669932
C52	C	-3.998756	-0.164771	-0.748410
C53	C	-4.192184	-0.170912	-0.776212
C54	C	-4.363200	-0.177431	-0.753337
C55	C	-4.340793	-0.177821	-0.702663
C56	C	-3.611900	-0.152490	-0.692807
C57	C	-3.634324	-0.152102	-0.743480
C58	C	-3.827752	-0.158243	-0.771282
C59	C	-4.097061	0.058945	-0.146276
C60	C	-4.013949	0.199310	-0.146682
C61	C	-4.157648	-0.162453	-0.060803
C62	C	-4.113057	-0.162841	-0.006867
H63	H	-4.219296	-0.550610	-0.151706
H64	H	-3.769537	-0.579034	-0.145336
Br65	Br	-4.625717	-0.185775	-0.791078
Br66	Br	-4.558518	-0.186939	-0.639038
Br67	Br	-4.220375	-0.183315	-0.284033
Br68	Br	-4.446374	-0.842704	-0.152183
H69	H	-3.841749	-0.741624	-0.144864
Br70	Br	-4.273200	-0.182367	-0.403466
Br71	Br	-4.493808	-0.178614	-0.902281
H72	H	-4.412844	-0.184304	-0.532025
Br73	Br	-3.349374	-0.144166	-0.655084
H74	H	-4.441590	-0.174366	-1.006638
H75	H	-3.506933	-0.156079	-0.379444
Br76	Br	-3.687512	-0.147866	-1.010101
H77	H	-4.480070	-0.183140	-0.684046
H78	H	-3.739691	-0.152079	-0.905758
Br79	Br	-3.282095	-0.145258	-0.503044
H80	H	-3.427766	-0.147924	-0.610066
H81	H	-3.466288	-0.156778	-0.287501
H82	H	-3.495036	-0.146792	-0.762098
