data_functionalizedCrystal
_audit_creation_method	'MofGen! by Chris Wilmer'
_symmetry_space_group_name_H-M	'P1'
_symmetry_Int_Tables_number	1
_symmetry_cell_setting	triclinic
loop_
_symmetry_equiv_pos_as_xyz
  x,y,z
_cell_length_a	14.560438
_cell_length_b	21.606444
_cell_length_c	14.560438
_cell_angle_alpha	90.003041
_cell_angle_beta	60.000769
_cell_angle_gamma	59.997051
loop_
_atom_site_label
_atom_site_type_symbol
_atom_site_fract_x
_atom_site_fract_y
_atom_site_fract_z
Zr1	Zr	1.005287	0.596204	-0.120493
O2	O	1.196903	0.497368	-0.267152
O3	O	0.813675	0.626508	-0.075531
O4	O	1.005284	0.626498	-0.267137
O5	O	1.005294	0.497379	0.075593
O6	O	1.005278	0.728353	-0.267129
O7	O	1.005293	0.497378	-0.075546
O8	O	0.662523	0.728370	0.075619
O9	O	1.348048	0.497362	-0.267155
O10	O	0.892481	0.715439	-0.056352
O11	O	0.892486	0.639427	0.056435
O12	O	1.118082	0.639416	-0.169157
O13	O	1.118087	0.563404	-0.056369
Zr14	Zr	1.005277	0.758652	0.120571
Zr15	Zr	1.005276	0.758650	-0.120479
Zr16	Zr	1.005287	0.596207	0.120557
Zr17	Zr	1.246346	0.596194	-0.120497
Zr18	Zr	0.764217	0.758662	0.120575
O19	O	1.196889	0.728348	0.075610
O20	O	1.196888	0.728345	-0.267132
O21	O	1.196904	0.497372	0.075590
O22	O	0.813661	0.857489	0.267230
O23	O	0.813660	0.857485	-0.075512
O24	O	0.813676	0.626512	0.267210
O25	O	1.005270	0.857477	-0.075515
O26	O	1.005280	0.728358	0.267215
O27	O	1.005286	0.626504	0.267207
O28	O	1.005271	0.857479	0.075624
O29	O	1.348040	0.626484	-0.267144
O30	O	0.662524	0.728372	0.267222
O31	O	0.662516	0.857495	0.267233
O32	O	0.662515	0.857493	0.075630
O33	O	1.348049	0.497364	-0.075552
O34	O	1.348041	0.626486	-0.075541
O35	O	0.892482	0.715441	0.169235
O36	O	0.892477	0.791452	0.056448
O37	O	1.118077	0.715429	-0.056357
O38	O	1.118083	0.639418	0.056431
C39	C	0.703753	0.677441	0.000045
C40	C	0.601417	0.677445	0.000047
C41	C	0.373922	0.733537	0.083308
C42	C	0.470057	0.733556	0.083313
C43	C	0.636642	0.621316	-0.083238
C44	C	0.540507	0.621301	-0.083247
C45	C	1.005295	0.474234	0.000022
C46	C	1.005299	0.405271	0.000016
C47	C	1.005281	0.677425	-0.301477
C48	C	1.005281	0.677424	-0.403809
C49	C	1.306811	0.677416	0.000034
C50	C	1.409147	0.677412	0.000032
C51	C	0.887504	0.021667	0.058945
C52	C	0.887508	0.086462	0.058935
C53	C	1.005273	0.079173	0.000047
C54	C	1.123043	0.007084	-0.058843
C55	C	1.123038	-0.057709	-0.058838
C56	C	1.123065	0.268387	-0.058864
C57	C	1.123061	0.333188	-0.058861
C58	C	0.887535	0.412558	0.058909
C59	C	0.887530	0.347765	0.058914
C60	C	1.005299	0.275682	0.000019
C61	C	1.005294	0.205424	0.000030
C62	C	1.005280	0.149429	0.000043
C63	C	1.005269	0.880623	0.000056
C64	C	1.005265	0.949585	0.000062
C65	C	1.005287	0.621317	-0.548053
C66	C	1.005281	0.621314	-0.451898
C67	C	1.005273	0.733546	-0.451874
C68	C	1.005270	0.733551	-0.548022
C69	C	1.005283	0.677431	0.301556
C70	C	1.005283	0.677432	0.403887
C71	C	0.703740	0.880635	0.000062
C72	C	0.601399	0.949602	0.000070
C73	C	0.703754	0.677444	0.301561
C74	C	0.601418	0.677449	0.403895
C75	C	0.703741	0.880638	0.301578
C76	C	0.601401	0.949606	0.403918
C77	C	1.306823	0.474218	-0.301500
C78	C	1.409163	0.405251	-0.403840
C79	C	1.306824	0.474221	0.000016
C80	C	1.409164	0.405255	0.000008
C81	C	1.306810	0.677413	-0.301483
C82	C	1.409146	0.677408	-0.403817
C83	C	0.553342	0.942311	-0.058817
C84	C	0.457195	1.007106	-0.058832
C85	C	0.409102	1.079192	0.000047
C86	C	0.457169	1.086481	0.058935
C87	C	0.553320	1.021687	0.058943
C88	C	0.553338	1.021678	0.393104
C89	C	0.457192	1.086487	0.489254
C90	C	0.409104	1.079222	0.596217
C91	C	0.457176	1.007142	0.607028
C92	C	0.553327	0.942335	0.510880
C93	C	1.457237	0.333179	-0.393026
C94	C	1.553413	0.268370	-0.489176
C95	C	1.601507	0.275635	-0.596138
C96	C	1.553428	0.347714	-0.606950
C97	C	1.457260	0.412521	-0.510801
C98	C	1.457232	0.412546	0.058885
C99	C	1.553405	0.347750	0.058874
C100	C	1.601502	0.275665	-0.000008
C101	C	1.553430	0.268375	-0.058892
C102	C	1.457265	0.333170	-0.058887
C103	C	0.553336	0.717129	0.510852
C104	C	0.457190	0.717126	0.607002
C105	C	0.457212	0.637760	0.489223
C106	C	0.553363	0.637760	0.393076
H107	H	0.266965	0.779227	0.151118
H108	H	0.418009	1.001238	0.694130
H109	H	1.592598	0.353621	-0.694050
H110	H	0.418070	1.001156	-0.106786
F111	F	1.005258	0.793283	-0.599172
H112	H	0.592437	1.027634	0.106903
H113	H	0.592464	0.749443	0.519667
F114	F	1.406068	0.325429	-0.279197
H115	H	0.418048	0.749436	0.694088
H116	H	1.218966	0.327245	-0.106812
H117	H	1.592605	0.209675	-0.106833
H118	H	1.005295	0.575623	-0.587204
H119	H	1.679812	0.222859	-0.674420
H120	H	0.791606	0.027611	0.106903
H121	H	0.592498	0.883621	-0.106777
H122	H	0.418061	1.145171	0.480431
H123	H	1.418131	0.327223	-0.106828
F124	F	0.762189	0.355528	0.121597
H125	H	1.218960	0.209702	-0.106816
F126	F	1.005281	0.561589	-0.400750
H127	H	0.791642	0.471258	0.106860
H128	H	0.418072	0.605448	0.480429
H129	H	1.005265	0.779235	-0.412711
F130	F	1.406099	0.489224	-0.522328
H131	H	0.592515	0.605444	0.305981
H132	H	1.218930	-0.116402	-0.106789
F133	F	0.604506	1.029427	0.279275
H134	H	0.330808	1.131945	0.000032
H135	H	0.441364	0.779260	0.151124
H136	H	0.417997	1.145182	0.106872
H137	H	0.330811	1.131998	0.674498
F138	F	0.604463	0.865632	0.522406
F139	F	0.776448	0.561600	-0.171860
H140	H	1.592543	0.209686	-0.480351
H141	H	1.418079	0.471235	0.106842
F142	F	1.604546	0.355524	0.121553
H143	H	0.569201	0.575596	-0.151067
F144	F	0.762171	0.163177	0.121605
F145	F	1.703849	0.206711	-0.000003
H146	H	1.218929	0.001154	-0.106796
