data_functionalizedCrystal
_audit_creation_method	'MofGen! by Chris Wilmer'
_symmetry_space_group_name_H-M	'P1'
_symmetry_Int_Tables_number	1
_symmetry_cell_setting	triclinic
loop_
_symmetry_equiv_pos_as_xyz
  x,y,z
_cell_length_a	8.559649
_cell_length_b	8.634740
_cell_length_c	9.730223
_cell_angle_alpha	89.997777
_cell_angle_beta	89.996443
_cell_angle_gamma	85.174486
loop_
_atom_site_label
_atom_site_type_symbol
_atom_site_fract_x
_atom_site_fract_y
_atom_site_fract_z
O1	O	2.112216	-0.051376	-0.114285
O2	O	2.612216	0.448624	0.385715
O3	O	1.659053	0.026835	-0.114287
O4	O	2.159053	0.526835	0.385713
O5	O	1.864183	-0.234206	-0.114283
O6	O	2.364183	0.265794	0.385717
O7	O	1.907085	0.209665	-0.114289
O8	O	2.407085	0.709665	0.385711
O9	O	1.864167	-0.234211	0.114297
O10	O	2.364167	0.265789	0.614297
O11	O	1.659036	0.026830	0.114293
O12	O	2.159036	0.526830	0.614293
O13	O	2.112199	-0.051380	0.114295
O14	O	2.612199	0.448620	0.614295
Zn15	Zn	1.885615	-0.012276	0.150586
Zn16	Zn	2.385615	0.487724	0.650586
Zn17	Zn	1.885637	-0.012270	-0.150578
Zn18	Zn	2.385637	0.487730	0.349422
O19	O	1.907069	0.209661	0.114291
O20	O	2.407069	0.709661	0.614291
C21	C	1.600427	0.032760	0.000003
C22	C	2.100427	0.532760	0.500003
C23	C	1.425763	0.050402	0.000002
C24	C	1.925763	0.550402	0.500002
C25	C	1.854456	-0.290508	0.000005
C26	C	2.354456	0.209492	0.500005
C27	C	1.825478	-0.458259	-0.000001
C28	C	2.325478	0.041741	0.499999
C29	C	2.170825	-0.057305	0.000002
C30	C	2.670825	0.442695	0.500002
C31	C	2.345489	-0.074948	-0.000006
C32	C	2.845489	0.425052	0.499994
C33	C	1.916796	0.265962	0.000000
C34	C	2.416796	0.765962	0.500000
C35	C	1.945774	0.433714	-0.000003
C36	C	2.445774	0.933714	0.499997
N37	N	1.885612	-0.012282	0.356122
N38	N	2.385612	0.487718	0.856122
N39	N	1.885651	-0.012277	-0.356114
N40	N	2.385651	0.487723	0.143886
C41	C	1.976486	-0.127832	0.428050
C42	C	2.476486	0.372168	0.928050
C43	C	1.976502	-0.127834	0.571933
C44	C	2.476502	0.372166	1.071933
C45	C	1.794766	0.103279	0.571948
C46	C	2.294766	0.603279	1.071948
C47	C	1.794743	0.103273	0.428068
C48	C	2.294743	0.603273	0.928068
H49	H	1.410394	-0.195771	-0.000005
H50	H	1.910394	0.304229	0.499995
H51	H	2.050498	-0.221926	0.630493
H52	H	2.550498	0.278074	1.130493
Cl53	Cl	2.139019	-0.510946	-0.000009
Cl54	Cl	2.639019	-0.010946	0.499991
Cl55	Cl	1.632224	-0.513603	-0.000016
Cl56	Cl	2.132224	-0.013603	0.499984
H57	H	2.050475	-0.221926	0.369476
H58	H	2.550475	0.278074	0.869476
Cl59	Cl	1.680542	0.248547	0.662399
Cl60	Cl	2.180542	0.748547	1.162399
Cl61	Cl	1.325572	0.236938	-0.000024
Cl62	Cl	1.825572	0.736938	0.499976
Cl63	Cl	1.680483	0.248541	0.337635
Cl64	Cl	2.180483	0.748541	0.837635
