data_functionalizedCrystal
_audit_creation_method	'MofGen! by Chris Wilmer'
_symmetry_space_group_name_H-M	'P1'
_symmetry_Int_Tables_number	1
_symmetry_cell_setting	triclinic
loop_
_symmetry_equiv_pos_as_xyz
  x,y,z
_cell_length_a	14.971486
_cell_length_b	16.109301
_cell_length_c	13.448316
_cell_angle_alpha	89.991973
_cell_angle_beta	89.998199
_cell_angle_gamma	83.537805
loop_
_atom_site_label
_atom_site_type_symbol
_atom_site_fract_x
_atom_site_fract_y
_atom_site_fract_z
O1	O	1.186791	0.108348	-0.082581
O2	O	0.926372	0.121323	-0.082608
O3	O	1.063736	-0.006187	-0.082584
O4	O	1.049428	0.235857	-0.082605
O5	O	1.063718	-0.006195	0.082800
O6	O	0.926355	0.121315	0.082776
O7	O	1.186774	0.108340	0.082803
Cu8	Cu	1.056563	0.114827	0.097890
Cu9	Cu	1.056583	0.114836	-0.097695
O10	O	1.049410	0.235850	0.082778
C11	C	0.893040	0.120739	0.000080
C12	C	0.793745	0.119000	0.000070
C13	C	0.736412	0.193908	0.000065
C14	C	0.643115	0.192269	0.000080
C15	C	0.607153	0.115721	0.000093
C16	C	0.664494	0.040807	0.000101
C17	C	0.757789	0.042447	0.000093
C18	C	0.470036	0.037395	0.000115
C19	C	0.376734	0.035755	0.000121
C20	C	0.355362	0.187217	0.000102
C21	C	0.448657	0.188857	0.000094
C22	C	0.505991	0.113942	0.000100
C23	C	1.063147	-0.037166	0.000109
C24	C	1.061410	-0.129464	0.000110
C25	C	1.138878	-0.351640	0.000102
C26	C	1.137239	-0.438362	0.000094
C27	C	0.974262	-0.418691	0.000081
C28	C	0.975902	-0.331970	0.000082
C29	C	1.058213	-0.298447	0.000098
C30	C	1.054933	-0.471890	0.000088
C31	C	1.053155	-0.565918	0.000079
C32	C	1.059992	-0.204413	0.000105
C33	C	1.220106	0.108924	0.000112
C34	C	1.319401	0.110663	0.000116
C35	C	1.049999	0.266829	0.000084
C36	C	1.051736	0.359127	0.000076
N37	N	1.056555	0.114820	0.235454
N38	N	1.056598	0.114837	-0.235260
C39	C	1.117398	0.058382	0.287506
C40	C	1.117404	0.058381	0.391609
C41	C	1.056570	0.114823	0.443659
C42	C	0.995720	0.171264	0.391601
C43	C	0.995711	0.171260	0.287499
C44	C	0.995745	0.171269	0.608581
C45	C	0.995755	0.171275	0.712689
C46	C	1.117438	0.058391	0.712690
C47	C	1.117429	0.058387	0.608589
C48	C	1.056580	0.114829	0.556538
H49	H	0.308675	0.248215	0.000101
C50	C	1.229417	-0.314762	0.000109
C51	C	1.296415	-0.334814	0.085989
C52	C	1.386957	-0.297939	0.085993
C53	C	1.410500	-0.241014	0.000117
C54	C	1.343500	-0.220960	-0.085769
C55	C	1.252959	-0.257834	-0.085773
H56	H	1.278989	-0.376956	0.149566
H57	H	1.436554	-0.312785	0.149572
H58	H	1.477524	-0.213717	0.000120
H59	H	1.360927	-0.178817	-0.149346
H60	H	1.203361	-0.242988	-0.149352
C61	C	0.624941	-0.043399	0.000119
C62	C	0.646588	-0.105649	-0.085752
C63	C	0.607039	-0.189858	-0.085737
C64	C	0.545843	-0.211816	0.000149
C65	C	0.524192	-0.149564	0.086025
C66	C	0.563741	-0.065356	0.086010
H67	H	0.691893	-0.089395	-0.149335
H68	H	0.623067	-0.235940	-0.149309
H69	H	0.516566	-0.274152	0.000160
H70	H	0.478887	-0.165818	0.149608
H71	H	0.547713	-0.019273	0.149582
H72	H	0.946165	0.217216	0.245120
C73	C	0.887164	-0.273451	0.000078
C74	C	0.865889	-0.211120	-0.085805
C75	C	0.777156	-0.152602	-0.085814
C76	C	0.709697	-0.156415	0.000061
C77	C	0.730970	-0.218749	0.085951
C78	C	0.819703	-0.277267	0.085959
H79	H	0.915828	-0.208295	-0.149380
H80	H	0.761409	-0.106459	-0.149395
H81	H	0.644011	-0.113097	0.000055
H82	H	0.681031	-0.221574	0.149526
H83	H	0.835451	-0.323411	0.149541
C84	C	1.184318	-0.003707	0.230256
C85	C	1.251241	-0.065791	0.287517
C86	C	1.318161	-0.127883	0.230271
C87	C	1.318158	-0.127892	0.115764
C88	C	1.251234	-0.065806	0.058496
C89	C	1.184314	-0.003713	0.115742
H90	H	1.251244	-0.065786	0.372288
H91	H	1.367703	-0.173844	0.272665
H92	H	1.367696	-0.173857	0.073387
H93	H	1.251230	-0.065810	-0.026275
H94	H	1.134772	0.042247	0.073348
C95	C	1.225973	-0.496873	0.000103
C96	C	1.293414	-0.493076	0.085992
C97	C	1.382152	-0.551587	0.085998
C98	C	1.403449	-0.613895	0.000116
C99	C	1.336006	-0.617695	-0.085779
C100	C	1.247268	-0.559184	-0.085786
H101	H	1.277650	-0.446949	0.149572
H102	H	1.432078	-0.548774	0.149584
H103	H	1.469139	-0.657209	0.000121
H104	H	1.351770	-0.663822	-0.149360
H105	H	1.197342	-0.561998	-0.149372
H106	H	0.347458	-0.026577	0.000133
C107	C	1.184346	-0.003697	0.551329
C108	C	1.182881	-0.098378	0.565654
C109	C	1.249797	-0.160463	0.508392
C110	C	1.318176	-0.127868	0.436804
C111	C	1.319642	-0.033183	0.422476
C112	C	1.252727	0.028903	0.479738
H113	H	1.132261	-0.122511	0.618650
H114	H	1.248710	-0.230556	0.518999
H115	H	1.367710	-0.173828	0.394416
H116	H	1.370263	-0.009050	0.369480
H117	H	1.253814	0.098995	0.469131
C118	C	0.820860	-0.039953	0.000097
C119	C	0.816852	-0.102658	0.085985
C120	C	0.879923	-0.185060	0.085994
C121	C	0.947002	-0.204758	0.000115
C122	C	0.951013	-0.142052	-0.085779
C123	C	0.887942	-0.059650	-0.085788
H124	H	0.767194	-0.088077	0.149563
H125	H	0.876954	-0.231479	0.149579
H126	H	0.993691	-0.265757	0.000122
H127	H	1.000671	-0.156632	-0.149357
H128	H	0.890911	-0.013231	-0.149373
C129	C	0.883723	-0.455569	0.000065
C130	C	0.881913	-0.550957	0.000064
C131	C	0.791372	-0.587833	0.000048
C132	C	0.702641	-0.529320	0.000034
C133	C	0.704448	-0.433925	0.000035
C134	C	0.794989	-0.397050	0.000051
H135	H	0.947600	-0.594278	0.000074
H136	H	0.790036	-0.658451	0.000047
H137	H	0.635618	-0.556617	0.000022
H138	H	0.638761	-0.390605	0.000025
H139	H	0.796326	-0.326432	0.000053
H140	H	1.166947	0.012425	0.433989
C141	C	0.928830	0.233357	0.769941
C142	C	0.861893	0.295430	0.712684
C143	C	0.794966	0.357513	0.769934
C144	C	0.794975	0.357523	0.884441
C145	C	0.861915	0.295447	0.941705
C146	C	0.928842	0.233364	0.884455
H147	H	0.861884	0.295424	0.627913
H148	H	0.745413	0.403465	0.727543
H149	H	0.745432	0.403481	0.926821
H150	H	0.861924	0.295453	1.026476
H151	H	0.978395	0.187412	0.926846
H152	H	0.765684	0.256242	0.000053
H153	H	0.596437	0.253267	0.000074
H154	H	0.477934	0.251189	0.000074
H155	H	0.516716	-0.023609	0.000122
H156	H	1.166983	0.012434	0.755077
H157	H	0.946192	0.217228	0.566204
H158	H	0.946183	0.217217	0.433986
