data_functionalizedCrystal
_audit_creation_method	'MofGen! by Chris Wilmer'
_symmetry_space_group_name_H-M	'P1'
_symmetry_Int_Tables_number	1
_symmetry_cell_setting	triclinic
loop_
_symmetry_equiv_pos_as_xyz
  x,y,z
_cell_length_a	15.995292
_cell_length_b	15.995292
_cell_length_c	15.072220
_cell_angle_alpha	90.002061
_cell_angle_beta	89.986330
_cell_angle_gamma	83.468616
loop_
_atom_site_label
_atom_site_type_symbol
_atom_site_fract_x
_atom_site_fract_y
_atom_site_fract_z
O1	O	1.111004	0.107692	-0.073800
O2	O	0.867219	0.121071	-0.073796
O3	O	0.995801	-0.007511	-0.073799
O4	O	0.982422	0.236274	-0.073797
O5	O	0.995769	-0.007504	0.073766
O6	O	0.867187	0.121078	0.073769
O7	O	1.110972	0.107699	0.073765
Zn8	Zn	0.989075	0.114390	0.097196
Zn9	Zn	0.989116	0.114380	-0.097227
O10	O	0.982390	0.236281	0.073769
C11	C	0.836008	0.120530	-0.000013
C12	C	0.743055	0.118898	-0.000012
C13	C	0.405318	0.112896	-0.000022
C14	C	0.428611	0.205703	-0.000350
C15	C	0.525286	0.207467	-0.000014
C16	C	0.572873	0.115874	-0.000017
C17	C	0.543763	0.069479	0.084246
C18	C	0.446973	0.068362	0.084313
C19	C	0.447154	0.066459	-0.083496
C20	C	0.543646	0.069898	-0.084606
C21	C	0.667569	0.117552	-0.000012
C22	C	0.310622	0.111215	-0.000021
C23	C	0.995240	-0.038703	-0.000019
C24	C	0.993608	-0.131655	-0.000026
C25	C	0.987607	-0.469393	-0.000018
C26	C	1.080413	-0.446100	0.000310
C27	C	1.082177	-0.349424	-0.000025
C28	C	0.990584	-0.301837	-0.000021
C29	C	0.944204	-0.330933	-0.084284
C30	C	0.943086	-0.427723	-0.084352
C31	C	0.941155	-0.427572	0.083457
C32	C	0.944594	-0.331080	0.084568
C33	C	0.992263	-0.207141	-0.000026
C34	C	0.985926	-0.564088	-0.000019
C35	C	1.142183	0.108240	-0.000020
C36	C	1.235136	0.109873	-0.000027
C37	C	0.982951	0.267473	-0.000014
C38	C	0.984583	0.360426	-0.000013
N39	N	0.989052	0.114396	0.229885
N40	N	0.989146	0.114368	-0.229916
C41	C	0.989115	0.114377	0.589087
C42	C	0.920082	0.182948	0.551482
C43	C	0.920240	0.183198	0.448656
C44	C	0.989083	0.114386	0.410883
C45	C	1.076446	0.133450	0.448173
C46	C	1.076059	0.133938	0.551030
C47	C	0.971563	0.026539	0.551186
C48	C	0.969558	0.027125	0.448323
C49	C	0.989070	0.114390	0.310169
C50	C	0.989133	0.114375	0.689800
H51	H	0.400620	0.241472	-0.060779
N52	N	0.411706	0.102928	-0.163613
N53	N	0.355171	0.163594	-0.160160
H54	H	0.330134	0.189359	-0.216738
H55	H	0.432436	0.000316	0.088138
N56	N	0.893361	0.003563	0.583761
N57	N	0.849611	0.051655	0.635314
H58	H	0.794375	0.035440	0.658317
H59	H	0.576631	0.003044	-0.089698
N60	N	0.413315	0.108695	0.163329
N61	N	0.423478	0.183739	0.178283
H62	H	0.399713	0.212229	0.234089
N63	N	0.566939	0.112288	-0.162803
N64	N	0.604927	0.176122	-0.156328
H65	H	0.621380	0.206065	-0.211553
N66	N	0.549133	0.253073	-0.075782
N67	N	0.520232	0.328392	-0.086059
H68	H	0.537062	0.360612	-0.139571
H69	H	0.970368	-0.455663	0.147329
N70	N	0.392181	0.250327	0.075036
N71	N	0.349138	0.214076	0.129003
H72	H	0.323409	0.245588	0.182247
N73	N	0.933934	0.264260	0.583904
N74	N	0.932938	0.278346	0.665494
H75	H	0.942723	0.335772	0.688395
H76	H	0.575645	0.002079	0.087377
N77	N	0.857735	-0.445987	-0.089148
N78	N	0.827915	-0.486960	-0.028540
H79	H	0.767637	-0.499860	-0.031931
N80	N	1.034719	-0.037469	0.581697
N81	N	1.092435	-0.018594	0.631138
H82	H	1.137041	-0.063793	0.652693
H83	H	0.876804	-0.299051	-0.087414
H84	H	0.976438	-0.310882	-0.146996
N85	N	0.429638	-0.019244	-0.084190
N86	N	0.386545	-0.046103	-0.023540
H87	H	0.374177	-0.106631	-0.024017
N88	N	0.838637	0.169242	0.417200
N89	N	0.808360	0.103049	0.437136
H90	H	0.750669	0.093306	0.414991
N91	N	0.986967	-0.307794	0.162765
N92	N	1.050800	-0.269801	0.156290
H93	H	1.080729	-0.253351	0.211515
N94	N	1.127748	-0.325570	0.075751
N95	N	1.158470	-0.380374	0.129254
H96	H	1.190660	-0.363532	0.182772
H97	H	0.975234	-0.454549	-0.147343
N98	N	0.548333	0.253393	0.075854
N99	N	0.492984	0.284234	0.128725
H100	H	0.509256	0.316695	0.182294
N101	N	0.860746	-0.289654	0.090983
N102	N	0.833395	-0.237679	0.033052
H103	H	0.774181	-0.208406	0.037587
N104	N	1.125269	-0.481235	0.076117
N105	N	1.089366	-0.523857	0.130788
H106	H	1.121046	-0.548679	0.184328
H107	H	0.905293	0.012657	0.423952
N108	N	0.568906	0.109907	0.162912
N109	N	0.608255	0.172877	0.157136
H110	H	0.626012	0.201434	0.212692
N111	N	1.125050	-0.482517	-0.075075
N112	N	1.088808	-0.525551	-0.129041
H113	H	1.120330	-0.551273	-0.182284
H114	H	0.872842	-0.441548	0.084028
N115	N	0.838361	0.168937	0.582571
N116	N	0.823186	0.169636	0.663942
H117	H	0.765469	0.159738	0.685909
H118	H	0.931446	0.248382	0.424042
H119	H	1.118743	-0.331030	-0.060535
N120	N	1.095469	0.214300	0.581108
N121	N	1.109205	0.269636	0.526135
H122	H	1.122913	0.326395	0.547372
N123	N	1.142434	0.073662	0.582227
N124	N	1.188899	0.031375	0.528031
H125	H	1.235779	-0.011191	0.550059
N126	N	1.142422	0.072457	0.417475
N127	N	1.125749	0.014120	0.367651
H128	H	1.172343	-0.028959	0.345969
H129	H	1.016573	-0.026291	0.422613
N130	N	1.096312	0.212895	0.415839
N131	N	1.046275	0.255603	0.365344
H132	H	1.060300	0.311713	0.342508
