data_functionalizedCrystal
_audit_creation_method	'MofGen! by Chris Wilmer'
_symmetry_space_group_name_H-M	'P1'
_symmetry_Int_Tables_number	1
_symmetry_cell_setting	triclinic
loop_
_symmetry_equiv_pos_as_xyz
  x,y,z
_cell_length_a	13.033293
_cell_length_b	21.295417
_cell_length_c	13.033429
_cell_angle_alpha	82.776125
_cell_angle_beta	90.866667
_cell_angle_gamma	97.198682
loop_
_atom_site_label
_atom_site_type_symbol
_atom_site_fract_x
_atom_site_fract_y
_atom_site_fract_z
Zn1	Zn	1.498510	-0.076237	-0.781517
Zn2	Zn	1.831843	0.257097	-0.448183
Zn3	Zn	2.165177	0.590430	-0.114850
Zn4	Zn	1.520199	-0.193025	-0.609510
Zn5	Zn	1.853532	0.140308	-0.276177
Zn6	Zn	2.186865	0.473642	0.057156
Zn7	Zn	1.348344	-0.102580	-0.587675
Zn8	Zn	1.681677	0.230754	-0.254342
Zn9	Zn	2.015010	0.564087	0.078992
Zn10	Zn	1.326462	-0.196302	-0.759559
Zn11	Zn	1.659796	0.137031	-0.426226
Zn12	Zn	1.993129	0.470365	-0.092893
O13	O	1.423379	-0.142036	-0.684565
O14	O	1.756712	0.191298	-0.351232
O15	O	2.090045	0.524631	-0.017899
O16	O	1.645311	-0.079333	-0.777027
O17	O	1.978645	0.254001	-0.443694
O18	O	2.311978	0.587334	-0.110360
O19	O	1.515636	-0.190680	-0.462695
O20	O	1.848969	0.142653	-0.129361
O21	O	2.182303	0.475986	0.203972
O22	O	1.368344	-0.010986	-0.613440
O23	O	1.701677	0.322348	-0.280106
O24	O	2.035011	0.655681	0.053227
O25	O	1.661246	-0.165137	-0.650655
O26	O	1.994579	0.168197	-0.317322
O27	O	2.327913	0.501530	0.016012
O28	O	1.478671	0.008368	-0.755854
O29	O	1.812004	0.341702	-0.422521
O30	O	2.145337	0.675035	-0.089187
O31	O	1.389375	-0.124230	-0.446652
O32	O	1.722708	0.209103	-0.113319
O33	O	2.056041	0.542436	0.220014
O34	O	1.201517	-0.127408	-0.592148
O35	O	1.534850	0.205925	-0.258815
O36	O	1.868183	0.539259	0.074518
O37	O	1.331051	-0.170722	-0.906391
O38	O	1.664384	0.162611	-0.573058
O39	O	1.997717	0.495945	-0.239725
O40	O	1.185440	-0.196266	-0.718431
O41	O	1.518774	0.137068	-0.385098
O42	O	1.852107	0.470401	-0.051764
O43	O	1.457453	-0.082510	-0.922523
O44	O	1.790787	0.250823	-0.589190
O45	O	2.124120	0.584156	-0.255856
O46	O	1.494419	-0.281559	-0.629364
O47	O	1.827752	0.051774	-0.296030
O48	O	2.161085	0.385108	0.037303
O49	O	1.352081	-0.283967	-0.739604
O50	O	1.685415	0.049367	-0.406271
O51	O	2.018748	0.382700	-0.072937
C52	C	1.156160	-0.165051	-0.650538
C53	C	1.489494	0.168282	-0.317205
C54	C	1.822827	0.501615	0.016128
C55	C	1.041840	-0.174911	-0.636006
C56	C	1.375173	0.158422	-0.302672
C57	C	1.708507	0.491756	0.030661
C58	C	0.982976	-0.136906	-0.692150
C59	C	1.316309	0.196428	-0.358817
C60	C	1.649643	0.529761	-0.025483
C61	C	0.864820	-0.147095	-0.677131
C62	C	1.198153	0.186238	-0.343798
C63	C	1.531486	0.519571	-0.010464
C64	C	1.423254	-0.305602	-0.684497
C65	C	1.756587	0.027731	-0.351163
C66	C	2.089921	0.361064	-0.017830
C67	C	1.423291	-0.375566	-0.684514
C68	C	1.756624	-0.042233	-0.351180
C69	C	2.089957	0.291100	-0.017847
C70	C	1.480694	-0.398298	-0.758711
C71	C	1.814027	-0.064965	-0.425378
C72	C	2.147361	0.268369	-0.092044
C73	C	1.480727	-0.464036	-0.758741
C74	C	1.814060	-0.130702	-0.425408
C75	C	2.147394	0.202631	-0.092074
C76	C	1.423370	-0.507039	-0.684557
C77	C	1.756703	-0.173706	-0.351223
C78	C	2.090037	0.159627	-0.017890
C79	C	1.365954	-0.484301	-0.610353
C80	C	1.699288	-0.150968	-0.277020
C81	C	2.032621	0.182366	0.056314
C82	C	1.365915	-0.418564	-0.610331
C83	C	1.699248	-0.085231	-0.276998
C84	C	2.032581	0.248102	0.056335
N85	N	1.427026	-0.616992	-0.593564
N86	N	1.760359	-0.283659	-0.260231
N87	N	2.093693	0.049675	0.073103
N88	N	1.427069	-0.679438	-0.593588
N89	N	1.760403	-0.346105	-0.260255
N90	N	2.093736	-0.012771	0.073079
C91	C	1.423484	-0.705101	-0.684618
C92	C	1.756817	-0.371767	-0.351285
C93	C	2.090151	-0.038434	-0.017952
N94	N	1.419874	-0.665956	-0.775628
N95	N	1.753207	-0.332622	-0.442295
N96	N	2.086541	0.000711	-0.108961
N97	N	1.419836	-0.603503	-0.775603
N98	N	1.753170	-0.270170	-0.442270
N99	N	2.086503	0.063163	-0.108937
C100	C	1.423406	-0.578321	-0.684572
C101	C	1.756739	-0.244987	-0.351239
C102	C	2.090073	0.088346	-0.017905
C103	C	1.480926	-0.799112	-0.758854
C104	C	1.814260	-0.465779	-0.425521
C105	C	2.147593	-0.132445	-0.092188
C106	C	1.480952	-0.864851	-0.758885
C107	C	1.814285	-0.531518	-0.425552
C108	C	2.147619	-0.198185	-0.092218
C109	C	1.366186	-0.885115	-0.610488
C110	C	1.699519	-0.551782	-0.277155
C111	C	2.032852	-0.218449	0.056178
C112	C	1.366153	-0.819377	-0.610466
C113	C	1.699487	-0.486044	-0.277133
C114	C	2.032820	-0.152711	0.056201
C115	C	1.423529	-0.776379	-0.684648
C116	C	1.756863	-0.443046	-0.351315
C117	C	2.090196	-0.109712	-0.017982
C118	C	1.691640	-0.118931	-0.718726
C119	C	2.024974	0.214403	-0.385393
C120	C	2.358307	0.547736	-0.052059
C121	C	1.805957	-0.109085	-0.733283
C122	C	2.139291	0.224249	-0.399950
C123	C	2.472624	0.557582	-0.066616
C124	C	1.389392	-0.124043	-0.952817
C125	C	1.722725	0.209290	-0.619484
C126	C	2.056058	0.542623	-0.286151
C127	C	1.374909	-0.116376	-1.067130
C128	C	1.708242	0.216957	-0.733797
C129	C	2.041575	0.550291	-0.400463
C130	C	1.423529	0.022173	-0.684660
C131	C	1.756862	0.355507	-0.351327
C132	C	2.090195	0.688840	-0.017994
C133	C	1.423593	0.092149	-0.684701
C134	C	1.756926	0.425483	-0.351368
C135	C	2.090259	0.758816	-0.018034
C136	C	1.415961	-0.137920	-1.244177
C137	C	1.749294	0.195414	-0.910844
C138	C	2.082628	0.528747	-0.577511
C139	C	1.430930	-0.145841	-1.126029
C140	C	1.764264	0.187492	-0.792696
C141	C	2.097597	0.520826	-0.459362
C142	C	1.457292	-0.159908	-0.417365
C143	C	1.790626	0.173426	-0.084031
C144	C	2.123959	0.506759	0.249302
C145	C	1.471975	-0.167381	-0.303078
C146	C	1.805308	0.165953	0.030256
C147	C	2.138642	0.499286	0.363589
H148	H	1.004762	-0.214991	-0.576818
H149	H	1.338095	0.118342	-0.243485
H150	H	1.671429	0.451675	0.089849
H151	H	1.319251	-0.519319	-0.549953
H152	H	1.652584	-0.185985	-0.216620
H153	H	1.985918	0.147348	0.116713
Br154	Br	1.558555	-0.339946	-0.859391
Br155	Br	1.891888	-0.006613	-0.526057
Br156	Br	2.225221	0.326720	-0.192724
H157	H	1.531017	-0.198465	-1.266036
H158	H	1.864350	0.134869	-0.932703
H159	H	2.197683	0.468202	-0.599370
H160	H	1.319477	-0.920129	-0.550092
H161	H	1.652810	-0.586795	-0.216758
H162	H	1.986144	-0.253462	0.116575
Br163	Br	1.558845	-0.895703	-0.859605
Br164	Br	1.892179	-0.562369	-0.526272
Br165	Br	2.225512	-0.229036	-0.192938
Br166	Br	1.558788	-0.740754	-0.859529
Br167	Br	1.892122	-0.407421	-0.526196
Br168	Br	2.225455	-0.074087	-0.192863
H169	H	1.315871	-0.085283	-1.104167
H170	H	1.649205	0.248050	-0.770833
H171	H	1.982538	0.581384	-0.437500
H172	H	0.843031	-0.068997	-0.792468
H173	H	1.176364	0.264336	-0.459135
H174	H	1.509697	0.597669	-0.125801
Br175	Br	1.529348	-0.197653	-1.064307
Br176	Br	1.862681	0.135681	-0.730974
Br177	Br	2.196014	0.469014	-0.397641
Br178	Br	1.044765	-0.070095	-0.790795
Br179	Br	1.378098	0.263239	-0.457462
Br180	Br	1.711432	0.596572	-0.124129
Br181	Br	1.558643	-0.494895	-0.859440
Br182	Br	1.891976	-0.161562	-0.526107
Br183	Br	2.225310	0.171771	-0.192774
H184	H	1.319415	-0.800868	-0.550044
H185	H	1.652748	-0.467535	-0.216710
H186	H	1.986082	-0.134201	0.116623
H187	H	0.827746	-0.187178	-0.617939
H188	H	1.161079	0.146155	-0.284606
H189	H	1.494413	0.479488	0.048728
Br190	Br	1.288000	-0.387712	-0.509630
Br191	Br	1.621334	-0.054378	-0.176296
Br192	Br	1.954667	0.278955	0.157037
H193	H	1.356927	-0.106830	-1.281220
H194	H	1.690260	0.226503	-0.947886
H195	H	2.023594	0.559836	-0.614553
