data_functionalizedCrystal
_audit_creation_method	'MofGen! by Chris Wilmer'
_symmetry_space_group_name_H-M	'P1'
_symmetry_Int_Tables_number	1
_symmetry_cell_setting	triclinic
loop_
_symmetry_equiv_pos_as_xyz
  x,y,z
_cell_length_a	17.699104
_cell_length_b	17.699097
_cell_length_c	10.868271
_cell_angle_alpha	90.007932
_cell_angle_beta	90.004127
_cell_angle_gamma	96.710026
loop_
_atom_site_label
_atom_site_type_symbol
_atom_site_fract_x
_atom_site_fract_y
_atom_site_fract_z
O1	O	0.095754	-1.004077	-0.102409
O2	O	0.108196	-0.783701	-0.102387
O3	O	-0.008213	-0.900107	-0.102408
O4	O	0.212163	-0.887671	-0.102389
O5	O	-0.008209	-0.900096	0.102236
O6	O	0.108200	-0.783690	0.102257
O7	O	0.095758	-1.004066	0.102235
Zn8	Zn	0.101980	-0.893877	0.134738
Zn9	Zn	0.101975	-0.893891	-0.134890
O10	O	0.212167	-0.887660	0.102256
C11	C	-0.036407	-0.899653	-0.000091
C12	C	-0.120425	-0.898308	-0.000106
C13	C	0.107751	-0.755499	-0.000063
C14	C	0.106408	-0.671481	-0.000055
C15	C	0.096204	-1.032268	-0.000092
C16	C	0.097546	-1.116286	-0.000108
C17	C	0.240362	-0.888114	-0.000064
C18	C	0.324379	-0.889459	-0.000057
C19	C	0.849247	-0.828715	-0.000098
C20	C	0.770303	-0.827456	-0.000086
C21	C	0.721689	-0.895791	-0.000089
C22	C	0.752022	-0.965389	-0.000092
C23	C	0.830965	-0.966648	-0.000096
C24	C	0.433656	-0.960316	-0.000074
C25	C	0.354709	-0.959053	-0.000073
C26	C	0.372995	-0.821125	-0.000063
C27	C	0.451937	-0.822383	-0.000067
C28	C	0.482263	-0.891981	-0.000064
C29	C	0.567863	-0.893345	-0.000076
C30	C	0.636090	-0.894427	-0.000086
C31	C	0.098177	-0.155768	-0.111657
C32	C	0.099433	-0.234712	-0.111651
C33	C	0.100064	-0.274172	-0.000094
C34	C	0.099432	-0.234685	0.111464
C35	C	0.098170	-0.155743	0.111456
C36	C	0.104519	-0.553050	0.111497
C37	C	0.105783	-0.631997	0.111496
C38	C	0.105782	-0.632019	-0.111611
C39	C	0.104520	-0.553077	-0.111618
C40	C	0.103884	-0.513597	-0.000061
C41	C	0.102520	-0.427997	-0.000069
C42	C	0.101433	-0.359770	-0.000085
N43	N	0.101983	-0.893873	0.318752
N44	N	0.101966	-0.893900	-0.318904
C45	C	0.101983	-0.893879	0.430090
C46	C	0.101976	-0.893889	0.569767
H47	H	0.745614	-0.770787	-0.000089
H48	H	0.712434	-1.021029	-0.000086
O49	O	0.099908	-0.273000	0.219862
C50	C	0.034774	-0.305787	0.410582
C51	C	0.034128	-0.262378	0.287851
H52	H	-0.018395	-0.297201	0.465597
H53	H	0.035738	-0.369006	0.391499
H54	H	0.087496	-0.283245	0.465548
H55	H	-0.018586	-0.284856	0.232823
H56	H	0.033205	-0.199164	0.307021
O57	O	0.463069	-1.027941	-0.000296
C58	C	0.471538	-1.146247	-0.106285
C59	C	0.438191	-1.069676	-0.106202
H60	H	0.451425	-1.180018	-0.191889
H61	H	0.536314	-1.135464	-0.106360
H62	H	0.451521	-1.179969	-0.020606
H63	H	0.458150	-1.035915	-0.191867
H64	H	0.373419	-1.080513	-0.106063
H65	H	0.103990	-0.520917	0.202333
H66	H	0.888824	-0.773069	-0.000102
O67	O	0.106528	-0.670321	-0.220012
C68	C	0.172440	-0.685773	-0.410723
C69	C	0.171693	-0.642352	-0.287997
H70	H	0.225112	-0.663166	-0.465735
H71	H	0.173497	-0.748975	-0.391634
H72	H	0.119224	-0.677287	-0.465696
H73	H	0.224899	-0.650775	-0.232963
H74	H	0.170597	-0.579165	-0.307174
O75	O	0.097668	-0.117508	-0.220103
C76	C	0.162847	-0.084651	-0.410760
C77	C	0.163511	-0.128026	-0.288000
H78	H	0.216083	-0.093127	-0.465678
H79	H	0.110184	-0.107208	-0.465862
H80	H	0.161802	-0.021455	-0.391576
H81	H	0.164583	-0.191229	-0.307072
H82	H	0.216168	-0.105408	-0.232936
H83	H	0.855656	-1.023317	-0.000100
H84	H	0.099941	-0.266855	-0.202486
H85	H	0.106297	-0.664123	0.202344
O86	O	0.104041	-0.514695	-0.219953
C87	C	0.168130	-0.416860	-0.349409
C88	C	0.168780	-0.460277	-0.226687
H89	H	0.220457	-0.372843	-0.354883
H90	H	0.168843	-0.458600	-0.429186
H91	H	0.114569	-0.386959	-0.354975
H92	H	0.222332	-0.490180	-0.221001
H93	H	0.168026	-0.418501	-0.146968
H94	H	0.348294	-0.764455	-0.000060
O95	O	0.097659	-0.117291	0.219737
C96	C	0.161797	-0.019488	0.349258
C97	C	0.162466	-0.062961	0.226571
H98	H	0.214195	0.024437	0.354835
H99	H	0.108294	0.010505	0.354842
H100	H	0.162429	-0.061269	0.428973
H101	H	0.161861	-0.021231	0.146787
H102	H	0.215964	-0.092966	0.221096
O103	O	0.499083	-0.755953	-0.000227
C104	C	0.538889	-0.638471	-0.106267
C105	C	0.485444	-0.713669	-0.106231
H106	H	0.527892	-0.604271	-0.191974
H107	H	0.527873	-0.604159	-0.020676
H108	H	0.600515	-0.651343	-0.106211
H109	H	0.423799	-0.700866	-0.106329
H110	H	0.496526	-0.747959	-0.191814
H111	H	0.315128	-1.014703	-0.000076
