data_functionalizedCrystal
_audit_creation_method	'MofGen! by Chris Wilmer'
_symmetry_space_group_name_H-M	'P1'
_symmetry_Int_Tables_number	1
_symmetry_cell_setting	triclinic
loop_
_symmetry_equiv_pos_as_xyz
  x,y,z
_cell_length_a	14.519709
_cell_length_b	16.109302
_cell_length_c	14.586319
_cell_angle_alpha	89.994552
_cell_angle_beta	89.995260
_cell_angle_gamma	83.570963
loop_
_atom_site_label
_atom_site_type_symbol
_atom_site_fract_x
_atom_site_fract_y
_atom_site_fract_z
O1	O	0.118543	1.103336	-0.076283
O2	O	0.133295	0.861299	-0.076277
O3	O	-0.008333	0.988735	-0.076272
O4	O	0.260171	0.975900	-0.076288
O5	O	-0.008335	0.988726	0.076209
O6	O	0.133292	0.861290	0.076204
O7	O	0.118541	1.103327	0.076197
Cu8	Cu	0.125917	0.982308	0.090124
Cu9	Cu	0.125919	0.982318	-0.090203
O10	O	0.260169	0.975891	0.076193
C11	C	0.132696	0.830319	-0.000035
C12	C	0.130904	0.738021	-0.000032
C13	C	0.126760	0.525668	0.083076
C14	C	0.125066	0.438945	0.083073
C15	C	0.125073	0.438965	-0.083170
C16	C	0.126760	0.525687	-0.083166
C17	C	0.127608	0.569036	-0.000040
C18	C	0.124228	0.395590	-0.000047
C19	C	0.122391	0.301562	-0.000051
C20	C	0.129442	0.663071	-0.000036
C21	C	-0.042693	0.988132	-0.000031
C22	C	-0.145070	0.986340	-0.000031
C23	C	-0.519952	0.979741	-0.000054
C24	C	-0.415648	0.981574	-0.000048
C25	C	-0.332514	0.983040	-0.000042
C26	C	-0.228204	0.984873	-0.000037
C27	C	0.294528	0.976494	-0.000050
C28	C	0.396906	0.978286	-0.000056
C29	C	0.119140	1.134307	-0.000046
C30	C	0.120932	1.226605	-0.000055
N31	N	0.125914	0.982306	0.216955
N32	N	0.125914	0.982326	-0.217034
C33	C	0.063222	1.038754	0.451964
C34	C	0.063220	1.038756	0.547945
C35	C	0.188609	0.925873	0.547950
C36	C	0.188606	0.925867	0.451971
C37	C	0.125914	0.982312	0.403980
C38	C	0.125914	0.982320	0.595941
C39	C	0.125913	0.982323	0.700008
C40	C	0.125914	0.982309	0.299906
H41	H	0.124384	0.403660	-0.150848
C42	C	-0.005744	1.100835	0.399173
C43	C	-0.074707	1.162915	0.451960
C44	C	-0.143678	1.224997	0.399173
C45	C	-0.143686	1.224998	0.293599
C46	C	-0.074721	1.162915	0.240807
C47	C	-0.005750	1.100834	0.293594
H48	H	-0.074703	1.162917	0.530117
H49	H	-0.194731	1.270954	0.438254
H50	H	-0.194742	1.270954	0.254523
H51	H	-0.074724	1.162914	0.162649
H52	H	0.045303	1.054876	0.254513
C53	C	0.257575	0.863792	0.600741
C54	C	0.257637	0.863839	0.706314
C55	C	0.326608	0.801758	0.759101
C56	C	0.395517	0.739629	0.706315
C57	C	0.395458	0.739579	0.600735
C58	C	0.326487	0.801661	0.547948
H59	H	0.206624	0.909832	0.745395
H60	H	0.326651	0.801795	0.837259
H61	H	0.446574	0.693673	0.745391
H62	H	0.446471	0.693586	0.561654
H63	H	0.326444	0.801623	0.469791
H64	H	0.012170	1.084715	0.587011
H65	H	0.127450	0.560960	0.150763
C66	C	0.124134	0.391240	0.174503
C67	C	0.125064	0.438925	0.265933
C68	C	0.124129	0.391221	0.357367
C69	C	0.122265	0.295831	0.357370
C70	C	0.121335	0.248140	0.265937
C71	C	0.122270	0.295844	0.174503
H72	H	0.126444	0.509544	0.265934
H73	H	0.124817	0.426526	0.425053
H74	H	0.121573	0.260518	0.425055
H75	H	0.119955	0.177522	0.265936
H76	H	0.121582	0.260540	0.106817
C77	C	0.127695	0.573398	-0.174600
C78	C	0.126774	0.525719	-0.266035
C79	C	0.127705	0.573431	-0.357464
C80	C	0.129556	0.668823	-0.357458
C81	C	0.130477	0.716507	-0.266019
C82	C	0.129546	0.668795	-0.174590
H83	H	0.125404	0.455100	-0.266043
H84	H	0.127023	0.538132	-0.425153
H85	H	0.130245	0.704142	-0.425139
H86	H	0.131847	0.787127	-0.266012
H87	H	0.130228	0.704095	-0.106901
H88	H	0.239657	0.879902	0.412900
