data_functionalizedCrystal
_audit_creation_method	'MofGen! by Chris Wilmer'
_symmetry_space_group_name_H-M	'P1'
_symmetry_Int_Tables_number	1
_symmetry_cell_setting	triclinic
loop_
_symmetry_equiv_pos_as_xyz
  x,y,z
_cell_length_a	18.101398
_cell_length_b	16.625546
_cell_length_c	16.625539
_cell_angle_alpha	90.030397
_cell_angle_beta	89.974087
_cell_angle_gamma	89.982266
loop_
_atom_site_label
_atom_site_type_symbol
_atom_site_fract_x
_atom_site_fract_y
_atom_site_fract_z
Zn1	Zn	1.132177	0.321102	-0.456013
Zn2	Zn	1.632177	0.821102	0.043987
Zn3	Zn	1.132088	0.455945	-0.321175
Zn4	Zn	1.632088	0.955945	0.178825
Zn5	Zn	1.008333	0.321119	-0.321181
Zn6	Zn	1.508333	0.821119	0.178819
Zn7	Zn	1.008305	0.455885	-0.455952
Zn8	Zn	1.508305	0.955885	0.044048
O9	O	1.070226	0.388513	-0.388580
O10	O	1.570226	0.888513	0.111420
O11	O	1.235798	0.339007	-0.438149
O12	O	1.735798	0.839007	0.061851
O13	O	1.115646	0.438092	-0.208343
O14	O	1.615646	0.938092	0.291657
O15	O	1.024809	0.208284	-0.339094
O16	O	1.524809	0.708284	0.160906
O17	O	1.235733	0.438076	-0.339084
O18	O	1.735733	0.938076	0.160916
O19	O	1.115797	0.208272	-0.438154
O20	O	1.615797	0.708272	0.061846
O21	O	1.024723	0.339036	-0.208347
O22	O	1.524723	0.839036	0.291653
O23	O	0.904696	0.338978	-0.339035
O24	O	1.404696	0.838978	0.160965
O25	O	1.024763	0.437974	-0.568793
O26	O	1.524763	0.937974	-0.068793
O27	O	0.904676	0.437990	-0.438051
O28	O	1.404676	0.937990	0.061949
O29	O	1.115771	0.338949	-0.568837
O30	O	1.615771	0.838949	-0.068837
O31	O	1.115620	0.568770	-0.339026
O32	O	1.615620	1.068770	0.160974
O33	O	1.024677	0.568725	-0.438046
O34	O	1.524677	1.068725	0.061954
C35	C	1.070156	0.598004	-0.388546
C36	C	1.570156	1.098004	0.111454
C37	C	1.070193	0.687625	-0.388559
C38	C	1.570193	1.187625	0.111441
C39	C	0.877815	0.388480	-0.388538
C40	C	1.377815	0.888480	0.111462
C41	C	0.795501	0.388485	-0.388539
C42	C	1.295501	0.888485	0.111461
C43	C	1.070274	0.388453	-0.598889
C44	C	1.570274	0.888453	-0.098889
C45	C	1.070294	0.388427	-0.688510
C46	C	1.570294	0.888427	-0.188510
C47	C	0.496410	0.388536	-0.388607
C48	C	0.996410	0.888536	0.111393
C49	C	0.527723	0.325929	-0.326612
C50	C	1.027723	0.825929	0.173388
C51	C	0.613341	0.326097	-0.326348
C52	C	1.113341	0.826097	0.173652
C53	C	0.644793	0.388510	-0.388573
C54	C	1.144793	0.888510	0.111427
C55	C	0.613686	0.473447	-0.365354
C56	C	1.113686	0.973447	0.134646
C57	C	0.528041	0.473099	-0.364923
C58	C	1.028041	0.973099	0.135077
C59	C	0.528024	0.366944	-0.473966
C60	C	1.028024	0.866944	0.026034
C61	C	0.613675	0.365053	-0.473500
C62	C	1.113675	0.865053	0.026500
C63	C	0.728652	0.388501	-0.388556
C64	C	1.228652	0.888501	0.111444
C65	C	0.412551	0.388551	-0.388622
C66	C	0.912551	0.888551	0.111378
C67	C	1.263388	0.388546	-0.388623
C68	C	1.763388	0.888546	0.111377
C69	C	1.345702	0.388560	-0.388641
C70	C	1.845702	0.888560	0.111359
C71	C	1.070316	0.178204	-0.388632
C72	C	1.570316	0.678204	0.111368
C73	C	1.070355	0.088583	-0.388654
C74	C	1.570355	0.588583	0.111346
C75	C	1.070323	1.015800	-0.388643
C76	C	1.570323	1.515800	0.111357
C77	C	1.070284	0.924492	-0.388622
C78	C	1.570284	1.424492	0.111378
C79	C	1.070257	0.851715	-0.388600
C80	C	1.570257	1.351715	0.111400
C81	C	1.070220	0.760401	-0.388580
C82	C	1.570220	1.260401	0.111420
C83	C	1.070329	0.388337	-1.016686
C84	C	1.570329	0.888337	-0.516686
C85	C	1.070317	0.388365	-0.925378
C86	C	1.570317	0.888365	-0.425378
C87	C	1.070312	0.388383	-0.852601
C88	C	1.570312	0.888383	-0.352601
C89	C	1.070300	0.388409	-0.761287
C90	C	1.570300	0.888409	-0.261287
C91	C	1.070220	0.388514	-0.179089
C92	C	1.570220	0.888514	0.320911
C93	C	1.070343	0.388313	-0.089469
C94	C	1.570343	0.888313	0.410531
H95	H	0.634374	0.263112	-0.340902
H96	H	1.134374	0.763112	0.159098
O97	O	0.500591	0.536983	-0.422116
O98	O	1.000591	1.036983	0.077884
H99	H	0.466561	0.508508	-0.469789
H100	H	0.966561	1.008508	0.030211
O101	O	0.640668	0.536901	-0.423285
O102	O	1.140668	1.036901	0.076715
H103	H	0.676625	0.508505	-0.469348
H104	H	1.176625	1.008505	0.030652
O105	O	0.640614	0.282261	-0.496698
O106	O	1.140614	0.782261	0.003302
H107	H	0.618382	0.266127	-0.556784
H108	H	1.118382	0.766127	-0.056784
O109	O	0.642055	0.498128	-0.283591
O110	O	1.142055	0.998128	0.216409
H111	H	0.619685	0.558280	-0.267845
H112	H	1.119685	1.058280	0.232155
O113	O	0.642018	0.421074	-0.537957
O114	O	1.142018	0.921074	-0.037957
H115	H	0.703239	0.417928	-0.540082
H116	H	1.203239	0.917928	-0.040082
H117	H	0.506444	0.306086	-0.495077
H118	H	1.006444	0.806086	0.004923
O119	O	0.501196	0.427335	-0.535160
O120	O	1.001196	0.927335	-0.035160
H121	H	0.520237	0.488366	-0.517769
H122	H	1.020237	0.988366	-0.017769
H123	H	0.633795	0.340370	-0.263097
H124	H	1.133795	0.840370	0.236903
O125	O	0.500414	0.242258	-0.345661
O126	O	1.000414	0.742258	0.154339
H127	H	0.518819	0.224954	-0.406968
H128	H	1.018819	0.724954	0.093032
O129	O	0.499204	0.344629	-0.243309
O130	O	0.999204	0.844629	0.256691
H131	H	0.462823	0.398319	-0.245868
H132	H	0.962823	0.898319	0.254132
H133	H	0.508030	0.491410	-0.302521
H134	H	1.008030	0.991410	0.197479
