data_functionalizedCrystal
_audit_creation_method	'MofGen! by Chris Wilmer'
_symmetry_space_group_name_H-M	'P1'
_symmetry_Int_Tables_number	1
_symmetry_cell_setting	triclinic
loop_
_symmetry_equiv_pos_as_xyz
  x,y,z
_cell_length_a	29.839134
_cell_length_b	29.839131
_cell_length_c	29.839135
_cell_angle_alpha	90.007589
_cell_angle_beta	90.016207
_cell_angle_gamma	90.036281
loop_
_atom_site_label
_atom_site_type_symbol
_atom_site_fract_x
_atom_site_fract_y
_atom_site_fract_z
Zn1	Zn	0.686694	-0.179023	0.254125
Zn2	Zn	1.186694	0.320977	0.754125
Zn3	Zn	0.686634	-0.254122	0.178995
Zn4	Zn	1.186634	0.245878	0.678995
Zn5	Zn	0.611584	-0.179000	0.178995
Zn6	Zn	1.111584	0.321000	0.678995
Zn7	Zn	0.611524	-0.254120	0.254083
Zn8	Zn	1.111524	0.245880	0.754083
O9	O	0.649109	-0.216566	0.216549
O10	O	1.149109	0.283434	0.716549
O11	O	0.749553	-0.188995	0.244176
O12	O	1.249553	0.311005	0.744176
O13	O	0.676678	-0.244148	0.116128
O14	O	1.176678	0.255852	0.616128
O15	O	0.621598	-0.116136	0.188978
O16	O	1.121598	0.383864	0.688978
O17	O	0.749509	-0.244170	0.188979
O18	O	1.249509	0.255830	0.688979
O19	O	0.676781	-0.116153	0.244176
O20	O	1.176781	0.383847	0.744176
O21	O	0.621540	-0.188956	0.116127
O22	O	1.121540	0.311044	0.616127
O23	O	0.548709	-0.188954	0.188938
O24	O	1.048709	0.311046	0.688938
O25	O	0.621496	-0.244167	0.316956
O26	O	1.121496	0.255833	0.816956
O27	O	0.548665	-0.244144	0.244105
O28	O	1.048665	0.255856	0.744105
O29	O	0.676723	-0.188994	0.316987
O30	O	1.176723	0.311006	0.816987
O31	O	0.676620	-0.316988	0.188938
O32	O	1.176620	0.183012	0.688938
O33	O	0.621438	-0.316987	0.244105
O34	O	1.121438	0.183013	0.744105
C35	C	0.532387	-0.216547	0.216517
C36	C	1.032387	0.283453	0.716517
C37	C	0.482452	-0.216550	0.216514
C38	C	0.982452	0.283450	0.716514
C39	C	0.172795	-0.245346	0.245240
C40	C	0.672795	0.254654	0.745240
C41	C	-0.014878	-0.245359	0.245260
C42	C	0.485122	0.254641	0.745260
O43	O	-0.039154	-0.269821	0.269665
O44	O	0.460846	0.230179	0.769665
N45	N	-0.038333	-0.216582	0.216583
N46	N	0.461667	0.283418	0.716583
C47	C	-0.014867	-0.187799	0.187902
C48	C	0.485133	0.312201	0.687902
O49	O	-0.039123	-0.163320	0.163514
O50	O	0.460877	0.336680	0.663514
C51	C	0.172805	-0.187784	0.187884
C52	C	0.672805	0.312216	0.687884
C53	C	0.196258	-0.216566	0.216560
C54	C	0.696258	0.283434	0.716560
C55	C	0.196248	-0.274125	0.273913
C56	C	0.696248	0.225875	0.773913
C57	C	0.243164	-0.274123	0.273906
C58	C	0.743164	0.225877	0.773906
C59	C	0.266626	-0.245343	0.245226
C60	C	0.766626	0.254657	0.745226
C61	C	0.243173	-0.216564	0.216553
C62	C	0.743173	0.283436	0.716553
C63	C	0.196270	-0.158999	0.159205
C64	C	0.696270	0.341001	0.659205
C65	C	0.243191	-0.158997	0.159204
C66	C	0.743191	0.341003	0.659204
C67	C	0.266644	-0.187778	0.187880
C68	C	0.766644	0.312222	0.687880
C69	C	0.313551	-0.187782	0.187865
C70	C	0.813551	0.312218	0.687865
N71	N	0.337007	-0.216558	0.216542
N72	N	0.837007	0.283442	0.716542
C73	C	0.313544	-0.245338	0.245222
C74	C	0.813544	0.254662	0.745222
C75	C	-0.113398	-0.187809	0.187912
C76	C	0.386602	0.312191	0.687912
C77	C	-0.160316	-0.187813	0.187916
C78	C	0.339684	0.312187	0.687916
C79	C	-0.160323	-0.245373	0.245275
C80	C	0.339677	0.254627	0.745275
C81	C	-0.113404	-0.245371	0.245268
C82	C	0.386596	0.254629	0.745268
C83	C	-0.089942	-0.216585	0.216589
C84	C	0.410058	0.283415	0.716589
C85	C	0.412070	-0.245333	0.245205
C86	C	0.912070	0.254667	0.745205
C87	C	0.458990	-0.245330	0.245194
C88	C	0.958990	0.254670	0.745194
C89	C	0.458993	-0.187769	0.187837
C90	C	0.958993	0.312231	0.687837
C91	C	0.412077	-0.187773	0.187846
C92	C	0.912077	0.312227	0.687846
C93	C	0.388617	-0.216557	0.216534
C94	C	0.888617	0.283443	0.716534
O95	O	0.337857	-0.163328	0.163477
O96	O	0.837857	0.336672	0.663477
O97	O	0.337809	-0.269807	0.269613
O98	O	0.837809	0.230193	0.769613
C99	C	0.125880	-0.245348	0.245247
C100	C	0.625880	0.254652	0.745247
C101	C	0.102427	-0.216569	0.216574
C102	C	0.602427	0.283431	0.716574
C103	C	0.125890	-0.187789	0.187893
C104	C	0.625890	0.312211	0.687893
C105	C	0.055509	-0.216573	0.216577
C106	C	0.555509	0.283427	0.716577
C107	C	0.032047	-0.245354	0.245258
C108	C	0.532047	0.254646	0.745258
C109	C	0.055502	-0.274130	0.273934
C110	C	0.555502	0.225870	0.773934
C111	C	0.102417	-0.274128	0.273927
C112	C	0.602417	0.225872	0.773927
C113	C	0.102434	-0.159012	0.159217
C114	C	0.602434	0.340988	0.659217
C115	C	0.055519	-0.159017	0.159226
C116	C	0.555519	0.340983	0.659226
C117	C	0.032056	-0.187797	0.187906
C118	C	0.532056	0.312203	0.687906
C119	C	0.649028	-0.333289	0.216527
C120	C	1.149028	0.166711	0.716527
C121	C	0.649034	-0.383223	0.216533
C122	C	1.149034	0.116777	0.716533
C123	C	0.677895	-0.692854	0.187866
C124	C	1.177895	-0.192854	0.687866
C125	C	0.677950	-0.880527	0.187883
C126	C	1.177950	-0.380527	0.687883
O127	O	0.702424	-0.904782	0.163493
O128	O	1.202424	-0.404782	0.663493
N129	N	0.649202	-0.904008	0.216583
N130	N	1.149202	-0.404008	0.716583
C131	C	0.620440	-0.880567	0.245283
C132	C	1.120440	-0.380567	0.745283
O133	O	0.595993	-0.904845	0.269698
O134	O	1.095993	-0.404845	0.769698
C135	C	0.620388	-0.692895	0.245268
C136	C	1.120388	-0.192895	0.745268
C137	C	0.649134	-0.669417	0.216562
C138	C	1.149134	-0.169417	0.716562
C139	C	0.706640	-0.669376	0.159163
C140	C	1.206640	-0.169376	0.659163
C141	C	0.706624	-0.622461	0.159158
C142	C	1.206624	-0.122461	0.659158
C143	C	0.677863	-0.599023	0.187854
C144	C	1.177863	-0.099023	0.687854
C145	C	0.649118	-0.622502	0.216557
C146	C	1.149118	-0.122502	0.716557
C147	C	0.591628	-0.669456	0.273969
C148	C	1.091628	-0.169456	0.773969
C149	C	0.591618	-0.622535	0.273964
C150	C	1.091618	-0.122535	0.773964
C151	C	0.620365	-0.599056	0.245259
C152	C	1.120365	-0.099056	0.745259
C153	C	0.620342	-0.552149	0.245247
C154	C	1.120342	-0.052149	0.745247
N155	N	0.649090	-0.528668	0.216547
N156	N	1.149090	-0.028668	0.716547
C157	C	0.677851	-0.552106	0.187851
C158	C	1.177851	-0.052106	0.687851
C159	C	0.620470	-0.979098	0.245289
C160	C	1.120470	-0.479098	0.745289
C161	C	0.620482	-1.026016	0.245292
C162	C	1.120482	-0.526016	0.745292
C163	C	0.677993	-1.025973	0.187893
C164	C	1.177993	-0.525973	0.687893
C165	C	0.677978	-0.979054	0.187887
C166	C	1.177978	-0.479054	0.687887
C167	C	0.649218	-0.955617	0.216589
C168	C	1.149218	-0.455617	0.716589
C169	C	0.677815	-0.453580	0.187841
C170	C	1.177815	0.046420	0.687841
C171	C	0.677795	-0.406660	0.187836
C172	C	1.177795	0.093340	0.687836
C173	C	0.620286	-0.406708	0.245237
C174	C	1.120286	0.093292	0.745237
C175	C	0.620304	-0.453623	0.245240
C176	C	1.120304	0.046377	0.745240
C177	C	0.649072	-0.477058	0.216540
C178	C	1.149072	0.022942	0.716540
O179	O	0.595885	-0.527865	0.269629
O180	O	1.095885	-0.027865	0.769629
O181	O	0.702301	-0.527820	0.163447
O182	O	1.202301	-0.027820	0.663447
C183	C	0.677911	-0.739770	0.187872
C184	C	1.177911	-0.239770	0.687872
C185	C	0.649166	-0.763248	0.216574
C186	C	1.149166	-0.263248	0.716574
C187	C	0.620405	-0.739811	0.245271
C188	C	1.120405	-0.239811	0.745271
C189	C	0.649179	-0.810166	0.216577
C190	C	1.149179	-0.310166	0.716577
C191	C	0.677939	-0.833603	0.187881
C192	C	1.177939	-0.333603	0.687881
C193	C	0.706687	-0.810123	0.159181
C194	C	1.206687	-0.310123	0.659181
C195	C	0.706671	-0.763207	0.159175
C196	C	1.206671	-0.263207	0.659175
C197	C	0.591657	-0.763291	0.273971
C198	C	1.091657	-0.263291	0.773971
C199	C	0.591675	-0.810207	0.273974
C200	C	1.091675	-0.310207	0.773974
C201	C	0.620436	-0.833644	0.245277
C202	C	1.120436	-0.333644	0.745277
C203	C	0.766287	-0.216585	0.216582
C204	C	1.266287	0.283415	0.716582
C205	C	0.816222	-0.216594	0.216596
C206	C	1.316222	0.283406	0.716596
C207	C	0.649109	-0.216583	0.333728
C208	C	1.149109	0.283417	0.833728
C209	C	0.649110	-0.216590	0.383662
C210	C	1.149110	0.283410	0.883662
C211	C	0.649203	-0.099388	0.216582
C212	C	1.149203	0.400612	0.716582
C213	C	0.649243	-0.049453	0.216595
C214	C	1.149243	0.450547	0.716595
C215	C	0.677865	-0.187840	0.693324
C216	C	1.177865	0.312160	1.193324
C217	C	0.677869	-0.187835	0.880998
C218	C	1.177869	0.312165	1.380998
O219	O	0.702308	-0.163392	0.905278
O220	O	1.202308	0.336608	1.405278
N221	N	0.649117	-0.216561	0.904447
N222	N	1.149117	0.283439	1.404447
C223	C	0.620360	-0.245289	0.880976
C224	C	1.120360	0.254711	1.380976
O225	O	0.595901	-0.269719	0.905227
O226	O	1.095901	0.230281	1.405227
C227	C	0.620355	-0.245291	0.693304
C228	C	1.120355	0.254709	1.193304
C229	C	0.649112	-0.216567	0.669856
C230	C	1.149112	0.283433	1.169856
C231	C	0.706619	-0.159118	0.669877
C232	C	1.206619	0.340882	1.169877
C233	C	0.706620	-0.159121	0.622962
C234	C	1.206620	0.340879	1.122962
C235	C	0.677866	-0.187847	0.599494
C236	C	1.177866	0.312153	1.099494
C237	C	0.649112	-0.216570	0.622941
C238	C	1.149112	0.283430	1.122941
C239	C	0.591596	-0.274016	0.669833
C240	C	1.091596	0.225984	1.169833
C241	C	0.591596	-0.274013	0.622912
C242	C	1.091596	0.225987	1.122912
C243	C	0.620353	-0.245289	0.599465
C244	C	1.120353	0.254711	1.099465
C245	C	0.620359	-0.245299	0.552557
C246	C	1.120359	0.254701	1.052557
N247	N	0.649111	-0.216573	0.529108
N248	N	1.149111	0.283427	1.029108
C249	C	0.677865	-0.187847	0.552576
C250	C	1.177865	0.312153	1.052576
C251	C	0.620365	-0.245286	0.979506
C252	C	1.120365	0.254714	1.479506
C253	C	0.620367	-0.245286	1.026424
C254	C	1.120367	0.254714	1.526424
C255	C	0.677875	-0.187832	1.026443
C256	C	1.177875	0.312168	1.526443
C257	C	0.677875	-0.187834	0.979524
C258	C	1.177875	0.312166	1.479524
C259	C	0.649117	-0.216560	0.956057
C260	C	1.149117	0.283440	1.456057
C261	C	0.677864	-0.187856	0.454050
C262	C	1.177864	0.312144	0.954050
C263	C	0.677863	-0.187864	0.407130
C264	C	1.177863	0.312136	0.907130
C265	C	0.620354	-0.245316	0.407116
C266	C	1.120354	0.254684	0.907116
C267	C	0.620356	-0.245311	0.454031
C268	C	1.120356	0.254689	0.954031
C269	C	0.649112	-0.216577	0.477497
C270	C	1.149112	0.283423	0.977497
O271	O	0.595929	-0.269726	0.528247
O272	O	1.095929	0.230274	1.028247
O273	O	0.702312	-0.163414	0.528316
O274	O	1.202312	0.336586	1.028316
C275	C	0.677865	-0.187837	0.740240
C276	C	1.177865	0.312163	1.240240
C277	C	0.649110	-0.216560	0.763687
C278	C	1.149110	0.283440	1.263687
C279	C	0.620357	-0.245286	0.740219
C280	C	1.120357	0.254714	1.240219
C281	C	0.649112	-0.216560	0.810605
C282	C	1.149112	0.283440	1.310605
C283	C	0.677866	-0.187834	0.834073
C284	C	1.177866	0.312166	1.334073
C285	C	0.706618	-0.159108	0.810624
C286	C	1.206618	0.340892	1.310624
C287	C	0.706618	-0.159111	0.763708
C288	C	1.206618	0.340889	1.263708
C289	C	0.591605	-0.274012	0.763669
C290	C	1.091605	0.225988	1.263669
C291	C	0.591607	-0.274007	0.810584
C292	C	1.091607	0.225993	1.310584
C293	C	0.620361	-0.245281	0.834052
C294	C	1.120361	0.254719	1.334052
C295	C	0.649109	-0.216561	1.099827
C296	C	1.149109	0.283439	1.599827
C297	C	0.649121	-0.216560	1.049892
C298	C	1.149121	0.283440	1.549892
H299	H	-0.094299	-0.164368	0.164556
H300	H	0.405701	0.335632	0.664556
Br301	Br	0.716992	-0.947196	0.148929
Br302	Br	1.216992	-0.447196	0.648929
Br303	Br	0.552587	-0.590731	0.312919
Br304	Br	1.052587	-0.090731	0.812919
H305	H	0.730080	-0.744095	0.135801
H306	H	1.230080	-0.244095	0.635801
H307	H	0.596898	-0.472740	0.268615
H308	H	1.096898	0.027260	0.768615
Br309	Br	0.134269	-0.119947	0.120291
Br310	Br	0.634269	0.380053	0.620291
Br311	Br	0.164415	-0.313189	0.312842
Br312	Br	0.664415	0.186811	0.812842
H313	H	0.478105	-0.164338	0.164485
H314	H	0.978105	0.335662	0.664485
Br315	Br	0.552580	-0.312998	0.842400
Br316	Br	1.052580	0.187002	1.342400
Br317	Br	0.581347	-0.284280	1.058240
Br318	Br	1.081347	0.215720	1.558240
Br319	Br	0.275030	-0.119928	0.120281
Br320	Br	0.775030	0.380072	0.620281
Br321	Br	0.023696	-0.119954	0.120303
Br322	Br	0.523696	0.380046	0.620303
H323	H	0.568218	-0.688563	0.297342
H324	H	1.068218	-0.188563	0.797342
H325	H	0.478083	-0.268769	0.268545
H326	H	0.978083	0.231231	0.768545
Br327	Br	0.552622	-0.731491	0.312921
Br328	Br	1.052622	-0.231491	0.812921
H329	H	0.596868	-0.387618	0.268600
H330	H	1.096868	0.112382	0.768600
Br331	Br	0.716898	-0.148847	1.058301
Br332	Br	1.216898	0.351153	1.558301
Br333	Br	0.716895	-0.148879	0.375312
Br334	Br	1.216895	0.351121	0.875312
H335	H	0.121508	-0.297565	0.297278
H336	H	0.621508	0.202435	0.797278
H337	H	0.701279	-0.164457	0.473150
H338	H	1.201279	0.335543	0.973150
Br339	Br	0.745717	-0.841940	0.120234
Br340	Br	1.245717	-0.341940	0.620234
Br341	Br	0.581332	-0.284298	0.485854
Br342	Br	1.081332	0.215702	0.985854
H343	H	0.036390	-0.297565	0.297285
H344	H	0.536390	0.202435	0.797285
H345	H	0.597070	-1.045128	0.268662
H346	H	1.097070	-0.545128	0.768662
H347	H	0.568179	-0.297407	0.688916
H348	H	1.068179	0.202593	1.188916
H349	H	0.568190	-0.297406	0.744566
H350	H	1.068190	0.202594	1.244566
H351	H	0.730035	-0.135720	0.744621
H352	H	1.230035	0.364280	1.244621
Br353	Br	0.716810	-0.374800	0.148876
Br354	Br	1.216810	0.125200	0.648876
Br355	Br	0.380247	-0.148721	0.148921
Br356	Br	0.880247	0.351279	0.648921
Br357	Br	-0.081580	-0.284432	0.284186
Br358	Br	0.418420	0.215568	0.784186
H359	H	0.730036	-0.135729	0.603875
H360	H	1.230036	0.364271	1.103875
Br361	Br	0.552657	-0.842064	0.312933
Br362	Br	1.052657	-0.342064	0.812933
Br363	Br	-0.192174	-0.284429	0.284201
Br364	Br	0.307826	0.215571	0.784201
H365	H	0.701411	-1.045063	0.164527
H366	H	1.201411	-0.545063	0.664527
Br367	Br	0.716857	-0.485377	0.148891
Br368	Br	1.216857	0.014623	0.648891
H369	H	0.730034	-0.135723	0.688980
H370	H	1.230034	0.364277	1.188980
Br371	Br	0.745646	-0.590605	0.120205
Br372	Br	1.245646	-0.090605	0.620205
Br373	Br	0.581332	-0.284299	0.375257
Br374	Br	1.081332	0.215701	0.875257
H375	H	0.701291	-0.164443	0.960436
H376	H	1.201291	0.335557	1.460436
H377	H	0.568172	-0.297401	0.603807
H378	H	1.068172	0.202599	1.103807
Br379	Br	-0.192138	-0.148758	0.148991
Br380	Br	0.307862	0.351242	0.648991
H381	H	0.597049	-0.960019	0.268661
H382	H	1.097049	-0.460019	0.768661
Br383	Br	0.581332	-0.284275	0.947665
Br384	Br	1.081332	0.215725	1.447665
H385	H	0.730062	-0.688454	0.135795
H386	H	1.230062	-0.188454	0.635795
H387	H	0.730031	-0.135719	0.829740
H388	H	1.230031	0.364281	1.329740
H389	H	0.262255	-0.297559	0.297257
H390	H	0.762255	0.202441	0.797257
Br391	Br	0.380238	-0.284396	0.284139
Br392	Br	0.880238	0.215604	0.784139
H393	H	0.177183	-0.135563	0.135854
H394	H	0.677183	0.364437	0.635854
