data_functionalizedCrystal
_audit_creation_method	'MofGen! by Chris Wilmer'
_symmetry_space_group_name_H-M	'P1'
_symmetry_Int_Tables_number	1
_symmetry_cell_setting	triclinic
loop_
_symmetry_equiv_pos_as_xyz
  x,y,z
_cell_length_a	12.759401
_cell_length_b	12.759399
_cell_length_c	12.759393
_cell_angle_alpha	90.028363
_cell_angle_beta	90.019322
_cell_angle_gamma	90.013445
loop_
_atom_site_label
_atom_site_type_symbol
_atom_site_fract_x
_atom_site_fract_y
_atom_site_fract_z
Zn1	Zn	-1.606249	0.418263	-0.594028
Zn2	Zn	-1.606141	0.593982	-0.418358
Zn3	Zn	-1.430551	0.418311	-0.418365
Zn4	Zn	-1.430537	0.593894	-0.593997
O5	O	-1.518370	0.506112	-0.506187
O6	O	-1.753256	0.441589	-0.570735
O7	O	-1.582809	0.570735	-0.271338
O8	O	-1.453909	0.271284	-0.441683
O9	O	-1.753176	0.570689	-0.441671
O10	O	-1.582994	0.271248	-0.570742
O11	O	-1.453804	0.441671	-0.271343
O12	O	-1.283528	0.441586	-0.441653
O13	O	-1.453885	0.570539	-0.741022
O14	O	-1.283518	0.570586	-0.570689
O15	O	-1.582980	0.441504	-0.741045
O16	O	-1.582796	0.740991	-0.441641
O17	O	-1.453780	0.740927	-0.570682
C18	C	-1.245402	0.506082	-0.506169
C19	C	-1.128626	0.506095	-0.506186
C20	C	-1.518303	0.779080	-0.506180
C21	C	-1.518371	0.895856	-0.506212
C22	C	-1.073786	0.573370	-0.573263
C23	C	-0.964062	0.573379	-0.573273
C24	C	-0.964027	0.438834	-0.439119
C25	C	-1.073749	0.438821	-0.439115
C26	C	-1.128662	0.640645	-0.640333
C27	C	-1.073823	0.707927	-0.707415
C28	C	-0.964098	0.707936	-0.707425
C29	C	-0.909214	0.640663	-0.640353
C30	C	-1.518443	0.506006	-0.780220
C31	C	-1.518475	0.505961	-0.896997
C32	C	-0.792403	0.506133	-0.506202
C33	C	-0.909180	0.506117	-0.506199
C34	C	-1.585623	0.950717	-0.439098
C35	C	-1.585686	1.060441	-0.439137
C36	C	-1.451236	1.060434	-0.573407
C37	C	-1.451179	0.950712	-0.573373
C38	C	-1.652815	0.895861	-0.371938
C39	C	-1.720072	0.950722	-0.304817
C40	C	-1.720135	1.060446	-0.304855
C41	C	-1.652941	1.115309	-0.372015
C42	C	-1.518461	1.232079	-0.506230
C43	C	-1.518491	1.115302	-0.506285
C44	C	-1.585704	0.438766	-0.951873
C45	C	-1.585729	0.438728	-1.061597
C46	C	-1.451293	0.573089	-1.061560
C47	C	-1.451263	0.573121	-0.951838
C48	C	-1.652915	0.371606	-0.897032
C49	C	-1.720150	0.304406	-0.951908
C50	C	-1.720175	0.304368	-1.061632
C51	C	-1.652965	0.371530	-1.116480
C52	C	-1.518357	0.506142	-0.233219
C53	C	-1.518529	0.505891	-0.116443
H54	H	-1.218005	0.640647	-0.640331
C55	C	-0.904252	0.365927	-0.366329
C56	C	-0.796425	0.380362	-0.380666
C57	C	-0.741330	0.313233	-0.313614
H58	H	-0.922115	0.295306	-0.381748
H59	H	-0.922149	0.381235	-0.295692
H60	H	-0.778535	0.365047	-0.451288
H61	H	-0.778531	0.450969	-0.365240
H62	H	-0.759227	0.328541	-0.242976
H63	H	-0.759200	0.242616	-0.329038
H64	H	-0.668163	0.323025	-0.323325
H65	H	-1.396417	0.906044	-0.628024
H66	H	-1.774785	0.906047	-0.250144
C67	C	-1.133108	0.365750	-0.366163
C68	C	-1.061568	0.306868	-0.307396
C69	C	-1.116212	0.239554	-0.240170
H70	H	-1.175940	0.319922	-0.406305
H71	H	-1.175863	0.405867	-0.320265
H72	H	-1.018832	0.266754	-0.353288
H73	H	-1.018735	0.352668	-0.267233
H74	H	-1.158966	0.279671	-0.194273
H75	H	-1.159041	0.193733	-0.280321
H76	H	-1.067681	0.199601	-0.200282
H77	H	-1.396529	1.105112	-0.628084
H78	H	-1.774914	0.249643	-1.106309
H79	H	-1.652769	0.806519	-0.371896
C80	C	-0.904745	0.781092	-0.780296
C81	C	-0.976293	0.840018	-0.839010
C82	C	-0.921658	0.907436	-0.906138
H83	H	-0.861963	0.741081	-0.826239
H84	H	-0.861943	0.826880	-0.740053
H85	H	-1.019078	0.794235	-0.879250
H86	H	-1.019078	0.880050	-0.793095
H87	H	-0.878856	0.953224	-0.865896
H88	H	-0.878878	0.867417	-0.952074
H89	H	-0.970195	0.947432	-0.945977
C90	C	-1.378428	0.646266	-0.892293
C91	C	-1.401311	0.750209	-0.918941
C92	C	-1.334251	0.817621	-0.864092
H93	H	-1.307801	0.631034	-0.910210
H94	H	-1.388059	0.636729	-0.819085
H95	H	-1.391670	0.759740	-0.992132
H96	H	-1.471925	0.765473	-0.901021
H97	H	-1.343883	0.808085	-0.790885
H98	H	-1.263629	0.802380	-0.882013
H99	H	-1.349774	0.888154	-0.882158
H100	H	-1.774906	1.105111	-0.250210
H101	H	-1.653006	1.204654	-0.372049
C102	C	-0.790084	0.640825	-0.640518
C103	C	-0.753800	0.714140	-0.713620
C104	C	-0.644066	0.714316	-0.713804
H105	H	-0.765187	0.573102	-0.658849
H106	H	-0.765156	0.658957	-0.572720
H107	H	-0.778717	0.696002	-0.781403
H108	H	-0.778668	0.781874	-0.695305
H109	H	-0.619138	0.732448	-0.646005
H110	H	-0.619180	0.646589	-0.732133
H111	H	-0.619434	0.764066	-0.763395
C112	C	-1.653005	0.371452	-0.777903
C113	C	-1.726234	0.298239	-0.741618
C114	C	-1.726336	0.298062	-0.631884
H115	H	-1.671174	0.439201	-0.752943
H116	H	-1.585226	0.353226	-0.753040
H117	H	-1.793998	0.316471	-0.766471
H118	H	-1.708081	0.230480	-0.766550
H119	H	-1.658557	0.279836	-0.607021
H120	H	-1.744503	0.365814	-0.606934
H121	H	-1.776013	0.248381	-0.607251
H122	H	-1.774864	0.249719	-0.907243
C123	C	-1.378450	0.645973	-1.121296
C124	C	-1.392888	0.631585	-1.229131
C125	C	-1.325817	0.698722	-1.284191
H126	H	-1.307816	0.630665	-1.103443
H127	H	-1.393810	0.716593	-1.103359
H128	H	-1.377521	0.560981	-1.247061
H129	H	-1.463509	0.646901	-1.247015
H130	H	-1.341176	0.769341	-1.266254
H131	H	-1.255186	0.683408	-1.266330
H132	H	-1.335610	0.688975	-1.357362
H133	H	-1.118516	0.762691	-0.762029
H134	H	-1.652978	0.371481	-1.205825
