data_functionalizedCrystal
_audit_creation_method	'MofGen! by Chris Wilmer'
_symmetry_space_group_name_H-M	'P1'
_symmetry_Int_Tables_number	1
_symmetry_cell_setting	triclinic
loop_
_symmetry_equiv_pos_as_xyz
  x,y,z
_cell_length_a	10.489711
_cell_length_b	10.489716
_cell_length_c	11.804365
_cell_angle_alpha	101.956103
_cell_angle_beta	78.029186
_cell_angle_gamma	84.528072
loop_
_atom_site_label
_atom_site_type_symbol
_atom_site_fract_x
_atom_site_fract_y
_atom_site_fract_z
O1	O	1.719605	0.154259	-0.099060
O2	O	1.348401	0.171193	-0.099052
O3	O	1.542467	-0.022876	-0.099061
O4	O	1.525539	0.348328	-0.099052
O5	O	1.491376	0.028163	0.098997
O6	O	1.297310	0.222232	0.099006
O7	O	1.668514	0.205298	0.098998
Cu8	Cu	1.478247	0.218425	0.117086
Cu9	Cu	1.538668	0.158066	-0.117141
O10	O	1.474448	0.399367	0.099006
C11	C	1.275323	0.195442	-0.000022
C12	C	1.133691	0.191641	-0.000020
C13	C	1.515651	-0.044889	-0.000035
C14	C	1.511849	-0.186523	-0.000046
C15	C	0.951297	0.308344	-0.000031
C16	C	1.068638	0.224883	-0.097683
C17	C	1.018240	0.275172	0.097587
C18	C	0.998723	0.101314	-0.097779
C19	C	0.948292	0.151643	0.097579
C20	C	1.065612	0.068086	-0.000097
C21	C	1.630853	-0.284207	-0.000038
C22	C	1.593156	-0.386725	-0.097686
C23	C	1.542757	-0.336369	0.097583
C24	C	1.474223	-0.287196	-0.097775
C25	C	1.423819	-0.236811	0.097582
C26	C	1.386041	-0.339286	-0.000090
C27	C	1.741593	0.181048	-0.000035
C28	C	1.883226	0.184847	-0.000045
C29	C	1.501265	0.421380	-0.000022
C30	C	1.505069	0.563011	-0.000019
N31	N	1.435760	0.260878	0.281829
N32	N	1.581165	0.115603	-0.281883
C33	C	1.683192	0.013633	0.655766
C34	C	1.715332	-0.018488	0.531103
C35	C	1.645442	0.051350	0.468779
C36	C	1.543406	0.153316	0.531129
C37	C	1.511270	0.185447	0.655804
C38	C	1.473519	0.223165	0.468816
C39	C	1.371483	0.325130	0.531167
C40	C	1.339351	0.357255	0.655830
C41	C	1.409242	0.287417	0.718155
C42	C	1.505655	0.191034	0.344141
C43	C	1.333733	0.362848	0.344179
C44	C	1.301592	0.394969	0.468842
H45	H	0.901622	0.409822	-0.000125
C46	C	1.785070	-0.088216	0.290180
C47	C	1.680758	0.016034	0.331746
H48	H	1.806865	-0.110028	0.205579
H49	H	1.859477	-0.062692	0.318358
H50	H	1.759600	-0.162638	0.318401
H51	H	1.706231	0.090460	0.303533
H52	H	1.606336	-0.009485	0.303557
H53	H	1.352328	-0.172012	0.180144
H54	H	1.740095	-0.043214	0.706519
H55	H	1.256278	0.440291	0.706596
H56	H	1.383071	0.313566	0.819666
H57	H	1.282461	-0.363719	-0.000140
C58	C	1.270709	0.573071	0.305809
C59	C	1.256899	0.439626	0.275685
H60	H	1.223288	0.620464	0.263512
H61	H	1.236967	0.606789	0.388969
H62	H	1.361241	0.582458	0.285354
H63	H	1.166368	0.430238	0.296148
H64	H	1.290635	0.405898	0.192506
C65	C	1.710003	-0.339131	0.208827
C66	C	1.581847	-0.366330	0.209036
H67	H	1.734137	-0.357621	0.277633
H68	H	1.769282	-0.392436	0.139490
H69	H	1.713495	-0.248881	0.209236
H70	H	1.578357	-0.456583	0.208618
H71	H	1.522553	-0.313026	0.278390
C72	C	1.797765	-0.248436	0.493208
C73	C	1.827410	-0.130727	0.462801
H74	H	1.866938	-0.317779	0.451102
H75	H	1.788467	-0.239055	0.576409
H76	H	1.717790	-0.268312	0.472716
H77	H	1.907380	-0.110846	0.483302
H78	H	1.836723	-0.140108	0.379582
C79	C	1.081114	0.392648	-0.208829
C80	C	1.139345	0.266775	-0.209044
H81	H	1.124803	0.418539	-0.277547
H82	H	0.990841	0.391276	-0.209399
H83	H	1.088229	0.453500	-0.139401
H84	H	1.132222	0.205921	-0.278468
H85	H	1.229641	0.268138	-0.208485
C86	C	0.852512	-0.000587	-0.208395
C87	C	0.985934	0.002091	-0.209366
H88	H	0.844619	-0.061833	-0.277289
H89	H	0.810146	-0.026324	-0.139149
H90	H	0.812293	0.084580	-0.208108
H91	H	1.026152	-0.083075	-0.209644
H92	H	1.028318	0.027820	-0.278631
C93	C	1.123543	-0.159779	-0.102501
C94	C	1.132432	-0.069073	-0.000168
H95	H	1.164804	-0.244452	-0.102549
H96	H	1.033525	-0.163132	-0.103153
H97	H	1.166293	-0.133278	-0.171204
H98	H	1.089673	-0.095569	0.068535
H99	H	1.222466	-0.065724	0.000495
C100	C	1.071538	0.477631	0.507288
C101	C	1.189438	0.507049	0.537391
H102	H	1.002299	0.546820	0.549615
H103	H	1.080673	0.468510	0.424134
H104	H	1.051674	0.397619	0.527721
H105	H	1.209307	0.587056	0.516950
H106	H	1.180304	0.516185	0.620563
H107	H	0.895977	0.120709	0.180139
H108	H	1.734394	-0.259568	-0.000139
C109	C	0.973064	0.500186	0.208844
C110	C	1.031269	0.374451	0.209044
H111	H	0.981099	0.561478	0.277654
H112	H	1.016078	0.525355	0.139511
H113	H	0.882533	0.499001	0.209251
H114	H	1.121804	0.375635	0.208628
H115	H	0.988259	0.349277	0.278395
C116	C	1.817782	-0.446907	-0.208964
C117	C	1.689718	-0.474183	-0.209134
H118	H	1.877398	-0.500904	-0.277760
H119	H	1.821512	-0.356891	-0.209410
H120	H	1.841294	-0.464449	-0.139612
H121	H	1.666202	-0.456632	-0.278481
H122	H	1.685984	-0.564219	-0.208699
H123	H	1.445332	-0.265184	-0.180421
H124	H	1.588733	0.108013	0.293386
