data_functionalizedCrystal
_audit_creation_method	'MofGen! by Chris Wilmer'
_symmetry_space_group_name_H-M	'P1'
_symmetry_Int_Tables_number	1
_symmetry_cell_setting	triclinic
loop_
_symmetry_equiv_pos_as_xyz
  x,y,z
_cell_length_a	19.805407
_cell_length_b	13.032721
_cell_length_c	13.032268
_cell_angle_alpha	103.289627
_cell_angle_beta	97.161370
_cell_angle_gamma	97.204665
loop_
_atom_site_label
_atom_site_type_symbol
_atom_site_fract_x
_atom_site_fract_y
_atom_site_fract_z
Zn1	Zn	0.939872	-0.499088	-0.654244
Zn2	Zn	0.939799	-0.654172	-0.499191
Zn3	Zn	0.843151	-0.476582	-0.476659
Zn4	Zn	0.810205	-0.676645	-0.676728
O5	O	0.883257	-0.576622	-0.576705
O6	O	1.034576	-0.519674	-0.633696
O7	O	0.940735	-0.611791	-0.347583
O8	O	0.869800	-0.330937	-0.481376
O9	O	1.034522	-0.633614	-0.519780
O10	O	0.940861	-0.347472	-0.611847
O11	O	0.869728	-0.481316	-0.331029
O12	O	0.744067	-0.503107	-0.503178
O13	O	0.813649	-0.671916	-0.822364
O14	O	0.719862	-0.650093	-0.650168
O15	O	0.908915	-0.541465	-0.805845
O16	O	0.908789	-0.805784	-0.541582
O17	O	0.813577	-0.822295	-0.672017
C18	C	0.707406	-0.576597	-0.576668
C19	C	0.632171	-0.576616	-0.576681
C20	C	0.584242	-0.653239	-0.653122
C21	C	0.513552	-0.653243	-0.653137
C22	C	0.490793	-0.576627	-0.576706
C23	C	0.538728	-0.499995	-0.500262
C24	C	0.609416	-0.499988	-0.500252
C25	C	0.253649	-0.500023	-0.500300
C26	C	0.182955	-0.500039	-0.500313
C27	C	0.157785	-0.653278	-0.653185
C28	C	0.228473	-0.653271	-0.653175
C29	C	0.276402	-0.576637	-0.576735
C30	C	0.353052	-0.576632	-0.576720
C31	C	0.414144	-0.576635	-0.576715
C32	C	0.857616	-0.852580	-0.611707
C33	C	0.846706	-0.970641	-0.626716
C34	C	0.888982	-1.015079	-0.568920
C35	C	0.877707	-1.137100	-0.584431
C36	C	1.059794	-0.576648	-0.576743
C37	C	1.135024	-0.576659	-0.576759
C38	C	0.857615	-0.611708	-0.853718
C39	C	0.846688	-0.626659	-0.971764
C40	C	0.909013	-0.299589	-0.541590
C41	C	0.919990	-0.181534	-0.526626
C42	C	0.888953	-0.568781	-1.016219
C43	C	0.877660	-0.584232	-1.138226
C44	C	0.908844	-0.541596	-0.300761
C45	C	0.919930	-0.526346	-0.182678
H46	H	0.474530	-0.715639	-0.715381
C47	C	0.584562	-0.728013	-0.839467
C48	C	0.609257	-0.737456	-0.737140
H49	H	0.600008	-0.780001	-0.891337
H50	H	0.535609	-0.738986	-0.850405
H51	H	0.601332	-0.658650	-0.846059
H52	H	0.592483	-0.806816	-0.730545
H53	H	0.658220	-0.726491	-0.726198
H54	H	0.964474	-0.465344	-1.130417
H55	H	0.246999	-0.715663	-0.715410
H56	H	0.833164	-1.189389	-0.645405
H57	H	0.964537	-1.129248	-0.465660
C58	C	0.441545	-0.431961	-0.432396
C59	C	0.513713	-0.415773	-0.416250
H60	H	0.426105	-0.379967	-0.380524
H61	H	0.424801	-0.425571	-0.501816
H62	H	0.424788	-0.501320	-0.425779
H63	H	0.530470	-0.346417	-0.422874
H64	H	0.530464	-0.422153	-0.346812
H65	H	0.833109	-0.645221	-1.190487
C66	C	0.787042	-1.148440	-0.708455
C67	C	0.786573	-1.041222	-0.709021
H68	H	0.749914	-1.192009	-0.759264
H69	H	0.829404	-1.168469	-0.726347
H70	H	0.782114	-1.157556	-0.639371
H71	H	0.791506	-1.032105	-0.778103
H72	H	0.744200	-1.021187	-0.691135
H73	H	0.933527	-0.962790	-0.507958
C74	C	0.787012	-0.708378	-1.149520
C75	C	0.786557	-0.709005	-1.042310
H76	H	0.749891	-0.759223	-1.193070
H77	H	0.782069	-0.639302	-1.158593
H78	H	0.829382	-0.726201	-1.169610
H79	H	0.744188	-0.691174	-1.022218
H80	H	0.791494	-0.778096	-1.033232
H81	H	0.933494	-0.507786	-0.963954
H82	H	0.164428	-0.437642	-0.438073
C83	C	0.063701	-0.686361	-0.797947
C84	C	0.105098	-0.737508	-0.737223
H85	H	0.031179	-0.738362	-0.849828
H86	H	0.040032	-0.640743	-0.752432
H87	H	0.091818	-0.645304	-0.832776
H88	H	0.076981	-0.778559	-0.702386
H89	H	0.128768	-0.783145	-0.782744
C90	C	0.271418	-0.348550	-0.349193
C91	C	0.306326	-0.415789	-0.416276
H92	H	0.303943	-0.296548	-0.297316
H93	H	0.243329	-0.313877	-0.390396
H94	H	0.243317	-0.389624	-0.314359
H95	H	0.334424	-0.374716	-0.451117
H96	H	0.334428	-0.450465	-0.375068
H97	H	0.648441	-0.437588	-0.438011
