data_functionalizedCrystal
_audit_creation_method	'MofGen! by Chris Wilmer'
_symmetry_space_group_name_H-M	'P1'
_symmetry_Int_Tables_number	1
_symmetry_cell_setting	triclinic
loop_
_symmetry_equiv_pos_as_xyz
  x,y,z
_cell_length_a	16.992694
_cell_length_b	15.455341
_cell_length_c	16.992695
_cell_angle_alpha	92.817188
_cell_angle_beta	89.331777
_cell_angle_gamma	87.171364
loop_
_atom_site_label
_atom_site_type_symbol
_atom_site_fract_x
_atom_site_fract_y
_atom_site_fract_z
O1	O	-1.047581	-0.072023	0.163653
O2	O	-0.714248	0.261310	0.496986
O3	O	-0.380915	0.594644	0.830320
O4	O	-0.819180	-0.072048	0.161821
O5	O	-0.485847	0.261285	0.495154
O6	O	-0.152513	0.594618	0.828487
O7	O	-0.932465	-0.072029	0.048537
O8	O	-0.599132	0.261304	0.381871
O9	O	-0.265799	0.594638	0.715204
O10	O	-0.934296	-0.072042	0.276937
O11	O	-0.600963	0.261291	0.610270
O12	O	-0.267629	0.594624	0.943603
O13	O	-0.939003	0.072233	0.055070
O14	O	-0.605670	0.405566	0.388403
O15	O	-0.272337	0.738899	0.721736
O16	O	-0.825718	0.072213	0.168353
O17	O	-0.492385	0.405547	0.501686
O18	O	-0.159051	0.738880	0.835020
O19	O	-1.054119	0.072239	0.170185
O20	O	-0.720786	0.405572	0.503519
O21	O	-0.387452	0.738905	0.836852
Cu22	Cu	-0.940515	0.085398	0.169866
Cu23	Cu	-0.607182	0.418732	0.503199
Cu24	Cu	-0.273849	0.752065	0.836532
Cu25	Cu	-0.932784	-0.085208	0.162141
Cu26	Cu	-0.599450	0.248125	0.495474
Cu27	Cu	-0.266117	0.581459	0.828807
O28	O	-0.940834	0.072219	0.283469
O29	O	-0.607500	0.405553	0.616802
O30	O	-0.274167	0.738886	0.950136
C31	C	-0.793089	0.000079	0.162731
C32	C	-0.459755	0.333413	0.496064
C33	C	-0.126422	0.666746	0.829398
C34	C	-0.705604	0.000070	0.155702
C35	C	-0.372270	0.333403	0.489035
C36	C	-0.038937	0.666736	0.822368
C37	C	-0.933379	0.000102	0.022443
C38	C	-0.600045	0.333435	0.355777
C39	C	-0.266712	0.666768	0.689110
C40	C	-0.926350	0.000101	-0.065041
C41	C	-0.593016	0.333434	0.268292
C42	C	-0.259683	0.666767	0.601625
N43	N	-0.945959	0.205393	0.175299
N44	N	-0.612626	0.538727	0.508632
N45	N	-0.279293	0.872060	0.841966
C46	C	-1.080210	0.000109	0.169275
C47	C	-0.746877	0.333443	0.502608
C48	C	-0.413544	0.666776	0.835942
C49	C	-1.167695	0.000113	0.176304
C50	C	-0.834362	0.333446	0.509637
C51	C	-0.501028	0.666780	0.842971
C52	C	-0.659613	0.000066	0.223520
C53	C	-0.326279	0.333400	0.556853
C54	C	0.007054	0.666733	0.890186
C55	C	-0.577412	0.000079	0.216911
C56	C	-0.244079	0.333412	0.550245
C57	C	0.089254	0.666745	0.883578
C58	C	-0.541205	0.000088	0.142484
C59	C	-0.207871	0.333421	0.475817
C60	C	0.125462	0.666755	0.809151
C61	C	-0.587202	0.000094	0.074661
C62	C	-0.253868	0.333427	0.407995
C63	C	0.079465	0.666761	0.741328
C64	C	-0.669401	0.000088	0.081271
C65	C	-0.336067	0.333421	0.414604
C66	C	-0.002734	0.666755	0.747937
C67	C	-0.295891	0.000113	0.115091
C68	C	0.037442	0.333446	0.448424
C69	C	0.370775	0.666780	0.781757
C70	C	-0.213686	0.000116	0.108486
C71	C	0.119647	0.333450	0.441820
C72	C	0.452980	0.666783	0.775153
C73	C	-0.203903	0.000103	0.250737
C74	C	0.129431	0.333436	0.584070
C75	C	0.462764	0.666769	0.917404
C76	C	-0.286103	0.000091	0.257340
C77	C	0.047230	0.333425	0.590673
C78	C	0.380563	0.666758	0.924006
C79	C	-0.332093	0.000102	0.189517
C80	C	0.001240	0.333435	0.522850
C81	C	0.334573	0.666768	0.856184
N82	N	-0.457183	0.000098	0.135727
N83	N	-0.123849	0.333431	0.469061
N84	N	0.209484	0.666765	0.802394
N85	N	-0.416114	0.000098	0.196275
N86	N	-0.082781	0.333431	0.529608
N87	N	0.250553	0.666765	0.862941
N88	N	-0.927346	-0.205203	0.156701
N89	N	-0.594012	0.128130	0.490035
N90	N	-0.260679	0.461464	0.823368
C91	C	-0.976020	0.749399	0.205408
C92	C	-0.642687	1.082732	0.538741
C93	C	-0.309353	1.416066	0.872074
C94	C	-0.971907	0.658591	0.201293
C95	C	-0.638574	0.991925	0.534627
C96	C	-0.305240	1.325258	0.867960
C97	C	-0.919123	0.613184	0.148468
C98	C	-0.585790	0.946517	0.481801
C99	C	-0.252456	1.279850	0.815135
C100	C	-0.870443	0.658588	0.099760
C101	C	-0.537110	0.991921	0.433093
C102	C	-0.203777	1.325255	0.766426
C103	C	-0.874553	0.749394	0.103879
C104	C	-0.541220	1.082727	0.437212
C105	C	-0.207886	1.416061	0.770545
C106	C	-0.901389	0.341604	0.130710
C107	C	-0.568056	0.674937	0.464043
C108	C	-0.234723	1.008270	0.797376
C109	C	-0.897285	0.250791	0.126593
C110	C	-0.563952	0.584125	0.459926
C111	C	-0.230618	0.917458	0.793259
C112	C	-0.998748	0.250801	0.228128
C113	C	-0.665415	0.584134	0.561461
C114	C	-0.332081	0.917468	0.894794
C115	C	-1.002856	0.341609	0.232239
C116	C	-0.669523	0.674942	0.565572
C117	C	-0.336190	1.008275	0.898905
C118	C	-0.954174	0.387005	0.183533
C119	C	-0.620840	0.720339	0.516867
C120	C	-0.287507	1.053672	0.850200
N121	N	-0.914920	0.520364	0.144260
N122	N	-0.581586	0.853697	0.477593
N123	N	-0.248253	1.187030	0.810926
N124	N	-0.958374	0.479823	0.187746
N125	N	-0.625040	0.813157	0.521080
N126	N	-0.291707	1.146490	0.854413
C127	C	-0.994168	0.000109	-0.111032
C128	C	-0.660835	0.333442	0.222301
C129	C	-0.327501	0.666776	0.555635
C130	C	-0.987559	0.000100	-0.193233
C131	C	-0.654225	0.333433	0.140100
C132	C	-0.320892	0.666767	0.473434
C133	C	-0.913131	0.000089	-0.229442
C134	C	-0.579797	0.333422	0.103891
C135	C	-0.246464	0.666756	0.437225
C136	C	-0.845307	0.000078	-0.183445
C137	C	-0.511974	0.333411	0.149888
C138	C	-0.178640	0.666744	0.483221
C139	C	-0.851917	0.000081	-0.101246
C140	C	-0.518583	0.333414	0.232087
C141	C	-0.185250	0.666747	0.565421
C142	C	-0.885735	0.000074	-0.474757
C143	C	-0.552402	0.333407	-0.141424
C144	C	-0.219069	0.666741	0.191910
C145	C	-0.879131	0.000074	-0.556962
C146	C	-0.545797	0.333407	-0.223629
C147	C	-0.212464	0.666740	0.109704
C148	C	-1.021383	0.000094	-0.566744
C149	C	-0.688050	0.333428	-0.233411
C150	C	-0.354716	0.666761	0.099922
C151	C	-1.027987	0.000102	-0.484543
C152	C	-0.694653	0.333436	-0.151209
C153	C	-0.361320	0.666769	0.182124
C154	C	-0.960163	0.000087	-0.438554
C155	C	-0.626829	0.333420	-0.105220
C156	C	-0.293496	0.666753	0.228113
N157	N	-0.906373	0.000082	-0.313464
N158	N	-0.573040	0.333416	0.019869
N159	N	-0.239706	0.666749	0.353202
N160	N	-0.966921	0.000087	-0.354533
N161	N	-0.633587	0.333420	-0.021200
N162	N	-0.300254	0.666754	0.312134
C163	C	-0.939921	0.000087	0.309563
C164	C	-0.606587	0.333420	0.642896
C165	C	-0.273254	0.666754	0.976230
C166	C	-0.946949	0.000082	0.397047
C167	C	-0.613616	0.333416	0.730381
C168	C	-0.280282	0.666749	1.063714
H169	H	-0.689087	0.000058	0.284126
H170	H	-0.355753	0.333391	0.617460
H171	H	-0.022420	0.666725	0.950793
Br172	Br	-1.047665	0.811015	0.277096
Br173	Br	-0.714332	1.144349	0.610430
Br174	Br	-0.380998	1.477682	0.943763
Br175	Br	-0.514998	0.000071	0.308954
Br176	Br	-0.181665	0.333405	0.642288
Br177	Br	0.151668	0.666738	0.975621
H178	H	-1.038381	0.213830	0.267782
H179	H	-0.705048	0.547163	0.601115
H180	H	-0.371715	0.880496	0.934449
Br181	Br	-0.825673	0.189166	0.054868
Br182	Br	-0.492340	0.522500	0.388202
Br183	Br	-0.159007	0.855833	0.721535
Br184	Br	-0.335236	0.000069	0.358351
Br185	Br	-0.001903	0.333402	0.691685
Br186	Br	0.331430	0.666735	1.025018
Br187	Br	-1.128999	0.000090	-0.435409
Br188	Br	-0.795665	0.333423	-0.102076
Br189	Br	-0.462332	0.666756	0.231258
Br190	Br	-0.141484	0.000089	0.342777
Br191	Br	0.191850	0.333423	0.676110
Br192	Br	0.525183	0.666756	1.009443
H193	H	-1.011544	0.621632	0.240954
H194	H	-0.678211	0.954966	0.574288
H195	H	-0.344877	1.288299	0.907621
H196	H	-0.184209	0.000123	0.047876
H197	H	0.149125	0.333457	0.381209
H198	H	0.482458	0.666790	0.714542
Br199	Br	-0.358297	0.000129	0.023045
Br200	Br	-0.024963	0.333463	0.356378
Br201	Br	0.308370	0.666796	0.689712
H202	H	-1.045840	0.378574	0.275253
H203	H	-0.712506	0.711907	0.608587
H204	H	-0.379173	1.045240	0.941920
Br205	Br	-0.835318	0.403202	0.064610
Br206	Br	-0.501985	0.736535	0.397943
Br207	Br	-0.168651	1.069868	0.731277
H208	H	-0.557715	0.000114	0.014061
H209	H	-0.224382	0.333448	0.347395
H210	H	0.108951	0.666781	0.680728
H211	H	-1.054776	0.000124	-0.081557
H212	H	-0.721442	0.333457	0.251776
H213	H	-0.388109	0.666790	0.585110
Br214	Br	-1.079602	0.000111	-0.255646
Br215	Br	-0.746269	0.333445	0.077687
Br216	Br	-0.412936	0.666778	0.411020
H217	H	-0.827462	0.621610	0.056752
H218	H	-0.494129	0.954943	0.390085
H219	H	-0.160796	1.288276	0.723418
Br220	Br	-0.744295	0.000048	-0.232586
Br221	Br	-0.410962	0.333381	0.100748
Br222	Br	-0.077629	0.666715	0.434081
Br223	Br	-0.778115	0.000067	-0.606102
Br224	Br	-0.444781	0.333401	-0.272769
Br225	Br	-0.111448	0.666734	0.060565
H226	H	-0.796692	0.000073	-0.063801
H227	H	-0.463358	0.333407	0.269532
H228	H	-0.130025	0.666740	0.602865
H229	H	-0.834915	0.786356	0.064218
H230	H	-0.501582	1.119689	0.397552
H231	H	-0.168249	1.453022	0.730885
H232	H	-0.830508	0.000061	-0.437322
H233	H	-0.497175	0.333395	-0.103989
H234	H	-0.163841	0.666728	0.229345
H235	H	-0.706846	0.000090	0.026046
H236	H	-0.373513	0.333423	0.359379
H237	H	-0.040179	0.666757	0.692713
H238	H	-1.076601	0.000106	-0.604197
H239	H	-0.743268	0.333439	-0.270864
H240	H	-0.409934	0.666772	0.062469
