data_functionalizedCrystal
_audit_creation_method	'MofGen! by Chris Wilmer'
_symmetry_space_group_name_H-M	'P1'
_symmetry_Int_Tables_number	1
_symmetry_cell_setting	triclinic
loop_
_symmetry_equiv_pos_as_xyz
  x,y,z
_cell_length_a	6.817900
_cell_length_b	19.453067
_cell_length_c	19.453114
_cell_angle_alpha	96.315275
_cell_angle_beta	101.709288
_cell_angle_gamma	101.708464
loop_
_atom_site_label
_atom_site_type_symbol
_atom_site_fract_x
_atom_site_fract_y
_atom_site_fract_z
V1	V	-3.997992	-0.097913	-0.219326
V2	V	-3.497992	0.402087	0.280674
O3	O	-3.995098	0.003953	-0.214817
O4	O	-3.495098	0.503953	0.285183
O5	O	-3.941006	-0.193422	-0.218146
O6	O	-3.441006	0.306578	0.281854
O7	O	-3.941013	-0.096737	-0.314835
O8	O	-3.441013	0.403263	0.185165
O9	O	-3.995092	-0.093401	-0.117459
O10	O	-3.495092	0.406599	0.382541
V11	V	-4.483844	-0.085690	-0.207103
V12	V	-3.983844	0.414310	0.292897
O13	O	-4.254141	-0.124726	-0.246138
O14	O	-3.754141	0.375274	0.253862
O15	O	-4.677892	-0.058877	-0.180290
O16	O	-4.177892	0.441123	0.319710
O17	O	-4.317623	0.009819	-0.208282
O18	O	-3.817623	0.509819	0.291718
O19	O	-4.604135	-0.187556	-0.211611
O20	O	-4.104135	0.312444	0.288389
O21	O	-4.604141	-0.090202	-0.308969
O22	O	-4.104141	0.409798	0.191031
O23	O	-4.317617	-0.086866	-0.111593
O24	O	-3.817617	0.413134	0.388407
C25	C	-3.784196	-0.216694	-0.214769
C26	C	-3.284196	0.283306	0.285231
C27	C	-3.818833	-0.294776	-0.214442
C28	C	-3.318833	0.205224	0.285558
C29	C	-4.034529	-0.841951	-0.147825
C30	C	-3.534529	-0.341951	0.352175
C31	C	-4.001966	-0.768584	-0.148126
C32	C	-3.501966	-0.268584	0.351874
C33	C	-4.017292	-0.742101	-0.212595
C34	C	-3.517292	-0.242101	0.287405
C35	C	-4.065135	-0.788992	-0.276767
C36	C	-3.565135	-0.288992	0.223233
C37	C	-4.097677	-0.862357	-0.276464
C38	C	-3.597677	-0.362357	0.223536
N39	N	-4.103240	-0.636813	-0.263556
N40	N	-3.603240	-0.136813	0.236444
N41	N	-4.072329	-0.567119	-0.263839
N42	N	-3.572329	-0.067119	0.236161
C43	C	-3.919243	-0.521056	-0.213511
C44	C	-3.419243	-0.021056	0.286489
N45	N	-3.798256	-0.547320	-0.162879
N46	N	-3.298256	-0.047320	0.337121
N47	N	-3.829178	-0.617021	-0.162594
N48	N	-3.329178	-0.117021	0.337406
C49	C	-3.982008	-0.662550	-0.212931
C50	C	-3.482008	-0.162550	0.287069
C51	C	-3.836083	-0.394622	-0.149669
C52	C	-3.336083	0.105378	0.350331
C53	C	-3.803508	-0.321253	-0.149972
C54	C	-3.303508	0.178747	0.350028
C55	C	-3.866699	-0.341663	-0.278616
C56	C	-3.366699	0.158337	0.221384
C57	C	-3.899252	-0.415030	-0.278310
C58	C	-3.399252	0.084970	0.221690
C59	C	-3.883951	-0.441504	-0.213835
C60	C	-3.383951	0.058496	0.286165
C61	C	-3.784203	-0.093363	-0.338104
C62	C	-3.284203	0.406637	0.161896
C63	C	-3.818843	-0.093033	-0.416185
C64	C	-3.318843	0.406967	0.083815
C65	C	-4.016582	-0.096404	-0.456453
C66	C	-3.516582	0.403596	0.043547
C67	C	-4.049131	-0.096095	-0.529819
C68	C	-3.549131	0.403905	-0.029819
C69	C	-3.883936	-0.092428	-0.562916
C70	C	-3.383936	0.407572	-0.062916
C71	C	-3.686167	-0.089053	-0.522637
C72	C	-3.186167	0.410947	-0.022637
C73	C	-3.653621	-0.089356	-0.449272
C74	C	-3.153621	0.410644	0.050728
N75	N	-3.820858	-0.129522	-0.681829
N76	N	-3.320858	0.370478	-0.181829
N77	N	-3.851789	-0.129237	-0.751523
N78	N	-3.351789	0.370763	-0.251523
C79	C	-3.981984	-0.091515	-0.783961
C80	C	-3.481984	0.408485	-0.283961
N81	N	-4.080115	-0.054100	-0.744074
N82	N	-3.580115	0.445900	-0.244074
N83	N	-4.049189	-0.054389	-0.674373
N84	N	-3.549189	0.445611	-0.174373
C85	C	-3.919206	-0.092100	-0.642468
C86	C	-3.419206	0.407900	-0.142468
C87	C	-4.215028	-0.094550	-0.903781
C88	C	-3.715028	0.405450	-0.403781
C89	C	-4.247567	-0.094236	-0.977147
C90	C	-3.747567	0.405764	-0.477147
C91	C	-3.884601	-0.087201	-0.969965
C92	C	-3.384601	0.412799	-0.469965
C93	C	-3.852064	-0.087508	-0.896599
C94	C	-3.352064	0.412492	-0.396599
C95	C	-4.017287	-0.091186	-0.863512
C96	C	-3.517287	0.408814	-0.363512
C97	C	-4.137775	0.033088	-0.211657
C98	C	-3.637775	0.533088	0.288343
C99	C	-4.082376	0.111168	-0.211989
C100	C	-3.582376	0.611168	0.288011
C101	C	-4.137768	-0.090243	-0.088321
C102	C	-3.637768	0.409757	0.411679
C103	C	-4.082367	-0.090568	-0.010239
C104	C	-3.582367	0.409432	0.489761
H105	H	-3.938225	-0.453202	-0.330560
H106	H	-3.438225	0.046798	0.169440
Br107	Br	-3.583693	-0.082943	-0.841947
Br108	Br	-3.083693	0.417057	-0.341947
H109	H	-4.022062	-0.863501	-0.095324
H110	H	-3.522062	-0.363501	0.404676
Br111	Br	-3.937019	-0.704948	-0.061040
Br112	Br	-3.437019	-0.204948	0.438960
Br113	Br	-4.317510	-0.100663	-0.584480
Br114	Br	-3.817510	0.399337	-0.084480
Br115	Br	-4.085911	-0.753053	-0.364261
Br116	Br	-3.585911	-0.253053	0.135739
H117	H	-4.136636	-0.900528	-0.328716
H118	H	-3.636636	-0.400528	0.171284
Br119	Br	-3.461968	-0.084072	-0.567551
Br120	Br	-2.961968	0.415928	-0.067551
Br121	Br	-4.515949	-0.098808	-1.031799
Br122	Br	-4.015949	0.401192	-0.531799
Br123	Br	-3.385240	-0.084782	-0.394618
Br124	Br	-2.885240	0.415218	0.105382
H125	H	-4.151122	-0.099396	-0.429518
H126	H	-3.651122	0.400604	0.070482
Br127	Br	-3.660390	-0.082208	-1.014871
Br128	Br	-3.160390	0.417792	-0.514871
Br129	Br	-3.815300	-0.430556	-0.062169
Br130	Br	-3.315300	0.069444	0.437831
H131	H	-3.764537	-0.283083	-0.097719
H132	H	-3.264537	0.216917	0.402281
H133	H	-3.879168	-0.320102	-0.331107
H134	H	-3.379168	0.179898	0.168893
Br135	Br	-4.439247	-0.099537	-0.858872
Br136	Br	-3.939247	0.400463	-0.358872
