data_functionalizedCrystal
_audit_creation_method	'MofGen! by Chris Wilmer'
_symmetry_space_group_name_H-M	'P1'
_symmetry_Int_Tables_number	1
_symmetry_cell_setting	triclinic
loop_
_symmetry_equiv_pos_as_xyz
  x,y,z
_cell_length_a	13.033293
_cell_length_b	13.032721
_cell_length_c	10.686551
_cell_angle_alpha	86.664748
_cell_angle_beta	100.972412
_cell_angle_gamma	105.184121
loop_
_atom_site_label
_atom_site_type_symbol
_atom_site_fract_x
_atom_site_fract_y
_atom_site_fract_z
Zn1	Zn	1.642199	-0.144813	0.987968
Zn2	Zn	2.142199	0.355187	1.487968
Zn3	Zn	1.605871	-0.336106	0.800702
Zn4	Zn	2.105871	0.163894	1.300702
Zn5	Zn	1.447452	-0.184502	0.753144
Zn6	Zn	1.947452	0.315498	1.253144
Zn7	Zn	1.441968	-0.344929	0.987822
Zn8	Zn	1.941968	0.155071	1.487822
O9	O	1.534373	-0.252587	0.882409
O10	O	2.034373	0.247413	1.382409
O11	O	1.787477	-0.149885	0.983091
O12	O	2.287477	0.350115	1.483091
O13	O	1.571949	-0.328913	0.617809
O14	O	2.071949	0.171087	1.117809
O15	O	1.490784	-0.032041	0.764452
O16	O	1.990784	0.467959	1.264452
O17	O	1.760787	-0.290428	0.845508
O18	O	2.260787	0.209572	1.345508
O19	O	1.633864	-0.002881	0.936975
O20	O	2.133864	0.497119	1.436975
O21	O	1.455558	-0.217530	0.582868
O22	O	1.955558	0.282470	1.082868
O23	O	1.296628	-0.226085	0.764311
O24	O	1.796628	0.273915	1.264311
O25	O	1.481437	-0.305465	1.164426
O26	O	1.981437	0.194535	1.664426
O27	O	1.292598	-0.343950	0.936728
O28	O	1.792598	0.156050	1.436728
O29	O	1.628546	-0.158441	1.164533
O30	O	2.128546	0.341559	1.664533
O31	O	1.566631	-0.484473	0.845367
O32	O	2.066631	0.015527	1.345367
O33	O	1.446211	-0.490955	0.982843
O34	O	1.946211	0.009045	1.482843
C35	C	1.255695	-0.290283	0.845344
C36	C	1.755695	0.209717	1.345344
C37	C	1.136474	-0.306432	0.829520
C38	C	1.636474	0.193568	1.329520
C39	C	1.096524	-0.244185	0.890671
C40	C	1.596524	0.255815	1.390671
C41	C	0.973304	-0.260875	0.874318
C42	C	1.473304	0.239125	1.374318
C43	C	1.501915	-0.525874	0.919281
C44	C	2.001915	-0.025874	1.419281
C45	C	1.488130	-0.642771	0.935110
C46	C	1.988130	-0.142771	1.435110
C47	C	1.541628	-0.691633	0.874212
C48	C	2.041628	-0.191633	1.374212
C49	C	1.527382	-0.812452	0.890571
C50	C	2.027382	-0.312452	1.390571
C51	C	1.814139	-0.214745	0.919620
C52	C	2.314139	0.285255	1.419620
C53	C	1.933358	-0.198619	0.935478
C54	C	2.433358	0.301381	1.435478
C55	C	1.558432	-0.228510	1.211547
C56	C	2.058432	0.271490	1.711547
C57	C	1.568685	-0.218250	1.351805
C58	C	2.068685	0.281750	1.851805
C59	C	1.566988	0.021773	0.845425
C60	C	2.066988	0.521773	1.345425
C61	C	1.580887	0.138688	0.829664
C62	C	2.080887	0.638688	1.329664
C63	C	1.510477	-0.276487	0.554550
C64	C	2.010477	0.223513	1.054550
C65	C	1.500467	-0.286423	0.414280
C66	C	2.000467	0.213577	0.914280
H67	H	1.153545	-0.178534	0.955126
H68	H	1.653545	0.321466	1.455126
H69	H	0.990375	-0.132961	0.999935
H70	H	1.490375	0.367039	1.499935
O71	O	1.421404	-0.365515	1.350294
O72	O	1.921404	0.134485	1.850294
C73	C	1.360022	-0.426825	1.436532
C74	C	1.860022	0.073175	1.936532
H75	H	1.410310	-0.417721	1.536852
H76	H	1.910310	0.082279	2.036852
H77	H	1.335980	-0.514011	1.408010
H78	H	1.835980	-0.014011	1.908010
H79	H	1.284142	-0.398323	1.434468
H80	H	1.784142	0.101677	1.934468
H81	H	0.916286	-0.326525	0.809851
H82	H	1.416286	0.173475	1.309851
O83	O	1.460015	-0.869149	0.967130
O84	O	1.960015	-0.369149	1.467130
C85	C	1.354222	-0.859000	0.921632
C86	C	1.854222	-0.359000	1.421632
H87	H	1.357821	-0.783085	0.862104
H88	H	1.857821	-0.283085	1.362104
H89	H	1.313143	-0.855225	1.005764
H90	H	1.813143	-0.355225	1.505764
H91	H	1.306156	-0.930481	0.860239
H92	H	1.806156	-0.430481	1.360239
H93	H	1.431788	-0.690383	0.999364
H94	H	1.931788	-0.190383	1.499364
H95	H	1.634941	-0.152034	1.405628
H96	H	2.134941	0.347966	1.905628
H97	H	1.079453	-0.372078	0.765057
H98	H	1.579453	0.127922	1.265057
H99	H	1.637243	-0.813703	0.765416
H100	H	2.137243	-0.313703	1.265416
O101	O	1.608693	-0.634824	0.797400
O102	O	2.108693	-0.134824	1.297400
C103	C	1.549153	-0.585563	0.699216
C104	C	2.049153	-0.085563	1.199216
H105	H	1.460213	-0.630814	0.684575
H106	H	1.960213	-0.130814	1.184575
H107	H	1.581076	-0.586045	0.607125
H108	H	2.081076	-0.086045	1.107125
H109	H	1.558024	-0.500000	0.726550
H110	H	2.058024	-0.000000	1.226550
