data_functionalizedCrystal
_audit_creation_method	'MofGen! by Chris Wilmer'
_symmetry_space_group_name_H-M	'P1'
_symmetry_Int_Tables_number	1
_symmetry_cell_setting	triclinic
loop_
_symmetry_equiv_pos_as_xyz
  x,y,z
_cell_length_a	13.897449
_cell_length_b	21.295411
_cell_length_c	13.897447
_cell_angle_alpha	89.985452
_cell_angle_beta	90.020810
_cell_angle_gamma	89.976615
loop_
_atom_site_label
_atom_site_type_symbol
_atom_site_fract_x
_atom_site_fract_y
_atom_site_fract_z
Zn1	Zn	1.474715	-0.355923	-0.384092
Zn2	Zn	1.474597	-0.250661	-0.545372
Zn3	Zn	1.313397	-0.250670	-0.384096
Zn4	Zn	1.313381	-0.355895	-0.545350
O5	O	1.394023	-0.303287	-0.464728
O6	O	1.609681	-0.341967	-0.405493
O7	O	1.453170	-0.162573	-0.523989
O8	O	1.334853	-0.264647	-0.249114
O9	O	1.609594	-0.264632	-0.523985
O10	O	1.453373	-0.341976	-0.249111
O11	O	1.334738	-0.162579	-0.405501
O12	O	1.178413	-0.264620	-0.405480
O13	O	1.334825	-0.443988	-0.523948
O14	O	1.178402	-0.341929	-0.523952
O15	O	1.453357	-0.444008	-0.405472
O16	O	1.453155	-0.264605	-0.680351
O17	O	1.334710	-0.341920	-0.680335
C18	C	1.143408	-0.303273	-0.464715
C19	C	1.036194	-0.303282	-0.464732
C20	C	0.839899	-0.303298	-0.464736
C21	C	0.949132	-0.303287	-0.464731
C22	C	1.394103	-0.467478	-0.464707
C23	C	1.394137	-0.537446	-0.464699
C24	C	1.455854	-0.570324	-0.403005
C25	C	1.455852	-0.636066	-0.402964
C26	C	1.394144	-0.668928	-0.464632
C27	C	1.332416	-0.636042	-0.526330
C28	C	1.332412	-0.570301	-0.526363
N29	N	1.386718	-0.772151	-0.549014
N30	N	1.386728	-0.834602	-0.548980
C31	C	1.394150	-0.867003	-0.464534
N32	N	1.401582	-0.834593	-0.380123
N33	N	1.401578	-0.772136	-0.380158
C34	C	1.394141	-0.740214	-0.464603
C35	C	1.455869	-0.971167	-0.402791
C36	C	1.455861	-1.036911	-0.402747
C37	C	1.332429	-1.036885	-0.526122
C38	C	1.332432	-0.971142	-0.526157
C39	C	1.394157	-0.938287	-0.464492
C40	C	1.645616	-0.303302	-0.464741
C41	C	1.752830	-0.303308	-0.464747
C42	C	1.393944	-0.303273	-0.715342
C43	C	1.393999	-0.303287	-0.822556
C44	C	1.393998	-0.139736	-0.464678
C45	C	1.394151	-0.069768	-0.464415
C46	C	1.394046	-0.303302	-0.909626
C47	C	1.394113	-0.303318	-1.018858
C48	C	1.394128	-0.303316	-0.213135
C49	C	1.394172	-0.303328	-0.105921
H50	H	1.506114	-0.543577	-0.352792
H51	H	1.506107	-0.662841	-0.352720
C52	C	1.264534	-0.534133	-0.594242
H53	H	1.227786	-0.563118	-0.630970
H54	H	1.222521	-0.508469	-0.557364
H55	H	1.301430	-0.508505	-0.636287
C56	C	1.264550	-0.934975	-0.594027
H57	H	1.227803	-0.963960	-0.630754
H58	H	1.222537	-0.909316	-0.557140
H59	H	1.301436	-0.909341	-0.636075
C60	C	1.264543	-0.672187	-0.594167
H61	H	1.273392	-0.716050	-0.585320
H62	H	1.199737	-0.661399	-0.580056
H63	H	1.278640	-0.661417	-0.658986
C64	C	1.523746	-0.935024	-0.334948
H65	H	1.560491	-0.964023	-0.298186
H66	H	1.565762	-0.909389	-0.371854
H67	H	1.486850	-0.909369	-0.292932
H68	H	1.506117	-1.063679	-0.352504
C69	C	1.264558	-1.073025	-0.593962
H70	H	1.273404	-1.116888	-0.585113
H71	H	1.199751	-1.062236	-0.579856
H72	H	1.278661	-1.062256	-0.658780
