data_functionalizedCrystal
_audit_creation_method	'MofGen! by Chris Wilmer'
_symmetry_space_group_name_H-M	'P1'
_symmetry_Int_Tables_number	1
_symmetry_cell_setting	triclinic
loop_
_symmetry_equiv_pos_as_xyz
  x,y,z
_cell_length_a	29.839134
_cell_length_b	29.839131
_cell_length_c	19.805398
_cell_angle_alpha	89.969409
_cell_angle_beta	89.987884
_cell_angle_gamma	90.021992
loop_
_atom_site_label
_atom_site_type_symbol
_atom_site_fract_x
_atom_site_fract_y
_atom_site_fract_z
Zn1	Zn	0.686719	-0.179092	-0.382692
Zn2	Zn	0.686651	-0.254221	-0.269500
Zn3	Zn	0.611602	-0.179080	-0.269519
Zn4	Zn	0.611550	-0.254170	-0.382649
O5	O	0.649131	-0.216641	-0.326090
O6	O	0.749577	-0.189084	-0.367687
O7	O	0.676690	-0.244270	-0.174786
O8	O	0.621617	-0.116215	-0.284557
O9	O	0.749528	-0.244281	-0.284525
O10	O	0.676805	-0.116223	-0.367705
O11	O	0.621551	-0.189064	-0.174799
O12	O	0.548728	-0.189015	-0.284515
O13	O	0.621528	-0.244195	-0.477371
O14	O	0.548690	-0.244183	-0.367631
O15	O	0.676754	-0.189035	-0.477403
O16	O	0.676639	-0.317081	-0.284483
O17	O	0.621462	-0.317044	-0.367613
C18	C	0.532408	-0.216593	-0.326071
C19	C	0.482474	-0.216583	-0.326079
C20	C	0.649049	-0.333364	-0.326056
C21	C	0.649056	-0.383298	-0.326064
C22	C	0.125908	-0.187960	-0.369477
C23	C	0.313581	-0.187924	-0.369462
O24	O	0.337864	-0.163530	-0.406357
N25	N	0.337028	-0.216612	-0.326095
C26	C	0.313555	-0.245314	-0.282732
O27	O	0.337804	-0.269718	-0.245851
C28	C	0.125882	-0.245352	-0.282752
C29	C	0.102438	-0.216659	-0.326116
C30	C	0.102463	-0.159269	-0.412839
C31	C	0.055548	-0.159276	-0.412840
C32	C	0.032077	-0.187975	-0.369479
C33	C	0.055522	-0.216666	-0.326117
C34	C	0.102409	-0.274056	-0.239393
C35	C	0.055488	-0.274064	-0.239403
C36	C	0.032043	-0.245370	-0.282767
C37	C	-0.014864	-0.245372	-0.282757
N38	N	-0.038311	-0.216684	-0.326124
C39	C	-0.014841	-0.187985	-0.369485
C40	C	0.412085	-0.245292	-0.282724
C41	C	0.459003	-0.245282	-0.282718
C42	C	0.459027	-0.187892	-0.369449
C43	C	0.412108	-0.187900	-0.369451
C44	C	0.388638	-0.216603	-0.326091
C45	C	-0.113366	-0.188003	-0.369483
C46	C	-0.160286	-0.188012	-0.369478
C47	C	-0.160305	-0.245403	-0.282750
C48	C	-0.113390	-0.245393	-0.282752
C49	C	-0.089922	-0.216691	-0.326124
O50	O	-0.039176	-0.269757	-0.245886
O51	O	-0.039098	-0.163592	-0.406371
C52	C	0.172824	-0.187952	-0.369476
C53	C	0.196268	-0.216643	-0.326115
C54	C	0.172798	-0.245342	-0.282754
C55	C	0.243186	-0.216633	-0.326109
C56	C	0.266657	-0.187935	-0.369470
C57	C	0.243210	-0.159246	-0.412836
C58	C	0.196294	-0.159253	-0.412837
C59	C	0.196245	-0.274031	-0.239387
C60	C	0.243160	-0.274021	-0.239389
C61	C	0.266631	-0.245322	-0.282750
C62	C	0.677913	-0.692948	-0.282867
C63	C	0.677969	-0.880621	-0.282893
O64	O	0.702440	-0.904892	-0.246140
N65	N	0.649224	-0.904083	-0.326141
C66	C	0.620465	-0.880624	-0.369388
O67	O	0.596020	-0.904886	-0.406178
C68	C	0.620412	-0.692952	-0.369364
C69	C	0.649156	-0.669492	-0.326109
C70	C	0.706655	-0.669489	-0.239616
C71	C	0.706639	-0.622573	-0.239608
C72	C	0.677882	-0.599117	-0.282850
C73	C	0.649140	-0.622577	-0.326101
C74	C	0.591656	-0.669493	-0.412614
C75	C	0.591646	-0.622572	-0.412606
C76	C	0.620390	-0.599113	-0.369351
C77	C	0.620366	-0.552205	-0.369334
N78	N	0.649111	-0.528743	-0.326087
C79	C	0.677869	-0.552199	-0.282845
C80	C	0.620494	-0.979154	-0.369396
C81	C	0.620507	-1.026072	-0.369401
C82	C	0.678011	-1.026066	-0.282908
C83	C	0.677996	-0.979148	-0.282900
C84	C	0.649239	-0.955692	-0.326149
C85	C	0.677833	-0.453673	-0.282829
C86	C	0.677814	-0.406754	-0.282822
C87	C	0.620311	-0.406764	-0.369318
C88	C	0.620329	-0.453679	-0.369323
C89	C	0.649093	-0.477133	-0.326076
O90	O	0.595911	-0.527906	-0.406074
O91	O	0.702317	-0.527929	-0.246071
C92	C	0.677929	-0.739864	-0.282876
C93	C	0.649187	-0.763323	-0.326127
C94	C	0.620430	-0.739867	-0.369369
C95	C	0.649200	-0.810241	-0.326132
C96	C	0.677958	-0.833697	-0.282890
C97	C	0.706703	-0.810235	-0.239643
C98	C	0.706687	-0.763319	-0.239634
C99	C	0.591685	-0.763329	-0.412616
C100	C	0.591703	-0.810244	-0.412621
C101	C	0.620460	-0.833700	-0.369379
C102	C	0.766309	-0.216690	-0.326109
C103	C	0.816243	-0.216710	-0.326117
C104	C	0.649143	-0.216611	-0.502632
C105	C	0.649148	-0.216598	-0.577865
C106	C	0.649224	-0.099463	-0.326138
C107	C	0.649264	-0.049528	-0.326159
C108	C	0.677929	-0.245272	-1.039646
C109	C	0.677917	-0.245284	-0.968958
C110	C	0.649204	-0.216547	-0.933626
C111	C	0.620498	-0.187799	-0.968987
C112	C	0.620508	-0.187790	-1.039675
C113	C	0.620454	-0.187838	-0.683914
C114	C	0.620447	-0.187848	-0.613222
C115	C	0.677863	-0.245332	-0.613197
C116	C	0.677873	-0.245322	-0.683884
C117	C	0.649166	-0.216576	-0.719239
C118	C	0.649179	-0.216564	-0.795887
C119	C	0.649192	-0.216557	-0.856979
C120	C	0.649144	-0.216639	-0.150234
C121	C	0.649226	-0.216525	-0.075002
H122	H	-0.179373	-0.164644	-0.404791
N123	N	0.031614	-0.129964	-0.457147
N124	N	0.036873	-0.132993	-0.519593
H125	H	0.019974	-0.112289	-0.550889
N126	N	0.591197	-0.158418	-1.075792
N127	N	0.607032	-0.129791	-1.115249
H128	H	0.586330	-0.109046	-1.140756
H129	H	0.701284	-0.268698	-0.940174
N130	N	0.591141	-1.050039	-0.413570
N131	N	0.562530	-1.076248	-0.389721
H132	H	0.541791	-1.093174	-0.420918
N133	N	0.736052	-0.739357	-0.195458
N134	N	0.764663	-0.713146	-0.219300
H135	H	0.785403	-0.696224	-0.188098
N136	N	0.707382	-1.050030	-0.238728
N137	N	0.691605	-1.076240	-0.195579
H138	H	0.712348	-1.093166	-0.164381
H139	H	0.701220	-0.387655	-0.247597
H140	H	-0.179424	-0.268767	-0.247444
N141	N	0.707209	-0.274670	-0.719973
N142	N	0.748665	-0.271709	-0.712082
H143	H	0.769384	-0.292437	-0.737570
N144	N	-0.089405	-0.158683	-0.413790
N145	N	-0.110351	-0.133069	-0.452499
H146	H	-0.093430	-0.112360	-0.483788
N147	N	0.591175	-0.158445	-0.932886
N148	N	0.607002	-0.129831	-0.893457
H149	H	0.586294	-0.109097	-0.867959
N150	N	0.590939	-0.382806	-0.413499
N151	N	0.565279	-0.403753	-0.452120
H152	H	0.544537	-0.386833	-0.483328
N153	N	-0.089437	-0.274691	-0.238443
N154	N	-0.094683	-0.271657	-0.175995
H155	H	-0.077769	-0.292350	-0.144703
N156	N	0.707192	-0.274693	-0.577083
N157	N	0.735827	-0.258902	-0.537648
H158	H	0.756542	-0.279636	-0.512144
N159	N	0.126426	-0.129950	-0.457143
N160	N	0.105479	-0.104339	-0.495853
H161	H	0.122400	-0.083629	-0.527143
H162	H	0.701313	-0.268671	-1.068408
H163	H	0.568292	-0.829341	-0.447844
H164	H	0.177210	-0.135888	-0.448149
N165	N	0.736038	-0.693437	-0.195441
N166	N	0.761697	-0.672476	-0.156833
H167	H	0.782449	-0.689386	-0.125628
H168	H	0.393022	-0.164534	-0.404761
N169	N	0.736073	-0.834207	-0.195471
N170	N	0.736077	-0.876097	-0.195490
H171	H	0.756819	-0.893030	-0.164298
N172	N	0.591115	-0.158488	-0.577141
N173	N	0.565486	-0.132823	-0.608715
H174	H	0.544772	-0.112087	-0.583233
H175	H	0.568229	-0.603477	-0.447827
H176	H	0.262328	-0.135877	-0.448140
H177	H	0.597078	-0.164432	-0.712691
N178	N	0.735998	-0.598620	-0.195411
N179	N	0.733045	-0.603899	-0.132955
H180	H	0.753782	-0.586986	-0.101736
N181	N	0.483013	-0.158577	-0.413734
N182	N	0.524903	-0.158576	-0.413717
H183	H	0.541846	-0.137875	-0.444994
N184	N	0.031508	-0.303384	-0.195117
N185	N	0.005325	-0.332035	-0.218855
H186	H	-0.011611	-0.352741	-0.187578
N187	N	0.482948	-0.274581	-0.238406
N188	N	0.477694	-0.271549	-0.175960
H189	H	0.494604	-0.292244	-0.144664
N190	N	0.388123	-0.274611	-0.238415
N191	N	0.393360	-0.271574	-0.175969
H192	H	0.376440	-0.292279	-0.144672
N193	N	0.126343	-0.303370	-0.195091
N194	N	0.105372	-0.328991	-0.156388
H195	H	0.122274	-0.349697	-0.125098
H196	H	0.262245	-0.297386	-0.204070
N197	N	0.562306	-0.739380	-0.456796
N198	N	0.536646	-0.760339	-0.495404
H199	H	0.515894	-0.743427	-0.526608
N200	N	0.172281	-0.303352	-0.195091
N201	N	0.193227	-0.328964	-0.156379
H202	H	0.176304	-0.349673	-0.125090
H203	H	0.568247	-0.688586	-0.447834
H204	H	0.597075	-0.960060	-0.404615
N205	N	0.707217	-0.477619	-0.238649
N206	N	0.732874	-0.456660	-0.200036
H207	H	0.753625	-0.473571	-0.168830
H208	H	0.701402	-0.960050	-0.247678
N209	N	0.590958	-0.477638	-0.413498
N210	N	0.565280	-0.456688	-0.452098
H211	H	0.544538	-0.473605	-0.483301
