data_functionalizedCrystal
_audit_creation_method	'MofGen! by Chris Wilmer'
_symmetry_space_group_name_H-M	'P1'
_symmetry_Int_Tables_number	1
_symmetry_cell_setting	triclinic
loop_
_symmetry_equiv_pos_as_xyz
  x,y,z
_cell_length_a	19.188931
_cell_length_b	19.188930
_cell_length_c	17.666332
_cell_angle_alpha	89.990320
_cell_angle_beta	89.995635
_cell_angle_gamma	83.144962
loop_
_atom_site_label
_atom_site_type_symbol
_atom_site_fract_x
_atom_site_fract_y
_atom_site_fract_z
O1	O	-0.926146	-0.087170	0.062931
O2	O	-0.592812	0.246163	0.396264
O3	O	-0.259479	0.579496	0.729597
O4	O	-0.722835	-0.098904	0.062939
O5	O	-0.389501	0.234430	0.396272
O6	O	-0.056168	0.567763	0.729606
O7	O	-0.830357	0.008619	0.062920
O8	O	-0.497024	0.341952	0.396253
O9	O	-0.163691	0.675285	0.729587
O10	O	-0.818623	-0.194693	0.062950
O11	O	-0.485290	0.138641	0.396283
O12	O	-0.151956	0.471974	0.729617
O13	O	-0.830345	0.008621	-0.062977
O14	O	-0.497012	0.341955	0.270357
O15	O	-0.163679	0.675288	0.603690
O16	O	-0.722823	-0.098901	-0.062958
O17	O	-0.389489	0.234432	0.270376
O18	O	-0.056156	0.567765	0.603709
O19	O	-0.926134	-0.087168	-0.062966
O20	O	-0.592800	0.246166	0.270367
O21	O	-0.259467	0.579499	0.603701
Cu22	Cu	-0.824477	-0.093034	-0.074457
Cu23	Cu	-0.491144	0.240299	0.258876
Cu24	Cu	-0.157810	0.573632	0.592210
Cu25	Cu	-0.824491	-0.093037	0.074430
Cu26	Cu	-0.491158	0.240296	0.407764
Cu27	Cu	-0.157825	0.573629	0.741097
O28	O	-0.818611	-0.194690	-0.062947
O29	O	-0.485278	0.138643	0.270387
O30	O	-0.151944	0.471977	0.603720
C31	C	-0.696818	-0.098522	-0.000008
C32	C	-0.363484	0.234811	0.333325
C33	C	-0.030151	0.568144	0.666658
C34	C	-0.619313	-0.097381	-0.000006
C35	C	-0.285980	0.235952	0.333328
C36	C	0.047354	0.569285	0.666661
C37	C	-0.066064	-0.089240	0.068612
C38	C	0.267269	0.244094	0.401945
C39	C	0.600603	0.577427	0.735278
C40	C	-0.138888	-0.090308	0.068615
C41	C	0.194445	0.243026	0.401948
C42	C	0.527778	0.576359	0.735281
C43	C	-0.175299	-0.090843	-0.000011
C44	C	0.158035	0.242490	0.333322
C45	C	0.491368	0.575823	0.666655
C46	C	-0.138881	-0.090293	-0.068646
C47	C	0.194452	0.243040	0.264688
C48	C	0.527785	0.576373	0.598021
C49	C	-0.066059	-0.089218	-0.068647
C50	C	0.267274	0.244115	0.264687
C51	C	0.600607	0.577448	0.598020
N52	N	-0.284314	-0.132260	-0.051087
N53	N	0.049019	0.201073	0.282246
N54	N	0.382353	0.534406	0.615580
N55	N	-0.353491	-0.133283	-0.051081
N56	N	-0.020158	0.200050	0.282252
N57	N	0.313175	0.533384	0.615585
C58	C	-0.394707	-0.094080	-0.000012
C59	C	-0.061374	0.239253	0.333321
C60	C	0.271959	0.572586	0.666654
N61	N	-0.364131	-0.053825	0.051062
N62	N	-0.030798	0.279508	0.384395
N63	N	0.302535	0.612841	0.717729
N64	N	-0.294947	-0.052806	0.051059
N65	N	0.038387	0.280527	0.384392
N66	N	0.371720	0.613861	0.717725
C67	C	-0.254262	-0.092008	-0.000018
C68	C	0.079071	0.241325	0.333315
C69	C	0.412405	0.574658	0.666649
C70	C	-0.510081	-0.095783	0.068621
C71	C	-0.176748	0.237550	0.401954
C72	C	0.156585	0.570883	0.735287
C73	C	-0.582907	-0.096847	0.068621
C74	C	-0.249574	0.236486	0.401954
C75	C	0.083759	0.569820	0.735288
C76	C	-0.582898	-0.096840	-0.068641
C77	C	-0.249565	0.236494	0.264692
C78	C	0.083769	0.569827	0.598025
C79	C	-0.510074	-0.095769	-0.068639
C80	C	-0.176741	0.237564	0.264694
C81	C	0.156592	0.570898	0.598027
C82	C	-0.473670	-0.095244	-0.000006
C83	C	-0.140336	0.238089	0.333327
C84	C	0.192997	0.571422	0.666660
N85	N	-0.824472	-0.093032	-0.179177
N86	N	-0.491139	0.240302	0.154157
N87	N	-0.157805	0.573635	0.487490
C88	C	-0.829971	0.034631	-0.000031
C89	C	-0.496638	0.367964	0.333303
C90	C	-0.163305	0.701298	0.666636
C91	C	-0.828831	0.112135	-0.000037
C92	C	-0.495497	0.445469	0.333296
C93	C	-0.162164	0.778802	0.666630
C94	C	0.047849	-0.087550	-0.000017
C95	C	0.381183	0.245783	0.333317
C96	C	0.714516	0.579117	0.666650
C97	C	-0.029655	-0.088694	-0.000013
C98	C	0.303679	0.244640	0.333320
C99	C	0.637012	0.577973	0.666653
C100	C	-0.818997	-0.220702	0.000005
C101	C	-0.485664	0.112631	0.333339
C102	C	-0.152330	0.445964	0.666672
C103	C	-0.820138	-0.298207	0.000017
C104	C	-0.486804	0.035126	0.333350
C105	C	-0.153471	0.368460	0.666684
C106	C	-0.891921	0.157059	-0.000043
C107	C	-0.558588	0.490392	0.333290
C108	C	-0.225255	0.823726	0.666623
C109	C	-0.890850	0.229883	-0.000031
C110	C	-0.557516	0.563216	0.333302
C111	C	-0.224183	0.896550	0.666636
C112	C	-0.826684	0.257780	-0.000028
C113	C	-0.493350	0.591113	0.333305
C114	C	-0.160017	0.924446	0.666639
C115	C	-0.763585	0.212846	-0.000017
C116	C	-0.430251	0.546180	0.333316
C117	C	-0.096918	0.879513	0.666649
C118	C	-0.764658	0.140024	-0.000022
C119	C	-0.431325	0.473357	0.333311
C120	C	-0.097991	0.806691	0.666645
N121	N	-0.777632	0.365786	-0.042871
N122	N	-0.444299	0.699119	0.290462
N123	N	-0.110966	1.032452	0.623796
N124	N	-0.776617	0.434964	-0.042868
N125	N	-0.443284	0.768298	0.290465
N126	N	-0.109950	1.101631	0.623798
C127	C	-0.823446	0.477188	-0.000012
C128	C	-0.490112	0.810522	0.333321
C129	C	-0.156779	1.143855	0.666654
N130	N	-0.871339	0.447622	0.042831
N131	N	-0.538005	0.780955	0.376164
N132	N	-0.204672	1.114289	0.709498
N133	N	-0.872356	0.378437	0.042825
N134	N	-0.539023	0.711771	0.376158
N135	N	-0.205690	1.045104	0.709492
C136	C	-0.825513	0.336742	-0.000022
C137	C	-0.492179	0.670076	0.333311
C138	C	-0.158846	1.003409	0.666644
C139	C	-0.885379	0.601077	-0.000004
C140	C	-0.552045	0.934410	0.333329
C141	C	-0.218712	1.267743	0.666662
C142	C	-0.884304	0.673901	0.000012
C143	C	-0.550971	1.007235	0.333346
C144	C	-0.217638	1.340568	0.666679
C145	C	-0.757037	0.656863	0.000019
C146	C	-0.423704	0.990196	0.333352
C147	C	-0.090371	1.323530	0.666685
C148	C	-0.758114	0.584040	0.000009
C149	C	-0.424780	0.917373	0.333343
C150	C	-0.091447	1.250706	0.666676
C151	C	-0.822286	0.556151	-0.000006
C152	C	-0.488953	0.889485	0.333328
C153	C	-0.155619	1.222818	0.666661
C154	C	-0.872114	-0.045436	-0.781235
C155	C	-0.538781	0.287897	-0.447902
C156	C	-0.205447	0.621230	-0.114568
C157	C	-0.872115	-0.045438	-0.701988
C158	C	-0.538782	0.287895	-0.368654
C159	C	-0.205448	0.621229	-0.035321
C160	C	-0.824492	-0.093031	-0.662358
C161	C	-0.491159	0.240302	-0.329025
C162	C	-0.157825	0.573636	0.004309
C163	C	-0.776876	-0.140638	-0.701983
C164	C	-0.443543	0.192696	-0.368649
C165	C	-0.110209	0.526029	-0.035316
C166	C	-0.776881	-0.140639	-0.781229
C167	C	-0.443548	0.192694	-0.447895
C168	C	-0.110214	0.526027	-0.114562
N169	N	-0.762680	-0.102079	-0.537942
N170	N	-0.429347	0.231254	-0.204609
N171	N	-0.096013	0.564588	0.128725
N172	N	-0.762678	-0.102073	-0.462662
N173	N	-0.429344	0.231260	-0.129328
N174	N	-0.096011	0.564594	0.204005
C175	C	-0.824475	-0.093030	-0.423594
C176	C	-0.491142	0.240304	-0.090261
C177	C	-0.157809	0.573637	0.243073
N178	N	-0.886278	-0.083978	-0.462651
N179	N	-0.552944	0.249355	-0.129317
N180	N	-0.219611	0.582688	0.204016
N181	N	-0.886280	-0.083981	-0.537938
N182	N	-0.552946	0.249353	-0.204605
N183	N	-0.219613	0.582686	0.128729
C184	C	-0.824482	-0.093035	-0.576429
C185	C	-0.491148	0.240299	-0.243096
C186	C	-0.157815	0.573632	0.090238
C187	C	-0.872093	-0.045431	-0.298050
C188	C	-0.538760	0.287902	0.035284
C189	C	-0.205426	0.621236	0.368617
C190	C	-0.872095	-0.045437	-0.218801
C191	C	-0.538762	0.287896	0.114533
C192	C	-0.205428	0.621229	0.447866
C193	C	-0.776850	-0.140634	-0.218797
C194	C	-0.443517	0.192699	0.114536
C195	C	-0.110183	0.526033	0.447869
C196	C	-0.776854	-0.140631	-0.298045
C197	C	-0.443521	0.192703	0.035289
C198	C	-0.110187	0.526036	0.368622
C199	C	-0.824475	-0.093026	-0.337666
C200	C	-0.491141	0.240308	-0.004333
C201	C	-0.157808	0.573641	0.329000
N202	N	-0.824502	-0.093034	0.179150
N203	N	-0.491168	0.240299	0.512483
N204	N	-0.157835	0.573632	0.845816
H205	H	-0.480439	-0.095354	0.124506
H206	H	-0.147106	0.237979	0.457839
H207	H	0.186227	0.571313	0.791173
H208	H	-0.738077	-0.179388	-0.186532
H209	H	-0.404744	0.153946	0.146802
H210	H	-0.071410	0.487279	0.480135
H211	H	-0.036428	-0.088810	0.124498
H212	H	0.296905	0.244524	0.457831
H213	H	0.630238	0.577857	0.791165
H214	H	-0.704792	0.679576	0.000025
H215	H	-0.371459	1.012909	0.333358
H216	H	-0.038125	1.346242	0.666692
C217	C	-0.469986	-0.095417	-0.144125
C218	C	-0.136652	0.237916	0.189208
C219	C	0.196681	0.571249	0.522541
H220	H	-0.421392	-0.094769	-0.134298
H221	H	-0.088059	0.238565	0.199036
H222	H	0.245274	0.571898	0.532369
H223	H	-0.476548	-0.136372	-0.172153
H224	H	-0.143215	0.196962	0.161181
H225	H	0.190119	0.530295	0.494514
H226	H	-0.487270	-0.054952	-0.172494
H227	H	-0.153937	0.278381	0.160840
H228	H	0.179397	0.611714	0.494173
H229	H	-0.612543	-0.097273	-0.124518
H230	H	-0.279210	0.236060	0.208815
H231	H	0.054124	0.569393	0.542149
H232	H	-0.935683	0.710478	0.000012
H233	H	-0.602349	1.043812	0.333345
H234	H	-0.269016	1.377145	0.666678
C235	C	-0.724475	-0.192982	-0.341627
C236	C	-0.391142	0.140351	-0.008294
C237	C	-0.057809	0.473685	0.325040
H238	H	-0.731302	-0.186170	-0.394498
H239	H	-0.397969	0.147163	-0.061165
H240	H	-0.064635	0.480496	0.272168
H241	H	-0.677902	-0.185517	-0.328649
H242	H	-0.344569	0.147816	0.004684
H243	H	-0.011236	0.481150	0.338018
H244	H	-0.731919	-0.239564	-0.328629
H245	H	-0.398585	0.093770	0.004704
H246	H	-0.065252	0.427103	0.338038
H247	H	-0.168538	-0.090756	0.124499
H248	H	0.164795	0.242577	0.457833
H249	H	0.498129	0.575911	0.791166
C250	C	-0.178928	-0.090871	-0.144134
C251	C	0.154406	0.242462	0.189199
C252	C	0.487739	0.575796	0.522533
H253	H	-0.146812	-0.090383	-0.185007
H254	H	0.186521	0.242950	0.148326
H255	H	0.519855	0.576284	0.481660
H256	H	-0.201890	-0.131993	-0.146993
H257	H	0.131443	0.201341	0.186340
H258	H	0.464776	0.534674	0.519674
H259	H	-0.212782	-0.050575	-0.146980
H260	H	0.120552	0.282758	0.186353
H261	H	0.453885	0.616091	0.519687
H262	H	-0.711340	0.235564	-0.000013
H263	H	-0.378007	0.568898	0.333320
H264	H	-0.044673	0.902231	0.666654
C265	C	-0.962508	0.126385	-0.000046
C266	C	-0.629175	0.459718	0.333287
C267	C	-0.295841	0.793052	0.666620
H268	H	-0.999930	0.163574	-0.000041
H269	H	-0.666596	0.496908	0.333293
H270	H	-0.333263	0.830241	0.666626
H271	H	-0.965572	0.098337	-0.043948
H272	H	-0.632238	0.431670	0.289385
H273	H	-0.298905	0.765003	0.622718
H274	H	-0.965574	0.098327	0.043863
H275	H	-0.632241	0.431660	0.377197
H276	H	-0.298908	0.764994	0.710530
H277	H	-0.910870	-0.006680	-0.186545
H278	H	-0.577537	0.326654	0.146788
H279	H	-0.244204	0.659987	0.480121
C280	C	-0.924504	0.006918	-0.824815
C281	C	-0.591170	0.340251	-0.491481
C282	C	-0.257837	0.673585	-0.158148
H283	H	-0.952865	0.035261	-0.789867
H284	H	-0.619532	0.368594	-0.456533
H285	H	-0.286198	0.701927	-0.123200
H286	H	-0.899485	0.035920	-0.855743
H287	H	-0.566152	0.369253	-0.522410
H288	H	-0.232819	0.702587	-0.189077
H289	H	-0.953494	-0.018134	-0.855713
H290	H	-0.620161	0.315199	-0.522380
H291	H	-0.286827	0.648532	-0.189046
C292	C	-0.026007	-0.088625	-0.144137
C293	C	0.307327	0.244708	0.189196
C294	C	0.640660	0.578042	0.522529
H295	H	-0.058118	-0.089100	-0.185010
H296	H	0.275215	0.244233	0.148323
H297	H	0.608549	0.577566	0.481656
H298	H	-0.003044	-0.047502	-0.146996
H299	H	0.330290	0.285831	0.186337
H300	H	0.663623	0.619164	0.519671
H301	H	0.007848	-0.128920	-0.146984
H302	H	0.341181	0.204414	0.186350
H303	H	0.674514	0.537747	0.519683
C304	C	-0.622958	-0.097448	0.144113
C305	C	-0.289625	0.235885	0.477446
C306	C	0.043709	0.569219	0.810779
H307	H	-0.590843	-0.096988	0.184984
H308	H	-0.257510	0.236345	0.518318
H309	H	0.075823	0.569678	0.851651
H310	H	-0.656815	-0.057161	0.146968
H311	H	-0.323481	0.276172	0.480301
H312	H	0.009852	0.609506	0.813635
H313	H	-0.645916	-0.138578	0.146964
H314	H	-0.312582	0.194755	0.480297
H315	H	0.020751	0.528088	0.813631
C316	C	-0.924484	0.006926	-0.658398
C317	C	-0.591150	0.340259	-0.325065
C318	C	-0.257817	0.673592	0.008268
H319	H	-0.917661	0.000106	-0.605528
H320	H	-0.584327	0.333439	-0.272194
H321	H	-0.250994	0.666772	0.061139
H322	H	-0.917039	0.053503	-0.671398
H323	H	-0.583706	0.386836	-0.338065
H324	H	-0.250372	0.720169	-0.004731
H325	H	-0.971063	-0.000537	-0.671371
H326	H	-0.637729	0.332796	-0.338038
H327	H	-0.304396	0.666130	-0.004705
C328	C	-0.688713	0.534622	0.000003
C329	C	-0.355379	0.867955	0.333337
C330	C	-0.022046	1.201288	0.666670
H331	H	-0.650343	0.561664	0.000000
H332	H	-0.317010	0.894997	0.333334
H333	H	0.016324	1.228330	0.666667
H334	H	-0.686488	0.505848	0.043903
H335	H	-0.353155	0.839182	0.377236
H336	H	-0.019821	1.172515	0.710569
H337	H	-0.686485	0.505872	-0.043909
H338	H	-0.353152	0.839205	0.289424
H339	H	-0.019819	1.172538	0.622758
H340	H	-0.942227	0.266467	-0.000033
H341	H	-0.608894	0.599800	0.333300
H342	H	-0.275561	0.933134	0.666634
C343	C	-0.695255	0.090606	-0.000022
C344	C	-0.361922	0.423939	0.333311
C345	C	-0.028589	0.757273	0.666644
H346	H	-0.656885	0.117647	-0.000022
H347	H	-0.323552	0.450980	0.333311
H348	H	0.009782	0.784314	0.666644
H349	H	-0.693033	0.061831	0.043876
H350	H	-0.359699	0.395164	0.377209
H351	H	-0.026366	0.728498	0.710543
H352	H	-0.693026	0.061857	-0.043936
H353	H	-0.359693	0.395191	0.289398
H354	H	-0.026360	0.728524	0.622731
H355	H	-0.937632	0.578369	-0.000013
H356	H	-0.604298	0.911702	0.333320
H357	H	-0.270965	1.245035	0.666653
C358	C	-0.724492	-0.192988	-0.658394
C359	C	-0.391158	0.140345	-0.325060
C360	C	-0.057825	0.473679	0.008273
H361	H	-0.731303	-0.186166	-0.605523
H362	H	-0.397970	0.147167	-0.272190
H363	H	-0.064636	0.480501	0.061143
H364	H	-0.731932	-0.239568	-0.671368
H365	H	-0.398599	0.093765	-0.338035
H366	H	-0.065266	0.427099	-0.004701
H367	H	-0.677918	-0.185519	-0.671391
H368	H	-0.344585	0.147814	-0.338058
H369	H	-0.011251	0.481148	-0.004725
H370	H	-0.738109	-0.179400	-0.813484
H371	H	-0.404775	0.153933	-0.480151
H372	H	-0.071442	0.487266	-0.146817
H373	H	-0.910871	-0.006670	-0.330311
H374	H	-0.577537	0.326663	0.003023
H375	H	-0.244204	0.659997	0.336356
