data_functionalizedCrystal
_audit_creation_method	'MofGen! by Chris Wilmer'
_symmetry_space_group_name_H-M	'P1'
_symmetry_Int_Tables_number	1
_symmetry_cell_setting	triclinic
loop_
_symmetry_equiv_pos_as_xyz
  x,y,z
_cell_length_a	10.723023
_cell_length_b	10.654541
_cell_length_c	9.198806
_cell_angle_alpha	90.003205
_cell_angle_beta	90.003235
_cell_angle_gamma	84.475738
loop_
_atom_site_label
_atom_site_type_symbol
_atom_site_fract_x
_atom_site_fract_y
_atom_site_fract_z
O1	O	1.657212	0.176143	0.120877
O2	O	1.294062	0.193005	0.120883
O3	O	1.483989	0.001833	0.120871
O4	O	1.467286	0.367315	0.120889
O5	O	1.483974	0.001831	-0.120914
O6	O	1.294048	0.193003	-0.120902
O7	O	1.657198	0.176141	-0.120908
Cu8	Cu	1.475622	0.184572	-0.142982
Cu9	Cu	1.475639	0.184574	0.142957
O10	O	1.467272	0.367313	-0.120896
C11	C	1.247555	0.191777	-0.000009
C12	C	1.109001	0.188106	-0.000007
C13	C	1.047221	0.186469	-0.125257
C14	C	0.904017	0.182675	-0.125258
C15	C	1.482756	-0.044966	-0.000021
C16	C	1.479089	-0.184409	-0.000018
C17	C	1.706197	-0.212414	-0.000040
C18	C	1.818023	-0.291926	-0.000054
C19	C	1.814569	-0.422943	-0.000050
C20	C	1.699278	-0.474451	-0.000027
C21	C	1.587452	-0.394939	-0.000013
C22	C	1.590917	-0.263920	-0.000022
C23	C	1.360346	-0.366934	0.000020
C24	C	1.363797	-0.235916	0.000005
C25	C	1.245054	-0.418442	0.000043
C26	C	1.133225	-0.338930	0.000046
C27	C	1.136684	-0.207905	0.000040
C28	C	1.251971	-0.156405	0.000019
C29	C	1.703705	0.177369	-0.000013
C30	C	1.842260	0.181040	-0.000006
C31	C	1.468505	0.414112	-0.000001
C32	C	1.472172	0.553555	0.000006
N33	N	1.475619	0.184570	-0.344096
C34	C	1.555561	0.104128	-0.583702
C35	C	1.555544	0.104130	-0.416290
N36	N	1.475651	0.184566	0.344071
H37	H	1.055875	0.186696	0.107225
H38	H	1.911891	-0.249974	-0.000086
C39	C	1.309392	0.351921	-0.670903
C40	C	1.383275	0.277544	-0.572109
H41	H	1.252368	0.409328	-0.619155
H42	H	1.263997	0.299292	-0.730276
H43	H	1.361709	0.397602	-0.730263
H44	H	1.330959	0.231855	-0.512755
H45	H	1.428674	0.330179	-0.512711
H46	H	1.100348	0.187869	-0.232489
H47	H	1.709020	-0.105734	-0.000064
C48	C	1.626854	-0.112599	-0.630852
C49	C	1.647929	0.011147	-0.667528
H50	H	1.683883	-0.170003	-0.682598
H51	H	1.543436	-0.126939	-0.655743
H52	H	1.638970	-0.124782	-0.529343
H53	H	1.635804	0.023333	-0.769036
H54	H	1.731367	0.025493	-0.642647
C55	C	0.975735	0.292698	0.152705
C56	C	0.913967	0.182941	0.144767
H57	H	1.020016	0.293866	0.242078
H58	H	0.916059	0.364447	0.147315
H59	H	1.033039	0.294203	0.074116
H60	H	0.856656	0.181440	0.223350
H61	H	0.973650	0.111173	0.150171
H62	H	1.623954	0.035259	-0.354177
H63	H	0.850888	0.181274	-0.232490
H64	H	1.905628	-0.487682	-0.000050
C65	C	1.178306	-0.598493	0.124364
C66	C	1.241259	-0.562458	0.000056
H67	H	1.175970	-0.687404	0.124371
H68	H	1.095218	-0.558517	0.124365
H69	H	1.221054	-0.574011	0.208660
H70	H	1.198505	-0.586931	-0.084241
H71	H	1.324362	-0.602448	0.000041
C72	C	0.938606	-0.355394	0.124379
C73	C	1.006510	-0.395552	0.000080
H74	H	0.860380	-0.390362	0.124401
H75	H	0.924656	-0.265998	0.124354
H76	H	0.984726	-0.382610	0.208681
H77	H	0.960394	-0.368328	-0.084223
H78	H	1.020456	-0.484967	0.000092
C79	C	1.041129	0.005370	0.000053
C80	C	1.013759	-0.120508	0.000062
H81	H	0.965237	0.059319	0.000076
H82	H	1.088325	0.021079	-0.084270
H83	H	1.088370	0.021084	0.084363
H84	H	0.966525	-0.136225	-0.084254
H85	H	0.966542	-0.136223	0.084393
H86	H	1.254797	-0.049725	0.000005
H87	H	1.696476	-0.581133	-0.000005
H88	H	1.407197	0.253435	-0.406199
