data_functionalizedCrystal
_audit_creation_method	'MofGen! by Chris Wilmer'
_symmetry_space_group_name_H-M	'P1'
_symmetry_Int_Tables_number	1
_symmetry_cell_setting	triclinic
loop_
_symmetry_equiv_pos_as_xyz
  x,y,z
_cell_length_a	10.654556
_cell_length_b	14.519709
_cell_length_c	9.130313
_cell_angle_alpha	89.994534
_cell_angle_beta	89.998135
_cell_angle_gamma	84.083841
loop_
_atom_site_label
_atom_site_type_symbol
_atom_site_fract_x
_atom_site_fract_y
_atom_site_fract_z
O1	O	1.666589	0.129560	-0.121747
O2	O	1.300993	0.141895	-0.121763
O3	O	1.493484	0.001540	-0.121742
O4	O	1.474098	0.269916	-0.121769
O5	O	1.493471	0.001536	0.121857
O6	O	1.300980	0.141891	0.121836
O7	O	1.666576	0.129556	0.121851
Cu8	Cu	1.483777	0.135723	0.144086
Cu9	Cu	1.483792	0.135728	-0.143998
O10	O	1.474085	0.269912	0.121830
C11	C	1.254197	0.140986	0.000035
C12	C	1.114781	0.138273	0.000029
C13	C	0.918279	0.134455	-0.132745
C14	C	1.049277	0.136998	-0.132754
C15	C	1.049281	0.136994	0.132831
C16	C	0.918287	0.134443	0.132838
C17	C	1.492574	-0.032827	0.000058
C18	C	1.489867	-0.135222	0.000059
C19	C	1.479900	-0.510170	0.000020
C20	C	1.482667	-0.405848	0.000031
C21	C	1.484883	-0.322699	0.000041
C22	C	1.487651	-0.218370	0.000049
C23	C	1.713372	0.130465	0.000051
C24	C	1.852788	0.133179	0.000046
C25	C	1.474995	0.304278	0.000027
C26	C	1.477702	0.406673	0.000017
N27	N	1.483775	0.135719	0.346709
N28	N	1.483804	0.135725	-0.346620
C29	C	1.569039	0.073596	0.423370
C30	C	1.569051	0.073596	0.576707
C31	C	1.398531	0.197851	0.576708
C32	C	1.398514	0.197845	0.423374
H33	H	0.864954	0.133424	-0.240873
H34	H	1.102594	0.138036	-0.240886
H35	H	1.102626	0.138026	0.240945
H36	H	0.864963	0.133403	0.240980
H37	H	1.638461	0.023008	0.360953
H38	H	1.329115	0.248434	0.639143
H39	H	1.638478	0.023009	0.639120
H40	H	1.329076	0.248434	0.360952
