data_functionalizedCrystal
_audit_creation_method	'MofGen! by Chris Wilmer'
_symmetry_space_group_name_H-M	'P1'
_symmetry_Int_Tables_number	1
_symmetry_cell_setting	triclinic
loop_
_symmetry_equiv_pos_as_xyz
  x,y,z
_cell_length_a	19.805407
_cell_length_b	19.076808
_cell_length_c	19.805399
_cell_angle_alpha	87.672943
_cell_angle_beta	89.980427
_cell_angle_gamma	92.323385
loop_
_atom_site_label
_atom_site_type_symbol
_atom_site_fract_x
_atom_site_fract_y
_atom_site_fract_z
Zn1	Zn	1.023914	-0.280233	-0.371886
Zn2	Zn	1.019283	-0.397938	-0.254147
Zn3	Zn	0.910727	-0.280252	-0.258710
Zn4	Zn	0.906148	-0.397901	-0.367295
O5	O	0.965018	-0.339081	-0.313009
O6	O	1.118016	-0.295854	-0.356279
O7	O	1.004861	-0.382351	-0.160035
O8	O	0.929597	-0.181753	-0.277553
O9	O	1.114613	-0.382332	-0.269777
O10	O	1.012754	-0.181739	-0.360703
O11	O	0.925106	-0.295887	-0.163387
O12	O	0.815404	-0.295851	-0.273102
O13	O	0.921791	-0.382268	-0.462622
O14	O	0.812039	-0.382287	-0.352879
O15	O	1.008313	-0.295818	-0.465994
O16	O	1.000421	-0.496429	-0.265326
O17	O	0.917301	-0.496402	-0.348455
C18	C	0.789162	-0.339067	-0.312988
C19	C	0.713930	-0.339079	-0.312994
C20	C	0.957879	-0.521955	-0.305912
C21	C	0.954888	-0.600189	-0.302898
C22	C	0.676849	-0.384154	-0.354462
C23	C	0.606160	-0.384155	-0.354471
C24	C	0.572554	-0.339084	-0.313009
C25	C	0.609640	-0.294004	-0.271540
C26	C	0.680328	-0.294000	-0.271535
C27	C	0.324567	-0.294020	-0.271562
C28	C	0.253874	-0.294029	-0.271569
C29	C	0.250399	-0.384175	-0.354498
C30	C	0.321086	-0.384170	-0.354493
C31	C	0.358167	-0.339088	-0.313027
C32	C	0.434815	-0.339086	-0.313018
C33	C	0.495907	-0.339089	-0.313014
C34	C	0.996745	-0.636876	-0.344809
C35	C	0.993931	-0.710385	-0.341979
C36	C	0.949263	-0.747206	-0.297233
C37	C	0.907400	-0.710515	-0.255321
C38	C	0.910211	-0.637007	-0.258155
C39	C	0.936213	-0.967059	-0.284114
C40	C	0.933407	-1.040572	-0.281281
C41	C	1.019937	-1.040437	-0.367940
C42	C	1.022747	-0.966928	-0.370768
C43	C	0.980882	-0.930243	-0.328858
N44	N	0.946387	-0.822345	-0.294338
N45	N	0.983755	-0.855106	-0.331757
C46	C	1.141560	-0.339095	-0.313031
C47	C	1.216792	-0.339101	-0.313041
C48	C	0.965058	-0.339037	-0.489554
C49	C	0.965074	-0.339018	-0.564787
C50	C	0.972203	-0.155493	-0.320149
C51	C	0.975264	-0.077259	-0.323192
C52	C	1.010128	-0.294001	-0.601888
C53	C	1.010135	-0.293980	-0.672577
C54	C	0.965093	-0.338981	-0.706164
C55	C	0.920035	-0.384000	-0.669057
C56	C	0.920024	-0.384016	-0.598369
C57	C	0.920075	-0.383934	-0.954133
C58	C	0.920091	-0.383916	-1.024826
C59	C	1.010187	-0.293899	-1.028341
C60	C	1.010176	-0.293915	-0.957653
C61	C	0.965116	-0.338931	-0.920553
C62	C	0.965107	-0.338951	-0.843904
C63	C	0.965104	-0.338964	-0.782812
C64	C	0.965019	-0.339074	-0.137154
C65	C	0.965141	-0.338895	-0.061929
H66	H	0.704206	-0.420858	-0.388223
H67	H	0.354749	-0.257317	-0.237792
H68	H	0.575972	-0.420860	-0.388237
H69	H	0.582273	-0.257304	-0.237784
Br70	Br	0.200072	-0.445360	-0.410774
Br71	Br	1.071265	-0.232931	-0.556313
H72	H	1.054020	-1.070315	-0.402062
H73	H	0.883394	-0.420599	-0.923934
H74	H	0.883331	-0.420666	-0.568162
H75	H	1.028021	-0.740252	-0.376102
H76	H	1.046874	-0.257242	-1.058557
H77	H	1.059120	-0.936950	-0.407203
H78	H	0.348445	-0.420874	-0.388253
Br79	Br	0.858958	-0.444993	-1.070407
Br80	Br	0.730653	-0.232821	-0.215259
H81	H	1.033122	-0.606900	-0.381243
H82	H	1.046824	-0.257325	-0.702782
H83	H	0.902127	-0.937196	-0.249987
Br84	Br	0.846769	-0.760486	-0.194603
Br85	Br	0.208266	-0.232858	-0.215295
Br86	Br	0.872786	-1.090544	-0.220547
H87	H	0.876126	-0.607137	-0.224028
H88	H	1.046857	-0.257273	-0.930311
Br89	Br	0.858900	-0.445068	-0.714638
