data_functionalizedCrystal
_audit_creation_method	'MofGen! by Chris Wilmer'
_symmetry_space_group_name_H-M	'P1'
_symmetry_Int_Tables_number	1
_symmetry_cell_setting	triclinic
loop_
_symmetry_equiv_pos_as_xyz
  x,y,z
_cell_length_a	12.827893
_cell_length_b	18.050589
_cell_length_c	12.827885
_cell_angle_alpha	90.029741
_cell_angle_beta	90.019462
_cell_angle_gamma	90.028191
loop_
_atom_site_label
_atom_site_type_symbol
_atom_site_fract_x
_atom_site_fract_y
_atom_site_fract_z
Zn1	Zn	1.597578	-0.295623	0.590850
Zn2	Zn	1.597433	-0.419831	0.416111
Zn3	Zn	1.422819	-0.295659	0.416124
Zn4	Zn	1.422766	-0.419775	0.590811
O5	O	1.510149	-0.357722	0.503474
O6	O	1.743795	-0.312107	0.567682
O7	O	1.574231	-0.403398	0.269877
O8	O	1.446085	-0.191730	0.439323
O9	O	1.743688	-0.403362	0.439302
O10	O	1.574479	-0.191703	0.567694
O11	O	1.445943	-0.312169	0.269886
O12	O	1.276576	-0.312116	0.439286
O13	O	1.445994	-0.403268	0.737053
O14	O	1.276537	-0.403303	0.567628
O15	O	1.574428	-0.312053	0.737081
O16	O	1.574180	-0.523748	0.439264
O17	O	1.445853	-0.523707	0.567615
C18	C	1.238639	-0.357708	0.503454
C19	C	1.122486	-0.357720	0.503471
C20	C	1.070710	-0.402912	0.566880
C21	C	0.950659	-0.402926	0.566899
C22	C	1.510023	-0.550674	0.503457
C23	C	1.510065	-0.633220	0.503484
C24	C	1.440349	-0.832675	0.573257
C25	C	1.414872	-0.882123	0.477900
C26	C	1.510167	-0.784350	0.503498
C27	C	1.535696	-0.881984	0.598866
C28	C	1.510264	-0.930335	0.503520
C29	C	1.484640	-0.832711	0.408091
C30	C	1.605508	-0.832568	0.529120
C31	C	1.580067	-0.881993	0.433698
C32	C	1.510109	-0.700252	0.503487
C33	C	1.510323	-1.014432	0.503520
C34	C	1.782719	-0.357737	0.503495
C35	C	1.898872	-0.357743	0.503504
C36	C	1.510221	-0.357650	0.776045
C37	C	1.510252	-0.357619	0.892198
C38	C	1.510304	-0.164016	0.503515
C39	C	1.510370	-0.081471	0.503532
C40	C	1.510137	-0.357740	0.231964
C41	C	1.510309	-0.357562	0.115812
C42	C	1.573842	-0.312444	1.064041
C43	C	1.573812	-0.312475	0.943991
H44	H	1.077937	-0.319035	0.449201
H45	H	1.628261	-0.273798	1.108595
H46	H	0.906133	-0.441619	0.621183
F47	F	1.309541	-0.910572	0.449575
F48	F	1.363066	-0.804369	0.650258
H49	H	1.462994	-0.811156	0.327426
F50	F	0.957061	-0.307171	0.432535
F51	F	1.644905	-0.261981	0.885802
H52	H	1.686071	-0.810787	0.550818
F53	F	1.657298	-0.910119	0.356516
F54	F	1.439146	-0.408107	0.950380
F55	F	1.439187	-0.408085	1.057582
F56	F	1.128933	-0.453476	0.637820
F57	F	1.563866	-0.910278	0.704270
