data_functionalizedCrystal
_audit_creation_method	'MofGen! by Chris Wilmer'
_symmetry_space_group_name_H-M	'P1'
_symmetry_Int_Tables_number	1
_symmetry_cell_setting	triclinic
loop_
_symmetry_equiv_pos_as_xyz
  x,y,z
_cell_length_a	19.805407
_cell_length_b	18.215405
_cell_length_c	18.215399
_cell_angle_alpha	90.030551
_cell_angle_beta	89.979366
_cell_angle_gamma	89.975115
loop_
_atom_site_label
_atom_site_type_symbol
_atom_site_fract_x
_atom_site_fract_y
_atom_site_fract_z
Zn1	Zn	1.034750	0.292992	-0.416118
Zn2	Zn	1.534750	0.792992	0.083882
Zn3	Zn	1.034666	0.416063	-0.293046
Zn4	Zn	1.534666	0.916063	0.206954
Zn5	Zn	0.921562	0.293015	-0.293064
Zn6	Zn	1.421562	0.793015	0.206936
Zn7	Zn	0.921531	0.416021	-0.416070
Zn8	Zn	1.421531	0.916021	0.083930
O9	O	0.978127	0.354523	-0.354575
O10	O	1.478127	0.854523	0.145425
O11	O	1.129455	0.309325	-0.399806
O12	O	1.629455	0.809325	0.100194
O13	O	1.019640	0.399768	-0.190064
O14	O	1.519640	0.899768	0.309936
O15	O	0.936625	0.190028	-0.309415
O16	O	1.436625	0.690028	0.190585
O17	O	1.129393	0.399745	-0.309385
O18	O	1.629393	0.899745	0.190615
O19	O	1.019784	0.190011	-0.399823
O20	O	1.519784	0.690011	0.100177
O21	O	0.936544	0.309365	-0.190077
O22	O	1.436544	0.809365	0.309923
O23	O	0.826842	0.309324	-0.309368
O24	O	1.326842	0.809324	0.190632
O25	O	0.936572	0.399674	-0.519060
O26	O	1.436572	0.899674	-0.019060
O27	O	0.826819	0.399696	-0.399740
O28	O	1.326819	0.899696	0.100260
O29	O	1.019753	0.309285	-0.519096
O30	O	1.519753	0.809285	-0.019096
O31	O	1.019610	0.519042	-0.309338
O32	O	1.519610	1.019042	0.190662
O33	O	0.936490	0.519011	-0.399723
O34	O	1.436490	1.019011	0.100277
C35	C	0.802271	0.354509	-0.354551
C36	C	1.302271	0.854509	0.145449
C37	C	0.727039	0.354520	-0.354558
C38	C	1.227039	0.854520	0.145442
C39	C	0.978056	0.545729	-0.354539
C40	C	1.478056	1.045729	0.145461
C41	C	0.978087	0.627528	-0.354549
C42	C	1.478087	1.127528	0.145451
C43	C	0.978169	0.354472	-0.546528
C44	C	1.478169	0.854472	-0.046528
C45	C	0.978186	0.354450	-0.628327
C46	C	1.478186	0.854450	-0.128327
C47	C	0.691701	0.401648	-0.401538
C48	C	1.191701	0.901648	0.098462
C49	C	0.621012	0.401649	-0.401549
C50	C	1.121012	0.901649	0.098451
C51	C	0.585664	0.354526	-0.354575
C52	C	1.085664	0.854526	0.145425
C53	C	0.621007	0.307393	-0.307592
C54	C	1.121007	0.807393	0.192408
C55	C	0.691694	0.307389	-0.307586
C56	C	1.191694	0.807389	0.192414
C57	C	0.335934	0.307410	-0.307616
C58	C	0.835934	0.807410	0.192384
C59	C	0.265242	0.307419	-0.307625
C60	C	0.765242	0.807419	0.192375
C61	C	0.265252	0.401670	-0.401579
C62	C	0.765252	0.901670	0.098421
C63	C	0.335939	0.401666	-0.401573
C64	C	0.835939	0.901666	0.098427
C65	C	0.371276	0.354530	-0.354594
C66	C	0.871276	0.854530	0.145406
C67	C	0.447925	0.354529	-0.354584
C68	C	0.947925	0.854529	0.145416
C69	C	0.509017	0.354531	-0.354580
C70	C	1.009017	0.854531	0.145420
C71	C	1.154670	0.354537	-0.354599
C72	C	1.654670	0.854537	0.145401
C73	C	1.229902	0.354544	-0.354609
C74	C	1.729902	0.854544	0.145391
C75	C	0.978217	0.162570	-0.354626
C76	C	1.478217	0.662570	0.145374
C77	C	0.978256	0.080771	-0.354648
C78	C	1.478256	0.580771	0.145352
C79	C	1.021469	0.815713	-0.307572
C80	C	1.521469	1.315713	0.192428
C81	C	1.021499	0.892572	-0.307590
C82	C	1.521499	1.392572	0.192410
C83	C	0.934872	0.892580	-0.401630
C84	C	1.434872	1.392580	0.098370
C85	C	0.934846	0.815723	-0.401615
C86	C	1.434846	1.315723	0.098385
C87	C	0.978143	0.777291	-0.354582
C88	C	1.478143	1.277291	0.145418
C89	C	0.978200	0.931007	-0.354615
C90	C	1.478200	1.431007	0.145385
C91	C	0.978232	1.014341	-0.354634
C92	C	1.478232	1.514341	0.145366
C93	C	0.978112	0.693952	-0.354563
C94	C	1.478112	1.193952	0.145437
C95	C	1.021514	0.307341	-0.816540
C96	C	1.521514	0.807341	-0.316540
C97	C	1.021522	0.307319	-0.893399
C98	C	1.521522	0.807319	-0.393399
C99	C	0.934906	0.401446	-0.893351
C100	C	1.434906	0.901446	-0.393351
C101	C	0.934895	0.401463	-0.816493
C102	C	1.434895	0.901463	-0.316493
C103	C	0.978203	0.354412	-0.778090
C104	C	1.478203	0.854412	-0.278090
C105	C	0.978222	0.354373	-0.931806
C106	C	1.478222	0.854373	-0.431806
C107	C	0.978230	0.354350	-1.015140
C108	C	1.478230	0.854350	-0.515140
C109	C	0.978194	0.354433	-0.694751
C110	C	1.478194	0.854433	-0.194751
C111	C	0.978125	0.354520	-0.163368
C112	C	1.478125	0.854520	0.336632
C113	C	0.978239	0.354334	-0.081570
C114	C	1.478239	0.854334	0.418430
H115	H	0.720477	0.440024	-0.439788
H116	H	1.220477	0.940024	0.060212
H117	H	0.592243	0.440026	-0.439804
H118	H	1.092243	0.940026	0.060196
O119	O	0.370326	0.261730	-0.261940
O120	O	0.870326	0.761730	0.238060
C121	C	0.450055	0.251690	-0.162553
C122	C	0.950055	0.751690	0.337447
C123	C	0.411159	0.303506	-0.214251
C124	C	0.911159	0.803506	0.285749
H125	H	0.483067	0.285446	-0.123973
H126	H	0.983067	0.785446	0.376027
H127	H	0.483220	0.213256	-0.196363
H128	H	0.983220	0.713256	0.303637
H129	H	0.412629	0.218001	-0.129016
H130	H	0.912629	0.718001	0.370984
H131	H	0.448536	0.337243	-0.247799
H132	H	0.948536	0.837243	0.252201
H133	H	0.377984	0.341892	-0.180399
H134	H	0.877984	0.841892	0.319601
O135	O	0.370171	0.447464	-0.447274
O136	O	0.870171	0.947464	0.052726
C137	C	0.362719	0.540979	-0.540442
C138	C	0.862719	1.040979	-0.040442
C139	C	0.323869	0.489139	-0.488732
C140	C	0.823869	0.989139	0.011268
H141	H	0.325301	0.574698	-0.573963
H142	H	0.825301	1.074698	-0.073963
H143	H	0.395821	0.507272	-0.579029
H144	H	0.895821	1.007272	-0.079029
H145	H	0.395806	0.579382	-0.506570
H146	H	0.895806	1.079382	-0.006570
H147	H	0.290746	0.450726	-0.522544
H148	H	0.790746	0.950726	-0.022544
H149	H	0.290810	0.522892	-0.450143
H150	H	0.790810	1.022892	0.049857
O151	O	0.230820	0.447384	-0.447199
O152	O	0.730820	0.947384	0.052801
C153	C	0.121928	0.489198	-0.488825
C154	C	0.621928	0.989198	0.011175
C155	C	0.160835	0.437378	-0.437140
C156	C	0.660835	0.937378	0.062860
H157	H	0.065339	0.481138	-0.480700
H158	H	0.565339	0.981138	0.019300
H159	H	0.135807	0.476352	-0.548205
H160	H	0.635807	0.976352	-0.048205
H161	H	0.135841	0.548513	-0.475796
H162	H	0.635841	1.048513	0.024204
H163	H	0.146943	0.378046	-0.450103
H164	H	0.646943	0.878046	0.049897
H165	H	0.146952	0.450288	-0.377776
H166	H	0.646952	0.950288	0.122224
H167	H	1.056726	0.784424	-0.269276
H168	H	1.556726	1.284424	0.230724
O169	O	0.892940	0.447232	-0.930691
O170	O	1.392940	0.947232	-0.430691
C171	C	0.883803	0.546542	-1.017466
C172	C	1.383803	1.046542	-0.517466
C173	C	0.931406	0.494745	-0.975213
C174	C	1.431406	0.994745	-0.475213
H175	H	0.914884	0.584959	-1.053484
H176	H	1.414884	1.084959	-0.553484
H177	H	0.852855	0.580242	-0.976814
H178	H	1.352855	1.080242	-0.476814
H179	H	0.848419	0.512729	-1.053419
H180	H	1.348419	1.012729	-0.553419
H181	H	0.966831	0.528501	-0.939258
H182	H	1.466831	1.028501	-0.439258
H183	H	0.962307	0.461043	-1.015905
H184	H	1.462307	0.961043	-0.515905
O185	O	1.063564	0.261493	-0.930666
O186	O	1.563564	0.761493	-0.430666
C187	C	1.096453	0.136302	-0.954250
C188	C	1.596453	0.636302	-0.454250
C189	C	1.048809	0.188122	-0.911989
C190	C	1.548809	0.688122	-0.411989
H191	H	1.084531	0.076971	-0.939177
H192	H	1.584531	0.576971	-0.439177
H193	H	1.151033	0.149173	-0.939133
H194	H	1.651033	0.649173	-0.439133
H195	H	1.089036	0.144403	-1.015776
H196	H	1.589036	0.644403	-0.515776
H197	H	1.056166	0.180050	-0.850453
H198	H	1.556166	0.680050	-0.350453
H199	H	0.994246	0.175238	-0.927167
H200	H	1.494246	0.675238	-0.427167
H201	H	0.899621	0.439794	-0.785186
H202	H	1.399621	0.939794	-0.285186
H203	H	0.236463	0.269041	-0.269372
H204	H	0.736463	0.769041	0.230628
H205	H	1.056777	0.269026	-0.785275
H206	H	1.556777	0.769026	-0.285275
H207	H	0.899620	0.923880	-0.439922
H208	H	1.399620	1.423880	0.060078
H209	H	0.720466	0.269009	-0.269334
H210	H	1.220466	0.769009	0.230666
O211	O	0.586744	0.261653	-0.261860
O212	O	1.086744	0.761653	0.238140
C213	C	0.565043	0.225797	-0.136743
C214	C	1.065043	0.725797	0.363257
C215	C	0.603898	0.277631	-0.188454
C216	C	1.103898	0.777631	0.311546
H217	H	0.578887	0.238707	-0.077382
H218	H	1.078887	0.738707	0.422618
H219	H	0.578978	0.166459	-0.149714
H220	H	1.078978	0.666459	0.350286
H221	H	0.508454	0.233886	-0.144855
H222	H	1.008454	0.733886	0.355145
H223	H	0.660496	0.269608	-0.180370
H224	H	1.160496	0.769608	0.319630
H225	H	0.589907	0.336950	-0.175470
H226	H	1.089907	0.836950	0.324530
H227	H	0.899564	0.784437	-0.439900
H228	H	1.399564	1.284437	0.060100
O229	O	1.063606	0.929781	-0.261853
O230	O	1.563606	1.429781	0.238147
C231	C	1.149552	0.921657	-0.168605
C232	C	1.649552	1.421657	0.331395
C233	C	1.101886	0.879428	-0.220353
C234	C	1.601886	1.379428	0.279647
H235	H	1.180524	0.880965	-0.135050
H236	H	1.680524	1.380965	0.364950
H237	H	1.118544	0.957677	-0.130050
H238	H	1.618544	1.457677	0.369950
H239	H	1.184910	0.957602	-0.202448
H240	H	1.684910	1.457602	0.297552
H241	H	1.066518	0.843443	-0.186569
H242	H	1.566518	1.343443	0.313431
H243	H	1.132936	0.843454	-0.258910
H244	H	1.632936	1.343454	0.241090
