data_functionalizedCrystal
_audit_creation_method	'MofGen! by Chris Wilmer'
_symmetry_space_group_name_H-M	'P1'
_symmetry_Int_Tables_number	1
_symmetry_cell_setting	triclinic
loop_
_symmetry_equiv_pos_as_xyz
  x,y,z
_cell_length_a	19.077105
_cell_length_b	16.625546
_cell_length_c	19.076919
_cell_angle_alpha	87.730083
_cell_angle_beta	89.923776
_cell_angle_gamma	87.718759
loop_
_atom_site_label
_atom_site_type_symbol
_atom_site_fract_x
_atom_site_fract_y
_atom_site_fract_z
Zn1	Zn	1.058283	-0.390077	0.440407
Zn2	Zn	1.062927	-0.519720	0.322896
Zn3	Zn	0.945500	-0.379275	0.318200
Zn4	Zn	0.940748	-0.519234	0.435649
O5	O	1.001864	-0.452076	0.379288
O6	O	1.157231	-0.411998	0.428775
O7	O	1.051282	-0.496773	0.223942
O8	O	0.960506	-0.267879	0.334437
O9	O	1.160642	-0.507246	0.342441
O10	O	1.043367	-0.275815	0.424222
O11	O	0.965009	-0.393589	0.220492
O12	O	0.846538	-0.393117	0.329824
O13	O	0.952407	-0.506418	0.534611
O14	O	0.843047	-0.495944	0.416113
O15	O	1.038759	-0.411527	0.538107
O16	O	1.046674	-0.632485	0.337827
O17	O	0.956910	-0.632127	0.420666
C18	C	0.819296	-0.443306	0.371943
C19	C	0.741192	-0.439575	0.368817
C20	C	0.702702	-0.491432	0.412204
C21	C	0.629314	-0.487916	0.409270
C22	C	0.594418	-0.432544	0.362946
C23	C	0.632913	-0.380681	0.319557
C24	C	0.706299	-0.384194	0.322495
C25	C	0.375130	-0.416284	0.349354
C26	C	0.301739	-0.412776	0.346418
C27	C	0.298145	-0.520010	0.436133
C28	C	0.371533	-0.523522	0.439063
C29	C	0.410021	-0.471655	0.395677
N30	N	0.519405	-0.428950	0.359945
N31	N	0.485034	-0.475247	0.398682
C32	C	1.001799	-0.661563	0.379256
C33	C	1.001834	-0.751186	0.379268
C34	C	1.001954	-1.079371	0.379346
C35	C	1.001918	-0.988060	0.379327
C36	C	1.001894	-0.915281	0.379307
C37	C	1.001859	-0.823965	0.379288
C38	C	1.185146	-0.460881	0.386662
C39	C	1.263249	-0.464634	0.389805
C40	C	0.994535	-0.460123	0.562568
C41	C	0.991412	-0.463552	0.640671
C42	C	1.001948	-0.241774	0.379336
C43	C	1.001984	-0.152155	0.379357
C44	C	1.009205	-0.444005	0.196723
C45	C	1.012465	-0.440356	0.118626
C46	C	1.034901	-0.415760	0.679185
C47	C	1.031958	-0.418978	0.752571
C48	C	0.985529	-0.469993	0.787441
C49	C	0.942035	-0.517786	0.748922
C50	C	0.944975	-0.514563	0.675537
C51	C	0.971911	-0.484926	1.006722
C52	C	0.968976	-0.488147	1.080112
C53	C	1.058898	-0.389338	1.083755
C54	C	1.061837	-0.386123	1.010369
C55	C	1.018341	-0.433913	0.971856
N56	N	0.982521	-0.473286	0.862453
N57	N	1.021346	-0.430616	0.896846
H58	H	0.604495	-0.335593	0.281842
H59	H	1.072711	-0.374221	0.650799
H60	H	0.597979	-0.530145	0.444600
C61	C	1.079812	-0.366430	0.794937
H62	H	1.071412	-0.375653	0.843636
H63	H	1.127497	-0.379989	0.784803
H64	H	1.070045	-0.311226	0.782515
H65	H	0.737637	-0.341962	0.287168
C66	C	1.106735	-0.336767	1.126120
H67	H	1.098332	-0.345986	1.174820
H68	H	1.154425	-0.350304	1.115994
H69	H	1.096947	-0.281569	1.113691
H70	H	0.904228	-0.559320	0.777319
C71	C	1.112910	-0.330007	0.972017
H72	H	1.138387	-0.302001	1.005465
H73	H	1.144659	-0.361067	0.944617
H74	H	1.087189	-0.292324	0.942314
C75	C	0.263352	-0.351872	0.295454
H76	H	0.214134	-0.357220	0.299912
H77	H	0.274973	-0.298743	0.306299
H78	H	0.277259	-0.362100	0.248704
H79	H	0.406459	-0.374056	0.314021
C80	C	0.917899	-0.544263	1.118468
H81	H	0.892411	-0.572259	1.085021
H82	H	0.943618	-0.581944	1.148169
H83	H	0.886150	-0.513199	1.145870
C84	C	0.924052	-0.537476	0.964366
H85	H	0.895981	-0.568318	0.995646
H86	H	0.894599	-0.503888	0.934523
H87	H	0.952050	-0.572651	0.936804
H88	H	0.909554	-0.553472	0.644180
H89	H	0.399940	-0.568613	0.476784
C90	C	0.741081	-0.552340	0.463162
H91	H	0.707644	-0.582715	0.488586
H92	H	0.770771	-0.587613	0.437376
H93	H	0.768496	-0.524262	0.494976
H94	H	0.266800	-0.562235	0.471456
