data_functionalizedCrystal
_audit_creation_method	'MofGen! by Chris Wilmer'
_symmetry_space_group_name_H-M	'P1'
_symmetry_Int_Tables_number	1
_symmetry_cell_setting	triclinic
loop_
_symmetry_equiv_pos_as_xyz
  x,y,z
_cell_length_a	16.120530
_cell_length_b	16.625546
_cell_length_c	16.625539
_cell_angle_alpha	90.028532
_cell_angle_beta	87.085995
_cell_angle_gamma	92.882099
loop_
_atom_site_label
_atom_site_type_symbol
_atom_site_fract_x
_atom_site_fract_y
_atom_site_fract_z
Zn1	Zn	1.274529	0.383605	-0.518325
Zn2	Zn	1.607862	0.716938	-0.184991
Zn3	Zn	1.941196	1.050272	0.148342
Zn4	Zn	1.274437	0.518439	-0.383483
Zn5	Zn	1.607771	0.851773	-0.050149
Zn6	Zn	1.941104	1.185106	0.283184
Zn7	Zn	1.135119	0.376783	-0.376677
Zn8	Zn	1.468452	0.710116	-0.043343
Zn9	Zn	1.801785	1.043449	0.289990
Zn10	Zn	1.135079	0.511551	-0.511447
Zn11	Zn	1.468413	0.844885	-0.178113
Zn12	Zn	1.801746	1.178218	0.155220
O13	O	1.204791	0.447595	-0.447483
O14	O	1.538124	0.780928	-0.114149
O15	O	1.871458	1.114261	0.219184
O16	O	1.391182	0.407229	-0.506164
O17	O	1.724516	0.740562	-0.172831
O18	O	2.057849	1.073896	0.160502
O19	O	1.255935	0.499676	-0.269746
O20	O	1.589268	0.833009	0.063587
O21	O	1.922601	1.166342	0.396920
O22	O	1.153666	0.264858	-0.395497
O23	O	1.487000	0.598191	-0.062164
O24	O	1.820333	0.931525	0.271170
O25	O	1.391115	0.506291	-0.407096
O26	O	1.724449	0.839625	-0.073763
O27	O	2.057782	1.172958	0.259570
O28	O	1.256091	0.269870	-0.499565
O29	O	1.589424	0.603204	-0.166232
O30	O	1.922757	0.936537	0.167102
O31	O	1.153578	0.395601	-0.264746
O32	O	1.486911	0.728935	0.068587
O33	O	1.820244	1.062268	0.401921
O34	O	1.018448	0.388922	-0.388828
O35	O	1.351781	0.722256	-0.055494
O36	O	1.685114	1.055589	0.277839
O37	O	1.153600	0.494552	-0.625192
O38	O	1.486933	0.827885	-0.291859
O39	O	1.820266	1.161218	0.041474
O40	O	1.018419	0.487936	-0.487842
O41	O	1.351752	0.821269	-0.154509
O42	O	1.685086	1.154603	0.178824
O43	O	1.256053	0.400550	-0.630246
O44	O	1.589386	0.733883	-0.296912
O45	O	1.922719	1.067217	0.036421
O46	O	1.255897	0.630355	-0.400427
O47	O	1.589230	0.963689	-0.067094
O48	O	1.922563	1.297022	0.266240
O49	O	1.153511	0.625295	-0.494442
O50	O	1.486844	0.958628	-0.161108
O51	O	1.820178	1.291961	0.172225
C52	C	1.204712	0.657082	-0.447445
C53	C	1.538046	0.990415	-0.114112
C54	C	1.871379	1.323748	0.219222
C55	C	1.204755	0.746705	-0.447460
C56	C	1.538088	1.080038	-0.114126
C57	C	1.871421	1.413372	0.219207
C58	C	0.988183	0.436942	-0.436851
C59	C	1.321517	0.770275	-0.103517
C60	C	1.654850	1.103609	0.229816
C61	C	0.895517	0.432404	-0.432321
C62	C	1.228851	0.765737	-0.098988
C63	C	1.562184	1.099071	0.234345
C64	C	1.204832	0.447543	-0.657794
C65	C	1.538165	0.780877	-0.324460
C66	C	1.871499	1.114210	0.008873
C67	C	1.204849	0.447522	-0.747416
C68	C	1.538183	0.780855	-0.414082
C69	C	1.871516	1.114188	-0.080749
C70	C	0.725856	0.424100	-0.424059
C71	C	1.059189	0.757434	-0.090725
C72	C	1.392523	1.090767	0.242608
C73	C	0.684567	0.471148	-0.470965
C74	C	1.017900	0.804482	-0.137632
C75	C	1.351233	1.137815	0.195701
C76	C	0.590161	0.466528	-0.466368
C77	C	0.923494	0.799861	-0.133035
C78	C	1.256828	1.133195	0.200299
C79	C	0.820270	0.428720	-0.428655
C80	C	1.153603	0.762053	-0.095322
C81	C	1.486937	1.095386	0.238012
C82	C	1.422245	0.458290	-0.458157
C83	C	1.755578	0.791623	-0.124823
C84	C	2.088911	1.124956	0.208510
C85	C	1.514910	0.462847	-0.462705
C86	C	1.848244	0.796180	-0.129372
C87	C	2.181577	1.129514	0.203961
C88	C	1.204893	0.237291	-0.447539
C89	C	1.538226	0.570624	-0.114206
C90	C	1.871560	0.903957	0.219127
C91	C	1.204936	0.147672	-0.447563
C92	C	1.538270	0.481005	-0.114230
C93	C	1.871603	0.814338	0.219103
C94	C	1.204900	1.074888	-0.447551
C95	C	1.538233	1.408221	-0.114217
C96	C	1.871567	1.741554	0.219116
C97	C	1.204857	0.983577	-0.447527
C98	C	1.538190	1.316910	-0.114194
C99	C	1.871524	1.650244	0.219139
C100	C	1.204827	0.910799	-0.447505
C101	C	1.538160	1.244132	-0.114171
C102	C	1.871493	1.577466	0.219162
C103	C	1.204785	0.819483	-0.447482
C104	C	1.538118	1.152816	-0.114149
C105	C	1.871452	1.486149	0.219184
C106	C	1.204863	0.447504	-0.820199
C107	C	1.538196	0.780838	-0.486865
C108	C	1.871530	1.114171	-0.153532
C109	C	1.204882	0.447475	-0.911508
C110	C	1.538216	0.780809	-0.578175
C111	C	1.871549	1.114142	-0.244842
C112	C	1.204902	0.447448	-0.984286
C113	C	1.538235	0.780781	-0.650952
C114	C	1.871569	1.114115	-0.317619
C115	C	1.204923	0.447420	-1.075601
C116	C	1.538256	0.780753	-0.742268
C117	C	1.871589	1.114087	-0.408934
C118	C	1.204798	0.447590	-0.237992
C119	C	1.538132	0.780923	0.095341
C120	C	1.871465	1.114257	0.428674
C121	C	1.204942	0.447392	-0.148379
C122	C	1.538276	0.780726	0.184955
C123	C	1.871609	1.114059	0.518288
H124	H	0.720118	0.514896	-0.514577
H125	H	1.053452	0.848230	-0.181244
H126	H	1.386785	1.181563	0.152090
H127	H	0.690307	0.380355	-0.380451
H128	H	1.023640	0.713689	-0.047118
H129	H	1.356973	1.047022	0.286216
