data_functionalizedCrystal
_audit_creation_method	'MofGen! by Chris Wilmer'
_symmetry_space_group_name_H-M	'P1'
_symmetry_Int_Tables_number	1
_symmetry_cell_setting	triclinic
loop_
_symmetry_equiv_pos_as_xyz
  x,y,z
_cell_length_a	19.077236
_cell_length_b	29.839125
_cell_length_c	19.077432
_cell_angle_alpha	92.312718
_cell_angle_beta	90.072528
_cell_angle_gamma	87.685594
loop_
_atom_site_label
_atom_site_type_symbol
_atom_site_fract_x
_atom_site_fract_y
_atom_site_fract_z
Zn1	Zn	1.085461	-0.275833	0.236788
Zn2	Zn	1.418794	0.057501	0.570121
Zn3	Zn	1.752127	0.390834	0.903454
Zn4	Zn	1.090106	-0.197815	0.354273
Zn5	Zn	1.423439	0.135519	0.687606
Zn6	Zn	1.756772	0.468852	1.020940
Zn7	Zn	0.967965	-0.197576	0.241492
Zn8	Zn	1.301298	0.135757	0.574825
Zn9	Zn	1.634631	0.469091	0.908159
Zn10	Zn	0.972634	-0.269778	0.358968
Zn11	Zn	1.305967	0.063556	0.692302
Zn12	Zn	1.639301	0.396889	1.025635
O13	O	1.029041	-0.235250	0.297880
O14	O	1.362375	0.098083	0.631214
O15	O	1.695708	0.431416	0.964547
O16	O	1.184412	-0.268117	0.248439
O17	O	1.517745	0.065216	0.581772
O18	O	1.851079	0.398549	0.915105
O19	O	1.073893	-0.134915	0.339316
O20	O	1.407227	0.198418	0.672650
O21	O	1.740560	0.531751	1.005983
O22	O	0.979653	-0.210391	0.142536
O23	O	1.312986	0.122942	0.475869
O24	O	1.646320	0.456276	0.809202
O25	O	1.187825	-0.210798	0.334755
O26	O	1.521158	0.122536	0.668088
O27	O	1.854491	0.455869	1.001421
O28	O	1.065977	-0.267886	0.139079
O29	O	1.399310	0.065447	0.472413
O30	O	1.732643	0.398781	0.805746
O31	O	0.984157	-0.134740	0.256456
O32	O	1.317490	0.198593	0.589790
O33	O	1.650824	0.531926	0.923123
O34	O	0.870249	-0.204520	0.261009
O35	O	1.203583	0.128813	0.594342
O36	O	1.536916	0.462147	0.927676
O37	O	0.987611	-0.333448	0.342757
O38	O	1.320944	-0.000115	0.676090
O39	O	1.654277	0.333218	1.009424
O40	O	0.873680	-0.257566	0.347319
O41	O	1.207013	0.075767	0.680652
O42	O	1.540346	0.409100	1.013985
O43	O	1.070504	-0.337897	0.252991
O44	O	1.403837	-0.004564	0.586325
O45	O	1.737171	0.328770	0.919658
O46	O	1.078421	-0.204927	0.453228
O47	O	1.411754	0.128407	0.786562
O48	O	1.745088	0.461740	1.119895
O49	O	0.992115	-0.257798	0.456678
O50	O	1.325448	0.075536	0.790011
O51	O	1.658781	0.408869	1.123345
C52	C	0.846467	-0.230360	0.305184
C53	C	1.179801	0.102973	0.638518
C54	C	1.513134	0.436306	0.971851
C55	C	0.768362	-0.228279	0.308326
C56	C	1.101695	0.105055	0.641659
C57	C	1.435029	0.438388	0.974993
C58	C	0.729895	-0.257186	0.264933
C59	C	1.063228	0.076147	0.598266
C60	C	1.396561	0.409481	0.931600
C61	C	0.656506	-0.255226	0.267882
C62	C	0.989840	0.078107	0.601215
C63	C	1.323173	0.411440	0.934548
C64	C	0.621587	-0.224361	0.314227
C65	C	0.954920	0.108972	0.647560
C66	C	1.288253	0.442305	0.980894
C67	C	0.660059	-0.195451	0.357622
C68	C	0.993393	0.137883	0.690955
C69	C	1.326726	0.471216	1.024288
C70	C	0.733446	-0.197409	0.354669
C71	C	1.066779	0.135925	0.688003
C72	C	1.400113	0.469258	1.021336
C73	C	0.402294	-0.215299	0.327866
C74	C	0.735627	0.118034	0.661199
C75	C	1.068960	0.451368	0.994532
C76	C	0.328902	-0.213344	0.330816
C77	C	0.662235	0.119989	0.664150
C78	C	0.995568	0.453323	0.997483
C79	C	0.325354	-0.273119	0.241075
C80	C	0.658687	0.060214	0.574408
C81	C	0.992020	0.393547	0.907742
C82	C	0.398742	-0.275076	0.238130
C83	C	0.732075	0.058257	0.571463
C84	C	1.065409	0.391590	0.904796
C85	C	0.437208	-0.246164	0.281522
C86	C	0.770542	0.087169	0.614855
C87	C	1.103875	0.420502	0.948188
N88	N	0.546572	-0.222358	0.317244
N89	N	0.879905	0.110975	0.650577
N90	N	1.213239	0.444308	0.983910
N91	N	0.512221	-0.248166	0.278501
N92	N	0.845555	0.085168	0.611834
N93	N	1.178888	0.418501	0.945168
C94	C	1.029060	-0.352429	0.297873
C95	C	1.362393	-0.019096	0.631206
C96	C	1.695727	0.314237	0.964540
C97	C	1.029068	-0.402364	0.297870
C98	C	1.362401	-0.069031	0.631203
C99	C	1.695735	0.264303	0.964537
C100	C	1.072273	-0.714331	0.251010
C101	C	1.405607	-0.380998	0.584343
C102	C	1.738940	-0.047664	0.917676
C103	C	1.072306	-0.902007	0.250948
C104	C	1.405639	-0.568673	0.584282
C105	C	1.738972	-0.235340	0.917615
O106	O	1.108991	-0.928244	0.211174
O107	O	1.442324	-0.594911	0.544508
O108	O	1.775657	-0.261577	0.877841
N109	N	1.029154	-0.923156	0.297678
N110	N	1.362487	-0.589823	0.631012
N111	N	1.695820	-0.256490	0.964345
C112	C	0.985987	-0.897384	0.344424
C113	C	1.319320	-0.564051	0.677757
C114	C	1.652654	-0.230718	1.011090
O115	O	0.949279	-0.919680	0.384164
O116	O	1.282612	-0.586347	0.717497
O117	O	1.615946	-0.253013	1.050831
C118	C	0.985951	-0.709710	0.344481
C119	C	1.319285	-0.376376	0.677814
C120	C	1.652618	-0.043043	1.011148
C121	C	1.029112	-0.688562	0.297753
C122	C	1.362445	-0.355229	0.631086
C123	C	1.695778	-0.021896	0.964420
C124	C	1.115429	-0.693184	0.204285
C125	C	1.448763	-0.359850	0.537618
C126	C	1.782096	-0.026517	0.870951
C127	C	1.115424	-0.646267	0.204303
C128	C	1.448757	-0.312934	0.537636
C129	C	1.782090	0.020399	0.870970
C130	C	1.072262	-0.620499	0.251046
C131	C	1.405595	-0.287166	0.584380
C132	C	1.738928	0.046168	0.917713
C133	C	1.029106	-0.641646	0.297771
C134	C	1.362439	-0.308313	0.631105
C135	C	1.695772	0.025020	0.964438
C136	C	0.942782	-0.683939	0.391223
C137	C	1.276115	-0.350605	0.724556
C138	C	1.609448	-0.017272	1.057889
C139	C	0.942775	-0.637017	0.391232
C140	C	1.276109	-0.303684	0.724565
C141	C	1.609442	0.029650	1.057898
C142	C	0.985935	-0.615870	0.344503
C143	C	1.319269	-0.282537	0.677837
C144	C	1.652602	0.050797	1.011170
C145	C	0.985938	-0.568962	0.344533
C146	C	1.319272	-0.235628	0.677866
C147	C	1.652605	0.097705	1.011200
N148	N	1.029090	-0.547812	0.297803
N149	N	1.362424	-0.214478	0.631136
N150	N	1.695757	0.118855	0.964470
C151	C	1.072252	-0.573580	0.251060
C152	C	1.405585	-0.240247	0.584393
C153	C	1.738919	0.093086	0.917726
C154	C	0.986010	-0.995916	0.344391
C155	C	1.319343	-0.662583	0.677725
C156	C	1.652676	-0.329250	1.011058
C157	C	0.986020	-1.042835	0.344378
C158	C	1.319353	-0.709502	0.677711
C159	C	1.652686	-0.376168	1.011045
C160	C	1.072337	-1.047454	0.250901
C161	C	1.405671	-0.714121	0.584235
C162	C	1.739004	-0.380787	0.917568
C163	C	1.072331	-1.000535	0.250919
C164	C	1.405664	-0.667201	0.584252
C165	C	1.738998	-0.333868	0.917585
C166	C	1.029162	-0.974767	0.297661
C167	C	1.362495	-0.641433	0.630995
C168	C	1.695829	-0.308100	0.964328
C169	C	1.072237	-0.475053	0.251102
C170	C	1.405571	-0.141720	0.584436
C171	C	1.738904	0.191614	0.917769
C172	C	1.072230	-0.428133	0.251127
C173	C	1.405563	-0.094799	0.584460
C174	C	1.738896	0.238534	0.917794
C175	C	0.985910	-0.423518	0.344600
C176	C	1.319243	-0.090184	0.677934
C177	C	1.652576	0.243149	1.011267
C178	C	0.985919	-0.470434	0.344579
C179	C	1.319253	-0.137101	0.677912
C180	C	1.652586	0.196233	1.011245
C181	C	1.029085	-0.496201	0.297824
C182	C	1.362419	-0.162867	0.631157
C183	C	1.695752	0.170466	0.964491
O184	O	0.949267	-0.542696	0.384281
O185	O	1.282600	-0.209363	0.717614
O186	O	1.615933	0.123970	1.050947
O187	O	1.108943	-0.551276	0.211315
O188	O	1.442277	-0.217943	0.544648
O189	O	1.775610	0.115390	0.877981
C190	C	1.072279	-0.761247	0.250991
C191	C	1.405612	-0.427914	0.584325
C192	C	1.738946	-0.094580	0.917658
C193	C	1.029123	-0.782395	0.297716
C194	C	1.362456	-0.449061	0.631049
C195	C	1.695790	-0.115728	0.964383
C196	C	0.985961	-0.756626	0.344459
C197	C	1.319295	-0.423293	0.677793
C198	C	1.652628	-0.089959	1.011126
C199	C	1.029133	-0.829313	0.297703
C200	C	1.362466	-0.495980	0.631036
C201	C	1.695799	-0.162646	0.964369
C202	C	1.072294	-0.855082	0.250959
C203	C	1.405628	-0.521748	0.584293
C204	C	1.738961	-0.188415	0.917626
C205	C	1.115446	-0.833932	0.204230
C206	C	1.448780	-0.500598	0.537563
C207	C	1.782113	-0.167265	0.870896
C208	C	1.115441	-0.787016	0.204248
C209	C	1.448774	-0.453682	0.537581
C210	C	1.782107	-0.120349	0.870915
C211	C	0.942809	-0.777776	0.391189
C212	C	1.276143	-0.444443	0.724523
C213	C	1.609476	-0.111109	1.057856
C214	C	0.942819	-0.824692	0.391168
C215	C	1.276152	-0.491359	0.724501
C216	C	1.609486	-0.158026	1.057834
C217	C	0.985981	-0.850461	0.344424
C218	C	1.319314	-0.517128	0.677758
C219	C	1.652647	-0.183794	1.011091
C220	C	1.212328	-0.240159	0.290548
C221	C	1.545662	0.093174	0.623881
C222	C	1.878995	0.426507	0.957215
C223	C	1.290434	-0.242251	0.287424
C224	C	1.623768	0.091082	0.620757
C225	C	1.957101	0.424415	0.954090
C226	C	1.036298	-0.230741	0.480449
C227	C	1.369631	0.102592	0.813782
C228	C	1.702964	0.435925	1.147115
C229	C	1.039466	-0.228829	0.558550
C230	C	1.372799	0.104504	0.891883
C231	C	1.706133	0.437838	1.225216
C232	C	1.029061	-0.118529	0.297835
C233	C	1.362394	0.214804	0.631168
C234	C	1.695728	0.548137	0.964502
C235	C	1.029181	-0.068603	0.297635
C236	C	1.362515	0.264730	0.630968
C237	C	1.695848	0.598063	0.964301
C238	C	1.021776	-0.239787	0.114598
C239	C	1.355109	0.093546	0.447931
C240	C	1.688443	0.426879	0.781265
C241	C	1.018680	-0.241721	0.036494
C242	C	1.352013	0.091613	0.369827
C243	C	1.685346	0.424946	0.703161
C244	C	0.995989	-0.255433	0.597065
C245	C	1.329322	0.077900	0.930398
C246	C	1.662656	0.411234	1.263731
C247	C	0.998969	-0.253635	0.670449
C248	C	1.332302	0.079699	1.003782
C249	C	1.665636	0.413032	1.337115
C250	C	1.045431	-0.225234	0.705316
C251	C	1.378764	0.108099	1.038650
C252	C	1.712097	0.441433	1.371983
C253	C	1.088909	-0.198627	0.666796
C254	C	1.422243	0.134707	1.000130
C255	C	1.755576	0.468040	1.333463
C256	C	1.085925	-0.200423	0.593414
C257	C	1.419259	0.132910	0.926747
C258	C	1.752592	0.466243	1.260080
C259	C	1.059175	-0.216910	0.924591
C260	C	1.392508	0.116423	1.257925
C261	C	1.725841	0.449757	1.591258
C262	C	1.062157	-0.215117	0.997979
C263	C	1.395490	0.118217	1.331313
C264	C	1.728824	0.451550	1.664646
C265	C	0.972215	-0.270124	1.001627
C266	C	1.305549	0.063209	1.334960
C267	C	1.638882	0.396543	1.668293
C268	C	0.969238	-0.271920	0.928242
C269	C	1.302571	0.061414	1.261576
C270	C	1.635905	0.394747	1.594909
C271	C	1.012714	-0.245311	0.889729
C272	C	1.346048	0.088022	1.223062
C273	C	1.679381	0.421356	1.556395
N274	N	1.048479	-0.223396	0.780327
N275	N	1.381813	0.109937	1.113660
N276	N	1.715146	0.443271	1.446993
N277	N	1.009661	-0.247147	0.814720
N278	N	1.342995	0.086186	1.148053
N279	N	1.676328	0.419520	1.481387
H280	H	0.764765	-0.173869	0.390004
H281	H	1.098099	0.159464	0.723337
H282	H	1.431432	0.492798	1.056671
H283	H	0.907674	-0.841906	0.429226
H284	H	1.241008	-0.508573	0.762559
H285	H	1.574341	-0.175239	1.095893
H286	H	0.907662	-0.756800	0.429255
H287	H	1.240995	-0.423466	0.762588
H288	H	1.574329	-0.090133	1.095922
C289	C	0.951140	-0.282901	0.712812
C290	C	1.284473	0.050432	1.046145
C291	C	1.617806	0.383766	1.379479
N292	N	0.915112	-0.304946	0.744720
N293	N	1.248445	0.028388	1.078053
N294	N	1.581778	0.361721	1.411386
C295	C	1.119804	-0.977277	0.199510
C296	C	1.453138	-0.643944	0.532843
C297	C	1.786471	-0.310610	0.866176
N298	N	1.155561	-0.959762	0.160784
N299	N	1.488895	-0.626429	0.494117
N300	N	1.822228	-0.293095	0.827450
H301	H	0.950882	-1.060049	0.382436
H302	H	1.284216	-0.726716	0.715769
H303	H	1.617549	-0.393382	1.049103
H304	H	0.433604	-0.191757	0.363199
H305	H	0.766937	0.141576	0.696533
H306	H	1.100271	0.474910	1.029866
C307	C	0.918171	-0.303192	0.889892
C308	C	1.251505	0.030141	1.223225
C309	C	1.584838	0.363474	1.556558
N310	N	0.879725	-0.326759	0.861005
N311	N	1.213058	0.006574	1.194338
N312	N	1.546391	0.339908	1.527672
H313	H	1.121328	-0.178759	0.562055
H314	H	1.454661	0.154575	0.895389
H315	H	1.787995	0.487908	1.228722
H316	H	0.958158	-0.278562	0.568680
H317	H	1.291491	0.054771	0.902014
H318	H	1.624825	0.388105	1.235347
C319	C	1.140013	-0.167383	0.705154
C320	C	1.473347	0.165951	1.038487
C321	C	1.806680	0.499284	1.371820
N322	N	1.178506	-0.143849	0.734044
N323	N	1.511839	0.189484	1.067377
N324	N	1.845173	0.522817	1.400710
H325	H	0.936819	-0.291787	1.032992
H326	H	1.270152	0.041546	1.366325
H327	H	1.603485	0.374880	1.699659
C328	C	0.283035	-0.304913	0.193335
C329	C	0.616368	0.028420	0.526668
C330	C	0.949701	0.361754	0.860002
N331	N	0.251160	-0.328858	0.157371
N332	N	0.584493	0.004475	0.490704
N333	N	0.917826	0.337808	0.824037
H334	H	0.427169	-0.300212	0.200393
H335	H	0.760502	0.033122	0.533726
H336	H	1.093835	0.366455	0.867059
C337	C	0.290492	-0.179389	0.381802
C338	C	0.623825	0.153945	0.715136
C339	C	0.957158	0.487278	1.048469
N340	N	0.261561	-0.153815	0.420204
N341	N	0.594895	0.179518	0.753538
N342	N	0.928228	0.512851	1.086871
H343	H	0.625189	-0.278767	0.232548
H344	H	0.958523	0.054567	0.565881
H345	H	1.291856	0.387900	0.899215
C346	C	1.162917	-0.721522	0.152861
C347	C	1.496251	-0.388189	0.486194
C348	C	1.829584	-0.054855	0.819528
N349	N	1.198693	-0.742864	0.114130
N350	N	1.532026	-0.409530	0.447463
N351	N	1.865360	-0.076197	0.780796
C352	C	1.113268	-0.183871	1.036332
C353	C	1.446602	0.149462	1.369665
C354	C	1.779935	0.482796	1.702999
N355	N	1.151764	-0.160338	1.065220
N356	N	1.485097	0.172995	1.398553
N357	N	1.818431	0.506328	1.731886
H358	H	0.631622	-0.170318	0.395354
H359	H	0.964955	0.163016	0.728687
H360	H	1.298289	0.496349	1.062020
H361	H	1.107378	-0.410917	0.213074
H362	H	1.440712	-0.077584	0.546408
H363	H	1.774045	0.255750	0.879741
C364	C	1.119726	-0.503390	0.199673
C365	C	1.453059	-0.170056	0.533007
C366	C	1.786393	0.163277	0.866340
N367	N	1.155499	-0.524733	0.160941
N368	N	1.488832	-0.191399	0.494274
N369	N	1.822165	0.141934	0.827607
H370	H	0.950782	-0.487653	0.382635
H371	H	1.284115	-0.154320	0.715968
H372	H	1.617448	0.179014	1.049302
H373	H	1.094576	-0.195245	0.893239
H374	H	1.427909	0.138088	1.226573
H375	H	1.761243	0.471422	1.559906
H376	H	0.758321	-0.282321	0.227195
H377	H	1.091654	0.051012	0.560529
H378	H	1.424987	0.384346	0.893862
H379	H	1.150568	-0.629054	0.166251
H380	H	1.483901	-0.295720	0.499584
H381	H	1.817234	0.037613	0.832918
H382	H	1.107482	-1.068443	0.212842
H383	H	1.440815	-0.735109	0.546175
H384	H	1.774149	-0.401776	0.879508
H385	H	0.907636	-0.701148	0.429274
H386	H	1.240969	-0.367815	0.762607
H387	H	1.574302	-0.034482	1.095940
H388	H	0.907613	-0.616039	0.429289
H389	H	1.240947	-0.282706	0.762622
H390	H	1.574280	0.050628	1.095955
C391	C	0.938518	-0.967577	0.395816
C392	C	1.271851	-0.634244	0.729149
C393	C	1.605185	-0.300911	1.062483
N394	N	0.902748	-0.946234	0.434551
N395	N	1.236082	-0.612901	0.767884
N396	N	1.569415	-0.279568	1.101218
C397	C	0.938430	-0.395163	0.396012
C398	C	1.271763	-0.061830	0.729346
C399	C	1.605097	0.271503	1.062679
N400	N	0.902663	-0.373806	0.434731
N401	N	1.235997	-0.040472	0.768065
N402	N	1.569330	0.292861	1.101398
H403	H	1.150586	-0.769802	0.166197
H404	H	1.483919	-0.436469	0.499530
H405	H	1.817252	-0.103135	0.832863
H406	H	1.150593	-0.854921	0.166172
H407	H	1.483926	-0.521588	0.499505
H408	H	1.817259	-0.188254	0.832838
