data_functionalizedCrystal
_audit_creation_method	'MofGen! by Chris Wilmer'
_symmetry_space_group_name_H-M	'P1'
_symmetry_Int_Tables_number	1
_symmetry_cell_setting	triclinic
loop_
_symmetry_equiv_pos_as_xyz
  x,y,z
_cell_length_a	12.811457
_cell_length_b	15.995343
_cell_length_c	11.892095
_cell_angle_alpha	93.884387
_cell_angle_beta	91.498327
_cell_angle_gamma	83.768102
loop_
_atom_site_label
_atom_site_type_symbol
_atom_site_fract_x
_atom_site_fract_y
_atom_site_fract_z
O1	O	1.389199	0.115513	0.048399
O2	O	1.085838	0.126015	0.017296
O3	O	1.245814	-0.001045	0.033719
O4	O	1.229223	0.242574	0.031976
O5	O	1.232476	0.009532	0.220357
O6	O	1.072500	0.136593	0.203935
O7	O	1.375861	0.126091	0.235037
Zn8	Zn	1.222063	0.133021	0.249119
Zn9	Zn	1.239636	0.119085	0.003215
O10	O	1.215885	0.253151	0.218615
C11	C	1.040350	0.130391	0.106636
C12	C	0.924680	0.127662	0.094777
C13	C	0.692782	0.134050	0.275990
C14	C	0.584099	0.131486	0.264853
C15	C	0.598631	0.119963	0.061369
C16	C	0.707314	0.122527	0.072506
C17	C	0.754385	0.129572	0.179819
C18	C	0.863068	0.132143	0.190955
C19	C	0.877599	0.120613	-0.012528
C20	C	0.768917	0.118049	-0.023665
C21	C	1.238460	-0.026958	0.126971
C22	C	1.236407	-0.119927	0.126770
C23	C	1.232684	-0.290150	0.126362
C24	C	1.117205	-0.314571	0.114520
C25	C	1.115063	-0.411294	0.113861
C26	C	1.229016	-0.457745	0.125962
C27	C	1.294683	-0.434133	0.025550
C28	C	1.296058	-0.337332	0.025614
C29	C	1.282579	-0.325392	0.238037
C30	C	1.278217	-0.421848	0.238985
C31	C	1.226950	-0.552464	0.125733
C32	C	1.234754	-0.195432	0.126584
C33	C	1.421349	0.121715	0.145696
C34	C	1.537020	0.124443	0.157547
C35	C	1.223239	0.279063	0.125360
C36	C	1.225293	0.372032	0.125554
N37	N	1.210076	0.142532	0.416942
N38	N	1.251631	0.109567	-0.164608
C39	C	1.335036	0.043339	0.666419
C40	C	1.326666	0.049993	0.783901
C41	C	1.184960	0.162490	0.769392
C42	C	1.193331	0.155836	0.651909
C43	C	1.268372	0.096259	0.600427
C44	C	1.276747	0.089610	0.482943
C45	C	1.135037	0.202101	0.468435
C46	C	1.126667	0.208756	0.585918
H47	H	1.064153	-0.426421	0.185425
Br48	Br	0.756667	0.143627	0.421624
Br49	Br	0.500498	0.137558	0.395376
H50	H	1.396145	-0.005165	0.624502
Br51	Br	1.416077	-0.474787	0.264398
H52	H	1.080758	0.245195	0.414692
H53	H	1.367502	-0.310521	0.247785
Br54	Br	1.239328	-0.300830	-0.114204
H55	H	0.730577	0.112309	-0.111037
H56	H	0.560289	0.114213	-0.026000
Br57	Br	0.926949	0.141709	0.336592
Br58	Br	1.083109	0.243328	0.839270
H59	H	1.378831	-0.465405	0.030493
Br60	Br	1.024824	0.289602	0.655793
H61	H	1.066994	-0.282663	0.186197
Br62	Br	0.961206	0.114555	-0.143054
H63	H	1.337852	0.041102	0.441028
H64	H	1.240382	-0.292896	0.314951
Br65	Br	1.437738	-0.312147	0.032572
H66	H	1.078617	-0.290308	0.033843
Br67	Br	1.048802	-0.449970	-0.021705
H68	H	1.260521	-0.459093	-0.057996
Br69	Br	1.198369	-0.446008	0.362921
H70	H	1.380949	0.006900	0.837629
