data_functionalizedCrystal
_audit_creation_method	'MofGen! by Chris Wilmer'
_symmetry_space_group_name_H-M	'P1'
_symmetry_Int_Tables_number	1
_symmetry_cell_setting	triclinic
loop_
_symmetry_equiv_pos_as_xyz
  x,y,z
_cell_length_a	12.811415
_cell_length_b	27.731993
_cell_length_c	26.210047
_cell_angle_alpha	89.989972
_cell_angle_beta	95.450797
_cell_angle_gamma	83.336213
loop_
_atom_site_label
_atom_site_type_symbol
_atom_site_fract_x
_atom_site_fract_y
_atom_site_fract_z
O1	O	0.124639	0.641620	0.048058
O2	O	0.624639	1.141620	0.548058
O3	O	0.143688	0.500927	0.048970
O4	O	0.643688	1.000927	0.548970
O5	O	-0.018692	0.574813	0.041438
O6	O	0.481308	1.074813	0.541438
O7	O	0.287019	0.567734	0.055590
O8	O	0.787019	1.067734	0.555590
O9	O	-0.018745	0.574814	-0.043422
O10	O	0.481255	1.074814	0.456578
O11	O	0.143635	0.500927	-0.035890
O12	O	0.643635	1.000927	0.464110
O13	O	0.124586	0.641621	-0.036803
O14	O	0.624586	1.141621	0.463197
Cu15	Cu	0.134106	0.571274	-0.044095
Cu16	Cu	0.634106	1.071274	0.455905
Cu17	Cu	0.134168	0.571273	0.056263
Cu18	Cu	0.634168	1.071273	0.556263
O19	O	0.286966	0.567734	-0.029271
O20	O	0.786966	1.067734	0.470729
C21	C	0.143271	0.482917	0.006526
C22	C	0.643271	0.982917	0.506526
C23	C	0.142093	0.429255	0.006483
C24	C	0.642093	0.929255	0.506483
C25	C	0.133587	0.046048	0.052321
C26	C	0.633587	0.546048	0.552321
C27	C	0.138076	0.247730	0.052542
C28	C	0.638076	0.747730	0.552542
O29	O	0.138638	0.273806	0.091908
O30	O	0.638638	0.773806	0.591908
N31	N	0.138608	0.272953	0.006312
N32	N	0.638608	0.772953	0.506312
C33	C	0.138012	0.247754	-0.039977
C34	C	0.638012	0.747754	0.460023
O35	O	0.138557	0.273836	-0.079295
O36	O	0.638557	0.773836	0.420705
C37	C	0.133516	0.046073	-0.040199
C38	C	0.633516	0.546073	0.459801
C39	C	0.132994	0.020851	0.006035
C40	C	0.632994	0.520851	0.506035
C41	C	0.133064	0.020826	0.098551
C42	C	0.633064	0.520826	0.598551
C43	C	0.131948	-0.029592	0.098495
C44	C	0.631948	0.470408	0.598495
C45	C	0.131355	-0.054788	0.052210
C46	C	0.631355	0.445212	0.552210
C47	C	0.131878	-0.029566	0.005980
C48	C	0.631878	0.470434	0.505980
C49	C	0.132913	0.020875	-0.086488
C50	C	0.632913	0.520875	0.413512
C51	C	0.131786	-0.029548	-0.086539
C52	C	0.631786	0.470452	0.413461
C53	C	0.131264	-0.054770	-0.040306
C54	C	0.631264	0.445230	0.459694
C55	C	0.130169	-0.105180	-0.040362
C56	C	0.630169	0.394820	0.459638
N57	N	0.129636	-0.130404	0.005869
N58	N	0.629636	0.369596	0.505869
C59	C	0.130229	-0.105208	0.052154
C60	C	0.630229	0.394792	0.552154
C61	C	0.140374	0.353639	-0.039858
C62	C	0.640374	0.853639	0.460142
C63	C	0.141500	0.404058	-0.039803
C64	C	0.641500	0.904058	0.460197
C65	C	0.141562	0.404031	0.052717
C66	C	0.641562	0.904031	0.552717
C67	C	0.140443	0.353610	0.052662
C68	C	0.640443	0.853610	0.552662
C69	C	0.139842	0.328415	0.006373
C70	C	0.639842	0.828415	0.506373
C71	C	0.127886	-0.211089	0.052034
C72	C	0.627886	0.288911	0.552034
C73	C	0.126774	-0.261511	0.051975
C74	C	0.626774	0.238489	0.551975
C75	C	0.126707	-0.261479	-0.040545
C76	C	0.626707	0.238521	0.459455
C77	C	0.127824	-0.211061	-0.040486
C78	C	0.627824	0.288939	0.459514
C79	C	0.128410	-0.185867	0.005808
C80	C	0.628410	0.314133	0.505808
O81	O	0.129594	-0.131287	-0.079708
O82	O	0.629594	0.368713	0.420292
O83	O	0.129660	-0.131297	0.091465
O84	O	0.629660	0.368703	0.591465
C85	C	0.134704	0.096466	0.052376
C86	C	0.634704	0.596466	0.552376
C87	C	0.135227	0.121687	0.006146
C88	C	0.635227	0.621687	0.506146
C89	C	0.134634	0.096491	-0.040139
C90	C	0.634634	0.596491	0.459861
C91	C	0.136353	0.172107	0.006202
C92	C	0.636353	0.672107	0.506202
C93	C	0.136946	0.197303	0.052487
C94	C	0.636946	0.697303	0.552487
C95	C	0.136413	0.172080	0.098718
C96	C	0.636413	0.672080	0.598718
C97	C	0.135297	0.121662	0.098662
C98	C	0.635297	0.621662	0.598662
C99	C	0.135167	0.121714	-0.086370
C100	C	0.635167	0.621714	0.413630
C101	C	0.136284	0.172132	-0.086310
C102	C	0.636284	0.672132	0.413690
C103	C	0.136877	0.197328	-0.040025
C104	C	0.636877	0.697328	0.459975
C105	C	-0.057817	0.574417	-0.002800
C106	C	0.442183	1.074417	0.497200
C107	C	-0.174319	0.573229	-0.008189
C108	C	0.325681	1.073229	0.491811
C109	C	-0.393168	0.570988	0.074211
C110	C	0.106832	1.070988	0.574211
C111	C	-0.502632	0.569873	0.069150
C112	C	-0.002632	1.069873	0.569150
C113	C	-0.502710	0.569878	-0.023371
C114	C	-0.002710	1.069878	0.476629
C115	C	-0.393247	0.570994	-0.018310
C116	C	0.106753	1.070994	0.481690
C117	C	-0.338480	0.571550	0.030482
C118	C	0.161520	1.071550	0.530482
C119	C	-0.229015	0.572669	0.035543
C120	C	0.270985	1.072669	0.535543
C121	C	-0.229095	0.572671	-0.056977
C122	C	0.270905	1.072671	0.443023
C123	C	-0.338558	0.571555	-0.062038
C124	C	0.161442	1.071555	0.437962
C125	C	0.326091	0.568130	0.014969
C126	C	0.826091	1.068130	0.514969
C127	C	0.442593	0.569318	0.020361
C128	C	0.942593	1.069318	0.520361
C129	C	0.125003	0.659630	0.005643
C130	C	0.625003	1.159630	0.505643
C131	C	0.126181	0.713293	0.005689
C132	C	0.626181	1.213293	0.505689
N133	N	0.134205	0.571273	0.126848
N134	N	0.634205	1.071273	0.626848
N135	N	0.134061	0.571278	-0.114681
N136	N	0.634061	1.071278	0.385319
C137	C	0.070771	0.541900	0.476432
C138	C	0.570771	1.041900	0.976432
C139	C	0.070738	0.541901	0.690089
C140	C	0.570738	1.041901	1.190089
O141	O	0.016830	0.516932	0.715222
O142	O	0.516830	1.016932	1.215222
N143	N	0.134080	0.571279	0.719736
N144	N	0.634080	1.071279	1.219736
C145	C	0.197431	0.600661	0.695965
C146	C	0.697431	1.100661	1.195965
O147	O	0.251298	0.625652	0.726084
O148	O	0.751298	1.125652	1.226084
C149	C	0.197457	0.600662	0.482309
C150	C	0.697457	1.100662	0.982309
C151	C	0.134118	0.571279	0.452665
C152	C	0.634118	1.071279	0.952665
C153	C	0.007436	0.512520	0.446789
C154	C	0.507436	1.012520	0.946789
C155	C	0.007449	0.512518	0.393378
C156	C	0.507449	1.012518	0.893378
C157	C	0.070797	0.541897	0.369611
C158	C	0.570797	1.041897	0.869611
C159	C	0.134131	0.571277	0.399254
C160	C	0.634131	1.071277	0.899254
C161	C	0.260801	0.630047	0.458539
C162	C	0.760801	1.130047	0.958539
C163	C	0.260800	0.630045	0.405121
C164	C	0.760800	1.130045	0.905121
C165	C	0.197461	0.600662	0.375477
C166	C	0.697461	1.100662	0.875477
C167	C	0.197492	0.600654	0.322076
C168	C	0.697492	1.100654	0.822076
N169	N	0.134149	0.571276	0.292430
N170	N	0.634149	1.071276	0.792430
C171	C	0.070802	0.541898	0.316197
C172	C	0.570802	1.041898	0.816197
C173	C	0.197414	0.600657	0.808138
C174	C	0.697414	1.100657	1.308138
C175	C	0.197409	0.600656	0.861552
C176	C	0.697409	1.100656	1.361552
C177	C	0.070714	0.541897	0.855672
C178	C	0.570714	1.041897	1.355672
C179	C	0.070726	0.541896	0.802258
C180	C	0.570726	1.041896	1.302258
C181	C	0.134071	0.571279	0.778491
C182	C	0.634071	1.071279	1.278491
C183	C	0.070835	0.541896	0.204030
C184	C	0.570835	1.041896	0.704030
C185	C	0.070857	0.541895	0.150615
C186	C	0.570857	1.041895	0.650615
C187	C	0.197547	0.600656	0.156499
C188	C	0.697547	1.100656	0.656499
C189	C	0.197529	0.600655	0.209910
C190	C	0.697529	1.100655	0.709910
C191	C	0.134165	0.571273	0.233674
C192	C	0.634165	1.071273	0.733674
O193	O	0.251363	0.625614	0.296910
O194	O	0.751363	1.125614	0.796910
O195	O	0.016924	0.516918	0.286069
O196	O	0.516924	1.016918	0.786069
C197	C	0.070757	0.541902	0.529843
C198	C	0.570757	1.041902	1.029843
C199	C	0.134092	0.571283	0.559487
C200	C	0.634092	1.071283	1.059487
C201	C	0.197439	0.600661	0.535720
C202	C	0.697439	1.100661	1.035720
C203	C	0.134087	0.571282	0.612901
C204	C	0.634087	1.071282	1.112901
C205	C	0.070739	0.541903	0.636668
C206	C	0.570739	1.041903	1.136668
C207	C	0.007397	0.512525	0.607021
C208	C	0.507397	1.012525	1.107021
C209	C	0.007410	0.512524	0.553610
C210	C	0.507410	1.012524	1.053610
C211	C	0.260782	0.630039	0.565367
C212	C	0.760782	1.130039	1.065367
C213	C	0.260765	0.630038	0.618777
C214	C	0.760765	1.130038	1.118777
C215	C	0.197417	0.600659	0.642544
C216	C	0.697417	1.100659	1.142544
H217	H	0.133544	0.041336	0.136244
H218	H	0.633544	0.541336	0.636244
H219	H	0.134678	0.101205	-0.124062
H220	H	0.634678	0.601205	0.375938
H221	H	0.136902	0.192603	0.136406
H222	H	0.636902	0.692603	0.636406
C223	C	-0.168929	0.573290	-0.105082
C224	C	0.331071	1.073290	0.394918
N225	N	-0.123611	0.573757	-0.141313
N226	N	0.376389	1.073757	0.358687
H227	H	0.248998	0.624577	0.885684
H228	H	0.748998	1.124577	1.385684
H229	H	0.131518	-0.050122	0.136144
H230	H	0.631518	0.449878	0.636144
C231	C	0.001176	0.509570	0.118010
C232	C	0.501176	1.009570	0.618010
N233	N	-0.051308	0.485224	0.093453
N234	N	0.448692	0.985224	0.593453
C235	C	0.136858	0.199870	-0.137175
C236	C	0.636858	0.699870	0.362825
N237	N	0.137279	0.220761	-0.175486
N238	N	0.637279	0.720761	0.324514
H239	H	-0.044132	0.488593	0.369246
H240	H	0.455868	0.988593	0.869246
C241	C	0.267212	0.632974	0.242520
C242	C	0.767212	1.132974	0.742520
N243	N	0.319690	0.657322	0.267077
N244	N	0.819690	1.157322	0.767077
H245	H	0.126228	-0.282003	-0.078230
H246	H	0.626228	0.217997	0.421770
C247	C	-0.398814	0.570942	-0.115707
C248	C	0.101186	1.070942	0.384293
N249	N	-0.444198	0.570481	-0.156131
N250	N	0.055802	1.070481	0.343869
H251	H	0.312376	0.653975	0.482666
H252	H	0.812376	1.153975	0.982666
C253	C	0.131130	-0.057260	-0.137463
C254	C	0.631130	0.442740	0.362537
N255	N	0.130641	-0.078132	-0.175818
N256	N	0.630641	0.421868	0.324182
C257	C	-0.562789	0.569267	0.117255
C258	C	-0.062789	1.069267	0.617255
N259	N	-0.608100	0.568814	0.153489
N260	N	-0.108100	1.068814	0.653489
H261	H	0.141942	0.424588	-0.077450
H262	H	0.641942	0.924588	0.422550
H263	H	0.312383	0.653974	0.385774
H264	H	0.812383	1.153974	0.885774
C265	C	-0.062253	0.480196	0.472924
C266	C	0.437747	0.980196	0.972924
N267	N	-0.114739	0.455844	0.492605
N268	N	0.385261	0.955844	0.992605
C269	C	-0.562970	0.569256	-0.077038
C270	C	-0.062970	1.069256	0.422962
N271	N	-0.608358	0.568785	-0.117460
N272	N	-0.108358	1.068785	0.382540
C273	C	0.001137	0.509571	0.230163
C274	C	0.501137	1.009571	0.730163
N275	N	-0.051352	0.485222	0.249846
N276	N	0.448648	0.985222	0.749846
H277	H	0.019150	0.517969	0.778125
H278	H	0.519150	1.017969	1.278125
C279	C	0.001019	0.509586	0.881825
C280	C	0.501019	1.009586	1.381825
N281	N	-0.051481	0.485254	0.901526
N282	N	0.448519	0.985254	1.401526
C283	C	0.267135	0.632970	0.782004
C284	C	0.767135	1.132970	1.282004
N285	N	0.319662	0.657302	0.762322
N286	N	0.819662	1.157302	1.262322
H287	H	0.139881	0.333130	-0.077554
H288	H	0.639881	0.833130	0.422446
H289	H	0.312353	0.653964	0.642910
H290	H	0.812353	1.153964	1.142910
C291	C	0.133477	0.048608	-0.137351
C292	C	0.633477	0.548608	0.362649
N293	N	0.133897	0.069496	-0.175664
N294	N	0.633897	0.569496	0.324336
C295	C	0.267222	0.632972	0.130345
C296	C	0.767222	1.132972	0.630345
N297	N	0.319696	0.657316	0.110644
N298	N	0.819696	1.157316	0.610644
H299	H	-0.184426	0.573123	0.075272
H300	H	0.315574	1.073123	0.575272
C301	C	0.139858	0.325872	0.103522
C302	C	0.639858	0.825872	0.603522
N303	N	0.139412	0.304982	0.141832
N304	N	0.639412	0.804982	0.641832
H305	H	0.128270	-0.190526	-0.078132
H306	H	0.628270	0.309474	0.421868
C307	C	0.134710	0.093925	0.149523
C308	C	0.634710	0.593925	0.649523
N309	N	0.134262	0.073038	0.187834
N310	N	0.634262	0.573038	0.687834
C311	C	-0.332923	0.571603	0.127882
C312	C	0.167077	1.071603	0.627882
N313	N	-0.287548	0.572065	0.168308
N314	N	0.212452	1.072065	0.668308
H315	H	0.312367	0.653964	0.546021
H316	H	0.812367	1.153964	1.046021
H317	H	-0.044167	0.488597	0.529479
H318	H	0.455833	0.988597	1.029479
C319	C	-0.062359	0.480242	0.633172
C320	C	0.437641	0.980242	1.133172
N321	N	-0.114927	0.455942	0.652870
N322	N	0.385073	0.955942	1.152870
C323	C	0.142206	0.431757	0.103632
C324	C	0.642206	0.931757	0.603632
N325	N	0.142682	0.452643	0.141978
N326	N	0.642682	0.952643	0.641978
H327	H	0.128364	-0.190582	0.089731
H328	H	0.628364	0.309418	0.589731
C329	C	0.126192	-0.289251	0.102837
C330	C	0.626192	0.210749	0.602837
N331	N	0.125748	-0.310143	0.141146
N332	N	0.625748	0.189857	0.641146
