data_functionalizedCrystal
_audit_creation_method	'MofGen! by Chris Wilmer'
_symmetry_space_group_name_H-M	'P1'
_symmetry_Int_Tables_number	1
_symmetry_cell_setting	triclinic
loop_
_symmetry_equiv_pos_as_xyz
  x,y,z
_cell_length_a	12.759401
_cell_length_b	12.645330
_cell_length_c	12.759393
_cell_angle_alpha	89.967817
_cell_angle_beta	89.980316
_cell_angle_gamma	90.011760
loop_
_atom_site_label
_atom_site_type_symbol
_atom_site_fract_x
_atom_site_fract_y
_atom_site_fract_z
Zn1	Zn	1.606270	-0.422002	-0.594010
Zn2	Zn	2.106270	0.077998	-0.094010
Zn3	Zn	1.606171	-0.599306	-0.418328
Zn4	Zn	2.106171	-0.099306	0.081672
Zn5	Zn	1.430572	-0.422054	-0.418346
Zn6	Zn	1.930572	0.077946	0.081654
Zn7	Zn	1.430567	-0.599221	-0.593966
Zn8	Zn	1.930567	-0.099221	-0.093966
O9	O	1.518395	-0.510646	-0.506163
O10	O	2.018395	-0.010646	-0.006163
O11	O	1.753278	-0.445535	-0.570717
O12	O	2.253278	0.054465	-0.070717
O13	O	1.582838	-0.575850	-0.271310
O14	O	2.082838	-0.075850	0.228690
O15	O	1.453923	-0.273700	-0.441674
O16	O	1.953923	0.226300	0.058326
O17	O	1.753205	-0.575800	-0.441644
O18	O	2.253205	-0.075800	0.058356
O19	O	1.583007	-0.273662	-0.570734
O20	O	2.083007	0.226338	-0.070734
O21	O	1.453826	-0.445624	-0.271322
O22	O	1.953826	0.054376	0.228678
O23	O	1.283551	-0.445542	-0.441631
O24	O	1.783551	0.054458	0.058369
O25	O	1.453914	-0.575655	-0.740993
O26	O	1.953914	-0.075655	-0.240993
O27	O	1.283547	-0.575706	-0.570659
O28	O	1.783547	-0.075706	-0.070659
O29	O	1.583002	-0.445453	-0.741025
O30	O	2.083002	0.054547	-0.241025
O31	O	1.582833	-0.747642	-0.441601
O32	O	2.082833	-0.247642	0.058399
O33	O	1.453818	-0.747580	-0.570642
O34	O	1.953818	-0.247580	-0.070642
C35	C	1.245428	-0.510621	-0.506143
C36	C	1.745428	-0.010621	-0.006143
C37	C	1.128651	-0.510636	-0.506159
C38	C	1.628651	-0.010636	-0.006159
C39	C	1.073760	-0.442771	-0.439098
C40	C	1.573760	0.057229	0.060902
C41	C	0.964036	-0.442796	-0.439111
C42	C	1.464036	0.057204	0.060889
C43	C	0.964104	-0.578555	-0.573256
C44	C	1.464104	-0.078555	-0.073256
C45	C	1.073826	-0.578534	-0.573237
C46	C	1.573826	-0.078534	-0.073237
C47	C	1.128586	-0.374873	-0.372021
C48	C	1.628586	0.125127	0.127979
C49	C	1.073695	-0.307001	-0.304955
C50	C	1.573695	0.192999	0.195045
C51	C	0.963971	-0.307026	-0.304968
C52	C	1.463971	0.192974	0.195032
C53	C	0.909138	-0.374923	-0.372047
C54	C	1.409138	0.125077	0.127953
C55	C	1.518343	-0.786075	-0.506138
C56	C	2.018343	-0.286075	-0.006138
C57	C	1.518416	-0.903905	-0.506162
C58	C	2.018416	-0.403905	-0.006162
C59	C	1.599449	-1.071465	-0.424818
C60	C	2.099449	-0.571465	0.075182
C61	C	1.599713	-0.948904	-0.425017
C62	C	2.099713	-0.448904	0.074983
C63	C	1.548444	-0.948278	-0.616907
C64	C	2.048444	-0.448278	-0.116907
C65	C	1.549087	-1.070876	-0.616475
C66	C	2.049087	-0.570876	-0.116475
C67	C	1.407324	-1.071234	-0.477853
C68	C	1.907324	-0.571234	0.022147
C69	C	1.407856	-0.948630	-0.475369
C70	C	1.907856	-0.448630	0.024631
C71	C	1.792429	-0.510671	-0.506183
C72	C	2.292429	-0.010671	-0.006183
C73	C	1.909205	-0.510682	-0.506192
C74	C	2.409205	-0.010682	-0.006192
C75	C	1.518469	-0.510539	-0.780196
C76	C	2.018469	-0.010539	-0.280196
C77	C	1.518500	-0.510493	-0.896973
C78	C	2.018500	-0.010493	-0.396973
C79	C	1.518477	-0.234140	-0.506211
C80	C	2.018477	0.265860	-0.006211
C81	C	1.518511	-0.116310	-0.506231
C82	C	2.018511	0.383690	-0.006231
C83	C	1.585726	-0.442690	-0.951853
C84	C	2.085726	0.057310	-0.451853
C85	C	1.585751	-0.442652	-1.061578
C86	C	2.085751	0.057348	-0.561578
C87	C	1.451322	-0.578228	-1.061531
C88	C	1.951322	-0.078228	-0.561531
C89	C	1.451292	-0.578261	-0.951809
C90	C	1.951292	-0.078261	-0.451809
C91	C	1.652934	-0.374923	-0.897017
C92	C	2.152934	0.125077	-0.397017
C93	C	1.720166	-0.307116	-0.951898
C94	C	2.220166	0.192884	-0.451898
C95	C	1.720191	-0.307077	-1.061622
C96	C	2.220191	0.192923	-0.561622
C97	C	1.652984	-0.374846	-1.116466
C98	C	2.152984	0.125154	-0.616466
C99	C	1.518382	-0.510676	-0.233195
C100	C	2.018382	-0.010676	0.266805
C101	C	1.518555	-0.510423	-0.116419
C102	C	2.018555	-0.010423	0.383581
H103	H	0.819793	-0.374943	-0.372048
H104	H	1.319793	0.125057	0.127952
C105	C	1.794084	-0.232569	-0.891568
C106	C	2.294084	0.267431	-0.391568
N107	N	1.849761	-0.176419	-0.846129
N108	N	2.349761	0.323581	-0.346129
C109	C	1.134209	-0.653185	-0.647012
C110	C	1.634209	-0.153185	-0.147012
N111	N	1.179690	-0.709415	-0.702581
N112	N	1.679690	-0.209415	-0.202581
H113	H	1.774926	-0.251858	-1.106303
H114	H	2.274926	0.248142	-0.606303
H115	H	0.919450	-0.633832	-0.627870
H116	H	1.419450	-0.133832	-0.127870
H117	H	1.628799	-0.917489	-0.641346
H118	H	2.128799	-0.417489	-0.141346
H119	H	1.396605	-0.633402	-1.106193
H120	H	1.896605	-0.133402	-0.606193
C121	C	0.903594	-0.232367	-0.231195
C122	C	1.403594	0.267633	0.268805
N123	N	0.858120	-0.176126	-0.175632
N124	N	1.358120	0.323874	0.324368
H125	H	1.396535	-0.633455	-0.907124
H126	H	1.896535	-0.133455	-0.407124
H127	H	1.580926	-0.918908	-0.342902
H128	H	2.080926	-0.418908	0.157098
H129	H	1.491287	-0.919126	-0.679191
H130	H	1.991287	-0.419126	-0.179191
C131	C	1.574396	-1.111409	-0.313557
C132	C	2.074396	-0.611409	0.186443
N133	N	1.555523	-1.141501	-0.229753
N134	N	2.055523	-0.641501	0.270247
C135	C	1.653010	-0.374795	-1.237166
C136	C	2.153010	0.125205	-0.737166
N137	N	1.653034	-0.374759	-1.328077
N138	N	2.153034	0.125241	-0.828077
H139	H	1.347018	-1.100235	-0.537149
H140	H	1.847018	-0.600235	-0.037149
H141	H	1.118347	-0.251728	-0.250336
H142	H	1.618347	0.248272	0.249664
C143	C	1.249284	-0.374841	-0.371998
C144	C	1.749284	0.125159	0.128002
N145	N	1.340195	-0.374818	-0.371981
N146	N	1.840195	0.125182	0.128019
C147	C	1.370439	-1.113125	-0.370651
C148	C	1.870439	-0.613125	0.129349
N149	N	1.342669	-1.144678	-0.289902
N150	N	1.842669	-0.644678	0.210098
H151	H	1.681361	-1.102194	-0.443378
H152	H	2.181361	-0.602194	0.056622
C153	C	1.710971	-0.909170	-0.450367
C154	C	2.210971	-0.409170	0.049633
N155	N	1.794776	-0.879244	-0.469461
N156	N	2.294776	-0.379244	0.030539
C157	C	1.658887	-1.109397	-0.648936
C158	C	2.158887	-0.609397	-0.148936
N159	N	1.741592	-1.138405	-0.673382
N160	N	2.241592	-0.638405	-0.173382
H161	H	1.492718	-1.100537	-0.679224
H162	H	1.992718	-0.600537	-0.179224
C163	C	1.377259	-0.909452	-0.365274
C164	C	1.877259	-0.409452	0.134726
N165	N	1.354213	-0.879934	-0.282352
N166	N	1.854213	-0.379934	0.217648
H167	H	1.344298	-0.918009	-0.530319
H168	H	1.844298	-0.418009	-0.030319
H169	H	1.652923	-0.374949	-0.807675
H170	H	2.152923	0.125051	-0.307675
