data_functionalizedCrystal
_audit_creation_method	'MofGen! by Chris Wilmer'
_symmetry_space_group_name_H-M	'P1'
_symmetry_Int_Tables_number	1
_symmetry_cell_setting	triclinic
loop_
_symmetry_equiv_pos_as_xyz
  x,y,z
_cell_length_a	19.077105
_cell_length_b	21.295417
_cell_length_c	19.076919
_cell_angle_alpha	92.266620
_cell_angle_beta	90.076224
_cell_angle_gamma	87.726672
loop_
_atom_site_label
_atom_site_type_symbol
_atom_site_fract_x
_atom_site_fract_y
_atom_site_fract_z
Zn1	Zn	1.058236	-0.304534	-0.440387
Zn2	Zn	1.558236	0.195466	0.059613
Zn3	Zn	1.062864	-0.405747	-0.322870
Zn4	Zn	1.562864	0.094253	0.177130
Zn5	Zn	0.945454	-0.296102	-0.318181
Zn6	Zn	1.445454	0.203898	0.181819
Zn7	Zn	0.940686	-0.405368	-0.435623
Zn8	Zn	1.440686	0.094632	0.064377
O9	O	1.001810	-0.352938	-0.379265
O10	O	1.501810	0.147062	0.120735
O11	O	1.157181	-0.321649	-0.428754
O12	O	1.657181	0.178351	0.071246
O13	O	1.051222	-0.387832	-0.223917
O14	O	1.551222	0.112168	0.276083
O15	O	0.960474	-0.209134	-0.334424
O16	O	1.460474	0.290866	0.165576
O17	O	1.160581	-0.396009	-0.342415
O18	O	1.660581	0.103991	0.157585
O19	O	1.043334	-0.215330	-0.424208
O20	O	1.543334	0.284670	0.075792
O21	O	0.964962	-0.307276	-0.220472
O22	O	1.464962	0.192724	0.279528
O23	O	0.846490	-0.306908	-0.329804
O24	O	1.346490	0.193092	0.170196
O25	O	0.952346	-0.395362	-0.534586
O26	O	1.452346	0.104638	-0.034586
O27	O	0.842987	-0.387185	-0.416088
O28	O	1.342987	0.112815	0.083912
O29	O	1.038710	-0.321280	-0.538086
O30	O	1.538710	0.178720	-0.038086
O31	O	1.046598	-0.493783	-0.337795
O32	O	1.546598	0.006217	0.162205
O33	O	0.956834	-0.493504	-0.420634
O34	O	1.456834	0.006496	0.079366
C35	C	0.819242	-0.346091	-0.371921
C36	C	1.319242	0.153909	0.128079
C37	C	0.741139	-0.343178	-0.368795
C38	C	1.241139	0.156822	0.131205
C39	C	0.702642	-0.383663	-0.412179
C40	C	1.202642	0.116337	0.087821
C41	C	0.629255	-0.380918	-0.409246
C42	C	1.129255	0.119082	0.090754
C43	C	0.594366	-0.337689	-0.362924
C44	C	1.094366	0.162311	0.137076
C45	C	0.632868	-0.297199	-0.319538
C46	C	1.132868	0.202801	0.180462
C47	C	0.706253	-0.299942	-0.322476
C48	C	1.206253	0.200058	0.177524
C49	C	0.375080	-0.324994	-0.349333
C50	C	0.875080	0.175006	0.150667
C51	C	0.301690	-0.322256	-0.346397
C52	C	0.801690	0.177744	0.153603
C53	C	0.298082	-0.405974	-0.436106
C54	C	0.798082	0.094026	0.063894
C55	C	0.371470	-0.408715	-0.439037
C56	C	0.871470	0.091285	0.060963
C57	C	0.409965	-0.368223	-0.395653
C58	C	0.909965	0.131777	0.104347
N59	N	0.519353	-0.334883	-0.359923
N60	N	1.019353	0.165117	0.140077
N61	N	0.484976	-0.371027	-0.398658
N62	N	0.984976	0.128973	0.101342
C63	C	1.001719	-0.516485	-0.379223
C64	C	1.501719	-0.016485	0.120777
C65	C	1.001744	-0.586454	-0.379231
C66	C	1.501744	-0.086454	0.120769
C67	C	1.048522	-0.619448	-0.336144
C68	C	1.548522	-0.119448	0.163856
C69	C	1.048554	-0.685192	-0.336161
C70	C	1.548554	-0.185192	0.163839
C71	C	1.001796	-0.717939	-0.379257
C72	C	1.501796	-0.217939	0.120743
C73	C	0.955015	-0.684937	-0.422352
C74	C	1.455015	-0.184937	0.077648
C75	C	0.954989	-0.619195	-0.422339
C76	C	1.454989	-0.119195	0.077661
N77	N	0.940111	-0.819089	-0.382141
N78	N	1.440111	-0.319089	0.117859
N79	N	0.940138	-0.881541	-0.382149
N80	N	1.440138	-0.381541	0.117851
C81	C	1.001873	-0.916018	-0.379300
C82	C	1.501873	-0.416018	0.120700
N83	N	1.063583	-0.885683	-0.376429
N84	N	1.563583	-0.385683	0.123571
N85	N	1.063555	-0.823224	-0.376417
N86	N	1.563555	-0.323224	0.123583
C87	C	1.001820	-0.789226	-0.379276
C88	C	1.501820	-0.289226	0.120724
C89	C	1.048690	-1.020300	-0.336230
C90	C	1.548690	-0.520300	0.163770
C91	C	1.048724	-1.086046	-0.336252
C92	C	1.548724	-0.586046	0.163748
C93	C	0.955178	-1.085789	-0.422439
C94	C	1.455178	-0.585789	0.077561
C95	C	0.955151	-1.020045	-0.422421
C96	C	1.455151	-0.520045	0.077579
C97	C	1.001906	-0.987304	-0.379313
C98	C	1.501906	-0.487304	0.120687
C99	C	1.185090	-0.359812	-0.386639
C100	C	1.685090	0.140188	0.113361
C101	C	1.263193	-0.362741	-0.389782
C102	C	1.763193	0.137259	0.110218
C103	C	0.994480	-0.359220	-0.562545
C104	C	1.494480	0.140780	-0.062545
C105	C	0.991356	-0.361897	-0.640648
C106	C	1.491356	0.138103	-0.140648
C107	C	1.001919	-0.188754	-0.379324
C108	C	1.501919	0.311246	0.120676
C109	C	1.001966	-0.118788	-0.379349
C110	C	1.501966	0.381212	0.120651
C111	C	1.034851	-0.324586	-0.679164
C112	C	1.534851	0.175414	-0.179164
C113	C	1.031907	-0.327098	-0.752550
C114	C	1.531907	0.172902	-0.252550
C115	C	0.985472	-0.366925	-0.787418
C116	C	1.485472	0.133075	-0.287418
C117	C	0.941972	-0.404238	-0.748896
C118	C	1.441972	0.095762	-0.248896
C119	C	0.944913	-0.401722	-0.675512
C120	C	1.444913	0.098278	-0.175512
C121	C	0.971853	-0.378584	-1.006698
C122	C	1.471853	0.121416	-0.506698
C123	C	0.968917	-0.381099	-1.080087
C124	C	1.468917	0.118901	-0.580087
C125	C	1.058852	-0.303958	-1.083736
C126	C	1.558852	0.196042	-0.583736
C127	C	1.061791	-0.301448	-1.010350
C128	C	1.561791	0.198552	-0.510350
C129	C	1.018289	-0.338758	-0.971835
C130	C	1.518289	0.161242	-0.471835
N131	N	0.982464	-0.369496	-0.862429
N132	N	1.482464	0.130504	-0.362429
N133	N	1.021294	-0.336183	-0.896824
N134	N	1.521294	0.163817	-0.396824
C135	C	1.009152	-0.346637	-0.196700
C136	C	1.509152	0.153363	0.303300
C137	C	1.012412	-0.343787	-0.118604
C138	C	1.512412	0.156213	0.381396
H139	H	0.399871	-0.443918	-0.476755
H140	H	0.899871	0.056082	0.023245
O141	O	0.598948	-0.255291	-0.274468
O142	O	1.098948	0.244709	0.225532
C143	C	0.519835	-0.240336	-0.176329
C144	C	1.019835	0.259664	0.323671
C145	C	0.558219	-0.287866	-0.227316
C146	C	1.058219	0.212134	0.272684
H147	H	0.486885	-0.266653	-0.138203
H148	H	0.986885	0.233347	0.361797
H149	H	0.559926	-0.211876	-0.145774
H150	H	1.059926	0.288124	0.354226
H151	H	0.484240	-0.207283	-0.207304
H152	H	0.984240	0.292717	0.292696
H153	H	0.593813	-0.320959	-0.196395
H154	H	1.093813	0.179041	0.303605
H155	H	0.518090	-0.316280	-0.257872
H156	H	1.018090	0.183720	0.242128
O157	O	0.267906	-0.280203	-0.301382
O158	O	0.767906	0.219797	0.198618
C159	C	0.279225	-0.197478	-0.212686
C160	C	0.779225	0.302522	0.287314
C161	C	0.317573	-0.245057	-0.263643
C162	C	0.817573	0.254943	0.236357
H163	H	0.319363	-0.169059	-0.182150
H164	H	0.819363	0.330941	0.317850
H165	H	0.243616	-0.164395	-0.243610
H166	H	0.743616	0.335605	0.256390
H167	H	0.246299	-0.223793	-0.174536
H168	H	0.746299	0.276207	0.325464
H169	H	0.350536	-0.218794	-0.301804
H170	H	0.850536	0.281206	0.198196
H171	H	0.353139	-0.278139	-0.232673
H172	H	0.853139	0.221861	0.267327
O173	O	0.743677	-0.260554	-0.280431
O174	O	1.243677	0.239446	0.219569
C175	C	0.826974	-0.178356	-0.274470
C176	C	1.326974	0.321644	0.225530
C177	C	0.784623	-0.222922	-0.322166
C178	C	1.284623	0.277078	0.177834
H179	H	0.860100	-0.147929	-0.308192
H180	H	1.360100	0.352071	0.191808
H181	H	0.789463	-0.146945	-0.240870
H182	H	1.289463	0.353055	0.259130
H183	H	0.862750	-0.207238	-0.239027
H184	H	1.362750	0.292762	0.260973
H185	H	0.748844	-0.194090	-0.357651
H186	H	1.248844	0.305910	0.142349
H187	H	0.822173	-0.254335	-0.355717
H188	H	1.322173	0.245665	0.144283
H189	H	0.597915	-0.413886	-0.444573
H190	H	1.097915	0.086114	0.055427
H191	H	0.917110	-1.112451	-0.457532
H192	H	1.417110	-0.612451	0.042468
H193	H	0.731044	-0.418867	-0.449897
H194	H	1.231044	0.081133	0.050103
H195	H	0.909487	-0.432098	-0.644152
H196	H	1.409487	0.067902	-0.144152
O197	O	0.896963	-0.442997	-0.782801
O198	O	1.396963	0.057003	-0.282801
C199	C	0.884130	-0.530445	-0.865272
C200	C	1.384130	-0.030445	-0.365272
C201	C	0.935181	-0.486601	-0.826912
C202	C	1.435181	0.013399	-0.326912
H203	H	0.915007	-0.565701	-0.900956
H204	H	1.415007	-0.065701	-0.400956
H205	H	0.853557	-0.556727	-0.825169
H206	H	1.353557	-0.056727	-0.325169
H207	H	0.846019	-0.501329	-0.898128
H208	H	1.346019	-0.001329	-0.398128
H209	H	0.973334	-0.515670	-0.794056
H210	H	1.473334	-0.015670	-0.294056
H211	H	0.965703	-0.460316	-0.867051
H212	H	1.465703	0.039684	-0.367051
H213	H	1.086764	-0.993641	-0.301131
H214	H	1.586764	-0.493641	0.198869
H215	H	1.086820	-1.112908	-0.301168
H216	H	1.586820	-0.612908	0.198832
H217	H	0.917057	-0.993179	-0.457503
H218	H	1.417057	-0.493179	0.042497
O219	O	1.101032	-0.267734	-1.121256
O220	O	1.601032	0.232266	-0.621256
C221	C	1.136389	-0.237444	-1.235926
C222	C	1.636389	0.262556	-0.735926
C223	C	1.088570	-0.278494	-1.193522
C224	C	1.588570	0.221506	-0.693522
H225	H	1.126341	-0.246138	-1.294361
H226	H	1.626341	0.253862	-0.794361
H227	H	1.124656	-0.185718	-1.221070
H228	H	1.624656	0.314282	-0.721070
H229	H	1.193614	-0.250118	-1.223734
H230	H	1.693614	0.249882	-0.723734
H231	H	1.031329	-0.265875	-1.205691
H232	H	1.531329	0.234125	-0.705691
H233	H	1.100364	-0.330209	-1.208384
H234	H	1.600364	0.169791	-0.708384
O235	O	0.909689	-0.716819	-0.464253
O236	O	1.409689	-0.216819	0.035747
C237	C	0.896397	-0.793882	-0.558773
C238	C	1.396397	-0.293882	-0.058773
C239	C	0.947803	-0.757831	-0.511352
C240	C	1.447803	-0.257831	-0.011352
H241	H	0.927192	-0.827039	-0.596874
H242	H	1.427192	-0.327039	-0.096874
H243	H	0.860993	-0.822265	-0.525050
H244	H	1.360993	-0.322265	-0.025050
H245	H	0.862943	-0.758990	-0.589534
H246	H	1.362943	-0.258990	-0.089534
H247	H	0.981304	-0.792678	-0.480582
H248	H	1.481304	-0.292678	0.019418
H249	H	0.983160	-0.729438	-0.545113
H250	H	1.483160	-0.229438	-0.045113
H251	H	0.406414	-0.292027	-0.314002
H252	H	0.906414	0.207973	0.185998
O253	O	1.079978	-0.285842	-0.645406
O254	O	1.579978	0.214158	-0.145406
C255	C	1.168895	-0.209619	-0.656780
C256	C	1.668895	0.290381	-0.156780
C257	C	1.117811	-0.253460	-0.695096
C258	C	1.617811	0.246540	-0.195096
H259	H	1.199508	-0.183437	-0.696938
H260	H	1.699508	0.316563	-0.196938
H261	H	1.138066	-0.174277	-0.621156
H262	H	1.638066	0.325723	-0.121156
H263	H	1.206967	-0.238727	-0.623873
H264	H	1.706967	0.261273	-0.123873
H265	H	1.079729	-0.224405	-0.728041
H266	H	1.579729	0.275595	-0.228041
H267	H	1.148686	-0.288805	-0.730678
H268	H	1.648686	0.211195	-0.230678
H269	H	1.067327	-0.296717	-0.783907
H270	H	1.567327	0.203283	-0.283907
H271	H	0.266732	-0.438939	-0.471428
H272	H	0.766732	0.061061	0.028572
H273	H	1.086595	-0.592792	-0.301045
H274	H	1.586595	-0.092792	0.198955
H275	H	1.099606	-0.269018	-0.981966
H276	H	1.599606	0.230982	-0.481966
H277	H	1.086649	-0.712061	-0.301075
H278	H	1.586649	-0.212061	0.198925
O279	O	0.923743	-0.419802	-1.113848
O280	O	1.423743	0.080198	-0.613848
C281	C	0.834878	-0.496076	-1.102490
C282	C	1.334878	0.003924	-0.602490
C283	C	0.885986	-0.452263	-1.064167
C284	C	1.385986	0.047737	-0.564167
H285	H	0.804348	-0.522342	-1.062341
H286	H	1.304348	-0.022342	-0.562341
H287	H	0.796737	-0.467002	-1.135360
H288	H	1.296737	0.032998	-0.635360
H289	H	0.865753	-0.531353	-1.138151
H290	H	1.365753	-0.031353	-0.638151
H291	H	0.855169	-0.416978	-1.028470
H292	H	1.355169	0.083022	-0.528470
H293	H	0.924127	-0.481377	-1.031342
H294	H	1.424127	0.018623	-0.531342
O295	O	0.929696	-0.414862	-0.969224
O296	O	1.429696	0.085138	-0.469224
C297	C	0.923482	-0.496688	-0.886005
C298	C	1.423482	0.003312	-0.386005
C299	C	0.971311	-0.455631	-0.928390
C300	C	1.471311	0.044369	-0.428390
H301	H	0.957109	-0.529670	-0.852991
H302	H	1.457109	-0.029670	-0.352991
H303	H	0.888142	-0.465269	-0.850135
H304	H	1.388142	0.034731	-0.350135
H305	H	0.889780	-0.525553	-0.923555
H306	H	1.389780	-0.025553	-0.423555
H307	H	1.005057	-0.426761	-0.890892
H308	H	1.505057	0.073239	-0.390892
H309	H	1.006604	-0.487086	-0.964268
H310	H	1.506604	0.012914	-0.464268
O311	O	0.909477	-0.587237	-0.464213
O312	O	1.409477	-0.087237	0.035787
C313	C	0.816729	-0.593922	-0.549733
C314	C	1.316729	-0.093922	-0.049733
C315	C	0.868223	-0.630193	-0.502335
C316	C	1.368223	-0.130193	-0.002335
H317	H	0.783372	-0.628638	-0.580578
H318	H	1.283372	-0.128638	-0.080578
H319	H	0.781242	-0.560724	-0.515991
H320	H	1.281242	-0.060724	-0.015991
H321	H	0.847491	-0.565549	-0.587759
H322	H	1.347491	-0.065549	-0.087759
H323	H	0.837518	-0.658603	-0.464301
H324	H	1.337518	-0.158603	0.035699
H325	H	0.903710	-0.663354	-0.536122
H326	H	1.403710	-0.163354	-0.036122
