data_functionalizedCrystal
_audit_creation_method	'MofGen! by Chris Wilmer'
_symmetry_space_group_name_H-M	'P1'
_symmetry_Int_Tables_number	1
_symmetry_cell_setting	triclinic
loop_
_symmetry_equiv_pos_as_xyz
  x,y,z
_cell_length_a	14.044220
_cell_length_b	19.288865
_cell_length_c	13.101039
_cell_angle_alpha	86.654591
_cell_angle_beta	86.340132
_cell_angle_gamma	91.837437
loop_
_atom_site_label
_atom_site_type_symbol
_atom_site_fract_x
_atom_site_fract_y
_atom_site_fract_z
O1	O	1.262216	-0.163906	-0.085128
O2	O	0.986274	-0.157863	-0.085153
O3	O	1.132217	-0.060267	-0.085119
O4	O	1.116273	-0.261502	-0.085161
O5	O	1.121746	-0.067282	0.085308
O6	O	0.975803	-0.164878	0.085275
O7	O	1.251745	-0.170921	0.085300
Zn8	Zn	1.112111	-0.169013	0.112346
Zn9	Zn	1.125908	-0.159771	-0.112199
O10	O	1.105802	-0.268517	0.085266
C11	C	0.945735	-0.158726	0.000058
C12	C	0.840544	-0.150838	0.000050
N13	N	1.102702	-0.175321	0.265593
C14	C	1.126468	-0.037866	0.000098
C15	C	1.124927	0.039337	0.000107
C16	C	0.647943	-0.136419	0.000073
C17	C	0.590071	-0.192362	0.000065
C18	C	0.482901	-0.184339	0.000078
C19	C	0.755123	-0.144441	0.000060
C20	C	1.292283	-0.170057	0.000087
C21	C	1.397475	-0.177945	0.000089
C22	C	1.111551	-0.290918	0.000047
C23	C	1.113092	-0.368120	0.000032
C24	C	1.210561	0.078530	0.000119
C25	C	1.209114	0.151071	0.000103
C26	C	1.122029	0.184414	0.000094
C27	C	1.036385	0.145212	0.000076
C28	C	1.037834	0.072673	0.000082
C29	C	1.049902	0.294643	0.059785
C30	C	1.048456	0.367181	0.059786
C31	C	1.117556	0.408148	0.000071
C32	C	1.188118	0.376570	-0.059630
C33	C	1.189567	0.304031	-0.059624
C34	C	1.120448	0.263070	0.000087
C35	C	1.201627	0.525999	0.000065
C36	C	1.200178	0.598541	0.000042
C37	C	1.027445	0.592680	0.000025
C38	C	1.028898	0.520140	0.000038
C39	C	1.115991	0.486804	0.000062
N40	N	1.135324	-0.153458	-0.265445
C41	C	1.089901	-0.183910	0.474632
C42	C	1.148122	-0.144871	0.525521
C43	C	1.140999	-0.149650	0.641838
C44	C	1.097023	-0.179132	0.358305
H45	H	0.621013	-0.246282	0.000049
H46	H	0.617003	-0.082503	0.000090
H47	H	1.272544	0.498856	0.000080
H48	H	1.203316	-0.107861	0.481732
N49	N	1.299530	0.044490	0.000142
N50	N	1.375983	0.079499	0.000150
H51	H	1.438819	0.055458	0.000164
H52	H	1.278850	0.182989	0.000109
N53	N	1.261644	0.271785	-0.120608
N54	N	1.323341	0.308363	-0.173920
H55	H	1.374246	0.285590	-0.216993
N56	N	1.020679	-0.230350	0.529554
N57	N	1.022575	-0.294130	0.517661
H58	H	0.973689	-0.326930	0.556458
H59	H	1.269914	0.630452	0.000047
N60	N	1.258711	0.418417	-0.120614
N61	N	1.257411	0.483183	-0.120612
H62	H	1.307269	0.512741	-0.163675
H63	H	0.956539	0.619828	0.000013
N64	N	0.941415	0.480111	0.000028
N65	N	0.863665	0.509887	0.000016
H66	H	0.801876	0.481617	0.000007
H67	H	0.990997	0.392886	0.108392
H68	H	0.993629	0.261293	0.108417
H69	H	0.965479	0.172365	0.000067
N70	N	0.950349	0.032644	0.000063
N71	N	0.872599	0.062420	0.000045
H72	H	0.810810	0.034149	0.000033
