data_functionalizedCrystal
_audit_creation_method	'MofGen! by Chris Wilmer'
_symmetry_space_group_name_H-M	'P1'
_symmetry_Int_Tables_number	1
_symmetry_cell_setting	triclinic
loop_
_symmetry_equiv_pos_as_xyz
  x,y,z
_cell_length_a	16.625548
_cell_length_b	21.295417
_cell_length_c	16.625539
_cell_angle_alpha	89.966627
_cell_angle_beta	89.979432
_cell_angle_gamma	90.031575
loop_
_atom_site_label
_atom_site_type_symbol
_atom_site_fract_x
_atom_site_fract_y
_atom_site_fract_z
Zn1	Zn	1.232635	-0.250590	-0.455881
Zn2	Zn	1.732635	0.249410	0.044119
Zn3	Zn	1.232520	-0.355864	-0.321036
Zn4	Zn	1.732520	0.144136	0.178964
Zn5	Zn	1.097797	-0.250614	-0.321061
Zn6	Zn	1.597797	0.249386	0.178939
Zn7	Zn	1.097749	-0.355827	-0.455826
Zn8	Zn	1.597749	0.144173	0.044174
O9	O	1.165175	-0.303224	-0.388451
O10	O	1.665175	0.196776	0.111549
O11	O	1.345452	-0.264560	-0.438006
O12	O	1.845452	0.235440	0.061994
O13	O	1.214620	-0.341927	-0.208207
O14	O	1.714620	0.158073	0.291793
O15	O	1.115753	-0.162522	-0.338979
O16	O	1.615753	0.337478	0.161021
O17	O	1.345367	-0.341904	-0.338936
O18	O	1.845367	0.158096	0.161064
O19	O	1.214818	-0.162504	-0.438030
O20	O	1.714818	0.337496	0.061970
O21	O	1.115640	-0.264601	-0.208226
O22	O	1.615640	0.235399	0.291774
O23	O	0.984958	-0.264566	-0.338926
O24	O	1.484958	0.235434	0.161074
O25	O	1.115670	-0.341842	-0.568666
O26	O	1.615670	0.158158	-0.068666
O27	O	0.984923	-0.341866	-0.437937
O28	O	1.484923	0.158134	0.062063
O29	O	1.214771	-0.264525	-0.568706
O30	O	1.714771	0.235475	-0.068706
O31	O	1.214573	-0.443948	-0.338883
O32	O	1.714573	0.056052	0.161117
O33	O	1.115558	-0.443922	-0.437912
O34	O	1.615558	0.056078	0.062088
C35	C	0.955684	-0.303215	-0.388429
C36	C	1.455684	0.196785	0.111571
C37	C	0.866063	-0.303226	-0.388438
C38	C	1.366063	0.196774	0.111562
C39	C	0.537888	-0.303230	-0.388473
C40	C	1.037888	0.196770	0.111527
C41	C	0.629196	-0.303227	-0.388460
C42	C	1.129196	0.196773	0.111540
C43	C	0.701973	-0.303229	-0.388455
C44	C	1.201973	0.196771	0.111545
C45	C	0.793287	-0.303225	-0.388444
C46	C	1.293287	0.196775	0.111556
C47	C	1.165070	-0.466775	-0.388407
C48	C	1.665070	0.033225	0.111593
C49	C	1.165098	-0.536744	-0.388414
C50	C	1.665098	-0.036744	0.111586
C51	C	1.216701	-0.569603	-0.336903
C52	C	1.716701	-0.069603	0.163097
C53	C	1.216739	-0.635346	-0.336921
C54	C	1.716739	-0.135346	0.163079
C55	C	1.165159	-0.668226	-0.388442
C56	C	1.665159	-0.168226	0.111558
C57	C	1.113552	-0.635359	-0.439964
C58	C	1.613552	-0.135359	0.060036
C59	C	1.113522	-0.569617	-0.439950
C60	C	1.613522	-0.069617	0.060050
N61	N	1.094624	-0.771493	-0.394581
N62	N	1.594624	-0.271493	0.105419
N63	N	1.094656	-0.833944	-0.394590
N64	N	1.594656	-0.333944	0.105410
C65	C	1.165250	-0.866301	-0.388488
C66	C	1.665250	-0.366301	0.111512
N67	N	1.235813	-0.833847	-0.382362
N68	N	1.735813	-0.333847	0.117638
N69	N	1.235780	-0.771389	-0.382350
N70	N	1.735780	-0.271389	0.117650
C71	C	1.165187	-0.739511	-0.388463
C72	C	1.665187	-0.239511	0.111537
C73	C	1.216898	-0.970446	-0.336994
C74	C	1.716898	-0.470446	0.163006
C75	C	1.216937	-1.036189	-0.337017
C76	C	1.716937	-0.536189	0.162983
C77	C	1.113743	-1.036201	-0.440056
C78	C	1.613743	-0.536201	0.059944
C79	C	1.113711	-0.970459	-0.440037
C80	C	1.613711	-0.470459	0.059963
C81	C	1.165288	-0.937585	-0.388501
C82	C	1.665288	-0.437585	0.111499
C83	C	1.375484	-0.303233	-0.388474
C84	C	1.875484	0.196767	0.111526
C85	C	1.465105	-0.303237	-0.388484
C86	C	1.965105	0.196763	0.111516
C87	C	1.165228	-0.303177	-0.598760
C88	C	1.665228	0.196823	-0.098760
C89	C	1.165250	-0.303157	-0.688381
C90	C	1.665250	0.196843	-0.188381
C91	C	1.165303	-0.139033	-0.388514
C92	C	1.665303	0.360967	0.111486
C93	C	1.165358	-0.069065	-0.388540
C94	C	1.665358	0.430935	0.111460
C95	C	1.165287	-0.303086	-1.016557
C96	C	1.665287	0.196914	-0.516557
C97	C	1.165275	-0.303108	-0.925249
C98	C	1.665275	0.196892	-0.425249
C99	C	1.165269	-0.303122	-0.852472
C100	C	1.665269	0.196878	-0.352472
C101	C	1.165256	-0.303143	-0.761158
C102	C	1.665256	0.196857	-0.261158
C103	C	1.165169	-0.303225	-0.178960
C104	C	1.665169	0.196775	0.321040
C105	C	1.165303	-0.303068	-0.089340
C106	C	1.665303	0.196932	0.410660
H107	H	1.258700	-0.542839	-0.294941
H108	H	1.758700	-0.042839	0.205059
C109	C	1.272795	-0.670918	-0.280898
C110	C	1.772795	-0.170918	0.219102
C111	C	1.317943	-0.628058	-0.235750
C112	C	1.817943	-0.128058	0.264250
C113	C	1.369580	-0.660802	-0.184126
C114	C	1.869580	-0.160802	0.315874
H115	H	1.307994	-0.696526	-0.311686
H116	H	1.807994	-0.196526	0.188314
H117	H	1.241993	-0.696591	-0.245705
H118	H	1.741993	-0.196591	0.254295
H119	H	1.348743	-0.602396	-0.270940
H120	H	1.848743	-0.102396	0.229060
H121	H	1.282765	-0.602449	-0.204947
H122	H	1.782765	-0.102449	0.295053
H123	H	1.338778	-0.686475	-0.148933
H124	H	1.838778	-0.186475	0.351067
H125	H	1.404774	-0.686408	-0.214920
H126	H	1.904774	-0.186408	0.285080
H127	H	1.400213	-0.631727	-0.153482
H128	H	1.900213	-0.131727	0.346518
C129	C	1.057535	-0.534017	-0.496008
C130	C	1.557535	-0.034017	0.003992
C131	C	1.075043	-0.549958	-0.575804
C132	C	1.575043	-0.049958	-0.075804
C133	C	1.023476	-0.517180	-0.627465
C134	C	1.523476	-0.017180	-0.127465
H135	H	1.064851	-0.490146	-0.488727
H136	H	1.564851	0.009854	0.011273
H137	H	1.003358	-0.544852	-0.484209
H138	H	1.503358	-0.044852	0.015791
H139	H	1.129207	-0.539119	-0.587599
H140	H	1.629207	-0.039119	-0.087599
H141	H	1.067722	-0.593823	-0.583110
H142	H	1.567722	-0.093823	-0.083110
H143	H	0.969299	-0.528015	-0.615667
H144	H	1.469299	-0.028015	-0.115667
H145	H	1.030796	-0.473311	-0.620178
H146	H	1.530796	0.026689	-0.120178
H147	H	1.035343	-0.527996	-0.681612
H148	H	1.535343	-0.027996	-0.181612
H149	H	1.258897	-0.943679	-0.295032
H150	H	1.758897	-0.443679	0.204968
H151	H	1.071750	-1.062972	-0.482010
H152	H	1.571750	-0.562972	0.017990
C153	C	1.057420	-0.670973	-0.495856
C154	C	1.557420	-0.170973	0.004144
C155	C	0.977646	-0.655035	-0.478239
C156	C	1.477646	-0.155035	0.021761
C157	C	0.925916	-0.687824	-0.529723
C158	C	1.425916	-0.187824	-0.029723
H159	H	1.064717	-0.714843	-0.488538
H160	H	1.564717	-0.214843	0.011462
H161	H	1.069139	-0.660146	-0.550053
H162	H	1.569139	-0.160146	-0.050053
H163	H	0.965930	-0.665866	-0.424055
H164	H	1.465930	-0.165866	0.075945
H165	H	0.970323	-0.611171	-0.485563
H166	H	1.470323	-0.111171	0.014437
H167	H	0.937636	-0.676997	-0.583920
H168	H	1.437636	-0.176997	-0.083920
H169	H	0.933220	-0.731692	-0.522400
H170	H	1.433220	-0.231692	-0.022400
H171	H	0.871785	-0.677010	-0.517782
H172	H	1.371785	-0.177010	-0.017782
C173	C	1.057586	-0.934892	-0.495987
C174	C	1.557586	-0.434892	0.004013
C175	C	1.012406	-0.977755	-0.541097
C176	C	1.512406	-0.477755	-0.041097
C177	C	0.960686	-0.945015	-0.592643
C178	C	1.460686	-0.445015	-0.092643
H179	H	1.088306	-0.909200	-0.531214
H180	H	1.588306	-0.409200	-0.031214
H181	H	1.022417	-0.909304	-0.465120
H182	H	1.522417	-0.409304	0.034880
H183	H	1.047570	-1.003332	-0.571962
H184	H	1.547570	-0.503332	-0.071962
H185	H	0.981670	-1.003449	-0.505892
H186	H	1.481670	-0.503449	-0.005892
H187	H	0.925517	-0.919427	-0.561775
H188	H	1.425517	-0.419427	-0.061775
H189	H	0.991412	-0.919324	-0.627864
H190	H	1.491412	-0.419324	-0.127864
H191	H	0.930020	-0.974092	-0.623251
H192	H	1.430020	-0.474092	-0.123251
H193	H	1.258964	-1.062943	-0.295072
H194	H	1.758964	-0.562943	0.204928
