data_functionalizedCrystal
_audit_creation_method	'MofGen! by Chris Wilmer'
_symmetry_space_group_name_H-M	'P1'
_symmetry_Int_Tables_number	1
_symmetry_cell_setting	triclinic
loop_
_symmetry_equiv_pos_as_xyz
  x,y,z
_cell_length_a	14.519710
_cell_length_b	12.837942
_cell_length_c	11.295483
_cell_angle_alpha	85.469583
_cell_angle_beta	85.888022
_cell_angle_gamma	90.745458
loop_
_atom_site_label
_atom_site_type_symbol
_atom_site_fract_x
_atom_site_fract_y
_atom_site_fract_z
O1	O	1.241209	-0.128940	-0.098998
O2	O	0.974116	-0.144944	-0.099006
O3	O	1.101740	0.013971	-0.098995
O4	O	1.113586	-0.287855	-0.099009
O5	O	1.090528	0.000035	0.099055
O6	O	0.962905	-0.158881	0.099044
O7	O	1.229998	-0.142876	0.099052
Cu8	Cu	1.095428	-0.152151	0.117131
Cu9	Cu	1.108686	-0.135669	-0.117086
O10	O	1.102374	-0.301792	0.099041
C11	C	1.092133	0.045631	0.000029
C12	C	1.080199	0.160731	0.000027
C13	C	1.270028	-0.136654	0.000025
C14	C	1.372603	-0.138889	0.000020
C15	C	0.934086	-0.151166	0.000018
C16	C	0.831512	-0.148931	0.000015
C17	C	1.748210	-0.147117	0.000019
C18	C	1.643704	-0.144832	0.000019
C19	C	1.560410	-0.143003	0.000019
C20	C	1.455897	-0.140718	0.000021
C21	C	1.111982	-0.333451	0.000014
C22	C	1.123916	-0.448550	0.000008
N23	N	1.086109	-0.163742	0.281867
C24	C	1.223670	0.401424	0.000006
C25	C	1.212462	0.509571	0.000004
C26	C	1.046574	0.485174	0.000011
C27	C	1.057782	0.377027	0.000014
C28	C	1.146334	0.335156	0.000013
C29	C	1.157541	0.227007	0.000024
C30	C	0.991654	0.202612	0.000023
C31	C	0.980446	0.310759	0.000020
N32	N	1.118012	-0.124070	-0.281821
C33	C	1.185089	-0.040570	0.531165
C34	C	1.178054	-0.049337	0.655828
C35	C	1.064999	-0.190038	0.655858
C36	C	1.072034	-0.181271	0.531195
C37	C	1.132082	-0.106536	0.468853
C38	C	1.139122	-0.097774	0.344188
C39	C	1.026063	-0.238469	0.344220
C40	C	1.019028	-0.247237	0.468883
H41	H	1.295771	0.367332	0.000017
H42	H	1.275438	0.563524	-0.000005
O43	O	1.243545	0.031868	0.470559
C44	C	1.309379	-0.018751	0.398430
H45	H	1.315965	-0.103167	0.435998
H46	H	1.379070	0.023439	0.397020
H47	H	1.286337	-0.017455	0.303948
O48	O	0.894426	0.351403	-0.000189
C49	C	0.852496	0.324743	-0.102740
H50	H	0.908161	0.307188	-0.174434
H51	H	0.809450	0.392752	-0.137170
H52	H	0.805972	0.252733	-0.079541
O53	O	0.960567	-0.319721	0.529397
C54	C	0.869499	-0.300521	0.498934
H55	H	0.863687	-0.215102	0.464659
H56	H	0.819628	-0.318096	0.580929
H57	H	0.851542	-0.352838	0.426582
O58	O	0.974707	-0.302593	0.283562
C59	C	1.033804	-0.361626	0.211472
H60	H	1.103404	-0.319188	0.192774
H61	H	1.001696	-0.371783	0.123819
H62	H	1.044100	-0.441641	0.259524
O63	O	1.229640	0.014794	0.716174
C64	C	1.284124	0.082653	0.634411
H65	H	1.293920	0.046391	0.545547
H66	H	1.354364	0.095765	0.670412
H67	H	1.248149	0.160676	0.621160
H68	H	1.229643	0.192918	0.000028
H69	H	0.974480	0.519285	-0.000001
O70	O	1.006720	-0.262755	0.716290
C71	C	1.032454	-0.363294	0.685860
H72	H	1.073115	-0.356901	0.595343
H73	H	0.967842	-0.413873	0.681607
H74	H	1.077214	-0.400405	0.756021
H75	H	1.188018	-0.036924	0.293430
O76	O	0.916625	0.138094	-0.000028
C77	C	0.945500	0.033658	0.000008
H78	H	1.020434	0.032005	-0.037488
H79	H	0.900041	-0.011193	-0.057487
H80	H	0.939373	-0.004288	0.095025
