data_functionalizedCrystal
_audit_creation_method	'MofGen! by Chris Wilmer'
_symmetry_space_group_name_H-M	'P1'
_symmetry_Int_Tables_number	1
_symmetry_cell_setting	triclinic
loop_
_symmetry_equiv_pos_as_xyz
  x,y,z
_cell_length_a	10.540539
_cell_length_b	10.540539
_cell_length_c	9.016244
_cell_angle_alpha	90.000067
_cell_angle_beta	90.005301
_cell_angle_gamma	84.525492
loop_
_atom_site_label
_atom_site_type_symbol
_atom_site_fract_x
_atom_site_fract_y
_atom_site_fract_z
O1	O	1.685893	0.178895	0.123263
O2	O	1.316480	0.195751	0.123280
O3	O	1.509614	0.002617	0.123269
O4	O	1.492759	0.372030	0.123274
O5	O	1.509586	0.002621	-0.123411
O6	O	1.316452	0.195755	-0.123400
O7	O	1.685865	0.178900	-0.123418
Cu8	Cu	1.501156	0.187328	-0.145933
Cu9	Cu	1.501189	0.187323	0.145795
O10	O	1.492730	0.372034	-0.123407
C11	C	1.269163	0.194489	-0.000058
C12	C	1.128215	0.190707	-0.000051
C13	C	0.944788	0.045790	-0.000628
C14	C	1.091406	0.049624	-0.000057
C15	C	1.066558	0.258600	0.140811
C16	C	0.920014	0.253785	0.140914
C17	C	0.919493	0.256660	-0.139608
C18	C	1.066475	0.257960	-0.141455
C19	C	1.508336	-0.044684	-0.000068
C20	C	1.504554	-0.185632	-0.000060
C21	C	1.359637	-0.369059	0.000500
C22	C	1.363471	-0.222441	-0.000055
C23	C	1.572434	-0.247287	-0.140930
C24	C	1.567619	-0.393832	-0.141049
C25	C	1.570520	-0.394355	0.139473
C26	C	1.571820	-0.247373	0.141336
C27	C	1.733182	0.180161	-0.000077
C28	C	1.874130	0.183943	-0.000074
C29	C	1.494008	0.419335	-0.000066
C30	C	1.497790	0.560283	-0.000064
N31	N	1.501141	0.187331	-0.351119
C32	C	1.397510	0.290298	-0.586146
C33	C	1.397739	0.290684	-0.414255
C34	C	1.633864	0.217464	-0.413464
C35	C	1.633298	0.218193	-0.585409
C36	C	1.473367	0.053892	-0.585663
C37	C	1.470322	0.054757	-0.413709
N38	N	1.501213	0.187310	0.350982
H39	H	0.914592	-0.009712	0.099828
H40	H	0.887935	0.211004	-0.246381
F41	F	1.562515	-0.050230	-0.357558
H42	H	1.415639	0.389668	-0.373108
F43	F	1.293133	-0.167854	-0.132256
H44	H	0.916191	-0.009944	-0.101649
F45	F	0.883153	0.188192	0.278540
H46	H	1.676041	-0.224933	-0.146173
H47	H	1.674681	-0.223152	0.149837
F48	F	1.145956	-0.020413	0.132361
H49	H	0.872045	0.355250	0.147309
H50	H	1.088912	0.362208	0.146054
H51	H	1.517429	-0.422030	-0.246347
H52	H	1.298584	0.272446	-0.627535
H53	H	1.672424	-0.441581	0.140416
F54	F	1.737181	0.123860	-0.639771
H55	H	1.378630	0.025213	-0.629106
H56	H	1.415177	0.388722	-0.629339
F57	F	1.122236	0.196952	0.277837
H58	H	1.372684	0.031916	-0.372962
H59	H	1.548979	-0.022762	-0.626319
F60	F	1.737198	0.122095	-0.360012
H61	H	1.107425	0.208362	-0.245664
H62	H	1.657653	0.315531	-0.625498
F63	F	1.147094	-0.020203	-0.132039
H64	H	1.658762	0.313702	-0.370386
F65	F	1.268823	0.267050	-0.359159
H66	H	1.090700	0.360819	-0.149959
F67	F	1.286883	-0.408968	-0.130434
F68	F	0.857766	0.389855	-0.140852
H69	H	1.310059	-0.179839	0.100926
F70	F	1.286803	-0.406440	0.132543
H71	H	1.525258	-0.204686	-0.245756
F72	F	1.700236	-0.456534	-0.149424
H73	H	1.524871	-0.425910	0.246244
H74	H	1.522153	-0.206517	0.245547
