data_functionalizedCrystal
_audit_creation_method	'MofGen! by Chris Wilmer'
_symmetry_space_group_name_H-M	'P1'
_symmetry_Int_Tables_number	1
_symmetry_cell_setting	triclinic
loop_
_symmetry_equiv_pos_as_xyz
  x,y,z
_cell_length_a	25.639239
_cell_length_b	19.121246
_cell_length_c	19.120904
_cell_angle_alpha	89.874251
_cell_angle_beta	87.589896
_cell_angle_gamma	87.528032
loop_
_atom_site_label
_atom_site_type_symbol
_atom_site_fract_x
_atom_site_fract_y
_atom_site_fract_z
Zn1	Zn	-0.188790	-1.054808	0.442205
Zn2	Zn	0.311210	-0.554808	0.942205
Zn3	Zn	-0.272346	-1.059701	0.324962
Zn4	Zn	0.227654	-0.559701	0.824962
Zn5	Zn	-0.188478	-0.942574	0.319972
Zn6	Zn	0.311522	-0.442574	0.819972
Zn7	Zn	-0.279751	-0.937508	0.437146
Zn8	Zn	0.220249	-0.437508	0.937146
O9	O	-0.232341	-0.998648	0.381071
O10	O	0.267659	-0.498648	0.881071
O11	O	-0.196905	-1.153565	0.430858
O12	O	0.303095	-0.653565	0.930858
O13	O	-0.257991	-1.048332	0.226196
O14	O	0.242009	-0.548332	0.726196
O15	O	-0.115353	-0.957535	0.336215
O16	O	0.384647	-0.457535	0.836215
O17	O	-0.258293	-1.157160	0.344720
O18	O	0.241707	-0.657160	0.844720
O19	O	-0.115582	-1.039992	0.426019
O20	O	0.384418	-0.539992	0.926019
O21	O	-0.196374	-0.962280	0.222530
O22	O	0.303626	-0.462280	0.722530
O23	O	-0.203555	-0.843794	0.331309
O24	O	0.296445	-0.343794	0.831309
O25	O	-0.270915	-0.948899	0.535921
O26	O	0.229085	-0.448899	1.035921
O27	O	-0.270613	-0.840071	0.417397
O28	O	0.229387	-0.340071	0.917397
O29	O	-0.204086	-1.035079	0.539638
O30	O	0.295914	-0.535079	1.039638
O31	O	-0.346495	-1.043419	0.339815
O32	O	0.153505	-0.543419	0.839815
O33	O	-0.351936	-0.953644	0.422236
O34	O	0.148064	-0.453644	0.922236
C35	C	-0.237854	-0.816494	0.373263
C36	C	0.262146	-0.316494	0.873263
C37	C	-0.240225	-0.738567	0.369939
C38	C	0.259775	-0.238567	0.869939
C39	C	-0.209433	-0.700083	0.413293
C40	C	0.290567	-0.200083	0.913293
C41	C	-0.211659	-0.626863	0.410164
C42	C	0.288341	-0.126863	0.910164
C43	C	-0.244679	-0.592128	0.363684
C44	C	0.255321	-0.092128	0.863684
C45	C	-0.275473	-0.630618	0.320325
C46	C	0.224527	-0.130618	0.820325
C47	C	-0.273244	-0.703837	0.323451
C48	C	0.226756	-0.203837	0.823451
C49	C	-0.253002	-0.371148	0.351996
C50	C	0.246998	0.128852	0.851996
C51	C	-0.255229	-0.297924	0.348874
C52	C	0.244771	0.202076	0.848874
C53	C	-0.191414	-0.294174	0.438713
C54	C	0.308586	0.205826	0.938713
C55	C	-0.189191	-0.367394	0.441838
C56	C	0.310809	0.132606	0.941838
C57	C	-0.219982	-0.405878	0.398476
C58	C	0.280018	0.094122	0.898476
C59	C	-0.246956	-0.517285	0.360486
C60	C	0.253044	-0.017285	0.860486
C61	C	-0.217702	-0.480719	0.401671
C62	C	0.282298	0.019281	0.901671
C63	C	-0.368186	-0.998531	0.381034
C64	C	0.131814	-0.498531	0.881034
C65	C	-0.426300	-0.998544	0.381044
C66	C	0.073700	-0.498544	0.881044
C67	C	-0.783814	-1.045507	0.338236
C68	C	-0.283814	-0.545507	0.838236
C69	C	-0.838418	-1.045534	0.338247
C70	C	-0.338418	-0.545534	0.838247
O71	O	-0.864235	-1.085343	0.301809
O72	O	-0.364235	-0.585343	0.801809
N73	N	-0.868578	-0.998769	0.381123
N74	N	-0.368578	-0.498769	0.881123
C75	C	-0.844132	-0.951979	0.423997
C76	C	-0.344132	-0.451979	0.923997
O77	O	-0.874799	-0.912204	0.460468
O78	O	-0.374799	-0.412204	0.960468
C79	C	-0.789529	-0.951956	0.423989
C80	C	-0.289529	-0.451956	0.923989
C81	C	-0.759371	-0.998719	0.381105
C82	C	-0.259371	-0.498719	0.881105
C83	C	-0.753657	-1.092267	0.295356
C84	C	-0.253657	-0.592267	0.795356
C85	C	-0.699057	-1.092239	0.295344
C86	C	-0.199057	-0.592239	0.795344
C87	C	-0.674614	-1.045452	0.338213
C88	C	-0.174614	-0.545452	0.838213
C89	C	-0.704771	-0.998692	0.381094
C90	C	-0.204771	-0.498692	0.881094
C91	C	-0.765084	-0.905170	0.466866
C92	C	-0.265084	-0.405170	0.966866
C93	C	-0.710477	-0.905151	0.466856
C94	C	-0.210477	-0.405151	0.966856
C95	C	-0.680319	-0.951915	0.423971
C96	C	-0.180319	-0.451915	0.923971
C97	C	-0.625729	-0.951876	0.423951
C98	C	-0.125729	-0.451876	0.923951
N99	N	-0.595569	-0.998641	0.381075
N100	N	-0.095569	-0.498641	0.881075
C101	C	-0.620011	-1.045429	0.338206
C102	C	-0.120011	-0.545429	0.838206
C103	C	-0.958801	-0.952031	0.424010
C104	C	-0.458801	-0.452031	0.924010
C105	C	-1.013403	-0.952050	0.424014
C106	C	-0.513403	-0.452050	0.924014
C107	C	-1.007685	-1.045606	0.338265
C108	C	-0.507685	-0.545606	0.838265
C109	C	-0.953083	-1.045584	0.338257
C110	C	-0.453083	-0.545584	0.838257
C111	C	-0.928641	-0.998796	0.381133
C112	C	-0.428641	-0.498796	0.881133
C113	C	-0.505348	-1.045366	0.338185
C114	C	-0.005348	-0.545366	0.838185
C115	C	-0.450743	-1.045332	0.338175
C116	C	0.049257	-0.545332	0.838175
C117	C	-0.456465	-0.951779	0.423927
C118	C	0.043535	-0.451779	0.923927
C119	C	-0.511065	-0.951810	0.423934
C120	C	-0.011065	-0.451810	0.923934
C121	C	-0.535505	-0.998610	0.381061
C122	C	-0.035505	-0.498610	0.881061
O123	O	-0.599876	-0.912089	0.460372
O124	O	-0.099876	-0.412089	0.960372
O125	O	-0.589338	-1.085203	0.301748
O126	O	-0.089338	-0.585203	0.801748
C127	C	-0.095966	-0.998783	0.381125
C128	C	0.404034	-0.498783	0.881125
C129	C	-0.037850	-0.998841	0.381147
C130	C	0.462150	-0.498841	0.881147
C131	C	-0.238361	-0.990878	0.563928
C132	C	0.261639	-0.490878	1.063928
C133	C	-0.240927	-0.987567	0.641850
C134	C	0.259073	-0.487567	1.141850
C135	C	-0.226805	-0.181513	0.388904
C136	C	0.273195	0.318487	0.888904
C137	C	-0.224437	-0.259439	0.392229
C138	C	0.275563	0.240561	0.892229
C139	C	-0.226306	-1.006427	0.198928
C140	C	0.273694	-0.506427	0.698928
C141	C	-0.223589	-1.009874	0.121011
C142	C	0.276411	-0.509874	0.621011
C143	C	-0.207339	-1.030879	0.680395
C144	C	0.292661	-0.530879	1.180395
C145	C	-0.209748	-1.027759	0.753611
C146	C	0.290252	-0.527759	1.253611
C147	C	-0.245747	-0.981332	0.788282
C148	C	0.254253	-0.481332	1.288282
C149	C	-0.279336	-0.938015	0.749732
C150	C	0.220664	-0.438015	1.249732
C151	C	-0.276924	-0.941132	0.676517
C152	C	0.223076	-0.441132	1.176517
C153	C	-0.254766	-0.969674	1.009246
C154	C	0.245234	-0.469674	1.509246
C155	C	-0.257177	-0.966562	1.082467
C156	C	0.242823	-0.466562	1.582467
C157	C	-0.187588	-1.056306	1.086341
C158	C	0.312412	-0.556306	1.586341
C159	C	-0.185181	-1.059421	1.013124
C160	C	0.314819	-0.559421	1.513124
C161	C	-0.218768	-1.016103	0.974581
C162	C	0.281232	-0.516103	1.474581
C163	C	-0.248211	-0.978143	0.863120
C164	C	0.251789	-0.478143	1.363120
C165	C	-0.216301	-1.019288	0.899743
C166	C	0.283699	-0.519288	1.399743
H167	H	-0.273842	-0.488996	0.322642
H168	H	0.226158	0.011004	0.822642
H169	H	-0.186989	-1.057086	0.871511
H170	H	0.313011	-0.557086	1.371511
H171	H	-0.178026	-1.068688	0.652171
H172	H	0.321974	-0.568688	1.152171
H173	H	-0.928531	-1.083663	0.303338
H174	H	-0.428531	-0.583663	0.803338
H175	H	-0.426190	-1.083413	0.303251
H176	H	0.073810	-0.583413	0.803251
C177	C	-0.140728	-1.116789	0.750086
C178	C	0.359272	-0.616789	1.250086
C179	C	-0.172830	-1.075374	0.795979
C180	C	0.327170	-0.575374	1.295979
H181	H	-0.117939	-1.146188	0.776244
H182	H	0.382061	-0.646188	1.276244
H183	H	-0.120711	-1.087481	0.720228
H184	H	0.379289	-0.587481	1.220228
H185	H	-0.161766	-1.144794	0.722671
H186	H	0.338234	-0.644794	1.222671
H187	H	-0.151793	-1.047365	0.823391
H188	H	0.348207	-0.547365	1.323391
H189	H	-0.192850	-1.104685	0.825850
H190	H	0.307150	-0.604685	1.325850
C191	C	-0.146577	-0.689015	0.501777
C192	C	0.353423	-0.189015	1.001777
C193	C	-0.173136	-0.738260	0.464387
C194	C	0.326864	-0.238260	0.964387
H195	H	-0.124166	-0.712584	0.533316
H196	H	0.375834	-0.212584	1.033316
H197	H	-0.171139	-0.659310	0.527316
H198	H	0.328861	-0.159310	1.027316
H199	H	-0.126408	-0.661761	0.470053
H200	H	0.373592	-0.161761	0.970053
H201	H	-0.193308	-0.765511	0.496110
H202	H	0.306692	-0.265511	0.996110
H203	H	-0.148571	-0.767977	0.438847
H204	H	0.351429	-0.267977	0.938847
C205	C	-0.210120	-0.540538	0.500970
C206	C	0.289880	-0.040538	1.000970
C207	C	-0.177814	-0.584562	0.457826
C208	C	0.322186	-0.084562	0.957826
H209	H	-0.189223	-0.514422	0.530392
H210	H	0.310777	-0.014422	1.030392
H211	H	-0.232941	-0.567953	0.528943
H212	H	0.267059	-0.067953	1.028943
H213	H	-0.230099	-0.509374	0.472831
H214	H	0.269901	-0.009374	0.972831
H215	H	-0.157838	-0.615729	0.485964
H216	H	0.342162	-0.115729	0.985964
H217	H	-0.154984	-0.557144	0.429850
H218	H	0.345016	-0.057144	0.929850
C219	C	-0.104737	-0.270248	0.472122
C220	C	0.395263	0.229752	0.972122
C221	C	-0.157566	-0.251875	0.486371
C222	C	0.342434	0.248125	0.986371
H223	H	-0.083840	-0.244137	0.501548
H224	H	0.416160	0.255863	1.001548
H225	H	-0.095850	-0.260240	0.424531
H226	H	0.404150	0.239760	0.924531
H227	H	-0.098692	-0.318827	0.480634
H228	H	0.401308	0.181173	0.980634
H229	H	-0.163612	-0.203296	0.477853
H230	H	0.336388	0.296704	0.977853
H231	H	-0.166456	-0.261877	0.533973
H232	H	0.333544	0.238123	1.033973
H233	H	-0.278075	-0.402472	0.316688
H234	H	0.221925	0.097528	0.816688
H235	H	-0.525240	-1.083476	0.303275
H236	H	-0.025240	-0.583476	0.803275
H237	H	-0.155868	-1.097230	0.984901
H238	H	0.344132	-0.597230	1.484901
H239	H	-0.282123	-0.934411	0.977874
H240	H	0.217877	-0.434411	1.477874
H241	H	-0.298318	-0.735170	0.288147
H242	H	0.201682	-0.235170	0.788147
H243	H	-0.789629	-0.867087	0.501784
H244	H	-0.289629	-0.367087	1.001784
H245	H	-0.535621	-0.913734	0.458856
H246	H	-0.035621	-0.413734	0.958856
C247	C	-0.313934	-0.893393	0.860244
C248	C	0.186066	-0.393393	1.360244
C249	C	-0.318907	-0.886980	0.787840
C250	C	0.181093	-0.386980	1.287840
H251	H	-0.338368	-0.861889	0.883768
H252	H	0.161632	-0.361889	1.383768
H253	H	-0.279514	-0.882656	0.871814
H254	H	0.220486	-0.382656	1.371814
H255	H	-0.320557	-0.939983	0.874254
H256	H	0.179443	-0.439983	1.374254
H257	H	-0.312280	-0.840392	0.773829
H258	H	0.187720	-0.340392	1.273829
H259	H	-0.353335	-0.897713	0.776265
H260	H	0.146665	-0.397713	1.276265
H261	H	-0.162304	-0.395670	0.479689
H262	H	0.337696	0.104330	0.979689
H263	H	-0.282121	-0.269645	0.311024
H264	H	0.217879	0.230355	0.811024
C265	C	-1.088855	-1.087265	0.300304
C266	C	-0.588855	-0.587265	0.800304
C267	C	-1.034560	-1.097098	0.291206
C268	C	-0.534560	-0.597098	0.791206
H269	H	-1.105446	-1.119071	0.271275
H270	H	-0.605446	-0.619071	0.771275
H271	H	-1.098946	-1.040637	0.287932
H272	H	-0.598946	-0.540637	0.787932
H273	H	-1.098994	-1.095431	0.347877
H274	H	-0.598994	-0.595431	0.847877
H275	H	-1.024420	-1.088927	0.243634
H276	H	-0.524420	-0.588927	0.743634
H277	H	-1.024465	-1.143737	0.303575
H278	H	-0.524465	-0.643737	0.803575
H279	H	-0.277524	-0.940345	0.891357
H280	H	0.222476	-0.440345	1.391357
C281	C	-0.307228	-0.520044	0.275648
C282	C	0.192772	-0.020044	0.775648
C283	C	-0.311771	-0.592439	0.269234
C284	C	0.188229	-0.092439	0.769234
H285	H	-0.329641	-0.496477	0.244109
H286	H	0.170359	0.003523	0.744109
H287	H	-0.272121	-0.508503	0.264960
H288	H	0.227879	-0.008503	0.764960
H289	H	-0.316850	-0.506056	0.322223
H290	H	0.183150	-0.006056	0.822223
H291	H	-0.302145	-0.606428	0.222659
H292	H	0.197855	-0.106428	0.722659
H293	H	-0.346886	-0.603985	0.279917
H294	H	0.153114	-0.103985	0.779917
C295	C	-0.698907	-1.184725	0.210600
C296	C	-0.198907	-0.684725	0.710600
C297	C	-0.665912	-1.143654	0.248215
C298	C	-0.165912	-0.643654	0.748215
H299	H	-0.678447	-1.216473	0.181509
H300	H	-0.178447	-0.716473	0.681509
H301	H	-0.720272	-1.155351	0.182452
H302	H	-0.220272	-0.655351	0.682452
H303	H	-0.720374	-1.210217	0.242332
H304	H	-0.220374	-0.710217	0.742332
H305	H	-0.644449	-1.118159	0.216483
H306	H	-0.144449	-0.618159	0.716483
H307	H	-0.644538	-1.173032	0.276365
H308	H	-0.144538	-0.673032	0.776365
H309	H	-0.773552	-1.130371	0.260447
H310	H	-0.273552	-0.630371	0.760447
H311	H	-0.160242	-1.091573	1.117731
H312	H	0.339758	-0.591573	1.617731
H313	H	-0.286493	-0.928753	1.110693
H314	H	0.213507	-0.428753	1.610693
H315	H	-1.037953	-0.913964	0.458928
H316	H	-0.537953	-0.413964	0.958928
H317	H	-0.938904	-0.913926	0.458922
H318	H	-0.438904	-0.413926	0.958922
C319	C	-0.721617	-0.812685	0.551626
C320	C	-0.221617	-0.312685	1.051626
C321	C	-0.683612	-0.853720	0.513988
C322	C	-0.183612	-0.353720	1.013988
H323	H	-0.705031	-0.780932	0.580720
H324	H	-0.205031	-0.280932	1.080720
H325	H	-0.742840	-0.842083	0.579774
H326	H	-0.242840	-0.342083	1.079774
H327	H	-0.742750	-0.787201	0.519909
H328	H	-0.242750	-0.287201	1.019909
H329	H	-0.662481	-0.879208	0.545706
H330	H	-0.162481	-0.379208	1.045706
H331	H	-0.662380	-0.824318	0.485839
H332	H	-0.162380	-0.324318	0.985839
H333	H	-0.190815	-0.509004	0.439512
H334	H	0.309185	-0.009004	0.939512
C335	C	-0.375296	-0.910216	0.461984
C336	C	0.124704	-0.410216	0.961984
C337	C	-0.429590	-0.900354	0.471051
C338	C	0.070410	-0.400354	0.971051
H339	H	-0.358705	-0.878474	0.491084
H340	H	0.141295	-0.378474	0.991084
H341	H	-0.365132	-0.901985	0.414439
H342	H	0.134868	-0.401985	0.914439
H343	H	-0.365229	-0.956877	0.474294
H344	H	0.134771	-0.456877	0.974294
H345	H	-0.439658	-0.853695	0.458736
H346	H	0.060342	-0.353695	0.958736
H347	H	-0.439758	-0.908580	0.518607
H348	H	0.060242	-0.408580	1.018607
H349	H	-0.304270	-0.905856	0.645134
H350	H	0.195730	-0.405856	1.145134
