data_functionalizedCrystal
_audit_creation_method	'MofGen! by Chris Wilmer'
_symmetry_space_group_name_H-M	'P1'
_symmetry_Int_Tables_number	1
_symmetry_cell_setting	triclinic
loop_
_symmetry_equiv_pos_as_xyz
  x,y,z
_cell_length_a	18.101389
_cell_length_b	12.645331
_cell_length_c	12.645330
_cell_angle_alpha	90.016927
_cell_angle_beta	89.986557
_cell_angle_gamma	89.987744
loop_
_atom_site_label
_atom_site_type_symbol
_atom_site_fract_x
_atom_site_fract_y
_atom_site_fract_z
Zn1	Zn	-0.418626	1.620695	-0.422172
Zn2	Zn	-0.294795	1.620587	-0.599425
Zn3	Zn	-0.294813	1.443420	-0.422173
Zn4	Zn	-0.418610	1.443391	-0.599392
O5	O	-0.356711	1.532023	-0.510791
O6	O	-0.402199	1.769028	-0.445698
O7	O	-0.191165	1.597053	-0.575926
O8	O	-0.311251	1.466993	-0.273826
O9	O	-0.311221	1.768949	-0.575925
O10	O	-0.402216	1.597236	-0.273825
O11	O	-0.191178	1.466889	-0.445701
O12	O	-0.311236	1.295069	-0.445669
O13	O	-0.522245	1.466944	-0.575869
O14	O	-0.402189	1.295048	-0.575870
O15	O	-0.522257	1.597208	-0.445666
O16	O	-0.311205	1.597025	-0.747768
O17	O	-0.402171	1.466839	-0.747743
C18	C	-0.356713	1.256594	-0.510767
C19	C	-0.356731	1.138764	-0.510782
C20	C	-0.413651	0.971222	-0.593141
C21	C	-0.413889	1.093782	-0.592875
C22	C	-0.378053	1.094284	-0.399133
C23	C	-0.378454	0.971685	-0.399636
C24	C	-0.278309	0.971525	-0.539173
C25	C	-0.278732	1.094131	-0.541615
C26	C	-0.549873	1.532085	-0.510764
C27	C	-0.632187	1.532111	-0.510752
C28	C	-0.931278	1.532172	-0.510554
C29	C	-0.899946	1.449931	-0.592213
C30	C	-0.814327	1.450154	-0.592592
C31	C	-0.782896	1.532141	-0.510652
C32	C	-0.813987	1.643839	-0.540978
C33	C	-0.899632	1.643381	-0.541514
C34	C	-0.899700	1.503686	-0.398387
C35	C	-0.814049	1.501201	-0.399035
C36	C	-0.699036	1.532130	-0.510706
C37	C	-1.015138	1.532191	-0.510502
C38	C	-0.164300	1.532023	-0.510741
C39	C	-0.081987	1.532203	-0.510454
C40	C	-0.356701	1.531946	-0.786220
C41	C	-0.356721	1.532010	-0.904050
C42	C	-0.356709	1.808528	-0.510815
C43	C	-0.356709	1.926359	-0.510826
C44	C	-0.414124	1.450448	-1.071643
C45	C	-0.413940	1.450031	-0.949084
C46	C	-0.278676	1.501771	-0.948622
C47	C	-0.279025	1.501273	-1.071220
C48	C	-0.376729	1.644309	-1.071147
C49	C	-0.378436	1.643621	-0.948540
C50	C	-0.356738	1.532130	-0.234285
C51	C	-0.356749	1.532175	-0.116455
H52	H	-0.258929	0.940605	-0.619197
H53	H	-0.792653	1.556729	-0.334964
H54	H	-0.261443	1.420655	-0.918005
H55	H	-0.435768	0.943106	-0.375589
H56	H	-0.793628	1.706761	-0.483370
H57	H	-0.471981	1.123125	-0.574117
H58	H	-0.471405	0.940425	-0.574625
H59	H	-0.793306	1.367326	-0.573614
H60	H	-0.920542	1.366854	-0.573430
H61	H	-0.919963	1.563587	-0.337547
H62	H	-0.434746	1.125004	-0.374648
H63	H	-0.337874	1.123420	-0.336137
H64	H	-0.921296	1.423651	-0.370758
H65	H	-0.338881	0.942008	-0.336108
H66	H	-0.792546	1.668401	-0.622102
H67	H	-0.401057	1.367836	-1.102539
H68	H	-0.234819	1.558217	-1.100866
H69	H	-0.234760	1.559410	-0.919452
H70	H	-0.262651	1.123215	-0.623772
H71	H	-0.793728	1.419002	-0.376166
H72	H	-0.921473	1.468553	-0.674847
H73	H	-0.234029	1.124751	-0.486008
H74	H	-0.432671	1.671894	-1.102007
H75	H	-0.235882	0.942511	-0.479215
H76	H	-0.262098	1.419303	-1.099906
H77	H	-0.919617	1.667526	-0.623509
H78	H	-0.793847	1.468962	-0.675733
H79	H	-0.920359	1.706735	-0.484619
H80	H	-0.471809	1.468949	-0.918946
H81	H	-0.472184	1.469193	-1.101072
H82	H	-0.400703	1.366900	-0.919844
H83	H	-0.435873	1.666425	-0.919407
H84	H	-0.334940	1.705198	-1.100124
H85	H	-0.400527	1.123855	-0.675669
H86	H	-0.400436	0.941731	-0.676209
H87	H	-0.339689	1.707718	-0.917880
