data_functionalizedCrystal
_audit_creation_method	'MofGen! by Chris Wilmer'
_symmetry_space_group_name_H-M	'P1'
_symmetry_Int_Tables_number	1
_symmetry_cell_setting	triclinic
loop_
_symmetry_equiv_pos_as_xyz
  x,y,z
_cell_length_a	10.654541
_cell_length_b	10.540539
_cell_length_c	9.130307
_cell_angle_alpha	89.998824
_cell_angle_beta	89.999822
_cell_angle_gamma	84.504710
loop_
_atom_site_label
_atom_site_type_symbol
_atom_site_fract_x
_atom_site_fract_y
_atom_site_fract_z
O1	O	1.667901	0.178284	-0.121747
O2	O	1.302428	0.195275	-0.121759
O3	O	1.493503	0.002070	-0.121751
O4	O	1.476827	0.371489	-0.121755
O5	O	1.493497	0.002068	0.121848
O6	O	1.302422	0.195273	0.121840
O7	O	1.667895	0.178282	0.121852
Cu8	Cu	1.485158	0.186777	0.144088
Cu9	Cu	1.485165	0.186779	-0.143996
O10	O	1.476821	0.371487	0.121844
C11	C	1.255627	0.194027	0.000039
C12	C	1.116182	0.190296	0.000034
C13	C	1.088292	0.421325	0.000013
C14	C	1.008838	0.535081	-0.000003
C15	C	0.877819	0.531569	-0.000005
C16	C	0.826252	0.414286	0.000015
C17	C	0.905707	0.300530	0.000031
C18	C	1.036727	0.304055	0.000028
C19	C	0.933596	0.069504	0.000062
C20	C	1.064615	0.073014	0.000053
C21	C	0.882029	-0.047778	0.000082
C22	C	0.961484	-0.161538	0.000088
C23	C	1.092511	-0.158020	0.000088
C24	C	1.144070	-0.040742	0.000070
C25	C	1.492249	-0.045234	0.000046
C26	C	1.488508	-0.186180	0.000038
C27	C	1.345136	-0.369555	-0.000514
C28	C	1.348929	-0.222938	0.000035
C29	C	1.555676	-0.247864	0.139147
C30	C	1.550912	-0.394407	0.139264
C31	C	1.553758	-0.394924	-0.137753
C32	C	1.555043	-0.247942	-0.139593
C33	C	1.714697	0.179530	0.000051
C34	C	1.854142	0.183260	0.000046
C35	C	1.478074	0.418790	0.000044
C36	C	1.481816	0.559737	0.000042
N37	N	1.485162	0.186775	0.346711
N38	N	1.485171	0.186772	-0.346618
C39	C	1.654428	0.015742	0.346709
C40	C	1.739070	-0.069770	0.423374
C41	C	1.739082	-0.069771	0.576707
C42	C	1.654442	0.015747	0.653379
C43	C	1.569800	0.101260	0.576714
C44	C	1.569799	0.101254	0.423377
C45	C	1.400530	0.272284	0.576716
C46	C	1.400521	0.272293	0.423383
C47	C	1.315889	0.357803	0.653388
C48	C	1.231252	0.443324	0.576723
C49	C	1.231244	0.443322	0.423380
C50	C	1.315880	0.357806	0.346718
H51	H	1.296078	-0.180314	-0.099684
Br52	Br	1.315884	0.357804	0.138621
H53	H	1.162314	0.512952	0.360967
Br54	Br	0.648439	0.409521	0.000045
Br55	Br	1.266105	0.426101	-0.000020
Br56	Br	1.078826	0.694243	-0.000026
H57	H	0.813126	0.624199	-0.000008
Br58	Br	0.891495	-0.320689	0.000132
Br59	Br	1.477905	-0.176841	0.311689
Br60	Br	0.704216	-0.052548	0.000093
H61	H	1.654447	0.015731	0.778231
H62	H	1.250751	-0.037867	0.000052
H63	H	1.654437	0.015745	0.221856
Br64	Br	1.200332	-0.312413	0.000127
Br65	Br	1.253233	-0.417180	-0.166787
H66	H	1.654575	-0.442187	-0.138686
Br67	Br	1.253337	-0.420476	0.164312
Br68	Br	1.260205	-0.153297	0.166506
H69	H	1.508586	-0.426459	-0.243189
H70	H	1.315898	0.357793	0.778240
H71	H	1.501266	-0.422589	0.243248
H72	H	1.651295	-0.442412	0.145578
H73	H	1.658178	-0.225548	0.144323
H74	H	1.505897	-0.207065	-0.242502
H75	H	1.162338	0.512941	0.639158
H76	H	1.656807	-0.223758	-0.147989
H77	H	1.807981	-0.139401	0.360934
H78	H	1.808000	-0.139407	0.639128
