data_functionalizedCrystal
_audit_creation_method	'MofGen! by Chris Wilmer'
_symmetry_space_group_name_H-M	'P1'
_symmetry_Int_Tables_number	1
_symmetry_cell_setting	triclinic
loop_
_symmetry_equiv_pos_as_xyz
  x,y,z
_cell_length_a	16.625547
_cell_length_b	29.839131
_cell_length_c	16.625539
_cell_angle_alpha	89.962116
_cell_angle_beta	89.978691
_cell_angle_gamma	90.035164
loop_
_atom_site_label
_atom_site_type_symbol
_atom_site_fract_x
_atom_site_fract_y
_atom_site_fract_z
Zn1	Zn	1.232581	-0.178862	-0.455937
Zn2	Zn	1.232462	-0.253990	-0.321077
Zn3	Zn	1.097751	-0.178875	-0.321107
Zn4	Zn	1.097683	-0.253965	-0.455857
O5	O	1.165119	-0.216423	-0.388494
O6	O	1.345398	-0.188832	-0.438068
O7	O	1.214572	-0.244042	-0.208249
O8	O	1.115715	-0.116006	-0.339039
O9	O	1.345311	-0.244029	-0.338987
O10	O	1.214774	-0.115996	-0.438097
O11	O	1.115600	-0.188855	-0.208271
O12	O	0.984910	-0.188831	-0.338961
O13	O	1.115599	-0.243987	-0.568700
O14	O	0.984860	-0.243999	-0.437961
O15	O	1.214708	-0.188808	-0.568759
O16	O	1.214506	-0.316854	-0.338910
O17	O	1.115484	-0.316836	-0.437932
C18	C	0.955629	-0.216414	-0.388456
C19	C	0.866007	-0.216421	-0.388459
C20	C	0.793225	-0.216422	-0.388469
C21	C	0.701917	-0.216424	-0.388489
C22	C	0.629140	-0.216429	-0.388510
C23	C	0.537826	-0.216432	-0.388529
C24	C	1.164996	-0.333145	-0.388426
C25	C	1.165018	-0.383080	-0.388424
C26	C	1.216688	-0.692683	-0.440148
C27	C	1.216776	-0.880356	-0.440196
O28	O	1.260587	-0.904587	-0.484123
N29	N	1.165256	-0.903865	-0.388584
C30	C	1.113708	-0.880452	-0.336960
O31	O	1.069884	-0.904754	-0.293067
C32	C	1.113617	-0.692780	-0.336916
C33	C	1.165145	-0.669274	-0.388526
C34	C	1.268212	-0.669177	-0.491754
C35	C	1.268193	-0.622262	-0.491738
C36	C	1.216650	-0.598852	-0.440116
C37	C	1.165126	-0.622359	-0.388510
C38	C	1.062065	-0.669368	-0.285296
C39	C	1.062045	-0.622447	-0.285291
C40	C	1.113574	-0.598941	-0.336901
C41	C	1.113564	-0.552034	-0.336872
N42	N	1.165083	-0.528525	-0.388484
C43	C	1.216626	-0.551935	-0.440107
C44	C	1.113760	-0.978983	-0.336985
C45	C	1.113784	-1.025901	-0.336995
C46	C	1.216851	-1.025802	-0.440233
C47	C	1.216831	-0.978883	-0.440218
C48	C	1.165280	-0.955474	-0.388597
C49	C	1.216582	-0.453409	-0.440069
C50	C	1.216561	-0.406489	-0.440046
C51	C	1.113491	-0.406592	-0.336812
C52	C	1.113515	-0.453508	-0.336831
C53	C	1.165063	-0.476915	-0.388466
O54	O	1.069769	-0.527774	-0.292975
O55	O	1.260431	-0.527625	-0.484005
C56	C	1.216708	-0.739599	-0.440163
C57	C	1.165184	-0.763105	-0.388557
C58	C	1.113641	-0.739696	-0.336935
C59	C	1.165207	-0.810023	-0.388567
C60	C	1.216750	-0.833432	-0.440189
C61	C	1.268270	-0.809923	-0.491801
C62	C	1.268250	-0.763008	-0.491786
C63	C	1.062122	-0.763204	-0.285323
C64	C	1.062146	-0.810120	-0.285342
C65	C	1.113689	-0.833529	-0.336964
C66	C	1.375428	-0.216432	-0.388533
C67	C	1.465049	-0.216436	-0.388550
C68	C	1.165159	-0.216393	-0.598803
C69	C	1.165176	-0.216381	-0.688425
C70	C	1.165265	-0.099244	-0.388580
C71	C	1.165327	-0.049310	-0.388617
C72	C	1.165189	-0.216371	-0.761207
C73	C	1.165208	-0.216354	-0.852516
C74	C	1.165227	-0.216338	-0.925292
C75	C	1.165247	-0.216322	-1.016606
C76	C	1.165126	-0.216420	-0.179004
C77	C	1.165266	-0.216306	-0.089383
H78	H	1.258524	-0.387352	-0.482073
Br79	Br	0.992157	-0.731442	-0.215263
H80	H	1.258552	-0.472461	-0.482121
Br81	Br	1.043863	-1.057796	-0.266936
H82	H	1.071780	-0.959927	-0.294947
Br83	Br	1.338122	-0.590368	-0.561790
Br84	Br	1.286803	-1.057580	-0.510290
H85	H	1.310184	-0.688232	-0.533796
H86	H	1.020105	-0.688499	-0.243269
H87	H	1.258789	-0.959747	-0.482244
Br88	Br	0.992077	-0.590682	-0.215231
Br89	Br	1.043596	-0.485410	-0.266776
H90	H	1.071527	-0.387525	-0.294779
Br91	Br	1.338186	-0.731114	-0.561831
H92	H	1.310241	-0.828991	-0.533831
Br93	Br	0.992212	-0.842015	-0.215288
