data_functionalizedCrystal
_audit_creation_method	'MofGen! by Chris Wilmer'
_symmetry_space_group_name_H-M	'P1'
_symmetry_Int_Tables_number	1
_symmetry_cell_setting	triclinic
loop_
_symmetry_equiv_pos_as_xyz
  x,y,z
_cell_length_a	17.077404
_cell_length_b	11.169416
_cell_length_c	17.077395
_cell_angle_alpha	90.018561
_cell_angle_beta	89.984359
_cell_angle_gamma	89.986686
loop_
_atom_site_label
_atom_site_type_symbol
_atom_site_fract_x
_atom_site_fract_y
_atom_site_fract_z
Zn1	Zn	1.200078	0.477815	-0.443890
Zn2	Zn	1.700078	0.977815	0.056110
Zn3	Zn	1.200017	0.678522	-0.312644
Zn4	Zn	1.700017	1.178522	0.187356
Zn5	Zn	1.068819	0.477853	-0.312638
Zn6	Zn	1.568819	0.977853	0.187362
Zn7	Zn	1.068800	0.678455	-0.443867
Zn8	Zn	1.568800	1.178455	0.056133
O9	O	1.134428	0.578161	-0.378260
O10	O	1.634428	1.078161	0.121740
O11	O	1.309917	0.504451	-0.426492
O12	O	1.809917	1.004451	0.073508
O13	O	1.182595	0.651947	-0.202796
O14	O	1.682595	1.151947	0.297204
O15	O	1.086264	0.309898	-0.330056
O16	O	1.586264	0.809898	0.169944
O17	O	1.309872	0.651910	-0.330066
O18	O	1.809872	1.151910	0.169934
O19	O	1.182700	0.309870	-0.426486
O20	O	1.682700	0.809870	0.073514
O21	O	1.086204	0.504516	-0.202792
O22	O	1.586204	1.004516	0.297208
O23	O	0.958969	0.504451	-0.330034
O24	O	1.458969	1.004451	0.169966
O25	O	1.086233	0.651796	-0.553717
O26	O	1.586233	1.151796	-0.053717
O27	O	0.958956	0.651833	-0.426448
O28	O	1.458956	1.151833	0.073552
O29	O	1.182682	0.504387	-0.553734
O30	O	1.682682	1.004387	-0.053734
O31	O	1.182577	0.846463	-0.330044
O32	O	1.682577	1.346463	0.169956
O33	O	1.086173	0.846414	-0.426453
O34	O	1.586173	1.346414	0.073547
C35	C	0.930481	0.578140	-0.378238
C36	C	1.430481	1.078140	0.121762
C37	C	0.843231	0.578159	-0.378247
C38	C	1.343231	1.078159	0.121753
C39	C	1.134388	0.889986	-0.378264
C40	C	1.634388	1.389986	0.121736
C41	C	1.134442	1.023386	-0.378292
C42	C	1.634442	1.523386	0.121708
C43	C	0.802254	0.655017	-0.428370
C44	C	1.302254	1.155017	0.071630
C45	C	0.720274	0.655019	-0.428382
C46	C	1.220274	1.155019	0.071618
C47	C	0.679271	0.578169	-0.378268
C48	C	1.179271	1.078169	0.121732
C49	C	0.720254	0.501303	-0.328144
C50	C	1.220254	1.001303	0.171856
C51	C	0.802233	0.501296	-0.328136
C52	C	1.302233	1.001296	0.171864
C53	C	0.549384	0.501327	-0.328163
C54	C	1.049384	1.001327	0.171837
C55	C	0.467399	0.501336	-0.328169
C56	C	0.967399	1.001336	0.171831
C57	C	0.467425	0.655051	-0.428409
C58	C	0.967425	1.155051	0.071591
C59	C	0.549404	0.655043	-0.428401
C60	C	1.049404	1.155043	0.071599
C61	C	0.590380	0.578178	-0.378275
C62	C	1.090380	1.078178	0.121725
C63	C	1.339173	0.578184	-0.378282
C64	C	1.839173	1.078184	0.121718
C65	C	1.426423	0.578194	-0.378291
C66	C	1.926423	1.078194	0.121709
C67	C	1.134483	1.265119	-0.378281
C68	C	1.634483	1.765119	0.121719
C69	C	1.134486	1.131719	-0.378311
C70	C	1.634486	1.631719	0.121689
C71	C	1.134462	0.578080	-0.583004
C72	C	1.634462	1.078080	-0.083004
C73	C	1.134477	0.578045	-0.670254
C74	C	1.634477	1.078045	-0.170254
C75	C	1.184785	0.501126	-1.046078
C76	C	1.684785	1.001126	-0.546078
C77	C	1.184769	0.501168	-0.964098
C78	C	1.684769	1.001168	-0.464098
C79	C	1.134541	0.577931	-0.923103
C80	C	1.634541	1.077931	-0.423103
C81	C	1.084332	0.654667	-0.964093
C82	C	1.584332	1.154667	-0.464093
C83	C	1.084353	0.654630	-1.046072
C84	C	1.584353	1.154630	-0.546072
C85	C	1.084291	0.654736	-0.793223
C86	C	1.584291	1.154736	-0.293223
C87	C	1.084270	0.654772	-0.711238
C88	C	1.584270	1.154772	-0.211238
C89	C	1.184707	0.501274	-0.711249
C90	C	1.684707	1.001274	-0.211249
C91	C	1.184728	0.501237	-0.793228
C92	C	1.684728	1.001237	-0.293228
C93	C	1.134518	0.577971	-0.834212
C94	C	1.634518	1.077971	-0.334212
C95	C	1.134440	0.578156	-0.174312
C96	C	1.634440	1.078156	0.325688
C97	C	1.134578	0.577853	-0.087063
C98	C	1.634578	1.077853	0.412937
H99	H	0.835632	0.717601	-0.469176
H100	H	1.335632	1.217601	0.030824
H101	H	1.225624	0.438725	-0.826604
H102	H	1.725624	0.938725	-0.326604
H103	H	0.434058	0.717633	-0.469225
H104	H	0.934058	1.217633	0.030775
Cl105	Cl	0.415854	0.404729	-0.265164
Cl106	Cl	0.915854	0.904729	0.234836
Cl107	Cl	1.021234	0.751093	-1.097595
Cl108	Cl	1.521234	1.251093	-0.597595
H109	H	0.582745	0.438725	-0.287352
H110	H	1.082745	0.938725	0.212648
H111	H	0.686914	0.717606	-0.469196
H112	H	1.186914	1.217606	0.030804
Cl113	Cl	1.021130	0.751283	-0.659702
Cl114	Cl	1.521130	1.251283	-0.159702
H115	H	1.043407	0.717224	-0.826589
H116	H	1.543407	1.217224	-0.326589
Cl117	Cl	0.668708	0.404683	-0.265148
Cl118	Cl	1.168708	0.904683	0.234852
H119	H	0.835595	0.438704	-0.287325
H120	H	1.335595	0.938704	0.212675
Cl121	Cl	1.021190	0.751172	-0.912556
Cl122	Cl	1.521190	1.251172	-0.412556
H123	H	1.225681	0.438608	-1.079451
H124	H	1.725681	0.938608	-0.579451
Cl125	Cl	0.600949	0.751664	-0.491397
Cl126	Cl	1.100949	1.251664	0.008603
H127	H	1.225589	0.438792	-0.677876
H128	H	1.725589	0.938792	-0.177876
H129	H	1.225654	0.438693	-0.930732
H130	H	1.725654	0.938693	-0.430732
