data_functionalizedCrystal
_audit_creation_method	'MofGen! by Chris Wilmer'
_symmetry_space_group_name_H-M	'P1'
_symmetry_Int_Tables_number	1
_symmetry_cell_setting	triclinic
loop_
_symmetry_equiv_pos_as_xyz
  x,y,z
_cell_length_a	12.827893
_cell_length_b	16.625546
_cell_length_c	12.827885
_cell_angle_alpha	89.964876
_cell_angle_beta	89.980728
_cell_angle_gamma	90.022439
loop_
_atom_site_label
_atom_site_type_symbol
_atom_site_fract_x
_atom_site_fract_y
_atom_site_fract_z
Zn1	Zn	1.597618	-0.320963	-0.590810
Zn2	Zn	1.597491	-0.455817	-0.416054
Zn3	Zn	1.422860	-0.321002	-0.416084
Zn4	Zn	1.422823	-0.455757	-0.590754
O5	O	1.510198	-0.388385	-0.503425
O6	O	1.743837	-0.338861	-0.567639
O7	O	1.574287	-0.437976	-0.269822
O8	O	1.446110	-0.208165	-0.439297
O9	O	1.743744	-0.437937	-0.439247
O10	O	1.574505	-0.208136	-0.567668
O11	O	1.445987	-0.338928	-0.269843
O12	O	1.276619	-0.338869	-0.439243
O13	O	1.446048	-0.437835	-0.736997
O14	O	1.276592	-0.437873	-0.567572
O15	O	1.574469	-0.338802	-0.737039
O16	O	1.574252	-0.568642	-0.439192
O17	O	1.445925	-0.568598	-0.567544
C18	C	1.238688	-0.388370	-0.503405
C19	C	1.122535	-0.388382	-0.503422
C20	C	1.070765	-0.437449	-0.566825
C21	C	0.950714	-0.437464	-0.566844
C22	C	1.510099	-0.597876	-0.503382
C23	C	1.510152	-0.687497	-0.503398
C24	C	1.510335	-1.015673	-0.503507
C25	C	1.510281	-0.924364	-0.503479
C26	C	1.510243	-0.851588	-0.503452
C27	C	1.510190	-0.760274	-0.503425
C28	C	1.782768	-0.388401	-0.503446
C29	C	1.898921	-0.388408	-0.503455
C30	C	1.510269	-0.388308	-0.775996
C31	C	1.510299	-0.388275	-0.892149
C32	C	1.510326	-0.178076	-0.503492
C33	C	1.510380	-0.088455	-0.503521
C34	C	1.573853	-0.339261	-0.943954
C35	C	1.573886	-0.339225	-1.064004
C36	C	1.510187	-0.388404	-0.231915
C37	C	1.510359	-0.388210	-0.115763
H38	H	0.906193	-0.479474	-0.621123
C39	C	1.193710	-0.448677	-0.707231
C40	C	1.130904	-0.494147	-0.640089
H41	H	1.230840	-0.483683	-0.752457
H42	H	1.151159	-0.413629	-0.747330
H43	H	1.241740	-0.417893	-0.667438
H44	H	1.082869	-0.524927	-0.679882
H45	H	1.173459	-0.529210	-0.599986
C46	C	1.588387	-0.230813	-1.186900
C47	C	1.647341	-0.282569	-1.124134
H48	H	1.633738	-0.195831	-1.224016
H49	H	1.548551	-0.261541	-1.234932
H50	H	1.542903	-0.199957	-1.144314
H51	H	1.692820	-0.313429	-1.166720
H52	H	1.687195	-0.251837	-1.076097
C53	C	1.495859	-0.496615	-0.992860
C54	C	1.436903	-0.444864	-1.055630
H55	H	1.450509	-0.531586	-0.955726
H56	H	1.541331	-0.527476	-1.035437
H57	H	1.535708	-0.465877	-0.944834
H58	H	1.397059	-0.475601	-1.103662
H59	H	1.391413	-0.414000	-1.013050
C60	C	1.021723	-0.377150	-0.363007
C61	C	0.959011	-0.331695	-0.430169
H62	H	1.058829	-0.342136	-0.317769
H63	H	0.979110	-0.412209	-0.322923
H64	H	1.069773	-0.407922	-0.402786
H65	H	0.910955	-0.300927	-0.390390
H66	H	1.001627	-0.296621	-0.470257
C67	C	1.588298	-0.230931	-0.821103
C68	C	1.647280	-0.282648	-0.883854
H69	H	1.633633	-0.195985	-0.783997
H70	H	1.542851	-0.200042	-0.863690
H71	H	1.548421	-0.261696	-0.773053
H72	H	1.687151	-0.251884	-0.931910
H73	H	1.692745	-0.313541	-0.841263
H74	H	1.077981	-0.346382	-0.449157
H75	H	1.455906	-0.430206	-0.936673
