data_functionalizedCrystal
_audit_creation_method	'MofGen! by Chris Wilmer'
_symmetry_space_group_name_H-M	'P1'
_symmetry_Int_Tables_number	1
_symmetry_cell_setting	triclinic
loop_
_symmetry_equiv_pos_as_xyz
  x,y,z
_cell_length_a	10.686220
_cell_length_b	13.032721
_cell_length_c	13.032268
_cell_angle_alpha	103.289627
_cell_angle_beta	100.919293
_cell_angle_gamma	100.973619
loop_
_atom_site_label
_atom_site_type_symbol
_atom_site_fract_x
_atom_site_fract_y
_atom_site_fract_z
Zn1	Zn	1.792166	-0.368532	-0.523925
Zn2	Zn	1.792025	-0.523627	-0.368883
Zn3	Zn	1.607735	-0.359462	-0.359751
Zn4	Zn	1.544914	-0.564101	-0.564388
O5	O	1.684210	-0.453931	-0.454237
O6	O	1.972750	-0.375963	-0.490246
O7	O	1.793811	-0.481115	-0.217145
O8	O	1.658550	-0.210115	-0.360774
O9	O	1.972646	-0.489910	-0.376337
O10	O	1.794051	-0.216779	-0.481391
O11	O	1.658414	-0.360504	-0.210436
O12	O	1.418800	-0.399751	-0.400009
O13	O	1.551481	-0.558893	-0.709547
O14	O	1.372646	-0.550098	-0.550355
O15	O	1.733136	-0.415210	-0.679819
O16	O	1.732896	-0.679546	-0.415573
O17	O	1.551344	-0.709282	-0.559209
C18	C	1.348894	-0.478333	-0.478583
C19	C	1.205436	-0.488802	-0.489027
C20	C	1.635319	-0.733451	-0.492794
C21	C	1.614514	-0.853027	-0.509316
C22	C	1.695128	-0.891592	-0.445657
C23	C	1.673628	-1.015180	-0.462732
C24	C	2.020835	-0.429434	-0.429797
C25	C	2.164285	-0.418995	-0.419382
C26	C	1.635317	-0.492578	-0.734804
C27	C	1.614481	-0.509047	-0.854366
C28	C	1.733324	-0.173320	-0.415550
C29	C	1.754253	-0.053740	-0.399064
C30	C	1.695071	-0.445298	-0.892961
C31	C	1.673539	-0.462318	-1.016533
C32	C	1.733002	-0.415350	-0.174745
C33	C	1.754140	-0.398560	-0.055124
H34	H	1.238804	-0.351221	-0.351764
H35	H	1.130909	-0.556586	-0.556643
H36	H	1.780005	-0.378116	-0.834519
H37	H	1.588588	-0.529495	-1.074971
Cl38	Cl	1.885401	-0.963467	-0.295398
H39	H	1.529537	-0.576220	-0.912807
H40	H	1.780067	-0.833115	-0.378519
H41	H	1.529585	-0.911506	-0.576461
Cl42	Cl	1.885304	-0.294845	-0.964909
H43	H	1.588693	-1.073656	-0.529882
