data_functionalizedCrystal
_audit_creation_method	'MofGen! by Chris Wilmer'
_symmetry_space_group_name_H-M	'P1'
_symmetry_Int_Tables_number	1
_symmetry_cell_setting	triclinic
loop_
_symmetry_equiv_pos_as_xyz
  x,y,z
_cell_length_a	18.050590
_cell_length_b	18.050590
_cell_length_c	18.101389
_cell_angle_alpha	90.019149
_cell_angle_beta	90.003324
_cell_angle_gamma	90.007719
loop_
_atom_site_label
_atom_site_type_symbol
_atom_site_fract_x
_atom_site_fract_y
_atom_site_fract_z
Zn1	Zn	1.135372	-0.295952	0.418420
Zn2	Zn	1.135295	-0.420126	0.294577
Zn3	Zn	1.011183	-0.295931	0.294626
Zn4	Zn	1.011160	-0.420081	0.418411
O5	O	1.073253	-0.358023	0.356509
O6	O	1.239287	-0.312452	0.401975
O7	O	1.118808	-0.403662	0.190950
O8	O	1.027698	-0.192009	0.311073
O9	O	1.239230	-0.403682	0.310988
O10	O	1.118940	-0.192025	0.402023
O11	O	1.027623	-0.312416	0.190987
O12	O	0.907255	-0.312372	0.311064
O13	O	1.027660	-0.403605	0.522045
O14	O	0.907239	-0.403585	0.402007
O15	O	1.118918	-0.312408	0.522052
O16	O	1.118787	-0.524045	0.310979
O17	O	1.027586	-0.524012	0.401959
C18	C	0.880301	-0.357972	0.356540
C19	C	0.797755	-0.357968	0.356572
C20	C	0.598317	-0.407712	0.405909
C21	C	0.548914	-0.339998	0.424134
C22	C	0.646624	-0.358010	0.356535
C23	C	0.548946	-0.425762	0.338310
C24	C	0.500639	-0.358056	0.356502
C25	C	0.598308	-0.290260	0.374796
C26	C	0.598345	-0.376070	0.288940
C27	C	0.548964	-0.308309	0.307139
C28	C	0.730723	-0.357984	0.356557
C29	C	0.416543	-0.358074	0.356481
C30	C	1.073196	-0.550975	0.356479
C31	C	1.073239	-0.633521	0.356491
C32	C	1.122937	-0.832962	0.307085
C33	C	1.141078	-0.882309	0.374670
C34	C	1.073281	-0.784651	0.356521
C35	C	1.055216	-0.882386	0.288966
C36	C	1.073323	-0.930636	0.356543
C37	C	1.091456	-0.832911	0.424141
C38	C	1.005564	-0.832983	0.338392
C39	C	1.023678	-0.882307	0.406023
C40	C	1.073259	-0.700553	0.356507
C41	C	1.073346	-1.014733	0.356565
C42	C	1.266958	-0.358074	0.356477
C43	C	1.349504	-0.358096	0.356463
C44	C	1.073296	-0.358004	0.549670
C45	C	1.073314	-0.357996	0.631985
C46	C	1.073330	-0.164317	0.356554
C47	C	1.073363	-0.081771	0.356574
C48	C	1.073253	-0.357988	0.164098
C49	C	1.073378	-0.357787	0.081784
C50	C	1.073357	-0.357857	0.931076
C51	C	1.015742	-0.415053	0.899746
C52	C	1.015898	-0.415318	0.814128
C53	C	1.073335	-0.357926	0.782693
C54	C	1.151585	-0.379184	0.813770
C55	C	1.151264	-0.379560	0.899415
C56	C	1.053402	-0.279275	0.899508
C57	C	1.051662	-0.279728	0.813858
C58	C	1.073327	-0.357964	0.698834
C59	C	1.073370	-0.357821	1.014935
H60	H	0.620074	-0.391351	0.231806
C61	C	0.519654	-0.503139	0.317497
C62	C	0.539143	-0.570598	0.365788
C63	C	0.509853	-0.647975	0.344982
C64	C	0.461075	-0.657895	0.275885
C65	C	0.441584	-0.590434	0.227589
C66	C	0.470873	-0.513056	0.248395
H67	H	0.575253	-0.563257	0.416943
H68	H	0.524282	-0.697914	0.380735
H69	H	0.439393	-0.715175	0.260483
H70	H	0.405473	-0.597775	0.176434
H71	H	0.456444	-0.463117	0.212642
C72	C	0.966980	-0.911412	0.462575
C73	C	0.901972	-0.960241	0.436770
C74	C	0.845281	-0.989352	0.493325
C75	C	0.853598	-0.969634	0.575685
C76	C	0.918609	-0.920802	0.601494
C77	C	0.975300	-0.891691	0.544939
H78	H	0.895812	-0.974840	0.375799
H79	H	0.797156	-1.025501	0.474219
H80	H	0.811632	-0.991183	0.617550
H81	H	0.924769	-0.906203	0.662465
H82	H	1.023425	-0.855542	0.564045
H83	H	1.039920	-0.904117	0.231827
H84	H	0.619989	-0.449669	0.447710
C85	C	0.977655	-0.253111	0.928688
C86	C	0.914360	-0.236178	0.874210
C87	C	0.838609	-0.210023	0.903390
C88	C	0.826154	-0.200802	0.987050
C89	C	0.889451	-0.217735	1.041533
C90	C	0.965201	-0.243890	1.012353
H91	H	0.923579	-0.243004	0.812275
H92	H	0.791753	-0.197488	0.863057
H93	H	0.770079	-0.181440	1.008651
H94	H	0.880232	-0.210909	1.103468
H95	H	1.012057	-0.256425	1.052686
H96	H	0.957873	-0.402014	0.793117
C97	C	0.519861	-0.251497	0.250712
C98	C	0.435862	-0.241399	0.239787
C99	C	0.406754	-0.184587	0.183364
C100	C	0.461647	-0.137873	0.137865
C101	C	0.545652	-0.147970	0.148789
C102	C	0.574759	-0.204782	0.205213
H103	H	0.395222	-0.275981	0.273469
H104	H	0.344568	-0.177113	0.175277
H105	H	0.440100	-0.095817	0.096097
H106	H	0.586291	-0.113388	0.115108
H107	H	0.636945	-0.212256	0.213299
C108	C	0.627467	-0.212857	0.395695
C109	C	0.607364	-0.145275	0.347827
C110	C	0.636522	-0.067873	0.368728
C111	C	0.685785	-0.058053	0.437497
C112	C	0.705891	-0.125637	0.485370
C113	C	0.676732	-0.203039	0.464469
H114	H	0.570894	-0.152542	0.296915
H115	H	0.621638	-0.017844	0.333289
H116	H	0.707370	-0.000756	0.452970
H117	H	0.742360	-0.118370	0.536281
H118	H	0.691616	-0.253069	0.499908
C119	C	1.110087	-0.221702	0.926882
C120	C	1.084110	-0.155034	0.973229
C121	C	1.140797	-0.097469	1.000608
C122	C	1.223460	-0.106573	0.981641
C123	C	1.249441	-0.173245	0.935292
C124	C	1.192754	-0.230809	0.907913
H125	H	1.022915	-0.148292	0.987272
H126	H	1.121564	-0.048114	1.034919
H127	H	1.265423	-0.063961	1.001909
H128	H	1.310637	-0.179987	0.921249
H129	H	1.211987	-0.280164	0.873602
C130	C	0.973869	-0.258065	0.786422
C131	C	0.930207	-0.311106	0.735957
C132	C	0.852414	-0.289445	0.708516
C133	C	0.818283	-0.214743	0.731541
C134	C	0.861945	-0.161696	0.782009
C135	C	0.939738	-0.183357	0.809449
H136	H	0.955473	-0.366409	0.718910
H137	H	0.820093	-0.328713	0.671157
H138	H	0.760696	-0.198708	0.711228
H139	H	0.836679	-0.106393	0.799056
H140	H	0.972060	-0.144089	0.846809
C141	C	1.174833	-0.455966	0.784803
C142	C	1.122958	-0.499440	0.732991
C143	C	1.146201	-0.576224	0.704026
C144	C	1.221319	-0.609534	0.726872
C145	C	1.273199	-0.566059	0.778686
C146	C	1.249956	-0.489275	0.807652
H147	H	1.067347	-0.474783	0.716077
H148	H	1.107796	-0.608407	0.665670
H149	H	1.238525	-0.666374	0.705430
H150	H	1.328810	-0.590716	0.795601
H151	H	1.288361	-0.457093	0.846008
C152	C	1.179680	-0.803683	0.250666
C153	C	1.262305	-0.823158	0.259099
C154	C	1.319049	-0.793877	0.202685
C155	C	1.293168	-0.745122	0.137837
C156	C	1.210539	-0.725644	0.129401
C157	C	1.153795	-0.754925	0.185816
H158	H	1.281468	-0.859252	0.307106
H159	H	1.380217	-0.808296	0.208930
H160	H	1.335173	-0.723446	0.096076
H161	H	1.191377	-0.689550	0.081395
H162	H	1.092628	-0.740506	0.179570
C163	C	0.937115	-0.397253	0.927572
C164	C	0.875015	-0.379670	0.871943
C165	C	0.796386	-0.361864	0.899773
C166	C	0.779856	-0.361640	0.983232
C167	C	0.841958	-0.379224	1.038867
C168	C	0.920587	-0.397030	1.011037
H169	H	0.887250	-0.379835	0.810157
H170	H	0.750415	-0.348847	0.858588
H171	H	0.721650	-0.348459	1.003833
H172	H	0.829723	-0.379059	1.100653
H173	H	0.966558	-0.410047	1.052222
H174	H	1.195666	-0.338835	0.793408
C175	C	0.519577	-0.319377	0.501337
C176	C	0.539050	-0.367999	0.568472
C177	C	0.509719	-0.347384	0.645677
C178	C	0.460915	-0.278146	0.655745
C179	C	0.441439	-0.229520	0.588608
C180	C	0.470771	-0.250135	0.511403
H181	H	0.575180	-0.419257	0.561021
H182	H	0.524136	-0.383380	0.695376
H183	H	0.439202	-0.262885	0.712896
H184	H	0.405309	-0.178262	0.596059
H185	H	0.456354	-0.214139	0.461704
H186	H	1.028787	-0.472945	0.921266
H187	H	1.029074	-0.473565	0.793640
C188	C	1.174134	-0.457156	0.926409
C189	C	1.192561	-0.518349	0.870036
C190	C	1.215443	-0.595943	0.897025
C191	C	1.219897	-0.612344	0.980387
C192	C	1.201470	-0.551149	1.036765
C193	C	1.178588	-0.473555	1.009776
H194	H	1.189265	-0.506209	0.808321
H195	H	1.229085	-0.641244	0.855289
H196	H	1.236836	-0.669784	1.000366
H197	H	1.204766	-0.563289	1.098479
H198	H	1.164946	-0.428254	1.051511
H199	H	1.198363	-0.903978	0.390018
C200	C	1.104217	-0.219098	0.784962
C201	C	1.168020	-0.239623	0.732328
C202	C	1.220583	-0.178995	0.703434
C203	C	1.209344	-0.097841	0.727176
C204	C	1.145539	-0.077311	0.779813
C205	C	1.092975	-0.137940	0.808706
H206	H	1.176342	-0.299702	0.714750
H207	H	1.267817	-0.194193	0.664469
H208	H	1.248255	-0.052960	0.705787
H209	H	1.137216	-0.017232	0.797390
H210	H	1.045742	-0.122742	0.847672
C211	C	0.928198	-0.803681	0.317633
C212	C	0.894169	-0.823184	0.242074
C213	C	0.816803	-0.793881	0.221306
C214	C	0.773465	-0.745076	0.276096
C215	C	0.807493	-0.725570	0.351660
C216	C	0.884859	-0.754873	0.372428
H217	H	0.926251	-0.859315	0.201510
H218	H	0.791613	-0.808321	0.165368
H219	H	0.716194	-0.723384	0.260723
H220	H	0.775411	-0.689439	0.392224
H221	H	0.910049	-0.740434	0.428366
H222	H	1.106696	-0.811271	0.481330
C223	C	1.211234	-0.325746	0.927425
C224	C	1.292983	-0.338315	0.906579
C225	C	1.352958	-0.284511	0.934587
C226	C	1.331185	-0.218137	0.983441
C227	C	1.249432	-0.205564	1.004290
C228	C	1.189457	-0.259368	0.976281
H229	H	1.309104	-0.387452	0.870412
H230	H	1.413477	-0.293818	0.919154
H231	H	1.375582	-0.178307	1.004175
H232	H	1.233311	-0.156427	1.040456
H233	H	1.128938	-0.250061	0.991715
