data_functionalizedCrystal
_audit_creation_method	'MofGen! by Chris Wilmer'
_symmetry_space_group_name_H-M	'P1'
_symmetry_Int_Tables_number	1
_symmetry_cell_setting	triclinic
loop_
_symmetry_equiv_pos_as_xyz
  x,y,z
_cell_length_a	12.837943
_cell_length_b	9.065218
_cell_length_c	7.540329
_cell_angle_alpha	90.001757
_cell_angle_beta	90.001870
_cell_angle_gamma	89.922413
loop_
_atom_site_label
_atom_site_type_symbol
_atom_site_fract_x
_atom_site_fract_y
_atom_site_fract_z
O1	O	-1.379057	-0.384029	-0.147437
O2	O	-1.077074	-0.365058	-0.147448
O3	O	-1.234307	-0.160660	-0.147439
O4	O	-1.221824	-0.588427	-0.147446
O5	O	-1.234298	-0.160656	0.147526
O6	O	-1.077064	-0.365054	0.147517
O7	O	-1.379048	-0.384024	0.147528
Cu8	Cu	-1.228055	-0.374539	0.174455
Cu9	Cu	-1.228066	-0.374544	-0.174375
O10	O	-1.221814	-0.588423	0.147519
C11	C	-1.038388	-0.358647	0.000033
C12	C	-0.923132	-0.339534	0.000029
C13	C	-1.233103	-0.105525	0.000041
C14	C	-1.229515	0.058754	0.000032
C15	C	-1.417733	-0.390435	0.000043
C16	C	-1.532990	-0.409548	0.000036
C17	C	-0.684331	-0.569311	0.000050
C18	C	-0.576036	-0.551359	0.000047
C19	C	-0.598246	-0.285680	0.000033
C20	C	-0.706541	-0.303632	0.000036
C21	C	-0.749579	-0.445452	0.000042
C22	C	-0.857875	-0.463402	0.000032
C23	C	-0.880083	-0.197725	0.000030
C24	C	-0.771789	-0.179773	0.000027
C25	C	-1.223019	-0.643557	0.000035
C26	C	-1.226606	-0.807836	0.000032
N27	N	-1.228055	-0.374536	0.419804
N28	N	-1.228075	-0.374536	-0.419724
H29	H	-0.719372	-0.684786	0.000052
H30	H	-0.563185	-0.170217	0.000175
C31	C	-0.904406	-0.617494	0.000132
C32	C	-0.824080	-0.722120	0.000191
C33	C	-0.866900	-0.864087	0.000314
H34	H	-0.946178	-0.630241	-0.102699
H35	H	-0.946159	-0.630085	0.103036
H36	H	-0.782345	-0.709534	-0.102702
H37	H	-0.782301	-0.709421	0.103015
H38	H	-0.908653	-0.876678	0.103218
H39	H	-0.908672	-0.876819	-0.102519
H40	H	-0.812406	-0.935093	0.000370
C41	C	-0.505368	-0.686020	-0.000043
C42	C	-0.566244	-0.814054	-0.000081
C43	C	-0.501181	-0.938136	-0.000186
H44	H	-0.462635	-0.684743	0.102787
H45	H	-0.462681	-0.684628	-0.102948
H46	H	-0.608913	-0.815446	0.102813
H47	H	-0.608975	-0.815380	-0.102904
H48	H	-0.458493	-0.936744	-0.103091
H49	H	-0.458451	-0.936844	0.102646
H50	H	-0.542475	-1.025022	-0.000229
C51	C	-0.951047	-0.063365	-0.000259
C52	C	-1.013883	-0.065941	-0.151996
C53	C	-1.079276	0.057793	-0.152322
H54	H	-0.910029	0.023765	-0.000357
H55	H	-0.993818	-0.064830	0.102544
H56	H	-0.971117	-0.064462	-0.254773
H57	H	-1.054924	-0.153043	-0.151931
H58	H	-1.122047	0.056328	-0.049519
H59	H	-1.038249	0.144913	-0.152414
H60	H	-1.121925	0.056054	-0.255264
H61	H	-0.736732	-0.064307	0.000043
