data_functionalizedCrystal
_audit_creation_method	'MofGen! by Chris Wilmer'
_symmetry_space_group_name_H-M	'P1'
_symmetry_Int_Tables_number	1
_symmetry_cell_setting	triclinic
loop_
_symmetry_equiv_pos_as_xyz
  x,y,z
_cell_length_a	11.026607
_cell_length_b	13.101018
_cell_length_c	10.967953
_cell_angle_alpha	74.505618
_cell_angle_beta	96.379953
_cell_angle_gamma	94.101240
loop_
_atom_site_label
_atom_site_type_symbol
_atom_site_fract_x
_atom_site_fract_y
_atom_site_fract_z
O1	O	1.613937	-0.007312	0.523955
O2	O	2.113937	0.492688	1.023955
O3	O	1.260966	0.003335	0.463672
O4	O	1.760966	0.503335	0.963672
O5	O	1.448119	0.030119	0.311972
O6	O	1.948119	0.530119	0.811972
O7	O	1.426785	-0.034096	0.675655
O8	O	1.926785	0.465904	1.175655
O9	O	1.434676	-0.142235	0.322865
O10	O	1.934676	0.357765	0.822865
O11	O	1.247523	-0.169019	0.474565
O12	O	1.747523	0.330981	0.974565
O13	O	1.600494	-0.179666	0.534848
O14	O	2.100494	0.320334	1.034848
Zn15	Zn	1.421874	-0.201707	0.506436
Zn16	Zn	1.921874	0.298293	1.006436
Zn17	Zn	1.439586	0.025376	0.492084
Zn18	Zn	1.939586	0.525376	0.992084
O19	O	1.413341	-0.206450	0.686548
O20	O	1.913341	0.293550	1.186548
C21	C	1.209095	-0.080878	0.457997
C22	C	1.709095	0.419122	0.957997
C23	C	1.074565	-0.075023	0.424844
C24	C	1.574565	0.424977	0.924844
N25	N	1.409795	-0.356686	0.516232
N26	N	1.909795	0.143314	1.016232
C27	C	1.000252	-0.091185	0.516385
C28	C	1.500252	0.408815	1.016385
C29	C	0.861208	-0.085134	0.482122
C30	C	1.361208	0.414866	0.982122
C31	C	1.468103	-0.608246	0.468946
C32	C	1.968103	-0.108246	0.968946
C33	C	1.393371	-0.568076	0.529563
C34	C	1.893371	-0.068076	1.029563
C35	C	1.402511	-0.450447	0.522144
C36	C	1.902511	0.049553	1.022144
C37	C	1.458964	-0.725886	0.476364
C38	C	1.958964	-0.225886	0.976364
C39	C	1.652365	-0.095451	0.540523
C40	C	2.152365	0.404549	1.040523
C41	C	1.786895	-0.101299	0.573675
C42	C	2.286895	0.398701	1.073675
C43	C	1.440861	-0.047707	0.270136
C44	C	1.940861	0.452293	0.770136
C45	C	1.439250	-0.022823	0.129244
C46	C	1.939250	0.477177	0.629244
N47	N	1.451675	0.180356	0.482280
N48	N	1.951675	0.680356	0.982280
C49	C	1.429895	-0.075309	-0.073548
C50	C	1.929895	0.424691	0.426452
C51	C	1.431565	-0.101024	0.072071
C52	C	1.931565	0.398976	0.572071
C53	C	1.420599	-0.128622	0.728384
C54	C	1.920599	0.371378	1.228384
C55	C	1.422211	-0.153499	0.869276
C56	C	1.922211	0.346501	1.369276
H57	H	1.039567	-0.109508	0.620121
H58	H	1.539567	0.390492	1.120121
Cl59	Cl	1.577483	-0.524957	0.380229
Cl60	Cl	2.077483	-0.024957	0.880229
H61	H	0.826203	-0.119624	0.677420
H62	H	1.326203	0.380376	1.177420
Cl63	Cl	1.438162	0.057440	-0.164404
Cl64	Cl	1.938162	0.557440	0.335596
H65	H	1.426228	-0.187009	0.130923
H66	H	1.926228	0.312991	0.630923
Cl67	Cl	1.283994	-0.651372	0.618294
Cl68	Cl	1.783994	-0.151372	1.118294
H69	H	1.416875	-0.239478	-0.071868
H70	H	1.916875	0.260522	0.428132
Cl71	Cl	0.800524	-0.056860	0.321949
Cl72	Cl	1.300524	0.443140	0.821949
Cl73	Cl	1.013876	-0.046750	0.264678
Cl74	Cl	1.513876	0.453250	0.764678
Cl75	Cl	1.447502	0.109933	0.038394
Cl76	Cl	1.947502	0.609933	0.538394
