data_functionalizedCrystal
_audit_creation_method	'MofGen! by Chris Wilmer'
_symmetry_space_group_name_H-M	'P1'
_symmetry_Int_Tables_number	1
_symmetry_cell_setting	triclinic
loop_
_symmetry_equiv_pos_as_xyz
  x,y,z
_cell_length_a	23.096457
_cell_length_b	20.016444
_cell_length_c	20.016444
_cell_angle_alpha	89.997045
_cell_angle_beta	60.002889
_cell_angle_gamma	119.998947
loop_
_atom_site_label
_atom_site_type_symbol
_atom_site_fract_x
_atom_site_fract_y
_atom_site_fract_z
Zr1	Zr	0.633759	0.087645	0.643594
O2	O	0.754545	0.194316	0.536920
O3	O	0.512974	0.054948	0.676293
O4	O	0.633765	0.194322	0.676289
O5	O	0.633749	-0.055003	0.536929
O6	O	0.633770	0.194322	0.786229
O7	O	0.633754	0.054942	0.536924
O8	O	0.417696	-0.054992	0.786236
O9	O	0.849823	0.194312	0.536923
O10	O	0.562658	0.040999	0.772289
O11	O	0.562651	-0.041052	0.690246
O12	O	0.704868	0.123043	0.690242
O13	O	0.704861	0.040992	0.608199
Zr14	Zr	0.633759	-0.087705	0.818945
Zr15	Zr	0.633767	0.087645	0.818936
Zr16	Zr	0.633752	-0.087705	0.643603
Zr17	Zr	0.785717	0.087637	0.643599
Zr18	Zr	0.481802	-0.087697	0.818940
O19	O	0.754545	-0.055008	0.786246
O20	O	0.754556	0.194317	0.786233
O21	O	0.754535	-0.055009	0.536933
O22	O	0.512974	-0.194376	0.925619
O23	O	0.512984	0.054949	0.925606
O24	O	0.512963	-0.194376	0.676306
O25	O	0.633770	0.054943	0.925610
O26	O	0.633754	-0.194382	0.786250
O27	O	0.633749	-0.194382	0.676310
O28	O	0.633765	-0.055002	0.925615
O29	O	0.849829	0.194312	0.676296
O30	O	0.417690	-0.194372	0.786243
O31	O	0.417696	-0.194371	0.925616
O32	O	0.417701	-0.054992	0.925609
O33	O	0.849817	0.054932	0.536930
O34	O	0.849823	0.054932	0.676303
O35	O	0.562651	-0.123103	0.772297
O36	O	0.562658	-0.041052	0.854340
O37	O	0.704868	0.040992	0.772293
O38	O	0.704861	-0.041059	0.690250
C39	C	0.443684	-0.000021	0.731264
C40	C	0.379174	-0.000018	0.731262
C41	C	0.633769	0.219306	0.731258
C42	C	0.633772	0.293746	0.731254
C43	C	0.633750	-0.219366	0.731281
C44	C	0.633747	-0.293806	0.731285
C45	C	0.348877	0.042815	0.774082
C46	C	0.288254	0.042809	0.774090
C47	C	0.257943	-0.000020	0.731262
C48	C	0.288245	-0.042862	0.688440
C49	C	0.348860	-0.042861	0.688440
N50	N	0.195545	0.005919	0.661564
N51	N	0.137964	0.005922	0.661566
C52	C	0.075311	-0.000027	0.731261
N53	N	0.072422	-0.005965	0.800954
N54	N	0.130011	-0.005964	0.800951
C55	C	0.192216	-0.000026	0.731258
C56	C	-0.020720	0.042800	0.774094
C57	C	-0.081347	0.042788	0.774104
C58	C	-0.081350	-0.042877	0.688447
C59	C	-0.020730	-0.042870	0.688444
C60	C	0.009584	-0.000027	0.731266
C61	C	0.823835	-0.000039	0.731275
C62	C	0.888345	-0.000042	0.731277
C63	C	0.633750	-0.000030	0.511944
C64	C	0.633747	-0.000030	0.437507
C65	C	0.707994	0.507829	0.688441
C66	C	0.707991	0.577770	0.688447
C67	C	0.559519	0.492103	0.774104
C68	C	0.559523	0.422164	0.774101
C69	C	0.633763	0.430030	0.731265
C70	C	0.633756	0.569910	0.731274
C71	C	0.633751	0.645743	0.731281
C72	C	0.633768	0.354192	0.731259
C73	C	0.559525	-0.042858	0.309068
C74	C	0.559528	-0.042860	0.239123
C75	C	0.708000	0.042800	0.153473
C76	C	0.707996	0.042796	0.223417
C77	C	0.633756	-0.000031	0.301214
C78	C	0.633763	-0.000029	0.161325
C79	C	0.633768	-0.000031	0.085487
C80	C	0.633751	-0.000030	0.377057
C81	C	0.633769	-0.000030	0.950595
C82	C	0.633772	-0.000030	1.025032
C83	C	0.443693	-0.000020	0.950589
C84	C	0.379186	-0.000017	1.025024
C85	C	0.443675	-0.219356	0.731276
C86	C	0.379162	-0.293794	0.731278
C87	C	0.443684	-0.219356	0.950601
C88	C	0.379174	-0.293794	1.025040
C89	C	0.823835	0.219296	0.511938
C90	C	0.888345	0.293734	0.437499
C91	C	0.823826	-0.000039	0.511950
C92	C	0.888333	-0.000043	0.437515
C93	C	0.823844	0.219297	0.731263
C94	C	0.888357	0.293734	0.731261
C95	C	0.348893	0.042821	1.017150
C96	C	0.288291	0.042841	1.087083
C97	C	0.257978	0.000016	1.164890
C98	C	0.288277	-0.042823	1.172762
C99	C	0.348883	-0.042837	1.102830
C100	C	0.348866	-0.371588	0.774108
C101	C	0.288258	-0.441536	0.774107
C102	C	0.257942	-0.433689	0.731280
C103	C	0.288244	-0.355888	0.688443
C104	C	0.348856	-0.285941	0.688440
C105	C	0.348883	-0.285920	1.102830
C106	C	0.288278	-0.355855	1.172780
C107	C	0.257960	-0.433663	1.164938
C108	C	0.288257	-0.441535	1.087140
C109	C	0.348866	-0.371600	1.017192
C110	C	0.918643	0.285861	0.359709
C111	C	0.979267	0.355796	0.289759
C112	C	1.009588	0.433603	0.297601
C113	C	0.979287	0.441475	0.375399
C114	C	0.918668	0.371540	0.445347
C115	C	0.918632	-0.042874	0.445389
C116	C	0.979251	-0.042874	0.375456
C117	C	1.009566	-0.000047	0.297649
C118	C	0.979264	0.042789	0.289777
C119	C	0.918650	0.042794	0.359709
C120	C	0.918653	0.285861	0.774097
C121	C	0.979262	0.355796	0.774112
C122	C	1.009577	0.433604	0.731284
C123	C	0.979275	0.441475	0.688447
C124	C	0.918664	0.371541	0.688438
H125	H	0.373554	0.077698	0.808952
C126	C	0.788515	0.089287	0.068936
C127	C	0.772633	0.080144	0.009361
C128	C	0.846784	0.122969	-0.068522
H129	H	0.819078	0.068183	0.062687
H130	H	0.819021	0.145652	0.062762
H131	H	0.742139	0.023791	0.015533
H132	H	0.742081	0.101252	0.015584
H133	H	0.877291	0.179334	-0.074697
H134	H	0.877342	0.101861	-0.074763
H135	H	0.836019	0.116778	-0.108953
H136	H	0.499074	-0.077740	0.372411
C137	C	1.012002	-0.089475	0.384186
C138	C	0.972451	-0.127004	0.467295
C139	C	1.002589	-0.169949	0.475371
H140	H	1.069219	-0.052595	0.358760
H141	H	1.002042	-0.130045	0.358723
H142	H	0.982418	-0.086439	0.492748
H143	H	0.915236	-0.163897	0.492738
H144	H	0.992628	-0.210519	0.449908
H145	H	1.059805	-0.133063	0.449941
H146	H	0.975753	-0.195424	0.531760
H147	H	0.768437	0.641115	0.653576
H148	H	0.499082	-0.077736	0.245524
H149	H	0.373540	-0.077726	1.109253
H150	H	0.263581	0.077689	0.808960
H151	H	0.373542	-0.377992	0.808984
H152	H	0.768447	0.077670	0.217016
H153	H	0.373573	0.077704	0.953802
H154	H	1.058932	0.490542	0.731298
H155	H	0.373515	-0.222600	0.653565
H156	H	0.768445	0.514238	0.653560
H157	H	0.263628	0.077726	1.080657
H158	H	0.893954	-0.077754	0.508737
H159	H	0.499075	0.485709	0.808979
C160	C	0.255461	-0.347127	1.257168
C161	C	0.294965	-0.264016	1.249055
C162	C	0.264750	-0.255942	1.326772
H163	H	0.265390	-0.372554	1.286309
H164	H	0.198235	-0.372590	1.286246
H165	H	0.352178	-0.238564	1.219989
H166	H	0.285041	-0.238572	1.219928
H167	H	0.207523	-0.281405	1.355850
H168	H	0.274680	-0.281373	1.355907
H169	H	0.291543	-0.199552	1.321278
C170	C	0.192142	0.000095	1.240714
C171	C	0.172090	0.046761	1.217154
C172	C	0.111436	0.046844	1.286977
H173	H	0.211923	0.023048	1.272410
H174	H	0.144810	-0.054462	1.272358
H175	H	0.219413	0.101308	1.185523
H176	H	0.152296	0.023821	1.185467
H177	H	0.064104	-0.007713	1.318621
H178	H	0.131223	0.069795	1.318669
H179	H	0.097817	0.078499	1.271001
H180	H	1.003927	0.349371	0.808994
C181	C	0.885916	0.380267	0.641834
C182	C	0.925462	0.463377	0.604315
C183	C	0.895328	0.471454	0.561365
H184	H	0.828698	0.354834	0.678710
H185	H	0.895884	0.354810	0.601261
H186	H	0.915488	0.488824	0.644883
H187	H	0.982678	0.488827	0.567426
H188	H	0.905295	0.445997	0.520791
H189	H	0.838110	0.446017	0.598246
H190	H	0.922160	0.527844	0.535896
H191	H	0.893959	0.222512	0.353308
C192	C	0.255222	-0.089306	1.257313
C193	C	0.195645	-0.080139	1.316862
C194	C	0.165164	-0.122961	1.394761
H195	H	0.298647	-0.068214	1.263580
H196	H	0.231518	-0.145675	1.263499
H197	H	0.219351	-0.023782	1.310679
H198	H	0.152206	-0.101236	1.310622
H199	H	0.141459	-0.179329	1.400946
H200	H	0.208594	-0.101865	1.401019
H201	H	0.124733	-0.116753	1.435174
C202	C	1.012286	0.347407	0.205228
C203	C	1.071883	0.425300	0.145640
C204	C	1.102322	0.417602	0.067764
H205	H	0.968845	0.318398	0.198983
H206	H	1.035964	0.318366	0.199062
H207	H	1.048204	0.454328	0.151802
H208	H	1.115338	0.454322	0.151858
H209	H	1.126000	0.388562	0.061599
H210	H	1.058876	0.388591	0.061528
H211	H	1.142767	0.470450	0.027324
C212	C	0.255436	-0.525928	0.820708
C213	C	0.294939	-0.517820	0.858237
C214	C	0.264719	-0.595540	0.901182
H215	H	0.265362	-0.555069	0.783827
H216	H	0.198210	-0.555005	0.861276
H217	H	0.352152	-0.488755	0.817674
H218	H	0.285017	-0.488693	0.895130
H219	H	0.207493	-0.624618	0.941750
H220	H	0.274646	-0.624675	0.864296
H221	H	0.291511	-0.590049	0.926657
H222	H	0.208589	-0.490651	0.731289
C223	C	1.012334	0.526027	0.641960
C224	C	1.071917	0.585578	0.651121
C225	C	1.102403	0.663477	0.608295
H226	H	0.968912	0.532297	0.663051
H227	H	1.036035	0.532208	0.585593
H228	H	1.048217	0.579399	0.707476
H229	H	1.115354	0.579335	0.630026
H230	H	1.126104	0.669659	0.551929
H231	H	1.058976	0.669738	0.629390
H232	H	1.142839	0.703892	0.614499
H233	H	0.263564	-0.504895	1.080767
C234	C	0.478839	0.337759	0.820615
C235	C	0.413822	0.345838	0.858106
C236	C	0.339488	0.268105	0.900952
H237	H	0.475640	0.308626	0.861198
H238	H	0.475712	0.308686	0.783655
H239	H	0.416947	0.374899	0.895062
H240	H	0.416993	0.374958	0.817541
H241	H	0.336361	0.239032	0.863993
H242	H	0.336298	0.238977	0.941531
H243	H	0.295365	0.273576	0.926389
H244	H	0.893980	0.222513	0.808973
C245	C	0.381914	-0.201417	1.111281
C246	C	0.466258	-0.158715	1.073632
C247	C	0.496694	-0.080876	1.081419
H248	H	0.355258	-0.206680	1.167606
H249	H	0.372014	-0.172311	1.085762
H250	H	0.476151	-0.187814	1.099155
H251	H	0.492935	-0.153430	1.017306
H252	H	0.486794	-0.051769	1.055900
H253	H	0.470033	-0.086147	1.137745
H254	H	0.553925	-0.051890	1.055870
H255	H	0.208609	-0.490601	1.221902
C256	C	0.255323	-0.347503	0.641896
C257	C	0.270033	-0.385181	0.582249
C258	C	0.239696	-0.377489	0.539372
H259	H	0.281999	-0.291194	0.616311
H260	H	0.198082	-0.373053	0.678859
H261	H	0.327263	-0.359629	0.545291
H262	H	0.243357	-0.441493	0.607812
H263	H	0.182455	-0.403039	0.576335
H264	H	0.266375	-0.321178	0.513792
H265	H	0.249665	-0.403058	0.498902
H266	H	0.373521	-0.378022	0.953854
H267	H	1.058922	-0.000058	0.240713
H268	H	1.058948	0.490541	0.240637
C269	C	1.012282	0.526026	0.383735
C270	C	1.071834	0.585577	0.305821
C271	C	1.102236	0.663477	0.313466
H272	H	1.035993	0.532291	0.412749
H273	H	0.968793	0.532213	0.412748
H274	H	1.115315	0.579393	0.276820
H275	H	1.048142	0.579340	0.276794
H276	H	1.058747	0.669664	0.342479
H277	H	1.125943	0.669733	0.342482
H278	H	1.142640	0.703891	0.260604
H279	H	1.003956	0.077658	0.226417
C280	C	0.885661	0.089166	0.351100
C281	C	0.850856	0.057815	0.308257
C282	C	0.820453	0.100508	0.300313
H283	H	0.929111	0.145523	0.322007
H284	H	0.845180	0.083024	0.403873
H285	H	0.891334	0.063965	0.255492
H286	H	0.807397	0.001463	0.337337
H287	H	0.779972	0.094365	0.353086
H288	H	0.863907	0.156862	0.271221
H289	H	0.796828	0.079237	0.271250
C290	C	0.255264	-0.089278	0.641955
C291	C	0.195712	-0.080092	0.651100
C292	C	0.165318	-0.122835	0.608283
H293	H	0.231556	-0.145649	0.663063
H294	H	0.298757	-0.068118	0.585591
H295	H	0.152227	-0.101255	0.707453
H296	H	0.219401	-0.023731	0.629989
H297	H	0.208810	-0.101675	0.551918
H298	H	0.141613	-0.179203	0.629394
H299	H	0.124914	-0.116602	0.614475
C300	C	0.381688	-0.089378	0.641859
C301	C	0.342183	-0.126874	0.604338
C302	C	0.372413	-0.169722	0.561409
H303	H	0.371771	-0.129960	0.678748
H304	H	0.438913	-0.052417	0.601287
H305	H	0.284972	-0.163832	0.644905
H306	H	0.352096	-0.086311	0.567436
H307	H	0.429638	-0.132761	0.520838
H308	H	0.362495	-0.210299	0.598303
H309	H	0.345619	-0.195162	0.535940
H310	H	0.003960	0.077683	0.808965
H311	H	0.894000	0.377961	0.508686
H312	H	-0.106029	-0.077749	0.653576
H313	H	-0.106020	0.077664	0.808978
C314	C	0.012264	-0.089244	0.641791
C315	C	0.047075	-0.057903	0.558784
C316	C	0.077485	-0.100599	0.515780
H317	H	-0.031184	-0.145601	0.662840
H318	H	0.052743	-0.083093	0.647867
H319	H	0.006601	-0.064061	0.552712
H320	H	0.090533	-0.001551	0.537712
H321	H	0.117963	-0.094449	0.521856
H322	H	0.034032	-0.156955	0.536835
H323	H	0.101114	-0.079336	0.459454
