data_functionalizedCrystal
_audit_creation_method	'MofGen! by Chris Wilmer'
_symmetry_space_group_name_H-M	'P1'
_symmetry_Int_Tables_number	1
_symmetry_cell_setting	triclinic
loop_
_symmetry_equiv_pos_as_xyz
  x,y,z
_cell_length_a	16.625547
_cell_length_b	16.625546
_cell_length_c	16.625539
_cell_angle_alpha	90.028532
_cell_angle_beta	90.021309
_cell_angle_gamma	90.022405
loop_
_atom_site_label
_atom_site_type_symbol
_atom_site_fract_x
_atom_site_fract_y
_atom_site_fract_z
Zn1	Zn	1.232653	-0.321016	0.455989
Zn2	Zn	1.732653	0.178984	0.955989
Zn3	Zn	1.232564	-0.455855	0.321151
Zn4	Zn	1.732564	0.044145	0.821151
Zn5	Zn	1.097823	-0.321040	0.321160
Zn6	Zn	1.597823	0.178960	0.821160
Zn7	Zn	1.097785	-0.455811	0.455931
Zn8	Zn	1.597785	0.044189	0.955931
O9	O	1.165206	-0.388430	0.388558
O10	O	1.665206	0.111570	0.888558
O11	O	1.345473	-0.338912	0.438123
O12	O	1.845473	0.161088	0.938123
O13	O	1.214669	-0.438000	0.208320
O14	O	1.714669	0.062000	0.708320
O15	O	1.115761	-0.208204	0.339073
O16	O	1.615761	0.291796	0.839073
O17	O	1.345408	-0.437977	0.339059
O18	O	1.845408	0.062023	0.839059
O19	O	1.214820	-0.208187	0.438131
O20	O	1.714820	0.291813	0.938131
O21	O	1.115675	-0.338952	0.208326
O22	O	1.615675	0.161048	0.708326
O23	O	0.984985	-0.338909	0.339017
O24	O	1.484985	0.161091	0.839017
O25	O	1.115696	-0.437901	0.568771
O26	O	1.615696	0.062099	1.068771
O27	O	0.984957	-0.437924	0.438033
O28	O	1.484957	0.062076	0.938033
O29	O	1.214783	-0.338869	0.568814
O30	O	1.714783	0.161131	1.068814
O31	O	1.214632	-0.568682	0.339003
O32	O	1.714632	-0.068682	0.839003
O33	O	1.115611	-0.568649	0.438025
O34	O	1.615611	-0.068649	0.938025
C35	C	0.955715	-0.388415	0.388520
C36	C	1.455715	0.111585	0.888520
C37	C	0.866094	-0.388428	0.388523
C38	C	1.366094	0.111572	0.888523
C39	C	0.793312	-0.388429	0.388533
C40	C	1.293312	0.111571	0.888533
C41	C	0.702003	-0.388433	0.388553
C42	C	1.202003	0.111567	0.888553
C43	C	0.629227	-0.388441	0.388573
C44	C	1.129227	0.111559	0.888573
C45	C	0.537912	-0.388446	0.388593
C46	C	1.037912	0.111554	0.888593
C47	C	1.165130	-0.597921	0.388524
C48	C	1.665130	-0.097921	0.888524
C49	C	1.165171	-0.687542	0.388537
C50	C	1.665171	-0.187542	0.888537
C51	C	1.165311	-1.015718	0.388621
C52	C	1.665311	-0.515718	0.888621
C53	C	1.165270	-0.924410	0.388599
C54	C	1.665270	-0.424410	0.888599
C55	C	1.165240	-0.851633	0.388578
C56	C	1.665240	-0.351633	0.888578
C57	C	1.165200	-0.760319	0.388558
C58	C	1.665200	-0.260319	0.888558
C59	C	1.375515	-0.388447	0.388597
C60	C	1.875515	0.111553	0.888597
C61	C	1.465136	-0.388454	0.388613
C62	C	1.965136	0.111546	0.888613
C63	C	1.165246	-0.388377	0.598867
C64	C	1.665246	0.111623	1.098867
C65	C	1.165262	-0.388355	0.688488
C66	C	1.665262	0.111645	1.188488
C67	C	1.165305	-0.178122	0.388609
C68	C	1.665305	0.321878	0.888609
C69	C	1.165347	-0.088500	0.388631
C70	C	1.665347	0.411500	0.888631
C71	C	1.165213	-0.388425	0.179067
C72	C	1.665213	0.111575	0.679067
C73	C	1.165352	-0.388221	0.089446
C74	C	1.665352	0.111779	0.589446
C75	C	1.165276	-0.388337	0.761271
C76	C	1.665276	0.111663	1.261271
C77	C	1.165294	-0.388307	0.852579
C78	C	1.665294	0.111693	1.352579
C79	C	1.165313	-0.388278	0.925356
C80	C	1.665313	0.111722	1.425356
C81	C	1.165333	-0.388249	1.016670
C82	C	1.665333	0.111751	1.516670
