data_functionalizedCrystal
_audit_creation_method	'MofGen! by Chris Wilmer'
_symmetry_space_group_name_H-M	'P1'
_symmetry_Int_Tables_number	1
_symmetry_cell_setting	triclinic
loop_
_symmetry_equiv_pos_as_xyz
  x,y,z
_cell_length_a	14.044220
_cell_length_b	26.809956
_cell_length_c	14.044220
_cell_angle_alpha	90.003850
_cell_angle_beta	86.811122
_cell_angle_gamma	90.004656
loop_
_atom_site_label
_atom_site_type_symbol
_atom_site_fract_x
_atom_site_fract_y
_atom_site_fract_z
O1	O	1.277174	0.041429	-0.230155
O2	O	1.000503	0.041441	-0.221849
O3	O	1.134686	0.041430	-0.087666
O4	O	1.142991	0.041440	-0.364338
O5	O	1.134660	-0.041529	-0.087686
O6	O	1.000477	-0.041518	-0.221869
O7	O	1.277149	-0.041531	-0.230175
Zn8	Zn	1.138809	-0.054696	-0.226025
Zn9	Zn	1.138843	0.054606	-0.225999
O10	O	1.142966	-0.041520	-0.364358
C11	C	0.964868	-0.000037	-0.218223
C12	C	0.858725	-0.000032	-0.207379
N13	N	1.138792	-0.129292	-0.226043
C14	C	0.664388	-0.000043	-0.187553
C15	C	0.613258	-0.000042	-0.264467
C16	C	0.505122	-0.000048	-0.253435
C17	C	0.772534	-0.000037	-0.198583
C18	C	1.198252	-0.473923	-0.166598
C19	C	1.198273	-0.682801	-0.166585
O20	O	1.248790	-0.709809	-0.116045
N21	N	1.138846	-0.708919	-0.225978
C22	C	1.079405	-0.682815	-0.285374
O23	O	1.028852	-0.709823	-0.335884
C24	C	1.079379	-0.473938	-0.285381
C25	C	1.138817	-0.447822	-0.225991
C26	C	1.257684	-0.447807	-0.107212
C27	C	1.257682	-0.395591	-0.107220
C28	C	1.198248	-0.369490	-0.166613
C29	C	1.138815	-0.395606	-0.225999
C30	C	1.019933	-0.447835	-0.344771
C31	C	1.019931	-0.395613	-0.344766
C32	C	1.079369	-0.369497	-0.285376
C33	C	1.079378	-0.317289	-0.285399
N34	N	1.138805	-0.291171	-0.226006
C35	C	1.198240	-0.317271	-0.166613
C36	C	1.079424	-0.792478	-0.285367
C37	C	1.079431	-0.844697	-0.285367
C38	C	1.198299	-0.844679	-0.166577
C39	C	1.198296	-0.792459	-0.166583
C40	C	1.138851	-0.766360	-0.225974
C41	C	1.198232	-0.207613	-0.166634
C42	C	1.198227	-0.155392	-0.166650
C43	C	1.079356	-0.155415	-0.285436
C44	C	1.079364	-0.207631	-0.285424
C45	C	1.138805	-0.233729	-0.226016
O46	O	1.028881	-0.290249	-0.335905
O47	O	1.248770	-0.290254	-0.116096
C48	C	1.198254	-0.526139	-0.166590
C49	C	1.138822	-0.552255	-0.225976
C50	C	1.079387	-0.526155	-0.285369
C51	C	1.138829	-0.604474	-0.225976
C52	C	1.198264	-0.630574	-0.166582
C53	C	1.257691	-0.604456	-0.107190
C54	C	1.257689	-0.552240	-0.107197
C55	C	1.019960	-0.552273	-0.344762
C56	C	1.019967	-0.604489	-0.344750
C57	C	1.079402	-0.630590	-0.285357
C58	C	1.312783	-0.000052	-0.233800
C59	C	1.418926	-0.000053	-0.244645
C60	C	1.131037	-0.000050	-0.052054
C61	C	1.120193	-0.000050	0.054088
N62	N	1.138866	0.129202	-0.225974
C63	C	1.146614	-0.000039	-0.399969
C64	C	1.157459	-0.000036	-0.506112
C65	C	1.100366	-0.000042	0.248426
C66	C	1.177281	-0.000044	0.299556
C67	C	1.166249	-0.000039	0.407692
C68	C	1.111397	-0.000046	0.140280
H69	H	0.626951	-0.000048	-0.113425
C70	C	1.263609	-0.126665	-0.101315
C71	C	1.328981	-0.155379	-0.035979
C72	C	1.394359	-0.126654	0.029355
C73	C	1.394366	-0.069215	0.029354
C74	C	1.328992	-0.040498	-0.035984
C75	C	1.263614	-0.069223	-0.101318
H76	H	1.328978	-0.197902	-0.035976
H77	H	1.442753	-0.147913	0.077722
H78	H	1.442763	-0.047951	0.077718
H79	H	1.328995	0.002024	-0.035987
H80	H	1.215220	-0.047965	-0.149685
H81	H	1.246632	-0.228856	-0.118257
H82	H	1.026239	-0.000037	0.285863
C83	C	1.277434	-0.000054	0.248988
C84	C	1.347002	-0.043138	0.265918
C85	C	1.447152	-0.043150	0.215347
C86	C	1.477734	-0.000078	0.147846
C87	C	1.408164	0.043009	0.130913
C88	C	1.308015	0.043021	0.181484
H89	H	1.324365	-0.075025	0.315889
H90	H	1.498652	-0.075046	0.227883
H91	H	1.551870	-0.000087	0.110411
H92	H	1.430801	0.074896	0.080942
H93	H	1.256515	0.074917	0.168949
H94	H	0.650697	-0.000037	-0.338600
H95	H	1.306079	-0.374330	-0.058857
H96	H	1.306083	-0.469054	-0.058843
C97	C	1.014057	-0.873422	-0.350704
C98	C	1.057526	-0.909319	-0.426901
C99	C	0.992145	-0.938042	-0.492236
C100	C	0.883293	-0.930866	-0.481374
C101	C	0.839818	-0.894967	-0.405174
C102	C	0.905200	-0.866245	-0.339839
H103	H	1.138109	-0.914632	-0.434945
H104	H	1.024328	-0.964617	-0.548644
H105	H	0.834894	-0.952128	-0.529739
H106	H	0.759235	-0.889654	-0.397131
H107	H	0.873016	-0.839669	-0.283431
H108	H	1.246695	-0.771199	-0.118222
C109	C	0.954544	-0.476555	-0.410094
C110	C	0.878379	-0.512454	-0.366564
C111	C	0.812984	-0.541174	-0.431888
C112	C	0.823752	-0.533995	-0.540743
C113	C	0.899920	-0.498095	-0.584279
C114	C	0.965316	-0.469375	-0.518954
H115	H	0.870405	-0.517769	-0.285978
H116	H	0.756599	-0.567749	-0.399659
H117	H	0.775343	-0.555255	-0.589100
H118	H	0.907895	-0.492779	-0.664864
H119	H	1.021700	-0.442799	-0.551183
C120	C	1.013988	-0.236360	-0.350759
C121	C	0.905138	-0.229179	-0.339900
C122	C	0.839752	-0.257902	-0.405229
C123	C	0.883216	-0.293807	-0.481417
C124	C	0.992071	-0.300989	-0.492279
C125	C	1.057457	-0.272266	-0.426950
H126	H	0.872958	-0.202599	-0.283499
H127	H	0.759169	-0.252585	-0.397188
H128	H	0.834813	-0.315069	-0.529778
H129	H	1.024251	-0.327569	-0.548681
H130	H	1.138040	-0.277583	-0.434992
C131	C	1.013976	-0.126699	-0.350764
C132	C	1.013971	-0.069260	-0.350760
C133	C	0.948584	-0.040544	-0.416082
C134	C	0.883201	-0.069266	-0.481409
C135	C	0.883204	-0.126708	-0.481416
C136	C	0.948591	-0.155425	-0.416093
H137	H	1.062373	-0.047996	-0.302399
H138	H	0.948582	0.001979	-0.416077
H139	H	0.834798	-0.048009	-0.529765
H140	H	0.834802	-0.147973	-0.529776
H141	H	0.948593	-0.197947	-0.416098
H142	H	1.306089	-0.530980	-0.058836
H143	H	1.246694	-0.865939	-0.118218
C144	C	1.323069	-0.633173	-0.041854
C145	C	1.312278	-0.625991	0.067001
C146	C	1.377647	-0.654711	0.132337
C147	C	1.453807	-0.690612	0.088819
C148	C	1.464601	-0.697795	-0.020042
C149	C	1.399232	-0.669076	-0.085378
H150	H	1.255896	-0.599414	0.099221
H151	H	1.369655	-0.649393	0.212923
H152	H	1.502197	-0.711872	0.137185
H153	H	1.520982	-0.724373	-0.052262
H154	H	1.407223	-0.674393	-0.165964
C155	C	0.954580	-0.633214	-0.410084
C156	C	0.845730	-0.626033	-0.399214
C157	C	0.780338	-0.654756	-0.464538
C158	C	0.823795	-0.690659	-0.540732
C159	C	0.932650	-0.697841	-0.551605
C160	C	0.998043	-0.669119	-0.486281
H161	H	0.813556	-0.599454	-0.342808
H162	H	0.699756	-0.649439	-0.456488
H163	H	0.775388	-0.711921	-0.589088
H164	H	0.964825	-0.724420	-0.608011
H165	H	1.078625	-0.674435	-0.494331
H166	H	1.031016	-0.771231	-0.333733
H167	H	0.971521	-0.374365	-0.393128
H168	H	0.971559	-0.531026	-0.393126
