data_functionalizedCrystal
_audit_creation_method	'MofGen! by Chris Wilmer'
_symmetry_space_group_name_H-M	'P1'
_symmetry_Int_Tables_number	1
_symmetry_cell_setting	triclinic
loop_
_symmetry_equiv_pos_as_xyz
  x,y,z
_cell_length_a	9.065218
_cell_length_b	8.140239
_cell_length_c	9.065218
_cell_angle_alpha	90.001686
_cell_angle_beta	85.015885
_cell_angle_gamma	90.002802
loop_
_atom_site_label
_atom_site_type_symbol
_atom_site_fract_x
_atom_site_fract_y
_atom_site_fract_z
O1	O	-1.960398	-0.136610	-0.216355
O2	O	-1.627065	0.196723	0.116979
O3	O	-1.293731	0.530056	0.450312
O4	O	-1.531113	-0.136612	-0.234101
O5	O	-1.197780	0.196721	0.099232
O6	O	-0.864446	0.530055	0.432566
O7	O	-1.754629	-0.136608	-0.010585
O8	O	-1.421295	0.196726	0.322748
O9	O	-1.087962	0.530059	0.656081
O10	O	-1.736882	-0.136615	-0.439870
O11	O	-1.403549	0.196719	-0.106537
O12	O	-1.070216	0.530052	0.226796
O13	O	-1.754616	0.136619	-0.010583
O14	O	-1.421283	0.469953	0.322751
O15	O	-1.087950	0.803286	0.656084
O16	O	-1.531101	0.136615	-0.234098
O17	O	-1.197767	0.469948	0.099235
O18	O	-0.864434	0.803282	0.432568
O19	O	-1.960385	0.136617	-0.216352
O20	O	-1.627052	0.469950	0.116981
O21	O	-1.293719	0.803283	0.450315
Zn22	Zn	-1.745741	0.179997	-0.225225
Zn23	Zn	-1.412408	0.513330	0.108109
Zn24	Zn	-1.079074	0.846663	0.441442
Zn25	Zn	-1.745758	-0.179992	-0.225228
Zn26	Zn	-1.412424	0.153341	0.108105
Zn27	Zn	-1.079091	0.486675	0.441438
O28	O	-1.736870	0.136613	-0.439868
O29	O	-1.403536	0.469946	-0.106534
O30	O	-1.070203	0.803279	0.226799
C31	C	-1.476120	0.000001	-0.232394
C32	C	-1.142787	0.333335	0.100939
C33	C	-0.809454	0.666668	0.434273
C34	C	-1.312277	0.000000	-0.227294
C35	C	-0.978944	0.333334	0.106039
C36	C	-0.645611	0.666667	0.439372
N37	N	-1.745741	0.425679	-0.225221
N38	N	-1.412407	0.759012	0.108112
N39	N	-1.079074	1.092346	0.441445
C40	C	-1.752917	0.000003	0.044403
C41	C	-1.419584	0.333336	0.377736
C42	C	-1.086250	0.666670	0.711069
C43	C	-1.747817	-0.000005	0.208245
C44	C	-1.414484	0.333329	0.541579
C45	C	-1.081151	0.666662	0.874912
C46	C	-2.015378	-0.000000	-0.218059
C47	C	-1.682045	0.333333	0.115275
C48	C	-1.348712	0.666667	0.448608
C49	C	-2.179221	-0.000010	-0.223158
C50	C	-1.845888	0.333323	0.110175
C51	C	-1.512555	0.666657	0.443508
N52	N	-1.745770	-0.425674	-0.225220
N53	N	-1.412436	-0.092341	0.108113
N54	N	-1.079103	0.240992	0.441447
C55	C	-1.738582	-0.000002	-0.494855
C56	C	-1.405248	0.333331	-0.161522
C57	C	-1.071915	0.666665	0.171811
C58	C	-1.743681	-0.000005	-0.658698
C59	C	-1.410348	0.333328	-0.325365
C60	C	-1.077015	0.666662	0.007968
