data_functionalizedCrystal
_audit_creation_method	'MofGen! by Chris Wilmer'
_symmetry_space_group_name_H-M	'P1'
_symmetry_Int_Tables_number	1
_symmetry_cell_setting	triclinic
loop_
_symmetry_equiv_pos_as_xyz
  x,y,z
_cell_length_a	18.215407
_cell_length_b	14.908520
_cell_length_c	18.215398
_cell_angle_alpha	93.271864
_cell_angle_beta	89.980536
_cell_angle_gamma	93.321174
loop_
_atom_site_label
_atom_site_type_symbol
_atom_site_fract_x
_atom_site_fract_y
_atom_site_fract_z
Zn1	Zn	1.108174	-0.359182	-0.433018
Zn2	Zn	1.441507	-0.025848	-0.099685
Zn3	Zn	1.774840	0.307485	0.233648
Zn4	Zn	1.100987	-0.510045	-0.317051
Zn5	Zn	1.434320	-0.176711	0.016282
Zn6	Zn	1.767653	0.156622	0.349615
Zn7	Zn	0.985106	-0.359205	-0.309967
Zn8	Zn	1.318439	-0.025871	0.023367
Zn9	Zn	1.651773	0.307462	0.356700
Zn10	Zn	0.977978	-0.510001	-0.440074
Zn11	Zn	1.311311	-0.176668	-0.106741
Zn12	Zn	1.644644	0.156666	0.226592
O13	O	1.043061	-0.434608	-0.375028
O14	O	1.376394	-0.101275	-0.041694
O15	O	1.709728	0.232059	0.291639
O16	O	1.210204	-0.379203	-0.417647
O17	O	1.543538	-0.045869	-0.084314
O18	O	1.876871	0.287464	0.249020
O19	O	1.085590	-0.490063	-0.213129
O20	O	1.418923	-0.156730	0.120205
O21	O	1.752257	0.176604	0.453538
O22	O	1.007422	-0.232956	-0.320372
O23	O	1.340756	0.100377	0.012961
O24	O	1.674089	0.433710	0.346295
O25	O	1.204924	-0.490041	-0.332447
O26	O	1.538257	-0.156708	0.000887
O27	O	1.871590	0.176626	0.334220
O28	O	1.097840	-0.232939	-0.410777
O29	O	1.431173	0.100394	-0.077444
O30	O	1.764506	0.433727	0.255889
O31	O	1.000453	-0.379242	-0.207924
O32	O	1.333786	-0.045908	0.125410
O33	O	1.667120	0.287425	0.458743
O34	O	0.881177	-0.379199	-0.327214
O35	O	1.214510	-0.045866	0.006119
O36	O	1.547843	0.287467	0.339453
O37	O	0.995273	-0.489967	-0.542121
O38	O	1.328607	-0.156633	-0.208788
O39	O	1.661940	0.176700	0.124545
O40	O	0.875940	-0.489989	-0.422803
O41	O	1.209273	-0.156656	-0.089470
O42	O	1.542606	0.176678	0.243863
O43	O	1.090928	-0.379160	-0.536937
O44	O	1.424261	-0.045827	-0.203604
O45	O	1.757594	0.287506	0.129729
O46	O	1.078678	-0.636284	-0.339289
O47	O	1.412011	-0.302951	-0.005955
O48	O	1.745345	0.030382	0.327378
O49	O	0.988304	-0.636252	-0.429673
O50	O	1.321637	-0.302919	-0.096340
O51	O	1.654971	0.030415	0.236994
C52	C	0.851855	-0.434593	-0.375006
C53	C	1.185189	-0.101259	-0.041673
C54	C	1.518522	0.232074	0.291661
C55	C	0.770056	-0.434608	-0.375015
C56	C	1.103389	-0.101274	-0.041682
C57	C	1.436723	0.232059	0.291652
C58	C	0.579150	-0.492386	-0.424734
C59	C	0.912483	-0.159053	-0.091400
C60	C	1.245817	0.174280	0.241933
C61	C	0.502291	-0.492389	-0.424743
C62	C	0.835624	-0.159056	-0.091410
C63	C	1.168958	0.174277	0.241924
C64	C	0.507723	-0.376846	-0.325339
C65	C	0.841057	-0.043513	0.007995
C66	C	1.174390	0.289821	0.341328
C67	C	0.584581	-0.376839	-0.325333
C68	C	0.917914	-0.043506	0.008000
C69	C	1.251248	0.289827	0.341333
C70	C	0.620292	-0.434615	-0.375030
C71	C	0.953625	-0.101281	-0.041697
C72	C	1.286959	0.232052	0.291637
C73	C	0.466576	-0.434624	-0.375045
C74	C	0.799909	-0.101291	-0.041711
C75	C	1.133242	0.232043	0.291622
C76	C	0.383242	-0.434627	-0.375054
C77	C	0.716575	-0.101293	-0.041721
C78	C	1.049908	0.232040	0.291612
C79	C	0.703631	-0.434611	-0.375021
C80	C	1.036965	-0.101278	-0.041688
C81	C	1.370298	0.232056	0.291645
C82	C	1.031958	-0.669002	-0.386031
C83	C	1.365291	-0.335669	-0.052698
C84	C	1.698624	-0.002336	0.280635
C85	C	1.027275	-0.769277	-0.390763
C86	C	1.360608	-0.435944	-0.057430
C87	C	1.693942	-0.102610	0.275903
C88	C	1.112679	-0.957676	-0.305614
C89	C	1.446012	-0.624343	0.027720
C90	C	1.779345	-0.291010	0.361053
C91	C	1.108281	-1.051893	-0.310057
C92	C	1.441615	-0.718560	0.023276
C93	C	1.774948	-0.385227	0.356609
C94	C	1.014087	-1.051930	-0.404098
C95	C	1.347420	-0.718597	-0.070764
C96	C	1.680754	-0.385263	0.262569
C97	C	1.018484	-0.957713	-0.399654
C98	C	1.351818	-0.624380	-0.066321
C99	C	1.685151	-0.291046	0.267013
C100	C	1.067781	-0.910589	-0.350409
C101	C	1.401114	-0.577256	-0.017076
C102	C	1.734448	-0.243923	0.316257
C103	C	1.072174	-0.816371	-0.345963
C104	C	1.405508	-0.483037	-0.012629
C105	C	1.738841	-0.149704	0.320704
C106	C	0.977984	-0.816409	-0.440006
C107	C	1.311317	-0.483076	-0.106673
C108	C	1.644651	-0.149742	0.226661
C109	C	0.973587	-0.910626	-0.444450
C110	C	1.306920	-0.577293	-0.111116
C111	C	1.640253	-0.243959	0.222217
C112	C	1.235013	-0.434624	-0.375050
C113	C	1.568346	-0.101291	-0.041717
C114	C	1.901680	0.232043	0.291617
C115	C	1.316812	-0.434631	-0.375060
C116	C	1.650145	-0.101298	-0.041726
C117	C	1.983478	0.232036	0.291607
C118	C	1.043107	-0.434556	-0.566978
C119	C	1.376440	-0.101223	-0.233645
C120	C	1.709774	0.232111	0.099688
C121	C	1.043127	-0.434534	-0.648776
C122	C	1.376460	-0.101201	-0.315443
C123	C	1.709793	0.232133	0.017890
C124	C	1.054228	-0.199299	-0.363997
C125	C	1.387561	0.134035	-0.030664
C126	C	1.720894	0.467368	0.302669
C127	C	1.058986	-0.099024	-0.359297
C128	C	1.392320	0.234310	-0.025964
C129	C	1.725653	0.567643	0.307370
C130	C	1.087496	-0.492127	-0.916543
C131	C	1.420830	-0.158794	-0.583210
C132	C	1.754163	0.174539	-0.249877
C133	C	1.087484	-0.492159	-0.839686
C134	C	1.420817	-0.158825	-0.506353
C135	C	1.754150	0.174508	-0.173019
C136	C	0.998821	-0.376767	-0.834250
C137	C	1.332154	-0.043433	-0.500916
C138	C	1.665487	0.289900	-0.167583
C139	C	0.998830	-0.376740	-0.911106
C140	C	1.332163	-0.043407	-0.577772
C141	C	1.665497	0.289926	-0.244439
C142	C	1.043172	-0.434420	-0.952251
C143	C	1.376505	-0.101086	-0.618917
C144	C	1.709839	0.232247	-0.285584
C145	C	1.043150	-0.434477	-0.798537
C146	C	1.376483	-0.101144	-0.465204
C147	C	1.709817	0.232190	-0.131870
C148	C	1.043136	-0.434510	-0.715205
C149	C	1.376469	-0.101177	-0.381872
C150	C	1.709803	0.232156	-0.048538
C151	C	1.043185	-0.434388	-1.035588
C152	C	1.376519	-0.101054	-0.702255
C153	C	1.709852	0.232279	-0.368921
C154	C	1.043061	-0.434595	-0.183821
C155	C	1.376394	-0.101261	0.149512
C156	C	1.709727	0.232072	0.482846
C157	C	1.043196	-0.434362	-0.102011
C158	C	1.376529	-0.101029	0.231322
C159	C	1.709862	0.232304	0.564655
H160	H	0.478638	-0.329809	-0.284876
H161	H	0.811971	0.003525	0.048457
H162	H	1.145304	0.336858	0.381790
Cl163	Cl	0.943097	-0.304239	-0.782519
Cl164	Cl	1.276431	0.029094	-0.449185
Cl165	Cl	1.609764	0.362427	-0.115852
H166	H	0.973957	-1.090314	-0.444195
H167	H	1.307290	-0.756981	-0.110861
H168	H	1.640624	-0.423648	0.222472
H169	H	0.618080	-0.329789	-0.284858
H170	H	0.951414	0.003545	0.048475
H171	H	1.284747	0.336878	0.381808
Cl172	Cl	0.943092	-0.304201	-0.955999
Cl173	Cl	1.276425	0.029132	-0.622666
Cl174	Cl	1.609758	0.362466	-0.289332
Cl175	Cl	0.921528	-0.757209	-0.496314
Cl176	Cl	1.254862	-0.423875	-0.162981
Cl177	Cl	1.588195	-0.090542	0.170352
H178	H	1.123602	-0.539094	-0.950041
H179	H	1.456935	-0.205761	-0.616708
H180	H	1.790268	0.127572	-0.283375
H181	H	0.608224	-0.539429	-0.465202
H182	H	0.941557	-0.206095	-0.131868
H183	H	1.274890	0.127238	0.201465
Cl184	Cl	0.450573	-0.565018	-0.487232
Cl185	Cl	0.783906	-0.231685	-0.153898
Cl186	Cl	1.117239	0.101648	0.179435
Cl187	Cl	1.143207	-0.564710	-0.794800
Cl188	Cl	1.476540	-0.231377	-0.461467
Cl189	Cl	1.809874	0.101956	-0.128134
Cl190	Cl	0.911620	-0.969876	-0.506355
Cl191	Cl	1.244953	-0.636542	-0.173022
Cl192	Cl	1.578286	-0.303209	0.160311
H193	H	1.112312	-0.778003	-0.305863
H194	H	1.445645	-0.444670	0.027470
H195	H	1.778979	-0.111337	0.360803
H196	H	1.144843	-1.090228	-0.273581
H197	H	1.478176	-0.756895	0.059752
H198	H	1.811510	-0.423561	0.393085
Cl199	Cl	1.174639	-0.898432	-0.243698
Cl200	Cl	1.507972	-0.565099	0.089636
Cl201	Cl	1.841305	-0.231765	0.422969
