data_functionalizedCrystal
_audit_creation_method	'MofGen! by Chris Wilmer'
_symmetry_space_group_name_H-M	'P1'
_symmetry_Int_Tables_number	1
_symmetry_cell_setting	triclinic
loop_
_symmetry_equiv_pos_as_xyz
  x,y,z
_cell_length_a	6.817900
_cell_length_b	12.200863
_cell_length_c	10.992410
_cell_angle_alpha	92.441369
_cell_angle_beta	108.764651
_cell_angle_gamma	107.143441
loop_
_atom_site_label
_atom_site_type_symbol
_atom_site_fract_x
_atom_site_fract_y
_atom_site_fract_z
V1	V	-4.105850	-0.158712	-0.400724
O2	O	-4.072780	0.007627	-0.392961
O3	O	-4.075174	-0.314700	-0.398112
O4	O	-4.083571	-0.156271	-0.575434
O5	O	-4.064325	-0.151899	-0.214412
V6	V	-4.583796	-0.138816	-0.378424
O7	O	-4.379341	-0.202356	-0.449641
O8	O	-4.760503	-0.095173	-0.329506
O9	O	-4.391265	0.017171	-0.381035
O10	O	-4.734263	-0.305156	-0.386186
O11	O	-4.742718	-0.145630	-0.564736
O12	O	-4.382868	-0.141258	-0.203713
C13	C	-3.923642	-0.352727	-0.391824
C14	C	-3.980022	-0.480248	-0.390853
C15	C	-4.083210	-0.713725	-0.389087
C16	C	-4.025781	-0.583802	-0.390070
C17	C	-3.934351	-0.150633	-0.618014
C18	C	-3.997537	-0.149669	-0.760842
C19	C	-3.865124	-0.140887	-0.955958
C20	C	-3.799496	-0.142364	-0.807476
C21	C	-4.189568	-0.262775	-0.838039
C22	C	-4.253934	-0.261775	-0.986604
C23	C	-4.143289	-0.042761	-0.948392
C24	C	-4.072609	-0.042225	-0.799379
C25	C	-4.206140	0.055192	-0.387320
C26	C	-4.128999	0.182712	-0.388299
C27	C	-4.195430	-0.146899	-0.161126
C28	C	-4.111482	-0.147857	-0.018298
H29	H	-3.655344	-0.061037	-0.754068
H30	H	-3.836191	-0.216399	-1.004012
H31	H	-4.339444	-0.272205	-0.809243
H32	H	-3.738265	-0.218926	-0.782724
H33	H	-4.214792	-0.040897	-0.766866
H34	H	-4.322056	-0.046872	-0.989236
H35	H	-4.044920	0.043129	-0.968680
H36	H	-4.234161	-0.341351	-1.032940
C37	C	-4.499098	-0.275076	-1.044217
H38	H	-4.558956	-0.281074	-0.976806
H39	H	-4.515840	-0.209281	-1.084193
H40	H	-4.573760	-0.343112	-1.107181
H41	H	-3.933782	0.041445	-0.746952
H42	H	-3.752254	-0.059000	-0.974720
H43	H	-4.139585	-0.342547	-0.812499
