data_functionalizedCrystal
_audit_creation_method	'MofGen! by Chris Wilmer'
_symmetry_space_group_name_H-M	'P1'
_symmetry_Int_Tables_number	1
_symmetry_cell_setting	triclinic
loop_
_symmetry_equiv_pos_as_xyz
  x,y,z
_cell_length_a	18.366186
_cell_length_b	19.288840
_cell_length_c	19.288865
_cell_angle_alpha	96.868869
_cell_angle_beta	90.010368
_cell_angle_gamma	89.983695
loop_
_atom_site_label
_atom_site_type_symbol
_atom_site_fract_x
_atom_site_fract_y
_atom_site_fract_z
O1	O	-0.060680	0.921364	-0.086565
O2	O	0.272654	1.254697	0.246769
O3	O	0.605987	1.588031	0.580102
O4	O	-0.060655	0.719101	-0.098272
O5	O	0.272678	1.052434	0.235062
O6	O	0.606011	1.385768	0.568395
O7	O	-0.060654	0.826077	0.008713
O8	O	0.272680	1.159410	0.342046
O9	O	0.606013	1.492744	0.675379
O10	O	-0.060681	0.814388	-0.193549
O11	O	0.272652	1.147721	0.139784
O12	O	0.605985	1.481055	0.473118
O13	O	0.060446	0.826058	0.008716
O14	O	0.393779	1.159392	0.342049
O15	O	0.727112	1.492725	0.675382
O16	O	0.060444	0.719082	-0.098269
O17	O	0.393777	1.052416	0.235065
O18	O	0.727111	1.385749	0.568398
O19	O	0.060420	0.921346	-0.086562
O20	O	0.393753	1.254679	0.246772
O21	O	0.727086	1.588012	0.580105
Zn22	Zn	0.079659	0.820211	-0.092415
Zn23	Zn	0.412992	1.153544	0.240919
Zn24	Zn	0.746326	1.486878	0.574252
Zn25	Zn	-0.079895	0.820235	-0.092419
Zn26	Zn	0.253439	1.153569	0.240915
Zn27	Zn	0.586772	1.486902	0.574248
O28	O	0.060418	0.814370	-0.193546
O29	O	0.393751	1.147703	0.139787
O30	O	0.727085	1.481036	0.473121
C31	C	-0.000102	0.693215	-0.097896
C32	C	0.333231	1.026548	0.235437
C33	C	0.666564	1.359882	0.568770
C34	C	-0.000093	0.616110	-0.096774
C35	C	0.333241	0.949444	0.236559
C36	C	0.666574	1.282777	0.569892
N37	N	0.188550	0.820200	-0.092412
N38	N	0.521883	1.153533	0.240922
N39	N	0.855217	1.486866	0.574255
N40	N	-0.188786	0.820252	-0.092416
N41	N	0.144548	1.153586	0.240917
N42	N	0.477881	1.486919	0.574251
C43	C	-0.066106	0.579917	-0.096237
C44	C	0.267228	0.913250	0.237096
C45	C	0.600561	1.246584	0.570430
C46	C	-0.066114	0.507470	-0.095175
C47	C	0.267219	0.840803	0.238159
C48	C	0.600552	1.174137	0.571492
C49	C	-0.000106	0.471221	-0.094636
C50	C	0.333227	0.804555	0.238697
C51	C	0.666560	1.137888	0.572030
C52	C	0.065915	0.507423	-0.095178
C53	C	0.399249	0.840756	0.238156
C54	C	0.732582	1.174090	0.571489
C55	C	0.065922	0.579868	-0.096247
C56	C	0.399256	0.913201	0.237087
C57	C	0.732589	1.246534	0.570420
C58	C	0.050461	0.361886	-0.052257
C59	C	0.383794	0.695219	0.281076
C60	C	0.717127	1.028553	0.614409
C61	C	0.050451	0.289443	-0.051184
C62	C	0.383784	0.622777	0.282149
C63	C	0.717118	0.956110	0.615483
C64	C	-0.000125	0.247778	-0.091342
C65	C	0.333208	0.581111	0.241991
C66	C	0.666542	0.914444	0.575325
C67	C	-0.050703	0.278565	-0.132565
C68	C	0.282630	0.611898	0.200769
C69	C	0.615963	0.945232	0.534102
C70	C	-0.050697	0.351009	-0.133634
C71	C	0.282637	0.684343	0.199699
C72	C	0.615970	1.017676	0.533033
C73	C	-0.000107	0.392667	-0.093477
C74	C	0.333227	0.726001	0.239856
C75	C	0.666560	1.059334	0.573189
C76	C	-0.066152	0.133029	-0.089654
C77	C	0.267181	0.466362	0.243679
C78	C	0.600515	0.799695	0.577013
C79	C	-0.066158	0.060580	-0.088596
C80	C	0.267175	0.393913	0.244737
C81	C	0.600509	0.727247	0.578070
C82	C	0.065874	0.060535	-0.088592
C83	C	0.399207	0.393869	0.244741
C84	C	0.732540	0.727202	0.578074
C85	C	0.065878	0.132982	-0.089657
C86	C	0.399211	0.466315	0.243676
C87	C	0.732544	0.799648	0.577010
C88	C	-0.000137	0.169225	-0.090185
C89	C	0.333196	0.502558	0.243149
C90	C	0.666530	0.835891	0.576482
C91	C	0.226633	0.862188	-0.134432
C92	C	0.559966	1.195521	0.198902
C93	C	0.893300	1.528854	0.532235
C94	C	0.302861	0.862199	-0.134430
C95	C	0.636194	1.195532	0.198904
C96	C	0.969528	1.528866	0.532237
C97	C	0.341003	0.820209	-0.092416
C98	C	0.674336	1.153543	0.240918
C99	C	1.007670	1.486876	0.574251
C100	C	0.302911	0.778219	-0.050387
C101	C	0.636244	1.111552	0.282946
C102	C	0.969577	1.444885	0.616279
C103	C	0.226684	0.778214	-0.050385
C104	C	0.560018	1.111547	0.282948
C105	C	0.893351	1.444880	0.616282
C106	C	0.461792	0.757597	-0.090665
C107	C	0.795125	1.090930	0.242669
C108	C	1.128459	1.424263	0.576002
C109	C	0.538017	0.757600	-0.090672
C110	C	0.871350	1.090934	0.242662
C111	C	1.204684	1.424267	0.575995
C112	C	0.576110	0.820225	-0.092418
C113	C	0.909444	1.153558	0.240915
C114	C	1.242777	1.486892	0.574248
C115	C	0.537970	0.882847	-0.094172
C116	C	0.871303	1.216181	0.239161
C117	C	1.204636	1.549514	0.572495
C118	C	0.461743	0.882842	-0.094170
C119	C	0.795077	1.216176	0.239163
C120	C	1.128410	1.549509	0.572497
C121	C	0.423658	0.820210	-0.092413
C122	C	0.756991	1.153544	0.240920
C123	C	1.090324	1.486877	0.574254
C124	C	0.696848	0.862229	-0.134438
C125	C	1.030182	1.195562	0.198895
C126	C	1.363515	1.528896	0.532228
C127	C	0.773078	0.862242	-0.134431
C128	C	1.106411	1.195575	0.198902
C129	C	1.439744	1.528908	0.532235
C130	C	0.773126	0.778255	-0.050393
C131	C	1.106459	1.111588	0.282940
C132	C	1.439793	1.444921	0.616274
C133	C	0.696898	0.778248	-0.050396
C134	C	1.030231	1.111582	0.282938
C135	C	1.363565	1.444915	0.616271
C136	C	0.658764	0.820234	-0.092422
C137	C	0.992097	1.153568	0.240911
C138	C	1.325431	1.486901	0.574244
C139	C	-0.000102	0.825692	0.034591
C140	C	0.333231	1.159025	0.367924
C141	C	0.666565	1.492358	0.701257
C142	C	-0.000095	0.824563	0.111694
C143	C	0.333238	1.157896	0.445027
C144	C	0.666571	1.491229	0.778361
C145	C	-0.000135	0.947232	-0.086937
C146	C	0.333199	1.280565	0.246396
C147	C	0.666532	1.613898	0.579730
C148	C	-0.000149	1.024336	-0.088059
C149	C	0.333184	1.357669	0.245274
C150	C	0.666517	1.691003	0.578608
C151	C	-0.000135	0.814755	-0.219424
C152	C	0.333198	1.148088	0.113909
C153	C	0.666531	1.481422	0.447243
C154	C	-0.000147	0.815884	-0.296527
C155	C	0.333187	1.149217	0.036806
C156	C	0.666520	1.482551	0.370139
C157	C	-0.000099	0.887331	0.156396
C158	C	0.333234	1.220665	0.489729
C159	C	0.666567	1.553998	0.823063
C160	C	-0.000111	0.886270	0.228843
C161	C	0.333223	1.219604	0.562176
C162	C	0.666556	1.552937	0.895510
C163	C	-0.000103	0.822438	0.256585
C164	C	0.333230	1.155771	0.589918
C165	C	0.666563	1.489104	0.923251
C166	C	-0.000104	0.759661	0.211873
C167	C	0.333230	1.092994	0.545206
C168	C	0.666563	1.426327	0.878540
C169	C	-0.000100	0.760723	0.139428
C170	C	0.333234	1.094056	0.472761
C171	C	0.666567	1.427390	0.806094
C172	C	0.042321	0.772251	0.364869
C173	C	0.375654	1.105584	0.698202
C174	C	0.708988	1.438918	1.031535
C175	C	0.042321	0.771191	0.437313
C176	C	0.375655	1.104524	0.770646
C177	C	0.708988	1.437858	1.103980
C178	C	-0.000119	0.819158	0.480030
C179	C	0.333214	1.152491	0.813363
C180	C	0.666547	1.485825	1.146697
C181	C	-0.042551	0.868196	0.450295
C182	C	0.290782	1.201530	0.783629
C183	C	0.624115	1.534863	1.116962
C184	C	-0.042547	0.869259	0.377850
C185	C	0.290786	1.202592	0.711183
C186	C	0.624120	1.535926	1.044517
C187	C	-0.000108	0.821278	0.335139
C188	C	0.333225	1.154612	0.668472
C189	C	0.666558	1.487945	1.001805
C190	C	-0.000137	0.880781	0.603288
C191	C	0.333197	1.214114	0.936621
C192	C	0.666530	1.547447	1.269955
C193	C	-0.000153	0.879717	0.675736
C194	C	0.333181	1.213051	1.009069
C195	C	0.666514	1.546384	1.342403
C196	C	-0.000138	0.753106	0.658764
C197	C	0.333195	1.086439	0.992098
C198	C	0.666528	1.419772	1.325431
C199	C	-0.000130	0.754171	0.586318
C200	C	0.333204	1.087504	0.919651
C201	C	0.666537	1.420838	1.252985
C202	C	-0.000125	0.818010	0.558584
C203	C	0.333208	1.151344	0.891918
C204	C	0.666541	1.484677	1.225251
H205	H	-0.119860	0.609421	-0.096666
H206	H	0.213473	0.942755	0.236667
H207	H	0.546806	1.276088	0.570000
H208	H	0.119680	0.609336	-0.096685
H209	H	0.453013	0.942669	0.236648
H210	H	0.786346	1.276002	0.569982
H211	H	0.430783	0.706596	-0.089247
H212	H	0.764116	1.039929	0.244086
H213	H	1.097449	1.373262	0.577419
F214	F	-0.087724	0.919250	0.495752
F215	F	0.245609	1.252583	0.829086
F216	F	0.578942	1.585916	1.162419
H217	H	-0.119872	0.477995	-0.094738
H218	H	0.213461	0.811329	0.238595
H219	H	0.546795	1.144662	0.571928
F220	F	-0.104522	0.383773	-0.177507
F221	F	0.228811	0.717106	0.155827
F222	F	0.562145	1.050439	0.489160
F223	F	-0.000134	0.685169	0.688284
F224	F	0.333199	1.018503	1.021618
F225	F	0.666532	1.351836	1.354951
H226	H	0.804083	0.896438	-0.168647
H227	H	1.137417	1.229772	0.164686
H228	H	1.470750	1.563105	0.498020
H229	H	0.804180	0.744067	-0.016184
H230	H	1.137514	1.077400	0.317150
H231	H	1.470847	1.410733	0.650483
H232	H	0.195678	0.744021	-0.016166
H233	H	0.529011	1.077354	0.317167
H234	H	0.862344	1.410687	0.650500
F235	F	-0.000129	0.948723	0.573769
F236	F	0.333205	1.282056	0.907103
F237	F	0.666538	1.615390	1.240436
H238	H	0.333971	0.744031	-0.016178
H239	H	0.667304	1.077364	0.317155
H240	H	1.000637	1.410698	0.650488
F241	F	-0.000116	0.953080	0.276427
F242	F	0.333217	1.286413	0.609760
F243	F	0.666551	1.619747	0.943094
H244	H	0.091649	0.395805	-0.019554
H245	H	0.424982	0.729138	0.313780
H246	H	0.758316	1.062472	0.647113
H247	H	-0.000098	0.939314	0.133820
H248	H	0.333235	1.272647	0.467154
H249	H	0.666568	1.605981	0.800487
F250	F	-0.136410	0.171603	-0.090221
F251	F	0.196924	0.504936	0.243113
F252	F	0.530257	0.838270	0.576446
H253	H	0.091632	0.264383	-0.017614
H254	H	0.424965	0.597716	0.315719
H255	H	0.758298	0.931049	0.649052
F256	F	0.136139	0.171503	-0.090225
F257	F	0.469472	0.504837	0.243108
F258	F	0.802806	0.838170	0.576441
F259	F	-0.000096	0.693913	0.091850
F260	F	0.333238	1.027246	0.425184
F261	F	0.666571	1.360580	0.758517
H262	H	0.195589	0.896379	-0.168650
H263	H	0.528922	1.229712	0.164683
H264	H	0.862256	1.563045	0.498016
F265	F	-0.000101	0.691725	0.241399
F266	F	0.333233	1.025059	0.574732
F267	F	0.666566	1.358392	0.908065
H268	H	0.665891	0.744054	-0.016181
H269	H	0.999224	1.077388	0.317152
H270	H	1.332557	1.410721	0.650485
H271	H	-0.077098	0.909186	0.353643
H272	H	0.256235	1.242520	0.686976
H273	H	0.589569	1.575853	1.020310
H274	H	-0.000160	0.930833	0.712132
H275	H	0.333174	1.264167	1.045466
H276	H	0.666507	1.597500	1.378799
H277	H	0.333874	0.896391	-0.168649
H278	H	0.667207	1.229724	0.164684
H279	H	1.000541	1.563058	0.498017
H280	H	0.665798	0.896417	-0.168658
H281	H	0.999131	1.229750	0.164675
H282	H	1.332464	1.563083	0.498008
F283	F	-0.104532	0.234227	-0.175310
F284	F	0.228801	0.567560	0.158023
F285	F	0.562134	0.900893	0.491357
F286	F	-0.000123	0.687363	0.538741
F287	F	0.333211	1.020696	0.872074
F288	F	0.666544	1.354030	1.205407
H289	H	0.569065	0.706609	-0.089247
H290	H	0.902399	1.039942	0.244086
H291	H	1.235732	1.373276	0.577419
H292	H	0.076868	0.731258	0.461517
H293	H	0.410201	1.064591	0.794850
H294	H	0.743534	1.397925	1.128183
F295	F	0.136166	0.468843	-0.094608
F296	F	0.469499	0.802176	0.238725
F297	F	0.802832	1.135510	0.572059
H298	H	0.076885	0.733189	0.330094
H299	H	0.410219	1.066522	0.663427
H300	H	0.743552	1.399855	0.996760
H301	H	0.568984	0.933842	-0.095598
H302	H	0.902317	1.267175	0.237736
H303	H	1.235650	1.600509	0.571069
F304	F	-0.136422	0.022060	-0.088030
F305	F	0.196911	0.355393	0.245303
F306	F	0.530244	0.688726	0.578637
F307	F	0.136125	0.021961	-0.088025
F308	F	0.469458	0.355294	0.245308
F309	F	0.802792	0.688627	0.578642
H310	H	0.430692	0.933832	-0.095596
H311	H	0.764025	1.267165	0.237737
H312	H	1.097359	1.600498	0.571070
