data_functionalizedCrystal
_audit_creation_method	'MofGen! by Chris Wilmer'
_symmetry_space_group_name_H-M	'P1'
_symmetry_Int_Tables_number	1
_symmetry_cell_setting	triclinic
loop_
_symmetry_equiv_pos_as_xyz
  x,y,z
_cell_length_a	34.490303
_cell_length_b	34.489386
_cell_length_c	34.485816
_cell_angle_alpha	60.004462
_cell_angle_beta	60.008900
_cell_angle_gamma	59.994399
loop_
_atom_site_label
_atom_site_type_symbol
_atom_site_fract_x
_atom_site_fract_y
_atom_site_fract_z
O1	O	0.053846	-0.566517	0.473678
O2	O	0.553846	-0.066517	0.973678
O3	O	0.020329	-0.441078	0.381663
O4	O	0.520329	0.058922	0.881663
O5	O	0.099768	-0.520436	0.381578
O6	O	0.599768	-0.020436	0.881578
O7	O	-0.025592	-0.487159	0.473762
O8	O	0.474408	0.012841	0.973762
O9	O	0.126127	-0.494082	0.407849
O10	O	0.626127	0.005918	0.907849
O11	O	0.046689	-0.414724	0.407933
O12	O	0.546689	0.085276	0.907933
O13	O	0.080206	-0.540163	0.499949
O14	O	0.580206	-0.040163	0.999949
Zn15	Zn	0.067632	-0.473259	0.458112
Zn16	Zn	0.567632	0.026741	0.958112
Zn17	Zn	0.032903	-0.507982	0.423499
Zn18	Zn	0.532903	-0.007982	0.923499
O19	O	0.000767	-0.460805	0.500033
O20	O	0.500767	0.039195	1.000033
N21	N	0.091336	-0.449565	0.481736
N22	N	0.591336	0.050435	0.981736
N23	N	0.009203	-0.531680	0.399875
N24	N	0.509203	-0.031680	0.899875
C25	C	0.142510	-0.268211	0.532817
C26	C	0.642510	0.231789	1.032817
C27	C	0.142641	-0.398441	0.662987
C28	C	0.642641	0.101559	1.162987
C29	C	0.142524	-0.398421	0.532817
C30	C	0.642524	0.101579	1.032817
C31	C	0.272762	-0.398394	0.532723
C32	C	0.772762	0.101606	1.032723
C33	C	0.156853	-0.311177	0.547124
C34	C	0.656853	0.188823	1.047124
C35	C	0.156928	-0.384109	0.620020
C36	C	0.656928	0.115891	1.120020
C37	C	0.229794	-0.384081	0.547073
C38	C	0.729794	0.115919	1.047073
C39	C	0.156863	-0.384097	0.547124
C40	C	0.656863	0.115903	1.047124
C41	C	0.124253	-0.213522	0.514606
C42	C	0.624253	0.286478	1.014606
C43	C	0.124277	-0.416652	0.514606
C44	C	0.624277	0.083348	1.014606
C45	C	0.175110	-0.365866	0.565335
C46	C	0.675110	0.134134	1.065335
C47	C	0.352285	-0.384669	0.490824
C48	C	0.852285	0.115331	0.990824
C49	C	0.401998	-0.401229	0.474223
C50	C	0.901998	0.098771	0.974223
C51	C	0.402027	-0.481671	0.504898
C52	C	0.902027	0.018329	1.004898
C53	C	0.352316	-0.465109	0.521500
C54	C	0.852316	0.034891	1.021500
C55	C	0.136220	-0.188652	0.465734
C56	C	0.636220	0.311348	0.965734
C57	C	0.119621	-0.138936	0.449181
C58	C	0.619621	0.361064	0.949181
C59	C	0.079092	-0.138961	0.530374
C60	C	0.579092	0.361039	1.030374
C61	C	0.095691	-0.188678	0.546927
C62	C	0.595691	0.311322	1.046927
C63	C	0.075398	-0.404656	0.526651
C64	C	0.575398	0.095344	1.026651
C65	C	0.058814	-0.421229	0.510091
C66	C	0.558814	0.078771	1.010091
C67	C	0.139984	-0.461794	0.469452
C68	C	0.639984	0.038206	0.969452
C69	C	0.156570	-0.445221	0.486007
C70	C	0.656570	0.054779	0.986007
C71	C	0.075593	-0.404694	0.742565
C72	C	0.575593	0.095306	1.242565
C73	C	0.059066	-0.421281	0.792280
C74	C	0.559066	0.078719	1.292280
C75	C	0.140274	-0.461856	0.792215
C76	C	0.640274	0.038144	1.292215
C77	C	0.156800	-0.445269	0.742499
C78	C	0.656800	0.054731	1.242499
C79	C	0.124458	-0.416687	0.717675
C80	C	0.624458	0.083313	1.217675
C81	C	0.327446	-0.416608	0.514460
C82	C	0.827446	0.083392	1.014460
C83	C	-0.023585	-0.564792	0.161919
C84	C	0.476415	-0.064792	0.661919
C85	C	-0.023910	-0.769260	0.366530
C86	C	0.476090	-0.269260	0.866530
C87	C	-0.023880	-0.564780	0.366623
C88	C	0.476120	-0.064780	0.866623
C89	C	-0.228325	-0.564561	0.366222
C90	C	0.271675	-0.064561	0.866222
C91	C	-0.129610	-0.597564	0.333467
C92	C	0.370390	-0.097564	0.833467
C93	C	-0.056729	-0.597644	0.333613
C94	C	0.443271	-0.097644	0.833613
C95	C	-0.074925	-0.615849	0.315324
C96	C	0.425075	-0.115849	0.815324
C97	C	-0.088689	-0.695351	0.357144
C98	C	0.411311	-0.195351	0.857144
C99	C	-0.072155	-0.745068	0.373736
C100	C	0.427845	-0.245068	0.873736
C101	C	0.008283	-0.745150	0.343188
C102	C	0.508283	-0.245150	0.843188
C103	C	-0.008252	-0.695435	0.326596
C104	C	0.491748	-0.195435	0.826596
C105	C	-0.154529	-0.609541	0.382326
C106	C	0.345471	-0.109541	0.882326
C107	C	-0.204241	-0.592916	0.398818
C108	C	0.295759	-0.092916	0.898818
C109	C	-0.204114	-0.552341	0.317588
C110	C	0.295886	-0.052341	0.817588
C111	C	-0.154401	-0.568966	0.301096
C112	C	0.345599	-0.068966	0.801096
C113	C	-0.068707	-0.548770	0.321590
C114	C	0.431293	-0.048770	0.821590
C115	C	-0.052166	-0.532225	0.338221
C116	C	0.447834	-0.032225	0.838221
C117	C	-0.011669	-0.613425	0.378886
C118	C	0.488331	-0.113425	0.878886
C119	C	-0.028210	-0.629972	0.362261
C120	C	0.471790	-0.129972	0.862261
C121	C	-0.068581	-0.548777	0.235758
C122	C	0.431419	-0.048777	0.735758
C123	C	-0.051939	-0.532234	0.186043
C124	C	0.448061	-0.032234	0.686043
C125	C	-0.011379	-0.613438	0.186090
C126	C	0.488621	-0.113438	0.686090
C127	C	-0.028020	-0.629981	0.235806
C128	C	0.471980	-0.129981	0.735806
C129	C	-0.056622	-0.597649	0.260639
C130	C	0.443378	-0.097649	0.760639
C131	C	-0.056739	-0.670537	0.333576
C132	C	0.443261	-0.170537	0.833576
C133	C	-0.005614	-0.545951	0.107238
C134	C	0.494386	-0.045951	0.607238
C135	C	-0.006360	-0.823943	0.385033
C136	C	0.493640	-0.323943	0.885033
C137	C	-0.005995	-0.545937	0.384582
C138	C	0.494005	-0.045937	0.884582
C139	C	-0.283006	-0.545971	0.383725
C140	C	0.216994	-0.045971	0.883725
N141	N	0.426163	-0.449489	0.481488
N142	N	0.926163	0.050511	0.981488
O143	O	0.588601	-0.457377	0.364497
O144	O	1.088601	0.042623	0.864497
O145	O	0.588789	-0.549696	0.489801
O146	O	1.088789	-0.049696	0.989801
O147	O	0.588709	-0.549485	0.410335
O148	O	1.088709	-0.049485	0.910335
O149	O	0.588681	-0.457588	0.443963
O150	O	1.088681	0.042412	0.943963
O151	O	0.509731	-0.523223	0.436741
O152	O	1.009731	-0.023223	0.936741
O153	O	0.509811	-0.523434	0.516207
O154	O	1.009811	-0.023434	1.016207
O155	O	0.509624	-0.431115	0.390903
O156	O	1.009624	0.068885	0.890903
Zn157	Zn	0.497178	-0.473105	0.457747
Zn158	Zn	0.997178	0.026895	0.957747
Zn159	Zn	0.601234	-0.507706	0.422956
Zn160	Zn	1.101234	-0.007706	0.922956
O161	O	0.509704	-0.431326	0.470368
O162	O	1.009704	0.068674	0.970368
N163	N	0.672250	-0.531322	0.399211
N164	N	1.172250	-0.031322	0.899211
N165	N	0.091303	-0.114798	0.481730
N166	N	0.591303	0.385202	0.981730
O167	O	-0.025603	0.047729	0.473733
O168	O	0.474397	0.547729	0.973733
O169	O	0.099703	0.047764	0.381394
O170	O	0.599703	0.547764	0.881394
O171	O	0.020199	0.047731	0.381655
O172	O	0.520199	0.547731	0.881655
O173	O	0.053901	0.047761	0.473472
O174	O	0.553901	0.547761	0.973472
O175	O	0.046564	-0.031252	0.407974
O176	O	0.546564	0.468748	0.907974
O177	O	0.126068	-0.031219	0.407713
O178	O	0.626068	0.468781	0.907713
O179	O	0.000762	-0.031254	0.500052
O180	O	0.500762	0.468746	1.000052
Zn181	Zn	0.067601	-0.043777	0.458061
Zn182	Zn	0.567601	0.456223	0.958061
Zn183	Zn	0.032864	0.060287	0.423385
Zn184	Zn	0.532864	0.560287	0.923385
O185	O	0.080266	-0.031222	0.499791
O186	O	0.580266	0.468778	0.999791
N187	N	0.009156	0.131307	0.399717
N188	N	0.509156	0.631307	0.899717
N189	N	0.091635	-0.449614	0.816396
N190	N	0.591635	0.050386	1.316396
O191	O	0.083664	-0.566502	0.978913
O192	O	0.583664	-0.066502	1.478913
O193	O	-0.008637	-0.441152	0.978954
O194	O	0.491363	0.058848	1.478954
O195	O	-0.008421	-0.520640	0.978930
O196	O	0.491579	-0.020640	1.478930
O197	O	0.083448	-0.487013	0.978936
O198	O	0.583448	0.012987	1.478936
O199	O	0.017877	-0.494296	0.899950
O200	O	0.517877	0.005704	1.399950
O201	O	0.017661	-0.414807	0.899974
O202	O	0.517661	0.085193	1.399974
O203	O	0.109961	-0.540157	0.899933
O204	O	0.609961	-0.040157	1.399933
Zn205	Zn	0.067986	-0.473299	0.887414
Zn206	Zn	0.567986	0.026701	1.387414
Zn207	Zn	0.033338	-0.508010	0.991473
Zn208	Zn	0.533338	-0.008010	1.491473
O209	O	0.109746	-0.460669	0.899956
O210	O	0.609746	0.039331	1.399956
N211	N	0.009689	-0.531700	1.062491
N212	N	0.509689	-0.031700	1.562491
C213	C	0.030367	-0.412095	0.382120
C214	C	0.530367	0.087905	0.882120
C215	C	0.128741	-0.510370	0.382016
C216	C	0.628741	-0.010370	0.882016
C217	C	0.070168	-0.569147	0.499490
C218	C	0.570168	-0.069147	0.999490
C219	C	-0.028207	-0.470871	0.499595
C220	C	0.471793	0.029129	0.999595
C221	C	0.549323	-0.549278	0.518791
C222	C	1.049323	-0.049278	1.018791
C223	C	0.549225	-0.549017	0.420381
C224	C	1.049225	-0.049017	0.920381
C225	C	0.549087	-0.431532	0.361914
C226	C	1.049087	0.068468	0.861914
C227	C	0.549188	-0.431794	0.460322
C228	C	1.049188	0.068206	0.960322
C229	C	0.128638	0.008374	0.381806
C230	C	0.628638	0.508374	0.881806
C231	C	0.030215	0.008236	0.382161
C232	C	0.530215	0.508236	0.882161
C233	C	-0.028206	0.008233	0.499608
C234	C	0.471794	0.508233	0.999608
C235	C	0.070250	0.008272	0.499285
C236	C	0.570250	0.508272	0.999285
C237	C	-0.008199	-0.412187	0.939469
C238	C	0.491801	0.087813	1.439469
C239	C	-0.007927	-0.510619	0.939425
C240	C	0.492073	-0.010619	1.439425
C241	C	0.109523	-0.569121	0.939417
C242	C	0.609523	-0.069121	1.439417
C243	C	0.109257	-0.470684	0.939444
C244	C	0.609257	0.029316	1.439444
H245	H	0.019274	-0.411508	0.812539
H246	H	0.519274	0.088492	1.312539
H247	H	-0.036776	-0.517804	0.939391
H248	H	0.463224	-0.017804	1.439391
H249	H	-0.064213	-0.463781	0.528541
H250	H	0.435787	0.036219	1.028541
C251	C	0.026501	-0.668552	0.300951
C252	C	0.526501	-0.168552	0.800951
C253	C	0.060042	-0.680688	0.260292
C254	C	0.560042	-0.180688	0.760292
C255	C	0.092068	-0.655939	0.236658
C256	C	0.592068	-0.155939	0.736658
H257	H	0.009774	-0.635370	0.292019
H258	H	0.509774	-0.135370	0.792019
H259	H	0.042209	-0.676722	0.321431
H260	H	0.542209	-0.176722	0.821431
H261	H	0.044335	-0.672515	0.239816
H262	H	0.544335	-0.172515	0.739816
H263	H	0.076780	-0.713866	0.269210
H264	H	0.576780	-0.213866	0.769210
H265	H	0.107775	-0.664108	0.257139
H266	H	0.607775	-0.164108	0.757139
H267	H	0.075336	-0.622757	0.227730
H268	H	0.575336	-0.122757	0.727730
H269	H	0.114831	-0.664172	0.209071
H270	H	0.614831	-0.164172	0.709071
H271	H	0.077330	-0.605181	0.528391
H272	H	0.577330	-0.105181	1.028391
C273	C	-0.076149	0.008198	0.538331
C274	C	0.423851	0.508198	1.038331
C275	C	-0.076059	0.008194	0.578888
C276	C	0.423941	0.508194	1.078888
C277	C	-0.120213	0.008155	0.614571
C278	C	0.379787	0.508155	1.114571
H279	H	-0.100365	0.035727	0.527520
H280	H	0.399635	0.535727	1.027520
H281	H	-0.081943	-0.019363	0.545843
H282	H	0.418057	0.480637	1.045843
H283	H	-0.070271	0.035752	0.571376
H284	H	0.429729	0.535752	1.071376
H285	H	-0.051852	-0.019333	0.589713
H286	H	0.448148	0.480667	1.089713
H287	H	-0.126007	-0.019406	0.622082
H288	H	0.373993	0.480594	1.122082
H289	H	-0.144426	0.035685	0.603755
H290	H	0.355574	0.535685	1.103755
H291	H	-0.120156	0.008148	0.642094
H292	H	0.379844	0.508148	1.142094
C293	C	0.020721	-0.364027	0.343634
C294	C	0.520721	0.135973	0.843634
C295	C	-0.025634	-0.334821	0.360792
C296	C	0.474366	0.165179	0.860792
C297	C	-0.034539	-0.290540	0.325350
C298	C	0.465461	0.209460	0.825350
H299	H	0.042604	-0.349702	0.334943
H300	H	0.542604	0.150298	0.834943
H301	H	0.024235	-0.368126	0.316645
H302	H	0.524235	0.131874	0.816645
H303	H	-0.029143	-0.330721	0.387772
H304	H	0.470857	0.169279	0.887772
H305	H	-0.047526	-0.349131	0.369480
H306	H	0.452474	0.150869	0.869480
H307	H	-0.031025	-0.294639	0.298361
H308	H	0.468975	0.205361	0.798361
H309	H	-0.012653	-0.276220	0.316661
H310	H	0.487347	0.223780	0.816661
H311	H	-0.065992	-0.270720	0.336985
H312	H	0.434008	0.229280	0.836985
H313	H	0.077468	0.008281	0.528131
H314	H	0.577468	0.508281	1.028131
C315	C	0.020517	0.008186	0.343769
C316	C	0.520517	0.508186	0.843769
C317	C	-0.025837	0.008151	0.361017
C318	C	0.474163	0.508151	0.861017
C319	C	-0.034783	0.008090	0.325669
C320	C	0.465217	0.508090	0.825669
H321	H	0.023998	0.035718	0.316733
H322	H	0.523998	0.535718	0.816733
H323	H	0.042408	-0.019372	0.335133
H324	H	0.542408	0.480628	0.835133
H325	H	-0.047722	0.035706	0.369647
H326	H	0.452278	0.535706	0.869647
H327	H	-0.029330	-0.019379	0.388049
H328	H	0.470670	0.480621	0.888049
H329	H	-0.012892	-0.019467	0.317033
H330	H	0.487108	0.480533	0.817033
H331	H	-0.031299	0.035623	0.298635
H332	H	0.468701	0.535623	0.798635
H333	H	-0.066233	0.008062	0.337368
H334	H	0.433767	0.508062	0.837368
C335	C	0.176787	-0.519906	0.343483
C336	C	0.676787	-0.019906	0.843483
C337	C	0.206068	-0.566245	0.360568
C338	C	0.706068	-0.066245	0.860568
C339	C	0.250332	-0.575043	0.325088
C340	C	0.750332	-0.075043	0.825088
H341	H	0.172697	-0.516373	0.316485
H342	H	0.672697	-0.016373	0.816485
H343	H	0.191046	-0.497976	0.334830
H344	H	0.691046	0.002024	0.834830
H345	H	0.191812	-0.588168	0.369215
H346	H	0.691812	-0.088168	0.869215
H347	H	0.210171	-0.569789	0.387562
H348	H	0.710171	-0.069789	0.887562
H349	H	0.264591	-0.553114	0.316435
H350	H	0.764591	-0.053114	0.816435
H351	H	0.246238	-0.571508	0.298091
H352	H	0.746238	-0.071508	0.798091
H353	H	0.270206	-0.606483	0.336676
H354	H	0.770206	-0.106483	0.836676
H355	H	0.049253	-0.381417	0.722357
H356	H	0.549253	0.118583	1.222357
H357	H	-0.037176	-0.376187	0.939482
H358	H	0.462824	0.123813	1.439482
H359	H	-0.018278	-0.669778	0.256062
H360	H	0.481722	-0.169778	0.756062
C361	C	0.148097	-0.617161	0.939422
C362	C	0.648097	-0.117161	1.439422
C363	C	0.131078	-0.646476	0.939425
C364	C	0.631078	-0.146476	1.439425
C365	C	0.166596	-0.690735	0.939434
C366	C	0.666596	-0.190735	1.439434
H367	H	0.175096	-0.613062	0.911885
H368	H	0.675096	-0.113062	1.411885
H369	H	0.156732	-0.631400	0.966973
H370	H	0.656732	-0.131400	1.466973
H371	H	0.122450	-0.632240	0.911877
H372	H	0.622450	-0.132240	1.411877
H373	H	0.104084	-0.650589	0.966960
H374	H	0.604084	-0.150589	1.466960
H375	H	0.175231	-0.704974	0.966985
H376	H	0.675231	-0.204974	1.466985
H377	H	0.193593	-0.686631	0.911897
H378	H	0.693593	-0.186631	1.411897
H379	H	0.155052	-0.710632	0.939440
H380	H	0.655052	-0.210632	1.439440
C381	C	0.147759	-0.461033	0.939340
C382	C	0.647759	0.038967	1.439340
C383	C	0.158547	-0.422844	0.898706
C384	C	0.658547	0.077156	1.398706
C385	C	0.194017	-0.413943	0.898591
C386	C	0.694017	0.086057	1.398591
H387	H	0.136847	-0.453468	0.966854
H388	H	0.636847	0.046532	1.466854
H389	H	0.175421	-0.488467	0.939303
H390	H	0.675421	0.011533	1.439303
H391	H	0.130890	-0.395416	0.898748
H392	H	0.630890	0.104584	1.398748
H393	H	0.169467	-0.430398	0.871186
H394	H	0.669467	0.069602	1.371186
H395	H	0.221678	-0.441377	0.898554
H396	H	0.721678	0.058623	1.398554
H397	H	0.183100	-0.406380	0.926106
H398	H	0.683100	0.093620	1.426106
H399	H	0.201343	-0.388034	0.871020
H400	H	0.701343	0.111966	1.371020
C401	C	0.175408	-0.492963	0.819145
C402	C	0.675408	0.007037	1.319145
C403	C	0.203919	-0.534351	0.807041
C404	C	0.703919	-0.034351	1.307041
C405	C	0.236283	-0.563026	0.831845
C406	C	0.736283	-0.063026	1.331845
H407	H	0.194844	-0.476153	0.811009
H408	H	0.694844	0.023847	1.311009
H409	H	0.158581	-0.501156	0.852321
H410	H	0.658581	-0.001156	1.352321
H411	H	0.220744	-0.526158	0.773871
H412	H	0.720744	-0.026158	1.273871
H413	H	0.184495	-0.551173	0.815177
H414	H	0.684495	-0.051173	1.315177
H415	H	0.219457	-0.571219	0.865021
H416	H	0.719457	-0.071219	1.365021
H417	H	0.255716	-0.546212	0.823707
H418	H	0.755716	-0.046212	1.323707
H419	H	0.255629	-0.591113	0.823639
H420	H	0.755629	-0.091113	1.323639
C421	C	0.209852	-0.458356	0.715453
C422	C	0.709852	0.041644	1.215453
C423	C	0.221721	-0.483211	0.686920
C424	C	0.721721	0.016789	1.186920
C425	C	0.270588	-0.495280	0.662005
C426	C	0.770588	0.004720	1.162005
H427	H	0.218042	-0.430275	0.696019
H428	H	0.718042	0.069725	1.196019
H429	H	0.226762	-0.477774	0.737345
H430	H	0.726762	0.022226	1.237345
H431	H	0.204817	-0.463793	0.665031
H432	H	0.704817	0.036207	1.165031
H433	H	0.213543	-0.511297	0.706342
H434	H	0.713543	-0.011297	1.206342
H435	H	0.287498	-0.514697	0.683896
H436	H	0.787498	-0.014697	1.183896
H437	H	0.278773	-0.467196	0.642574
H438	H	0.778773	0.032804	1.142574
H439	H	0.278648	-0.512148	0.642645
H440	H	0.778648	-0.012148	1.142645
H441	H	0.549237	-0.577886	0.413185
H442	H	1.049237	-0.077886	0.913185
C443	C	0.040313	-0.373556	0.557615
C444	C	0.540313	0.126444	1.057615
C445	C	0.011773	-0.332160	0.532668
C446	C	0.511773	0.167840	1.032668
C447	C	-0.020549	-0.303496	0.561175
C448	C	0.479451	0.196504	1.061175
H449	H	0.020892	-0.390369	0.585739
H450	H	0.520892	0.109631	1.085739
H451	H	0.057172	-0.365371	0.565743
H452	H	0.557172	0.134629	1.065743
H453	H	-0.005085	-0.340346	0.524547
H454	H	0.494915	0.159654	1.024547
H455	H	0.031181	-0.315334	0.504546
H456	H	0.531181	0.184666	1.004546
H457	H	-0.003691	-0.295311	0.569303
H458	H	0.496309	0.204689	1.069303
H459	H	-0.039967	-0.320313	0.589298
H460	H	0.460033	0.179687	1.089298
H461	H	-0.039915	-0.275404	0.544251
H462	H	0.460085	0.224596	1.044251
C463	C	0.005740	-0.408278	0.523262
C464	C	0.505740	0.091722	1.023262
C465	C	-0.014672	-0.425213	0.572716
C466	C	0.485328	0.074787	1.072716
C467	C	-0.063560	-0.413299	0.584866
C468	C	0.436440	0.086701	1.084866
H469	H	-0.008306	-0.374741	0.511894
H470	H	0.491694	0.125259	1.011894
H471	H	0.000471	-0.422253	0.509330
H472	H	0.500471	0.077747	1.009330
H473	H	-0.009407	-0.411236	0.586642
H474	H	0.490593	0.088764	1.086642
H475	H	-0.000639	-0.458749	0.584096
H476	H	0.499361	0.041251	1.084096
H477	H	-0.068829	-0.427274	0.570935
H478	H	0.431171	0.072726	1.070935
H479	H	-0.077602	-0.379762	0.573495
H480	H	0.422398	0.120238	1.073495
H481	H	-0.077415	-0.424791	0.618422
H482	H	0.422585	0.075209	1.118422
H483	H	0.549371	-0.578259	0.554780
H484	H	1.049371	-0.078259	1.054780
H485	H	0.196371	-0.454985	0.476195
H486	H	0.696371	0.045015	0.976195
C487	C	0.175073	-0.492732	0.438323
C488	C	0.675073	0.007268	0.938323
C489	C	0.203551	-0.467745	0.396921
C490	C	0.703551	0.032255	0.896921
C491	C	0.235876	-0.496224	0.368230
C492	C	0.735876	0.003776	0.868230
H493	H	0.194536	-0.520850	0.455110
H494	H	0.694536	-0.020850	0.955110
H495	H	0.158217	-0.500877	0.430152
H496	H	0.658217	-0.000877	0.930152
H497	H	0.220407	-0.459607	0.405093
H498	H	0.720407	0.040393	0.905093
H499	H	0.184101	-0.439629	0.380121
H500	H	0.684101	0.060371	0.880121
H501	H	0.219020	-0.504369	0.360058
H502	H	0.719020	-0.004369	0.860058
H503	H	0.255336	-0.524341	0.385021
H504	H	0.755336	-0.024341	0.885021
H505	H	0.255199	-0.479273	0.340133
H506	H	0.755199	0.020727	0.840133
C507	C	0.325435	-0.499861	0.547131
C508	C	0.825435	0.000139	1.047131
C509	C	0.357859	-0.545877	0.549727
C510	C	0.857859	-0.045877	1.049727
C511	C	0.333114	-0.577903	0.573330
C512	C	0.833114	-0.077903	1.073330
H513	H	0.306061	-0.498661	0.578299
H514	H	0.806061	0.001339	1.078299
H515	H	0.306032	-0.491573	0.530206
H516	H	0.806032	0.008427	1.030206
H517	H	0.377254	-0.554162	0.566653
H518	H	0.877254	-0.054162	1.066653
H519	H	0.377233	-0.547091	0.518566
H520	H	0.877233	-0.047091	1.018566
H521	H	0.313711	-0.569615	0.556404
H522	H	0.813711	-0.069615	1.056404
H523	H	0.313742	-0.576700	0.604496
H524	H	0.813742	-0.076700	1.104496
H525	H	0.355110	-0.609128	0.575090
H526	H	0.855110	-0.109128	1.075090
H527	H	0.422223	-0.375220	0.454977
H528	H	0.922223	0.124780	0.954977
C529	C	0.429090	-0.534325	0.512569
C530	C	0.929090	-0.034325	1.012569
C531	C	0.457672	-0.551382	0.539384
C532	C	0.957672	-0.051382	1.039384
C533	C	0.482615	-0.599884	0.546453
C534	C	0.982615	-0.099884	1.046453
H535	H	0.407231	-0.551035	0.529042
H536	H	0.907231	-0.051035	1.029042
H537	H	0.448490	-0.538945	0.482699
H538	H	0.948490	-0.038945	0.982699
H539	H	0.438273	-0.546767	0.569249
H540	H	0.938273	-0.046767	1.069249
H541	H	0.479539	-0.534686	0.522919
H542	H	0.979539	-0.034686	1.022919
H543	H	0.502015	-0.604504	0.516583
H544	H	1.002015	-0.104504	1.016583
H545	H	0.460753	-0.616590	0.562925
H546	H	0.960753	-0.116590	1.062925
H547	H	0.502014	-0.611463	0.564644
H548	H	1.002014	-0.111463	1.064644
C549	C	0.548935	-0.392899	0.313935
C550	C	1.048935	0.107101	0.813935
C551	C	0.508287	-0.382020	0.305555
C552	C	1.008287	0.117980	0.805555
C553	C	0.508133	-0.346438	0.261360
C554	C	1.008133	0.153562	0.761360
H555	H	0.548891	-0.365288	0.313839
H556	H	1.048891	0.134712	0.813839
H557	H	0.576447	-0.403759	0.289733
H558	H	1.076447	0.096241	0.789733
H559	H	0.480782	-0.371159	0.329750
H560	H	0.980782	0.128841	0.829750
H561	H	0.508322	-0.409620	0.305641
H562	H	1.008322	0.090380	0.805641
H563	H	0.535644	-0.357297	0.237158
H564	H	1.035644	0.142703	0.737158
H565	H	0.508090	-0.318830	0.261268
H566	H	1.008090	0.181170	0.761268
H567	H	0.480556	-0.339055	0.255666
H568	H	0.980556	0.160945	0.755666
C569	C	0.325369	-0.331994	0.483157
C570	C	0.825369	0.168006	0.983157
C571	C	0.357766	-0.307572	0.458915
C572	C	0.857766	0.192428	0.958915
C573	C	0.332990	-0.259049	0.451848
C574	C	0.832990	0.240951	0.951848
H575	H	0.305954	-0.320273	0.464942
H576	H	0.805954	0.179727	0.964942
H577	H	0.306005	-0.327367	0.513028
H578	H	0.806005	0.172633	1.013028
H579	H	0.377121	-0.312196	0.429049
H580	H	0.877121	0.187804	0.929049
H581	H	0.377182	-0.319279	0.477123
H582	H	0.877182	0.180721	0.977123
H583	H	0.313626	-0.254422	0.481718
H584	H	0.813626	0.245578	0.981718
H585	H	0.313576	-0.247332	0.433633
H586	H	0.813576	0.252668	0.933633
H587	H	0.354968	-0.242473	0.435403
H588	H	0.854968	0.257527	0.935403
H589	H	0.164551	0.008603	0.352745
H590	H	0.664551	0.508603	0.852745
H591	H	0.159477	-0.208876	0.439413
H592	H	0.659477	0.291124	0.939413
C593	C	0.549151	-0.393352	0.470012
C594	C	1.049151	0.106648	0.970012
C595	C	0.549199	-0.410572	0.516364
C596	C	1.049199	0.089428	1.016364
C597	C	0.549159	-0.375170	0.525309
C598	C	1.049159	0.124830	1.025309
H599	H	0.576661	-0.384651	0.448127
H600	H	1.076661	0.115349	0.948127
H601	H	0.521575	-0.366357	0.466529
H602	H	1.021575	0.133643	0.966529
H603	H	0.576773	-0.437558	0.519842
H604	H	1.076773	0.062442	1.019842
H605	H	0.521692	-0.419268	0.538259
H606	H	1.021692	0.080732	1.038259
H607	H	0.521582	-0.348175	0.521826
H608	H	1.021582	0.151825	1.021826
H609	H	0.576669	-0.366472	0.503421
H610	H	1.076669	0.133528	1.003421
H611	H	0.549187	-0.386847	0.556760
H612	H	1.049187	0.113153	1.056760
H613	H	0.129365	-0.118686	0.409385
H614	H	0.629365	0.381314	0.909385
H615	H	0.055841	-0.118733	0.556693
H616	H	0.555841	0.381267	1.056693
H617	H	0.085944	-0.208923	0.586721
H618	H	0.585944	0.291077	1.086721
H619	H	-0.091873	-0.522445	0.255974
H620	H	0.408127	-0.022445	0.755974
C621	C	-0.065028	-0.479163	0.159060
C622	C	0.434972	0.020837	0.659060
C623	C	-0.114472	-0.458667	0.171068
C624	C	0.385528	0.041333	0.671068
C625	C	-0.126548	-0.409782	0.146216
C626	C	0.373452	0.090218	0.646216
H627	H	-0.053661	-0.465152	0.167222
H628	H	0.446339	0.034848	0.667222
H629	H	-0.051053	-0.473917	0.125890
H630	H	0.448947	0.026083	0.625890
H631	H	-0.128442	-0.463910	0.204230
H632	H	0.371558	0.036090	0.704230
H633	H	-0.125852	-0.472664	0.162905
H634	H	0.374148	0.027336	0.662905
H635	H	-0.112572	-0.404536	0.113046
H636	H	0.387428	0.095464	0.613046
H637	H	-0.115177	-0.395775	0.154380
H638	H	0.384823	0.104225	0.654380
H639	H	-0.160096	-0.395870	0.154356
H640	H	0.339904	0.104130	0.654356
C641	C	0.019681	-0.648618	0.159219
C642	C	0.519681	-0.148618	0.659219
C643	C	0.026597	-0.694958	0.191652
C644	C	0.526597	-0.194958	0.691652
C645	C	0.055213	-0.727380	0.166916
C646	C	0.555213	-0.227380	0.666916
H647	H	0.004576	-0.643890	0.139780
H648	H	0.504576	-0.143890	0.639780
H649	H	0.049513	-0.643909	0.139881
H650	H	0.549513	-0.143909	0.639881
H651	H	-0.003229	-0.699666	0.210981
H652	H	0.496771	-0.199666	0.710981
H653	H	0.041708	-0.699701	0.211092
H654	H	0.541708	-0.199701	0.711092
H655	H	0.085044	-0.722670	0.147578
H656	H	0.585044	-0.222670	0.647578
H657	H	0.040105	-0.722647	0.147478
H658	H	0.540105	-0.222647	0.647478
H659	H	0.059913	-0.758825	0.188918
H660	H	0.559913	-0.258825	0.688918
H661	H	-0.091926	-0.522444	0.298262
H662	H	0.408074	-0.022444	0.798262
H663	H	-0.061921	-0.492427	0.328433
H664	H	0.438079	0.007573	0.828433
H665	H	0.011557	-0.639751	0.402207
H666	H	0.511557	-0.139751	0.902207
H667	H	0.047765	-0.765423	0.337508
H668	H	0.547765	-0.265423	0.837508
C669	C	-0.015134	-0.683054	0.375341
C670	C	0.484866	-0.183054	0.875341
C671	C	0.013394	-0.707825	0.403977
C672	C	0.513394	-0.207825	0.903977
C673	C	0.025455	-0.756725	0.416029
C674	C	0.525455	-0.256725	0.916029
H675	H	-0.043218	-0.691236	0.392184
H676	H	0.456782	-0.191236	0.892184
H677	H	0.001791	-0.691241	0.347243
H678	H	0.501791	-0.191241	0.847243
H679	H	-0.003531	-0.699643	0.432071
H680	H	0.496469	-0.199643	0.932071
H681	H	0.041484	-0.699658	0.387143
H682	H	0.541484	-0.199658	0.887143
H683	H	0.042380	-0.764911	0.387931
H684	H	0.542380	-0.264911	0.887931
H685	H	-0.002631	-0.764902	0.432870
H686	H	0.497369	-0.264902	0.932870
H687	H	0.044816	-0.773538	0.435456
H688	H	0.544816	-0.273538	0.935456
H689	H	-0.098172	-0.765271	0.392919
H690	H	0.401828	-0.265271	0.892919
H691	H	-0.134345	-0.632833	0.408685
H692	H	0.365655	-0.132833	0.908685
C693	C	-0.141344	-0.668407	0.364729
C694	C	0.358656	-0.168407	0.864729
C695	C	-0.165781	-0.700783	0.388903
C696	C	0.334219	-0.200783	0.888903
C697	C	-0.214286	-0.675979	0.395886
C698	C	0.285714	-0.175979	0.895886
H699	H	-0.153099	-0.648997	0.382959
H700	H	0.346901	-0.148997	0.882959
H701	H	-0.145915	-0.649034	0.334833
H702	H	0.354085	-0.149034	0.834833
H703	H	-0.161213	-0.720149	0.418795
H704	H	0.338787	-0.220149	0.918795
H705	H	-0.154040	-0.720195	0.370681
H706	H	0.345960	-0.220195	0.870681
H707	H	-0.218857	-0.656606	0.365989
H708	H	0.281143	-0.156606	0.865989
H709	H	-0.226036	-0.656570	0.414114
H710	H	0.273964	-0.156570	0.914114
H711	H	-0.230872	-0.697942	0.412284
H712	H	0.269128	-0.197942	0.912284
H713	H	-0.224531	-0.602667	0.438605
H714	H	0.275469	-0.102667	0.938605
H715	H	-0.224299	-0.529059	0.291228
H716	H	0.275701	-0.029059	0.791228
H717	H	-0.134111	-0.559208	0.261309
H718	H	0.365889	-0.059208	0.761309
