data_functionalizedCrystal
_audit_creation_method	'MofGen! by Chris Wilmer'
_symmetry_space_group_name_H-M	'P1'
_symmetry_Int_Tables_number	1
_symmetry_cell_setting	triclinic
loop_
_symmetry_equiv_pos_as_xyz
  x,y,z
_cell_length_a	8.497374
_cell_length_b	8.497374
_cell_length_c	18.215407
_cell_angle_alpha	89.995535
_cell_angle_beta	90.001015
_cell_angle_gamma	90.005237
loop_
_atom_site_label
_atom_site_type_symbol
_atom_site_fract_x
_atom_site_fract_y
_atom_site_fract_z
Zn1	Zn	0.628333	0.892222	-1.125076
Zn2	Zn	0.892079	0.628487	-1.125071
Zn3	Zn	0.628306	0.628436	-1.002044
Zn4	Zn	0.892064	0.892206	-1.002026
O5	O	0.760195	0.760338	-1.063554
O6	O	0.663336	0.857265	-1.228060
O7	O	0.857083	0.407718	-1.108756
O8	O	0.407547	0.663413	-1.018374
O9	O	0.857109	0.663500	-1.228056
O10	O	0.407567	0.857215	-1.108766
O11	O	0.663291	0.407681	-1.018368
O12	O	0.663277	0.663398	-0.899057
O13	O	0.857085	1.112971	-1.018344
O14	O	0.857059	0.857189	-0.899044
O15	O	0.663323	1.112982	-1.108749
O16	O	1.112839	0.663485	-1.108739
O17	O	1.112829	0.857238	-1.018338
C18	C	0.760165	0.760287	-0.872348
C19	C	0.760189	0.760303	-0.790549
C20	C	0.861247	0.861078	-0.602368
C21	C	0.861250	0.861095	-0.525509
C22	C	0.659153	0.659604	-0.525493
C23	C	0.659143	0.659596	-0.602350
C24	C	0.760199	0.760330	-0.640786
C25	C	0.760212	0.760356	-0.487069
C26	C	0.760215	0.760374	-0.403736
C27	C	0.760194	0.760314	-0.724125
C28	C	1.170075	0.760361	-1.063545
C29	C	1.348719	0.760335	-1.063565
C30	C	0.760198	1.171818	-1.063549
C31	C	0.760214	1.350462	-1.063550
C32	C	0.760222	0.760383	-0.255507
C33	C	0.760221	0.760383	-0.337306
H34	H	0.576847	0.577555	-0.633631
O35	O	0.959564	0.958713	-0.639737
C36	C	1.061294	0.868756	-0.684206
H37	H	1.070858	0.744493	-0.661038
H38	H	1.182785	0.925646	-0.685082
H39	H	1.012503	0.863386	-0.742453
O40	O	0.560775	0.561913	-0.488190
C41	C	0.403595	0.596590	-0.506984
H42	H	0.395820	0.722631	-0.528116
H43	H	0.325640	0.583112	-0.456438
H44	H	0.362225	0.512070	-0.551593
H45	H	0.943531	0.943136	-0.494232
