data_functionalizedCrystal
_audit_creation_method	'MofGen! by Chris Wilmer'
_symmetry_space_group_name_H-M	'P1'
_symmetry_Int_Tables_number	1
_symmetry_cell_setting	triclinic
loop_
_symmetry_equiv_pos_as_xyz
  x,y,z
_cell_length_a	14.560432
_cell_length_b	14.560438
_cell_length_c	14.560438
_cell_angle_alpha	60.001909
_cell_angle_beta	60.001007
_cell_angle_gamma	90.001415
loop_
_atom_site_label
_atom_site_type_symbol
_atom_site_fract_x
_atom_site_fract_y
_atom_site_fract_z
Zr1	Zr	0.884750	-0.120507	1.005296
O2	O	0.738104	-0.267149	1.196890
O3	O	0.929705	-0.075556	0.813697
O4	O	0.929704	-0.267153	1.005294
O5	O	0.738106	0.075587	1.005295
O6	O	1.080842	-0.267153	1.005298
O7	O	0.738105	-0.075552	1.005293
O8	O	1.080843	0.075579	0.662565
O9	O	0.738105	-0.267146	1.348028
O10	O	1.061670	-0.056382	0.892509
O11	O	0.948878	0.056411	0.892508
O12	O	0.948878	-0.169170	1.118089
O13	O	0.836086	-0.056377	1.118088
Zr14	Zr	1.125799	0.120541	1.005306
Zr15	Zr	1.125797	-0.120507	1.005302
Zr16	Zr	0.884752	0.120541	1.005300
Zr17	Zr	0.884751	-0.120502	1.246343
Zr18	Zr	1.125798	0.120536	0.764258
O19	O	1.080844	0.075590	1.196905
O20	O	1.080842	-0.267150	1.196899
O21	O	0.738106	0.075590	1.196896
O22	O	1.272445	0.267183	0.813712
O23	O	1.272443	-0.075556	0.813706
O24	O	0.929707	0.267184	0.813703
O25	O	1.272443	-0.075553	1.005306
O26	O	1.080845	0.267187	1.005307
O27	O	0.929707	0.267187	1.005303
O28	O	1.272444	0.075586	1.005309
O29	O	0.929705	-0.267147	1.348033
O30	O	1.080844	0.267181	0.662569
O31	O	1.272444	0.267180	0.662574
O32	O	1.272443	0.075579	0.662570
O33	O	0.738106	-0.075545	1.348031
O34	O	0.929706	-0.075546	1.348036
O35	O	1.061671	0.169204	0.892513
O36	O	1.174463	0.056411	0.892514
O37	O	1.061671	-0.056377	1.118094
O38	O	0.948879	0.056416	1.118093
C39	C	0.703761	0.000018	1.005293
C40	C	0.601431	0.000018	1.005290
C41	C	1.005274	0.000011	0.703787
C42	C	1.005274	0.000009	0.601456
C43	C	1.005276	0.301531	1.005306
C44	C	1.005277	0.403863	1.005308
C45	C	0.719170	0.117759	0.769782
C46	C	0.729963	0.176624	0.652032
C47	C	0.633810	0.176621	0.652038
C48	C	0.526856	0.117749	0.769806
C49	C	0.516064	0.058884	0.887556
C50	C	0.612225	0.058891	0.887538
C51	C	0.398326	-0.058849	1.123061
C52	C	0.494477	-0.058854	1.123059
C53	C	0.291372	-0.117721	1.240830
C54	C	0.280578	-0.176594	1.358582
C55	C	0.376739	-0.176589	1.358572
C56	C	0.483684	-0.117719	1.240809
C57	C	1.306788	0.000016	1.005309
C58	C	1.409119	0.000016	1.005311
C59	C	1.005273	-0.301497	1.005296
C60	C	1.005272	-0.403829	1.005294
C61	C	0.946402	0.393067	1.123056
C62	C	0.946396	0.489222	1.123050
C63	C	1.064149	0.606965	0.887536
C64	C	1.064148	0.510811	0.887544
C65	C	1.064148	-0.058868	0.553380
C66	C	1.064152	-0.058857	0.457221
C67	C	0.946400	0.058909	0.457225
C68	C	0.946403	0.058904	0.553376
C69	C	1.005275	0.000023	1.306815
C70	C	1.005275	0.000025	1.409146
C71	C	1.306787	0.000011	0.703795
C72	C	1.409118	0.000009	0.601466
C73	C	1.005276	0.301526	0.703792
C74	C	1.005276	0.403855	0.601463
C75	C	1.306789	0.301525	0.703800
C76	C	1.409120	0.403854	0.601473
C77	C	0.703760	-0.301491	1.306802
C78	C	0.601429	-0.403820	1.409128
C79	C	0.703762	0.000023	1.306807
C80	C	0.601431	0.000025	1.409135
C81	C	1.005274	-0.301492	1.306810
C82	C	1.005273	-0.403821	1.409139
C83	C	1.398319	-0.058866	0.553387
C84	C	1.494473	-0.058872	0.457247
C85	C	1.612222	0.058881	0.457269
C86	C	1.516069	0.058879	0.553415
C87	C	1.064152	0.510806	0.553389
C88	C	1.064139	0.606951	0.457249
C89	C	0.946373	0.489181	0.457261
C90	C	0.946380	0.393038	0.553406
C91	C	1.516071	0.393055	0.553398
C92	C	1.612218	0.489208	0.457260
C93	C	1.494449	0.606956	0.457276
C94	C	1.398304	0.510804	0.553419
H95	H	0.797468	0.117758	0.769766
C96	C	1.128910	-0.123638	0.606261
H97	H	1.120473	-0.115218	0.670419
H98	H	1.206369	-0.094564	0.537237
H99	H	1.099825	-0.201101	0.643770
C100	C	0.881616	0.123647	0.606291
H101	H	0.890054	0.115210	0.670437
H102	H	0.804159	0.094561	0.643799
H103	H	0.910685	0.201116	0.537279
H104	H	1.524870	0.106823	0.592565
C105	C	1.128915	0.522704	0.606267
H106	H	1.163966	0.600174	0.563874
H107	H	1.184635	0.487649	0.590513
H108	H	1.078084	0.487647	0.697045
C109	C	0.589451	-0.117715	1.240798
H110	H	0.567710	-0.161208	1.327790
H111	H	0.632952	-0.042700	1.197294
H112	H	0.632937	-0.149254	1.197317
H113	H	0.898425	0.480388	0.418120
H114	H	1.311239	-0.106815	0.592520
C115	C	1.128911	0.724603	0.758004
H116	H	1.163966	0.717259	0.687878
H117	H	1.184629	0.764564	0.753103
H118	H	1.078083	0.764556	0.753108
C119	C	1.482554	0.724596	0.404416
H120	H	1.405084	0.717254	0.446831
H121	H	1.517611	0.764559	0.313642
H122	H	1.517612	0.764545	0.420191
H123	H	1.112094	-0.106798	0.418079
H124	H	0.642603	0.224558	0.556155
H125	H	0.817054	0.224559	0.556148
C126	C	1.527962	0.275413	0.606267
H127	H	1.455385	0.219693	0.670403
H128	H	1.567913	0.266979	0.643776
H129	H	1.567914	0.266986	0.537230
C130	C	0.881633	0.275429	1.252590
H131	H	0.846559	0.282775	1.322714
H132	H	0.932446	0.235468	1.257497
H133	H	0.825911	0.235476	1.257481
H134	H	0.448569	0.117764	0.769800
C135	C	1.729865	0.123646	0.404397
H136	H	1.785585	0.115225	0.340240
H137	H	1.738300	0.094574	0.473421
H138	H	1.738292	0.201109	0.366885
H139	H	0.898468	0.106857	0.418068
H140	H	0.898431	0.305947	0.592552
H141	H	1.485671	-0.106816	0.418107
C142	C	1.128908	0.724594	0.404366
H143	H	1.163989	0.717260	0.446753
H144	H	1.078091	0.764551	0.420127
H145	H	1.184624	0.764544	0.313586
C146	C	1.729861	0.477325	0.404375
H147	H	1.722527	0.399858	0.446760
H148	H	1.769819	0.512380	0.420138
H149	H	1.769812	0.512389	0.313595
C150	C	1.280648	0.522677	0.606313
H151	H	1.224939	0.450094	0.670465
H152	H	1.272201	0.562625	0.537298
H153	H	1.272214	0.562621	0.643836
H154	H	0.213084	-0.117713	1.240826
H155	H	0.193493	-0.224517	1.454460
H156	H	1.112090	0.519610	0.791653
H157	H	0.898452	0.480421	1.218933
C158	C	0.364864	-0.241249	1.488096
H159	H	0.437445	-0.232786	1.471231
H160	H	0.324899	-0.318722	1.536575
H161	H	0.324933	-0.212084	1.536384
