data_functionalizedCrystal
_audit_creation_method	'MofGen! by Chris Wilmer'
_symmetry_space_group_name_H-M	'P1'
_symmetry_Int_Tables_number	1
_symmetry_cell_setting	triclinic
loop_
_symmetry_equiv_pos_as_xyz
  x,y,z
_cell_length_a	19.077105
_cell_length_b	16.625546
_cell_length_c	19.076919
_cell_angle_alpha	92.269917
_cell_angle_beta	90.076224
_cell_angle_gamma	87.718759
loop_
_atom_site_label
_atom_site_type_symbol
_atom_site_fract_x
_atom_site_fract_y
_atom_site_fract_z
Zn1	Zn	1.058283	-0.390077	-0.440407
Zn2	Zn	1.062927	-0.519720	-0.322896
Zn3	Zn	0.945500	-0.379275	-0.318200
Zn4	Zn	0.940748	-0.519234	-0.435649
O5	O	1.001864	-0.452076	-0.379288
O6	O	1.157231	-0.411998	-0.428775
O7	O	1.051282	-0.496773	-0.223942
O8	O	0.960506	-0.267879	-0.334437
O9	O	1.160642	-0.507246	-0.342441
O10	O	1.043367	-0.275815	-0.424222
O11	O	0.965009	-0.393589	-0.220492
O12	O	0.846538	-0.393117	-0.329824
O13	O	0.952407	-0.506418	-0.534611
O14	O	0.843047	-0.495944	-0.416113
O15	O	1.038759	-0.411527	-0.538107
O16	O	1.046674	-0.632485	-0.337827
O17	O	0.956910	-0.632127	-0.420666
C18	C	0.819296	-0.443306	-0.371943
C19	C	0.741192	-0.439575	-0.368817
C20	C	1.001799	-0.661563	-0.379256
C21	C	1.001834	-0.751186	-0.379268
C22	C	0.702702	-0.491432	-0.412204
C23	C	0.629314	-0.487916	-0.409270
C24	C	0.594418	-0.432544	-0.362946
C25	C	0.632913	-0.380681	-0.319557
C26	C	0.706299	-0.384194	-0.322495
C27	C	0.375130	-0.416284	-0.349354
C28	C	0.301739	-0.412776	-0.346418
C29	C	0.298145	-0.520010	-0.436133
C30	C	0.371533	-0.523522	-0.439063
C31	C	0.410021	-0.471655	-0.395677
N32	N	0.519405	-0.428950	-0.359945
N33	N	0.485034	-0.475247	-0.398682
C34	C	1.001954	-1.079371	-0.379346
C35	C	1.001918	-0.988060	-0.379327
C36	C	1.001894	-0.915281	-0.379307
C37	C	1.001859	-0.823965	-0.379288
C38	C	1.185146	-0.460881	-0.386662
C39	C	1.263249	-0.464634	-0.389805
C40	C	0.994535	-0.460123	-0.562568
C41	C	0.991412	-0.463552	-0.640671
C42	C	1.001948	-0.241774	-0.379336
C43	C	1.001984	-0.152155	-0.379357
C44	C	1.034901	-0.415760	-0.679185
C45	C	1.031958	-0.418978	-0.752571
C46	C	0.985529	-0.469993	-0.787441
C47	C	0.942035	-0.517786	-0.748922
C48	C	0.944975	-0.514563	-0.675537
C49	C	0.971911	-0.484926	-1.006722
C50	C	0.968976	-0.488147	-1.080112
C51	C	1.058898	-0.389338	-1.083755
C52	C	1.061837	-0.386123	-1.010369
C53	C	1.018341	-0.433913	-0.971856
N54	N	0.982521	-0.473286	-0.862453
N55	N	1.021346	-0.430616	-0.896846
C56	C	1.009205	-0.444005	-0.196723
C57	C	1.012465	-0.440356	-0.118626
H58	H	0.597979	-0.530145	-0.444600
H59	H	1.072711	-0.374221	-0.650799
O60	O	0.736485	-0.545244	-0.457267
C61	C	0.686773	-0.590273	-0.494920
H62	H	0.634372	-0.554855	-0.495309
H63	H	0.705770	-0.602416	-0.551120
H64	H	0.679977	-0.649956	-0.468780
O65	O	0.598908	-0.326960	-0.274579
C66	C	0.525881	-0.334964	-0.281301
H67	H	0.514928	-0.397758	-0.303810
H68	H	0.500085	-0.325748	-0.227560
H69	H	0.503579	-0.287858	-0.317968
O70	O	1.074277	-0.372530	-0.789877
C71	C	1.115878	-0.326802	-0.743363
H72	H	1.120391	-0.357649	-0.691143
H73	H	1.170397	-0.321797	-0.766800
H74	H	1.090488	-0.263985	-0.734534
H75	H	0.273329	-0.367677	-0.308699
O76	O	0.896871	-0.567361	-0.782682
C77	C	0.859129	-0.608867	-0.732950
H78	H	0.858803	-0.573425	-0.680549
H79	H	0.802913	-0.615741	-0.751920
H80	H	0.885151	-0.670995	-0.726165
H81	H	0.737637	-0.341962	-0.287168
O82	O	1.106988	-0.336663	-0.976455
C83	C	1.154045	-0.382856	-0.935791
H84	H	1.157515	-0.447536	-0.958068
H85	H	1.208154	-0.356220	-0.937116
H86	H	1.134519	-0.382163	-0.879307
H87	H	1.094310	-0.350429	-1.115120
O88	O	0.405317	-0.577333	-0.484125
C89	C	0.355608	-0.622366	-0.521779
H90	H	0.303206	-0.586950	-0.522174
H91	H	0.374609	-0.634515	-0.577976
H92	H	0.348811	-0.682047	-0.495634
H93	H	0.266800	-0.562235	-0.471456
H94	H	0.406459	-0.374056	-0.314021
H95	H	0.909554	-0.553472	-0.644180
O96	O	0.923808	-0.537722	-1.113875
C97	C	0.886059	-0.579227	-1.064148
H98	H	0.885730	-0.543788	-1.011746
H99	H	0.829844	-0.586097	-1.083123
H100	H	0.912076	-0.641358	-1.057363
H101	H	0.936503	-0.523853	-0.975374
