data_functionalizedCrystal
_audit_creation_method	'MofGen! by Chris Wilmer'
_symmetry_space_group_name_H-M	'P1'
_symmetry_Int_Tables_number	1
_symmetry_cell_setting	triclinic
loop_
_symmetry_equiv_pos_as_xyz
  x,y,z
_cell_length_a	12.827892
_cell_length_b	19.805407
_cell_length_c	19.805399
_cell_angle_alpha	90.018378
_cell_angle_beta	89.976064
_cell_angle_gamma	89.985623
loop_
_atom_site_label
_atom_site_type_symbol
_atom_site_fract_x
_atom_site_fract_y
_atom_site_fract_z
Zn1	Zn	-0.416071	-1.034770	-0.382770
Zn2	Zn	-0.590831	-1.034711	-0.269592
Zn3	Zn	-0.416101	-0.921590	-0.269592
Zn4	Zn	-0.590768	-0.921569	-0.382736
O5	O	-0.503443	-0.978160	-0.326173
O6	O	-0.439267	-1.129478	-0.367771
O7	O	-0.567691	-1.019690	-0.174875
O8	O	-0.269861	-0.936636	-0.284620
O9	O	-0.567662	-1.129436	-0.284620
O10	O	-0.269839	-1.019789	-0.367771
O11	O	-0.439318	-0.936579	-0.174875
O12	O	-0.439257	-0.826870	-0.284586
O13	O	-0.567555	-0.936602	-0.477457
O14	O	-0.567584	-0.826856	-0.367713
O15	O	-0.439206	-1.019769	-0.477482
O16	O	-0.737058	-1.019670	-0.284586
O17	O	-0.737012	-0.936545	-0.367713
C18	C	-0.503418	-0.802304	-0.326146
C19	C	-0.503432	-0.727072	-0.326151
C20	C	-0.570352	-0.691738	-0.369364
C21	C	-0.570352	-0.621049	-0.369371
C22	C	-0.503437	-0.585696	-0.326162
C23	C	-0.436510	-0.621035	-0.282948
C24	C	-0.436505	-0.691723	-0.282944
C25	C	-0.436525	-0.335962	-0.282962
C26	C	-0.436537	-0.265270	-0.282968
C27	C	-0.570371	-0.265289	-0.369390
C28	C	-0.570367	-0.335976	-0.369386
C29	C	-0.503437	-0.371309	-0.326174
C30	C	-0.503436	-0.447957	-0.326168
C31	C	-0.503442	-0.509049	-0.326165
C32	C	-0.774952	-0.978118	-0.326161
C33	C	-0.891106	-0.978161	-0.326178
C34	C	-0.942879	-1.019343	-0.285090
C35	C	-1.062929	-1.019389	-0.285107
C36	C	-0.230872	-0.978221	-0.326199
C37	C	-0.114719	-0.978247	-0.326211
C38	C	-0.503370	-0.978190	-0.502715
C39	C	-0.503339	-0.978202	-0.577947
C40	C	-0.503461	-0.154703	-0.326193
C41	C	-0.503452	-0.229935	-0.326185
C42	C	-0.436489	-0.934939	-0.613291
C43	C	-0.436469	-0.934948	-0.683979
C44	C	-0.503294	-0.978225	-0.719323
C45	C	-0.570151	-1.021490	-0.683974
C46	C	-0.570176	-1.021477	-0.613287
C47	C	-0.570054	-1.021544	-0.969048
C48	C	-0.570022	-1.021555	-1.039740
C49	C	-0.436346	-0.935015	-1.039740
C50	C	-0.436371	-0.935002	-0.969053
C51	C	-0.503232	-0.978264	-0.933711
C52	C	-0.503255	-0.978253	-0.857062
C53	C	-0.503267	-0.978240	-0.795970
C54	C	-0.503439	-0.978169	-0.150317
C55	C	-0.503176	-0.978288	-0.075085
H56	H	-0.898329	-1.054569	-0.249903
O57	O	-0.944131	-0.936045	-0.368129
C58	C	-0.917662	-0.868568	-0.353272
H59	H	-0.838416	-0.867103	-0.327286
H60	H	-0.979135	-0.845854	-0.318425
C61	C	-1.010089	-0.829321	-0.451137
C62	C	-0.912753	-0.827521	-0.419225
H63	H	-1.007065	-0.804000	-0.491818
H64	H	-1.027925	-0.874781	-0.461145
H65	H	-1.061306	-0.810393	-0.422091
H66	H	-0.861541	-0.846456	-0.448267
H67	H	-0.894908	-0.782063	-0.409223
O68	O	-0.635217	-1.063457	-0.718274
C69	C	-0.739372	-1.048649	-0.700975
H70	H	-0.744648	-0.994571	-0.681537
H71	H	-0.766708	-1.084922	-0.659944
C72	C	-0.802614	-1.122944	-0.787634
C73	C	-0.809095	-1.056523	-0.763766
H74	H	-0.845624	-1.127804	-0.826365
H75	H	-0.732442	-1.132923	-0.799287
H76	H	-0.825392	-1.153164	-0.753435
H77	H	-0.786305	-1.026305	-0.797961
H78	H	-0.879265	-1.046539	-0.752119
O79	O	-0.371559	-0.586768	-0.240881
C80	C	-0.394275	-0.604000	-0.173394
H81	H	-0.434438	-0.655318	-0.171943
H82	H	-0.447961	-0.564201	-0.150540
C83	C	-0.242988	-0.544230	-0.134292
C84	C	-0.292308	-0.607263	-0.132508
H85	H	-0.180092	-0.546240	-0.109070
H86	H	-0.227685	-0.532618	-0.179758
H87	H	-0.287737	-0.511071	-0.115247
H88	H	-0.247565	-0.640419	-0.151560
H89	H	-0.307602	-0.618881	-0.087044
O90	O	-0.371649	-0.726124	-0.240932
C91	C	-0.431057	-0.766977	-0.197138
H92	H	-0.510299	-0.777562	-0.220921
H93	H	-0.442439	-0.739716	-0.146966
C94	C	-0.276207	-0.821125	-0.155734
C95	C	-0.373531	-0.834131	-0.184948
H96	H	-0.240721	-0.862548	-0.148212
H97	H	-0.236182	-0.793601	-0.185237
H98	H	-0.285706	-0.798406	-0.113928
H99	H	-0.364030	-0.856842	-0.226758
H100	H	-0.413553	-0.861661	-0.155452
H101	H	-1.107452	-1.054645	-0.249929
O102	O	-0.635283	-0.230861	-0.411352
C103	C	-0.620960	-0.160890	-0.402083
H104	H	-0.540268	-0.151235	-0.380009
H105	H	-0.682872	-0.140806	-0.365971
C106	C	-0.729787	-0.136484	-0.497673
C107	C	-0.630676	-0.124626	-0.470566
H108	H	-0.735785	-0.114114	-0.539915
H109	H	-0.739441	-0.183625	-0.503916
H110	H	-0.781370	-0.119748	-0.467573
H111	H	-0.579096	-0.141370	-0.500662
H112	H	-0.621014	-0.077487	-0.464329
H113	H	-0.382037	-0.899717	-0.712753
O114	O	-0.635387	-0.725972	-0.411402
C115	C	-0.694468	-0.679624	-0.449533
H116	H	-0.651671	-0.629242	-0.451925
H117	H	-0.773787	-0.672086	-0.424661
C118	C	-0.762231	-0.769113	-0.518616
C119	C	-0.709663	-0.707236	-0.521558
H120	H	-0.771609	-0.786146	-0.563043
H121	H	-0.722431	-0.800340	-0.492925
H122	H	-0.828324	-0.762823	-0.497887
H123	H	-0.643566	-0.713528	-0.542279
H124	H	-0.749453	-0.676011	-0.547254
H125	H	-1.070203	-0.942985	-0.361387
O126	O	-0.371428	-0.231032	-0.240974
C127	C	-0.312368	-0.277374	-0.202822
H128	H	-0.308799	-0.327774	-0.230545
H129	H	-0.350524	-0.284868	-0.151371
C130	C	-0.205516	-0.187889	-0.159149
C131	C	-0.201125	-0.249790	-0.193202
H132	H	-0.136897	-0.170873	-0.153212
H133	H	-0.245307	-0.156667	-0.184851
H134	H	-0.237317	-0.194142	-0.116277
H135	H	-0.169336	-0.243534	-0.236076
H136	H	-0.161325	-0.281011	-0.167507
H137	H	-0.624605	-1.056711	-0.584511
O138	O	-0.635215	-0.586700	-0.411419
C139	C	-0.575822	-0.545825	-0.455200
H140	H	-0.493523	-0.567136	-0.459475
H141	H	-0.572187	-0.492242	-0.434285
C142	C	-0.728110	-0.518592	-0.520253
C143	C	-0.627030	-0.544771	-0.525508
H144	H	-0.759699	-0.517939	-0.563622
H145	H	-0.768126	-0.546128	-0.490756
H146	H	-0.725067	-0.473943	-0.502821
H147	H	-0.630076	-0.589422	-0.542931
H148	H	-0.587016	-0.517242	-0.555010
H149	H	-0.624507	-1.056763	-0.940281
O150	O	-0.371542	-0.892835	-0.579066
C151	C	-0.312519	-0.854663	-0.625423
H152	H	-0.355304	-0.852322	-0.675806
H153	H	-0.233151	-0.879465	-0.632953
C154	C	-0.244912	-0.785497	-0.535949
C155	C	-0.297466	-0.782617	-0.597828
H156	H	-0.235622	-0.741057	-0.518927
H157	H	-0.284673	-0.811216	-0.504717
H158	H	-0.178777	-0.806169	-0.542233
H159	H	-0.363604	-0.761954	-0.591542
H160	H	-0.257715	-0.756893	-0.629059
H161	H	-0.624860	-0.364757	-0.404569
H162	H	-0.381951	-0.899764	-0.940280
H163	H	-0.381908	-0.899787	-1.068524
O164	O	-0.635043	-1.063614	-1.073969
C165	C	-0.694046	-1.101807	-1.027619
H166	H	-0.697681	-1.074075	-0.977225
H167	H	-0.655797	-1.153223	-1.020112
C168	C	-0.800792	-1.145596	-1.117094
C169	C	-0.805264	-1.111532	-1.055202
H170	H	-0.869395	-1.151598	-1.134110
H171	H	-0.761039	-1.119867	-1.148323
H172	H	-0.768914	-1.188439	-1.110831
H173	H	-0.837130	-1.068687	-1.061468
H174	H	-0.845025	-1.137254	-1.023975
H175	H	-0.382034	-0.364722	-0.247771
