data_functionalizedCrystal
_audit_creation_method	'MofGen! by Chris Wilmer'
_symmetry_space_group_name_H-M	'P1'
_symmetry_Int_Tables_number	1
_symmetry_cell_setting	triclinic
loop_
_symmetry_equiv_pos_as_xyz
  x,y,z
_cell_length_a	11.169417
_cell_length_b	29.839133
_cell_length_c	11.169409
_cell_angle_alpha	90.030123
_cell_angle_beta	90.019824
_cell_angle_gamma	90.034392
loop_
_atom_site_label
_atom_site_type_symbol
_atom_site_fract_x
_atom_site_fract_y
_atom_site_fract_z
Zn1	Zn	-1.834769	0.178806	-0.678561
Zn2	Zn	-1.834577	0.253948	-0.477886
Zn3	Zn	-1.634055	0.178834	-0.477896
Zn4	Zn	-1.633981	0.253911	-0.678531
O5	O	-1.734346	0.216375	-0.578218
O6	O	-2.002693	0.188778	-0.651950
O7	O	-1.807928	0.244011	-0.309937
O8	O	-1.660791	0.115963	-0.504531
O9	O	-2.002552	0.243984	-0.504515
O10	O	-1.808255	0.115943	-0.651959
O11	O	-1.660605	0.188825	-0.309944
O12	O	-1.466096	0.188789	-0.504502
O13	O	-1.660666	0.243922	-0.846485
O14	O	-1.466041	0.243948	-0.651907
O15	O	-1.808184	0.188742	-0.846507
O16	O	-1.807857	0.316810	-0.504485
O17	O	-1.660480	0.316783	-0.651898
C18	C	-1.422521	0.216368	-0.578203
C19	C	-1.289121	0.216376	-0.578225
C20	C	-1.734172	0.333097	-0.578213
C21	C	-1.734208	0.383032	-0.578251
C22	C	-1.734438	0.216325	-0.891261
C23	C	-1.734477	0.216304	-1.024661
C24	C	-2.047388	0.216382	-0.578234
C25	C	-2.180788	0.216385	-0.578241
C26	C	-1.811079	0.739574	-0.655065
C27	C	-1.810999	0.551900	-0.655066
O28	O	-1.876262	0.527597	-0.720363
N29	N	-1.734276	0.528477	-0.578246
C30	C	-1.657572	0.551975	-0.501415
O31	O	-1.592321	0.527745	-0.436067
C32	C	-1.657658	0.739647	-0.501409
C33	C	-1.734378	0.763068	-0.578242
C34	C	-1.887793	0.762995	-0.731891
C35	C	-1.887808	0.809910	-0.731895
C36	C	-1.811108	0.833404	-0.655072
C37	C	-1.734393	0.809983	-0.578246
C38	C	-1.580962	0.763144	-0.424573
C39	C	-1.580992	0.810065	-0.424576
C40	C	-1.657712	0.833486	-0.501409
C41	C	-1.657707	0.880393	-0.501427
N42	N	-1.734431	0.903817	-0.578246
C43	C	-1.811131	0.880322	-0.655069
C44	C	-1.657531	0.453444	-0.501426
C45	C	-1.657507	0.406526	-0.501429
C46	C	-1.810936	0.406455	-0.655078
C47	C	-1.810953	0.453374	-0.655080
C48	C	-1.734254	0.476867	-0.578245
C49	C	-1.811155	0.978848	-0.655071
C50	C	-1.811159	1.025768	-0.655072
C51	C	-1.657735	1.025834	-0.501418
C52	C	-1.657726	0.978919	-0.501422
C53	C	-1.734445	0.955427	-0.578252
O54	O	-1.592488	0.904725	-0.436155
O55	O	-1.876391	0.904560	-0.720389
C56	C	-1.811064	0.692658	-0.655061
C57	C	-1.734350	0.669237	-0.578235
C58	C	-1.657649	0.692731	-0.501413
C59	C	-1.734326	0.622319	-0.578238
C60	C	-1.811027	0.598825	-0.655061
C61	C	-1.887750	0.622248	-0.731880
C62	C	-1.887765	0.669164	-0.731884
C63	C	-1.580926	0.669308	-0.424593
C64	C	-1.580917	0.622392	-0.424596
C65	C	-1.657617	0.598898	-0.501419
C66	C	-1.734507	1.099196	-0.578246
C67	C	-1.734459	1.049262	-0.578249
C68	C	-1.734323	0.216392	-0.266394
C69	C	-1.734516	0.216287	-0.132994
H70	H	-1.873632	1.044835	-0.717646
H71	H	-1.518490	0.744081	-0.362008
N72	N	-1.893704	0.478638	-0.737935
H73	H	-1.844907	0.498109	-0.793506
H74	H	-1.942272	0.456606	-0.786525
N75	N	-1.498166	0.597132	-0.341721
H76	H	-1.412404	0.605316	-0.360274
H77	H	-1.516973	0.605323	-0.256025
H78	H	-1.950290	0.828975	-0.794451
H79	H	-1.950258	0.743870	-0.794449
H80	H	-1.873387	0.387318	-0.717632
H81	H	-1.518535	0.829191	-0.362005
N82	N	-1.970526	0.694412	-0.814762
H83	H	-2.026194	0.713873	-0.766056
H84	H	-1.921655	0.713854	-0.870335
N85	N	-1.574746	0.381267	-0.418572
H86	H	-1.526168	0.403275	-0.369907
H87	H	-1.623622	0.361798	-0.363073
N88	N	-1.893900	0.953514	-0.737936
H89	H	-1.942493	0.975476	-0.786601
H90	H	-1.845010	0.934051	-0.793436
N91	N	-1.574802	0.478780	-0.418548
H92	H	-1.526199	0.456818	-0.369892
H93	H	-1.519237	0.498254	-0.467345
N94	N	-1.574964	0.953654	-0.418572
H95	H	-1.526373	0.975659	-0.369911
H96	H	-1.623841	0.934188	-0.363068
N97	N	-1.575018	1.051179	-0.418555
H98	H	-1.586684	1.084455	-0.430215
H99	H	-1.593761	1.042989	-0.332860
H100	H	-1.950198	0.603112	-0.794437
H101	H	-1.518468	0.688432	-0.362031
