data_functionalizedCrystal
_audit_creation_method	'MofGen! by Chris Wilmer'
_symmetry_space_group_name_H-M	'P1'
_symmetry_Int_Tables_number	1
_symmetry_cell_setting	triclinic
loop_
_symmetry_equiv_pos_as_xyz
  x,y,z
_cell_length_a	15.944493
_cell_length_b	17.038274
_cell_length_c	15.021413
_cell_angle_alpha	90.003767
_cell_angle_beta	89.993251
_cell_angle_gamma	92.706585
loop_
_atom_site_label
_atom_site_type_symbol
_atom_site_fract_x
_atom_site_fract_y
_atom_site_fract_z
O1	O	1.121743	-0.100610	-0.074037
O2	O	0.878078	-0.113089	-0.074043
O3	O	0.998462	0.006966	-0.074015
O4	O	1.001359	-0.220665	-0.074064
O5	O	0.998443	0.006949	0.074049
O6	O	0.878058	-0.113106	0.074021
O7	O	1.121724	-0.100627	0.074028
Zn8	Zn	0.999888	-0.106869	0.097533
Zn9	Zn	0.999913	-0.106847	-0.097548
O10	O	1.001339	-0.220682	0.074000
C11	C	0.846737	-0.112588	-0.000011
C12	C	0.753379	-0.111059	-0.000013
C13	C	0.522665	-0.181726	-0.000029
C14	C	0.469376	-0.143626	0.072987
C15	C	0.582456	-0.108225	-0.000010
C16	C	0.469398	-0.143592	-0.072993
C17	C	0.417351	-0.105494	-0.000012
C18	C	0.530397	-0.070145	0.073065
C19	C	0.530423	-0.070122	-0.072980
C20	C	0.477163	-0.031968	0.000053
C21	C	0.677568	-0.109801	-0.000009
C22	C	0.322241	-0.103912	-0.000007
C23	C	0.995818	0.036086	0.000021
C24	C	0.987958	0.122880	0.000034
C25	C	1.060117	0.172986	0.000044
C26	C	1.052727	0.254538	0.000048
C27	C	0.973178	0.285981	0.000049
C28	C	0.901014	0.235867	0.000036
C29	C	0.908405	0.154318	0.000025
C30	C	0.947068	0.531741	0.000074
C31	C	0.939683	0.613297	0.000087
C32	C	1.091396	0.631962	0.000097
C33	C	1.098780	0.550410	0.000092
C34	C	1.026616	0.500304	0.000075
C35	C	0.965622	0.369339	0.000055
C36	C	1.034172	0.416947	0.000062
C37	C	1.153065	-0.101128	-0.000006
C38	C	1.246422	-0.102658	-0.000011
C39	C	1.003983	0.750198	0.000000
C40	C	1.011841	0.663404	0.000097
N41	N	0.999877	-0.106884	0.230670
N42	N	0.999931	-0.106826	-0.230686
C43	C	0.944200	-0.162372	0.470341
C44	C	1.021185	-0.177536	0.529673
C45	C	0.999897	-0.106865	0.412277
C46	C	0.922933	-0.091718	0.529687
C47	C	0.999910	-0.106848	0.587701
C48	C	1.076923	-0.122064	0.470303
C49	C	0.978619	-0.036216	0.470311
C50	C	1.055657	-0.051350	0.529617
C51	C	0.999888	-0.106877	0.311220
C52	C	0.999927	-0.106835	0.688756
H53	H	0.442685	-0.174640	-0.134713
Cl54	Cl	0.571467	-0.022263	0.168467
Cl55	Cl	0.446290	0.065852	0.000139
Cl56	Cl	0.871564	-0.234899	0.430151
Cl57	Cl	1.160127	0.133467	0.000053
H58	H	1.111486	0.295332	0.000058
Cl59	Cl	0.822438	-0.071948	0.569961
Cl60	Cl	0.817687	0.091326	0.000010
Cl61	Cl	0.553777	-0.279472	0.000056
Cl62	Cl	0.571723	-0.022231	-0.168268
Cl63	Cl	0.428106	-0.191559	0.168268
Cl64	Cl	1.198789	0.510888	0.000063
Cl65	Cl	1.128467	0.021137	0.569556
H66	H	1.150148	0.672766	0.000110
Cl67	Cl	0.839670	0.652824	0.000093
Cl68	Cl	0.801009	0.275396	0.000025
Cl69	Cl	0.856346	0.468761	0.000050
Cl70	Cl	1.134173	0.377417	0.000057
Cl71	Cl	0.865620	0.408874	0.000051
Cl72	Cl	1.048991	-0.269766	0.569932
H73	H	1.142034	-0.134939	0.444328
H74	H	0.960588	0.023504	0.444216
