data_functionalizedCrystal
_audit_creation_method	'MofGen! by Chris Wilmer'
_symmetry_space_group_name_H-M	'P1'
_symmetry_Int_Tables_number	1
_symmetry_cell_setting	triclinic
loop_
_symmetry_equiv_pos_as_xyz
  x,y,z
_cell_length_a	17.077404
_cell_length_b	17.077402
_cell_length_c	17.077396
_cell_angle_alpha	89.972568
_cell_angle_beta	90.018362
_cell_angle_gamma	89.977697
loop_
_atom_site_label
_atom_site_type_symbol
_atom_site_fract_x
_atom_site_fract_y
_atom_site_fract_z
Zn1	Zn	1.200047	0.312551	0.443825
Zn2	Zn	1.450047	0.562551	0.693825
Zn3	Zn	1.700047	0.812551	0.943825
Zn4	Zn	1.950047	1.062551	1.193825
Zn5	Zn	1.199950	0.443826	0.312561
Zn6	Zn	1.449950	0.693826	0.562561
Zn7	Zn	1.699950	0.943826	0.812561
Zn8	Zn	1.949950	1.193826	1.062561
Zn9	Zn	1.068779	0.312573	0.312575
Zn10	Zn	1.318779	0.562573	0.562575
Zn11	Zn	1.568779	0.812573	0.812575
Zn12	Zn	1.818779	1.062573	1.062575
Zn13	Zn	1.068743	0.443774	0.443787
Zn14	Zn	1.318743	0.693774	0.693787
Zn15	Zn	1.568743	0.943774	0.943787
Zn16	Zn	1.818743	1.193774	1.193787
O17	O	1.134380	0.378181	0.378187
O18	O	1.384380	0.628181	0.628187
O19	O	1.634380	0.878181	0.878187
O20	O	1.884380	1.128181	1.128187
O21	O	1.309881	0.329977	0.426422
O22	O	1.559881	0.579977	0.676422
O23	O	1.809881	0.829977	0.926422
O24	O	2.059881	1.079977	1.176422
O25	O	1.182525	0.426446	0.202716
O26	O	1.432525	0.676446	0.452716
O27	O	1.682525	0.926446	0.702716
O28	O	1.932525	1.176446	0.952716
O29	O	1.086247	0.202723	0.330007
O30	O	1.336247	0.452723	0.580007
O31	O	1.586247	0.702723	0.830007
O32	O	1.836247	0.952723	1.080007
O33	O	1.309810	0.426424	0.329983
O34	O	1.559810	0.676424	0.579983
O35	O	1.809810	0.926424	0.829983
O36	O	2.059810	1.176424	1.079983
O37	O	1.182689	0.202707	0.426436
O38	O	1.432689	0.452707	0.676436
O39	O	1.682689	0.702707	0.926436
O40	O	1.932689	0.952707	1.176436
O41	O	1.086153	0.330015	0.202726
O42	O	1.336153	0.580015	0.452726
O43	O	1.586153	0.830015	0.702726
O44	O	1.836153	1.080015	0.952726
O45	O	0.958927	0.329965	0.329971
O46	O	1.208927	0.579965	0.579971
O47	O	1.458927	0.829965	0.829971
O48	O	1.708927	1.079965	1.079971
O49	O	1.086186	0.426336	0.553639
O50	O	1.336186	0.676336	0.803639
O51	O	1.586186	0.926336	1.053639
O52	O	1.836186	1.176336	1.303639
O53	O	0.958901	0.426357	0.426372
O54	O	1.208901	0.676357	0.676372
O55	O	1.458901	0.926357	0.926372
O56	O	1.708901	1.176357	1.176372
O57	O	1.182654	0.329927	0.553667
O58	O	1.432654	0.579927	0.803667
O59	O	1.682654	0.829927	1.053667
O60	O	1.932654	1.079927	1.303667
O61	O	1.182490	0.553666	0.329947
O62	O	1.432490	0.803666	0.579947
O63	O	1.682490	1.053666	0.829947
O64	O	1.932490	1.303666	1.079947
O65	O	1.086093	0.553628	0.426358
O66	O	1.336093	0.803628	0.676358
O67	O	1.586093	1.053628	0.926358
O68	O	1.836093	1.303628	1.176358
C69	C	0.930432	0.378159	0.378169
C70	C	1.180432	0.628159	0.628169
C71	C	1.430432	0.878159	0.878169
C72	C	1.680432	1.128159	1.128169
C73	C	0.843182	0.378168	0.378180
C74	C	1.093182	0.628168	0.628180
C75	C	1.343182	0.878168	0.878180
C76	C	1.593182	1.128168	1.128180
C77	C	0.802229	0.328037	0.428473
C78	C	1.052229	0.578037	0.678473
C79	C	1.302229	0.828037	0.928473
C80	C	1.552229	1.078037	1.178473
C81	C	0.720249	0.328042	0.428476
C82	C	0.970249	0.578042	0.678476
C83	C	1.220249	0.828042	0.928476
C84	C	1.470249	1.078042	1.178476
C85	C	0.679223	0.378183	0.378191
C86	C	0.929223	0.628183	0.628191
C87	C	1.179223	0.878183	0.878191
C88	C	1.429223	1.128183	1.128191
C89	C	0.720181	0.428315	0.327893
C90	C	0.970181	0.678315	0.577893
C91	C	1.220181	0.928315	0.827893
C92	C	1.470181	1.178315	1.077893
C93	C	0.802160	0.428306	0.327886
C94	C	1.052160	0.678306	0.577886
C95	C	1.302160	0.928306	0.827886
C96	C	1.552160	1.178306	1.077886
C97	C	0.549311	0.428333	0.327913
C98	C	0.799311	0.678333	0.577913
C99	C	1.049311	0.928333	0.827913
C100	C	1.299311	1.178333	1.077913
C101	C	0.467326	0.428344	0.327920
C102	C	0.717326	0.678344	0.577920
C103	C	0.967326	0.928344	0.827920
C104	C	1.217326	1.178344	1.077920
C105	C	0.467400	0.328070	0.428503
C106	C	0.717400	0.578070	0.678503
C107	C	0.967400	0.828070	0.928503
C108	C	1.217400	1.078070	1.178503
C109	C	0.549379	0.328060	0.428496
C110	C	0.799379	0.578060	0.678496
C111	C	1.049379	0.828060	0.928496
C112	C	1.299379	1.078060	1.178496
C113	C	0.590332	0.378194	0.378199
C114	C	0.840332	0.628194	0.628199
C115	C	1.090332	0.878194	0.878199
C116	C	1.340332	1.128194	1.128199
C117	C	1.134299	0.582129	0.378164
C118	C	1.384299	0.832129	0.628164
C119	C	1.634299	1.082129	0.878164
C120	C	1.884299	1.332129	1.128164
C121	C	1.134336	0.669378	0.378180
C122	C	1.384336	0.919378	0.628180
C123	C	1.634336	1.169378	0.878180
C124	C	1.884336	1.419378	1.128180
C125	C	1.134427	0.378123	0.582931
C126	C	1.384427	0.628123	0.832931
C127	C	1.634427	0.878123	1.082931
C128	C	1.884427	1.128123	1.332931
C129	C	1.134447	0.378098	0.670181
C130	C	1.384447	0.628098	0.920181
C131	C	1.634447	0.878098	1.170181
C132	C	1.884447	1.128098	1.420181
C133	C	1.339124	0.378204	0.378205
C134	C	1.589124	0.628204	0.628205
C135	C	1.839124	0.878204	0.878205
C136	C	2.089124	1.128204	1.128205
C137	C	1.426374	0.378213	0.378213
C138	C	1.676374	0.628213	0.628213
C139	C	1.926374	0.878213	0.878213
C140	C	2.176374	1.128213	1.128213
C141	C	1.184580	0.710362	0.328035
C142	C	1.434580	0.960362	0.578035
C143	C	1.684580	1.210362	0.828035
C144	C	1.934580	1.460362	1.078035
C145	C	1.184617	0.792343	0.328058
C146	C	1.434617	1.042343	0.578058
C147	C	1.684617	1.292343	0.828058
C148	C	1.934617	1.542343	1.078058
C149	C	1.134404	0.833338	0.378224
C150	C	1.384404	1.083338	0.628224
C151	C	1.634404	1.333338	0.878224
C152	C	1.884404	1.583338	1.128224
C153	C	1.084157	0.792348	0.428375
C154	C	1.334157	1.042348	0.678375
C155	C	1.584157	1.292348	0.928375
C156	C	1.834157	1.542348	1.178375
C157	C	1.084126	0.710369	0.428355
C158	C	1.334126	0.960369	0.678355
C159	C	1.584126	1.210369	0.928355
C160	C	1.834126	1.460369	1.178355
C161	C	1.084226	0.963218	0.428412
C162	C	1.334226	1.213218	0.678412
C163	C	1.584226	1.463218	0.928412
C164	C	1.834226	1.713218	1.178412
C165	C	1.084256	1.045203	0.428431
C166	C	1.334256	1.295203	0.678431
C167	C	1.584256	1.545203	0.928431
C168	C	1.834256	1.795203	1.178431
C169	C	1.184717	1.045192	0.328115
C170	C	1.434717	1.295192	0.578115
C171	C	1.684717	1.545192	0.828115
C172	C	1.934717	1.795192	1.078115
C173	C	1.184685	0.963213	0.328095
C174	C	1.434685	1.213213	0.578095
C175	C	1.684685	1.463213	0.828095
C176	C	1.934685	1.713213	1.078095
C177	C	1.134437	0.922229	0.378245
C178	C	1.384437	1.172229	0.628245
C179	C	1.634437	1.422229	0.878245
C180	C	1.884437	1.672229	1.128245
C181	C	1.134476	1.173436	0.378237
C182	C	1.384476	1.423436	0.628237
C183	C	1.634476	1.673436	0.878237
C184	C	1.884476	1.923436	1.128237
C185	C	1.134501	1.086187	0.378285
C186	C	1.384501	1.336187	0.628285
C187	C	1.634501	1.586187	0.878285
C188	C	1.884501	1.836187	1.128285
C189	C	1.134378	0.378182	0.174239
C190	C	1.384378	0.628182	0.424239
C191	C	1.634378	0.878182	0.674239
C192	C	1.884378	1.128182	0.924239
C193	C	1.134509	0.377985	0.086990
C194	C	1.384509	0.627985	0.336990
C195	C	1.634509	0.877985	0.586990
C196	C	1.884509	1.127985	0.836990
C197	C	1.184680	0.327894	0.711187
C198	C	1.434680	0.577894	0.961187
C199	C	1.684680	0.827894	1.211187
C200	C	1.934680	1.077894	1.461187
C201	C	1.184690	0.327868	0.793167
C202	C	1.434690	0.577868	1.043167
C203	C	1.684690	0.827868	1.293167
C204	C	1.934690	1.077868	1.543167
C205	C	1.134470	0.378051	0.834141
C206	C	1.384470	0.628051	1.084141
C207	C	1.634470	0.878051	1.334141
C208	C	1.884470	1.128051	1.584141
C209	C	1.084231	0.428257	0.793129
C210	C	1.334231	0.678257	1.043129
C211	C	1.584231	0.928257	1.293129
C212	C	1.834231	1.178257	1.543129
C213	C	1.084219	0.428279	0.711150
C214	C	1.334219	0.678279	0.961150
C215	C	1.584219	0.928279	1.211150
C216	C	1.834219	1.178279	1.461150
C217	C	1.084263	0.428210	0.963999
C218	C	1.334263	0.678210	1.213999
C219	C	1.584263	0.928210	1.463999
C220	C	1.834263	1.178210	1.713999
C221	C	1.084277	0.428190	1.045984
C222	C	1.334277	0.678190	1.295984
C223	C	1.584277	0.928190	1.545984
C224	C	1.834277	1.178190	1.795984
C225	C	1.184734	0.327799	1.046017
C226	C	1.434734	0.577799	1.296017
C227	C	1.684734	0.827799	1.546017
C228	C	1.934734	1.077799	1.796017
C229	C	1.184721	0.327821	0.964038
C230	C	1.434721	0.577821	1.214038
C231	C	1.684721	0.827821	1.464038
C232	C	1.934721	1.077821	1.714038
C233	C	1.134484	0.378028	0.923032
C234	C	1.384484	0.628028	1.173032
C235	C	1.634484	0.878028	1.423032
C236	C	1.884484	1.128028	1.673032
H237	H	0.433925	0.469173	0.286974
H238	H	0.683925	0.719173	0.536974
H239	H	0.933925	0.969173	0.786974
H240	H	1.183925	1.219173	1.036974
Cl241	Cl	1.247822	0.264807	0.659686
Cl242	Cl	1.497822	0.514807	0.909686
Cl243	Cl	1.747822	0.764807	1.159686
Cl244	Cl	1.997822	1.014807	1.409686
Cl245	Cl	1.021122	1.096739	0.491489
Cl246	Cl	1.271122	1.346739	0.741489
Cl247	Cl	1.521122	1.596739	0.991489
Cl248	Cl	1.771122	1.846739	1.241489
H249	H	1.043213	0.677001	0.469190
H250	H	1.293213	0.927001	0.719190
H251	H	1.543213	1.177001	0.969190
H252	H	1.793213	1.427001	1.219190
H253	H	0.686771	0.469137	0.286946
H254	H	0.936771	0.719137	0.536946
H255	H	1.186771	0.969137	0.786946
H256	H	1.436771	1.219137	1.036946
H257	H	0.582780	0.287236	0.469447
H258	H	0.832780	0.537236	0.719447
H259	H	1.082780	0.787236	0.969447
H260	H	1.332780	1.037236	1.219447
H261	H	1.043306	0.469152	0.677764
H262	H	1.293306	0.719152	0.927764
H263	H	1.543306	0.969152	1.177764
H264	H	1.793306	1.219152	1.427764
H265	H	1.043342	0.469082	0.930615
H266	H	1.293342	0.719082	1.180615
H267	H	1.543342	0.969082	1.430615
H268	H	1.793342	1.219082	1.680615
Cl269	Cl	0.600793	0.491366	0.264686
Cl270	Cl	0.850793	0.741366	0.514686
Cl271	Cl	1.100793	0.991366	0.764686
Cl272	Cl	1.350793	1.241366	1.014686
Cl273	Cl	1.021057	0.911697	0.491461
Cl274	Cl	1.271057	1.161697	0.741461
Cl275	Cl	1.521057	1.411697	0.991461
Cl276	Cl	1.771057	1.661697	1.241461
Cl277	Cl	1.247877	0.264785	0.844714
Cl278	Cl	1.497877	0.514785	1.094714
Cl279	Cl	1.747877	0.764785	1.344714
Cl280	Cl	1.997877	1.014785	1.594714
H281	H	1.043277	0.825733	0.469224
H282	H	1.293277	1.075733	0.719224
H283	H	1.543277	1.325733	0.969224
H284	H	1.793277	1.575733	1.219224
H285	H	0.835503	0.469127	0.286932
H286	H	1.085503	0.719127	0.536932
H287	H	1.335503	0.969127	0.786932
H288	H	1.585503	1.219127	1.036932
H289	H	1.043381	0.469051	1.079342
H290	H	1.293381	0.719051	1.329342
H291	H	1.543381	0.969051	1.579342
H292	H	1.793381	1.219051	1.829342
Cl293	Cl	1.247861	0.264737	0.912529
Cl294	Cl	1.497861	0.514737	1.162529
Cl295	Cl	1.747861	0.764737	1.412529
Cl296	Cl	1.997861	1.014737	1.662529
Cl297	Cl	1.247704	0.658834	0.264960
Cl298	Cl	1.497704	0.908834	0.514960
Cl299	Cl	1.747704	1.158834	0.764960
Cl300	Cl	1.997704	1.408834	1.014960
H301	H	1.225530	0.825708	0.287224
H302	H	1.475530	1.075708	0.537224
H303	H	1.725530	1.325708	0.787224
H304	H	1.975530	1.575708	1.037224
H305	H	1.225633	1.078565	0.287283
H306	H	1.475633	1.328565	0.537283
H307	H	1.725633	1.578565	0.787283
H308	H	1.975633	1.828565	1.037283
Cl309	Cl	1.247810	0.911677	0.265028
Cl310	Cl	1.497810	1.161677	0.515028
Cl311	Cl	1.747810	1.411677	0.765028
Cl312	Cl	1.997810	1.661677	1.015028
Cl313	Cl	1.247891	0.264682	1.097566
Cl314	Cl	1.497891	0.514682	1.347566
Cl315	Cl	1.747891	0.764682	1.597566
Cl316	Cl	1.997891	1.014682	1.847566
H317	H	1.043339	0.469114	0.826496
H318	H	1.293339	0.719114	1.076496
H319	H	1.543339	0.969114	1.326496
H320	H	1.793339	1.219114	1.576496
Cl321	Cl	0.853797	0.265003	0.491696
Cl322	Cl	1.103797	0.515003	0.741696
Cl323	Cl	1.353797	0.765003	0.991696
Cl324	Cl	1.603797	1.015003	1.241696
H325	H	0.686909	0.287222	0.469431
H326	H	0.936909	0.537222	0.719431
H327	H	1.186909	0.787222	0.969431
H328	H	1.436909	1.037222	1.219431
Cl329	Cl	0.415917	0.265042	0.491731
Cl330	Cl	0.665917	0.515042	0.741731
Cl331	Cl	0.915917	0.765042	0.991731
Cl332	Cl	1.165917	1.015042	1.241731
