data_functionalizedCrystal
_audit_creation_method	'MofGen! by Chris Wilmer'
_symmetry_space_group_name_H-M	'P1'
_symmetry_Int_Tables_number	1
_symmetry_cell_setting	triclinic
loop_
_symmetry_equiv_pos_as_xyz
  x,y,z
_cell_length_a	21.295420
_cell_length_b	21.295417
_cell_length_c	21.295411
_cell_angle_alpha	90.021644
_cell_angle_beta	89.975307
_cell_angle_gamma	89.971243
loop_
_atom_site_label
_atom_site_type_symbol
_atom_site_fract_x
_atom_site_fract_y
_atom_site_fract_z
Zn1	Zn	0.962355	0.250710	-0.355914
Zn2	Zn	1.462355	0.750710	0.144086
Zn3	Zn	0.962258	0.355962	-0.250639
Zn4	Zn	1.462258	0.855962	0.249361
Zn5	Zn	0.857079	0.250708	-0.250658
Zn6	Zn	1.357079	0.750708	0.249342
Zn7	Zn	0.857048	0.355942	-0.355870
Zn8	Zn	1.357048	0.855942	0.144130
O9	O	0.909685	0.303331	-0.303270
O10	O	1.409685	0.803331	0.196730
O11	O	1.050432	0.264682	-0.341959
O12	O	1.550432	0.764682	0.158041
O13	O	0.948277	0.342007	-0.162552
O14	O	1.448277	0.842007	0.337448
O15	O	0.871097	0.162619	-0.264647
O16	O	1.371097	0.662619	0.235353
O17	O	1.050360	0.342010	-0.264614
O18	O	1.550360	0.842010	0.235386
O19	O	0.948444	0.162621	-0.341977
O20	O	1.448444	0.662621	0.158023
O21	O	0.871003	0.264677	-0.162566
O22	O	1.371003	0.764677	0.337434
O23	O	0.768985	0.264658	-0.264605
O24	O	1.268985	0.764658	0.235395
O25	O	0.871045	0.341976	-0.443966
O26	O	1.371045	0.841976	0.056034
O27	O	0.768963	0.341973	-0.341904
O28	O	1.268963	0.841973	0.158096
O29	O	0.948414	0.264662	-0.443997
O30	O	1.448414	0.764662	0.056003
O31	O	0.948248	0.444049	-0.264572
O32	O	1.448248	0.944049	0.235428
O33	O	0.870951	0.444034	-0.341885
O34	O	1.370951	0.944034	0.158115
C35	C	0.746133	0.303314	-0.303252
C36	C	1.246133	0.803314	0.196748
C37	C	0.676165	0.303321	-0.303260
C38	C	1.176165	0.803321	0.196740
C39	C	0.176712	0.343663	-0.343481
C40	C	0.676712	0.843663	0.156519
C41	C	0.242454	0.343663	-0.343474
C42	C	0.742454	0.843663	0.156526
C43	C	0.275326	0.303345	-0.303290
C44	C	0.775326	0.803345	0.196710
C45	C	0.242449	0.263035	-0.263098
C46	C	0.742449	0.763035	0.236902
C47	C	0.176708	0.263040	-0.263102
C48	C	0.676708	0.763040	0.236898
N49	N	0.378566	0.248227	-0.298558
N50	N	0.878566	0.748227	0.201442
N51	N	0.441018	0.248224	-0.298558
N52	N	0.941018	0.748224	0.201442
C53	C	0.473400	0.303327	-0.303277
C54	C	0.973400	0.803327	0.196723
N55	N	0.440972	0.358435	-0.308007
N56	N	0.940972	0.858435	0.191993
N57	N	0.378515	0.358438	-0.308010
N58	N	0.878515	0.858438	0.191990
C59	C	0.346611	0.303335	-0.303282
C60	C	0.846611	0.803335	0.196718
C61	C	0.577555	0.343638	-0.343456
C62	C	1.077555	0.843638	0.156544
C63	C	0.643298	0.343639	-0.343445
C64	C	1.143298	0.843639	0.156555
C65	C	0.643292	0.263005	-0.263072
C66	C	1.143292	0.763005	0.236928
C67	C	0.577549	0.263010	-0.263080
C68	C	1.077549	0.763010	0.236920
C69	C	0.544685	0.303325	-0.303275
C70	C	1.044685	0.803325	0.196725
C71	C	0.909602	0.466882	-0.303236
C72	C	1.409602	0.966882	0.196764
C73	C	0.909625	0.536850	-0.303242
C74	C	1.409625	1.036850	0.196758
C75	C	0.909737	0.303317	-0.467461
C76	C	1.409737	0.803317	0.032539
C77	C	0.909759	0.303312	-0.537429
C78	C	1.409759	0.803312	-0.037429
C79	C	1.073875	0.303348	-0.303289
C80	C	1.573875	0.803348	0.196711
C81	C	1.143843	0.303356	-0.303297
C82	C	1.643843	0.803356	0.196703
C83	C	0.909785	0.139140	-0.303319
C84	C	1.409785	0.639140	0.196681
C85	C	0.909827	0.069172	-0.303340
C86	C	1.409827	0.569172	0.196660
C87	C	0.949909	0.569704	-0.263026
C88	C	1.449909	1.069704	0.236974
C89	C	0.949939	0.635446	-0.263040
C90	C	1.449939	1.135446	0.236960
C91	C	0.909672	0.668333	-0.303263
C92	C	1.409672	1.168333	0.196737
C93	C	0.869385	0.635472	-0.343487
C94	C	1.369385	1.135472	0.156513
C95	C	0.869361	0.569730	-0.343476
C96	C	1.369361	1.069730	0.156524
N97	N	0.854605	0.771598	-0.308056
N98	N	1.354605	1.271598	0.191944
N99	N	0.854630	0.834049	-0.308063
N100	N	1.354630	1.334049	0.191937
C101	C	0.909743	0.866407	-0.303299
C102	C	1.409743	1.366407	0.196701
N103	N	0.964832	0.833955	-0.298517
N104	N	1.464832	1.333955	0.201483
N105	N	0.964807	0.771498	-0.298507
N106	N	1.464807	1.271498	0.201493
C107	C	0.909694	0.739618	-0.303280
C108	C	1.409694	1.239618	0.196720
C109	C	0.950063	0.970546	-0.263097
C110	C	1.450063	1.470546	0.236903
C111	C	0.950093	1.036290	-0.263116
C112	C	1.450093	1.536290	0.236884
C113	C	0.869534	1.036314	-0.343559
C114	C	1.369534	1.536314	0.156441
C115	C	0.869509	0.970572	-0.343544
C116	C	1.369509	1.470572	0.156456
C117	C	0.909773	0.937692	-0.303309
C118	C	1.409773	1.437692	0.196691
C119	C	0.950044	0.263053	-0.570313
C120	C	1.450044	0.763053	-0.070313
C121	C	0.950043	0.263025	-0.636056
C122	C	1.450043	0.763025	-0.136056
C123	C	0.909764	0.303268	-0.668911
C124	C	1.409764	0.803268	-0.168911
C125	C	0.869472	0.343530	-0.636019
C126	C	1.369472	0.843530	-0.136019
C127	C	0.869470	0.343552	-0.570278
C128	C	1.369470	0.843552	-0.070278
N129	N	0.904908	0.358336	-0.772127
N130	N	1.404908	0.858336	-0.272127
N131	N	0.904914	0.358314	-0.834578
N132	N	1.404914	0.858314	-0.334578
C133	C	0.909768	0.303204	-0.866986
C134	C	1.409768	0.803204	-0.366986
N135	N	0.914629	0.248117	-0.834584
N136	N	1.414629	0.748117	-0.334584
N137	N	0.914626	0.248141	-0.772126
N138	N	1.414626	0.748141	-0.272126
C139	C	0.909762	0.303249	-0.740197
C140	C	1.409762	0.803249	-0.240197
C141	C	0.950054	0.262913	-0.971156
C142	C	1.450054	0.762913	-0.471156
C143	C	0.950048	0.262884	-1.036900
C144	C	1.450048	0.762884	-0.536900
C145	C	0.869481	0.343395	-1.036862
C146	C	1.369481	0.843395	-0.536862
C147	C	0.869483	0.343417	-0.971120
C148	C	1.369483	0.843417	-0.471120
C149	C	0.909773	0.303177	-0.938271
C150	C	1.409773	0.803177	-0.438271
C151	C	0.909669	0.303298	-0.139719
C152	C	1.409669	0.803298	0.360281
C153	C	0.909769	0.303127	-0.069751
C154	C	1.409769	0.803127	0.430249
H155	H	0.149946	0.230215	-0.230379
H156	H	0.649946	0.730215	0.269621
O157	O	0.993343	0.534245	-0.219636
O158	O	1.493343	1.034245	0.280364
H159	H	0.965176	0.504338	-0.187574
H160	H	1.465176	1.004338	0.312426
O161	O	0.826005	0.386962	-0.534804
O162	O	1.326005	0.886962	-0.034804
H163	H	0.797991	0.414937	-0.568692
H164	H	1.297991	0.914937	-0.068692
H165	H	0.269221	0.376486	-0.376199
H166	H	0.769221	0.876486	0.123801
H167	H	0.982852	0.230097	-1.063673
H168	H	1.482852	0.730097	-0.563673
O169	O	0.993489	0.219604	-0.671545
O170	O	1.493489	0.719604	-0.171545
H171	H	1.042889	0.230414	-0.658958
H172	H	1.542889	0.730414	-0.158958
H173	H	0.836752	1.063090	-0.376312
H174	H	1.336752	1.563090	0.123688
O175	O	0.826043	0.935130	-0.386903
O176	O	1.326043	1.435130	0.113097
H177	H	0.798041	0.969041	-0.414869
H178	H	1.298041	1.469041	0.085131
O179	O	0.993384	0.670893	-0.219658
O180	O	1.493384	1.170893	0.280342
H181	H	1.021374	0.636985	-0.191676
H182	H	1.521374	1.136985	0.308324
H183	H	0.149958	0.376493	-0.376209
H184	H	0.649958	0.876493	0.123791
O185	O	0.542100	0.387142	-0.386781
O186	O	1.042100	0.887142	0.113219
H187	H	0.576004	0.415186	-0.414710
H188	H	1.076004	0.915186	0.085290
H189	H	0.982850	0.230285	-0.543571
H190	H	1.482850	0.730285	-0.043571
O191	O	0.277897	0.219545	-0.219758
O192	O	0.777897	0.719545	0.280242
H193	H	0.329134	0.226307	-0.226511
H194	H	0.829134	0.726307	0.273489
O195	O	0.826026	0.386935	-0.671451
O196	O	1.326026	0.886935	-0.171451
H197	H	0.832799	0.380161	-0.722690
H198	H	1.332799	0.880161	-0.222690
H199	H	0.982902	1.063038	-0.230368
H200	H	1.482902	1.563038	0.269632
H201	H	0.982856	0.230143	-0.944409
H202	H	1.482856	0.730143	-0.444409
O203	O	0.678755	0.387113	-0.386790
O204	O	1.178755	0.887113	0.113210
H205	H	0.644855	0.415141	-0.414744
H206	H	1.144855	0.915141	0.085256
O207	O	0.826035	0.386801	-1.072289
O208	O	1.326035	0.886801	-0.572289
H209	H	0.832806	0.380025	-1.123528
H210	H	1.332806	0.880025	-0.623528
H211	H	0.836601	0.662252	-0.376238
H212	H	1.336601	1.162252	0.123762
H213	H	0.836556	0.542981	-0.376225
H214	H	1.336556	1.042981	0.123775
O215	O	0.993495	0.935075	-0.219713
O216	O	1.493495	1.435075	0.280287
H217	H	1.021521	0.968968	-0.191758
H218	H	1.521521	1.468968	0.308242
O219	O	0.542099	0.219528	-0.219739
O220	O	1.042099	0.719528	0.280261
H221	H	0.512126	0.247661	-0.187659
H222	H	1.012126	0.747661	0.312341
O223	O	0.678735	0.219516	-0.219729
O224	O	1.178735	0.719516	0.280271
H225	H	0.729972	0.226281	-0.226480
H226	H	1.229972	0.726281	0.273520
O227	O	0.826017	0.386823	-0.935645
O228	O	1.326017	0.886823	-0.435645
H229	H	0.798003	0.414798	-0.969534
H230	H	1.298003	0.914798	-0.469534
