data_functionalizedCrystal
_audit_creation_method	'MofGen! by Chris Wilmer'
_symmetry_space_group_name_H-M	'P1'
_symmetry_Int_Tables_number	1
_symmetry_cell_setting	triclinic
loop_
_symmetry_equiv_pos_as_xyz
  x,y,z
_cell_length_a	15.944545
_cell_length_b	15.944551
_cell_length_c	14.185569
_cell_angle_alpha	76.843158
_cell_angle_beta	103.157825
_cell_angle_gamma	83.497455
loop_
_atom_site_label
_atom_site_type_symbol
_atom_site_fract_x
_atom_site_fract_y
_atom_site_fract_z
O1	O	1.095489	0.127336	-0.083357
O2	O	1.595489	0.627336	0.416643
O3	O	0.850935	0.140702	-0.083374
O4	O	1.350935	0.640702	0.416626
O5	O	0.979892	0.011742	-0.083356
O6	O	1.479892	0.511742	0.416644
O7	O	0.966531	0.256296	-0.083375
O8	O	1.466531	0.756296	0.416625
O9	O	1.017987	-0.026350	0.083484
O10	O	1.517987	0.473650	0.583484
O11	O	0.889030	0.102610	0.083466
O12	O	1.389030	0.602610	0.583466
O13	O	1.133584	0.089245	0.083483
O14	O	1.633584	0.589245	0.583483
Cu15	Cu	1.014785	0.092449	0.098708
Cu16	Cu	1.514785	0.592449	0.598708
Cu17	Cu	0.969733	0.137497	-0.098599
Cu18	Cu	1.469733	0.637497	0.401401
O19	O	1.004626	0.218205	0.083465
O20	O	1.504626	0.718205	0.583465
C21	C	0.838688	0.121103	0.000044
C22	C	1.338688	0.621103	0.500044
C23	C	0.745440	0.119444	0.000038
C24	C	1.245440	0.619444	0.500038
C25	C	0.474811	0.034546	0.000055
C26	C	0.974811	0.534546	0.500055
C27	C	0.544175	0.056694	0.082315
C28	C	1.044175	0.556694	0.582315
C29	C	0.409800	0.113519	0.000056
C30	C	0.909800	0.613519	0.500056
C31	C	0.506597	0.094271	-0.082176
C32	C	1.006597	0.594271	0.417824
C33	C	0.574711	0.116426	0.000046
C34	C	1.074711	0.616426	0.500046
C35	C	0.477952	0.135630	0.082384
C36	C	0.977952	0.635630	0.582384
C37	C	0.440353	0.173213	-0.082181
C38	C	0.940353	0.673213	0.417819
C39	C	0.509689	0.195414	0.000099
C40	C	1.009689	0.695414	0.500099
C41	C	0.314799	0.111842	0.000063
C42	C	0.814799	0.611842	0.500063
C43	C	0.669711	0.118108	0.000046
C44	C	1.169711	0.618108	0.500046
C45	C	0.998385	-0.038598	0.000064
C46	C	1.498385	0.461402	0.500064
C47	C	0.996723	-0.131844	0.000065
C48	C	1.496723	0.368156	0.500065
C49	C	0.912814	-0.346694	0.000045
C50	C	1.412814	0.153306	0.500045
C51	C	0.970560	-0.426495	0.082310
C52	C	1.470560	0.073505	0.582310
C53	C	0.993714	-0.302568	0.000057
C54	C	1.493714	0.197432	0.500057
C55	C	0.933020	-0.388922	-0.082181
C56	C	1.433020	0.111078	0.417819
C57	C	0.990800	-0.467478	0.000045
C58	C	1.490800	0.032522	0.500045
C59	C	1.051498	-0.381155	0.082389
C60	C	1.551498	0.118845	0.582389
C61	C	1.013930	-0.343560	-0.082175
C62	C	1.513930	0.156440	0.417825
C63	C	1.071740	-0.423347	0.000109
C64	C	1.571740	0.076653	0.500109
C65	C	0.995390	-0.207567	0.000064
C66	C	1.495390	0.292433	0.500064
C67	C	0.989132	-0.562479	0.000044
C68	C	1.489132	-0.062479	0.500044
C69	C	1.145830	0.108844	0.000063
C70	C	1.645830	0.608844	0.500063
C71	C	1.239076	0.110505	0.000062
C72	C	1.739076	0.610505	0.500062
C73	C	0.986133	0.268545	0.000043
C74	C	1.486133	0.768545	0.500043
C75	C	0.987793	0.361793	0.000036
C76	C	1.487793	0.861793	0.500036
N77	N	1.046478	0.060765	0.237484
N78	N	1.546478	0.560765	0.737484
N79	N	0.938047	0.169175	-0.237375
N80	N	1.438047	0.669175	0.262625
C81	C	0.844932	0.262229	0.605106
C82	C	1.344932	0.762229	1.105106
C83	C	0.868945	0.238234	0.710131
C84	C	1.368945	0.738234	1.210131
C85	C	0.983160	0.124082	0.710107
C86	C	1.483160	0.624082	1.210107
C87	C	0.959154	0.148065	0.605080
C88	C	1.459154	0.648065	1.105080
C89	C	0.890040	0.217140	0.552588
C90	C	1.390040	0.717140	1.052588
C91	C	1.004261	0.102976	0.552563
C92	C	1.504261	0.602976	1.052563
C93	C	0.980260	0.126960	0.447545
C94	C	1.480260	0.626960	0.947545
C95	C	0.911150	0.196033	0.395045
C96	C	1.411150	0.696033	0.895045
C97	C	0.866038	0.241124	0.447570
C98	C	1.366038	0.741124	0.947570
C99	C	1.073379	0.033906	0.605057
C100	C	1.573379	0.533906	1.105057
C101	C	1.118487	-0.011184	0.552539
C102	C	1.618487	0.488816	1.052539
C103	C	1.094481	0.012796	0.447519
C104	C	1.594481	0.512796	0.947519
C105	C	1.025372	0.081870	0.395019
C106	C	1.525372	0.581870	0.895019
C107	C	1.139594	-0.032294	0.394994
C108	C	1.639594	0.467706	0.894994
C109	C	1.115592	-0.008310	0.289976
C110	C	1.615592	0.491690	0.789976
C111	C	1.001370	0.105854	0.290002
C112	C	1.501370	0.605854	0.790002
H113	H	0.465039	0.153063	0.152003
H114	H	0.965039	0.653063	0.652003
H115	H	1.174762	-0.067423	0.595290
H116	H	1.674762	0.432577	1.095290
H117	H	0.809753	0.297365	0.404829
H118	H	1.309753	0.797365	0.904829
H119	H	1.195872	-0.088530	0.437747
H120	H	1.695872	0.411470	0.937747
H121	H	0.395526	0.222415	-0.151733
H122	H	0.895526	0.722415	0.348267
C123	C	1.038661	-0.294911	-0.176132
C124	C	1.538661	0.205089	0.323868
N125	N	1.057280	-0.258263	-0.246908
N126	N	1.557280	0.241737	0.253092
H127	H	0.525191	0.263469	0.000142
H128	H	1.025191	0.763469	0.500142
C129	C	0.524208	0.070647	-0.176124
C130	C	1.024208	0.570647	0.323876
N131	N	0.537471	0.052847	-0.246883
N132	N	1.037471	0.552847	0.253117
C133	C	0.945786	-0.475113	0.176258
C134	C	1.445786	0.024887	0.676258
N135	N	0.927121	-0.511729	0.247015
N136	N	1.427121	-0.011729	0.747015
C137	C	1.119158	-0.375629	0.176453
C138	C	1.619158	0.124371	0.676453
N139	N	1.170116	-0.371464	0.247302
N140	N	1.670116	0.128536	0.747302
C141	C	0.822127	-0.301712	0.000151
C142	C	1.322127	0.198288	0.500151
N143	N	0.753825	-0.267830	0.000238
N144	N	1.253825	0.232170	0.500238
H145	H	0.882912	-0.393119	-0.151734
H146	H	1.382912	0.106881	0.348266
C147	C	0.768869	0.338181	0.547358
C148	C	1.268869	0.838181	1.047358
N149	N	0.711571	0.395376	0.503862
N150	N	1.211571	0.895376	1.003862
H151	H	1.138959	-0.456519	0.000160
H152	H	1.638959	0.043481	0.500160
C153	C	1.165211	-0.057913	0.232203
C154	C	1.665211	0.442087	0.732203
N155	N	1.202586	-0.095274	0.188688
N156	N	1.702586	0.404726	0.688688
C157	C	0.925307	0.181806	0.232254
C158	C	1.425307	0.681806	0.732254
N159	N	0.868009	0.239001	0.188758
N160	N	1.368009	0.739001	0.688758
C161	C	0.604717	-0.009815	0.176272
C162	C	1.104717	0.490185	0.676272
N163	N	0.650314	-0.059914	0.247037
N164	N	1.150314	0.440086	0.747037
H165	H	0.891612	0.215563	0.309533
H166	H	1.391612	0.715563	0.809533
H167	H	0.459177	-0.033485	0.000141
H168	H	0.959177	0.466515	0.500141
H169	H	0.832207	0.274958	0.752886
H170	H	1.332207	0.774958	1.252886
C171	C	1.059181	0.048099	0.767861
C172	C	1.559181	0.548099	1.267861
N173	N	1.116439	-0.009135	0.811360
N174	N	1.616439	0.490865	1.311360
H175	H	1.092921	0.014383	0.690569
H176	H	1.592921	0.514383	1.190569
