data_functionalizedCrystal
_audit_creation_method	'MofGen! by Chris Wilmer'
_symmetry_space_group_name_H-M	'P1'
_symmetry_Int_Tables_number	1
_symmetry_cell_setting	triclinic
loop_
_symmetry_equiv_pos_as_xyz
  x,y,z
_cell_length_a	14.908520
_cell_length_b	18.215407
_cell_length_c	18.215398
_cell_angle_alpha	90.017408
_cell_angle_beta	93.271864
_cell_angle_gamma	86.683764
loop_
_atom_site_label
_atom_site_type_symbol
_atom_site_fract_x
_atom_site_fract_y
_atom_site_fract_z
Zn1	Zn	-0.359296	-1.108168	-0.432984
Zn2	Zn	-0.510158	-1.100981	-0.317017
Zn3	Zn	-0.359306	-0.985101	-0.309936
Zn4	Zn	-0.510102	-0.977973	-0.440044
O5	O	-0.434716	-1.043056	-0.374995
O6	O	-0.379328	-1.210198	-0.417610
O7	O	-0.490175	-1.085585	-0.213095
O8	O	-0.233060	-1.007417	-0.320341
O9	O	-0.490165	-1.204918	-0.332409
O10	O	-0.233053	-1.097834	-0.410743
O11	O	-0.379345	-1.000448	-0.207893
O12	O	-0.379290	-0.881172	-0.327186
O13	O	-0.490070	-0.995268	-0.542090
O14	O	-0.490079	-0.875935	-0.422776
O15	O	-0.379273	-1.090922	-0.536903
O16	O	-0.636396	-1.078673	-0.339255
O17	O	-0.636354	-0.988299	-0.429642
C18	C	-0.434681	-0.851851	-0.374979
C19	C	-0.434687	-0.770052	-0.374991
C20	C	-0.377086	-0.584601	-0.419433
C21	C	-0.377090	-0.507742	-0.419435
C22	C	-0.492332	-0.502263	-0.330563
C23	C	-0.492322	-0.579121	-0.330557
C24	C	-0.434700	-0.620288	-0.374997
C25	C	-0.434715	-0.466571	-0.375004
C26	C	-0.434721	-0.383237	-0.375006
C27	C	-0.434693	-0.703627	-0.374994
C28	C	-0.669109	-1.031953	-0.385999
C29	C	-0.769383	-1.027270	-0.390731
C30	C	-0.957791	-1.112673	-0.305579
C31	C	-1.052008	-1.108276	-0.310023
C32	C	-1.052035	-1.014082	-0.404066
C33	C	-0.957818	-1.018479	-0.399622
C34	C	-0.910700	-1.067776	-0.350376
C35	C	-0.816481	-1.072169	-0.345929
C36	C	-0.816510	-0.977979	-0.439976
C37	C	-0.910727	-0.973582	-0.444419
C38	C	-0.199407	-1.054223	-0.363965
C39	C	-0.099133	-1.058981	-0.359264
C40	C	-0.434664	-1.043102	-0.566946
C41	C	-0.434642	-1.043122	-0.648744
C42	C	-0.434742	-0.235008	-0.375010
C43	C	-0.434728	-0.316807	-0.375010
C44	C	-0.492240	-1.087491	-0.916510
C45	C	-0.492271	-1.087478	-0.839652
C46	C	-0.376870	-0.998816	-0.834219
C47	C	-0.376844	-0.998825	-0.911075
C48	C	-0.434527	-1.043167	-0.952218
C49	C	-0.434585	-1.043145	-0.798505
C50	C	-0.434618	-1.043131	-0.715173
C51	C	-0.434495	-1.043180	-1.035556
C52	C	-0.434702	-1.043055	-0.183788
C53	C	-0.434470	-1.043190	-0.101979
H54	H	-0.539247	-0.468735	-0.294382
H55	H	-0.778157	-0.941419	-0.476450
O56	O	-0.320868	-0.955782	-0.945885
C57	C	-0.333205	-0.965309	-1.022541
H58	H	-0.402824	-0.986120	-1.036305
H59	H	-0.327083	-0.910477	-1.051453
H60	H	-0.279687	-1.007032	-1.041854
H61	H	-0.539266	-1.123571	-0.810582
O62	O	-0.320862	-0.955818	-0.794138
C63	C	-0.333272	-0.965301	-0.718645
H64	H	-0.362830	-1.020693	-0.709547
H65	H	-0.265705	-0.963511	-0.686265
H66	H	-0.381315	-0.919369	-0.699078
H67	H	-0.778118	-1.112307	-0.305829
H68	H	-0.539211	-1.123596	-0.950007
O69	O	-0.912113	-1.160511	-0.257643
C70	C	-0.935185	-1.143377	-0.185369
H71	H	-1.003623	-1.111897	-0.187047
H72	H	-0.938373	-1.196359	-0.152564
H73	H	-0.882215	-1.108024	-0.158054
O74	O	-0.321154	-0.624510	-0.462700
C75	C	-0.341002	-0.604831	-0.536956
H76	H	-0.375691	-0.547389	-0.540068
H77	H	-0.275945	-0.605287	-0.566985
H78	H	-0.387418	-0.645903	-0.563860
O79	O	-0.321252	-0.472990	-0.462646
C80	C	-0.372697	-0.426132	-0.512540
H81	H	-0.441023	-0.411377	-0.489700
H82	H	-0.335971	-0.373826	-0.520732
H83	H	-0.382698	-0.455300	-0.567531
O84	O	-1.097777	-1.151988	-0.266625
C85	C	-1.152195	-1.196940	-0.311155
H86	H	-1.123758	-1.202739	-0.367783
H87	H	-1.153196	-1.253559	-0.284665
H88	H	-1.223632	-1.170872	-0.317024
O89	O	-0.548379	-0.613674	-0.287370
C90	C	-0.599229	-0.560860	-0.248139
H91	H	-0.602413	-0.505933	-0.278429
H92	H	-0.670292	-0.579710	-0.243530
H93	H	-0.566104	-0.554230	-0.190735
H94	H	-1.090415	-0.973952	-0.444164
H95	H	-0.949103	-0.933448	-0.484516
