data_functionalizedCrystal
_audit_creation_method	'MofGen! by Chris Wilmer'
_symmetry_space_group_name_H-M	'P1'
_symmetry_Int_Tables_number	1
_symmetry_cell_setting	triclinic
loop_
_symmetry_equiv_pos_as_xyz
  x,y,z
_cell_length_a	10.686220
_cell_length_b	12.594516
_cell_length_c	10.686551
_cell_angle_alpha	85.594704
_cell_angle_beta	90.307919
_cell_angle_gamma	94.393584
loop_
_atom_site_label
_atom_site_type_symbol
_atom_site_fract_x
_atom_site_fract_y
_atom_site_fract_z
Zn1	Zn	1.972305	-0.259485	-0.562394
Zn2	Zn	1.956089	-0.452133	-0.352637
Zn3	Zn	1.746425	-0.286713	-0.368711
Zn4	Zn	1.762518	-0.449977	-0.578414
O5	O	1.859334	-0.362077	-0.465539
O6	O	2.145695	-0.274547	-0.521138
O7	O	1.914754	-0.442487	-0.179224
O8	O	1.776440	-0.134150	-0.394426
O9	O	2.133781	-0.416085	-0.367030
O10	O	1.942393	-0.114146	-0.536724
O11	O	1.760716	-0.320954	-0.191034
O12	O	1.573019	-0.318863	-0.409960
O13	O	1.803869	-0.412410	-0.751835
O14	O	1.584842	-0.438812	-0.564028
O15	O	1.957998	-0.272456	-0.740065
O16	O	1.930359	-0.600798	-0.382564
O17	O	1.788144	-0.599213	-0.548442
C18	C	1.533415	-0.381559	-0.490478
C19	C	1.393987	-0.389917	-0.501176
C20	C	1.859275	-0.638623	-0.465522
C21	C	1.859367	-0.756921	-0.465548
C22	C	1.936822	-0.826985	-0.375409
C23	C	1.976267	-0.887860	-0.487561
C24	C	1.820085	-0.906829	-0.353456
C25	C	1.898875	-0.816230	-0.577755
C26	C	1.742634	-0.835202	-0.443578
C27	C	1.782041	-0.896042	-0.555812
C28	C	2.186527	-0.342520	-0.440504
C29	C	2.325956	-0.334185	-0.429836
C30	C	1.884538	-0.339155	-0.792739
C31	C	1.895278	-0.329387	-0.932173
C32	C	1.859431	-0.084447	-0.465581
C33	C	1.859472	0.033862	-0.465599
C34	C	1.834301	-0.384828	-0.139606
C35	C	1.823804	-0.394282	-0.000155
H36	H	1.345565	-0.444027	-0.570436
H37	H	1.964696	-0.266356	-0.980646
H38	H	1.786817	-0.946297	-0.258641
C39	C	1.390673	-0.262202	-0.337385
C40	C	1.459692	-0.323547	-0.251174
C41	C	1.519338	-0.257274	-0.166002
H42	H	1.329434	-0.228334	-0.293933
H43	H	1.445578	-0.209508	-0.381546
H44	H	1.404791	-0.376222	-0.207017
H45	H	1.520952	-0.357414	-0.294589
H46	H	1.574243	-0.204579	-0.210163
H47	H	1.458091	-0.223409	-0.122560
H48	H	1.566183	-0.298884	-0.107505
H49	H	2.075031	-0.911290	-0.506175
C50	C	2.024386	-0.786525	-0.274002
C51	C	2.146536	-0.812853	-0.297637
C52	C	2.227237	-0.775585	-0.204265
H53	H	1.997421	-0.818741	-0.194440
H54	H	2.023250	-0.711157	-0.274209
H55	H	2.147667	-0.888206	-0.297417
H56	H	2.173539	-0.780639	-0.377182
H57	H	2.226102	-0.700217	-0.204472
H58	H	2.200261	-0.807804	-0.124709
H59	H	2.310127	-0.793435	-0.220295
C60	C	1.943161	-0.763847	-0.704317
C61	C	1.862463	-0.799619	-0.798494
C62	C	1.903214	-0.751374	-0.915091
H63	H	2.025848	-0.782208	-0.720271
H64	H	1.942836	-0.688485	-0.703578
H65	H	1.862801	-0.874964	-0.799237
H66	H	1.779772	-0.781258	-0.782582
H67	H	1.902888	-0.676012	-0.914352
H68	H	1.985900	-0.769739	-0.931032
H69	H	1.848460	-0.775631	-0.979003
H70	H	1.643894	-0.811750	-0.424927
C71	C	1.694780	-0.936472	-0.657474
C72	C	1.694973	-1.047732	-0.655737
C73	C	1.614598	-1.085016	-0.749361
H74	H	1.722814	-0.905178	-0.737100
H75	H	1.612080	-0.917598	-0.642519
H76	H	1.777656	-1.066596	-0.670701
H77	H	1.666927	-1.079053	-0.576133
H78	H	1.531898	-1.066142	-0.734406
H79	H	1.642640	-1.053715	-0.828980
H80	H	1.614710	-1.160509	-0.748188
H81	H	1.754400	-0.457316	-0.951688
