data_functionalizedCrystal
_audit_creation_method	'MofGen! by Chris Wilmer'
_symmetry_space_group_name_H-M	'P1'
_symmetry_Int_Tables_number	1
_symmetry_cell_setting	triclinic
loop_
_symmetry_equiv_pos_as_xyz
  x,y,z
_cell_length_a	14.044220
_cell_length_b	14.044191
_cell_length_c	13.101039
_cell_angle_alpha	93.662449
_cell_angle_beta	86.332523
_cell_angle_gamma	93.190327
loop_
_atom_site_label
_atom_site_type_symbol
_atom_site_fract_x
_atom_site_fract_y
_atom_site_fract_z
O1	O	0.225377	1.281976	0.085169
O2	O	0.725377	1.781976	0.585169
O3	O	0.217064	1.005305	0.085182
O4	O	0.717064	1.505305	0.585182
O5	O	0.082885	1.139487	0.085166
O6	O	0.582885	1.639487	0.585166
O7	O	0.359556	1.147794	0.085186
O8	O	0.859556	1.647794	0.585186
O9	O	0.092530	1.129861	-0.085263
O10	O	0.592530	1.629861	0.414737
O11	O	0.226708	0.995679	-0.085247
O12	O	0.726708	1.495679	0.414753
O13	O	0.235022	1.272350	-0.085259
O14	O	0.735022	1.772350	0.414741
Zn15	Zn	0.232396	1.132486	-0.112312
Zn16	Zn	0.732396	1.632486	0.387688
Zn17	Zn	0.219689	1.145169	0.112235
Zn18	Zn	0.719689	1.645169	0.612235
O19	O	0.369200	1.138168	-0.085243
O20	O	0.869200	1.638168	0.414757
C21	C	0.218250	0.964870	-0.000031
C22	C	0.718250	1.464870	0.499969
C23	C	0.207402	0.858727	-0.000026
C24	C	0.707402	1.358727	0.499974
C25	C	0.264503	0.613268	-0.000032
C26	C	0.764503	1.113268	0.499968
C27	C	0.187587	0.664393	-0.000036
C28	C	0.687587	1.164393	0.499964
C29	C	0.198615	0.772531	-0.000031
C30	C	0.698615	1.272531	0.499969
C31	C	0.253476	0.505121	-0.000038
C32	C	0.753476	1.005121	0.499962
C33	C	0.052086	1.131038	-0.000049
C34	C	0.552086	1.631038	0.499951
C35	C	-0.054057	1.120194	-0.000050
C36	C	0.445943	1.620194	0.499950
C37	C	-0.248396	1.100368	-0.000034
C38	C	0.251604	1.600368	0.499966
C39	C	-0.299524	1.177283	-0.000034
C40	C	0.200476	1.677283	0.499966
C41	C	-0.407661	1.166252	-0.000026
C42	C	0.092339	1.666252	0.499974
C43	C	-0.140250	1.111398	-0.000043
C44	C	0.359750	1.611398	0.499957
C45	C	0.400000	1.146617	-0.000026
C46	C	0.900000	1.646617	0.499974
C47	C	0.506143	1.157462	-0.000019
C48	C	1.006143	1.657462	0.499981
C49	C	0.233836	1.312785	-0.000044
C50	C	0.733836	1.812785	0.499956
C51	C	0.244683	1.418929	-0.000042
C52	C	0.744683	1.918929	0.499958
N53	N	0.241069	1.123838	-0.265560
N54	N	0.741069	1.623838	0.234440
C55	C	0.252876	1.112072	-0.474601
C56	C	0.752876	1.612072	0.025399
C57	C	0.199205	1.165588	-0.525483
C58	C	0.699205	1.665588	-0.025483
C59	C	0.205775	1.159041	-0.641801
C60	C	0.705775	1.659041	-0.141801
C61	C	0.246308	1.118617	-0.358273
C62	C	0.746308	1.618617	0.141727
N63	N	0.211010	1.153824	0.265482
N64	N	0.711010	1.653824	0.765482
H65	H	0.113451	0.626954	0.000031
H66	H	0.613451	1.126954	0.500031
H67	H	-0.285836	1.026241	-0.000028
H68	H	0.214164	1.526241	0.499972
C69	C	0.415319	1.068415	-0.507859
C70	C	0.915319	1.568415	-0.007859
C71	C	0.321569	1.043587	-0.533709
C72	C	0.821569	1.543587	-0.033709
H73	H	0.457725	1.026132	-0.544355
H74	H	0.957725	1.526132	-0.044355
H75	H	0.431966	1.132051	-0.525379
H76	H	0.931966	1.632051	-0.025379
H77	H	0.419847	1.063883	-0.436312
H78	H	0.919847	1.563883	0.063688
H79	H	0.317040	1.048126	-0.605256
H80	H	0.817040	1.548126	-0.105256
H81	H	0.304917	0.979935	-0.516197
H82	H	0.804917	1.479935	-0.016197
C83	C	0.356263	0.762704	-0.000001
C84	C	0.856263	1.262704	0.499999
C85	C	0.364574	0.663809	-0.000011
C86	C	0.864574	1.163809	0.499989
H87	H	0.418042	0.793912	0.000021
H88	H	0.918042	1.293912	0.500021
H89	H	0.325937	0.777287	-0.059436
H90	H	0.825937	1.277287	0.440564
H91	H	0.319187	0.783982	0.059429
H92	H	0.819187	1.283982	0.559429
H93	H	0.401645	0.642529	-0.059446
H94	H	0.901645	1.142529	0.440554
H95	H	0.394914	0.649219	0.059430
H96	H	0.894914	1.149219	0.559430
H97	H	-0.262087	1.251420	0.000031
H98	H	0.237913	1.751420	0.500031
C99	C	0.136894	1.227070	-0.360912
C100	C	0.636894	1.727070	0.139088
C101	C	0.130291	1.233855	-0.466369
C102	C	0.630291	1.733855	0.033631
H103	H	0.094289	1.269152	-0.324417
H104	H	0.594289	1.769152	0.175583
H105	H	0.120444	1.163359	-0.343527
H106	H	0.620444	1.663359	0.156473
H107	H	0.200428	1.244113	-0.343273
H108	H	0.700428	1.744113	0.156727
H109	H	0.066759	1.216805	-0.484009
H110	H	0.566759	1.716805	0.015991
H111	H	0.146735	1.297580	-0.483761
H112	H	0.646735	1.797580	0.016239
