data_functionalizedCrystal
_audit_creation_method	'MofGen! by Chris Wilmer'
_symmetry_space_group_name_H-M	'P1'
_symmetry_Int_Tables_number	1
_symmetry_cell_setting	triclinic
loop_
_symmetry_equiv_pos_as_xyz
  x,y,z
_cell_length_a	14.519709
_cell_length_b	14.971486
_cell_length_c	14.048226
_cell_angle_alpha	90.006640
_cell_angle_beta	90.000842
_cell_angle_gamma	83.647137
loop_
_atom_site_label
_atom_site_type_symbol
_atom_site_fract_x
_atom_site_fract_y
_atom_site_fract_z
O1	O	-1.223800	-0.117253	-0.079037
O2	O	-0.955315	-0.131060	-0.079066
O3	O	-1.096753	0.006039	-0.079044
O4	O	-1.082361	-0.254353	-0.079059
O5	O	-1.096736	0.006048	0.079277
O6	O	-0.955298	-0.131052	0.079255
O7	O	-1.223783	-0.117245	0.079284
Zn8	Zn	-1.089538	-0.124147	0.104407
Zn9	Zn	-1.089560	-0.124158	-0.104189
O10	O	-1.082344	-0.254344	0.079262
C11	C	-0.920947	-0.130413	0.000091
C12	C	-0.818567	-0.128485	0.000080
C13	C	-1.096101	0.039369	0.000116
C14	C	-1.094172	0.138667	0.000115
C15	C	-1.258151	-0.117892	0.000125
C16	C	-1.360531	-0.119820	0.000130
C17	C	-0.443675	-0.121386	0.000123
C18	C	-0.547982	-0.123357	0.000111
C19	C	-0.631118	-0.124935	0.000101
C20	C	-0.735431	-0.126907	0.000090
C21	C	-1.082996	-0.287674	0.000100
C22	C	-1.084925	-0.386972	0.000094
N23	N	-1.089529	-0.124139	0.246767
C24	C	-1.177264	0.195845	0.000125
C25	C	-1.175446	0.289146	0.000115
C26	C	-1.090536	0.325266	0.000102
C27	C	-1.007438	0.268080	0.000090
C28	C	-1.009257	0.174781	0.000093
C29	C	-1.003653	0.462545	0.000086
C30	C	-1.001834	0.555850	0.000085
C31	C	-1.169842	0.576909	0.000108
C32	C	-1.171661	0.483610	0.000111
C33	C	-1.088563	0.426431	0.000100
N34	N	-1.089576	-0.124159	-0.246549
C35	C	-1.152178	-0.063457	0.296595
C36	C	-1.152184	-0.063456	0.396253
C37	C	-1.089545	-0.124143	0.446081
C38	C	-1.026890	-0.184829	0.396246
C39	C	-1.026880	-0.184824	0.296590
C40	C	-1.026916	-0.184835	0.603960
C41	C	-1.026927	-0.184841	0.703623
C42	C	-1.152220	-0.063467	0.703623
C43	C	-1.152211	-0.063463	0.603967
C44	C	-1.089556	-0.124150	0.554139
H45	H	-1.243107	0.335698	0.000125
C46	C	-1.263942	0.444565	0.000081
C47	C	-1.336327	0.514607	0.000064
C48	C	-1.421349	0.478673	0.000021
H49	H	-1.268264	0.408626	0.055278
H50	H	-1.268198	0.408625	-0.055150
H51	H	-1.332073	0.550532	0.055289
H52	H	-1.332035	0.550551	-0.055129
H53	H	-1.425605	0.442733	-0.055209
H54	H	-1.425662	0.442735	0.055219
H55	H	-1.470472	0.526190	0.000001
H56	H	-1.237504	0.623470	0.000114
C57	C	-0.919112	0.112593	0.000232
C58	C	-0.915246	0.058405	0.081671
C59	C	-0.832222	0.001100	0.081820
H60	H	-0.868206	0.147354	0.000274
H61	H	-0.916331	0.075702	-0.054951
H62	H	-0.918018	0.095292	0.136840
H63	H	-0.966133	0.023626	0.081646
H64	H	-0.829441	-0.035791	0.026637
H65	H	-0.781323	0.035868	0.081859
H66	H	-0.829592	-0.035679	0.137070
H67	H	-0.932692	0.585255	0.000090
H68	H	-0.938303	0.297496	0.000073
C69	C	-1.220101	0.002392	0.549685
C70	C	-1.276629	-0.045210	0.492319
C71	C	-1.339087	0.015476	0.442252
H72	H	-1.186758	0.039596	0.510834
H73	H	-1.257483	0.038638	0.593496
H74	H	-1.239252	-0.081441	0.448513
H75	H	-1.309994	-0.082411	0.531146
H76	H	-1.376469	0.051722	0.486062
H77	H	-1.305735	0.052677	0.403406
H78	H	-1.377454	-0.016813	0.403330
C79	C	-0.913332	0.400611	0.000121
C80	C	-0.838581	0.452210	0.000136
C81	C	-0.755367	0.395188	0.000185
H82	H	-0.910424	0.363751	-0.055074
H83	H	-0.910494	0.363797	0.055354
H84	H	-0.841419	0.489008	-0.055091
H85	H	-0.841459	0.489068	0.055327
H86	H	-0.752528	0.358374	0.055418
H87	H	-0.752469	0.358331	-0.055011
H88	H	-0.704639	0.430189	0.000204
H89	H	-1.246407	0.166444	0.000141
H90	H	-1.203235	-0.014054	0.744199
H91	H	-0.975893	-0.234250	0.563394
H92	H	-0.975919	-0.234258	0.744188
C93	C	-0.958756	-0.250568	0.242437
C94	C	-0.902234	-0.202793	0.185261
C95	C	-0.839455	-0.263325	0.135374
H96	H	-0.991854	-0.287897	0.203471
H97	H	-0.921400	-0.286701	0.286354
H98	H	-0.939586	-0.166676	0.141350
H99	H	-0.869116	-0.165468	0.224204
H100	H	-0.802099	-0.299457	0.179291
H101	H	-0.872561	-0.300650	0.096413
H102	H	-0.801092	-0.230919	0.096581
H103	H	-1.203189	-0.014042	0.256032
H104	H	-0.975883	-0.234239	0.436822
H105	H	-1.203197	-0.014043	0.436822
