data_functionalizedCrystal
_audit_creation_method	'MofGen! by Chris Wilmer'
_symmetry_space_group_name_H-M	'P1'
_symmetry_Int_Tables_number	1
_symmetry_cell_setting	triclinic
loop_
_symmetry_equiv_pos_as_xyz
  x,y,z
_cell_length_a	12.759401
_cell_length_b	12.759400
_cell_length_c	14.908308
_cell_angle_alpha	86.729656
_cell_angle_beta	86.719405
_cell_angle_gamma	90.013149
loop_
_atom_site_label
_atom_site_type_symbol
_atom_site_fract_x
_atom_site_fract_y
_atom_site_fract_z
Zn1	Zn	1.571957	-0.452526	0.510053
Zn2	Zn	1.582003	-0.618094	0.359206
Zn3	Zn	1.406405	-0.442431	0.359218
Zn4	Zn	1.396254	-0.628161	0.510022
O5	O	1.489155	-0.535303	0.434625
O6	O	1.720310	-0.474501	0.490051
O7	O	1.567162	-0.586354	0.232965
O8	O	1.428410	-0.296750	0.379245
O9	O	1.727691	-0.596143	0.379224
O10	O	1.550040	-0.304167	0.490063
O11	O	1.438151	-0.457295	0.232974
O12	O	1.258038	-0.467056	0.379214
O13	O	1.411109	-0.613301	0.636268
O14	O	1.250580	-0.603512	0.490009
O15	O	1.540197	-0.484262	0.636291
O16	O	1.557319	-0.766450	0.379194
O17	O	1.420850	-0.773846	0.489997
C18	C	1.216188	-0.535282	0.434610
C19	C	1.099411	-0.535300	0.434625
C20	C	0.930969	-0.472102	0.492429
C21	C	1.040694	-0.472087	0.492421
C22	C	1.048397	-0.598540	0.376839
C23	C	0.938674	-0.598560	0.376853
C24	C	0.872258	-0.408877	0.550223
C25	C	0.923264	-0.345638	0.608010
C26	C	1.032989	-0.345623	0.608002
C27	C	1.091707	-0.408847	0.550207
C28	C	1.489100	-0.808270	0.434610
C29	C	1.489171	-0.925048	0.434634
C30	C	1.552467	-0.983695	0.492385
C31	C	1.552515	-1.093421	0.492407
C32	C	1.425968	-1.085841	0.376920
C33	C	1.425916	-0.976118	0.376904
C34	C	1.615723	-0.932625	0.550115
C35	C	1.679025	-0.991273	0.607870
C36	C	1.679073	-1.100998	0.607892
C37	C	1.615818	-1.152076	0.550159
C38	C	1.763187	-0.535325	0.434640
C39	C	1.879963	-0.535335	0.434646
C40	C	1.473400	-0.551030	0.669928
C41	C	1.466686	-0.557733	0.770200
C42	C	1.489236	-0.261272	0.434659
C43	C	1.489271	-0.144496	0.434673
C44	C	1.504908	-0.519561	0.200237
C45	C	1.511826	-0.512563	0.099965
C46	C	1.588487	-0.435934	0.958648
C47	C	1.582182	-0.442228	1.052863
C48	C	1.447767	-0.576607	1.052846
C49	C	1.454072	-0.570314	0.958631
C50	C	1.524435	-0.499976	0.911536
C51	C	1.530745	-0.493688	0.817319
C52	C	1.396325	-0.628062	0.817304
C53	C	1.390021	-0.634355	0.911519
H54	H	1.181053	-0.408821	0.550199
C55	C	0.883484	-0.667245	0.314019
C56	C	0.958384	-0.722584	0.263381
C57	C	0.907582	-0.785863	0.205484
H58	H	0.838385	-0.715477	0.348371
H59	H	0.843325	-0.624390	0.274727
H60	H	0.998525	-0.765436	0.302668
H61	H	1.003486	-0.674379	0.229011
H62	H	0.867423	-0.743008	0.166192
H63	H	0.862484	-0.834088	0.239843
H64	H	0.958393	-0.823410	0.171114
C65	C	1.371197	-0.652831	1.103933
C66	C	1.268789	-0.628398	1.081023
C67	C	1.198220	-0.698583	1.128073
H68	H	1.387443	-0.722433	1.088530
H69	H	1.376537	-0.647397	1.166801
H70	H	1.263452	-0.633841	1.018169
H71	H	1.252510	-0.558808	1.096429
H72	H	1.203561	-0.693149	1.190941
H73	H	1.214476	-0.768181	1.112666
H74	H	1.128728	-0.682009	1.112541
H75	H	1.730607	-1.148747	0.654925
H76	H	0.875448	-0.294170	0.655070
H77	H	1.374469	-1.127437	0.329917
H78	H	1.615694	-0.843281	0.550102
H79	H	1.615849	-1.241423	0.550192
H80	H	1.074514	-0.294138	0.655061
H81	H	1.096214	-0.650013	0.329785
H82	H	1.588040	-0.436417	0.778975
H83	H	1.374373	-0.928366	0.329879
H84	H	1.645784	-0.378668	0.920302
C85	C	1.747551	-0.935886	0.670703
C86	C	1.718607	-0.968498	0.759949
C87	C	1.781698	-0.917490	0.817859
H88	H	1.819073	-0.952908	0.657678
H89	H	1.738445	-0.862133	0.662480
H90	H	1.727722	-1.042235	0.768168
H91	H	1.647095	-0.951475	0.773002
H92	H	1.772592	-0.843737	0.809636
H93	H	1.853217	-0.934516	0.804826
H94	H	1.762062	-0.939603	0.878419
H95	H	1.634337	-0.390076	1.091218
C96	C	1.313701	-0.710883	0.962541
C97	C	1.338077	-0.813299	0.939599
C98	C	1.267787	-0.883826	0.986572
H99	H	1.319050	-0.705603	1.025413
H100	H	1.244130	-0.694541	0.947080
H101	H	1.407630	-0.829636	0.955066
H102	H	1.332720	-0.818613	0.876735
H103	H	1.198216	-0.867483	0.971111
H104	H	1.273142	-0.878536	1.049442
H105	H	1.284310	-0.953321	0.971006
H106	H	1.344173	-0.680212	0.778935
H107	H	0.782915	-0.408877	0.550232
