data_functionalizedCrystal
_audit_creation_method	'MofGen! by Chris Wilmer'
_symmetry_space_group_name_H-M	'P1'
_symmetry_Int_Tables_number	1
_symmetry_cell_setting	triclinic
loop_
_symmetry_equiv_pos_as_xyz
  x,y,z
_cell_length_a	11.169417
_cell_length_b	29.839131
_cell_length_c	29.839104
_cell_angle_alpha	89.868765
_cell_angle_beta	89.926533
_cell_angle_gamma	90.042299
loop_
_atom_site_label
_atom_site_type_symbol
_atom_site_fract_x
_atom_site_fract_y
_atom_site_fract_z
Zn1	Zn	1.835339	-0.178402	-0.253969
Zn2	Zn	1.834932	-0.253663	-0.178839
Zn3	Zn	1.634437	-0.178549	-0.178856
Zn4	Zn	1.634524	-0.253507	-0.253945
O5	O	1.734808	-0.216031	-0.216402
O6	O	2.003235	-0.188390	-0.244006
O7	O	1.808129	-0.243826	-0.115974
O8	O	1.661221	-0.115663	-0.188837
O9	O	2.002935	-0.243684	-0.188808
O10	O	1.808823	-0.115555	-0.244023
O11	O	1.660826	-0.188640	-0.115986
O12	O	1.466499	-0.188489	-0.188813
O13	O	1.661369	-0.243418	-0.316816
O14	O	1.466562	-0.243560	-0.243981
O15	O	1.808907	-0.188238	-0.316834
O16	O	1.808213	-0.316510	-0.188785
O17	O	1.660974	-0.316395	-0.243965
C18	C	1.422983	-0.216024	-0.216397
C19	C	1.289583	-0.216032	-0.216405
C20	C	1.734591	-0.332753	-0.216380
C21	C	1.734608	-0.382688	-0.216385
C22	C	1.811615	-0.692378	-0.187712
C23	C	1.811763	-0.880051	-0.187729
O24	O	1.877065	-0.904356	-0.163333
N25	N	1.735057	-0.903473	-0.216436
C26	C	1.658314	-0.879973	-0.245143
O27	O	1.593083	-0.904201	-0.269563
C28	C	1.658172	-0.692301	-0.245127
C29	C	1.734875	-0.668882	-0.216415
C30	C	1.888312	-0.668959	-0.159003
C31	C	1.888270	-0.622043	-0.158997
C32	C	1.811530	-0.598547	-0.187700
C33	C	1.734833	-0.621966	-0.216410
C34	C	1.581436	-0.668802	-0.273835
C35	C	1.581410	-0.621881	-0.273830
C36	C	1.658113	-0.598462	-0.245118
C37	C	1.658050	-0.551555	-0.245107
N38	N	1.734757	-0.528133	-0.216400
C39	C	1.811496	-0.551629	-0.187697
C40	C	1.658392	-0.978504	-0.245148
C41	C	1.658425	-1.025421	-0.245151
C42	C	1.811876	-1.025496	-0.187739
C43	C	1.811836	-0.978577	-0.187734
C44	C	1.735098	-0.955082	-0.216441
C45	C	1.811401	-0.453103	-0.187687
C46	C	1.811348	-0.406184	-0.187682
C47	C	1.657902	-0.406113	-0.245096
C48	C	1.657949	-0.453029	-0.245099
C49	C	1.734709	-0.476523	-0.216393
O50	O	1.592792	-0.527221	-0.269494
O51	O	1.876736	-0.527393	-0.163287
C52	C	1.811657	-0.739293	-0.187718
C53	C	1.734960	-0.762713	-0.216427
C54	C	1.658220	-0.739216	-0.245130
C55	C	1.734993	-0.809630	-0.216430
C56	C	1.811733	-0.833127	-0.187727
C57	C	1.888439	-0.809705	-0.159020
C58	C	1.888397	-0.762790	-0.159015
C59	C	1.581514	-0.762638	-0.273837
C60	C	1.581562	-0.809553	-0.273840
C61	C	1.658302	-0.833050	-0.245137
C62	C	2.047850	-0.216038	-0.216408
C63	C	2.181250	-0.216041	-0.216411
C64	C	1.735193	-0.215794	-0.333581
C65	C	1.735358	-0.215694	-0.383516
C66	C	1.735058	-0.098852	-0.216434
C67	C	1.735165	-0.048918	-0.216448
C68	C	1.734493	-0.216234	-0.099679
C69	C	1.734561	-0.216208	-0.049745
C70	C	1.812259	-0.244453	0.306870
C71	C	1.812026	-0.244598	0.119197
O72	O	1.877723	-0.268861	0.094957
N73	N	1.734748	-0.216094	0.095700
C74	C	1.657530	-0.187549	0.119124
O75	O	1.591804	-0.163304	0.094832
C76	C	1.657770	-0.187402	0.306796
C77	C	1.735043	-0.215911	0.330290
C78	C	1.889527	-0.272960	0.330365
C79	C	1.889580	-0.272926	0.377280
C80	C	1.812364	-0.244384	0.400701
C81	C	1.735096	-0.215877	0.377206
C82	C	1.580558	-0.158855	0.330219
C83	C	1.580627	-0.158820	0.377140
C84	C	1.657900	-0.187329	0.400634
C85	C	1.657934	-0.187300	0.447542
N86	N	1.735211	-0.215805	0.471039
C87	C	1.812426	-0.244346	0.447618
C88	C	1.657407	-0.187629	0.020593
C89	C	1.657346	-0.187666	-0.026324
C90	C	1.811844	-0.244715	-0.026248
C91	C	1.811898	-0.244680	0.020671
C92	C	1.734685	-0.216133	0.044091
C93	C	1.812531	-0.244272	0.546144
C94	C	1.812573	-0.244235	0.593064
C95	C	1.658080	-0.187185	0.592983
C96	C	1.658033	-0.187222	0.546068
C97	C	1.735268	-0.215767	0.522649
O98	O	1.592280	-0.163046	0.471811
O99	O	1.878161	-0.268581	0.471919
C100	C	1.812206	-0.244488	0.259955
C101	C	1.734937	-0.215981	0.236460
C102	C	1.657722	-0.187439	0.259880
C103	C	1.734876	-0.216018	0.189542
C104	C	1.812091	-0.244560	0.166121
C105	C	1.889368	-0.273065	0.189619
C106	C	1.889421	-0.273030	0.236534
C107	C	1.580445	-0.158934	0.236383
C108	C	1.580397	-0.158972	0.189468
C109	C	1.657613	-0.187514	0.166047
H110	H	1.873808	-0.387117	-0.164300
H111	H	1.517631	-0.135639	0.311097
C112	C	1.496990	-0.596039	-0.305412
N113	N	1.433403	-0.576576	-0.329199
C114	C	1.897486	-0.275675	0.520391
N115	N	1.961468	-0.299331	0.500994
C116	C	1.974186	-0.304507	0.163847
N117	N	2.038028	-0.328202	0.144434
H118	H	1.594409	-0.164455	-0.045450
C119	C	1.497122	-0.736799	-0.305427
N120	N	1.433560	-0.717338	-0.329225
H121	H	1.874361	-1.044635	-0.164368
H122	H	1.875502	-0.267452	0.612191
C123	C	1.574035	-1.051177	-0.276732
N124	N	1.510474	-1.070575	-0.300522
H125	H	1.594526	-0.164382	0.039658
H126	H	1.873908	-0.472227	-0.164312
C127	C	1.495388	-0.127605	0.163629
N128	N	1.431369	-0.103977	0.144169
C129	C	1.573497	-0.380258	-0.276670
N130	N	1.509930	-0.360783	-0.300455
C131	C	1.497175	-0.835309	-0.305427
N132	N	1.433624	-0.854707	-0.329220
H133	H	1.517753	-0.135571	0.396206
C134	C	1.896920	-0.276036	0.046511
N135	N	1.960969	-0.299653	0.065971
C136	C	1.974472	-0.304364	0.304609
N137	N	2.038451	-0.328022	0.285214
C138	C	1.573569	-0.478791	-0.276682
N139	N	1.510021	-0.498191	-0.300474
C140	C	1.972772	-0.737035	-0.127427
N141	N	2.036327	-0.717639	-0.103634
H142	H	1.517566	-0.135691	0.255447
H143	H	1.952347	-0.296245	0.255659
C144	C	1.896778	-0.276113	-0.052019
N145	N	1.960751	-0.299758	-0.071432
H146	H	1.595104	-0.164010	0.526937
H147	H	1.952500	-0.296143	0.396405
C148	C	1.574000	-0.952665	-0.276743
N149	N	1.510444	-0.933205	-0.300544
C150	C	1.573162	-0.155784	0.618755
N151	N	1.509213	-0.132129	0.638167
C152	C	1.972852	-0.835560	-0.127446
N153	N	2.036432	-0.855036	-0.103667
C154	C	1.896217	-0.952821	-0.156150
N155	N	1.959779	-0.933423	-0.132361
H156	H	1.950731	-0.602978	-0.135619
H157	H	1.950809	-0.688084	-0.135629
H158	H	1.518971	-0.687862	-0.297214
