data_functionalizedCrystal
_audit_creation_method	'MofGen! by Chris Wilmer'
_symmetry_space_group_name_H-M	'P1'
_symmetry_Int_Tables_number	1
_symmetry_cell_setting	triclinic
loop_
_symmetry_equiv_pos_as_xyz
  x,y,z
_cell_length_a	15.455301
_cell_length_b	16.992697
_cell_length_c	16.992695
_cell_angle_alpha	90.668337
_cell_angle_beta	92.826871
_cell_angle_gamma	92.820424
loop_
_atom_site_label
_atom_site_type_symbol
_atom_site_fract_x
_atom_site_fract_y
_atom_site_fract_z
O1	O	-0.072006	-1.054113	-0.170181
O2	O	0.427994	-0.554113	0.329819
O3	O	-0.072035	-0.825715	-0.168351
O4	O	0.427965	-0.325715	0.331649
O5	O	-0.072014	-0.938998	-0.055065
O6	O	0.427986	-0.438998	0.444935
O7	O	-0.072027	-0.940830	-0.283466
O8	O	0.427973	-0.440830	0.216534
O9	O	0.072248	-0.932450	-0.048525
O10	O	0.572248	-0.432450	0.451475
O11	O	0.072227	-0.819167	-0.161810
O12	O	0.572227	-0.319167	0.338190
O13	O	0.072256	-1.047566	-0.163641
O14	O	0.572256	-0.547566	0.336359
Cu15	Cu	0.085414	-0.932768	-0.162128
Cu16	Cu	0.585414	-0.432768	0.337872
Cu17	Cu	-0.085193	-0.940512	-0.169863
Cu18	Cu	0.414807	-0.440512	0.330137
O19	O	0.072235	-0.934282	-0.276926
O20	O	0.572235	-0.434282	0.223074
C21	C	0.000092	-0.793081	-0.162725
C22	C	0.500092	-0.293081	0.337275
C23	C	0.000081	-0.705597	-0.155696
C24	C	0.500081	-0.205597	0.344304
N25	N	0.205409	-0.927328	-0.156688
N26	N	0.705409	-0.427328	0.343312
N27	N	-0.205189	-0.945958	-0.175297
N28	N	0.294811	-0.445958	0.324703
C29	C	0.000077	-0.659606	-0.223514
C30	C	0.500077	-0.159606	0.276486
C31	C	0.000088	-0.577405	-0.216905
C32	C	0.500088	-0.077405	0.283095
C33	C	0.000097	-0.541196	-0.142477
C34	C	0.500097	-0.041196	0.357523
C35	C	0.000104	-0.587193	-0.074654
C36	C	0.500104	-0.087193	0.425346
C37	C	0.000099	-0.669392	-0.081264
C38	C	0.500099	-0.169392	0.418736
C39	C	0.000118	-0.295881	-0.115081
C40	C	0.500118	0.204119	0.384919
C41	C	0.000120	-0.213675	-0.108476
C42	C	0.500120	0.286325	0.391524
C43	C	0.000106	-0.203893	-0.250728
C44	C	0.500106	0.296107	0.249272
C45	C	0.000096	-0.286095	-0.257332
C46	C	0.500096	0.213905	0.242668
C47	C	0.000107	-0.332084	-0.189508
C48	C	0.500107	0.167916	0.310492
N49	N	0.000105	-0.457173	-0.135719
N50	N	0.500105	0.042827	0.364281
N51	N	0.000105	-0.416105	-0.196266
N52	N	0.500105	0.083895	0.303734
C53	C	0.250803	-0.976004	-0.205395
C54	C	0.750803	-0.476004	0.294605
C55	C	0.341611	-0.971899	-0.201277
C56	C	0.841611	-0.471899	0.298723
C57	C	0.387023	-0.919114	-0.148454
C58	C	0.887023	-0.419114	0.351546
C59	C	0.341623	-0.870436	-0.099742
C60	C	0.841623	-0.370436	0.400258
C61	C	0.250817	-0.874545	-0.103857
C62	C	0.750817	-0.374545	0.396143
C63	C	0.658605	-0.901389	-0.130700
C64	C	1.158605	-0.401389	0.369300
C65	C	0.749418	-0.897282	-0.126590
C66	C	1.249418	-0.397282	0.373410
C67	C	0.749399	-0.998747	-0.228125
C68	C	1.249399	-0.498747	0.271875
C69	C	0.658591	-1.002848	-0.232238
C70	C	1.158591	-0.502848	0.267762
C71	C	0.613199	-0.954173	-0.183523
C72	C	1.113199	-0.454173	0.316477
N73	N	0.479844	-0.914916	-0.144245
N74	N	0.979844	-0.414916	0.355755
N75	N	0.520380	-0.958376	-0.187729
N76	N	1.020380	-0.458376	0.312271
C77	C	0.000117	-0.933368	-0.022435
C78	C	0.500117	-0.433368	0.477565
C79	C	0.000116	-0.926340	0.065049
C80	C	0.500116	-0.426340	0.565049
C81	C	0.000123	-0.080200	-0.169266
C82	C	0.500123	0.419800	0.330734
C83	C	0.000116	-0.167685	-0.176294
C84	C	0.500116	0.332315	0.323706
C85	C	0.000102	-0.939912	-0.309556
C86	C	0.500102	-0.439912	0.190444
C87	C	0.000098	-0.946941	-0.397041
C88	C	0.500098	-0.446941	0.102959
C89	C	0.000125	-0.994157	0.111041
C90	C	0.500125	-0.494157	0.611041
C91	C	0.000116	-0.987549	0.193241
C92	C	0.500116	-0.487549	0.693241
C93	C	0.000104	-0.913122	0.229449
C94	C	0.500104	-0.413122	0.729449
C95	C	0.000091	-0.845299	0.183451
C96	C	0.500091	-0.345299	0.683451
C97	C	0.000094	-0.851909	0.101252
C98	C	0.500094	-0.351909	0.601252
C99	C	0.000088	-0.885728	0.474762
C100	C	0.500088	-0.385728	0.974762
C101	C	0.000088	-0.879123	0.556968
C102	C	0.500088	-0.379123	1.056968
C103	C	0.000111	-1.021374	0.566752
C104	C	0.500111	-0.521374	1.066752
C105	C	0.000119	-1.027976	0.484551
C106	C	0.500119	-0.527976	0.984551
C107	C	0.000102	-0.960154	0.438560
C108	C	0.500102	-0.460154	0.938560
N109	N	0.000097	-0.906365	0.313471
N110	N	0.500097	-0.406365	0.813471
N111	N	0.000103	-0.966912	0.354540
N112	N	0.500103	-0.466912	0.854540
H113	H	0.000069	-0.689081	-0.284122
H114	H	0.500069	-0.189081	0.215878
H115	H	0.000123	-1.076590	0.604206
H116	H	0.500123	-0.576590	1.104206
C117	C	0.391580	-0.812370	-0.041638
C118	C	0.891580	-0.312370	0.458362
N119	N	0.429207	-0.768631	0.002124
N120	N	0.929207	-0.268631	0.502124
C121	C	0.000099	-0.526818	-0.291510
C122	C	0.500099	-0.026818	0.208490
N123	N	0.000114	-0.488715	-0.347706
N124	N	0.500114	0.011285	0.152294
H125	H	0.000086	-0.796684	0.063807
H126	H	0.500086	-0.296684	0.563807
C127	C	0.000124	-0.346459	-0.040472
C128	C	0.500124	0.153541	0.459528
N129	N	0.000128	-0.384557	0.015727
N130	N	0.500128	0.115443	0.515727
C131	C	0.000100	-0.325917	-0.339208
C132	C	0.500100	0.174083	0.160792
N133	N	0.000105	-0.355911	-0.400878
N134	N	0.500105	0.144089	0.099122
H135	H	0.000123	-0.557705	-0.014052
H136	H	0.500123	-0.057705	0.485948
C137	C	0.000139	-1.076033	0.071220
C138	C	0.500139	-0.576033	0.571220
N139	N	0.000145	-1.137705	0.041229
N140	N	0.500145	-0.637705	0.541229
H141	H	0.621658	-0.861755	-0.091032
H142	H	1.121658	-0.361755	0.408968
H143	H	0.000099	-0.166440	-0.305946
H144	H	0.500099	0.333560	0.194054
H145	H	0.000092	-0.818512	0.586446
H146	H	0.500092	-0.318512	1.086446
C147	C	0.391540	-1.025418	-0.254889
C148	C	0.891540	-0.525418	0.245111
N149	N	0.429146	-1.065721	-0.295282
N150	N	0.929146	-0.565721	0.204718
H151	H	0.000126	-1.042773	0.230684
H152	H	0.500126	-0.542773	0.730684
C153	C	0.200858	-1.034072	-0.263504
C154	C	0.700858	-0.534072	0.236496
N155	N	0.163241	-1.077814	-0.307271
N156	N	0.663241	-0.577814	0.192729
H157	H	0.000126	-0.184197	-0.047865
H158	H	0.500126	0.315803	0.452135
C159	C	0.608644	-1.060920	-0.290342
C160	C	1.108644	-0.560920	0.209658
N161	N	0.571024	-1.104661	-0.334107
N162	N	1.071024	-0.604661	0.165893
H163	H	0.213858	-0.834908	-0.064194
H164	H	0.713858	-0.334908	0.435806
H165	H	0.786390	-0.854294	-0.083576
H166	H	1.286390	-0.354294	0.416424
C167	C	0.799338	-1.052292	-0.281702
C168	C	1.299338	-0.552292	0.218298
N169	N	0.836952	-1.092627	-0.322056
N170	N	1.336952	-0.592627	0.177944
H171	H	0.000102	-0.706837	-0.026039
H172	H	0.500102	-0.206837	0.473961
C173	C	0.000134	-1.109852	0.444729
C174	C	0.500134	-0.609852	0.944729
N175	N	0.000148	-1.171521	0.414735
N176	N	0.500148	-0.671521	0.914735
C177	C	0.000065	-0.811120	0.424183
C178	C	0.500065	-0.311120	0.924183
N179	N	0.000045	-0.754923	0.386084
N180	N	0.500045	-0.254923	0.886084
H181	H	0.000076	-0.784699	0.212938
H182	H	0.500076	-0.284699	0.712938
