data_functionalizedCrystal
_audit_creation_method	'MofGen! by Chris Wilmer'
_symmetry_space_group_name_H-M	'P1'
_symmetry_Int_Tables_number	1
_symmetry_cell_setting	triclinic
loop_
_symmetry_equiv_pos_as_xyz
  x,y,z
_cell_length_a	10.654541
_cell_length_b	14.421503
_cell_length_c	10.654532
_cell_angle_alpha	89.990447
_cell_angle_beta	84.482063
_cell_angle_gamma	90.006362
loop_
_atom_site_label
_atom_site_type_symbol
_atom_site_fract_x
_atom_site_fract_y
_atom_site_fract_z
O1	O	1.667844	0.077071	0.176368
O2	O	1.302364	0.077078	0.193177
O3	O	1.493515	0.077081	0.002032
O4	O	1.476694	0.077069	0.367513
O5	O	1.493483	-0.077143	0.002061
O6	O	1.302333	-0.077145	0.193206
O7	O	1.667812	-0.077152	0.176397
Cu8	Cu	1.485070	-0.091230	0.184804
Cu9	Cu	1.485107	0.091157	0.184770
O10	O	1.476662	-0.077154	0.367542
C11	C	1.255550	-0.000032	0.191958
C12	C	1.116107	-0.000029	0.188267
N13	N	1.485052	-0.219512	0.184827
C14	C	1.088127	-0.000025	0.416833
C15	C	1.008628	-0.000019	0.529377
C16	C	0.877610	-0.000018	0.525901
C17	C	0.826090	-0.000026	0.409870
C18	C	0.905588	-0.000032	0.297326
C19	C	1.036608	-0.000030	0.300814
C20	C	0.933568	-0.000042	0.068763
C21	C	1.064587	-0.000037	0.072236
C22	C	0.882048	-0.000050	-0.047269
C23	C	0.961547	-0.000049	-0.159815
C24	C	1.092573	-0.000049	-0.156335
C25	C	1.144086	-0.000043	-0.040308
C26	C	1.396648	-0.469166	0.273172
C27	C	1.510344	-0.530972	0.298536
C28	C	1.485083	-0.408673	0.184797
C29	C	1.371416	-0.530961	0.159463
C30	C	1.485102	-0.591394	0.184771
C31	C	1.598837	-0.469118	0.210218
C32	C	1.459833	-0.469101	0.071095
C33	C	1.573611	-0.530879	0.096411
C34	C	1.485070	-0.303412	0.184815
C35	C	1.485128	-0.696653	0.184752
C36	C	1.714626	-0.000039	0.177616
C37	C	1.854070	-0.000036	0.181307
N38	N	1.485134	0.219438	0.184737
C39	C	1.477910	-0.000044	0.414326
C40	C	1.481596	-0.000049	0.553770
C41	C	1.492267	-0.000027	-0.044752
C42	C	1.488581	-0.000017	-0.184196
C43	C	1.488599	0.168123	0.815725
C44	C	1.486869	0.252185	0.750177
C45	C	1.483383	0.252172	0.619160
C46	C	1.481623	0.168088	0.553690
C47	C	1.483352	0.084026	0.619238
C48	C	1.486842	0.084048	0.750257
C49	C	1.483325	-0.084111	0.619318
C50	C	1.486821	-0.084101	0.750334
C51	C	1.481565	-0.168195	0.553847
C52	C	1.483304	-0.252259	0.619394
C53	C	1.486791	-0.252243	0.750419
C54	C	1.488550	-0.168163	0.815882
H55	H	1.194807	-0.000005	0.419675
Cl56	Cl	1.481198	0.357851	0.536754
Cl57	Cl	1.426779	-0.427106	-0.077299
Cl58	Cl	1.689209	-0.572461	-0.018996
Cl59	Cl	1.543347	-0.572932	0.446972
H60	H	1.478769	0.168086	0.447011
Cl61	Cl	1.222995	-0.572904	0.126394
Cl62	Cl	1.493006	0.168145	0.980430
H63	H	1.321940	-0.442070	0.347969
H64	H	1.694992	-0.442067	0.231749
Cl65	Cl	1.489116	0.357885	0.832484
H66	H	1.478720	-0.168199	0.447167
H67	H	1.250766	-0.000032	-0.037463
Cl68	Cl	1.481076	-0.357953	0.537085
Cl69	Cl	1.488957	-0.357929	0.832812
Cl70	Cl	1.492942	-0.168136	0.980589
H71	H	1.050590	-0.000015	0.623848
H72	H	0.719407	-0.000036	0.407050
Cl73	Cl	0.717339	-0.000053	-0.051638
Cl74	Cl	0.896772	-0.000066	-0.305667
Cl75	Cl	1.192504	-0.000064	-0.297828
Cl76	Cl	0.777665	-0.000019	0.667385
