data_functionalizedCrystal
_audit_creation_method	'MofGen! by Chris Wilmer'
_symmetry_space_group_name_H-M	'P1'
_symmetry_Int_Tables_number	1
_symmetry_cell_setting	triclinic
loop_
_symmetry_equiv_pos_as_xyz
  x,y,z
_cell_length_a	16.959455
_cell_length_b	29.839131
_cell_length_c	16.959447
_cell_angle_alpha	90.041568
_cell_angle_beta	90.014322
_cell_angle_gamma	90.032176
loop_
_atom_site_label
_atom_site_type_symbol
_atom_site_fract_x
_atom_site_fract_y
_atom_site_fract_z
Zn1	Zn	1.208301	-0.178881	0.446847
Zn2	Zn	1.208188	-0.254014	0.314642
Zn3	Zn	1.076129	-0.178895	0.314684
Zn4	Zn	1.076059	-0.253981	0.446781
O5	O	1.142169	-0.216443	0.380739
O6	O	1.318896	-0.188856	0.429320
O7	O	1.190652	-0.244070	0.204037
O8	O	1.093738	-0.116026	0.332261
O9	O	1.318814	-0.244056	0.332190
O10	O	1.190844	-0.116016	0.429360
O11	O	1.093629	-0.188880	0.204068
O12	O	0.965509	-0.188847	0.332197
O13	O	1.093618	-0.243999	0.557401
O14	O	0.965457	-0.244012	0.429248
O15	O	1.190776	-0.188823	0.557449
O16	O	1.190584	-0.316877	0.332126
O17	O	1.093509	-0.316852	0.429207
C18	C	0.936803	-0.216428	0.380721
C19	C	0.848946	-0.216433	0.380732
C20	C	1.142048	-0.333165	0.380672
C21	C	1.142069	-0.383100	0.380670
C22	C	0.477473	-0.187695	0.330310
C23	C	0.477468	-0.245228	0.431213
C24	C	0.560014	-0.245221	0.431208
C25	C	0.601293	-0.216452	0.380752
C26	C	0.560027	-0.187688	0.330302
C27	C	0.601287	-0.273987	0.481652
C28	C	0.683838	-0.273982	0.481648
C29	C	0.725118	-0.245210	0.431196
C30	C	0.683847	-0.216445	0.380744
C31	C	0.725126	-0.187676	0.330289
C32	C	0.683856	-0.158908	0.279840
C33	C	0.601307	-0.158916	0.279850
C34	C	0.807667	-0.245202	0.431187
C35	C	0.807680	-0.187669	0.330281
C36	C	1.192721	-0.692703	0.431370
C37	C	1.192807	-0.880376	0.431418
O38	O	1.235755	-0.904607	0.474476
N39	N	1.142303	-0.903885	0.380826
C40	C	1.091771	-0.880473	0.330223
O41	O	1.048811	-0.904775	0.287199
C42	C	1.091682	-0.692800	0.330180
C43	C	1.142194	-0.669294	0.380769
C44	C	1.243229	-0.669196	0.481956
C45	C	1.243210	-0.622281	0.481940
C46	C	1.192683	-0.598872	0.431339
C47	C	1.142175	-0.622379	0.380754
C48	C	1.041146	-0.669389	0.279582
C49	C	1.041127	-0.622468	0.279577
C50	C	1.091639	-0.598962	0.330166
C51	C	1.091630	-0.552054	0.330137
N52	N	1.142133	-0.528545	0.380729
C53	C	1.192660	-0.551954	0.431330
C54	C	1.091823	-0.979003	0.330248
C55	C	1.091846	-1.025921	0.330258
C56	C	1.192881	-1.025821	0.431454
C57	C	1.192861	-0.978902	0.431439
C58	C	1.142326	-0.955494	0.380840
C59	C	1.192617	-0.453428	0.431293
C60	C	1.192596	-0.406509	0.431271
C61	C	1.091558	-0.406613	0.330078
C62	C	1.091582	-0.453528	0.330097
C63	C	1.142114	-0.476935	0.380711
O64	O	1.048698	-0.527795	0.287109
O65	O	1.235601	-0.527644	0.474360
C66	C	1.192740	-0.739618	0.431386
C67	C	1.142232	-0.763125	0.380800
C68	C	1.091705	-0.739716	0.330199
C69	C	1.142255	-0.810043	0.380810
C70	C	1.192782	-0.833452	0.431411
C71	C	1.243286	-0.809943	0.482002
C72	C	1.243267	-0.763027	0.481987
C73	C	1.041202	-0.763225	0.279608
C74	C	1.041226	-0.810140	0.279627
C75	C	1.091752	-0.833549	0.330228
C76	C	1.348337	-0.216458	0.380757
C77	C	1.436194	-0.216465	0.380765
C78	C	1.142202	-0.216406	0.586907
C79	C	1.142216	-0.216390	0.674764
C80	C	1.142312	-0.099264	0.380823
C81	C	1.142372	-0.049330	0.380859
C82	C	1.142182	-0.216447	0.175372
C83	C	1.142321	-0.216337	0.087516
C84	C	1.091725	-0.245070	1.046217
C85	C	1.192896	-0.187615	1.046262
C86	C	1.192875	-0.187625	0.963716
C87	C	1.142279	-0.216358	0.922417
C88	C	1.091704	-0.245081	0.963663
C89	C	1.243455	-0.158905	0.922464
C90	C	1.243436	-0.158914	0.839913
C91	C	1.192836	-0.187645	0.798612
C92	C	1.142258	-0.216369	0.839863
C93	C	1.091662	-0.245102	0.798564
C94	C	1.041080	-0.273824	0.839814
C95	C	1.041103	-0.273812	0.922362
C96	C	1.192812	-0.187657	0.716063
C97	C	1.091641	-0.245113	0.716010
H98	H	0.717476	-0.135486	0.238756
H99	H	0.443854	-0.268653	0.472286
H100	H	0.841265	-0.268625	0.472259
C101	C	0.941349	-0.768046	0.179576
C102	C	0.985665	-0.737498	0.223975
H103	H	0.907067	-0.752164	0.145223
H104	H	0.911097	-0.786338	0.213994
H105	H	0.975830	-0.786348	0.149390
H106	H	0.951184	-0.719198	0.254166
H107	H	1.015919	-0.719198	0.189553
H108	H	0.567671	-0.297413	0.522724
C109	C	0.474770	-0.133378	0.235067
C110	C	0.555942	-0.127295	0.224404
H111	H	0.446763	-0.113857	0.200836
H112	H	0.461273	-0.126845	0.288196
H113	H	0.461223	-0.163556	0.223388
H114	H	0.569490	-0.097118	0.236090
H115	H	0.569444	-0.133825	0.171263
H116	H	0.841283	-0.164238	0.289198
C117	C	1.203749	-0.926086	0.537766
C118	C	1.248378	-0.953064	0.487052
H119	H	1.238025	-0.910134	0.572097
H120	H	1.169306	-0.944392	0.567968
H121	H	1.173658	-0.905428	0.507623
H122	H	1.278465	-0.973724	0.517195
H123	H	1.282834	-0.934756	0.456847
C124	C	0.991714	-0.301861	1.037867
C125	C	1.036126	-0.276641	1.091553
H126	H	0.957387	-0.321350	1.065857
H127	H	1.026126	-0.319052	1.005660
H128	H	0.961500	-0.282285	1.005682
H129	H	1.066345	-0.296217	1.123734
H130	H	1.001710	-0.259449	1.123773
H131	H	1.233997	-0.164273	0.682481
C132	C	1.231498	-0.111544	1.071746
C133	C	1.248510	-0.156034	1.091656
H134	H	1.265837	-0.092047	1.099770
H135	H	1.178408	-0.104968	1.085285
H136	H	1.238725	-0.107444	1.016678
H137	H	1.241277	-0.160135	1.146723
H138	H	1.301614	-0.162612	1.078122
H139	H	1.284652	-0.135515	0.956096
C140	C	0.985281	-0.251365	0.623176
C141	C	1.036022	-0.276699	0.670620
H142	H	0.950942	-0.270866	0.595160
H143	H	1.015399	-0.234269	0.586794
H144	H	0.955082	-0.231785	0.655401
H145	H	1.066226	-0.296278	0.638394
H146	H	1.005901	-0.293803	0.707006
C147	C	1.377113	-0.824318	0.520646
C148	C	1.298822	-0.835679	0.537630
H149	H	1.411391	-0.840210	0.554988
H150	H	1.384330	-0.793016	0.527884
H151	H	1.388714	-0.832031	0.467550
H152	H	1.287218	-0.827963	0.590725
H153	H	1.291601	-0.866988	0.530398
H154	H	1.050722	-1.045056	0.289055
H155	H	0.443867	-0.164272	0.289238
H156	H	1.284339	-0.603145	0.523137
C157	C	0.941251	-0.627283	0.179557
C158	C	0.985576	-0.596739	0.223953
H159	H	0.906961	-0.611399	0.145216
H160	H	0.911007	-0.645578	0.213978
H161	H	0.975725	-0.645583	0.149359
H162	H	0.951102	-0.578441	0.254156
H163	H	1.015822	-0.578436	0.189528
C164	C	0.675532	-0.330850	0.581394
C165	C	0.729198	-0.305598	0.537107
H166	H	0.703538	-0.350366	0.615636
H167	H	0.643316	-0.348014	0.546899
H168	H	0.643354	-0.311296	0.611694
H169	H	0.761372	-0.325153	0.506803
H170	H	0.761427	-0.288433	0.571607
C171	C	1.030020	-0.334262	0.746920
C172	C	0.985471	-0.305407	0.794404
H173	H	0.995691	-0.353757	0.718880
H174	H	1.064430	-0.351445	0.779115
H175	H	1.060143	-0.317151	0.710553
H176	H	0.955353	-0.322518	0.830776
H177	H	0.951047	-0.288223	0.762207
H178	H	1.233732	-0.387371	0.472466
C179	C	1.343439	-0.102117	0.848259
C180	C	1.299027	-0.127339	0.794575
H181	H	1.377752	-0.082621	0.820266
H182	H	1.373660	-0.121689	0.880432
H183	H	1.309020	-0.084929	0.880476
H184	H	1.333445	-0.144529	0.762361
H185	H	1.268803	-0.107765	0.762387
C186	C	1.080878	-0.926301	0.223897
C187	C	1.036276	-0.953275	0.274620
H188	H	1.046586	-0.910417	0.189557
H189	H	1.115342	-0.944602	0.193704
H190	H	1.110944	-0.905584	0.254032
H191	H	1.006213	-0.973993	0.244485
H192	H	1.001798	-0.934972	0.304815
H193	H	0.999925	-0.297198	0.955955
H194	H	1.000014	-0.688520	0.238386
H195	H	1.233760	-0.472481	0.472513
H196	H	1.284374	-0.688251	0.523166
H197	H	1.050422	-0.387546	0.288877
C198	C	1.237759	-1.097702	0.476403
C199	C	1.248415	-1.051558	0.487082
H200	H	1.272036	-1.113592	0.510751
H201	H	1.249375	-1.105408	0.423314
H202	H	1.184640	-1.105403	0.487915
H203	H	1.301533	-1.043858	0.475564
H204	H	1.236804	-1.043850	0.540183
H205	H	1.050457	-0.472668	0.288897
H206	H	1.000093	-0.829275	0.238424
C207	C	1.254161	-0.710211	0.588313
C208	C	1.298786	-0.737192	0.537600
H209	H	1.288439	-0.694261	0.622646
H210	H	1.219714	-0.728515	0.618514
H211	H	1.224074	-0.689551	0.558170
H212	H	1.328869	-0.757854	0.567744
H213	H	1.333247	-0.718885	0.507396
