data_functionalizedCrystal
_audit_creation_method	'MofGen! by Chris Wilmer'
_symmetry_space_group_name_H-M	'P1'
_symmetry_Int_Tables_number	1
_symmetry_cell_setting	triclinic
loop_
_symmetry_equiv_pos_as_xyz
  x,y,z
_cell_length_a	12.759401
_cell_length_b	13.897447
_cell_length_c	13.897449
_cell_angle_alpha	90.007994
_cell_angle_beta	90.001962
_cell_angle_gamma	90.019956
loop_
_atom_site_label
_atom_site_type_symbol
_atom_site_fract_x
_atom_site_fract_y
_atom_site_fract_z
Zn1	Zn	1.606047	-0.384176	0.545340
Zn2	Zn	2.106047	0.115824	1.045340
Zn3	Zn	1.605978	-0.545438	0.384045
Zn4	Zn	2.105978	-0.045438	0.884045
Zn5	Zn	1.430400	-0.384160	0.384064
Zn6	Zn	1.930400	0.115840	0.884064
Zn7	Zn	1.430323	-0.545432	0.545303
Zn8	Zn	1.930323	-0.045432	1.045303
O9	O	1.518187	-0.464802	0.464688
O10	O	2.018187	0.035198	0.964688
O11	O	1.753059	-0.405577	0.523952
O12	O	2.253059	0.094423	1.023952
O13	O	1.582691	-0.524039	0.249066
O14	O	2.082691	-0.024039	0.749066
O15	O	1.453762	-0.249180	0.405481
O16	O	1.953762	0.250820	0.905481
O17	O	1.753008	-0.524056	0.405449
O18	O	2.253008	-0.024056	0.905449
O19	O	1.582809	-0.249192	0.523970
O20	O	2.082809	0.250808	1.023970
O21	O	1.453694	-0.405549	0.249080
O22	O	1.953694	0.094451	0.749080
O23	O	1.283369	-0.405544	0.405445
O24	O	1.783369	0.094456	0.905445
O25	O	1.453630	-0.524046	0.680290
O26	O	1.953630	-0.024046	1.180290
O27	O	1.283312	-0.524030	0.523907
O28	O	1.783312	-0.024030	1.023907
O29	O	1.582734	-0.405572	0.680317
O30	O	2.082734	0.094428	1.180317
O31	O	1.582616	-0.680419	0.405413
O32	O	2.082616	-0.180419	0.905413
O33	O	1.453563	-0.680415	0.523888
O34	O	1.953563	-0.180415	1.023888
C35	C	1.245220	-0.464785	0.464674
C36	C	1.745220	0.035215	0.964674
C37	C	1.128443	-0.464801	0.464691
C38	C	1.628443	0.035199	0.964691
C39	C	1.073608	-0.403221	0.526491
C40	C	1.573608	0.096779	1.026491
C41	C	0.963884	-0.403231	0.526497
C42	C	1.463884	0.096769	1.026497
C43	C	0.963840	-0.526409	0.402902
C44	C	1.463840	-0.026409	0.902902
C45	C	1.073562	-0.526394	0.402892
C46	C	1.573562	-0.026394	0.902892
C47	C	1.518102	-0.715416	0.464666
C48	C	2.018102	-0.215416	0.964666
C49	C	1.518161	-0.822630	0.464688
C50	C	2.018161	-0.322630	0.964688
C51	C	1.518212	-0.909700	0.464710
C52	C	2.018212	-0.409700	0.964710
C53	C	1.518286	-1.018932	0.464735
C54	C	2.018286	-0.518932	0.964735
C55	C	1.792220	-0.464819	0.464702
C56	C	2.292220	0.035181	0.964702
C57	C	1.908997	-0.464826	0.464708
C58	C	2.408997	0.035174	0.964708
C59	C	1.518181	-0.464810	0.716281
C60	C	2.018181	0.035190	1.216281
C61	C	1.518179	-0.464814	0.823495
C62	C	2.018179	0.035186	1.323495
C63	C	1.518302	-0.213209	0.464732
C64	C	2.018302	0.286791	0.964732
C65	C	1.518350	-0.105995	0.464750
C66	C	2.018350	0.394005	0.964750
C67	C	1.518176	-0.464817	0.910565
C68	C	2.018176	0.035183	1.410565
C69	C	1.518175	-0.464813	1.019797
C70	C	2.018175	0.035187	1.519797
C71	C	1.518183	-0.464813	1.214074
C72	C	2.018183	0.035187	1.714074
C73	C	1.518180	-0.464804	1.106860
C74	C	2.018180	0.035196	1.606860
H75	H	1.118209	-0.576540	0.352562
H76	H	1.618209	-0.076540	0.852562
H77	H	1.118290	-0.353065	0.576809
H78	H	1.618290	0.146935	1.076809
H79	H	0.919243	-0.353085	0.576819
H80	H	1.419243	0.146915	1.076819
H81	H	0.919142	-0.576557	0.352588
H82	H	1.419142	-0.076557	0.852588
