data_functionalizedCrystal
_audit_creation_method	'MofGen! by Chris Wilmer'
_symmetry_space_group_name_H-M	'P1'
_symmetry_Int_Tables_number	1
_symmetry_cell_setting	triclinic
loop_
_symmetry_equiv_pos_as_xyz
  x,y,z
_cell_length_a	13.897449
_cell_length_b	18.215405
_cell_length_c	18.215399
_cell_angle_alpha	90.032960
_cell_angle_beta	89.984477
_cell_angle_gamma	89.973835
loop_
_atom_site_label
_atom_site_type_symbol
_atom_site_fract_x
_atom_site_fract_y
_atom_site_fract_z
Zn1	Zn	1.474605	0.292949	-0.416077
Zn2	Zn	1.974605	0.792949	0.083923
Zn3	Zn	1.474493	0.416026	-0.293005
Zn4	Zn	1.974493	0.916026	0.206995
Zn5	Zn	1.313309	0.292980	-0.293027
Zn6	Zn	1.813309	0.792980	0.206973
Zn7	Zn	1.313255	0.415981	-0.416033
Zn8	Zn	1.813255	0.915981	0.083967
O9	O	1.393916	0.354484	-0.354536
O10	O	1.893916	0.854484	0.145464
O11	O	1.609572	0.309281	-0.399761
O12	O	2.109572	0.809281	0.100239
O13	O	1.453087	0.399735	-0.190024
O14	O	1.953087	0.899735	0.309976
O15	O	1.334774	0.189992	-0.309378
O16	O	1.834774	0.689992	0.190622
O17	O	1.609490	0.399705	-0.309340
O18	O	2.109490	0.899705	0.190660
O19	O	1.453277	0.189969	-0.399782
O20	O	1.953277	0.689969	0.100218
O21	O	1.334666	0.309334	-0.190040
O22	O	1.834666	0.809334	0.309960
O23	O	1.178320	0.309291	-0.309335
O24	O	1.678320	0.809291	0.190665
O25	O	1.334683	0.399629	-0.519023
O26	O	1.834683	0.899629	-0.019023
O27	O	1.178281	0.399659	-0.399707
O28	O	1.678281	0.899659	0.100293
O29	O	1.453226	0.309238	-0.519055
O30	O	1.953226	0.809238	-0.019055
O31	O	1.453036	0.519004	-0.309297
O32	O	1.953036	1.019004	0.190703
O33	O	1.334575	0.518971	-0.399685
O34	O	1.834575	1.018971	0.100315
C35	C	1.393814	0.545690	-0.354500
C36	C	1.893814	1.045690	0.145500
C37	C	1.393858	0.627489	-0.354510
C38	C	1.893858	1.127489	0.145490
C39	C	1.143301	0.354474	-0.354519
C40	C	1.643301	0.854474	0.145481
C41	C	1.036087	0.354488	-0.354529
C42	C	1.536087	0.854488	0.145471
C43	C	1.393961	0.354425	-0.546489
C44	C	1.893961	0.854425	-0.046489
C45	C	1.393980	0.354400	-0.628288
C46	C	1.893980	0.854400	-0.128288
C47	C	0.839792	0.354490	-0.354548
C48	C	1.339792	0.854490	0.145452
C49	C	0.949025	0.354487	-0.354536
C50	C	1.449025	0.854487	0.145464
C51	C	1.645508	0.354495	-0.354553
C52	C	2.145508	0.854495	0.145447
C53	C	1.752722	0.354499	-0.354560
C54	C	2.252722	0.854499	0.145440
C55	C	1.394044	0.162531	-0.354587
C56	C	1.894044	0.662531	0.145413
C57	C	1.394099	0.080732	-0.354609
C58	C	1.894099	0.580732	0.145391
C59	C	1.455686	0.815676	-0.307531
C60	C	1.955686	1.315676	0.192469
C61	C	1.455729	0.892534	-0.307549
C62	C	1.955729	1.392534	0.192451
C63	C	1.332269	0.892540	-0.401593
C64	C	1.832269	1.392540	0.098407
C65	C	1.332231	0.815683	-0.401578
C66	C	1.832231	1.315683	0.098422
C67	C	1.393938	0.777253	-0.354543
C68	C	1.893938	1.277253	0.145457
C69	C	1.394019	0.930969	-0.354576
C70	C	1.894019	1.430969	0.145424
C71	C	1.394065	1.014302	-0.354595
C72	C	1.894065	1.514302	0.145405
C73	C	1.393893	0.693914	-0.354524
C74	C	1.893893	1.193914	0.145476
C75	C	1.332370	0.307297	-0.816491
C76	C	1.832370	0.807297	-0.316491
C77	C	1.332387	0.307282	-0.893350
C78	C	1.832387	0.807282	-0.393350
C79	C	1.455706	0.401416	-0.893322
C80	C	1.955706	0.901416	-0.393322
C81	C	1.455684	0.401434	-0.816465
C82	C	1.955684	0.901434	-0.316465
C83	C	1.394017	0.354370	-0.778051
C84	C	1.894017	0.854370	-0.278051
C85	C	1.394056	0.354337	-0.931767
C86	C	1.894056	0.854337	-0.431767
C87	C	1.394075	0.354322	-1.015101
C88	C	1.894075	0.854322	-0.515101
C89	C	1.393997	0.354387	-0.694712
C90	C	1.893997	0.854387	-0.194712
C91	C	1.393926	0.354490	-0.163329
C92	C	1.893926	0.854490	0.336671
C93	C	1.394093	0.354307	-0.081531
C94	C	1.894093	0.854307	0.418469
H95	H	1.505933	0.784387	-0.269234
H96	H	2.005933	1.284387	0.230766
N97	N	1.518799	0.931770	-0.259515
N98	N	2.018799	1.431770	0.240485
N99	N	1.512452	0.923240	-0.191602
N100	N	2.012452	1.423240	0.308398
H101	H	1.556999	0.950949	-0.157675
H102	H	2.056999	1.450949	0.342325
N103	N	1.269248	0.931809	-0.449632
N104	N	1.769248	1.431809	0.050368
N105	N	1.269289	1.000431	-0.449640
N106	N	1.769289	1.500431	0.050360
H107	H	1.224778	1.028164	-0.483568
H108	H	1.724778	1.528164	0.016432
N109	N	1.269168	0.776431	-0.449615
N110	N	1.769168	1.276431	0.050385
N111	N	1.275518	0.784960	-0.517528
N112	N	1.775518	1.284960	-0.017528
H113	H	1.230985	0.757239	-0.551456
H114	H	1.730985	1.257239	-0.051456
H115	H	1.505913	0.439733	-0.924608
H116	H	2.005913	0.939733	-0.424608
H117	H	1.282158	0.268974	-0.785217
H118	H	1.782158	0.768974	-0.285217
N119	N	1.269405	0.259197	-0.932603
N120	N	1.769405	0.759197	-0.432603
N121	N	1.214350	0.217185	-0.898293
N122	N	1.714350	0.717185	-0.398293
H123	H	1.169864	0.183223	-0.926015
H124	H	1.669864	0.683223	-0.426015
H125	H	1.505886	0.439770	-0.785166
H126	H	2.005886	0.939770	-0.285166
