data_functionalizedCrystal
_audit_creation_method	'MofGen! by Chris Wilmer'
_symmetry_space_group_name_H-M	'P1'
_symmetry_Int_Tables_number	1
_symmetry_cell_setting	triclinic
loop_
_symmetry_equiv_pos_as_xyz
  x,y,z
_cell_length_a	14.853567
_cell_length_b	14.519709
_cell_length_c	13.330367
_cell_angle_alpha	89.994415
_cell_angle_beta	89.995418
_cell_angle_gamma	83.657538
loop_
_atom_site_label
_atom_site_type_symbol
_atom_site_fract_x
_atom_site_fract_y
_atom_site_fract_z
O1	O	1.196416	0.120405	-0.083357
O2	O	0.933962	0.134748	-0.083374
O3	O	1.072147	-0.006665	-0.083356
O4	O	1.058230	0.261818	-0.083375
O5	O	1.072127	-0.006668	0.083491
O6	O	0.933942	0.134745	0.083473
O7	O	1.196395	0.120402	0.083491
Cu8	Cu	1.065167	0.127573	0.098716
Cu9	Cu	1.065190	0.127577	-0.098600
O10	O	1.058210	0.261814	0.083472
C11	C	0.900363	0.134096	0.000047
C12	C	0.800278	0.132149	0.000041
C13	C	1.071488	-0.041026	0.000068
C14	C	1.069545	-0.143407	0.000068
C15	C	0.387709	0.039914	0.000070
C16	C	0.366493	0.207916	0.000057
C17	C	0.460527	0.209747	0.000054
C18	C	0.518157	0.126660	0.000057
C19	C	0.481752	0.041743	0.000064
C20	C	0.496939	0.294663	0.000037
C21	C	0.590979	0.296498	0.000033
C22	C	0.648610	0.213410	0.000043
C23	C	0.612200	0.128489	0.000051
C24	C	0.669830	0.045403	0.000054
C25	C	0.633422	-0.039520	0.000069
C26	C	0.539383	-0.041345	0.000074
C27	C	0.742649	0.215235	0.000038
C28	C	0.763873	0.047231	0.000048
C29	C	1.062390	-0.518299	0.000042
C30	C	1.064377	-0.413992	0.000050
C31	C	1.065967	-0.330856	0.000056
C32	C	1.067955	-0.226543	0.000062
C33	C	1.229994	0.121053	0.000067
C34	C	1.330079	0.123001	0.000067
C35	C	1.058869	0.296175	0.000046
C36	C	1.060812	0.398556	0.000039
N37	N	1.065157	0.127570	0.237498
N38	N	1.065208	0.127572	-0.237381
C39	C	1.003999	0.190170	0.710113
C40	C	1.126406	0.064976	0.710097
C41	C	1.126396	0.064974	0.605078
C42	C	1.065187	0.127571	0.552572
C43	C	1.003989	0.190170	0.605085
C44	C	1.187599	0.002381	0.552558
C45	C	1.187592	0.002376	0.447534
C46	C	1.126378	0.064970	0.395026
C47	C	1.065177	0.127572	0.447544
C48	C	1.003968	0.190169	0.395038
C49	C	0.942762	0.252767	0.447555
C50	C	0.942775	0.252764	0.552577
C51	C	1.126365	0.064973	0.290004
C52	C	1.003958	0.190170	0.290010
H53	H	0.810790	-0.020429	0.000054
H54	H	0.772288	0.284378	0.000027
H55	H	0.892929	0.303738	0.404792
H56	H	0.450011	0.362307	0.000024
H57	H	1.176245	0.014016	0.752851
H58	H	1.237438	-0.048579	0.595312
C59	C	0.888454	0.308360	0.713573
C60	C	0.875511	0.321576	0.610305
H61	H	0.846933	0.350848	0.749212
H62	H	0.878564	0.246800	0.730790
H63	H	0.948643	0.318486	0.730753
H64	H	0.815324	0.311443	0.593124
H65	H	0.885394	0.383150	0.593080
H66	H	0.954111	0.241141	0.247266
C67	C	1.308584	-0.121381	0.458079
C68	C	1.254860	-0.066437	0.389812
H69	H	1.350106	-0.163868	0.422440
H70	H	1.341078	-0.082930	0.499022
H71	H	1.271001	-0.154618	0.499060
H72	H	1.292443	-0.033195	0.348835
H73	H	1.222364	-0.104893	0.348852
H74	H	0.680356	-0.107168	0.000065
H75	H	0.509731	-0.110484	0.000110
C76	C	0.601827	0.440265	-0.085750
C77	C	0.630985	0.389846	0.000022
H78	H	0.626520	0.497898	-0.085749
H79	H	0.621611	0.406055	-0.143919
H80	H	0.537572	0.451050	-0.085739
H81	H	0.695240	0.379056	0.000008
H82	H	0.611206	0.424064	0.058207
H83	H	0.954163	0.241134	0.752874
H84	H	0.319566	0.275561	0.000046
C85	C	0.252983	-0.037497	0.000088
C86	C	0.347694	-0.053430	0.000082
H87	H	0.228282	-0.095125	0.000089
H88	H	0.233218	-0.003291	0.058268
H89	H	0.233219	-0.003280	-0.058099
H90	H	0.367458	-0.087640	0.058274
H91	H	0.367466	-0.087650	-0.058103
H92	H	1.176202	0.014010	0.247250
