data_functionalizedCrystal
_audit_creation_method	'MofGen! by Chris Wilmer'
_symmetry_space_group_name_H-M	'P1'
_symmetry_Int_Tables_number	1
_symmetry_cell_setting	triclinic
loop_
_symmetry_equiv_pos_as_xyz
  x,y,z
_cell_length_a	14.519709
_cell_length_b	10.654550
_cell_length_c	9.730223
_cell_angle_alpha	89.995747
_cell_angle_beta	90.002325
_cell_angle_gamma	84.082538
loop_
_atom_site_label
_atom_site_type_symbol
_atom_site_fract_x
_atom_site_fract_y
_atom_site_fract_z
O1	O	1.224719	0.164623	-0.114110
O2	O	0.956343	0.184009	-0.114152
O3	O	1.096702	-0.008483	-0.114122
O4	O	1.084361	0.357114	-0.114141
O5	O	1.096693	-0.008488	0.114458
O6	O	0.956334	0.184004	0.114428
O7	O	1.224710	0.164617	0.114470
Zn8	Zn	1.090521	0.174310	0.150741
Zn9	Zn	1.090533	0.174317	-0.150423
O10	O	1.084352	0.357109	0.114439
C11	C	1.095791	-0.055275	0.000167
C12	C	1.093080	-0.194692	0.000165
C13	C	0.921974	0.183103	0.000132
C14	C	0.819579	0.180396	0.000116
C15	C	1.175721	-0.274972	0.000177
C16	C	1.173168	-0.405968	0.000160
C17	C	1.005326	-0.376391	0.000124
C18	C	1.007880	-0.245397	0.000131
C19	C	0.444631	0.170428	0.000179
C20	C	0.548954	0.173196	0.000162
C21	C	0.632102	0.175412	0.000147
C22	C	0.736431	0.178180	0.000131
C23	C	1.259079	0.165524	0.000182
C24	C	1.361475	0.168231	0.000189
C25	C	1.085262	0.403901	0.000147
C26	C	1.087973	0.543318	0.000140
N27	N	1.090519	0.174304	0.356277
N28	N	1.090541	0.174312	-0.355960
C29	C	1.152691	0.089105	0.428216
C30	C	1.152701	0.089105	0.572099
C31	C	1.028363	0.259516	0.572091
C32	C	1.028350	0.259508	0.428210
H33	H	1.240463	-0.471328	0.000167
O34	O	0.922646	-0.425859	0.000165
C35	C	0.844325	-0.614552	0.000067
C36	C	0.938025	-0.558703	0.000046
H37	H	0.856726	-0.721964	-0.000058
H38	H	0.803425	-0.581602	0.095743
H39	H	0.803449	-0.581422	-0.095578
H40	H	0.978975	-0.591808	0.095626
H41	H	0.978854	-0.591647	-0.095694
H42	H	1.245096	-0.233692	0.000202
H43	H	0.940579	-0.180029	0.000117
O44	O	1.213109	0.006213	0.358552
C45	C	1.336468	-0.162767	0.373754
C46	C	1.268082	-0.068974	0.452813
H47	H	1.380945	-0.223562	0.449929
H48	H	1.296296	-0.225718	0.306446
H49	H	1.382836	-0.108387	0.306340
H50	H	1.221697	-0.123252	0.520302
H51	H	1.308311	-0.006024	0.520034
O52	O	0.967851	0.342157	0.641912
C53	C	0.807970	0.415297	0.685893
C54	C	0.876397	0.321614	0.606762
H55	H	0.734015	0.398739	0.657482
H56	H	0.818580	0.400669	0.801101
H57	H	0.820666	0.515911	0.657604
H58	H	0.863742	0.220963	0.634936
H59	H	0.865770	0.336353	0.491573
O60	O	0.968045	0.342453	0.358383
C61	C	0.915349	0.560653	0.314388
C62	C	0.983709	0.466868	0.393526
H63	H	0.927976	0.661262	0.342794
H64	H	0.926016	0.546119	0.199180
H65	H	0.841393	0.543996	0.342674
H66	H	1.057692	0.483467	0.365355
H67	H	0.972961	0.481425	0.508715
H68	H	1.203326	0.019727	0.630669
