data_functionalizedCrystal
_audit_creation_method	'MofGen! by Chris Wilmer'
_symmetry_space_group_name_H-M	'P1'
_symmetry_Int_Tables_number	1
_symmetry_cell_setting	triclinic
loop_
_symmetry_equiv_pos_as_xyz
  x,y,z
_cell_length_a	14.044220
_cell_length_b	14.044220
_cell_length_c	12.503572
_cell_angle_alpha	86.156832
_cell_angle_beta	93.835250
_cell_angle_gamma	93.188878
loop_
_atom_site_label
_atom_site_type_symbol
_atom_site_fract_x
_atom_site_fract_y
_atom_site_fract_z
O1	O	-1.282200	-0.225116	-0.089210
O2	O	-0.782200	0.274884	0.410790
O3	O	-1.005530	-0.216809	-0.089237
O4	O	-0.505530	0.283191	0.410763
O5	O	-1.139712	-0.082627	-0.089213
O6	O	-0.639712	0.417373	0.410787
O7	O	-1.148019	-0.359298	-0.089234
O8	O	-0.648019	0.140702	0.410766
O9	O	-1.129622	-0.092737	0.089427
O10	O	-0.629622	0.407263	0.589427
O11	O	-0.995440	-0.226918	0.089403
O12	O	-0.495440	0.273082	0.589403
O13	O	-1.272110	-0.235226	0.089430
O14	O	-0.772110	0.264774	0.589430
Cu15	Cu	-1.132854	-0.231995	0.105728
Cu16	Cu	-0.632854	0.268005	0.605728
Cu17	Cu	-1.144786	-0.220040	-0.105535
Cu18	Cu	-0.644786	0.279960	0.394465
O19	O	-1.137929	-0.369407	0.089406
O20	O	-0.637929	0.130593	0.589406
C21	C	-0.964864	-0.218228	0.000080
C22	C	-0.464864	0.281772	0.500080
C23	C	-0.858721	-0.207383	0.000070
C24	C	-0.358721	0.292617	0.500070
N25	N	-1.124469	-0.240404	0.254319
N26	N	-0.624469	0.259596	0.754319
C27	C	-1.312777	-0.233807	0.000111
C28	C	-0.812777	0.266193	0.500111
C29	C	-1.418920	-0.244651	0.000114
C30	C	-0.918920	0.255349	0.500114
C31	C	-1.131031	-0.052060	0.000107
C32	C	-0.631031	0.447940	0.500107
C33	C	-1.120187	0.054082	0.000107
C34	C	-0.620187	0.554082	0.500107
C35	C	-0.664382	-0.187558	0.000092
C36	C	-0.164382	0.312442	0.500092
C37	C	-0.613253	-0.264472	0.000091
C38	C	-0.113253	0.235528	0.500091
C39	C	-0.505116	-0.253441	0.000104
C40	C	-0.005116	0.246559	0.500104
C41	C	-0.772529	-0.198587	0.000080
C42	C	-0.272529	0.301413	0.500080
C43	C	-1.146609	-0.399974	0.000084
C44	C	-0.646609	0.100026	0.500084
C45	C	-1.157454	-0.506117	0.000077
C46	C	-0.657454	-0.006117	0.500077
C47	C	-1.100361	0.248421	0.000090
C48	C	-0.600361	0.748421	0.500090
C49	C	-1.177275	0.299551	0.000094
C50	C	-0.677275	0.799551	0.500094
C51	C	-1.166244	0.407687	0.000084
C52	C	-0.666244	0.907687	0.500084
C53	C	-1.111391	0.140274	0.000099
C54	C	-0.611391	0.640274	0.500099
N55	N	-1.153179	-0.211624	-0.254126
N56	N	-0.653179	0.288376	0.245874
C57	C	-1.112134	-0.252782	0.473432
C58	C	-0.612134	0.247218	0.973432
C59	C	-1.165511	-0.199249	0.526768
C60	C	-0.665511	0.300751	1.026768
C61	C	-1.158648	-0.206136	0.648690
C62	C	-0.658648	0.293864	1.148690
C63	C	-1.118996	-0.245896	0.351499
C64	C	-0.618996	0.254104	0.851499
H65	H	-0.650692	-0.338605	0.000081
H66	H	-0.150692	0.161395	0.500081
H67	H	-1.251413	0.262115	0.000029
H68	H	-0.751413	0.762115	0.500029
C69	C	-1.008595	0.397850	0.000090
C70	C	-0.508595	0.897850	0.500090
C71	C	-1.000288	0.298955	0.000089
C72	C	-0.500288	0.798955	0.500089
H73	H	-0.946813	0.429053	0.000100
H74	H	-0.446813	0.929053	0.500100
H75	H	-1.045802	0.419305	-0.062205
H76	H	-0.545802	0.919305	0.437795
H77	H	-1.038789	0.412260	0.062387
H78	H	-0.538789	0.912260	0.562387
H79	H	-0.970100	0.284544	-0.062212
H80	H	-0.470100	0.784544	0.437788
H81	H	-0.963066	0.277492	0.062390
H82	H	-0.463066	0.777492	0.562390
C83	C	-0.645487	-0.032630	-0.091741
C84	C	-0.145487	0.467370	0.408259
C85	C	-0.613850	-0.087484	0.000094
C86	C	-0.113850	0.412516	0.500094
H87	H	-0.614285	0.029152	-0.091739
H88	H	-0.114285	0.529152	0.408261
H89	H	-0.631051	-0.062815	-0.154022
H90	H	-0.131051	0.437185	0.345978
H91	H	-0.712581	-0.027014	-0.091734
H92	H	-0.212581	0.472986	0.408266
H93	H	-0.546757	-0.093106	0.000082
H94	H	-0.046757	0.406894	0.500082
H95	H	-0.628279	-0.057292	0.062390
H96	H	-0.128279	0.442708	0.562390
C97	C	-1.227440	-0.136488	0.354271
C98	C	-0.727440	0.363512	0.854271
C99	C	-1.233939	-0.130172	0.464809
C100	C	-0.733939	0.369828	0.964809
H101	H	-1.269622	-0.093782	0.316019
H102	H	-0.769622	0.406218	0.816019
H103	H	-1.163777	-0.119991	0.336044
H104	H	-0.663777	0.380009	0.836044
H105	H	-1.244532	-0.199972	0.335782
H106	H	-0.744532	0.300028	0.835782
H107	H	-1.216841	-0.066688	0.483299
H108	H	-0.716841	0.433312	0.983299
H109	H	-1.297616	-0.146662	0.483042
H110	H	-0.797616	0.353338	0.983042
C111	C	-1.049907	-0.315226	0.645928
C112	C	-0.549907	0.184774	1.145928
C113	C	-1.043497	-0.321642	0.535391
C114	C	-0.543497	0.178358	1.035391
H115	H	-1.007540	-0.357743	0.684185
H116	H	-0.507540	0.142257	1.184185
H117	H	-1.033017	-0.251677	0.664291
H118	H	-0.533017	0.248323	1.164291
H119	H	-1.113510	-0.331922	0.664272
H120	H	-0.613510	0.168078	1.164272
H121	H	-0.979895	-0.304939	0.517045
H122	H	-0.479895	0.195061	1.017045
H123	H	-1.060381	-0.385205	0.517021
H124	H	-0.560381	0.114795	1.017021
