data_functionalizedCrystal
_audit_creation_method	'MofGen! by Chris Wilmer'
_symmetry_space_group_name_H-M	'P1'
_symmetry_Int_Tables_number	1
_symmetry_cell_setting	triclinic
loop_
_symmetry_equiv_pos_as_xyz
  x,y,z
_cell_length_a	19.077212
_cell_length_b	14.908178
_cell_length_c	19.076919
_cell_angle_alpha	88.840253
_cell_angle_beta	89.885058
_cell_angle_gamma	95.466257
loop_
_atom_site_label
_atom_site_type_symbol
_atom_site_fract_x
_atom_site_fract_y
_atom_site_fract_z
Zn1	Zn	1.044196	-0.327461	-0.425265
Zn2	Zn	1.042613	-0.472020	-0.300996
Zn3	Zn	0.931431	-0.326987	-0.303063
Zn4	Zn	0.919914	-0.484052	-0.413167
O5	O	0.984538	-0.402630	-0.360623
O6	O	1.142528	-0.341801	-0.412979
O7	O	1.032022	-0.447547	-0.203185
O8	O	0.951873	-0.200819	-0.325202
O9	O	1.141365	-0.448007	-0.321679
O10	O	1.034720	-0.201168	-0.414983
O11	O	0.950338	-0.340991	-0.204703
O12	O	0.831362	-0.352658	-0.313470
O13	O	0.932242	-0.468514	-0.512858
O14	O	0.822900	-0.468054	-0.394363
O15	O	1.023552	-0.353468	-0.521746
O16	O	1.020854	-0.599847	-0.309948
O17	O	0.930707	-0.608687	-0.392359
C18	C	0.801580	-0.411611	-0.352828
C19	C	0.723308	-0.415475	-0.349510
C20	C	0.282652	-0.443157	-0.325740
C21	C	0.356198	-0.439520	-0.328853
C22	C	0.393571	-0.382504	-0.378014
C23	C	0.357395	-0.329115	-0.424059
C24	C	0.283852	-0.332747	-0.420942
C25	C	0.613588	-0.365718	-0.392438
C26	C	0.687137	-0.362092	-0.395553
C27	C	0.685934	-0.472497	-0.300346
C28	C	0.612389	-0.476128	-0.297236
C29	C	0.576220	-0.422735	-0.343279
N30	N	0.468746	-0.378788	-0.381199
N31	N	0.501047	-0.426447	-0.340090
C32	C	0.974377	-0.636997	-0.349632
C33	C	0.970094	-0.737258	-0.344957
C34	C	1.048241	-0.925881	-0.429753
C35	C	1.044219	-1.020086	-0.425363
C36	C	0.958024	-1.019873	-0.331789
C37	C	0.962046	-0.925669	-0.336179
C38	C	1.007157	-0.878676	-0.385163
C39	C	1.011183	-0.784470	-0.389550
C40	C	0.924984	-0.784259	-0.295979
C41	C	0.920962	-0.878463	-0.291588
C42	C	1.168211	-0.393615	-0.368448
C43	C	1.246482	-0.389773	-0.371783
C44	C	0.976789	-0.412386	-0.543446
C45	C	0.973486	-0.416544	-0.621354
C46	C	0.994758	-0.167348	-0.371673
C47	C	0.999112	-0.067085	-0.376381
C48	C	1.019472	-0.358601	-0.662584
C49	C	1.016361	-0.362504	-0.735787
C50	C	0.967266	-0.424355	-0.767758
C51	C	0.921276	-0.482300	-0.726522
C52	C	0.924384	-0.478392	-0.653321
C53	C	0.952869	-0.442463	-0.986189
C54	C	0.949765	-0.446369	-1.059396
C55	C	1.044850	-0.326571	-1.068656
C56	C	1.047957	-0.322672	-0.995453
C57	C	1.001964	-0.380614	-0.954223
N58	N	0.964086	-0.428349	-0.842583
N59	N	1.005141	-0.376616	-0.879400
C60	C	0.992301	-0.392845	-0.178516
C61	C	0.995751	-0.388426	-0.100626
H62	H	0.385645	-0.482990	-0.291359
H63	H	1.087937	-0.272309	-0.969427
O64	O	0.721030	-0.524489	-0.255687
C65	C	0.698515	-0.616122	-0.265896
H66	H	0.675736	-0.624779	-0.320810
H67	H	0.745209	-0.657962	-0.259759
H68	H	0.656394	-0.639723	-0.225374
O69	O	0.879818	-0.534715	-0.613188
C70	C	0.919181	-0.588758	-0.569833
H71	H	0.974394	-0.553737	-0.562645
H72	H	0.892163	-0.599501	-0.516563
H73	H	0.922815	-0.656735	-0.595230
H74	H	0.252228	-0.489590	-0.285711
H75	H	0.891533	-0.745814	-0.259668
H76	H	0.921293	-1.058151	-0.291912
O77	O	0.576051	-0.531619	-0.249574
C78	C	0.529298	-0.594175	-0.284868
H79	H	0.548888	-0.601704	-0.340740
H80	H	0.526539	-0.662228	-0.256141
H81	H	0.474661	-0.569178	-0.286262
O82	O	0.902126	-0.506418	-1.090567
C83	C	0.909236	-0.497423	-1.164017
H84	H	0.964444	-0.465762	-1.177718
H85	H	0.900331	-0.566706	-1.188464
H86	H	0.868682	-0.452529	-1.185263
O87	O	1.089618	-0.270374	-1.108675
C88	C	1.159706	-0.285668	-1.092844
H89	H	1.160989	-0.356483	-1.069490
H90	H	1.192789	-0.278756	-1.142834
H91	H	1.182015	-0.234135	-1.053409
O92	O	0.723336	-0.306628	-0.443334
C93	C	0.675642	-0.260300	-0.483319
H94	H	0.624567	-0.258161	-0.452539
H95	H	0.699654	-0.188603	-0.495126
H96	H	0.664138	-0.296670	-0.534622
O97	O	0.578378	-0.313992	-0.437194
C98	C	0.531720	-0.369956	-0.478196
H99	H	0.518785	-0.437481	-0.449712
H100	H	0.481198	-0.336285	-0.487177
H101	H	0.557445	-0.381354	-0.530855
H102	H	0.387831	-0.282687	-0.464083
H103	H	0.254403	-0.289273	-0.458433
H104	H	0.884232	-0.916738	-0.251709
H105	H	1.047916	-0.746209	-0.429432
H106	H	1.077670	-1.058517	-0.461677
O107	O	1.067185	-0.298438	-0.631644
C108	C	1.107117	-0.248148	-0.683735
H109	H	1.076192	-0.249228	-0.734831
H110	H	1.118613	-0.175578	-0.666246
H111	H	1.158833	-0.278971	-0.692252
H112	H	1.084978	-0.887619	-0.469633
H113	H	1.053809	-0.315323	-0.769353
H114	H	0.915427	-0.489656	-0.952629
O115	O	0.873646	-0.542355	-0.757689
C116	C	0.880751	-0.533367	-0.831140
H117	H	0.935955	-0.501694	-0.844845
H118	H	0.871857	-0.602655	-0.855582
H119	H	0.840188	-0.488488	-0.852388
