data_functionalizedCrystal
_audit_creation_method	'MofGen! by Chris Wilmer'
_symmetry_space_group_name_H-M	'P1'
_symmetry_Int_Tables_number	1
_symmetry_cell_setting	triclinic
loop_
_symmetry_equiv_pos_as_xyz
  x,y,z
_cell_length_a	17.699077
_cell_length_b	27.731996
_cell_length_c	16.176319
_cell_angle_alpha	89.987220
_cell_angle_beta	89.993140
_cell_angle_gamma	82.950982
loop_
_atom_site_label
_atom_site_type_symbol
_atom_site_fract_x
_atom_site_fract_y
_atom_site_fract_z
O1	O	1.003525	0.061115	-0.068746
O2	O	0.783073	0.069071	-0.068752
O3	O	0.900166	-0.005281	-0.068731
O4	O	0.886432	0.135467	-0.068767
O5	O	0.900151	-0.005286	0.068762
O6	O	0.783057	0.069066	0.068741
O7	O	1.003509	0.061110	0.068747
Cu8	Cu	0.893282	0.065088	0.081298
Cu9	Cu	0.893301	0.065093	-0.081303
O10	O	0.886416	0.135462	0.068726
C11	C	0.754871	0.068784	-0.000006
C12	C	0.670860	0.067930	-0.000007
C13	C	0.631388	0.067525	0.074941
C14	C	0.552453	0.066715	0.074943
C15	C	0.512991	0.066314	-0.000006
C16	C	0.552469	0.066717	-0.074960
C17	C	0.631404	0.067524	-0.074960
C18	C	0.234135	0.063464	-0.074961
C19	C	0.155195	0.062659	-0.074955
C20	C	0.155185	0.062656	0.074942
C21	C	0.234119	0.063462	0.074942
C22	C	0.273591	0.063863	-0.000012
C23	C	0.359182	0.064740	-0.000012
C24	C	0.427401	0.065440	-0.000006
C25	C	0.899876	-0.023292	0.000018
C26	C	0.899027	-0.076951	0.000027
C27	C	0.893689	-0.409684	-0.074961
C28	C	0.890462	-0.611354	-0.074976
O29	O	0.890019	-0.637424	-0.138716
N30	N	0.890052	-0.636575	-0.000029
C31	C	0.890444	-0.611375	0.074927
O32	O	0.890014	-0.637454	0.138673
C33	C	0.893666	-0.409706	0.074940
C34	C	0.894083	-0.384488	-0.000011
C35	C	0.894105	-0.384466	-0.149907
C36	C	0.894916	-0.334052	-0.149903
C37	C	0.895310	-0.308856	-0.074953
C38	C	0.894894	-0.334074	-0.000007
C39	C	0.894053	-0.384507	0.149895
C40	C	0.894856	-0.334086	0.149892
C41	C	0.895274	-0.308868	0.074940
C42	C	0.896099	-0.258464	0.074948
N43	N	0.896509	-0.233243	0.000001
C44	C	0.896114	-0.258439	-0.074949
C45	C	0.888754	-0.717255	0.074914
C46	C	0.887950	-0.767672	0.074911
C47	C	0.887966	-0.767647	-0.074992
C48	C	0.888776	-0.717229	-0.074988
C49	C	0.889164	-0.692034	-0.000033
C50	C	0.897818	-0.152566	-0.074934
C51	C	0.898632	-0.102147	-0.074923
C52	C	0.898612	-0.102176	0.074979
C53	C	0.897802	-0.152591	0.074969
C54	C	0.897402	-0.177784	0.000005
O55	O	0.896534	-0.232362	0.138655
O56	O	0.896528	-0.232350	-0.138686
C57	C	0.892878	-0.460098	-0.074966
C58	C	0.892461	-0.485316	-0.000020
C59	C	0.892856	-0.460120	0.074930
C60	C	0.891657	-0.535733	-0.000023
C61	C	0.891263	-0.560929	-0.074973
C62	C	0.891672	-0.535708	-0.149920
C63	C	0.892483	-0.485294	-0.149916
C64	C	0.892446	-0.485341	0.149877
C65	C	0.891636	-0.535755	0.149866
C66	C	0.891242	-0.560952	0.074916
C67	C	1.031711	0.061397	-0.000001
C68	C	1.115722	0.062251	-0.000005
C69	C	0.886706	0.153473	-0.000025
C70	C	0.887556	0.207132	-0.000039
N71	N	0.893274	0.065083	0.195663
N72	N	0.893314	0.065094	-0.195669
C73	C	0.945138	0.032174	0.238937
C74	C	0.945142	0.032173	0.325484
C75	C	0.893285	0.065085	0.368756
C76	C	0.841415	0.097996	0.325477
C77	C	0.841408	0.097994	0.238931
C78	C	0.841441	0.098005	0.674505
C79	C	0.841453	0.098006	0.761056
C80	C	0.945175	0.032184	0.761058
C81	C	0.945168	0.032182	0.674512
C82	C	0.893296	0.065092	0.631240
C83	C	0.893291	0.065091	0.537396
C84	C	0.893292	0.065088	0.462599
H85	H	0.663512	0.067856	0.135973
C86	C	0.674822	0.067970	-0.157410
N87	N	0.707525	0.068305	-0.219513
C88	C	1.002179	-0.004042	0.373081
N89	N	1.045135	-0.031325	0.408930
H90	H	0.799188	0.124792	0.360714
H91	H	0.897489	-0.173072	-0.135977
C92	C	0.784360	0.134201	0.191331
N93	N	0.741389	0.161474	0.155479
C94	C	0.895287	-0.306374	0.232351
N95	N	0.895614	-0.285503	0.294459
C96	C	1.002213	-0.004024	0.626918
N97	N	1.045178	-0.031298	0.591071
C98	C	1.002186	-0.004033	0.191346
N99	N	1.045154	-0.031306	0.155502
H100	H	0.987410	0.005386	0.796299
C101	C	0.509058	0.066274	-0.157404
N102	N	0.476362	0.065942	-0.219503
C103	C	0.784478	0.134269	0.626917
N104	N	0.741605	0.161607	0.591071
H105	H	0.799222	0.124808	0.796287
H106	H	0.887646	-0.788170	-0.136019
C107	C	0.509034	0.066281	0.157392
N108	N	0.476331	0.065958	0.219497
H109	H	0.895253	-0.313524	-0.210936
C110	C	0.277523	0.063903	0.157391
N111	N	0.310215	0.064232	0.219493
H112	H	0.123038	0.062327	0.135973
H113	H	0.123067	0.062332	-0.135990
C114	C	0.893703	-0.412177	-0.232365
N115	N	0.893418	-0.433046	-0.294479
C116	C	0.277545	0.063901	-0.157412
N117	N	0.310244	0.064228	-0.219519
C118	C	0.899088	-0.074410	-0.157379
N119	N	0.899430	-0.053521	-0.219484
C120	C	0.889228	-0.689494	-0.157440
N121	N	0.889565	-0.668606	-0.219546
H122	H	0.887622	-0.788201	0.135944
H123	H	0.893714	-0.405030	0.210929
C124	C	0.889187	-0.689546	0.157376
N125	N	0.889516	-0.668679	0.219488
C126	C	0.897350	-0.180332	0.157419
N127	N	0.897003	-0.201222	0.219522
H128	H	0.898937	-0.081653	0.136001
C129	C	0.891236	-0.563434	-0.232366
N130	N	0.890902	-0.584318	-0.294460
H131	H	0.892822	-0.464766	-0.210949
C132	C	0.892883	-0.457633	0.232332
N133	N	0.893217	-0.436765	0.294444
C134	C	0.891176	-0.563489	0.232325
N135	N	0.890821	-0.584376	0.294431
