data_functionalizedCrystal
_audit_creation_method	'MofGen! by Chris Wilmer'
_symmetry_space_group_name_H-M	'P1'
_symmetry_Int_Tables_number	1
_symmetry_cell_setting	triclinic
loop_
_symmetry_equiv_pos_as_xyz
  x,y,z
_cell_length_a	13.635800
_cell_length_b	17.458045
_cell_length_c	11.102300
_cell_angle_alpha	86.948035
_cell_angle_beta	108.605850
_cell_angle_gamma	73.632038
loop_
_atom_site_label
_atom_site_type_symbol
_atom_site_fract_x
_atom_site_fract_y
_atom_site_fract_z
V1	V	2.050272	-0.110565	0.397386
O2	O	2.035545	0.005313	0.388659
O3	O	2.033261	-0.219232	0.395786
O4	O	2.038747	-0.108864	0.570190
O5	O	2.030022	-0.105818	0.213048
V6	V	2.289512	-0.096705	0.375202
O7	O	2.186432	-0.140969	0.446048
O8	O	2.378450	-0.066301	0.326539
O9	O	2.194919	0.011962	0.376802
O10	O	2.362937	-0.212583	0.383928
O11	O	2.368460	-0.101451	0.559540
O12	O	2.189433	-0.098405	0.202398
V13	V	2.550272	-0.110565	0.397386
O14	O	2.535545	0.005313	0.388659
O15	O	2.533261	-0.219232	0.395786
O16	O	2.538747	-0.108864	0.570190
O17	O	2.530022	-0.105818	0.213048
V18	V	2.789512	-0.096705	0.375202
O19	O	2.686432	-0.140969	0.446048
O20	O	2.878450	-0.066301	0.326539
O21	O	2.694919	0.011962	0.376802
O22	O	2.862937	-0.212583	0.383928
O23	O	2.868460	-0.101451	0.559540
O24	O	2.689433	-0.098405	0.202398
C25	C	1.957100	-0.245722	0.389805
C26	C	1.983920	-0.334559	0.389649
C27	C	1.904719	-0.372227	0.383191
C28	C	1.929921	-0.455697	0.383028
C29	C	2.034327	-0.501499	0.389333
C30	C	2.113533	-0.463825	0.395788
C31	C	2.088328	-0.380356	0.395941
C32	C	2.119552	-0.751572	0.389552
C33	C	2.144752	-0.835048	0.389402
C34	C	1.961137	-0.826913	0.376639
C35	C	1.935942	-0.743443	0.376801
C36	C	2.015148	-0.705776	0.383249
N37	N	2.060091	-0.586819	0.389172
N38	N	1.989381	-0.620457	0.383401
C39	C	1.964097	-0.104936	0.612273
C40	C	1.995364	-0.104265	0.753548
C41	C	2.102751	0.038449	0.382779
C42	C	2.065551	0.127285	0.382944
C43	C	2.095754	-0.102336	0.160308
C44	C	2.054106	-0.103003	0.019031
C45	C	2.457100	-0.245722	0.389805
C46	C	2.483920	-0.334559	0.389649
C47	C	2.464097	-0.104936	0.612273
C48	C	2.495364	-0.104265	0.753548
C49	C	2.101860	-0.107941	0.826435
C50	C	2.131231	-0.107307	0.959177
C51	C	1.947600	-0.099325	0.946135
C52	C	1.918228	-0.099953	0.813394
C53	C	2.602751	0.038449	0.382779
C54	C	2.565551	0.127285	0.382944
C55	C	2.595754	-0.102336	0.160308
C56	C	2.554106	-0.103003	0.019031
C57	C	2.588330	-0.380352	0.395967
C58	C	2.613549	-0.463826	0.395839
C59	C	2.534355	-0.501504	0.389385
C60	C	2.429937	-0.455705	0.383070
C61	C	2.404722	-0.372234	0.383207
C62	C	2.633635	0.173077	0.376629
C63	C	2.598688	0.256551	0.376763
C64	C	2.495660	0.294229	0.383220
C65	C	2.427570	0.248430	0.389531
C66	C	2.462514	0.164959	0.389388
C67	C	2.601860	-0.107941	0.826435
C68	C	2.631231	-0.107307	0.959177
C69	C	2.447600	-0.099325	0.946135
C70	C	2.418228	-0.099953	0.813394
H71	H	1.819705	-0.334941	0.378066
H72	H	2.664670	-0.111450	0.777713
H73	H	2.717948	-0.110299	1.018515
H74	H	1.896655	-0.857591	0.371388
N75	N	2.744775	0.132299	0.369818
H76	H	2.749584	0.156247	0.287859
H77	H	2.756350	0.072492	0.370803
N78	N	2.364409	-0.094676	1.010683
H79	H	2.399175	-0.094838	1.105835
H80	H	2.337166	-0.142812	0.997481
N81	N	2.561548	-0.591533	0.389227
H82	H	2.623741	-0.620994	0.470926
H83	H	2.583539	-0.605398	0.312415
N84	N	2.257294	-0.884542	0.396087
H85	H	2.313236	-0.879643	0.478099
H86	H	2.272846	-0.864039	0.319575
N87	N	2.344517	-0.496345	0.376073
H88	H	2.376341	-0.556170	0.376929
H89	H	2.279964	-0.472217	0.294064
N90	N	2.185048	-0.112589	0.761883
H91	H	2.256970	-0.114819	0.828203
H92	H	2.158875	-0.063254	0.694241
H93	H	1.884804	-0.095816	0.994878
N94	N	2.303355	-0.095990	0.734781
H95	H	2.305059	-0.145839	0.692262
H96	H	2.269157	-0.046272	0.666638
N97	N	2.246099	-0.111282	1.037789
H98	H	2.253006	-0.110227	1.130962
H99	H	2.263078	-0.063367	1.004581
H100	H	2.698575	-0.501104	0.400978
H101	H	2.654145	0.293829	0.371625
N102	N	2.389085	0.115567	0.396223
H103	H	2.373069	0.088511	0.317224
H104	H	2.318569	0.152154	0.400385
H105	H	1.865420	-0.486360	0.377751
H106	H	1.850924	-0.706156	0.371661
H107	H	2.467220	0.362197	0.383335
N108	N	2.204990	-0.710956	0.396555
H109	H	2.274958	-0.752642	0.400547
H110	H	2.218590	-0.684275	0.476139
H111	H	2.152822	-0.349687	0.401193
N112	N	1.803359	-0.095995	0.734775
H113	H	1.796458	-0.097044	0.641603
H114	H	1.750413	-0.044374	0.742278
H115	H	2.652826	-0.349686	0.401215
H116	H	2.319698	-0.334954	0.378055
N117	N	2.226062	-0.513267	0.402379
H118	H	2.260746	-0.555891	0.481769
H119	H	2.272386	-0.476731	0.406376
N120	N	2.316453	0.289069	0.396509
H121	H	2.271449	0.331285	0.317632
H122	H	2.324943	0.315707	0.476136
