data_functionalizedCrystal
_audit_creation_method	'MofGen! by Chris Wilmer'
_symmetry_space_group_name_H-M	'P1'
_symmetry_Int_Tables_number	1
_symmetry_cell_setting	triclinic
loop_
_symmetry_equiv_pos_as_xyz
  x,y,z
_cell_length_a	10.686285
_cell_length_b	18.215407
_cell_length_c	18.215399
_cell_angle_alpha	90.017777
_cell_angle_beta	85.609148
_cell_angle_gamma	94.372642
loop_
_atom_site_label
_atom_site_type_symbol
_atom_site_fract_x
_atom_site_fract_y
_atom_site_fract_z
Zn1	Zn	-0.502509	-1.147646	-0.393655
Zn2	Zn	-0.713527	-1.157035	-0.261174
Zn3	Zn	-0.502533	-1.024580	-0.270606
Zn4	Zn	-0.713439	-1.034021	-0.384207
O5	O	-0.608002	-1.090820	-0.327411
O6	O	-0.530528	-1.251877	-0.376088
O7	O	-0.685584	-1.139442	-0.159439
O8	O	-0.325954	-1.033025	-0.294830
O9	O	-0.685562	-1.258775	-0.278755
O10	O	-0.325936	-1.123442	-0.385234
O11	O	-0.530568	-1.042129	-0.166369
O12	O	-0.530483	-0.922847	-0.285669
O13	O	-0.685412	-1.049115	-0.488447
O14	O	-0.685434	-0.929783	-0.369131
O15	O	-0.530443	-1.132596	-0.495388
O16	O	-0.890091	-1.148596	-0.269594
O17	O	-0.890026	-1.058219	-0.359986
C18	C	-0.607953	-0.899612	-0.327399
C19	C	-0.607962	-0.817814	-0.327410
C20	C	-0.527392	-0.626034	-0.378157
C21	C	-0.527399	-0.549176	-0.378159
C22	C	-0.688593	-0.556358	-0.276671
C23	C	-0.688579	-0.633215	-0.276667
C24	C	-0.607980	-0.668051	-0.327414
C25	C	-0.608001	-0.514336	-0.327420
C26	C	-0.608009	-0.431002	-0.327421
C27	C	-0.607970	-0.751389	-0.327412
C28	C	-0.935843	-1.105471	-0.312757
C29	C	-1.076095	-1.111805	-0.306513
C30	C	-0.278881	-1.076133	-0.342138
C31	C	-0.138629	-1.069874	-0.348414
C32	C	-0.607915	-1.090861	-0.519368
C33	C	-0.607878	-1.090879	-0.601168
C34	C	-0.608038	-0.282775	-0.327422
C35	C	-0.608019	-0.364573	-0.327424
C36	C	-0.527110	-1.134361	-0.792981
C37	C	-0.527073	-1.134368	-0.869842
C38	C	-0.688450	-1.047440	-0.862602
C39	C	-0.688480	-1.047430	-0.785743
C40	C	-0.607812	-1.090894	-0.750935
C41	C	-0.607745	-1.090912	-0.904654
C42	C	-0.607706	-1.090919	-0.987989
C43	C	-0.607849	-1.090886	-0.667594
C44	C	-0.607997	-1.090818	-0.136205
C45	C	-0.607679	-1.090927	-0.054420
H46	H	-0.461773	-0.514969	-0.419478
H47	H	-0.461421	-1.169750	-0.764643
C48	C	-1.278217	-1.162689	-0.255889
C49	C	-1.148664	-1.166839	-0.251654
H50	H	-1.323015	-1.196675	-0.222033
H51	H	-1.299843	-1.114229	-0.244093
H52	H	-1.299656	-1.174362	-0.304413
H53	H	-1.127224	-1.155161	-0.203131
H54	H	-1.127029	-1.215310	-0.263445
C55	C	-0.705884	-0.720384	-0.176877
C56	C	-0.777169	-0.679405	-0.220885
H57	H	-0.760574	-0.748896	-0.142438
H58	H	-0.657889	-0.752126	-0.207096
H59	H	-0.650860	-0.687918	-0.151241
H60	H	-0.832188	-0.711872	-0.246525
H61	H	-0.825186	-0.647660	-0.190662
C62	C	-0.990191	-1.052973	-0.453936
C63	C	-1.066066	-1.014874	-0.403300
H64	H	-0.945395	-1.019016	-0.487823
H65	H	-0.932176	-1.078422	-0.428484
H66	H	-1.041551	-1.087310	-0.479850
H67	H	-1.014704	-0.980540	-0.377382
H68	H	-1.124087	-0.989412	-0.428754
C69	C	-0.367578	-1.220298	-0.869272
C70	C	-0.438370	-1.182152	-0.916059
H71	H	-0.312820	-1.249801	-0.897805
H72	H	-0.319318	-1.186076	-0.841451
H73	H	-0.422591	-1.250896	-0.836836
H74	H	-0.383357	-1.151549	-0.948491
H75	H	-0.486633	-1.216377	-0.943892
C76	C	-0.466182	-0.646999	-0.505566
C77	C	-0.438792	-0.664326	-0.433933
H78	H	-0.411475	-0.670634	-0.539999
H79	H	-0.550973	-0.663399	-0.512463
H80	H	-0.454654	-0.595211	-0.512820
H81	H	-0.450329	-0.716114	-0.426678
H82	H	-0.353981	-0.647930	-0.427034
C83	C	-0.760067	-1.008863	-0.977207
C84	C	-0.777128	-0.999672	-0.900866
H85	H	-0.814823	-0.979376	-1.000826
H86	H	-0.675290	-0.994307	-0.993593
H87	H	-0.778541	-1.059139	-0.988974
H88	H	-0.758645	-0.949397	-0.889098
H89	H	-0.861924	-1.014223	-0.884474
C90	C	-0.848011	-0.961511	-0.786300
C91	C	-0.777199	-0.999651	-0.739519
H92	H	-0.902782	-0.932019	-0.757762
H93	H	-0.793020	-0.930909	-0.818733
H94	H	-0.896270	-0.995741	-0.814124
H95	H	-0.728933	-0.965420	-0.711700
H96	H	-0.832197	-1.030255	-0.707074
H97	H	-0.754214	-0.527985	-0.235355
