data_functionalizedCrystal
_audit_creation_method	'MofGen! by Chris Wilmer'
_symmetry_space_group_name_H-M	'P1'
_symmetry_Int_Tables_number	1
_symmetry_cell_setting	triclinic
loop_
_symmetry_equiv_pos_as_xyz
  x,y,z
_cell_length_a	12.759401
_cell_length_b	16.994747
_cell_length_c	12.759393
_cell_angle_alpha	90.011549
_cell_angle_beta	90.018496
_cell_angle_gamma	90.011218
loop_
_atom_site_label
_atom_site_type_symbol
_atom_site_fract_x
_atom_site_fract_y
_atom_site_fract_z
Zn1	Zn	1.606282	-0.313978	0.594127
Zn2	Zn	1.606188	-0.445905	0.418509
Zn3	Zn	1.430584	-0.314019	0.418467
Zn4	Zn	1.430584	-0.445844	0.594150
O5	O	1.518409	-0.379937	0.506313
O6	O	1.753290	-0.331487	0.570839
O7	O	1.582854	-0.428453	0.271482
O8	O	1.453930	-0.203633	0.441741
O9	O	1.753221	-0.428413	0.441813
O10	O	1.583015	-0.203602	0.570798
O11	O	1.453839	-0.331557	0.271451
O12	O	1.283563	-0.331498	0.441764
O13	O	1.453930	-0.428309	0.741168
O14	O	1.283563	-0.428349	0.570838
O15	O	1.583015	-0.331428	0.741152
O16	O	1.582854	-0.556278	0.441835
O17	O	1.453838	-0.556234	0.570878
C18	C	1.245442	-0.379922	0.506299
C19	C	1.128665	-0.379935	0.506318
C20	C	1.518349	-0.584877	0.506361
C21	C	1.518356	-0.674199	0.506358
Zn22	Zn	1.430614	-0.945106	0.418437
Zn23	Zn	1.606329	-0.945043	0.594081
Zn24	Zn	1.430620	-0.813237	0.594133
Zn25	Zn	1.606207	-0.813160	0.418475
O26	O	1.518442	-0.879136	0.506282
O27	O	1.453972	-1.055479	0.441700
O28	O	1.583074	-0.927564	0.741109
O29	O	1.283598	-0.830788	0.570832
O30	O	1.583069	-1.055433	0.570744
O31	O	1.283594	-0.927672	0.441750
O32	O	1.453981	-0.830727	0.741147
O33	O	1.453863	-0.702845	0.570869
O34	O	1.582861	-0.830657	0.271449
O35	O	1.582866	-0.702789	0.441813
O36	O	1.453853	-0.927597	0.271421
O37	O	1.753334	-0.927490	0.570781
O38	O	1.753244	-0.830597	0.441763
C39	C	1.073831	-0.430446	0.573416
C40	C	0.964107	-0.430456	0.573427
C41	C	0.964061	-0.329442	0.439234
C42	C	1.073784	-0.329428	0.439229
C43	C	1.128713	-0.480953	0.640505
C44	C	1.073878	-0.531469	0.707607
C45	C	0.964154	-0.531479	0.707619
C46	C	0.909264	-0.480973	0.640528
C47	C	1.792443	-0.379952	0.506328
C48	C	1.909219	-0.379958	0.506335
C49	C	1.518483	-0.379857	0.780347
C50	C	1.518514	-0.379823	0.897124
C51	C	1.518476	-0.174197	0.506260
C52	C	1.518508	-0.084875	0.506238
C53	C	1.518397	-0.379959	0.233346
C54	C	1.518569	-0.379771	0.116570
C55	C	1.585738	-0.329372	0.951979
C56	C	1.585763	-0.329344	1.061703
C57	C	1.451338	-0.430224	1.061707
C58	C	1.451308	-0.430248	0.951985
C59	C	1.652944	-0.278947	0.897117
C60	C	1.720174	-0.228493	0.951972
C61	C	1.720199	-0.228464	1.061696
C62	C	1.652994	-0.278890	1.116565
C63	C	1.791410	-0.879030	0.506273
C64	C	1.908186	-0.879008	0.506300
C65	C	1.518343	-0.879126	0.232248
C66	C	1.518300	-0.879121	0.115471
C67	C	1.244409	-0.879245	0.506293
C68	C	1.127632	-0.879291	0.506297
C69	C	1.518467	-0.879192	0.779249
C70	C	1.518216	-0.879347	0.896025
C71	C	1.963060	-0.929486	0.573425
C72	C	2.072784	-0.929472	0.573430
C73	C	2.072751	-0.828497	0.439185
C74	C	1.963029	-0.828515	0.439175
C75	C	1.908218	-0.979979	0.640550
C76	C	1.963092	-1.030460	0.707681
C77	C	2.072816	-1.030447	0.707687
C78	C	2.127666	-0.979952	0.640562
C79	C	1.451115	-0.929587	0.060593
C80	C	1.451068	-0.929571	-0.049131
C81	C	1.585400	-0.828620	-0.049089
C82	C	1.585441	-0.828633	0.060633
C83	C	1.383975	-0.980075	0.115432
C84	C	1.316785	-1.030546	0.060554
C85	C	1.316738	-1.030530	-0.049170
C86	C	1.383880	-0.980043	-0.104016
H87	H	1.118576	-0.572584	0.762237
H88	H	1.384007	-0.980096	0.204775
O89	O	0.910583	-0.280466	0.374089
C90	C	0.741528	-0.235700	0.314655
C91	C	0.801959	-0.291213	0.388475
H92	H	0.653695	-0.244357	0.326276
H93	H	0.762994	-0.249481	0.229892
H94	H	0.763167	-0.172116	0.333201
H95	H	0.780352	-0.354816	0.370024
H96	H	0.780487	-0.277364	0.473216
H97	H	1.818875	-0.979993	0.640555
H98	H	1.396552	-0.471318	0.907321
H99	H	1.918426	-1.071575	0.762325
H100	H	2.117491	-1.071556	0.762340
H101	H	1.383834	-0.980031	-0.193361
O102	O	1.251616	-1.079695	0.113709
C103	C	1.200738	-1.213899	0.147259
C104	C	1.274594	-1.158326	0.086980
H105	H	1.219304	-1.277484	0.125687
H106	H	1.115989	-1.200144	0.125680
H107	H	1.212293	-1.205204	0.235102
H108	H	1.263132	-1.166990	-0.000877
H109	H	1.359315	-1.172094	0.108646
O110	O	2.234252	-0.980022	0.640721
C111	C	2.391727	-1.035456	0.714322
C112	C	2.271023	-1.035443	0.714266
H113	H	2.421493	-1.080271	0.773760
H114	H	2.421593	-0.974408	0.736268
H115	H	2.421455	-1.051735	0.632909
H116	H	2.241205	-1.019198	0.795653
H117	H	2.241228	-1.096498	0.692260
O118	O	1.650587	-0.779657	-0.102526
C119	C	1.710010	-0.734865	-0.271543
C120	C	1.636147	-0.790368	-0.211159
H121	H	1.698345	-0.743494	-0.359383
H122	H	1.794765	-0.748684	-0.250061
H123	H	1.691548	-0.671281	-0.249876
H124	H	1.654514	-0.853972	-0.232793
H125	H	1.551414	-0.776482	-0.232646
H126	H	0.919510	-0.572606	0.762264
H127	H	2.117419	-0.787386	0.384536
O128	O	1.909880	-0.779406	0.373940
C129	C	1.921416	-0.679284	0.240743
C130	C	1.981738	-0.734843	0.314590
H131	H	1.979487	-0.643252	0.192723
H132	H	1.870084	-0.638026	0.288980
H133	H	1.870008	-0.715488	0.185800
H134	H	2.033203	-0.698703	0.369547
H135	H	2.033004	-0.776103	0.266287
H136	H	1.640144	-0.787536	0.105316
H137	H	1.218055	-0.480952	0.640501
H138	H	1.118431	-0.288292	0.384600
O139	O	0.802678	-0.481081	0.640671
C140	C	0.645247	-0.536432	0.714435
C141	C	0.765951	-0.536414	0.714346
H142	H	0.615516	-0.581152	0.774010
H143	H	0.615318	-0.552767	0.633091
H144	H	0.615545	-0.475340	0.736317
H145	H	0.795741	-0.597488	0.692509
H146	H	0.795807	-0.520035	0.795699
O147	O	1.785303	-0.179469	0.898564
C148	C	1.799442	-0.072968	0.774722
C149	C	1.725568	-0.128455	0.835117
H150	H	1.751176	-0.031699	0.723427
H151	H	1.854338	-0.109153	0.723292
H152	H	1.847512	-0.036939	0.832801
H153	H	1.677430	-0.164496	0.777114
H154	H	1.670741	-0.092225	0.886563
O155	O	1.785597	-0.179428	1.114821
C156	C	1.918885	-0.079341	1.103230
C157	C	1.844885	-0.134845	1.042939
H158	H	1.966823	-0.043269	1.045140
H159	H	1.973887	-0.115510	1.154581
H160	H	1.870664	-0.038112	1.154617
H161	H	1.893021	-0.176086	0.991495
H162	H	1.789880	-0.098627	0.991654
H163	H	1.652934	-0.278967	0.807774
O164	O	1.386166	-0.479185	1.115166
C165	C	1.326604	-0.523829	1.284203
C166	C	1.400477	-0.468350	1.223794
H167	H	1.338133	-0.515076	1.372040
H168	H	1.345029	-0.587455	1.262715
H169	H	1.241897	-0.509988	1.262565
H170	H	1.485209	-0.482120	1.245400
H171	H	1.381963	-0.404740	1.245288
H172	H	1.653008	-0.278854	1.205910
H173	H	1.262020	-1.071619	-0.093849
