data_functionalizedCrystal
_audit_creation_method	'MofGen! by Chris Wilmer'
_symmetry_space_group_name_H-M	'P1'
_symmetry_Int_Tables_number	1
_symmetry_cell_setting	triclinic
loop_
_symmetry_equiv_pos_as_xyz
  x,y,z
_cell_length_a	14.519709
_cell_length_b	13.339070
_cell_length_c	12.376457
_cell_angle_alpha	104.398083
_cell_angle_beta	78.691279
_cell_angle_gamma	99.654720
loop_
_atom_site_label
_atom_site_type_symbol
_atom_site_fract_x
_atom_site_fract_y
_atom_site_fract_z
O1	O	1.270325	0.113336	-0.093849
O2	O	1.005827	0.128953	-0.093882
O3	O	1.107720	-0.026174	-0.093866
O4	O	1.168433	0.268463	-0.093865
O5	O	1.082246	0.012555	0.094142
O6	O	0.980353	0.167681	0.094126
O7	O	1.244851	0.152065	0.094159
Zn8	Zn	1.108558	0.166022	0.123993
Zn9	Zn	1.142121	0.114995	-0.123716
O10	O	1.142959	0.307192	0.094143
C11	C	0.958546	0.147588	0.000117
C12	C	0.855611	0.145403	0.000104
C13	C	1.084728	-0.044518	0.000135
C14	C	1.054160	-0.156877	0.000127
C15	C	1.291847	-0.521234	0.000157
C16	C	1.320569	-0.415666	0.000172
C17	C	1.253969	-0.350964	0.000160
C18	C	1.158642	-0.391839	0.000135
C19	C	1.129915	-0.497415	0.000129
C20	C	1.092038	-0.327146	0.000132
C21	C	0.996711	-0.368021	0.000107
C22	C	0.967989	-0.473587	0.000101
C23	C	1.034589	-0.538289	0.000112
C24	C	1.120764	-0.221569	0.000137
C25	C	0.958833	-0.197751	0.000109
C26	C	0.930111	-0.303319	0.000095
C27	C	0.478665	0.137381	0.000155
C28	C	0.583543	0.139609	0.000141
C29	C	0.667135	0.141392	0.000129
C30	C	0.772019	0.143620	0.000116
C31	C	1.292133	0.133429	0.000157
C32	C	1.395069	0.135612	0.000163
C33	C	1.165951	0.325535	0.000139
C34	C	1.196520	0.437892	0.000140
N35	N	1.085658	0.200846	0.293047
N36	N	1.165026	0.080163	-0.292771
C37	C	1.218177	-0.000694	0.648054
C38	C	1.234200	-0.025068	0.529716
C39	C	1.197065	0.031408	0.470543
C40	C	1.143907	0.112263	0.529719
C41	C	1.127889	0.136644	0.648068
C42	C	1.106777	0.168747	0.470558
C43	C	1.053619	0.249601	0.529734
C44	C	1.037603	0.273977	0.648071
C45	C	1.074737	0.217501	0.707244
C46	C	1.122795	0.144365	0.352209
C47	C	1.032506	0.281703	0.352223
C48	C	1.016484	0.306077	0.470560
H49	H	1.198380	-0.188299	0.000158
H50	H	1.277361	-0.265007	0.000172
H51	H	1.398184	-0.382393	0.000194
Cl52	Cl	0.998502	-0.671037	-0.000040
Cl53	Cl	1.375557	-0.602572	0.000193
Cl54	Cl	0.848147	-0.524967	0.000085
H55	H	1.061689	0.237343	0.803604
Cl56	Cl	1.301024	-0.126706	0.455327
H57	H	0.852493	-0.336615	0.000075
H58	H	1.248414	-0.046665	0.696240
Cl59	Cl	0.970789	0.375633	0.722465
Cl60	Cl	0.875101	-0.116417	0.000103
Cl61	Cl	1.189619	0.042723	0.277831
H62	H	1.210113	0.011560	0.374188
H63	H	0.973202	0.371911	0.518756
H64	H	1.002270	0.327693	0.304045
