data_functionalizedCrystal
_audit_creation_method	'MofGen! by Chris Wilmer'
_symmetry_space_group_name_H-M	'P1'
_symmetry_Int_Tables_number	1
_symmetry_cell_setting	triclinic
loop_
_symmetry_equiv_pos_as_xyz
  x,y,z
_cell_length_a	10.654550
_cell_length_b	10.654551
_cell_length_c	9.130313
_cell_angle_alpha	90.001552
_cell_angle_beta	89.996220
_cell_angle_gamma	84.485132
loop_
_atom_site_label
_atom_site_type_symbol
_atom_site_fract_x
_atom_site_fract_y
_atom_site_fract_z
O1	O	1.667835	0.176393	-0.121910
O2	O	1.302356	0.193199	-0.121885
O3	O	1.493498	0.002057	-0.121899
O4	O	1.476693	0.367535	-0.121896
O5	O	1.493496	0.002062	0.121700
O6	O	1.302354	0.193204	0.121713
O7	O	1.667832	0.176398	0.121689
Cu8	Cu	1.485093	0.184802	0.143944
Cu9	Cu	1.485096	0.184796	-0.144140
O10	O	1.476691	0.367540	0.121703
C11	C	1.255557	0.191968	-0.000083
C12	C	1.116114	0.188276	-0.000074
C13	C	1.036629	0.300817	-0.000095
C14	C	0.905608	0.297341	-0.000120
C15	C	0.933570	0.068771	-0.000110
C16	C	1.064589	0.072249	-0.000074
C17	C	1.020484	0.432780	-0.000106
C18	C	0.889463	0.429304	-0.000132
C19	C	1.492263	-0.044739	-0.000103
C20	C	1.488570	-0.184182	-0.000112
C21	C	1.486839	-0.249696	-0.132895
C22	C	1.483359	-0.380717	-0.132888
C23	C	1.483346	-0.380697	0.132696
C24	C	1.486817	-0.249678	0.132688
C25	C	1.486852	-0.249710	-0.286229
C26	C	1.483372	-0.380730	-0.286222
C27	C	1.714632	0.177629	-0.000117
C28	C	1.854075	0.181321	-0.000135
C29	C	1.477926	0.414336	-0.000097
C30	C	1.481619	0.553779	-0.000097
N31	N	1.485100	0.184805	0.346566
N32	N	1.485098	0.184782	-0.346763
C33	C	1.569760	0.100196	0.423212
C34	C	1.569756	0.100181	0.576549
C35	C	1.400430	0.269395	0.576581
C36	C	1.400428	0.269403	0.423246
C37	C	1.667523	0.002506	0.423195
C38	C	1.667519	0.002491	0.576532
H39	H	1.129302	-0.019393	-0.000037
H40	H	1.481917	-0.434039	0.240818
F41	F	0.878722	-0.054706	-0.000110
F42	F	0.829759	0.481435	0.137326
H43	H	1.400063	-0.203430	-0.345103
H44	H	1.049814	0.484393	0.101845
H45	H	1.578452	-0.220145	-0.333810
F46	F	1.067096	0.487698	-0.137571
H47	H	0.847731	0.479023	-0.102085
F48	F	1.488625	-0.179952	0.274013
F49	F	1.363650	-0.419385	-0.348412
F50	F	1.793666	0.030607	0.630927
H51	H	1.570163	-0.427023	-0.345101
H52	H	1.331481	0.338287	0.360843
H53	H	1.646079	-0.094027	0.381576
H54	H	1.331491	0.338271	0.639030
F55	F	1.786699	0.042500	0.361018
H56	H	1.637006	-0.088732	0.624081
