data_functionalizedCrystal
_audit_creation_method	'MofGen! by Chris Wilmer'
_symmetry_space_group_name_H-M	'P1'
_symmetry_Int_Tables_number	1
_symmetry_cell_setting	triclinic
loop_
_symmetry_equiv_pos_as_xyz
  x,y,z
_cell_length_a	15.944551
_cell_length_b	19.188930
_cell_length_c	14.421503
_cell_angle_alpha	89.999163
_cell_angle_beta	89.996859
_cell_angle_gamma	83.321760
loop_
_atom_site_label
_atom_site_type_symbol
_atom_site_fract_x
_atom_site_fract_y
_atom_site_fract_z
O1	O	1.114192	0.090038	-0.077026
O2	O	0.869601	0.101140	-0.077050
O3	O	0.998955	-0.006048	-0.077019
O4	O	0.984838	0.197227	-0.077057
O5	O	0.998934	-0.006032	0.077204
O6	O	0.869580	0.101156	0.077173
O7	O	1.114171	0.090054	0.077198
Cu8	Cu	0.991873	0.095607	0.091267
Cu9	Cu	0.991899	0.095588	-0.091120
O10	O	0.984817	0.197243	0.077167
C11	C	0.838298	0.100687	0.000059
C12	C	0.745057	0.099306	0.000050
C13	C	0.530462	0.029563	0.000081
C14	C	0.469331	0.061941	-0.075965
C15	C	0.574341	0.096806	0.000062
C16	C	0.469332	0.061973	0.076087
C17	C	0.409437	0.094386	0.000077
C18	C	0.514438	0.129203	-0.076047
C19	C	0.514446	0.129225	0.076073
C20	C	0.453332	0.161652	0.000008
C21	C	0.669338	0.098198	0.000052
C22	C	0.314441	0.093000	0.000080
C23	C	0.998487	-0.032052	0.000095
C24	C	0.997115	-0.109560	0.000103
C25	C	1.073016	-0.154288	0.000115
C26	C	1.071726	-0.227115	0.000100
C27	C	0.994532	-0.255211	0.000092
C28	C	0.918622	-0.210474	0.000075
C29	C	0.919913	-0.137648	0.000080
N30	N	0.935519	-0.363364	0.052571
N31	N	0.934298	-0.432545	0.052568
C32	C	0.990637	-0.474630	0.000073
N33	N	1.048256	-0.444921	-0.052407
N34	N	1.049480	-0.375733	-0.052400
C35	C	0.993123	-0.334178	0.000085
C36	C	1.065145	-0.598326	0.000067
C37	C	1.063852	-0.671154	0.000046
C38	C	0.910745	-0.654511	0.000030
C39	C	0.912040	-0.581685	0.000041
C40	C	0.989242	-0.553597	0.000064
C41	C	1.145474	0.090507	0.000087
C42	C	1.238715	0.091889	0.000089
C43	C	0.985285	0.223247	0.000050
C44	C	0.986657	0.300755	0.000036
N45	N	0.991862	0.095619	0.219549
N46	N	0.991917	0.095569	-0.219401
C47	C	0.932038	0.145161	0.469188
C48	C	1.007887	0.158716	0.530995
C49	C	0.991882	0.095603	0.408710
C50	C	0.916052	0.082064	0.530997
C51	C	0.991895	0.095588	0.591431
C52	C	1.067770	0.109189	0.469157
C53	C	0.975885	0.032510	0.469153
C54	C	1.051789	0.046038	0.530932
C55	C	0.991874	0.095613	0.303449
C56	C	0.991913	0.095578	0.696690
H57	H	0.534462	0.157649	0.140358
H58	H	0.449343	0.033526	0.140376
O59	O	0.839582	0.068441	0.563557
C60	C	0.754197	0.052476	0.698059
C61	C	0.840834	0.067918	0.661315
H62	H	0.755187	0.052034	0.777100
H63	H	0.703220	0.094795	0.672760
H64	H	0.740063	-0.000887	0.671506
H65	H	0.855049	0.121261	0.687852
H66	H	0.891763	0.025558	0.686606
H67	H	1.135880	-0.131424	0.000131
O68	O	1.145537	-0.270475	0.000156
C69	C	1.297532	-0.279302	0.000134
C70	C	1.214006	-0.230121	0.000092
H71	H	1.352911	-0.246696	0.000063
H72	H	1.300796	-0.313801	0.064691
H73	H	1.300720	-0.313826	-0.064394
H74	H	1.210762	-0.195553	0.064576
H75	H	1.210777	-0.195670	-0.064507
H76	H	0.419965	0.217516	-0.000045
O77	O	0.843688	-0.237846	-0.000056
C78	C	0.753367	-0.310376	-0.079998
C79	C	0.838270	-0.279439	-0.079949
H80	H	0.748952	-0.343998	-0.144595
H81	H	0.748912	-0.344102	-0.015501
H82	H	0.699352	-0.265883	-0.079961
H83	H	0.892334	-0.323886	-0.080019
H84	H	0.842653	-0.245695	-0.144440
H85	H	0.534329	0.157616	-0.140409
H86	H	0.449336	0.033493	-0.140247
O87	O	0.570421	-0.037032	-0.000160
C88	C	0.592867	-0.147708	-0.080574
C89	C	0.547571	-0.072308	-0.080419
H90	H	0.574397	-0.176255	-0.145446
H91	H	0.664110	-0.146071	-0.079974
H92	H	0.573583	-0.176635	-0.016369
H93	H	0.566786	-0.043337	-0.144613
H94	H	0.476338	-0.073996	-0.080970
O95	O	1.024163	0.222357	0.563305
C96	C	1.121884	0.309125	0.567228
C97	C	1.103558	0.237049	0.530556
H98	H	1.186082	0.321020	0.540782
H99	H	1.070855	0.351368	0.541846
H100	H	1.122302	0.308323	0.646270
H101	H	1.103155	0.237782	0.451516
H102	H	1.154590	0.194837	0.556009
H103	H	0.850233	-0.545266	0.000037
H104	H	0.858103	-0.101230	0.000071
O105	O	1.140208	-0.571152	0.000032
C106	C	1.291930	-0.595344	0.000083
C107	C	1.206981	-0.626208	0.000107
H108	H	1.345938	-0.639842	0.000164
H109	H	1.296422	-0.561686	-0.064471
H110	H	1.296314	-0.561644	0.064614
H111	H	1.202540	-0.659940	-0.064380
H112	H	1.202526	-0.659826	0.064704
O113	O	0.871828	0.195233	0.436722
C114	C	0.841754	0.300112	0.344969
C115	C	0.910018	0.243440	0.381657
H116	H	0.872607	0.339110	0.300458
H117	H	0.794242	0.274364	0.301412
H118	H	0.807876	0.328843	0.405942
H119	H	0.943959	0.214690	0.320741
H120	H	0.957474	0.269229	0.425243
O121	O	1.137565	-0.714633	-0.000110
C122	C	1.224959	-0.806531	-0.079980
C123	C	1.141456	-0.757321	-0.079928
H124	H	1.228124	-0.841068	-0.144496
H125	H	1.280386	-0.773976	-0.080022
H126	H	1.228160	-0.841017	-0.015414
H127	H	1.138173	-0.722826	-0.144483
H128	H	1.086068	-0.789918	-0.079838
H129	H	1.131917	0.120698	0.442107
H130	H	1.102458	0.004119	0.557872
O131	O	0.835831	-0.681911	0.000058
C132	C	0.765986	-0.786726	-0.000028
C133	C	0.850887	-0.755786	-0.000031
H134	H	0.778129	-0.846458	-0.000120
H135	H	0.728465	-0.768360	0.064525
H136	H	0.728504	-0.768257	-0.064560
H137	H	0.888437	-0.774241	0.064457
H138	H	0.888344	-0.774149	-0.064627
H139	H	0.962318	-0.020823	0.441967
