data_functionalizedCrystal
_audit_creation_method	'MofGen! by Chris Wilmer'
_symmetry_space_group_name_H-M	'P1'
_symmetry_Int_Tables_number	1
_symmetry_cell_setting	triclinic
loop_
_symmetry_equiv_pos_as_xyz
  x,y,z
_cell_length_a	12.594516
_cell_length_b	12.594517
_cell_length_c	16.625539
_cell_angle_alpha	90.025391
_cell_angle_beta	89.975805
_cell_angle_gamma	89.986890
loop_
_atom_site_label
_atom_site_type_symbol
_atom_site_fract_x
_atom_site_fract_y
_atom_site_fract_z
Zn1	Zn	-0.423884	-1.627247	-0.456036
Zn2	Zn	-0.601885	-1.627132	-0.321213
Zn3	Zn	-0.423905	-1.449252	-0.321205
Zn4	Zn	-0.601805	-1.449226	-0.455991
O5	O	-0.512870	-1.538214	-0.388611
O6	O	-0.447521	-1.776177	-0.438173
O7	O	-0.578318	-1.603499	-0.208380
O8	O	-0.274957	-1.472922	-0.339106
O9	O	-0.578298	-1.776093	-0.339119
O10	O	-0.274941	-1.603694	-0.438166
O11	O	-0.447557	-1.472811	-0.208374
O12	O	-0.447480	-1.300303	-0.339063
O13	O	-0.578161	-1.472878	-0.568830
O14	O	-0.578182	-1.300284	-0.438090
O15	O	-0.447443	-1.603669	-0.568863
O16	O	-0.750820	-1.603474	-0.339076
O17	O	-0.750762	-1.472767	-0.438097
C18	C	-0.789411	-1.538134	-0.388600
C19	C	-0.907716	-1.538198	-0.388623
C20	C	-0.512825	-1.261673	-0.388571
C21	C	-0.512832	-1.143368	-0.388573
C22	C	-1.047740	-1.467164	-0.442453
C23	C	-0.976838	-1.564199	-0.462241
C24	C	-0.977046	-1.441173	-0.368870
C25	C	-1.047600	-1.635457	-0.408479
C26	C	-1.047814	-1.512366	-0.315074
C27	C	-0.976945	-1.609468	-0.334834
C28	C	-0.441640	-1.074094	-0.334811
C29	C	-0.538721	-1.003280	-0.314976
C30	C	-0.415780	-1.003383	-0.408410
C31	C	-0.609964	-1.074112	-0.368700
C32	C	-0.486957	-1.074222	-0.462168
C33	C	-0.584106	-1.003439	-0.442360
C34	C	-0.235249	-1.538324	-0.388640
C35	C	-0.116944	-1.538370	-0.388652
C36	C	-0.512791	-1.538284	-0.598920
C37	C	-0.512757	-1.538313	-0.688542
C38	C	-0.512894	-0.815835	-0.388637
C39	C	-0.512850	-0.934141	-0.388610
C40	C	-0.512638	-1.538362	-1.016717
C41	C	-0.512674	-1.538346	-0.925409
C42	C	-0.512698	-1.538338	-0.852632
C43	C	-0.512733	-1.538320	-0.761318
C44	C	-0.512872	-1.538207	-0.179121
C45	C	-0.512606	-1.538383	-0.089500
H46	H	-1.078821	-1.407095	-0.487998
H47	H	-1.079012	-1.490409	-0.252880
H48	H	-0.644388	-0.972611	-0.487841
C49	C	-0.568303	-0.961176	-0.230920
N50	N	-0.590575	-0.929464	-0.167607
H51	H	-0.381502	-1.105118	-0.289296
H52	H	-0.692072	-1.105050	-0.351869
H53	H	-0.333707	-0.972259	-0.425144
C54	C	-0.934728	-1.593827	-0.546286
N55	N	-0.903018	-1.616139	-0.609591
C56	C	-1.089294	-1.746438	-0.431170
N57	N	-1.120700	-1.830025	-0.448265
H58	H	-0.946058	-1.669680	-0.289324
C59	C	-0.935176	-1.330223	-0.346279
N60	N	-0.903645	-1.246653	-0.329269
H61	H	-0.465028	-1.105406	-0.524370
