data_functionalizedCrystal
_audit_creation_method	'MofGen! by Chris Wilmer'
_symmetry_space_group_name_H-M	'P1'
_symmetry_Int_Tables_number	1
_symmetry_cell_setting	triclinic
loop_
_symmetry_equiv_pos_as_xyz
  x,y,z
_cell_length_a	18.627243
_cell_length_b	18.627245
_cell_length_c	18.627297
_cell_angle_alpha	90.002039
_cell_angle_beta	59.997824
_cell_angle_gamma	119.999685
loop_
_atom_site_label
_atom_site_type_symbol
_atom_site_fract_x
_atom_site_fract_y
_atom_site_fract_z
O1	O	0.633240	-0.492484	-0.021356
O2	O	0.486232	-0.388088	0.021256
O3	O	0.633235	-0.388087	-0.125751
O4	O	0.486237	-0.492485	0.125650
O5	O	0.513833	-0.507489	-0.125750
O6	O	0.366830	-0.507489	0.021256
O7	O	0.513838	-0.611886	-0.021356
Zn8	Zn	0.421376	-0.578645	-0.000050
Zn9	Zn	0.578694	-0.421328	-0.000051
O10	O	0.366835	-0.611886	0.125650
C11	C	0.356044	-0.256979	0.030935
C12	C	0.406443	-0.162282	0.024836
C13	C	0.269040	-0.300580	0.031539
C14	C	0.356039	-0.386983	0.030943
C15	C	0.406432	-0.431286	0.024852
C16	C	0.269035	-0.430386	0.031548
C17	C	0.226044	-0.386979	0.030935
C18	C	0.137446	-0.431279	0.024835
C19	C	0.398838	-0.300583	0.031548
O20	O	-0.104350	-0.611881	-0.021369
O21	O	0.104442	-0.507482	0.021239
O22	O	0.104453	-0.507489	-0.125766
O23	O	-0.104360	-0.611875	0.125635
O24	O	0.104457	-0.388084	-0.125773
O25	O	0.104446	-0.388078	0.021231
O26	O	-0.104345	-0.492477	-0.021377
Zn27	Zn	0.000051	-0.421319	-0.000074
Zn28	Zn	0.000046	-0.578640	-0.000064
O29	O	-0.104356	-0.492470	0.125628
C30	C	0.644032	-0.386986	-0.387050
C31	C	0.593636	-0.431285	-0.431350
C32	C	0.731038	-0.300587	-0.430453
C33	C	0.644032	-0.386986	-0.257049
C34	C	0.593635	-0.431287	-0.162352
C35	C	0.731037	-0.300588	-0.300650
C36	C	0.774032	-0.256986	-0.387049
C37	C	0.862632	-0.162290	-0.431348
C38	C	0.601235	-0.430390	-0.300651
C39	C	0.774046	-0.612982	-0.031065
C40	C	0.862649	-0.568681	-0.024971
C41	C	0.731054	-0.699380	-0.031674
C42	C	0.644041	-0.612985	-0.031058
C43	C	0.593641	-0.568686	-0.024957
C44	C	0.601246	-0.699383	-0.031667
C45	C	0.644046	-0.742983	-0.031064
C46	C	0.593651	-0.837679	-0.024969
C47	C	0.731049	-0.569580	-0.031668
O48	O	0.513853	0.125721	-0.021375
O49	O	0.366846	-0.125678	0.021232
O50	O	0.513856	0.021315	-0.125772
O51	O	0.366843	-0.021272	0.125629
O52	O	0.633253	0.021311	-0.125765
O53	O	0.486243	-0.125682	0.021240
O54	O	0.633250	0.125717	-0.021368
Zn55	Zn	0.578703	0.000017	-0.000063
Zn56	Zn	0.421393	0.000022	-0.000073
O57	O	0.486240	-0.021275	0.125637
O58	O	1.104430	0.125707	-0.492538
O59	O	0.895633	-0.125690	-0.388147
O60	O	0.895628	0.021307	-0.388137
O61	O	1.104435	-0.021290	-0.492548
O62	O	0.895631	0.021311	-0.507540
O63	O	0.895636	-0.125686	-0.507550
O64	O	1.104433	0.125711	-0.611941
Zn65	Zn	1.000035	0.000013	-0.578704
Zn66	Zn	1.000031	0.000008	-0.421384
O67	O	1.104438	-0.021286	-0.611951
O68	O	0.486231	-0.492490	-0.611948
O69	O	0.633235	-0.388087	-0.507553
O70	O	0.486230	-0.388090	-0.507544
O71	O	0.633237	-0.492487	-0.611956
O72	O	0.366830	-0.507490	-0.388142
O73	O	0.513836	-0.507487	-0.388151
O74	O	0.366832	-0.611890	-0.492545
Zn75	Zn	0.421376	-0.578646	-0.421390
Zn76	Zn	0.578691	-0.421331	-0.578708
O77	O	0.513837	-0.611887	-0.492554
C78	C	0.226037	-0.742989	0.386948
C79	C	0.137437	-0.837686	0.431246
C80	C	0.269030	-0.699389	0.430353
C81	C	0.356038	-0.612988	0.256949
C82	C	0.406435	-0.568687	0.162252
C83	C	0.398834	-0.569585	0.300552
C84	C	0.356036	-0.612990	0.386950
C85	C	0.406432	-0.568691	0.431252
C86	C	0.269032	-0.699387	0.300549
C87	C	0.356073	-0.256995	-0.387073
C88	C	0.406473	-0.162299	-0.431376
C89	C	0.398871	-0.300599	-0.430474
C90	C	0.226065	-0.386990	-0.257069
C91	C	0.137460	-0.431286	-0.162372
C92	C	0.269060	-0.430398	-0.300668
C93	C	0.356070	-0.386997	-0.387067
C94	C	0.406468	-0.431300	-0.431364
C95	C	0.269063	-0.300593	-0.300674
C96	C	-0.355975	-0.612964	0.386929
C97	C	-0.406373	-0.568662	0.431227
C98	C	-0.398774	-0.699362	0.430336
C99	C	-0.225968	-0.612970	0.256931
C100	C	-0.137363	-0.568673	0.162234
C101	C	-0.268966	-0.699367	0.300535
C102	C	-0.355976	-0.742966	0.386934
C103	C	-0.406376	-0.837662	0.431237
C104	C	-0.268964	-0.569563	0.300530
C105	C	0.774043	0.030962	-0.387056
C106	C	0.862639	0.024856	-0.431349
C107	C	0.731051	0.031564	-0.430463
C108	C	0.644049	0.030986	-0.257064
C109	C	0.593654	0.024905	-0.162369
C110	C	0.601253	0.031588	-0.300669
C111	C	0.644048	0.030966	-0.387064
C112	C	0.593653	0.024863	-0.431366
C113	C	0.731051	0.031584	-0.300660
O114	O	0.633303	0.125701	-0.611972
O115	O	0.486281	-0.125700	-0.507577
O116	O	0.633272	0.021288	-0.507558
O117	O	0.486311	-0.021287	-0.611991
O118	O	0.513861	0.021292	-0.388162
O119	O	0.366869	-0.125696	-0.388181
O120	O	0.513891	0.125706	-0.492576
Zn121	Zn	0.421421	0.000006	-0.421421
Zn122	Zn	0.578751	0.000000	-0.578731
O123	O	0.366900	-0.021282	-0.492594
C124	C	0.356047	-0.030927	0.386929
C125	C	0.406443	-0.024826	0.431231
C126	C	0.269046	-0.031525	0.430327
C127	C	0.356047	-0.030947	0.256928
C128	C	0.406442	-0.024866	0.162234
C129	C	0.269045	-0.031545	0.300525
C130	C	0.226053	-0.030923	0.386920
C131	C	0.137458	-0.024816	0.431213
C132	C	0.398842	-0.031549	0.300533
H133	H	0.767008	-0.265581	-0.265636
H134	H	0.233062	-0.501390	-0.265660
H135	H	0.468895	-0.265589	-0.501459
H136	H	0.767042	0.032539	-0.501453
H137	H	0.767034	0.032562	-0.265654
O138	O	0.226284	-0.032595	0.258636
C139	C	0.248592	0.041462	0.135551
C140	C	0.297151	0.042749	0.182883
H141	H	0.305858	0.102380	0.074306
H142	H	0.225058	-0.020018	0.115734
H143	H	0.178871	0.041096	0.181617
H144	H	0.366903	0.043147	0.136866
H145	H	0.320611	0.104222	0.202715
O146	O	0.226270	-0.515037	0.032597
C147	C	0.248569	-0.615817	-0.041469
C148	C	0.297132	-0.519926	-0.042754
H149	H	0.305832	-0.619798	-0.102392
H150	H	0.225037	-0.659168	0.020009
H151	H	0.178846	-0.639469	-0.041095
H152	H	0.366886	-0.496193	-0.043159
H153	H	0.320591	-0.476634	-0.104225
O154	O	0.482290	-0.484867	0.258931
C155	C	0.554261	-0.335436	0.258650
C156	C	0.459675	-0.431337	0.305879
H157	H	0.536004	-0.292127	0.296578
H158	H	0.619142	-0.331389	0.255105
H159	H	0.577646	-0.311787	0.189259
H160	H	0.436200	-0.455047	0.375292
H161	H	0.394854	-0.435329	0.309354
O162	O	0.226299	-0.258704	-0.258959
C163	C	0.248598	-0.135627	-0.207189
C164	C	0.297160	-0.182960	-0.254466
H165	H	0.305859	-0.074390	-0.203525
H166	H	0.225075	-0.115801	-0.245139
H167	H	0.178871	-0.181696	-0.137840
H168	H	0.366919	-0.136941	-0.323815
H169	H	0.320610	-0.202801	-0.216450
H170	H	0.531229	-0.734388	-0.032637
H171	H	-0.232978	-0.734371	0.265528
H172	H	0.233044	-0.734394	0.265547
O173	O	0.482247	-0.258850	0.032880
C174	C	0.554197	-0.187127	0.110344
C175	C	0.459664	-0.234384	0.108950
H176	H	0.535979	-0.167316	0.171831
H177	H	0.577524	-0.233154	0.110743
H178	H	0.619105	-0.125865	0.049443
H179	H	0.394694	-0.295643	0.169839
H180	H	0.436424	-0.188297	0.108506
O181	O	-0.482436	-0.741176	0.514960
C182	C	-0.657276	-0.792902	0.615681
C183	C	-0.562597	-0.745528	0.519821
H184	H	-0.722104	-0.796420	0.619646
H185	H	-0.680677	-0.862299	0.639339
H186	H	-0.639111	-0.754999	0.659040
H187	H	-0.580684	-0.783358	0.476395
H188	H	-0.539221	-0.676127	0.496235
O189	O	0.482443	-0.032602	0.258820
C190	C	0.657291	0.041466	0.207044
C191	C	0.562683	0.042754	0.254320
H192	H	0.722195	0.102394	0.203374
H193	H	0.639167	-0.020004	0.244998
H194	H	0.680566	0.041080	0.137698
H195	H	0.539359	0.043172	0.323667
H196	H	0.580859	0.104218	0.216299
O197	O	0.773960	-0.484855	-0.032948
C198	C	0.851763	-0.335421	-0.110452
C199	C	0.803168	-0.431333	-0.109102
H200	H	0.875411	-0.292119	-0.172025
H201	H	0.794503	-0.331338	-0.049627
H202	H	0.921423	-0.311791	-0.110728
H203	H	0.733518	-0.455024	-0.108856
H204	H	0.860495	-0.435361	-0.169922
H205	H	0.233063	-0.032497	0.501316
O206	O	0.226053	-0.741026	0.515097
C207	C	0.148424	-0.741160	0.664483
C208	C	0.197039	-0.693953	0.568552
H209	H	0.124971	-0.703111	0.707725
H210	H	0.078671	-0.810528	0.688255
H211	H	0.205712	-0.744758	0.668474
H212	H	0.139827	-0.690289	0.564487
H213	H	0.266809	-0.624611	0.544821
O214	O	0.226035	-0.258835	0.032899
C215	C	0.148061	-0.187375	0.110581
C216	C	0.196825	-0.234570	0.109087
H217	H	0.124412	-0.167761	0.172182
H218	H	0.205218	-0.126019	0.049786
H219	H	0.078382	-0.233469	0.110904
H220	H	0.266496	-0.188547	0.108794
H221	H	0.139602	-0.295937	0.169877
H222	H	-0.233028	-0.498597	0.265502
H223	H	0.531206	-0.501370	-0.265641
O224	O	0.773845	-0.258799	-0.515094
C225	C	0.751546	-0.207106	-0.615910
C226	C	0.702941	-0.254433	-0.520021
H227	H	0.694235	-0.203577	-0.619929
H228	H	0.821218	-0.137714	-0.639588
H229	H	0.775153	-0.245049	-0.659218
H230	H	0.679271	-0.216563	-0.476646
H231	H	0.633311	-0.323829	-0.496415
O232	O	0.774153	-0.741015	-0.032981
C233	C	0.923297	-0.741307	-0.110534
C234	C	0.874623	-0.694054	-0.109140
H235	H	1.004528	-0.703369	-0.172111
H236	H	0.923817	-0.744901	-0.049713
H237	H	0.877545	-0.810679	-0.110833
H238	H	0.920335	-0.624661	-0.108870
H239	H	0.874088	-0.690531	-0.169956
O240	O	0.517845	0.032924	-0.258938
C241	C	0.445895	0.110397	-0.187232
C242	C	0.540429	0.109001	-0.234487
H243	H	0.464115	0.171890	-0.167433
H244	H	0.422565	0.110785	-0.233258
H245	H	0.380990	0.049505	-0.125961
H246	H	0.605398	0.169882	-0.295754
H247	H	0.563673	0.108568	-0.188401
