data_functionalizedCrystal
_audit_creation_method	'MofGen! by Chris Wilmer'
_symmetry_space_group_name_H-M	'P1'
_symmetry_Int_Tables_number	1
_symmetry_cell_setting	triclinic
loop_
_symmetry_equiv_pos_as_xyz
  x,y,z
_cell_length_a	15.944551
_cell_length_b	10.654541
_cell_length_c	9.730217
_cell_angle_alpha	90.003041
_cell_angle_beta	89.996919
_cell_angle_gamma	83.991333
loop_
_atom_site_label
_atom_site_type_symbol
_atom_site_fract_x
_atom_site_fract_y
_atom_site_fract_z
O1	O	-1.115457	-0.161964	-0.114146
O2	O	-0.871023	-0.181933	-0.114180
O3	O	-0.998861	0.010863	-0.114154
O4	O	-0.987619	-0.354761	-0.114172
O5	O	-0.998857	0.010865	0.114426
O6	O	-0.871019	-0.181931	0.114400
O7	O	-1.115453	-0.161963	0.114434
Zn8	Zn	-0.993235	-0.171947	0.150709
Zn9	Zn	-0.993241	-0.171949	-0.150455
O10	O	-0.987615	-0.354759	0.114408
C11	C	-0.839722	-0.181103	0.000106
C12	C	-0.746462	-0.178618	0.000093
C13	C	-0.998034	0.057652	0.000135
C14	C	-0.995566	0.197063	0.000133
C15	C	-1.146754	-0.162793	0.000145
C16	C	-1.240014	-0.165278	0.000149
C17	C	-0.530880	-0.053173	0.000126
C18	C	-0.470198	-0.111426	-0.112579
C19	C	-0.575710	-0.174122	0.000109
C20	C	-0.470217	-0.111453	0.112783
C21	C	-0.410772	-0.169770	0.000131
C22	C	-0.516257	-0.232408	-0.112689
C23	C	-0.516282	-0.232418	0.112775
C24	C	-0.455618	-0.290760	0.000042
C25	C	-0.670727	-0.176625	0.000096
C26	C	-0.315756	-0.167276	0.000135
C27	C	-0.988442	-0.401548	0.000116
C28	C	-0.990910	-0.540959	0.000109
N29	N	-0.993238	-0.171944	0.356246
C30	C	-1.148431	0.227012	0.000171
C31	C	-1.223700	0.307480	0.000193
C32	C	-1.221376	0.438468	0.000189
C33	C	-1.143774	0.488989	0.000158
C34	C	-1.068504	0.408521	0.000136
C35	C	-1.070837	0.277532	0.000145
C36	C	-0.915641	0.378573	0.000087
C37	C	-0.917963	0.247584	0.000102
C38	C	-0.838039	0.429094	0.000057
C39	C	-0.762767	0.348625	0.000045
C40	C	-0.765095	0.217630	0.000051
C41	C	-0.842694	0.167116	0.000080
N42	N	-0.993245	-0.171941	-0.355991
C43	C	-1.106485	-0.001272	0.356260
C44	C	-1.163115	0.084060	0.428206
C45	C	-1.163123	0.084061	0.572086
C46	C	-1.106495	-0.001277	0.644022
C47	C	-1.049865	-0.086610	0.572076
C48	C	-1.049865	-0.086604	0.428192
C49	C	-0.936615	-0.257274	0.572062
C50	C	-0.936609	-0.257283	0.428182
C51	C	-0.879987	-0.342612	0.643998
C52	C	-0.823360	-0.427953	0.572051
C53	C	-0.823355	-0.427951	0.428163
C54	C	-0.879980	-0.342615	0.356235
H55	H	-0.563632	0.047204	-0.000009
C56	C	-0.761922	-0.520794	0.649973
C57	C	-0.776232	-0.644222	0.614954
C58	C	-0.719643	-0.729781	0.686698
H59	H	-0.769972	-0.508744	0.745987
H60	H	-0.705772	-0.507169	0.626357
H61	H	-0.832368	-0.657842	0.638580
H62	H	-0.768175	-0.656313	0.518952
H63	H	-0.663493	-0.716156	0.663082
H64	H	-0.727697	-0.717719	0.782709
H65	H	-0.729339	-0.813536	0.662939
C66	C	-0.678606	0.403720	0.000079
C67	C	-0.692681	0.535656	0.000099
C68	C	-0.615170	0.586457	0.000151
H69	H	-0.647521	0.376230	-0.079615
H70	H	-0.647568	0.376188	0.079817
H71	H	-0.723705	0.563177	-0.079631
H72	H	-0.723752	0.563181	0.079787
H73	H	-0.584132	0.558924	0.079889
H74	H	-0.584091	0.558958	-0.079544
H75	H	-0.624709	0.675979	0.000178
C76	C	-0.683398	0.130207	-0.000258
C77	C	-0.680268	0.054144	-0.117871
C78	C	-0.605016	-0.026389	-0.118213
H79	H	-0.681037	0.078374	0.079362
H80	H	-0.636829	0.179016	-0.000354
H81	H	-0.726824	0.005339	-0.117763
H82	H	-0.682615	0.105942	-0.197510
H83	H	-0.558447	0.022420	-0.118308
H84	H	-0.602662	-0.078213	-0.038588
H85	H	-0.602879	-0.077999	-0.198017
H86	H	-0.777237	-0.497435	0.369591
H87	H	-0.844597	0.060461	0.000093
C88	C	-0.543395	-0.300768	0.239775
C89	C	-0.503750	-0.424397	0.240643
C90	C	-0.528701	-0.487381	0.357636
H91	H	-0.602819	-0.302655	0.238513
H92	H	-0.527771	-0.257750	0.319819
H93	H	-0.519379	-0.467404	0.160621
H94	H	-0.444326	-0.422547	0.241927
H95	H	-0.513077	-0.444362	0.437680
H96	H	-0.588125	-0.489258	0.356363
H97	H	-0.501800	-0.571265	0.358247
H98	H	-0.449833	-0.060274	0.208063
H99	H	-0.449794	-0.060271	-0.207858
H100	H	-1.106491	-0.001274	0.239105
H101	H	-0.536542	-0.283527	-0.208076
C102	C	-1.106337	-0.001422	0.800235
C103	C	-1.044615	-0.094398	0.847835
C104	C	-1.044436	-0.094557	0.991730
H105	H	-1.160067	-0.018713	0.832963
H106	H	-1.094339	0.078835	0.832831
H107	H	-1.056619	-0.174636	0.815253
H108	H	-0.990877	-0.077127	0.815145
H109	H	-1.032437	-0.014300	1.024326
H110	H	-1.098168	-0.111846	1.024444
H111	H	-1.002553	-0.157631	1.024044
H112	H	-0.423041	-0.391241	-0.000026
H113	H	-1.209220	0.153545	0.369623
H114	H	-1.150331	0.120356	0.000194
C115	C	-1.224693	0.176771	0.649960
C116	C	-1.274294	0.251492	0.556176
C117	C	-1.331026	0.336901	0.627863
H118	H	-1.194273	0.229194	0.706095
H119	H	-1.259964	0.131590	0.706057
H120	H	-1.239028	0.296670	0.500103
H121	H	-1.304733	0.199104	0.500037
H122	H	-1.366297	0.291720	0.683959
H123	H	-1.300598	0.389315	0.683996
H124	H	-1.364692	0.387602	0.564242
H125	H	-1.286883	0.266331	0.000231
C126	C	-1.303068	0.525903	-0.000071
C127	C	-1.306212	0.601949	-0.117689
C128	C	-1.381458	0.682497	-0.117985
H129	H	-1.305409	0.577746	0.079546
H130	H	-1.349643	0.477105	-0.000130
H131	H	-1.259650	0.650742	-0.117618
H132	H	-1.303885	0.550139	-0.197325
H133	H	-1.428032	0.633699	-0.118043
H134	H	-1.383792	0.734332	-0.038362
H135	H	-1.383604	0.734095	-0.197792
H136	H	-1.141888	0.595648	0.000137
H137	H	-0.836151	0.535752	0.000045
H138	H	-0.879993	-0.342603	0.761152
H139	H	-0.879984	-0.342611	0.239081
