data_functionalizedCrystal
_audit_creation_method	'MofGen! by Chris Wilmer'
_symmetry_space_group_name_H-M	'P1'
_symmetry_Int_Tables_number	1
_symmetry_cell_setting	triclinic
loop_
_symmetry_equiv_pos_as_xyz
  x,y,z
_cell_length_a	10.654545
_cell_length_b	17.699092
_cell_length_c	9.130313
_cell_angle_alpha	89.997169
_cell_angle_beta	89.996934
_cell_angle_gamma	83.884723
loop_
_atom_site_label
_atom_site_type_symbol
_atom_site_fract_x
_atom_site_fract_y
_atom_site_fract_z
O1	O	1.665987	0.106286	-0.121779
O2	O	1.300331	0.116417	-0.121784
O3	O	1.493485	0.001228	-0.121778
O4	O	1.472834	0.221475	-0.121785
O5	O	1.493472	0.001225	0.121821
O6	O	1.300318	0.116414	0.121815
O7	O	1.665974	0.106283	0.121820
Cu8	Cu	1.483145	0.111348	0.144060
Cu9	Cu	1.483161	0.111352	-0.144024
O10	O	1.472821	0.221471	0.121814
C11	C	1.253540	0.115672	0.000014
C12	C	1.114135	0.113449	0.000012
C13	C	1.048642	0.112400	0.132799
C14	C	0.917659	0.110299	0.132799
C15	C	0.917674	0.110297	-0.132786
C16	C	1.048655	0.112394	-0.132785
C17	C	1.492736	-0.026975	0.000019
C18	C	1.490511	-0.111007	0.000012
C19	C	1.489476	-0.150479	-0.132775
C20	C	1.487377	-0.229435	-0.132777
C21	C	1.486323	-0.268919	0.000010
C22	C	1.487354	-0.229441	0.132808
C23	C	1.489444	-0.150485	0.132808
C24	C	1.478925	-0.547859	0.132810
C25	C	1.476839	-0.626820	0.132800
C26	C	1.476858	-0.626809	-0.132775
C27	C	1.478948	-0.547854	-0.132775
C28	C	1.479973	-0.508382	0.000022
C29	C	1.482246	-0.422769	0.000022
C30	C	1.484058	-0.354531	0.000012
C31	C	1.712766	0.107027	0.000018
C32	C	1.852171	0.109251	0.000011
C33	C	1.473569	0.249675	0.000013
C34	C	1.475794	0.333707	0.000011
N35	N	1.483143	0.111345	0.346682
N36	N	1.483172	0.111349	-0.346647
C37	C	1.568700	0.060361	0.423337
C38	C	1.568712	0.060361	0.576674
C39	C	1.397606	0.162336	0.576688
C40	C	1.397589	0.162331	0.423354
H41	H	1.101951	0.113260	0.240930
H42	H	1.101982	0.113245	-0.240922
H43	H	1.479812	-0.515711	-0.240904
H44	H	0.864340	0.109445	0.240927
C45	C	1.662821	0.004268	0.660987
N46	N	1.733704	-0.037986	0.724491
H47	H	1.327952	0.203849	0.639129
C48	C	1.303523	0.218455	0.339029
N49	N	1.232693	0.260738	0.275515
C50	C	0.845633	0.109142	-0.278855
N51	N	0.791372	0.108275	-0.388877
C52	C	1.490636	-0.107055	-0.278854
N53	N	1.491503	-0.074349	-0.388886
C54	C	1.486354	-0.272860	-0.278854
N55	N	1.485624	-0.305569	-0.388885
C56	C	1.475715	-0.670234	-0.278856
N57	N	1.474855	-0.702940	-0.388881
H58	H	1.475977	-0.658965	0.240937
H59	H	1.479785	-0.515733	0.240941
H60	H	1.638362	0.018843	0.360915
H61	H	1.486488	-0.261594	0.240926
H62	H	1.490270	-0.118347	0.240937
