data_functionalizedCrystal
_audit_creation_method	'MofGen! by Chris Wilmer'
_symmetry_space_group_name_H-M	'P1'
_symmetry_Int_Tables_number	1
_symmetry_cell_setting	triclinic
loop_
_symmetry_equiv_pos_as_xyz
  x,y,z
_cell_length_a	9.065218
_cell_length_b	11.026607
_cell_length_c	7.540329
_cell_angle_alpha	89.998289
_cell_angle_beta	89.996962
_cell_angle_gamma	96.800951
loop_
_atom_site_label
_atom_site_type_symbol
_atom_site_fract_x
_atom_site_fract_y
_atom_site_fract_z
O1	O	2.004900	0.178453	-0.147482
O2	O	1.579265	0.193091	-0.147484
O3	O	1.756807	0.008731	-0.147476
O4	O	1.827359	0.362813	-0.147489
O5	O	1.756792	0.008729	0.147489
O6	O	1.579251	0.193088	0.147481
O7	O	2.004886	0.178451	0.147483
Cu8	Cu	1.792067	0.185769	0.174415
Cu9	Cu	1.792084	0.185772	-0.174415
O10	O	1.827345	0.362810	0.147476
C11	C	1.523921	0.191683	-0.000002
C12	C	1.359029	0.187476	-0.000002
C13	C	1.743784	-0.036624	0.000004
C14	C	1.704984	-0.171765	-0.000003
C15	C	1.812117	-0.244393	-0.000005
C16	C	1.772018	-0.384068	-0.000011
C17	C	2.060230	0.179859	-0.000003
C18	C	2.225122	0.184065	-0.000014
C19	C	1.840368	0.408165	-0.000008
C20	C	1.879168	0.543306	-0.000013
N21	N	1.792066	0.185767	0.419763
N22	N	1.792094	0.185765	-0.419764
H23	H	1.933525	-0.203167	0.000007
C24	C	1.543006	-0.226486	-0.000099
C25	C	1.451939	-0.132413	-0.000140
C26	C	1.302714	-0.182772	-0.000255
H27	H	1.523201	-0.275484	0.102728
H28	H	1.523353	-0.275451	-0.103007
H29	H	1.471583	-0.083469	0.102757
H30	H	1.471696	-0.083408	-0.102960
H31	H	1.283061	-0.231736	-0.103162
H32	H	1.282925	-0.231769	0.102575
H33	H	1.240906	-0.118952	-0.000299
C34	C	1.610209	-0.439252	0.000071
C35	C	1.602604	-0.566817	0.000106
C36	C	1.453575	-0.617695	0.000205
H37	H	1.562191	-0.413276	-0.102760
H38	H	1.562295	-0.413222	0.102975
H39	H	1.650497	-0.592837	-0.102787
H40	H	1.650590	-0.592828	0.102930
H41	H	1.405661	-0.591665	0.103109
H42	H	1.405569	-0.591710	-0.102628
H43	H	1.448395	-0.704253	0.000245
H44	H	2.000584	-0.415476	-0.000146
