data_functionalizedCrystal
_audit_creation_method	'MofGen! by Chris Wilmer'
_symmetry_space_group_name_H-M	'P1'
_symmetry_Int_Tables_number	1
_symmetry_cell_setting	triclinic
loop_
_symmetry_equiv_pos_as_xyz
  x,y,z
_cell_length_a	12.837943
_cell_length_b	15.186229
_cell_length_c	16.109301
_cell_angle_alpha	89.994833
_cell_angle_beta	89.145210
_cell_angle_gamma	89.997745
loop_
_atom_site_label
_atom_site_type_symbol
_atom_site_fract_x
_atom_site_fract_y
_atom_site_fract_z
O1	O	1.375379	-0.073219	0.216129
O2	O	1.073577	-0.073224	0.205453
O3	O	1.232769	-0.073212	0.090419
O4	O	1.216187	-0.073230	0.331163
O5	O	1.232758	0.073245	0.090416
O6	O	1.073567	0.073234	0.205450
O7	O	1.375369	0.073238	0.216127
Zn8	Zn	1.224466	0.096489	0.210788
Zn9	Zn	1.224480	-0.096475	0.210791
O10	O	1.216177	0.073227	0.331161
C11	C	1.034953	0.000004	0.201845
C12	C	0.919879	0.000003	0.191088
N13	N	1.224464	0.228182	0.210786
N14	N	1.224490	-0.228167	0.210788
C15	C	0.678877	0.000006	0.320405
C16	C	0.570755	0.000005	0.310302
C17	C	0.595510	0.000007	0.160779
C18	C	0.703632	0.000008	0.170882
C19	C	0.745312	0.000006	0.250698
C20	C	0.853436	0.000000	0.260800
C21	C	0.878189	0.000008	0.111278
C22	C	0.770067	0.000008	0.101175
C23	C	1.413993	0.000008	0.219735
C24	C	1.529067	0.000004	0.230491
C25	C	1.232092	0.000017	0.059389
C26	C	1.230078	0.000018	-0.033066
C27	C	1.294978	0.453910	0.159869
C28	C	1.294981	0.546099	0.159868
C29	C	1.153968	0.546098	0.261706
C30	C	1.153961	0.453910	0.261703
C31	C	1.224472	0.407818	0.210786
C32	C	1.224482	0.592196	0.210787
C33	C	1.224485	0.692152	0.210786
C34	C	1.224468	0.307856	0.210786
C35	C	1.319857	0.000006	-0.248206
C36	C	1.317957	-0.000002	-0.335078
C37	C	1.129081	-0.000001	-0.330208
C38	C	1.130983	-0.000000	-0.243338
C39	C	1.226374	0.000008	-0.202340
C40	C	1.222572	-0.000001	-0.376081
C41	C	1.220511	-0.000009	-0.470271
C42	C	1.228435	0.000014	-0.108144
C43	C	1.216854	-0.000004	0.362190
C44	C	1.218868	-0.000011	0.454645
H45	H	0.712813	0.000003	0.385393
H46	H	0.516666	0.000007	0.367065
H47	H	1.051417	-0.000006	-0.363600
H48	H	1.054852	-0.000001	-0.205992
H49	H	1.096562	0.583636	0.303163
H50	H	0.932293	0.000002	0.054518
H51	H	1.352391	0.416384	0.118409
H52	H	0.561555	0.000081	0.095797
O53	O	0.725112	0.000010	0.015091
H54	H	0.638766	0.000006	0.019775
H55	H	1.394081	-0.000005	-0.372419
H56	H	1.352393	0.583625	0.118406
O57	O	0.898399	0.000010	0.346882
H58	H	0.834033	0.000022	0.393655
O59	O	1.077911	0.404182	0.316618
H60	H	1.091097	0.421851	0.382486
O61	O	1.422737	-0.000004	-0.203982
H62	H	1.487422	-0.000018	-0.250474
