data_functionalizedCrystal
_audit_creation_method	'MofGen! by Chris Wilmer'
_symmetry_space_group_name_H-M	'P1'
_symmetry_Int_Tables_number	1
_symmetry_cell_setting	triclinic
loop_
_symmetry_equiv_pos_as_xyz
  x,y,z
_cell_length_a	14.044220
_cell_length_b	17.699083
_cell_length_c	16.776229
_cell_angle_alpha	90.007545
_cell_angle_beta	89.997978
_cell_angle_gamma	91.764054
loop_
_atom_site_label
_atom_site_type_symbol
_atom_site_fract_x
_atom_site_fract_y
_atom_site_fract_z
O1	O	1.257290	-0.182444	-0.066207
O2	O	0.981336	-0.175860	-0.066227
O3	O	1.127109	-0.069500	-0.066209
O4	O	1.111516	-0.288803	-0.066224
O5	O	1.127090	-0.069492	0.066367
O6	O	0.981317	-0.175852	0.066350
O7	O	1.257271	-0.182435	0.066370
Zn8	Zn	1.119290	-0.179142	0.087409
Zn9	Zn	1.119316	-0.179153	-0.087266
O10	O	1.111497	-0.288795	0.066352
C11	C	0.946018	-0.172974	0.000059
C12	C	0.840812	-0.164378	0.000052
C13	C	1.126541	-0.041261	0.000079
C14	C	1.124865	0.042873	0.000079
N15	N	1.119280	-0.179134	0.206620
C16	C	0.648187	-0.148663	0.000069
C17	C	0.590414	-0.209629	0.000068
C18	C	0.483230	-0.200885	0.000077
C19	C	0.755381	-0.157406	0.000059
C20	C	1.292588	-0.185321	0.000082
C21	C	1.397794	-0.193917	0.000085
C22	C	1.112066	-0.317035	0.000062
C23	C	1.113742	-0.401168	0.000057
C24	C	1.210431	0.085591	0.000087
C25	C	1.208850	0.164644	0.000080
C26	C	1.121702	0.200976	0.000071
C27	C	1.036130	0.158252	0.000061
C28	C	1.037712	0.079201	0.000063
C29	C	1.029750	0.477055	0.000054
C30	C	1.028175	0.556112	0.000055
C31	C	1.200888	0.562498	0.000071
C32	C	1.202470	0.483447	0.000073
C33	C	1.116898	0.440730	0.000059
C34	C	1.118613	0.355012	0.000065
C35	C	1.119987	0.286692	0.000070
N36	N	1.119334	-0.179155	-0.206477
C37	C	1.183848	-0.132061	0.248345
C38	C	1.183853	-0.132061	0.331798
C39	C	1.119294	-0.179138	0.373523
C40	C	1.054719	-0.226214	0.331793
C41	C	1.054710	-0.226210	0.248342
C42	C	1.054754	-0.226231	0.668340
C43	C	1.054770	-0.226233	0.751796
C44	C	1.183897	-0.132082	0.751795
C45	C	1.183888	-0.132078	0.668345
C46	C	1.119310	-0.179150	0.626621
C47	C	1.119304	-0.179149	0.536133
C48	C	1.119304	-0.179144	0.464010
H49	H	0.621449	-0.268391	0.000060
H50	H	1.002174	-0.264561	0.634375
H51	H	1.002131	-0.264541	0.214370
H52	H	0.957205	0.585691	0.000050
H53	H	1.236423	-0.093728	0.214378
C54	C	0.606268	-0.069283	0.000070
C55	C	0.497513	-0.060538	0.000073
C56	C	0.455580	0.018840	0.000070
C57	C	0.522402	0.089475	0.000064
C58	C	0.631163	0.080733	0.000061
C59	C	0.673096	0.001354	0.000064
H60	H	0.448041	-0.112828	0.000077
H61	H	0.375067	0.025312	0.000072
H62	H	0.491361	0.148236	0.000062
H63	H	0.680635	0.133023	0.000057
H64	H	0.753609	-0.005117	0.000062
C65	C	1.302974	0.211634	0.000088
C66	C	1.398835	0.171671	0.000103
C67	C	1.492963	0.218662	0.000108
C68	C	1.491232	0.305615	0.000098
C69	C	1.395368	0.345582	0.000083
C70	C	1.301239	0.298592	0.000078
H71	H	1.400120	0.107299	0.000110
H72	H	1.563928	0.189074	0.000119
H73	H	1.560912	0.340400	0.000102
H74	H	1.394083	0.409955	0.000076
H75	H	1.230274	0.328179	0.000067
C76	C	0.935623	0.430073	0.000056
C77	C	0.839766	0.470040	0.000060
C78	C	0.745634	0.423054	0.000067
C79	C	0.747359	0.336100	0.000071
C80	C	0.843221	0.296128	0.000068
C81	C	0.937352	0.343115	0.000060
H82	H	0.838485	0.534412	0.000057
H83	H	0.674671	0.452644	0.000070
H84	H	0.677677	0.301318	0.000077
H85	H	0.844501	0.231756	0.000071
H86	H	1.008315	0.313525	0.000057
C87	C	1.254881	-0.080283	0.377699
C88	C	1.325923	-0.028519	0.331810
C89	C	1.396953	0.023261	0.377713
C90	C	1.396940	0.023276	0.469505
C91	C	1.325895	-0.028491	0.515400
C92	C	1.254865	-0.080270	0.469497
H93	H	1.325935	-0.028528	0.263855
H94	H	1.449545	0.061582	0.343738
H95	H	1.449520	0.061606	0.503486
H96	H	1.325883	-0.028481	0.583355
H97	H	1.202273	-0.118591	0.503471
C98	C	0.943588	0.032207	0.000056
C99	C	0.872138	0.040432	-0.068795
C100	C	0.778012	-0.006561	-0.068806
C101	C	0.755336	-0.061781	0.000033
C102	C	0.826788	-0.070008	0.068888
C103	C	0.920914	-0.023015	0.068900
H104	H	0.888922	0.081311	-0.119758
H105	H	0.725119	-0.000470	-0.119778
H106	H	0.685658	-0.096568	0.000024
H107	H	0.810004	-0.110887	0.119851
H108	H	0.973807	-0.029106	0.119871
C109	C	1.254928	-0.080293	0.797692
C110	C	1.254943	-0.080287	0.889485
C111	C	1.325975	-0.028502	0.935379
C112	C	1.396991	0.023277	0.889480
C113	C	1.396979	0.023273	0.797683
C114	C	1.325947	-0.028512	0.751789
H115	H	1.202370	-0.118619	0.923466
H116	H	1.325984	-0.028500	1.003334
H117	H	1.449573	0.061612	0.923454
H118	H	1.449552	0.061605	0.763701
H119	H	1.325938	-0.028514	0.683834
C120	C	0.983745	-0.278017	0.797697
C121	C	0.912707	-0.329793	0.751806
C122	C	0.841688	-0.381575	0.797707
C123	C	0.841706	-0.381580	0.889500
C124	C	0.912745	-0.329802	0.935396
C125	C	0.983765	-0.278021	0.889495
H126	H	0.912692	-0.329791	0.683851
H127	H	0.789100	-0.419904	0.763731
H128	H	0.789133	-0.419911	0.923478
H129	H	0.912761	-0.329804	1.003351
H130	H	1.036353	-0.239692	0.923471
C131	C	0.983702	-0.278002	0.377687
C132	C	0.983752	-0.278051	0.469479
C133	C	0.912734	-0.329843	0.515370
C134	C	0.841667	-0.381584	0.469469
C135	C	0.841615	-0.381537	0.377671
C136	C	0.912632	-0.329745	0.331780
H137	H	1.036362	-0.239748	0.503463
H138	H	0.912773	-0.329878	0.583325
H139	H	0.789096	-0.419924	0.503440
H140	H	0.789004	-0.419841	0.343688
H141	H	0.912593	-0.329710	0.263825
H142	H	1.281396	0.056016	0.000099
H143	H	1.273434	0.453869	0.000084
H144	H	1.270565	0.597288	0.000079
H145	H	1.236461	-0.093745	0.634374
H146	H	0.965173	0.187840	0.000049
