data_functionalizedCrystal
_audit_creation_method	'MofGen! by Chris Wilmer'
_symmetry_space_group_name_H-M	'P1'
_symmetry_Int_Tables_number	1
_symmetry_cell_setting	triclinic
loop_
_symmetry_equiv_pos_as_xyz
  x,y,z
_cell_length_a	10.654558
_cell_length_b	27.731993
_cell_length_c	26.210047
_cell_angle_alpha	90.009439
_cell_angle_beta	90.018588
_cell_angle_gamma	83.554309
loop_
_atom_site_label
_atom_site_type_symbol
_atom_site_fract_x
_atom_site_fract_y
_atom_site_fract_z
O1	O	0.149113	0.641885	0.042291
O2	O	0.171903	0.501230	0.042322
O3	O	-0.022368	0.574789	0.042303
O4	O	0.343384	0.568326	0.042309
O5	O	-0.022422	0.574762	-0.042555
O6	O	0.171850	0.501203	-0.042536
O7	O	0.149059	0.641858	-0.042567
Cu8	Cu	0.160450	0.571528	-0.050300
Cu9	Cu	0.160513	0.571560	0.050054
O10	O	0.343331	0.568298	-0.042549
C11	C	0.171409	0.483206	-0.000103
C12	C	0.170000	0.429541	-0.000092
C13	C	0.159818	0.046332	0.046140
C14	C	0.165188	0.248023	0.046154
O15	O	0.165857	0.274113	0.085494
N16	N	0.165831	0.273232	-0.000101
C17	C	0.165123	0.248016	-0.046363
O18	O	0.165779	0.274087	-0.085706
C19	C	0.159744	0.046327	-0.046377
C20	C	0.159114	0.021119	-0.000119
C21	C	0.159187	0.021125	0.092394
C22	C	0.157852	-0.029296	0.092390
C23	C	0.157148	-0.054508	0.046132
C24	C	0.157779	-0.029301	-0.000123
C25	C	0.159027	0.021112	-0.092638
C26	C	0.157679	-0.029313	-0.092637
C27	C	0.157049	-0.054521	-0.046379
C28	C	0.155739	-0.104933	-0.046385
N29	N	0.155096	-0.130143	-0.000130
C30	C	0.155801	-0.104930	0.046129
C31	C	0.167949	0.353906	-0.046353
C32	C	0.169296	0.404328	-0.046350
C33	C	0.169359	0.404331	0.046167
C34	C	0.168021	0.353908	0.046164
C35	C	0.167306	0.328697	-0.000098
C36	C	0.152997	-0.210816	0.046117
C37	C	0.151667	-0.261241	0.046109
C38	C	0.151597	-0.261239	-0.046408
C39	C	0.152934	-0.210819	-0.046400
C40	C	0.153630	-0.185608	-0.000134
O41	O	0.155055	-0.131053	-0.085704
O42	O	0.155115	-0.131008	0.085465
C43	C	0.161154	0.096752	0.046144
C44	C	0.161785	0.121959	-0.000111
C45	C	0.161081	0.096747	-0.046369
C46	C	0.163132	0.172382	-0.000107
C47	C	0.163836	0.197594	0.046151
C48	C	0.163194	0.172385	0.092406
C49	C	0.161858	0.121965	0.092402
C50	C	0.161723	0.121956	-0.092624
C51	C	0.163060	0.172376	-0.092616
C52	C	0.163765	0.197589	-0.046358
C53	C	-0.069172	0.574300	-0.000125
C54	C	-0.208555	0.572878	-0.000123
C55	C	-0.274069	0.572194	-0.046378
C56	C	-0.405035	0.570861	-0.046376
C57	C	-0.404960	0.570896	0.046141
C58	C	-0.273998	0.572231	0.046138
C59	C	-0.274112	0.572172	-0.099792
C60	C	-0.405078	0.570839	-0.099790
C61	C	0.390135	0.568787	-0.000119
C62	C	0.529517	0.570210	-0.000118
C63	C	0.149554	0.659882	-0.000141
C64	C	0.150963	0.713547	-0.000150
N65	N	0.160404	0.571508	-0.120884
C66	C	0.084833	0.541983	-0.526856
C67	C	0.084802	0.541962	-0.313197
O68	O	0.020448	0.516828	-0.285582
N69	N	0.160421	0.571527	-0.286468
C70	C	0.236048	0.601102	-0.313156
O71	O	0.300356	0.626252	-0.285518
C72	C	0.236071	0.601125	-0.526814
C73	C	0.160457	0.571555	-0.553540
C74	C	0.009224	0.512415	-0.553583
C75	C	0.009238	0.512419	-0.606994
C76	C	0.084861	0.541991	-0.633679
C77	C	0.160471	0.571558	-0.606952
C78	C	0.311690	0.630702	-0.553501
C79	C	0.311687	0.630707	-0.606919
C80	C	0.236072	0.601136	-0.633646
C81	C	0.236108	0.601134	-0.687048
N82	N	0.160488	0.571569	-0.713778
C83	C	0.084865	0.541997	-0.687093
C84	C	0.236032	0.601086	-0.200983
C85	C	0.236028	0.601080	-0.147569
C86	C	0.084780	0.541940	-0.147613
C87	C	0.084792	0.541945	-0.201029
C88	C	0.160412	0.571521	-0.227712
C89	C	0.084901	0.542007	-0.799261
C90	C	0.084925	0.542012	-0.852677
C91	C	0.236167	0.601153	-0.852627
C92	C	0.236148	0.601146	-0.799216
C93	C	0.160505	0.571572	-0.772534
O94	O	0.300417	0.626258	-0.714696
O95	O	0.020545	0.516859	-0.714740
C96	C	0.084820	0.541979	-0.473444
C97	C	0.160429	0.571547	-0.446718
C98	C	0.236053	0.601119	-0.473402
C99	C	0.160425	0.571541	-0.393303
C100	C	0.084802	0.541969	-0.366619
C101	C	0.009182	0.512404	-0.393348
C102	C	0.009196	0.512408	-0.446760
C103	C	0.311672	0.630684	-0.446673
C104	C	0.311653	0.630677	-0.393261
C105	C	0.236030	0.601106	-0.366576
N106	N	0.160548	0.571583	0.120638
H107	H	0.167508	0.333387	0.083831
O108	O	0.309672	0.629774	-0.121666
C109	C	0.520678	0.649339	-0.105273
C110	C	0.437426	0.616815	-0.134644
H111	H	0.623986	0.638867	-0.115746
H112	H	0.492047	0.688938	-0.115781
H113	H	0.507630	0.644269	-0.062514
H114	H	0.450431	0.621842	-0.177410
H115	H	0.466076	0.577228	-0.124094
O116	O	-0.432927	0.530068	-0.124165
C117	C	-0.405397	0.442653	-0.126450
C118	C	-0.373780	0.488785	-0.098792
H119	H	-0.357570	0.409265	-0.105953
H120	H	-0.512029	0.441529	-0.126436
H121	H	-0.369925	0.443018	-0.167464
H122	H	-0.409171	0.488452	-0.057767
H123	H	-0.267143	0.489893	-0.098848
H124	H	0.157333	-0.049815	0.130058
H125	H	-0.052387	0.488324	-0.371612
H126	H	-0.458258	0.605257	-0.116375
O127	O	0.164047	0.196927	0.137309
C128	C	0.274455	0.248730	0.191011
C129	C	0.273641	0.220965	0.140140
H130	H	0.363066	0.268164	0.193321
H131	H	0.187230	0.276498	0.193327
H132	H	0.273707	0.222051	0.224068
H133	H	0.274432	0.247607	0.107055
H134	H	0.360858	0.193190	0.137869
O135	O	0.170207	0.428873	0.091071
C136	C	0.280608	0.480673	0.144780
C137	C	0.279803	0.452909	0.093907
H138	H	0.369220	0.500105	0.147094
H139	H	0.193384	0.508442	0.147093
H140	H	0.279849	0.453994	0.177835
H141	H	0.280605	0.479552	0.060823
H142	H	0.367018	0.425133	0.091639
O143	O	0.163504	0.196921	-0.137523
C144	C	0.056074	0.258930	-0.191229
C145	C	0.055448	0.231181	-0.140351
H146	H	-0.031293	0.286628	-0.193537
H147	H	0.144546	0.278443	-0.193556
H148	H	0.055398	0.232231	-0.224279
H149	H	0.056078	0.257847	-0.107272
H150	H	-0.033017	0.211660	-0.138069
O151	O	0.161104	0.097541	-0.137607
C152	C	0.161124	0.102874	-0.229370
C153	C	0.161846	0.130581	-0.178460
H154	H	0.161697	0.129576	-0.262413
H155	H	0.248434	0.075151	-0.231720
H156	H	0.072608	0.083383	-0.231665
H157	H	0.250304	0.150101	-0.176131
H158	H	0.074477	0.158277	-0.176131
H159	H	0.023351	0.517930	-0.874436
H160	H	0.151158	-0.281762	0.083779
O161	O	0.309430	0.629885	-0.226842
C162	C	0.356941	0.711399	-0.243160
C163	C	0.273743	0.678842	-0.213837
H164	H	0.328101	0.750988	-0.232664
H165	H	0.460261	0.701003	-0.232629
H166	H	0.343997	0.706306	-0.285926
H167	H	0.286578	0.683918	-0.171064
H168	H	0.170454	0.689246	-0.224410
H169	H	-0.220663	0.572795	0.083803
O170	O	0.385168	0.659476	-0.527626
C171	C	0.535210	0.718124	-0.533242
C172	C	0.452033	0.685566	-0.562608
H173	H	0.589312	0.739219	-0.561512
H174	H	0.473002	0.744641	-0.508254
H175	H	0.604963	0.694585	-0.508215
H176	H	0.382269	0.709066	-0.587663
H177	H	0.514319	0.659047	-0.587563
H178	H	0.373240	0.654756	-0.371505
O179	O	0.011459	0.513142	-0.121713
C180	C	-0.036155	0.431637	-0.105420
C181	C	0.046990	0.464189	-0.134777
H182	H	-0.007477	0.392053	-0.115980
H183	H	-0.023156	0.436670	-0.062647
H184	H	-0.139462	0.442097	-0.115929
H185	H	0.150327	0.453750	-0.124311
H186	H	0.033883	0.459152	-0.177543
H187	H	0.023305	0.517924	-0.777543
H188	H	-0.458260	0.570369	0.083805
O189	O	0.153738	-0.186409	0.091105
C190	C	0.153616	-0.191739	0.182868
C191	C	0.152790	-0.219440	0.131957
H192	H	0.152823	-0.218431	0.215910
H193	H	0.242181	-0.172280	0.185218
H194	H	0.066356	-0.163987	0.185163
H195	H	0.239989	-0.247215	0.129627
H196	H	0.064168	-0.238865	0.129628
H197	H	-0.250752	0.606291	-0.120311
O198	O	0.384961	0.659493	-0.632861
C199	C	0.391025	0.724765	-0.693169
C200	C	0.307892	0.692208	-0.663813
H201	H	0.328752	0.751217	-0.718208
H202	H	0.445033	0.745933	-0.664910
H203	H	0.460858	0.701221	-0.718147
H204	H	0.237989	0.715717	-0.638834
H205	H	0.253973	0.671038	-0.692099
H206	H	0.169829	0.424847	-0.084018
H207	H	0.373253	0.654766	-0.468394
H208	H	0.297738	0.625218	-0.777454
O209	O	0.150688	-0.285747	-0.091328
C210	C	0.040329	-0.337594	-0.144997
C211	C	0.041198	-0.309851	-0.094114
H212	H	-0.048172	-0.357098	-0.147262
H213	H	0.040927	-0.310939	-0.178082
H214	H	0.127651	-0.365315	-0.147303
H215	H	-0.046109	-0.282131	-0.091758
H216	H	0.040664	-0.336536	-0.061053
H217	H	0.153472	-0.190295	-0.084067
O218	O	0.159930	0.045534	0.137379
C219	C	0.159798	0.040201	0.229141
C220	C	0.158972	0.012502	0.178229
H221	H	0.158998	0.013507	0.262182
H222	H	0.248367	0.059657	0.231494
H223	H	0.072543	0.067954	0.231436
H224	H	0.246167	-0.015275	0.175900
H225	H	0.070346	-0.006921	0.175898
H226	H	-0.052340	0.488341	-0.628750
H227	H	-0.220956	0.537743	-0.116357
H228	H	0.161345	0.101445	0.130070
H229	H	-0.052364	0.488334	-0.531862
O230	O	0.011145	0.513278	-0.226966
C231	C	-0.199848	0.493673	-0.243313
C232	C	-0.116589	0.526180	-0.213920
H233	H	-0.303135	0.504086	-0.232768
H234	H	-0.186977	0.498759	-0.286081
H235	H	-0.171049	0.454082	-0.232824
H236	H	-0.145336	0.565783	-0.224367
H237	H	-0.129469	0.521053	-0.171160
H238	H	0.159536	0.041628	-0.130306
O239	O	0.167323	0.329491	-0.091340
C240	C	0.167341	0.334826	-0.183103
C241	C	0.168072	0.362531	-0.132192
H242	H	0.167920	0.361528	-0.216145
H243	H	0.254644	0.307099	-0.185454
H244	H	0.078819	0.315338	-0.185397
H245	H	0.256536	0.382048	-0.129864
H246	H	0.080710	0.390230	-0.129863
H247	H	0.297741	0.625228	-0.874364
H248	H	-0.052377	0.488328	-0.468516
H249	H	0.157108	-0.049838	-0.130310
