data_functionalizedCrystal
_audit_creation_method	'MofGen! by Chris Wilmer'
_symmetry_space_group_name_H-M	'P1'
_symmetry_Int_Tables_number	1
_symmetry_cell_setting	triclinic
loop_
_symmetry_equiv_pos_as_xyz
  x,y,z
_cell_length_a	19.288840
_cell_length_b	17.766277
_cell_length_c	19.288865
_cell_angle_alpha	90.011603
_cell_angle_beta	96.868869
_cell_angle_gamma	89.983415
loop_
_atom_site_label
_atom_site_type_symbol
_atom_site_fract_x
_atom_site_fract_y
_atom_site_fract_z
O1	O	0.921364	-0.062729	-0.086566
O2	O	1.254697	0.270605	0.246767
O3	O	1.588031	0.603938	0.580101
O4	O	0.719101	-0.062704	-0.098273
O5	O	1.052434	0.270630	0.235061
O6	O	1.385768	0.603963	0.568394
O7	O	0.826077	-0.062702	0.008711
O8	O	1.159410	0.270631	0.342045
O9	O	1.492744	0.603965	0.675378
O10	O	0.814388	-0.062730	-0.193550
O11	O	1.147721	0.270603	0.139783
O12	O	1.481055	0.603936	0.473116
O13	O	0.826058	0.062487	0.008717
O14	O	1.159392	0.395820	0.342050
O15	O	1.492725	0.729153	0.675384
O16	O	0.719082	0.062485	-0.098267
O17	O	1.052416	0.395818	0.235066
O18	O	1.385749	0.729152	0.568399
O19	O	0.921345	0.062460	-0.086560
O20	O	1.254679	0.395793	0.246773
O21	O	1.588012	0.729127	0.580106
Cu22	Cu	0.820212	0.073903	-0.092413
Cu23	Cu	1.153545	0.407237	0.240920
Cu24	Cu	1.486879	0.740570	0.574253
Cu25	Cu	0.820234	-0.074147	-0.092420
Cu26	Cu	1.153568	0.259187	0.240913
Cu27	Cu	1.486901	0.592520	0.574247
O28	O	0.814369	0.062458	-0.193545
O29	O	1.147703	0.395792	0.139789
O30	O	1.481036	0.729125	0.473122
C31	C	0.693215	-0.000106	-0.097896
C32	C	1.026548	0.333227	0.235437
C33	C	1.359882	0.666561	0.568770
C34	C	0.616110	-0.000096	-0.096774
C35	C	0.949444	0.333238	0.236559
C36	C	1.282777	0.666571	0.569892
C37	C	0.579917	-0.068338	-0.096238
C38	C	0.913250	0.264996	0.237095
C39	C	1.246584	0.598329	0.570428
C40	C	0.507470	-0.068347	-0.095176
C41	C	0.840804	0.264986	0.238157
C42	C	1.174137	0.598320	0.571491
C43	C	0.471221	-0.000110	-0.094636
C44	C	0.804555	0.333223	0.238697
C45	C	1.137888	0.666557	0.572030
C46	C	0.507423	0.068141	-0.095176
C47	C	0.840756	0.401474	0.238157
C48	C	1.174089	0.734808	0.571490
C49	C	0.579867	0.068148	-0.096245
C50	C	0.913201	0.401482	0.237088
C51	C	1.246534	0.734815	0.570421
C52	C	0.361886	0.052164	-0.052256
C53	C	0.695219	0.385498	0.281077
C54	C	1.028552	0.718831	0.614410
C55	C	0.289443	0.052155	-0.051183
C56	C	0.622776	0.385488	0.282150
C57	C	0.956110	0.718821	0.615484
C58	C	0.247778	-0.000129	-0.091342
C59	C	0.581111	0.333204	0.241991
C60	C	0.914444	0.666538	0.575325
C61	C	0.278565	-0.052416	-0.132566
C62	C	0.611898	0.280918	0.200767
C63	C	0.945232	0.614251	0.534101
C64	C	0.351010	-0.052408	-0.133635
C65	C	0.684343	0.280925	0.199698
C66	C	1.017676	0.614258	0.533032
C67	C	0.392667	-0.000110	-0.093477
C68	C	0.726001	0.333223	0.239856
C69	C	1.059334	0.666557	0.573189
C70	C	0.133029	-0.068386	-0.089655
C71	C	0.466362	0.264948	0.243678
C72	C	0.799696	0.598281	0.577011
C73	C	0.060580	-0.068392	-0.088598
C74	C	0.393913	0.264941	0.244736
C75	C	0.727247	0.598275	0.578069
C76	C	0.060535	0.068098	-0.088591
C77	C	0.393868	0.401431	0.244742
C78	C	0.727202	0.734765	0.578076
C79	C	0.132982	0.068102	-0.089656
C80	C	0.466315	0.401436	0.243678
C81	C	0.799648	0.734769	0.577011
C82	C	0.169225	-0.000142	-0.090185
C83	C	0.502558	0.333192	0.243149
C84	C	0.835891	0.666525	0.576482
C85	C	0.825692	-0.000105	0.034591
C86	C	1.159025	0.333228	0.367924
C87	C	1.492358	0.666561	0.701257
C88	C	0.824563	-0.000099	0.111694
C89	C	1.157896	0.333235	0.445027
C90	C	1.491229	0.666568	0.778361
C91	C	0.947232	-0.000139	-0.086937
C92	C	1.280565	0.333194	0.246396
C93	C	1.613898	0.666527	0.579730
C94	C	1.024336	-0.000154	-0.088059
C95	C	1.357669	0.333179	0.245274
C96	C	1.691003	0.666512	0.578608
N97	N	0.820202	0.178034	-0.092409
N98	N	1.153535	0.511367	0.240925
N99	N	1.486868	0.844700	0.574258
N100	N	0.820250	-0.178277	-0.092419
N101	N	1.153584	0.155056	0.240914
N102	N	1.486917	0.488390	0.574247
C103	C	0.867586	0.217421	-0.045059
C104	C	1.200919	0.550755	0.288274
C105	C	1.534253	0.884088	0.621608
C106	C	0.867590	0.296223	-0.045056
C107	C	1.200923	0.629556	0.288278
C108	C	1.534257	0.962890	0.621611
C109	C	0.820216	0.335634	-0.092414
C110	C	1.153550	0.668967	0.240919
C111	C	1.486883	1.002301	0.574253
C112	C	0.772823	0.296237	-0.139767
C113	C	1.106157	0.629570	0.193566
C114	C	1.439490	0.962904	0.526900
C115	C	0.772816	0.217437	-0.139764
C116	C	1.106149	0.550770	0.193569
C117	C	1.439483	0.884103	0.526902
C118	C	0.810917	0.460464	-0.155703
C119	C	1.144251	0.793797	0.177631
C120	C	1.477584	1.127131	0.510964
C121	C	0.810930	0.539263	-0.155706
C122	C	1.144263	0.872596	0.177627
C123	C	1.477596	1.205929	0.510960
C124	C	0.820235	0.578680	-0.092422
C125	C	1.153568	0.912014	0.240911
C126	C	1.486901	1.245347	0.574244
C127	C	0.829543	0.539290	-0.029132
C128	C	1.162876	0.872623	0.304201
C129	C	1.496209	1.205956	0.637535
C130	C	0.829535	0.460489	-0.029129
C131	C	1.162869	0.793823	0.304204
C132	C	1.496202	1.127156	0.637537
C133	C	0.820219	0.421080	-0.092422
C134	C	1.153552	0.754413	0.240911
C135	C	1.486885	1.087746	0.574245
C136	C	0.867626	0.703514	-0.045065
C137	C	1.200959	1.036847	0.288268
C138	C	1.534293	1.370181	0.621601
C139	C	0.867625	0.782317	-0.045061
C140	C	1.200959	1.115651	0.288272
C141	C	1.534292	1.448984	0.621605
C142	C	0.772862	0.782330	-0.139779
C143	C	1.106195	1.115663	0.193555
C144	C	1.439528	1.448996	0.526888
C145	C	0.772859	0.703528	-0.139777
C146	C	1.106193	1.036861	0.193556
C147	C	1.439526	1.370195	0.526890
C148	C	0.820245	0.664125	-0.092421
C149	C	1.153578	0.997458	0.240912
C150	C	1.486912	1.330791	0.574246
C151	C	0.814755	-0.000140	-0.219424
C152	C	1.148088	0.333193	0.113909
C153	C	1.481422	0.666527	0.447243
C154	C	0.815884	-0.000152	-0.296527
C155	C	1.149217	0.333182	0.036806
C156	C	1.482551	0.666515	0.370139
C157	C	0.887331	-0.000103	0.156396
C158	C	1.220665	0.333231	0.489729
C159	C	1.553998	0.666564	0.823063
C160	C	0.886270	-0.000114	0.228843
C161	C	1.219604	0.333219	0.562176
C162	C	1.552937	0.666552	0.895510
C163	C	0.822438	-0.000107	0.256585
C164	C	1.155771	0.333226	0.589918
C165	C	1.489104	0.666560	0.923251
C166	C	0.759661	-0.000107	0.211873
C167	C	1.092994	0.333226	0.545206
C168	C	1.426327	0.666559	0.878540
C169	C	0.760723	-0.000103	0.139428
C170	C	1.094056	0.333230	0.472761
C171	C	1.427390	0.666564	0.806094
C172	C	0.772251	0.043750	0.364870
C173	C	1.105584	0.377083	0.698203
C174	C	1.438918	0.710417	1.031536
C175	C	0.771191	0.043750	0.437314
C176	C	1.104524	0.377084	0.770647
C177	C	1.437858	0.710417	1.103981
C178	C	0.819158	-0.000123	0.480030
C179	C	1.152491	0.333210	0.813363
C180	C	1.485825	0.666543	1.146697
C181	C	0.868196	-0.043988	0.450295
C182	C	1.201530	0.289345	0.783628
C183	C	1.534863	0.622679	1.116961
C184	C	0.869259	-0.043984	0.377849
C185	C	1.202592	0.289350	0.711182
C186	C	1.535926	0.622683	1.044516
C187	C	0.821278	-0.000112	0.335139
C188	C	1.154612	0.333221	0.668472
C189	C	1.487945	0.666555	1.001805
C190	C	0.880781	-0.000141	0.603288
C191	C	1.214114	0.333192	0.936621
C192	C	1.547447	0.666525	1.269955
C193	C	0.879717	-0.000158	0.675736
C194	C	1.213051	0.333176	1.009069
C195	C	1.546384	0.666509	1.342403
C196	C	0.753106	-0.000143	0.658764
C197	C	1.086439	0.333190	0.992098
C198	C	1.419772	0.666524	1.325431
C199	C	0.754171	-0.000134	0.586318
C200	C	1.087504	0.333199	0.919651
C201	C	1.420838	0.666533	1.252985
C202	C	0.818010	-0.000130	0.558584
C203	C	1.151344	0.333204	0.891918
C204	C	1.484677	0.666537	1.225251
H205	H	0.477996	-0.123920	-0.094741
H206	H	0.811329	0.209414	0.238593
H207	H	1.144662	0.542747	0.571926
F208	F	0.946528	-0.000167	0.723312
F209	F	1.279862	0.333166	1.056645
F210	F	1.613195	0.666500	1.389979
H211	H	0.609422	-0.123907	-0.096669
H212	H	0.942755	0.209426	0.236664
H213	H	1.276088	0.542759	0.569998
H214	H	0.733189	0.079481	0.330095
H215	H	1.066522	0.412815	0.663428
H216	H	1.399855	0.746148	0.996762
H217	H	0.031112	-0.123965	-0.088165
H218	H	0.364446	0.209368	0.245168
H219	H	0.697779	0.542701	0.578501
H220	H	0.609335	0.123721	-0.096683
H221	H	0.942669	0.457054	0.236651
H222	H	1.276002	0.790388	0.569984
H223	H	0.937386	-0.000121	0.265246
H224	H	1.270719	0.333213	0.598580
H225	H	1.604053	0.666546	0.931913
F226	F	0.801028	0.581178	-0.223064
F227	F	1.134361	0.914511	0.110269
F228	F	1.467695	1.247845	0.443602
H229	H	0.031021	0.123658	-0.088156
H230	H	0.364355	0.456991	0.245178
H231	H	0.697688	0.790325	0.578511
H232	H	0.376073	-0.094980	-0.167202
H233	H	0.709407	0.238353	0.166131
H234	H	1.042740	0.571687	0.499465
H235	H	0.244642	-0.094987	-0.165270
H236	H	0.577975	0.238346	0.168063
H237	H	0.911308	0.571679	0.501396
H238	H	0.939314	-0.000102	0.133820
H239	H	1.272647	0.333232	0.467154
H240	H	1.605981	0.666565	0.800487
H241	H	0.162451	0.123672	-0.090088
H242	H	0.495784	0.457006	0.243246
H243	H	0.829118	0.790339	0.576579
F244	F	0.406223	0.107817	-0.009511
F245	F	0.739556	0.441150	0.323822
F246	F	1.072889	0.774484	0.657155
F247	F	0.256682	0.107813	-0.007322
F248	F	0.590015	0.441146	0.326011
F249	F	0.923349	0.774480	0.659344
F250	F	0.722439	0.824270	-0.190177
F251	F	1.055772	1.157603	0.143157
F252	F	1.389106	1.490937	0.476490
H253	H	0.909186	-0.079701	0.353641
H254	H	1.242520	0.253632	0.686975
H255	H	1.575853	0.586965	1.020308
H256	H	0.906209	0.814387	-0.006500
H257	H	1.239542	1.147721	0.326833
H258	H	1.572876	1.481054	0.660167
F259	F	0.171603	-0.141016	-0.090224
F260	F	0.504937	0.192318	0.243110
F261	F	0.838270	0.525651	0.576443
H262	H	0.906168	0.185341	-0.006498
H263	H	1.239502	0.518675	0.326836
H264	H	1.572835	0.852008	0.660169
F265	F	0.722430	0.661605	-0.190176
F266	F	1.055763	0.994939	0.143158
F267	F	1.389096	1.328272	0.476491
F268	F	0.468843	0.140764	-0.094605
F269	F	0.802176	0.474097	0.238728
F270	F	1.135509	0.807430	0.572061
F271	F	0.948723	-0.000133	0.573769
F272	F	1.282056	0.333200	0.907103
F273	F	1.615390	0.666534	1.240436
H274	H	0.701132	-0.000141	0.681351
H275	H	1.034465	0.333193	1.014684
H276	H	1.367798	0.666526	1.348017
H277	H	0.709608	-0.000099	0.103030
H278	H	1.042941	0.333234	0.436364
H279	H	1.376274	0.666567	0.769697
H280	H	0.906177	0.328298	-0.006497
H281	H	1.239510	0.661632	0.326837
H282	H	1.572844	0.994965	0.660170
H283	H	0.837112	0.428420	0.022404
H284	H	1.170446	0.761754	0.355737
H285	H	1.503779	1.095087	0.689070
F286	F	0.719003	0.090437	0.468954
F287	F	1.052336	0.423771	0.802288
F288	F	1.385670	0.757104	1.135621
F289	F	0.839451	0.581234	0.038225
F290	F	1.172785	0.914567	0.371558
F291	F	1.506118	1.247901	0.704891
F292	F	0.918055	0.661578	0.005338
F293	F	1.251389	0.994911	0.338671
F294	F	1.584722	1.328244	0.672004
H295	H	0.803328	0.428377	-0.207239
H296	H	1.136661	0.761710	0.126094
H297	H	1.469994	1.095043	0.459427
H298	H	0.734250	0.328329	-0.178326
H299	H	1.067583	0.661663	0.155007
H300	H	1.400916	0.994996	0.488341
F301	F	0.722381	0.175516	-0.190162
F302	F	1.055715	0.508849	0.143171
F303	F	1.389048	0.842182	0.476504
H304	H	0.907256	-0.079715	0.485073
H305	H	1.240589	0.253619	0.818406
H306	H	1.573922	0.586952	1.151740
F307	F	0.691725	-0.000104	0.241399
F308	F	1.025059	0.333229	0.574732
F309	F	1.358392	0.666562	0.908065
H310	H	0.703058	-0.000127	0.549920
H311	H	1.036391	0.333207	0.883254
H312	H	1.369724	0.666540	1.216587
