data_functionalizedCrystal
_audit_creation_method	'MofGen! by Chris Wilmer'
_symmetry_space_group_name_H-M	'P1'
_symmetry_Int_Tables_number	1
_symmetry_cell_setting	triclinic
loop_
_symmetry_equiv_pos_as_xyz
  x,y,z
_cell_length_a	15.944551
_cell_length_b	27.732048
_cell_length_c	15.021413
_cell_angle_alpha	89.999048
_cell_angle_beta	89.997174
_cell_angle_gamma	83.070697
loop_
_atom_site_label
_atom_site_type_symbol
_atom_site_fract_x
_atom_site_fract_y
_atom_site_fract_z
O1	O	1.113714	0.062334	-0.073949
O2	O	0.869064	0.070020	-0.073973
O3	O	0.998987	-0.004187	-0.073943
O4	O	0.983790	0.136541	-0.073979
O5	O	0.998966	-0.004176	0.074121
O6	O	0.869043	0.070030	0.074092
O7	O	1.113693	0.062345	0.074115
Zn8	Zn	0.991365	0.066189	0.097612
Zn9	Zn	0.991392	0.066175	-0.097469
O10	O	0.983770	0.136551	0.074086
C11	C	0.837763	0.069706	0.000057
C12	C	0.744530	0.068749	0.000049
C13	C	0.530305	0.020466	0.000078
C14	C	0.469001	0.042882	-0.072931
C15	C	0.573827	0.067019	0.000060
C16	C	0.469003	0.042904	0.073049
C17	C	0.408936	0.065344	0.000074
C18	C	0.513752	0.089448	-0.073010
C19	C	0.513760	0.089463	0.073036
C20	C	0.452474	0.111912	0.000009
C21	C	0.668816	0.067983	0.000051
C22	C	0.313947	0.064384	0.000077
C23	C	0.998658	-0.022190	0.000091
C24	C	0.997697	-0.075849	0.000099
C25	C	1.068426	-0.414358	0.000060
C26	C	1.064862	-0.616033	0.000047
O27	O	1.129539	-0.647008	0.000014
N28	N	0.987823	-0.635490	0.000040
C29	C	0.911669	-0.604525	0.000031
O30	O	0.846061	-0.625703	0.000016
C31	C	0.915234	-0.402851	0.000038
C32	C	0.992278	-0.383397	0.000053
C33	C	1.145464	-0.394903	0.000074
C34	C	1.146354	-0.344487	0.000082
C35	C	1.070206	-0.313526	0.000076
C36	C	0.993168	-0.332981	0.000061
C37	C	0.839081	-0.371887	0.000022
C38	C	0.839979	-0.321466	0.000021
C39	C	0.917024	-0.302012	0.000037
C40	C	0.917911	-0.251604	0.000063
N41	N	0.994950	-0.232147	0.000069
C42	C	1.071098	-0.263108	0.000076
C43	C	0.909803	-0.710408	0.000030
C44	C	0.908912	-0.760826	0.000030
C45	C	1.062105	-0.772330	0.000044
C46	C	1.062995	-0.721911	0.000050
C47	C	0.986842	-0.690950	0.000036
C48	C	1.072961	-0.157231	0.000093
C49	C	1.073845	-0.106810	0.000105
C50	C	0.920652	-0.095310	0.000086
C51	C	0.919768	-0.145727	0.000079
C52	C	0.995930	-0.176686	0.000080
O53	O	0.853269	-0.220600	0.000085
O54	O	1.136697	-0.241921	0.000071
C55	C	1.067536	-0.464774	0.000052
C56	C	0.990498	-0.484228	0.000037
C57	C	0.914350	-0.453268	0.000031
C58	C	0.989607	-0.534647	0.000037
C59	C	1.065754	-0.565608	0.000044
C60	C	1.142794	-0.546150	0.000050
C61	C	1.143684	-0.495734	0.000058
C62	C	0.837311	-0.472725	0.000024
C63	C	0.836427	-0.523141	0.000017
C64	C	0.912575	-0.554102	0.000023
C65	C	1.144993	0.062658	0.000084
C66	C	1.238227	0.063615	0.000086
C67	C	0.984099	0.154554	0.000049
C68	C	0.985059	0.208213	0.000036
N69	N	0.991352	0.066198	0.230749
N70	N	0.991411	0.066162	-0.230607
C71	C	0.931267	0.100495	0.470419
C72	C	1.007044	0.109879	0.529758
C73	C	0.991374	0.066186	0.412356
C74	C	0.915617	0.056813	0.529759
C75	C	0.991388	0.066176	0.587780
C76	C	1.067190	0.075592	0.470389
C77	C	0.975712	0.022507	0.470385
C78	C	1.051545	0.031872	0.529697
C79	C	0.991365	0.066194	0.311299
C80	C	0.991406	0.066168	0.688836
H81	H	0.449166	0.023209	0.134770
H82	H	0.776344	-0.387718	0.000004
H83	H	1.204796	-0.571368	0.000059
C84	C	1.120291	-0.007331	0.564651
C85	C	1.095667	-0.048958	0.623268
C86	C	1.164415	-0.088158	0.658226
C87	C	1.257787	-0.085732	0.634566
C88	C	1.282415	-0.044104	0.575945
C89	C	1.213667	-0.004903	0.540987
H90	H	1.026544	-0.050756	0.640786
H91	H	1.146183	-0.118975	0.701621
H92	H	1.308678	-0.114750	0.660443
H93	H	1.351538	-0.042306	0.558427
H94	H	1.231899	0.025913	0.497592
H95	H	0.449157	0.023188	-0.134645
C96	C	0.540411	0.116015	-0.156495
C97	C	0.634147	0.121807	-0.171951
C98	C	0.660809	0.148371	-0.255437
C99	C	0.593734	0.169143	-0.323467
C100	C	0.499991	0.163352	-0.308013
C101	C	0.473329	0.136788	-0.224527
H102	H	0.683806	0.106429	-0.121589
H103	H	0.730204	0.152657	-0.266876
H104	H	0.613470	0.188807	-0.385269
H105	H	0.450332	0.178730	-0.358375
H106	H	0.403934	0.132502	-0.213088
H107	H	0.880487	0.129533	0.444392
C108	C	0.575990	-0.031733	-0.000002
C109	C	0.635460	-0.049293	0.077246
C110	C	0.681146	-0.101491	0.077162
C111	C	0.667362	-0.136129	-0.000170
C112	C	0.607890	-0.118569	-0.077423
C113	C	0.562204	-0.066371	-0.077339
H114	H	0.645665	-0.023652	0.134497
H115	H	0.725171	-0.114489	0.134351
H116	H	0.701182	-0.174768	-0.000232
H117	H	0.597684	-0.144211	-0.134674
H118	H	0.518178	-0.053373	-0.134528
C119	C	1.024947	0.159771	0.565018
C120	C	1.103036	0.163741	0.623655
C121	C	1.120926	0.213633	0.658921
C122	C	1.060727	0.259554	0.635550
C123	C	0.982633	0.255585	0.576910
C124	C	0.964743	0.205694	0.541644
H125	H	1.147603	0.129746	0.640958
H126	H	1.178737	0.216571	0.702330
H127	H	1.073971	0.296487	0.661656
H128	H	0.938066	0.289580	0.559607
H129	H	0.906932	0.202756	0.498235
H130	H	1.134979	-0.182432	0.000090
H131	H	0.773684	-0.538976	0.000012
H132	H	0.775301	-0.447521	0.000017
C133	C	0.756208	-0.287410	0.000009
C134	C	0.692909	-0.289596	-0.076887
C135	C	0.609139	-0.255541	-0.076898
C136	C	0.588667	-0.219299	-0.000012
C137	C	0.651967	-0.217112	0.076890
C138	C	0.735737	-0.251167	0.076900
H139	H	0.708063	-0.316426	-0.133808
H140	H	0.562281	-0.257161	-0.133826
H141	H	0.526655	-0.194090	-0.000019
H142	H	0.636813	-0.190282	0.133810
H143	H	0.782595	-0.249547	0.133828
H144	H	0.418809	0.150587	-0.000042
H145	H	0.851544	0.048890	0.555840
H146	H	0.533625	0.109141	0.134753
H147	H	1.136586	-0.090973	0.000120
H148	H	1.209091	-0.328652	0.000091
H149	H	1.207476	-0.420107	0.000076
H150	H	1.125732	-0.706075	0.000062
C151	C	0.826026	-0.676356	0.000026
C152	C	0.762717	-0.678548	-0.076858
C153	C	0.678940	-0.644499	-0.076855
C154	C	0.658471	-0.608258	0.000033
C155	C	0.721781	-0.606065	0.076923
C156	C	0.805559	-0.640114	0.076920
H157	H	0.777868	-0.705376	-0.133780
H158	H	0.632073	-0.646123	-0.133774
H159	H	0.596454	-0.583054	0.000036
H160	H	0.706630	-0.579236	0.133845
H161	H	0.852425	-0.638490	0.133839
C162	C	1.145870	-0.806392	0.000045
C163	C	1.166315	-0.842640	0.076926
C164	C	1.250075	-0.876705	0.076919
C165	C	1.313390	-0.874521	0.000032
C166	C	1.292947	-0.838272	-0.076855
C167	C	1.209187	-0.804207	-0.076848
H168	H	1.119443	-0.844258	0.133847
H169	H	1.265208	-0.903539	0.133836
H170	H	1.375394	-0.899738	0.000027
H171	H	1.339818	-0.836654	-0.133777
H172	H	1.194054	-0.777373	-0.133765
H173	H	1.131275	0.083560	0.444419
C174	C	0.836894	-0.061246	0.000072
C175	C	0.773600	-0.063427	-0.076830
C176	C	0.689842	-0.029362	-0.076853
C177	C	0.669377	0.006886	0.000025
C178	C	0.732672	0.009068	0.076933
C179	C	0.816430	-0.024998	0.076956
H180	H	0.788748	-0.090261	-0.133745
H181	H	0.642987	-0.030978	-0.133786
H182	H	0.607374	0.032103	0.000008
H183	H	0.717524	0.035902	0.133848
H184	H	0.863285	-0.023382	0.133889
C185	C	0.957769	-0.027372	0.435116
C186	C	1.017058	-0.073429	0.459822
C187	C	0.999104	-0.123307	0.424551
C188	C	0.921860	-0.127130	0.364575
C189	C	0.862566	-0.081072	0.339867
C190	C	0.880521	-0.031194	0.375137
H191	H	1.074243	-0.070600	0.504222
H192	H	1.042998	-0.157402	0.442843
H193	H	0.908569	-0.164053	0.338466
H194	H	0.805381	-0.083901	0.295466
H195	H	0.836627	0.002901	0.356846
H196	H	0.846175	-0.776661	0.000032
H197	H	0.857033	-0.161567	0.000091
C198	C	1.228435	-0.474340	0.000066
C199	C	1.291494	-0.486027	0.076954
C200	C	1.376251	-0.464637	0.076959
C201	C	1.397948	-0.431559	0.000076
C202	C	1.334887	-0.419870	-0.076817
C203	C	1.250131	-0.441261	-0.076822
H204	H	1.275434	-0.510514	0.133872
H205	H	1.422932	-0.473290	0.133881
H206	H	1.460690	-0.415725	0.000080
H207	H	1.350948	-0.395383	-0.133736
H208	H	1.203449	-0.432608	-0.133744
