data_functionalizedCrystal
_audit_creation_method	'MofGen! by Chris Wilmer'
_symmetry_space_group_name_H-M	'P1'
_symmetry_Int_Tables_number	1
_symmetry_cell_setting	triclinic
loop_
_symmetry_equiv_pos_as_xyz
  x,y,z
_cell_length_a	16.625548
_cell_length_b	18.101397
_cell_length_c	16.625539
_cell_angle_alpha	89.970842
_cell_angle_beta	89.979432
_cell_angle_gamma	90.020834
loop_
_atom_site_label
_atom_site_type_symbol
_atom_site_fract_x
_atom_site_fract_y
_atom_site_fract_z
Zn1	Zn	1.232696	-0.294807	-0.455905
Zn2	Zn	1.232605	-0.418656	-0.321070
Zn3	Zn	1.097857	-0.294835	-0.321085
Zn4	Zn	1.097834	-0.418614	-0.455860
O5	O	1.165248	-0.356728	-0.388480
O6	O	1.345516	-0.311242	-0.438031
O7	O	1.214702	-0.402261	-0.208239
O8	O	1.115792	-0.191199	-0.338994
O9	O	1.345450	-0.402233	-0.338968
O10	O	1.214857	-0.191178	-0.438046
O11	O	1.115704	-0.311290	-0.208251
O12	O	0.985022	-0.311249	-0.338951
O13	O	1.115752	-0.402161	-0.568698
O14	O	0.985005	-0.402188	-0.437969
O15	O	1.214834	-0.311201	-0.568731
O16	O	1.214680	-0.522283	-0.338925
O17	O	1.115664	-0.522252	-0.437954
C18	C	0.955757	-0.356717	-0.388457
C19	C	0.866136	-0.356731	-0.388467
C20	C	1.165182	-0.549139	-0.388451
C21	C	1.165227	-0.631453	-0.388465
C22	C	0.537960	-0.356736	-0.388501
C23	C	0.629269	-0.356732	-0.388489
C24	C	0.702045	-0.356734	-0.388483
C25	C	0.793360	-0.356729	-0.388472
C26	C	1.165276	-0.782161	-0.388492
C27	C	1.227635	-0.813503	-0.326246
C28	C	1.227480	-0.899122	-0.326017
C29	C	1.165326	-0.930544	-0.388519
C30	C	1.080290	-0.899529	-0.365648
C31	C	1.080622	-0.813884	-0.365180
C32	C	1.187220	-0.813654	-0.473773
C33	C	1.189123	-0.899303	-0.473334
C34	C	1.165348	-1.014403	-0.388536
C35	C	1.165247	-0.698302	-0.388474
C36	C	1.375557	-0.356739	-0.388503
C37	C	1.465178	-0.356744	-0.388513
C38	C	1.165301	-0.356673	-0.598789
C39	C	1.165323	-0.356649	-0.688410
C40	C	1.165337	-0.163566	-0.388527
C41	C	1.165375	-0.081252	-0.388547
C42	C	1.165360	-0.356566	-1.016586
C43	C	1.165347	-0.356592	-0.925277
C44	C	1.165342	-0.356609	-0.852501
C45	C	1.165328	-0.356633	-0.761186
C46	C	1.165242	-0.356730	-0.178989
C47	C	1.165376	-0.356544	-0.089368
H48	H	1.290529	-0.920089	-0.340304
H49	H	1.032575	-0.919884	-0.409599
H50	H	1.032566	-0.793153	-0.408558
Br51	Br	1.293421	-0.933088	-0.502096
H52	H	1.147049	-0.920689	-0.522187
Br53	Br	1.111536	-0.779854	-0.551074
Br54	Br	1.333031	-0.779099	-0.349774
Br55	Br	1.203698	-0.777722	-0.221524
H56	H	1.212953	-0.919664	-0.262836
Br57	Br	1.048826	-0.935369	-0.262909
Br58	Br	1.288796	-0.777577	-0.508509
Br59	Br	1.049668	-0.780678	-0.261292
