data_functionalizedCrystal
_audit_creation_method	'MofGen! by Chris Wilmer'
_symmetry_space_group_name_H-M	'P1'
_symmetry_Int_Tables_number	1
_symmetry_cell_setting	triclinic
loop_
_symmetry_equiv_pos_as_xyz
  x,y,z
_cell_length_a	16.109301
_cell_length_b	10.489741
_cell_length_c	15.186229
_cell_angle_alpha	89.996534
_cell_angle_beta	89.999362
_cell_angle_gamma	84.000327
loop_
_atom_site_label
_atom_site_type_symbol
_atom_site_fract_x
_atom_site_fract_y
_atom_site_fract_z
O1	O	1.104141	0.163947	-0.073172
O2	O	0.862205	0.184350	-0.073186
O3	O	0.988678	-0.011529	-0.073174
O4	O	0.977668	0.359826	-0.073185
O5	O	0.988670	-0.011532	0.073284
O6	O	0.862196	0.184347	0.073271
O7	O	1.104133	0.163944	0.073285
Zn8	Zn	0.983163	0.174145	0.096531
Zn9	Zn	0.983174	0.174149	-0.096433
O10	O	0.977659	0.359823	0.073272
C11	C	0.831221	0.183522	0.000041
C12	C	0.738910	0.181044	0.000035
C13	C	0.517319	0.291514	0.000042
C14	C	0.430584	0.289175	0.000048
C15	C	0.449026	0.056771	0.000051
C16	C	0.535759	0.059111	0.000052
C17	C	0.569903	0.176486	0.000043
C18	C	0.396435	0.171808	0.000048
C19	C	0.302393	0.169272	0.000054
C20	C	0.663950	0.179022	0.000038
C21	C	0.987842	-0.059050	0.000054
C22	C	0.985354	-0.200644	0.000053
C23	C	0.904883	-0.267616	0.000042
C24	C	0.942893	-0.360292	0.072255
C25	C	0.942920	-0.360264	-0.072141
C26	C	1.023397	-0.291454	0.072325
C27	C	1.023413	-0.291417	-0.072135
C28	C	1.061482	-0.384066	0.000096
C29	C	1.135117	0.164772	0.000056
C30	C	1.227427	0.167250	0.000056
C31	C	0.978495	0.407344	0.000042
C32	C	0.980983	0.548938	0.000038
N33	N	0.983162	0.174142	0.228224
N34	N	0.983183	0.174142	-0.228125
C35	C	1.039183	0.087436	0.453952
C36	C	1.039186	0.087433	0.546142
C37	C	0.927155	0.260852	0.546140
C38	C	0.927149	0.260848	0.453952
C39	C	0.983168	0.174141	0.407860
C40	C	0.983176	0.174142	0.592238
C41	C	0.983179	0.174140	0.692194
C42	C	0.983165	0.174142	0.307898
H43	H	0.387773	0.382843	0.000049
H44	H	0.908865	-0.390732	-0.133197
C45	C	1.069378	-0.250127	-0.154607
C46	C	1.035612	-0.276798	-0.246922
C47	C	1.081568	-0.235503	-0.329402
C48	C	1.161291	-0.167538	-0.319568
C49	C	1.195062	-0.140864	-0.227249
C50	C	1.149105	-0.182159	-0.144769
H51	H	0.976592	-0.327113	-0.254205
H52	H	1.056569	-0.255250	-0.397742
H53	H	1.195311	-0.136970	-0.380625
H54	H	1.254082	-0.090549	-0.219966
H55	H	1.174105	-0.162412	-0.076429
C56	C	1.100796	-0.007949	0.403251
C57	C	1.067724	-0.105511	0.339883
C58	C	1.129336	-0.200902	0.289185
C59	C	1.224021	-0.198730	0.301856
C60	C	1.257099	-0.101164	0.365227
C61	C	1.195486	-0.005774	0.415925
H62	H	0.997628	-0.107122	0.330501
H63	H	1.104850	-0.273127	0.242273
H64	H	1.269631	-0.269344	0.264326
H65	H	1.327195	-0.099554	0.374609
H66	H	1.219973	0.066451	0.462836
H67	H	0.578575	-0.034565	0.000055
H68	H	0.421215	-0.038791	0.000064
H69	H	1.127704	-0.434450	0.000140
C70	C	0.865542	0.356237	0.596841
C71	C	0.865590	0.356322	0.698244
C72	C	0.803977	0.451713	0.748942
C73	C	0.742317	0.547018	0.698237
C74	C	0.742266	0.546936	0.596828
C75	C	0.803879	0.451546	0.546130
H76	H	0.911237	0.285768	0.735784
H77	H	0.804015	0.451773	0.824012
H78	H	0.696707	0.617632	0.735766
H79	H	0.696619	0.617490	0.559288
H80	H	0.803841	0.451486	0.471060
H81	H	1.057413	-0.261117	0.133445
C82	C	0.896894	-0.401535	0.154723
C83	C	0.805142	-0.349566	0.170582
C84	C	0.759137	-0.390805	0.253047
C85	C	0.804884	-0.484012	0.319652
C86	C	0.896641	-0.535986	0.303795
C87	C	0.942645	-0.494748	0.221330
H88	H	0.771273	-0.280564	0.121276
H89	H	0.691213	-0.352329	0.264785
H90	H	0.770828	-0.514539	0.380697
H91	H	0.930509	-0.604989	0.353101
H92	H	1.010570	-0.533223	0.209592
H93	H	0.545116	0.387088	0.000042
H94	H	0.838720	-0.217005	0.000110
H95	H	1.084798	0.016828	0.583667
H96	H	0.881530	0.331455	0.416421
