data_functionalizedCrystal
_audit_creation_method	'MofGen! by Chris Wilmer'
_symmetry_space_group_name_H-M	'P1'
_symmetry_Int_Tables_number	1
_symmetry_cell_setting	triclinic
loop_
_symmetry_equiv_pos_as_xyz
  x,y,z
_cell_length_a	23.532407
_cell_length_b	23.532407
_cell_length_c	8.140239
_cell_angle_alpha	90.008156
_cell_angle_beta	89.997376
_cell_angle_gamma	82.848678
loop_
_atom_site_label
_atom_site_type_symbol
_atom_site_fract_x
_atom_site_fract_y
_atom_site_fract_z
O1	O	0.755258	0.069134	0.136425
O2	O	1.255258	0.569134	0.636425
O3	O	0.589395	0.079137	0.136476
O4	O	1.089395	0.579137	0.636476
O5	O	0.677328	-0.008796	0.136419
O6	O	1.177328	0.491204	0.636419
O7	O	0.667325	0.157067	0.136482
O8	O	1.167325	0.657067	0.636482
O9	O	0.677323	-0.008797	-0.136808
O10	O	1.177323	0.491203	0.363192
O11	O	0.589390	0.079136	-0.136752
O12	O	1.089390	0.579136	0.363248
O13	O	0.755253	0.069133	-0.136802
O14	O	1.255253	0.569133	0.363198
Zn15	Zn	0.672321	0.074134	-0.180158
Zn16	Zn	1.172321	0.574134	0.319842
Zn17	Zn	0.672327	0.074136	0.179831
Zn18	Zn	1.172327	0.574136	0.679831
O19	O	0.667320	0.157066	-0.136745
O20	O	1.167320	0.657066	0.363255
C21	C	0.568176	0.078882	-0.000132
C22	C	1.068176	0.578882	0.499868
C23	C	0.504959	0.078116	-0.000114
C24	C	1.004959	0.578116	0.499886
C25	C	0.677071	-0.030013	-0.000199
C26	C	1.177071	0.469987	0.499801
C27	C	0.676305	-0.093230	-0.000211
C28	C	1.176305	0.406770	0.499789
C29	C	0.105856	0.125350	-0.000170
C30	C	0.605856	0.625350	0.499830
C31	C	0.046456	0.124638	-0.000181
C32	C	0.546456	0.624638	0.499819
O33	O	0.009711	0.168424	-0.000224
O34	O	0.509711	0.668424	0.499776
N35	N	0.023830	0.072362	-0.000198
N36	N	0.523830	0.572362	0.499802
C37	C	0.060607	0.020794	-0.000221
C38	C	0.560607	0.520794	0.499779
O39	O	0.035908	-0.023737	-0.000239
O40	O	0.535908	0.476263	0.499761
C41	C	0.120006	0.021506	-0.000223
C42	C	0.620006	0.521506	0.499777
C43	C	0.142629	0.073785	-0.000189
C44	C	0.642629	0.573785	0.499811
C45	C	0.128479	0.177625	-0.000138
C46	C	0.628479	0.677625	0.499862
C47	C	0.187876	0.178336	-0.000125
C48	C	0.687876	0.678336	0.499875
C49	C	0.224649	0.126772	-0.000144
C50	C	0.724649	0.626772	0.499856
C51	C	0.202025	0.074496	-0.000176
C52	C	0.702025	0.574496	0.499824
C53	C	0.156783	-0.030062	-0.000258
C54	C	0.656783	0.469938	0.499742
C55	C	0.216185	-0.029345	-0.000261
C56	C	0.716185	0.470655	0.499739
C57	C	0.238808	0.022934	-0.000227
C58	C	0.738808	0.522934	0.499773
C59	C	0.298194	0.023643	-0.000181
C60	C	0.798194	0.523643	0.499819
N61	N	0.320820	0.075920	-0.000164
N62	N	0.820820	0.575920	0.499836
C63	C	0.284048	0.127484	-0.000145
C64	C	0.784048	0.627484	0.499855
C65	C	-0.064135	0.019302	-0.000221
C66	C	0.435865	0.519302	0.499779
C67	C	-0.123533	0.018589	-0.000208
C68	C	0.376467	0.518589	0.499792
C69	C	-0.137680	0.122434	-0.000170
C70	C	0.362320	0.622434	0.499830
C71	C	-0.078281	0.123146	-0.000172
C72	C	0.421719	0.623146	0.499828
C73	C	-0.041509	0.071578	-0.000204
C74	C	0.458491	0.571578	0.499796
C75	C	0.408784	0.128974	-0.000116
C76	C	0.908784	0.628974	0.499884
C77	C	0.468186	0.129680	-0.000095
C78	C	0.968186	0.629680	0.499905
C79	C	0.482329	0.025836	-0.000142
C80	C	0.982329	0.525836	0.499858
C81	C	0.422932	0.025129	-0.000153
C82	C	0.922932	0.525129	0.499847
C83	C	0.386160	0.076702	-0.000146
C84	C	0.886160	0.576702	0.499854
O85	O	0.334974	-0.020119	-0.000145
O86	O	0.834974	0.479881	0.499855
O87	O	0.308755	0.172007	-0.000150
O88	O	0.808755	0.672007	0.499850
C89	C	0.723539	-0.492333	-0.000136
C90	C	1.223539	0.007667	0.499864
C91	C	0.722827	-0.551733	-0.000123
C92	C	1.222827	-0.051733	0.499877
O93	O	0.766613	-0.588478	-0.000076
O94	O	1.266613	-0.088478	0.499924
N95	N	0.670551	-0.574359	-0.000108
N96	N	1.170551	-0.074359	0.499892
C97	C	0.618983	-0.537582	-0.000090
C98	C	1.118983	-0.037582	0.499910
O99	O	0.574452	-0.562281	-0.000074
O100	O	1.074452	-0.062281	0.499926
C101	C	0.619695	-0.478182	-0.000091
C102	C	1.119695	0.021818	0.499909
C103	C	0.671974	-0.455560	-0.000122
C104	C	1.171974	0.044440	0.499878
C105	C	0.775814	-0.469710	-0.000165
C106	C	1.275814	0.030290	0.499835
C107	C	0.776525	-0.410313	-0.000181
C108	C	1.276525	0.089687	0.499819
C109	C	0.724961	-0.373540	-0.000167
C110	C	1.224961	0.126460	0.499833
C111	C	0.672685	-0.396164	-0.000138
C112	C	1.172685	0.103836	0.499862
C113	C	0.568127	-0.441406	-0.000060
C114	C	1.068127	0.058594	0.499940
C115	C	0.568844	-0.382004	-0.000060
C116	C	1.068844	0.117996	0.499940
C117	C	0.621123	-0.359381	-0.000091
C118	C	1.121123	0.140619	0.499909
C119	C	0.621832	-0.299995	-0.000140
C120	C	1.121832	0.200005	0.499860
N121	N	0.674109	-0.277368	-0.000154
N122	N	1.174109	0.222632	0.499846
C123	C	0.725673	-0.314141	-0.000168
C124	C	1.225673	0.185859	0.499832
C125	C	0.617491	-0.662324	-0.000085
C126	C	1.117491	-0.162324	0.499915
C127	C	0.616778	-0.721722	-0.000096
C128	C	1.116778	-0.221722	0.499904
C129	C	0.720623	-0.735869	-0.000126
C130	C	1.220623	-0.235869	0.499874
C131	C	0.721335	-0.676470	-0.000127
C132	C	1.221335	-0.176470	0.499873
C133	C	0.669767	-0.639698	-0.000100
C134	C	1.169767	-0.139698	0.499900
C135	C	0.727163	-0.189405	-0.000203
C136	C	1.227163	0.310595	0.499797
C137	C	0.727869	-0.130003	-0.000225
C138	C	1.227869	0.369997	0.499775
C139	C	0.624025	-0.115860	-0.000186
C140	C	1.124025	0.384140	0.499814
C141	C	0.623318	-0.175257	-0.000172
C142	C	1.123318	0.324743	0.499828
C143	C	0.674891	-0.212029	-0.000175
C144	C	1.174891	0.287971	0.499825
O145	O	0.578070	-0.263215	-0.000180
O146	O	1.078070	0.236785	0.499820
O147	O	0.770196	-0.289433	-0.000162
O148	O	1.270196	0.210567	0.499838
C149	C	0.776472	0.069388	-0.000191
C150	C	1.276472	0.569388	0.499809
C151	C	0.839689	0.070154	-0.000198
C152	C	1.339689	0.570154	0.499802
C153	C	0.667577	0.178283	-0.000124
C154	C	1.167577	0.678283	0.499876
C155	C	0.668343	0.241500	-0.000101
C156	C	1.168343	0.741500	0.499899
N157	N	0.672321	0.074133	-0.425840
N158	N	1.172321	0.574133	0.074160
N159	N	0.672332	0.074132	0.425514
N160	N	1.172332	0.574132	0.925514
H161	H	0.486602	0.172255	-0.000067
H162	H	0.986602	0.672255	0.499933
H163	H	0.769159	-0.219337	-0.000199
H164	H	1.269159	0.280663	0.499801
O165	O	0.398530	-0.031258	-0.000179
O166	O	0.898530	0.468742	0.499821
H167	H	0.371812	-0.034063	-0.111553
H168	H	0.871812	0.465937	0.388447
O169	O	-0.147932	-0.037797	-0.000241
O170	O	0.352068	0.462203	0.499759
H171	H	-0.112376	-0.073530	-0.000268
H172	H	0.387624	0.426470	0.499732
O173	O	0.568412	-0.076190	-0.000166
O174	O	1.068412	0.423810	0.499834
H175	H	0.543374	-0.084197	-0.111521
H176	H	1.043374	0.415803	0.388479
H177	H	0.819097	-0.391900	-0.000200
H178	H	1.319097	0.108100	0.499800
H179	H	0.206289	0.220908	-0.000097
H180	H	0.706289	0.720908	0.499903
H181	H	0.762610	-0.765821	-0.000131
H182	H	1.262610	-0.265821	0.499869
O183	O	0.255847	-0.084967	-0.000307
O184	O	0.755847	0.415033	0.499693
H185	H	0.283249	-0.087131	0.111050
H186	H	0.783249	0.412869	0.611050
H187	H	0.817806	-0.499645	-0.000171
H188	H	1.317806	0.000355	0.499829
H189	H	0.770443	-0.111587	-0.000255
H190	H	1.270443	0.388413	0.499745
H191	H	0.098544	0.219617	-0.000129
H192	H	0.598544	0.719617	0.499871
H193	H	0.575496	-0.632386	-0.000077
H194	H	1.075496	-0.132386	0.499923
O195	O	0.777721	-0.652071	-0.000130
O196	O	1.277721	-0.152071	0.499870
H197	H	0.813454	-0.687626	-0.000126
H198	H	1.313454	-0.187626	0.499874
H199	H	0.580748	-0.193677	-0.000192
H200	H	1.080748	0.306323	0.499808
O201	O	-0.024473	-0.036321	-0.000232
O202	O	0.475527	0.463679	0.499768
H203	H	-0.050191	-0.072787	-0.000230
H204	H	0.449809	0.427213	0.499770
H205	H	0.138375	-0.072634	-0.000287
H206	H	0.638375	0.427366	0.499713
O207	O	0.560392	-0.746121	-0.000083
O208	O	1.060392	-0.246121	0.499917
H209	H	0.524659	-0.710565	-0.000067
H210	H	1.024659	-0.210565	0.499933
H211	H	0.525555	-0.459814	-0.000024
H212	H	1.025555	0.040186	0.499976
H213	H	0.526850	-0.352066	-0.000035
H214	H	1.026850	0.147934	0.499965
O215	O	0.521999	-0.029777	-0.000187
O216	O	1.021999	0.470223	0.499813
H217	H	0.549404	-0.031937	0.111163
H218	H	1.049404	0.468063	0.611163
O219	O	0.369128	0.184597	-0.000093
O220	O	0.869128	0.684597	0.499907
H221	H	0.394847	0.221063	-0.000053
H222	H	0.894847	0.721063	0.499947
H223	H	-0.059867	0.165717	-0.000154
H224	H	0.440133	0.665717	0.499846
O225	O	-0.177348	0.178054	-0.000178
O226	O	0.322652	0.678054	0.499822
H227	H	-0.222451	0.168771	-0.000206
H228	H	0.277549	0.668771	0.499794
