data_functionalizedCrystal
_audit_creation_method	'MofGen! by Chris Wilmer'
_symmetry_space_group_name_H-M	'P1'
_symmetry_Int_Tables_number	1
_symmetry_cell_setting	triclinic
loop_
_symmetry_equiv_pos_as_xyz
  x,y,z
_cell_length_a	10.540539
_cell_length_b	16.109301
_cell_length_c	14.586319
_cell_angle_alpha	90.000787
_cell_angle_beta	89.998343
_cell_angle_gamma	96.006514
loop_
_atom_site_label
_atom_site_type_symbol
_atom_site_fract_x
_atom_site_fract_y
_atom_site_fract_z
O1	O	0.163159	-1.104129	-0.076178
O2	O	0.183464	-0.862191	-0.076192
O3	O	-0.011474	-0.988679	-0.076184
O4	O	0.358096	-0.977640	-0.076186
O5	O	-0.011477	-0.988670	0.076297
O6	O	0.183461	-0.862182	0.076289
O7	O	0.163156	-1.104120	0.076303
Cu8	Cu	0.173308	-0.983150	0.090219
Cu9	Cu	0.173312	-0.983160	-0.090108
O10	O	0.358094	-0.977631	0.076294
C11	C	0.182640	-0.831206	0.000047
C12	C	0.180174	-0.738896	0.000041
C13	C	0.163980	-1.135104	0.000062
C14	C	0.166446	-1.227414	0.000062
C15	C	-0.058767	-0.987847	0.000055
C16	C	-0.199679	-0.985370	0.000050
C17	C	-0.381753	-0.890460	-0.000298
C18	C	-0.235171	-0.892971	0.000046
C19	C	-0.261973	-1.029832	0.087127
C20	C	-0.408472	-1.026678	0.087200
C21	C	-0.409014	-1.028567	-0.086199
C22	C	-0.262044	-1.029419	-0.087350
C23	C	0.405386	-0.978463	0.000054
C24	C	0.546299	-0.980940	0.000053
N25	N	0.173305	-0.983149	0.217050
C26	C	0.290112	-0.517296	0.000051
C27	C	0.287785	-0.430561	0.000057
C28	C	0.056499	-0.449021	0.000055
C29	C	0.058827	-0.535754	0.000055
C30	C	0.175637	-0.569889	0.000049
C31	C	0.170982	-0.396421	0.000054
C32	C	0.168459	-0.302380	0.000060
C33	C	0.178162	-0.663936	0.000044
N34	N	0.173305	-0.983168	-0.216939
C35	C	0.087015	-1.039177	0.452060
C36	C	0.087012	-1.039179	0.548042
C37	C	0.259598	-0.927134	0.548044
C38	C	0.259594	-0.927129	0.452064
C39	C	0.173304	-0.983154	0.404075
C40	C	0.173305	-0.983163	0.596036
C41	C	0.173303	-0.983165	0.700103
C42	C	0.173305	-0.983151	0.300001
H43	H	-0.409832	-0.853964	-0.062742
H44	H	0.381003	-0.387743	0.000060
H45	H	0.329855	-0.881520	0.587126
H46	H	-0.038605	-0.421218	0.000066
C47	C	-0.421843	-0.841347	0.083584
H48	H	-0.482234	-0.875745	0.118819
H49	H	-0.459033	-0.793269	0.063563
H50	H	-0.348988	-0.824743	0.120132
C51	C	0.354520	-0.865503	0.399276
H52	H	0.405924	-0.832145	0.441602
H53	H	0.308840	-0.830624	0.361839
H54	H	0.407373	-0.895728	0.361831
H55	H	-0.192914	-0.857734	0.062566
C56	C	-0.067098	-0.593614	0.000052
H57	H	-0.048979	-0.650157	0.000062
H58	H	-0.114996	-0.583196	-0.053121
H59	H	-0.114995	-0.583192	0.053233
H60	H	-0.457388	-1.093130	0.091154
C61	C	-0.176933	-0.845699	-0.084268
H62	H	-0.242852	-0.824781	-0.119037
H63	H	-0.134058	-0.882590	-0.121109
H64	H	-0.117974	-0.800543	-0.064668
C65	C	-0.007910	-1.100795	0.399275
H66	H	-0.059309	-1.134154	0.441604
H67	H	0.037759	-1.135673	0.361827
H68	H	-0.060768	-1.070565	0.361841
H69	H	-0.240586	-1.097687	0.090368
C70	C	-0.007900	-1.100807	0.600822
H71	H	-0.059282	-1.134174	0.558492
H72	H	-0.060757	-1.070593	0.638268
H73	H	0.037789	-1.135688	0.638258
H74	H	-0.436204	-0.993812	0.152288
H75	H	-0.440139	-0.998666	-0.152197
C76	C	-0.203854	-0.988093	0.174662
H77	H	-0.141643	-0.943579	0.158330
H78	H	-0.164851	-1.028027	0.209897
H79	H	-0.269223	-0.966904	0.209756
H80	H	-0.238783	-1.096785	-0.092605
C81	C	-0.206105	-0.985547	-0.174380
H82	H	-0.244207	-1.012479	-0.227017
H83	H	-0.116552	-0.988317	-0.175979
H84	H	-0.223060	-0.928779	-0.173840
C85	C	-0.474105	-1.118722	-0.086995
H86	H	-0.528259	-1.127329	-0.035050
H87	H	-0.410961	-1.156658	-0.085083
H88	H	-0.523281	-1.127788	-0.141338
H89	H	0.385227	-0.545085	0.000052
