data_functionalizedCrystal
_audit_creation_method	'MofGen! by Chris Wilmer'
_symmetry_space_group_name_H-M	'P1'
_symmetry_Int_Tables_number	1
_symmetry_cell_setting	triclinic
loop_
_symmetry_equiv_pos_as_xyz
  x,y,z
_cell_length_a	12.827893
_cell_length_b	12.827892
_cell_length_c	12.827885
_cell_angle_alpha	89.970214
_cell_angle_beta	89.978811
_cell_angle_gamma	90.013411
loop_
_atom_site_label
_atom_site_type_symbol
_atom_site_fract_x
_atom_site_fract_y
_atom_site_fract_z
Zn1	Zn	-1.597670	0.416038	0.590902
Zn2	Zn	-1.597564	0.590815	0.416162
Zn3	Zn	-1.422911	0.416083	0.416170
Zn4	Zn	-1.422896	0.590731	0.590857
O5	O	-1.510260	0.503417	0.503523
O6	O	-1.743892	0.439238	0.567738
O7	O	-1.574358	0.567690	0.269927
O8	O	-1.446144	0.269841	0.439371
O9	O	-1.743814	0.567647	0.439358
O10	O	-1.574538	0.269808	0.567746
O11	O	-1.446041	0.439315	0.269933
O12	O	-1.276673	0.439234	0.439327
O13	O	-1.446118	0.567504	0.737099
O14	O	-1.276662	0.567548	0.567668
O15	O	-1.574524	0.439157	0.737132
O16	O	-1.574343	0.737040	0.439314
O17	O	-1.446016	0.736978	0.567661
C18	C	-1.238750	0.503387	0.503494
C19	C	-1.122597	0.503400	0.503506
C20	C	-0.950746	0.439835	0.440124
C21	C	-1.070796	0.439820	0.440110
C22	C	-1.510195	0.774927	0.503504
C23	C	-1.510262	0.891080	0.503531
C24	C	-1.510331	0.503316	0.776093
C25	C	-1.510362	0.503274	0.892246
C26	C	-0.782830	0.503438	0.503544
C27	C	-0.898983	0.503426	0.503532
C28	C	-1.510354	0.230846	0.503564
C29	C	-1.510394	0.114693	0.503582
C30	C	-1.573838	0.942860	0.440092
C31	C	-1.573910	1.062910	0.440118
C32	C	-1.510249	0.503441	0.232013
C33	C	-1.510422	0.503190	0.115860
C34	C	-1.573907	0.439751	0.944048
C35	C	-1.573940	0.439705	1.064098
H36	H	-0.943544	0.557853	0.557812
H37	H	-1.628336	1.107441	0.385802
H38	H	-0.906185	0.385399	0.385853
O39	O	-1.638808	0.889889	0.375232
C40	C	-1.697912	0.961344	0.316228
H41	H	-1.701629	1.039140	0.358982
H42	H	-1.659698	0.973005	0.236822
C43	C	-1.804510	0.823002	0.248776
C44	C	-1.809082	0.918550	0.301292
H45	H	-1.873083	0.796605	0.239558
H46	H	-1.764688	0.774861	0.288525
H47	H	-1.772660	0.832733	0.182610
H48	H	-1.840919	0.908816	0.367462
H49	H	-1.848912	0.966689	0.261554
H50	H	-1.628283	0.385397	0.899520
O51	O	-1.638746	0.374853	1.117395
C52	C	-1.624363	0.389256	1.225394
H53	H	-1.543697	0.423484	1.240183
H54	H	-1.686313	0.444925	1.256369
C55	C	-1.733009	0.241510	1.263381
C56	C	-1.633930	0.283543	1.281546
H57	H	-1.738915	0.176303	1.298020
H58	H	-1.742703	0.231809	1.190621
H59	H	-1.784623	0.287911	1.289194
H60	H	-1.582319	0.237148	1.255722
H61	H	-1.624227	0.293234	1.354303
H62	H	-1.455957	1.070171	0.557894
H63	H	-1.456019	0.557580	1.071319
H64	H	-1.115311	0.385381	0.385820
H65	H	-1.455975	0.557617	0.936774
H66	H	-1.078089	0.557848	0.557792
H67	H	-1.455890	0.935625	0.557868
