data_functionalizedCrystal
_audit_creation_method	'MofGen! by Chris Wilmer'
_symmetry_space_group_name_H-M	'P1'
_symmetry_Int_Tables_number	1
_symmetry_cell_setting	triclinic
loop_
_symmetry_equiv_pos_as_xyz
  x,y,z
_cell_length_a	19.288840
_cell_length_b	15.944551
_cell_length_c	18.366186
_cell_angle_alpha	89.992809
_cell_angle_beta	89.983729
_cell_angle_gamma	83.312377
loop_
_atom_site_label
_atom_site_type_symbol
_atom_site_fract_x
_atom_site_fract_y
_atom_site_fract_z
O1	O	0.921640	0.104683	-0.060673
O2	O	1.421640	0.604683	0.439327
O3	O	0.719414	0.118840	-0.060648
O4	O	1.219414	0.618840	0.439352
O5	O	0.826049	-0.010535	-0.060654
O6	O	1.326049	0.489465	0.439346
O7	O	0.815004	0.234059	-0.060666
O8	O	1.315004	0.734059	0.439334
O9	O	0.826031	-0.010541	0.060445
O10	O	1.326031	0.489459	0.560445
O11	O	0.719396	0.118834	0.060452
O12	O	1.219396	0.618834	0.560452
O13	O	0.921621	0.104677	0.060427
O14	O	1.421621	0.604677	0.560427
Zn15	Zn	0.820506	0.111755	0.079666
Zn16	Zn	1.320506	0.611755	0.579666
Zn17	Zn	0.820530	0.111763	-0.079887
Zn18	Zn	1.320530	0.611763	0.420113
O19	O	0.814986	0.234052	0.060433
O20	O	1.314986	0.734052	0.560433
C21	C	0.693527	0.118385	-0.000095
C22	C	1.193527	0.618385	0.499905
C23	C	0.616419	0.117028	-0.000085
C24	C	1.116419	0.617028	0.499915
C25	C	0.580223	0.116380	-0.066098
C26	C	1.080223	0.616380	0.433902
C27	C	0.507773	0.115096	-0.066107
C28	C	1.007773	0.615096	0.433893
C29	C	0.471523	0.114443	-0.000099
C30	C	0.971523	0.614443	0.499901
C31	C	0.507726	0.115096	0.065923
C32	C	1.007726	0.615096	0.565923
C33	C	0.580174	0.116389	0.065930
C34	C	1.080174	0.616389	0.565930
C35	C	0.362052	0.063193	0.050465
C36	C	0.862052	0.563193	0.550465
C37	C	0.289606	0.061895	0.050455
C38	C	0.789606	0.561895	0.550455
C39	C	0.248069	0.110459	-0.000118
C40	C	0.748069	0.610459	0.499882
C41	C	0.278987	0.160311	-0.050693
C42	C	0.778987	0.660311	0.449307
C43	C	0.351435	0.161603	-0.050686
C44	C	0.851435	0.661603	0.449314
C45	C	0.392965	0.113042	-0.000099
C46	C	0.892965	0.613042	0.499901
C47	C	0.133314	0.108420	-0.066145
C48	C	0.633314	0.608420	0.433855
C49	C	0.060862	0.107140	-0.066151
C50	C	0.560862	0.607140	0.433849
C51	C	0.060818	0.107132	0.065881
C52	C	0.560818	0.607132	0.565881
C53	C	0.133267	0.108420	0.065885
C54	C	0.633267	0.608420	0.565885
C55	C	0.169512	0.109059	-0.000130
C56	C	0.669512	0.609059	0.499870
C57	C	0.825581	-0.041830	-0.000105
C58	C	1.325581	0.458170	0.499895
C59	C	0.824207	-0.135071	-0.000104
C60	C	1.324207	0.364929	0.499896
C61	C	0.754824	-0.349653	-0.000105
C62	C	1.254824	0.150347	0.499895
C63	C	0.787034	-0.410801	0.059600
C64	C	1.287034	0.089199	0.559600
C65	C	0.821720	-0.305787	-0.000109
C66	C	1.321720	0.194213	0.499891
C67	C	0.787068	-0.410778	-0.059795
C68	C	1.287068	0.089222	0.440205
C69	C	0.819313	-0.470690	-0.000118
C70	C	1.319313	0.029310	0.499882
C71	C	0.853949	-0.365707	0.059645
C72	C	1.353949	0.134293	0.559645
C73	C	0.853973	-0.365678	-0.059803
C74	C	1.353973	0.134322	0.440197
C75	C	0.886232	-0.426808	-0.000083
C76	C	1.386232	0.073192	0.499917
C77	C	0.823105	-0.210790	-0.000104
C78	C	1.323105	0.289210	0.499896
C79	C	0.817933	-0.565686	-0.000118
C80	C	1.317933	-0.065686	0.499882
C81	C	0.947508	0.105132	-0.000128
C82	C	1.447508	0.605132	0.499872
C83	C	1.024617	0.106489	-0.000143
C84	C	1.524617	0.606489	0.499857
C85	C	0.815454	0.265348	-0.000118
C86	C	1.315454	0.765348	0.499882
C87	C	0.816828	0.358588	-0.000124
C88	C	1.316828	0.858588	0.499876
N89	N	0.820494	0.111748	0.188557
N90	N	1.320494	0.611748	0.688557
N91	N	0.820546	0.111762	-0.188779
N92	N	1.320546	0.611762	0.311221
C93	C	0.867728	0.054489	0.226655
C94	C	1.367728	0.554489	0.726655
C95	C	0.867732	0.054485	0.302883
C96	C	1.367732	0.554485	0.802883
C97	C	0.820510	0.111755	0.341010
C98	C	1.320510	0.611755	0.841010
C99	C	0.773267	0.169019	0.302903
C100	C	1.273267	0.669019	0.802903
C101	C	0.773260	0.169015	0.226677
C102	C	1.273260	0.669015	0.726677
C103	C	0.811413	0.188290	0.461767
C104	C	1.311413	0.688290	0.961767
C105	C	0.811426	0.188294	0.537992
C106	C	1.311426	0.688294	1.037992
C107	C	0.820530	0.111766	0.576118
C108	C	1.320530	0.611766	1.076118
C109	C	0.829636	0.035229	0.538008
C110	C	1.329636	0.535229	1.038008
C111	C	0.829628	0.035226	0.461782
C112	C	1.329628	0.535226	0.961782
C113	C	0.820513	0.111765	0.423665
C114	C	1.320513	0.611765	0.923665
C115	C	0.867771	0.054498	0.696870
C116	C	1.367771	0.554498	1.196870
C117	C	0.867770	0.054493	0.773099
C118	C	1.367770	0.554493	1.273099
C119	C	0.773308	0.169034	0.773119
C120	C	1.273308	0.669034	1.273119
C121	C	0.773306	0.169031	0.696891
C122	C	1.273306	0.669031	1.196891
C123	C	0.820540	0.111764	0.658771
C124	C	1.320540	0.611764	1.158771
H125	H	0.609644	0.116918	0.119687
H126	H	1.109644	0.616918	0.619687
H127	H	0.803987	0.250613	0.430732
H128	H	1.303987	0.750613	0.930732
H129	H	0.906188	0.007857	0.195620
H130	H	1.406188	0.507857	0.695620
N131	N	0.725014	0.227501	0.187745
N132	N	1.225014	0.727501	0.687745
N133	N	0.681902	0.200985	0.145227
N134	N	1.181902	0.700985	0.645227
H135	H	0.647829	0.242291	0.117728
H136	H	1.147829	0.742291	0.617728
N137	N	0.725031	0.227508	0.341857
N138	N	1.225031	0.727508	0.841857
N139	N	0.725044	0.227504	0.409916
N140	N	1.225044	0.727504	0.909916
H141	H	0.690973	0.268811	0.437428
H142	H	1.190973	0.768811	0.937428
H143	H	0.376605	0.202196	-0.091865
H144	H	0.876605	0.702196	0.408135
N145	N	0.470713	0.114418	0.133355
N146	N	0.970713	0.614418	0.633355
N147	N	0.503043	0.114993	0.192293
N148	N	1.003043	0.614993	0.692293
H149	H	0.476904	0.114517	0.239921
H150	H	0.976904	0.614517	0.739921
H151	H	0.941808	-0.460187	-0.000056
H152	H	1.441808	0.039813	0.499944
N153	N	0.236557	0.209912	-0.102356
N154	N	0.736557	0.709912	0.397644
N155	N	0.171873	0.208756	-0.102355
N156	N	0.671873	0.708756	0.397645
H157	H	0.141903	0.243783	-0.138842
H158	H	0.641903	0.743783	0.361158
H159	H	0.478297	0.114569	-0.119865
H160	H	0.978297	0.614569	0.380135
N161	N	0.751569	-0.435850	-0.123108
N162	N	1.251569	0.064150	0.376892
N163	N	0.698371	-0.473100	-0.116466
N164	N	1.198371	0.026900	0.383534
H165	H	0.673296	-0.490806	-0.161177
H166	H	1.173296	0.009194	0.338823
N167	N	0.685164	-0.307600	-0.000020
N168	N	1.185164	0.192400	0.499980
N169	N	0.644671	-0.319299	0.051175
N170	N	1.144671	0.180701	0.551175
H171	H	0.595474	-0.289599	0.051238
H172	H	1.095474	0.210401	0.551238
N173	N	0.915925	-0.004067	0.657887
N174	N	1.415925	0.495933	1.157887
N175	N	0.914871	-0.081687	0.666413
N176	N	1.414871	0.418313	1.166413
H177	H	0.948848	-0.123071	0.638865
H178	H	1.448848	0.376929	1.138865
N179	N	0.617234	0.117034	-0.133535
N180	N	1.117234	0.617034	0.366465
N181	N	0.584902	0.116456	-0.192472
N182	N	1.084902	0.616456	0.307528
H183	H	0.611041	0.116918	-0.240100
H184	H	1.111041	0.616918	0.259900
H185	H	0.758732	-0.430800	0.110083
H186	H	1.258732	0.069200	0.610083
N187	N	0.404481	0.013602	0.102139
N188	N	0.904481	0.513602	0.602139
N189	N	0.395024	0.025863	0.168808
N190	N	0.895024	0.525863	0.668808
H191	H	0.424990	-0.009154	0.205304
H192	H	0.924990	0.490846	0.705304
H193	H	0.906197	0.007856	0.333907
H194	H	1.406197	0.507856	0.833907
N195	N	0.170331	0.109073	-0.133580
N196	N	0.670331	0.609073	0.366420
N197	N	0.138001	0.108501	-0.192518
N198	N	0.638001	0.608501	0.307482
H199	H	0.164142	0.108962	-0.240146
H200	H	0.664142	0.608962	0.259854
H201	H	0.162739	0.108942	0.119640
H202	H	0.662739	0.608942	0.619640
H203	H	0.264439	0.021299	0.091633
H204	H	0.764439	0.521299	0.591633
H205	H	0.031392	0.106618	-0.119909
H206	H	0.531392	0.606618	0.380091
H207	H	0.837041	-0.027093	0.430757
H208	H	1.337041	0.472907	0.930757
N209	N	0.023798	0.106490	0.133309
N210	N	0.523798	0.606490	0.633309
N211	N	-0.023037	0.164973	0.148029
N212	N	0.476963	0.664973	0.648029
H213	H	-0.049184	0.164526	0.195654
H214	H	0.450816	0.664526	0.695654
N215	N	0.889406	-0.340767	0.123032
N216	N	1.389406	0.159233	0.623032
N217	N	0.896160	-0.264645	0.133278
N218	N	1.396160	0.235355	0.633278
H219	H	0.921199	-0.247028	0.178045
H220	H	1.421199	0.252972	0.678045
N221	N	0.838916	-0.042954	0.576936
N222	N	1.338916	0.457046	1.076936
N223	N	0.796576	-0.095825	0.568436
N224	N	1.296576	0.404175	1.068436
H225	H	0.803129	-0.151042	0.595929
H226	H	1.303129	0.348958	1.095929
N227	N	0.802112	0.266462	0.576927
N228	N	1.302112	0.766462	1.076927
N229	N	0.802117	0.266456	0.644986
N230	N	1.302117	0.766456	1.144986
H231	H	0.795536	0.321663	0.672484
H232	H	1.295536	0.821663	1.172484
N233	N	0.725053	0.227527	0.657982
N234	N	1.225053	0.727527	1.157982
N235	N	0.682889	0.278655	0.692030
N236	N	1.182889	0.778655	1.192030
H237	H	0.648806	0.319969	0.664551
H238	H	1.148806	0.819969	1.164551
N239	N	0.889444	-0.340567	-0.123141
N240	N	1.389444	0.159433	0.376859
N241	N	0.866653	-0.354750	-0.185091
N242	N	1.366653	0.145250	0.314909
H243	H	0.891700	-0.337014	-0.229829
H244	H	1.391700	0.162986	0.270171
H245	H	0.906231	0.007861	0.804119
H246	H	1.406231	0.507861	1.304119
H247	H	0.734856	0.215661	0.804161
H248	H	1.234856	0.715661	1.304161
