data_functionalizedCrystal
_audit_creation_method	'MofGen! by Chris Wilmer'
_symmetry_space_group_name_H-M	'P1'
_symmetry_Int_Tables_number	1
_symmetry_cell_setting	triclinic
loop_
_symmetry_equiv_pos_as_xyz
  x,y,z
_cell_length_a	10.723024
_cell_length_b	10.654550
_cell_length_c	9.730223
_cell_angle_alpha	90.000043
_cell_angle_beta	89.996766
_cell_angle_gamma	95.523600
loop_
_atom_site_label
_atom_site_type_symbol
_atom_site_fract_x
_atom_site_fract_y
_atom_site_fract_z
O1	O	0.175275	-1.667813	-0.114183
O2	O	0.191974	-1.302332	-0.114208
O3	O	0.002049	-1.493503	-0.114190
O4	O	0.365199	-1.476642	-0.114202
O5	O	0.002044	-1.493490	0.114390
O6	O	0.191968	-1.302319	0.114372
O7	O	0.175269	-1.667800	0.114396
Zn8	Zn	0.183618	-1.485058	0.150676
Zn9	Zn	0.183625	-1.485074	-0.150488
O10	O	0.365194	-1.476629	0.114378
C11	C	0.190745	-1.255528	0.000078
C12	C	0.187077	-1.116085	0.000069
C13	C	-0.044453	-1.492269	0.000098
C14	C	-0.183008	-1.488598	0.000093
C15	C	0.176498	-1.714604	0.000107
C16	C	0.180167	-1.854047	0.000107
C17	C	-0.257975	-1.595567	0.000098
C18	C	-0.401179	-1.591776	0.000093
C19	C	0.411696	-1.477863	0.000087
C20	C	0.550251	-1.481534	0.000083
N21	N	0.183613	-1.485056	0.356212
C22	C	0.298901	-1.036583	0.000069
C23	C	0.295447	-0.905562	0.000093
C24	C	0.068334	-0.933560	0.000111
C25	C	0.071789	-1.064577	0.000097
N26	N	0.183621	-1.485086	-0.356024
C27	C	0.099550	-1.569735	0.428146
C28	C	0.099550	-1.569748	0.572029
C29	C	0.267687	-1.400397	0.572032
C30	C	0.267680	-1.400380	0.428151
H31	H	-0.216138	-1.689955	0.000113
H32	H	-0.019278	-1.129312	0.000100
H33	H	-0.385337	-1.389955	0.000088
O34	O	0.349465	-1.318072	0.358479
C35	C	0.516183	-1.150048	0.373652
C36	C	0.423660	-1.243212	0.452727
H37	H	0.576175	-1.089481	0.449818
H38	H	0.579108	-1.204728	0.306309
H39	H	0.461690	-1.086902	0.306273
H40	H	0.478051	-1.306380	0.520182
H41	H	0.360735	-1.188453	0.519984
H42	H	-0.465598	-1.683350	0.000104
H43	H	0.392775	-1.078515	0.000057
O44	O	-0.043726	-0.883668	-0.000061
C45	C	-0.238858	-0.867437	-0.118519
C46	C	-0.112005	-0.924043	-0.118472
H47	H	-0.294087	-0.900037	-0.214258
H48	H	-0.294267	-0.900140	-0.022924
H49	H	-0.222088	-0.760141	-0.118448
H50	H	-0.128660	-1.031342	-0.118591
H51	H	-0.056638	-0.891242	-0.214058
H52	H	-0.224844	-1.394211	0.000078
O53	O	0.017763	-1.652024	0.358477
C54	C	-0.148962	-1.820042	0.373667
C55	C	-0.056419	-1.726899	0.452733
H56	H	-0.208944	-1.880620	0.449839
H57	H	-0.211895	-1.765344	0.306361
H58	H	-0.094485	-1.883178	0.306252
H59	H	-0.110794	-1.663740	0.520223
H60	H	0.006514	-1.781674	0.519953
H61	H	0.386506	-0.840836	0.000097
H62	H	0.031098	-1.638700	0.630594
H63	H	0.336135	-1.331458	0.630619
