data_functionalizedCrystal
_audit_creation_method	'MofGen! by Chris Wilmer'
_symmetry_space_group_name_H-M	'P1'
_symmetry_Int_Tables_number	1
_symmetry_cell_setting	triclinic
loop_
_symmetry_equiv_pos_as_xyz
  x,y,z
_cell_length_a	18.215407
_cell_length_b	13.897447
_cell_length_c	18.215398
_cell_angle_alpha	89.977470
_cell_angle_beta	89.982555
_cell_angle_gamma	90.014043
loop_
_atom_site_label
_atom_site_type_symbol
_atom_site_fract_x
_atom_site_fract_y
_atom_site_fract_z
Zn1	Zn	1.125097	-0.384190	-0.416091
Zn2	Zn	1.625097	0.115810	0.083909
Zn3	Zn	1.125017	-0.545493	-0.293031
Zn4	Zn	1.625017	-0.045493	0.206969
Zn5	Zn	1.002030	-0.384198	-0.293043
Zn6	Zn	1.502030	0.115802	0.206957
Zn7	Zn	1.002007	-0.545429	-0.416060
Zn8	Zn	1.502007	-0.045429	0.083940
O9	O	1.063538	-0.464827	-0.354556
O10	O	1.563538	0.035173	0.145444
O11	O	1.228070	-0.405610	-0.399775
O12	O	1.728070	0.094390	0.100225
O13	O	1.108679	-0.524126	-0.190048
O14	O	1.608679	-0.024126	0.309952
O15	O	1.018398	-0.249215	-0.309383
O16	O	1.518398	0.250785	0.190617
O17	O	1.228012	-0.524119	-0.309363
O18	O	1.728012	-0.024119	0.190637
O19	O	1.108815	-0.249209	-0.399786
O20	O	1.608815	0.250791	0.100214
O21	O	1.018321	-0.405624	-0.190057
O22	O	1.518321	0.094376	0.309943
O23	O	0.899043	-0.405562	-0.309353
O24	O	1.399043	0.094438	0.190647
O25	O	1.018358	-0.524011	-0.519049
O26	O	1.518358	-0.024011	-0.019049
O27	O	0.899025	-0.524018	-0.399734
O28	O	1.399025	-0.024018	0.100266
O29	O	1.108792	-0.405549	-0.519071
O30	O	1.608792	0.094451	-0.019071
O31	O	1.108657	-0.680466	-0.309333
O32	O	1.608657	-0.180466	0.190667
O33	O	1.018281	-0.680419	-0.399722
O34	O	1.518281	-0.180419	0.100278
C35	C	0.872331	-0.464785	-0.354542
C36	C	1.372331	0.035215	0.145458
C37	C	0.790532	-0.464790	-0.354553
C38	C	1.290532	0.035210	0.145447
C39	C	1.063478	-0.715442	-0.354539
C40	C	1.563478	-0.215442	0.145461
C41	C	1.063520	-0.822656	-0.354556
C42	C	1.563520	-0.322656	0.145444
C43	C	0.525500	-0.403239	-0.401709
C44	C	1.025500	0.096761	0.098291
C45	C	0.602358	-0.403223	-0.401706
C46	C	1.102358	0.096777	0.098294
C47	C	0.602317	-0.526447	-0.307420
C48	C	1.102317	-0.026447	0.192580
C49	C	0.525460	-0.526467	-0.307426
C50	C	1.025460	-0.026467	0.192574
C51	C	0.487053	-0.464857	-0.354570
C52	C	0.987053	0.035143	0.145430
C53	C	0.640769	-0.464822	-0.354561
C54	C	1.140769	0.035178	0.145439
C55	C	0.724103	-0.464806	-0.354558
C56	C	1.224103	0.035194	0.145442
C57	C	0.403714	-0.464875	-0.354574
C58	C	0.903714	0.035125	0.145426
C59	C	1.063555	-0.909725	-0.354573
C60	C	1.563555	-0.409725	0.145427
C61	C	1.063607	-1.018958	-0.354592
C62	C	1.563607	-0.518958	0.145408
C63	C	1.255491	-0.464871	-0.354571
C64	C	1.755491	0.035129	0.145429
C65	C	1.337289	-0.464889	-0.354577
C66	C	1.837289	0.035111	0.145423
C67	C	1.063581	-0.464772	-0.546509
C68	C	1.563581	0.035228	-0.046509
C69	C	1.063600	-0.464748	-0.628308
C70	C	1.563600	0.035252	-0.128308
C71	C	1.063618	-0.213234	-0.354589
C72	C	1.563618	0.286766	0.145411
C73	C	1.063652	-0.106021	-0.354604
C74	C	1.563652	0.393979	0.145396
C75	C	1.110683	-0.526334	-0.893366
C76	C	1.610683	-0.026334	-0.393366
C77	C	1.110672	-0.526367	-0.816507
C78	C	1.610672	-0.026367	-0.316507
C79	C	1.016572	-0.402977	-0.816499
C80	C	1.516572	0.097023	-0.316499
C81	C	1.016580	-0.402949	-0.893357
C82	C	1.516580	0.097051	-0.393357
C83	C	1.063640	-0.464626	-0.931788
C84	C	1.563640	0.035374	-0.431788
C85	C	1.063621	-0.464687	-0.778072
C86	C	1.563621	0.035313	-0.278072
C87	C	1.063608	-0.464723	-0.694738
C88	C	1.563608	0.035277	-0.194738
C89	C	1.063652	-0.464592	-1.015127
C90	C	1.563652	0.035408	-0.515127
C91	C	1.063537	-0.464813	-0.163350
C92	C	1.563537	0.035187	0.336650
C93	C	1.063661	-0.464565	-0.081551
C94	C	1.563661	0.035435	0.418449
H95	H	0.494231	-0.353072	-0.440095
H96	H	0.994231	0.146928	0.059905
C97	C	1.162442	-0.594180	-0.935638
C98	C	1.662442	-0.094180	-0.435638
H99	H	1.190453	-0.630940	-0.901744
H100	H	1.690453	-0.130940	-0.401744
H101	H	1.194521	-0.557276	-0.965629
H102	H	1.694521	-0.057276	-0.465629
H103	H	1.134279	-0.636197	-0.965610
H104	H	1.634279	-0.136197	-0.465610
C105	C	0.483162	-0.594253	-0.255576
C106	C	0.983162	-0.094253	0.244424
H107	H	0.431888	-0.585448	-0.262339
H108	H	0.931888	-0.085448	0.237661
H109	H	0.495734	-0.580059	-0.206143
H110	H	0.995734	-0.080059	0.293857
H111	H	0.495761	-0.659079	-0.266272
H112	H	0.995761	-0.159079	0.233728
C113	C	0.644563	-0.594213	-0.255565
C114	C	1.144563	-0.094213	0.244435
H115	H	0.610656	-0.630922	-0.227498
H116	H	1.110656	-0.130922	0.272502
H117	H	0.674536	-0.557261	-0.223542
H118	H	1.174536	-0.057261	0.276458
H119	H	0.674551	-0.636282	-0.283670
H120	H	1.174551	-0.136282	0.216330
C121	C	0.964821	-0.335084	-0.935627
C122	C	1.464821	0.164916	-0.435627
H123	H	0.971558	-0.343914	-0.986904
H124	H	1.471558	0.156086	-0.486904
H125	H	0.975594	-0.270273	-0.923048
H126	H	1.475594	0.229727	-0.423048
H127	H	0.915370	-0.349219	-0.923015
H128	H	1.415370	0.150781	-0.423015
C129	C	1.162418	-0.594244	-0.774242
C130	C	1.662418	-0.094244	-0.274242
H131	H	1.155669	-0.585437	-0.722964
H132	H	1.655669	-0.085437	-0.222964
H133	H	1.211870	-0.580130	-0.786847
H134	H	1.711870	-0.080130	-0.286847
H135	H	1.151626	-0.659050	-0.786834
H136	H	1.651626	-0.159050	-0.286834
C137	C	0.964807	-0.335140	-0.774226
C138	C	1.464807	0.164860	-0.274226
H139	H	0.936783	-0.298395	-0.808119
H140	H	1.436783	0.201605	-0.308119
H141	H	0.992959	-0.293123	-0.744249
H142	H	1.492959	0.206877	-0.244249
H143	H	0.932728	-0.372061	-0.744239
H144	H	1.432728	0.127939	-0.244239
C145	C	0.644647	-0.335439	-0.453556
C146	C	1.144647	0.164561	0.046444
H147	H	0.610763	-0.298748	-0.481628
H148	H	1.110763	0.201252	0.018372
H149	H	0.674639	-0.372379	-0.485575
H150	H	1.174639	0.127621	0.014425
H151	H	0.674619	-0.293355	-0.425449
H152	H	1.174619	0.206645	0.074551
