data_functionalizedCrystal
_audit_creation_method	'MofGen! by Chris Wilmer'
_symmetry_space_group_name_H-M	'P1'
_symmetry_Int_Tables_number	1
_symmetry_cell_setting	triclinic
loop_
_symmetry_equiv_pos_as_xyz
  x,y,z
_cell_length_a	10.686551
_cell_length_b	12.759401
_cell_length_c	10.685676
_cell_angle_alpha	85.604324
_cell_angle_beta	89.701534
_cell_angle_gamma	85.608001
loop_
_atom_site_label
_atom_site_type_symbol
_atom_site_fract_x
_atom_site_fract_y
_atom_site_fract_z
Zn1	Zn	-0.747434	1.625588	0.444857
Zn2	Zn	-0.553744	1.598661	0.670769
Zn3	Zn	-0.537701	1.435452	0.461026
Zn4	Zn	-0.763465	1.437496	0.654583
O5	O	-0.650586	1.524299	0.557809
O6	O	-0.721746	1.769037	0.474832
O7	O	-0.376073	1.564886	0.656487
O8	O	-0.552100	1.471087	0.283332
O9	O	-0.579442	1.749254	0.640809
O10	O	-0.706190	1.610780	0.271453
O11	O	-0.364287	1.444977	0.502390
O12	O	-0.567645	1.288702	0.486694
O13	O	-0.936882	1.474572	0.613222
O14	O	-0.733513	1.290204	0.628900
O15	O	-0.925104	1.612762	0.459137
O16	O	-0.594987	1.566869	0.844171
O17	O	-0.749068	1.448461	0.832279
C18	C	-0.650578	1.251332	0.557796
C19	C	-0.650607	1.134556	0.557818
C20	C	-0.977782	1.546899	0.532570
C21	C	-1.117213	1.556529	0.521815
C22	C	-0.675536	1.504995	0.883741
C23	C	-0.686251	1.496836	1.023173
C24	C	-0.324657	1.501854	0.582859
C25	C	-0.185199	1.492447	0.593261
C26	C	-0.650595	1.798332	0.557823
C27	C	-0.650599	1.915109	0.557829
C28	C	-0.576516	1.959673	0.644244
C29	C	-0.576517	2.069397	0.644236
C30	C	-0.724692	2.089985	0.471394
C31	C	-0.724684	1.980262	0.471397
C32	C	-0.490972	1.947787	0.744037
C33	C	-0.490972	2.057512	0.744029
C34	C	-0.625553	1.543675	1.230603
C35	C	-0.614848	1.551844	1.091170
H36	H	-1.136730	1.430215	0.662665
H37	H	-0.396018	2.087232	0.716352
H38	H	-0.784999	1.943983	0.401020
C39	C	-0.521186	1.623903	1.025720
C40	C	-0.532891	1.743020	1.042688
C41	C	-0.439228	1.815081	0.977230
C42	C	-0.333859	1.768024	0.894803
C43	C	-0.322150	1.648901	0.877832
C44	C	-0.415813	1.576840	0.943290
H45	H	-0.610895	1.777860	1.103709
H46	H	-0.447896	1.903264	0.989794
H47	H	-0.264524	1.821368	0.846347
H48	H	-0.244146	1.614061	0.816811
H49	H	-0.407145	1.488657	0.930726
C50	C	-1.182674	1.640605	0.428062
C51	C	-1.326787	1.650447	0.417072
C52	C	-1.392257	1.734524	0.323318
C53	C	-1.313613	1.808758	0.240554
C54	C	-1.169492	1.798917	0.251541
C55	C	-1.104022	1.714841	0.345295
H56	H	-1.385011	1.595493	0.478342
H57	H	-1.498946	1.741808	0.315185
H58	H	-1.362078	1.870996	0.171151
H59	H	-1.111268	1.853872	0.190271
H60	H	-0.997333	1.707557	0.353428
C61	C	-0.806186	2.161658	0.376326
C62	C	-0.908833	2.240673	0.423076
C63	C	-0.990328	2.312344	0.328006
C64	C	-0.969176	2.305000	0.186187
C65	C	-0.866524	2.225982	0.139430
C66	C	-0.785029	2.154311	0.234499
H67	H	-0.924495	2.246112	0.528066
H68	H	-1.066318	2.370839	0.362620
H69	H	-1.029503	2.358055	0.115810
H70	H	-0.850862	2.220543	0.034440
H71	H	-0.709039	2.095816	0.199886
C72	C	-0.357037	1.900573	0.719009
C73	C	-0.249069	1.973370	0.698821
C74	C	-0.115139	1.926155	0.673792
C75	C	-0.089176	1.806143	0.668952
C76	C	-0.197147	1.733339	0.689140
C77	C	-0.331077	1.780554	0.714169
H78	H	-0.268286	2.062216	0.702404
H79	H	-0.035212	1.980050	0.658848
H80	H	0.009968	1.771192	0.650424
H81	H	-0.177930	1.644493	0.685557
H82	H	-0.411004	1.726659	0.729113
C83	C	-0.536173	2.092403	0.872562
C84	C	-0.572621	2.009671	0.976186
C85	C	-0.617820	2.044562	1.104713
C86	C	-0.626572	2.162184	1.129616
C87	C	-0.590123	2.244923	1.025990
C88	C	-0.544924	2.210032	0.897463
H89	H	-0.566143	1.922594	0.957753
H90	H	-0.644801	1.983313	1.181424
H91	H	-0.660031	2.188013	1.224760
H92	H	-0.596601	2.332001	1.044423
H93	H	-0.517943	2.271282	0.820752
H94	H	-0.532830	1.910687	0.833643
H95	H	-0.755588	1.443499	1.071634
