data_functionalizedCrystal
_audit_creation_method	'MofGen! by Chris Wilmer'
_symmetry_space_group_name_H-M	'P1'
_symmetry_Int_Tables_number	1
_symmetry_cell_setting	triclinic
loop_
_symmetry_equiv_pos_as_xyz
  x,y,z
_cell_length_a	15.944493
_cell_length_b	16.109301
_cell_length_c	14.586319
_cell_angle_alpha	89.998582
_cell_angle_beta	89.998474
_cell_angle_gamma	96.531738
loop_
_atom_site_label
_atom_site_type_symbol
_atom_site_fract_x
_atom_site_fract_y
_atom_site_fract_z
O1	O	0.107970	-1.103144	0.076170
O2	O	0.607970	-0.603144	0.576170
O3	O	0.121406	-0.861084	0.076183
O4	O	0.621406	-0.361084	0.576183
O5	O	-0.007592	-0.988749	0.076184
O6	O	0.492408	-0.488749	0.576184
O7	O	0.236968	-0.975479	0.076170
O8	O	0.736968	-0.475479	0.576170
O9	O	-0.007595	-0.988739	-0.076297
O10	O	0.492405	-0.488739	0.423703
O11	O	0.121403	-0.861074	-0.076297
O12	O	0.621403	-0.361074	0.423703
O13	O	0.107967	-1.103134	-0.076311
O14	O	0.607967	-0.603134	0.423689
Cu15	Cu	0.114685	-0.982103	-0.090227
Cu16	Cu	0.614685	-0.482103	0.409773
Cu17	Cu	0.114688	-0.982115	0.090100
Cu18	Cu	0.614688	-0.482115	0.590100
O19	O	0.236965	-0.975469	-0.076311
O20	O	0.736965	-0.475469	0.423689
C21	C	0.120861	-0.830104	-0.000055
C22	C	0.620861	-0.330104	0.499945
C23	C	0.119229	-0.737808	-0.000050
C24	C	0.619229	-0.237808	0.499950
N25	N	0.114682	-0.982100	-0.217058
N26	N	0.614682	-0.482100	0.282942
C27	C	-0.038888	-0.988202	-0.000052
C28	C	0.461112	-0.488202	0.499948
C29	C	-0.132136	-0.986576	-0.000041
C30	C	0.367864	-0.486576	0.499959
C31	C	-0.367921	-1.061722	-0.000062
C32	C	0.132079	-0.561722	0.499938
C33	C	-0.418474	-1.021204	0.075121
C34	C	0.081526	-0.521204	0.575121
C35	C	-0.302856	-0.983563	-0.000052
C36	C	0.197144	-0.483563	0.499948
C37	C	-0.418453	-1.021175	-0.075213
C38	C	0.081547	-0.521175	0.424787
C39	C	-0.467765	-0.980658	-0.000066
C40	C	0.032235	-0.480658	0.499934
C41	C	-0.352181	-0.943065	0.075193
C42	C	0.147819	-0.443065	0.575193
C43	C	-0.352157	-0.943048	-0.075209
C44	C	0.147843	-0.443048	0.424791
C45	C	-0.402677	-0.902472	-0.000008
C46	C	0.097323	-0.402472	0.499992
C47	C	-0.207857	-0.985238	-0.000042
C48	C	0.292143	-0.485238	0.499958
C49	C	-0.562762	-0.978976	-0.000069
C50	C	-0.062762	-0.478976	0.499931
C51	C	0.268262	-0.976016	-0.000073
C52	C	0.768262	-0.476016	0.499927
C53	C	0.361510	-0.977642	-0.000079
C54	C	0.861510	-0.477642	0.499921
C55	C	0.108513	-1.134114	-0.000070
C56	C	0.608513	-0.634114	0.499930
C57	C	0.110144	-1.226410	-0.000070
C58	C	0.610144	-0.726410	0.499930
C59	C	0.191980	-0.515544	-0.000065
C60	C	0.691980	-0.015544	0.499935
C61	C	0.190440	-0.428824	-0.000070
C62	C	0.690440	0.071176	0.499930
C63	C	0.037388	-0.448680	-0.000057
C64	C	0.537388	0.051320	0.499943
C65	C	0.038928	-0.535399	-0.000058
C66	C	0.538928	-0.035399	0.499942
C67	C	0.116227	-0.568829	-0.000057
C68	C	0.616227	-0.068829	0.499943
C69	C	0.113146	-0.395389	-0.000062
C70	C	0.613146	0.104611	0.499938
C71	C	0.111476	-0.301363	-0.000068
C72	C	0.611476	0.198637	0.499932
C73	C	0.117897	-0.662861	-0.000053
C74	C	0.617897	-0.162861	0.499947
C75	C	0.057580	-1.038653	-0.548052
C76	C	0.557580	-0.538653	-0.048052
C77	C	0.057580	-1.038651	-0.452071
C78	C	0.557580	-0.538651	0.047929
C79	C	0.171793	-0.925569	-0.452082
C80	C	0.671793	-0.425569	0.047918
C81	C	0.171796	-0.925576	-0.548061
C82	C	0.671796	-0.425576	-0.048061
C83	C	0.114685	-0.982117	-0.596044
C84	C	0.614685	-0.482117	-0.096044
C85	C	0.114682	-0.982108	-0.404083
C86	C	0.614682	-0.482108	0.095917
C87	C	0.114683	-0.982105	-0.300016
C88	C	0.614683	-0.482105	0.199984
C89	C	0.114684	-0.982120	-0.700118
C90	C	0.614684	-0.482120	-0.200118
N91	N	0.114685	-0.982124	0.216931
N92	N	0.614685	-0.482124	0.716931
H93	H	-0.352315	-1.129047	0.000010
H94	H	0.147685	-0.629047	0.500010
N95	N	-0.456834	-1.064925	0.159311
N96	N	0.043166	-0.564925	0.659311
H97	H	-0.444489	-1.125045	0.159255
H98	H	0.055511	-0.625045	0.659255
H99	H	-0.519916	-1.062944	0.158935
H100	H	-0.019916	-0.562944	0.658935
H101	H	-0.323187	-0.910064	-0.138769
H102	H	0.176813	-0.410064	0.361231
N103	N	-0.004009	-1.099631	-0.400307
N104	N	0.495991	-0.599631	0.099693
H105	H	-0.040185	-1.135448	-0.445271
H106	H	0.459815	-0.635448	0.054729
H107	H	-0.041152	-1.067806	-0.360485
H108	H	0.458848	-0.567806	0.139515
H109	H	-0.418121	-0.835095	0.000037
H110	H	0.081879	-0.335095	0.500037
N111	N	-0.042786	-0.592870	-0.000048
N112	N	0.457214	-0.092870	0.499952
H113	H	-0.045555	-0.629296	0.056475
H114	H	0.454445	-0.129296	0.556475
H115	H	-0.045511	-0.629235	-0.056612
H116	H	0.454489	-0.129235	0.443388
H117	H	0.254921	-0.542760	-0.000071
H118	H	0.754921	-0.042760	0.499929
N119	N	0.233384	-0.864588	-0.599832
N120	N	0.733384	-0.364588	-0.099832
H121	H	0.270587	-0.896354	-0.639650
H122	H	0.770587	-0.396354	-0.139650
H123	H	0.269500	-0.828779	-0.554814
H124	H	0.769500	-0.328779	-0.054814
H125	H	0.011078	-1.084693	-0.587117
H126	H	0.511078	-0.584693	-0.087117
N127	N	-0.456792	-1.064905	-0.159405
N128	N	0.043208	-0.564905	0.340595
H129	H	-0.444439	-1.125023	-0.159336
H130	H	0.055561	-0.625023	0.340664
H131	H	-0.431716	-1.035938	-0.216142
H132	H	0.068284	-0.535938	0.283858
N133	N	0.272145	-0.371352	-0.000129
N134	N	0.772145	0.128648	0.499871
H135	H	0.321343	-0.405692	-0.000145
H136	H	0.821343	0.094308	0.499855
H137	H	0.274872	-0.334916	0.056379
H138	H	0.774872	0.165084	0.556379
N139	N	0.233385	-0.864585	-0.400329
N140	N	0.733385	-0.364585	0.099671
H141	H	0.224717	-0.873156	-0.332244
H142	H	0.724717	-0.373156	0.167756
H143	H	0.223665	-0.805611	-0.417116
H144	H	0.723665	-0.305611	0.082884
N145	N	-0.314000	-0.899369	0.159478
N146	N	0.186000	-0.399369	0.659478
H147	H	-0.250834	-0.900774	0.158976
H148	H	0.249166	-0.400774	0.658976
H149	H	-0.338794	-0.928679	0.216149
H150	H	0.161206	-0.428679	0.716149
H151	H	-0.025546	-0.421451	-0.000064
H152	H	0.474454	0.078549	0.499936
