data_functionalizedCrystal
_audit_creation_method	'MofGen! by Chris Wilmer'
_symmetry_space_group_name_H-M	'P1'
_symmetry_Int_Tables_number	1
_symmetry_cell_setting	triclinic
loop_
_symmetry_equiv_pos_as_xyz
  x,y,z
_cell_length_a	21.395364
_cell_length_b	13.897447
_cell_length_c	13.897441
_cell_angle_alpha	90.029327
_cell_angle_beta	90.021861
_cell_angle_gamma	90.015295
loop_
_atom_site_label
_atom_site_type_symbol
_atom_site_fract_x
_atom_site_fract_y
_atom_site_fract_z
Zn1	Zn	0.957891	-0.384093	0.545419
Zn2	Zn	0.957819	-0.545415	0.384124
Zn3	Zn	0.853111	-0.384124	0.384134
Zn4	Zn	0.853096	-0.545336	0.545373
O5	O	0.905479	-0.464742	0.464762
O6	O	1.045560	-0.405513	0.524037
O7	O	0.943906	-0.524065	0.249143
O8	O	0.867047	-0.249138	0.405552
O9	O	1.045507	-0.524035	0.405535
O10	O	0.944029	-0.249116	0.524047
O11	O	0.866977	-0.405565	0.249151
O12	O	0.765431	-0.405488	0.405508
O13	O	0.867021	-0.523901	0.680361
O14	O	0.765420	-0.523930	0.523970
O15	O	0.944014	-0.405437	0.680394
O16	O	0.943891	-0.680386	0.405490
O17	O	0.866951	-0.680328	0.523960
C18	C	0.742692	-0.464705	0.464735
C19	C	0.673051	-0.464712	0.464747
C20	C	0.171281	-0.403173	0.526581
C21	C	0.236717	-0.403166	0.526581
C22	C	0.269412	-0.464771	0.464784
C23	C	0.236667	-0.526406	0.403000
C24	C	0.171233	-0.526419	0.403009
C25	C	0.373052	-0.472263	0.377852
C26	C	0.438485	-0.472244	0.377842
C27	C	0.471233	-0.464739	0.464757
C28	C	0.438540	-0.457233	0.551686
C29	C	0.373106	-0.457245	0.551695
C30	C	0.340365	-0.464765	0.464768
C31	C	0.574923	-0.403105	0.526542
C32	C	0.640360	-0.403105	0.526543
C33	C	0.640308	-0.526340	0.402954
C34	C	0.574873	-0.526346	0.402961
C35	C	0.542184	-0.464723	0.464754
C36	C	0.905428	-0.715356	0.464740
C37	C	0.905464	-0.822570	0.464763
C38	C	0.905494	-0.909640	0.464785
C39	C	0.905538	-1.018872	0.464809
C40	C	1.068903	-0.464780	0.464790
C41	C	1.138544	-0.464796	0.464802
C42	C	0.905524	-0.464657	0.716355
C43	C	0.905543	-0.464620	0.823569
C44	C	0.905548	-0.213149	0.464806
C45	C	0.905577	-0.105935	0.464824
C46	C	0.905471	-0.464757	0.214148
C47	C	0.905574	-0.464522	0.106935
C48	C	0.905560	-0.464555	1.019865
C49	C	0.905548	-0.464594	0.910632
H50	H	0.465201	-0.451116	0.622461
O51	O	0.337729	-0.480324	0.284103
H52	H	0.307906	-0.545671	0.285504
O53	O	0.539656	-0.336653	0.593189
H54	H	0.552227	-0.353290	0.668866
H55	H	0.144670	-0.352999	0.576901
H56	H	0.263292	-0.576569	0.352688
H57	H	0.667013	-0.352927	0.576858
O58	O	0.135916	-0.592874	0.336363
H59	H	0.169642	-0.635709	0.293384
H60	H	0.666928	-0.576509	0.352646
O61	O	0.539556	-0.592795	0.336312
H62	H	0.573283	-0.635625	0.293331
H63	H	0.263377	-0.352981	0.576888
H64	H	0.346489	-0.451135	0.622475
O65	O	0.473749	-0.480341	0.284092
H66	H	0.461179	-0.548940	0.248005
