data_functionalizedCrystal
_audit_creation_method	'MofGen! by Chris Wilmer'
_symmetry_space_group_name_H-M	'P1'
_symmetry_Int_Tables_number	1
_symmetry_cell_setting	triclinic
loop_
_symmetry_equiv_pos_as_xyz
  x,y,z
_cell_length_a	17.077404
_cell_length_b	16.625545
_cell_length_c	17.077396
_cell_angle_alpha	90.028053
_cell_angle_beta	89.980223
_cell_angle_gamma	89.980577
loop_
_atom_site_label
_atom_site_type_symbol
_atom_site_fract_x
_atom_site_fract_y
_atom_site_fract_z
Zn1	Zn	1.200048	0.321101	-0.443851
Zn2	Zn	1.533382	0.654434	-0.110517
Zn3	Zn	1.866715	0.987768	0.222816
Zn4	Zn	1.199953	0.455944	-0.312586
Zn5	Zn	1.533286	0.789277	0.020748
Zn6	Zn	1.866619	1.122610	0.354081
Zn7	Zn	1.068780	0.321118	-0.312598
Zn8	Zn	1.402113	0.654451	0.020735
Zn9	Zn	1.735447	0.987784	0.354069
Zn10	Zn	1.068745	0.455884	-0.443809
Zn11	Zn	1.402079	0.789218	-0.110475
Zn12	Zn	1.735412	1.122551	0.222858
O13	O	1.134382	0.388512	-0.378211
O14	O	1.467715	0.721845	-0.044878
O15	O	1.801048	1.055178	0.288456
O16	O	1.309883	0.339006	-0.426451
O17	O	1.643216	0.672339	-0.093117
O18	O	1.976549	1.005672	0.240216
O19	O	1.182527	0.438091	-0.202740
O20	O	1.515860	0.771424	0.130593
O21	O	1.849194	1.104757	0.463926
O22	O	1.086248	0.208283	-0.330032
O23	O	1.419581	0.541616	0.003302
O24	O	1.752914	0.874950	0.336635
O25	O	1.309812	0.438074	-0.330011
O26	O	1.643146	0.771407	0.003323
O27	O	1.976479	1.104741	0.336656
O28	O	1.182690	0.208271	-0.426463
O29	O	1.516023	0.541604	-0.093129
O30	O	1.849356	0.874937	0.240204
O31	O	1.086155	0.339035	-0.202749
O32	O	1.419488	0.672368	0.130584
O33	O	1.752822	1.005701	0.463917
O34	O	0.958929	0.338977	-0.329991
O35	O	1.292262	0.672310	0.003342
O36	O	1.625595	1.005644	0.336676
O37	O	1.086189	0.437973	-0.553661
O38	O	1.419522	0.771306	-0.220328
O39	O	1.752855	1.104640	0.113005
O40	O	0.958903	0.437990	-0.426391
O41	O	1.292237	0.771323	-0.093058
O42	O	1.625570	1.104656	0.240276
O43	O	1.182656	0.338948	-0.553692
O44	O	1.515990	0.672282	-0.220359
O45	O	1.849323	1.005615	0.112974
O46	O	1.182493	0.568768	-0.329970
O47	O	1.515827	0.902101	0.003363
O48	O	1.849160	1.235435	0.336697
O49	O	1.086096	0.568725	-0.426379
O50	O	1.419429	0.902058	-0.093046
O51	O	1.752763	1.235391	0.240288
C52	C	0.930434	0.388479	-0.378188
C53	C	1.263767	0.721813	-0.044855
C54	C	1.597100	1.055146	0.288478
C55	C	0.843184	0.388485	-0.378197
C56	C	1.176517	0.721818	-0.044864
C57	C	1.509851	1.055152	0.288470
C58	C	0.467377	0.440183	-0.428350
C59	C	0.800710	0.773516	-0.095017
C60	C	1.134044	1.106849	0.238317
C61	C	0.549357	0.440172	-0.428338
C62	C	0.882691	0.773506	-0.095005
C63	C	1.216024	1.106839	0.238329
C64	C	0.590335	0.388533	-0.378223
C65	C	0.923668	0.721866	-0.044890
C66	C	1.257002	1.055200	0.288443
C67	C	0.549328	0.336907	-0.328112
C68	C	0.882661	0.670240	0.005221
C69	C	1.215995	1.003573	0.338555
C70	C	0.467349	0.336922	-0.328120
C71	C	0.800683	0.670255	0.005213
C72	C	1.134016	1.003589	0.338546
C73	C	0.720198	0.336877	-0.328099
C74	C	1.053532	0.670211	0.005234
C75	C	1.386865	1.003544	0.338568
C76	C	0.802183	0.336861	-0.328091
C77	C	1.135516	0.670194	0.005242
C78	C	1.468849	1.003528	0.338575
C79	C	0.802206	0.440128	-0.428316
C80	C	1.135540	0.773461	-0.094983
C81	C	1.468873	1.106794	0.238350
C82	C	0.720227	0.440143	-0.428325
C83	C	1.053561	0.773476	-0.094992
C84	C	1.386894	1.106810	0.238342
C85	C	0.679226	0.388515	-0.378214
C86	C	1.012559	0.721849	-0.044881
C87	C	1.345893	1.055182	0.288452
C88	C	1.134302	0.598003	-0.378186
C89	C	1.467635	0.931336	-0.044852
C90	C	1.800968	1.264669	0.288481
C91	C	1.134339	0.687624	-0.378201
C92	C	1.467673	1.020957	-0.044868
C93	C	1.801006	1.354290	0.288466
C94	C	1.134468	1.015799	-0.378295
C95	C	1.467801	1.349133	-0.044962
C96	C	1.801134	1.682466	0.288372
C97	C	1.134429	0.924491	-0.378271
C98	C	1.467763	1.257824	-0.044938
C99	C	1.801096	1.591157	0.288396
C100	C	1.134403	0.851714	-0.378248
C101	C	1.467736	1.185048	-0.044914
C102	C	1.801070	1.518381	0.288419
C103	C	1.134366	0.760400	-0.378225
C104	C	1.467699	1.093733	-0.044891
C105	C	1.801033	1.427067	0.288442
C106	C	1.339126	0.388545	-0.378234
C107	C	1.672459	0.721878	-0.044901
C108	C	2.005793	1.055211	0.288433
C109	C	1.426376	0.388559	-0.378244
C110	C	1.759709	0.721892	-0.044911
C111	C	2.093042	1.055225	0.288423
C112	C	1.134429	0.388452	-0.582955
C113	C	1.467763	0.721786	-0.249622
C114	C	1.801096	1.055119	0.083711
C115	C	1.134449	0.388427	-0.670205
C116	C	1.467783	0.721760	-0.336872
C117	C	1.801116	1.055094	-0.003538
C118	C	1.134477	1.178203	-0.378263
C119	C	1.467810	1.511536	-0.044929
C120	C	1.801143	1.844869	0.288404
C121	C	1.134500	1.088582	-0.378308
C122	C	1.467833	1.421915	-0.044975
C123	C	1.801167	1.755248	0.288359
C124	C	1.184682	0.336860	-0.711213
C125	C	1.518015	0.670194	-0.377879
C126	C	1.851349	1.003527	-0.044546
C127	C	1.184691	0.336834	-0.793193
C128	C	1.518025	0.670167	-0.459860
C129	C	1.851358	1.003500	-0.126526
C130	C	1.134472	0.388378	-0.834165
C131	C	1.467805	0.721711	-0.500831
C132	C	1.801138	1.055045	-0.167498
C133	C	1.084234	0.439947	-0.793151
C134	C	1.417567	0.773280	-0.459818
C135	C	1.750900	1.106613	-0.126485
C136	C	1.084221	0.439969	-0.711172
C137	C	1.417554	0.773302	-0.377839
C138	C	1.750887	1.106636	-0.044506
C139	C	1.084265	0.439898	-0.964021
C140	C	1.417599	0.773232	-0.630688
C141	C	1.750932	1.106565	-0.297355
C142	C	1.084279	0.439877	-1.046006
C143	C	1.417612	0.773211	-0.712673
C144	C	1.750946	1.106544	-0.379339
C145	C	1.184736	0.336763	-1.046042
C146	C	1.518069	0.670096	-0.712709
C147	C	1.851402	1.003430	-0.379376
C148	C	1.184723	0.336785	-0.964063
C149	C	1.518056	0.670118	-0.630730
C150	C	1.851390	1.003452	-0.297397
C151	C	1.134486	0.388355	-0.923056
C152	C	1.467819	0.721689	-0.589722
C153	C	1.801152	1.055022	-0.256389
C154	C	1.134380	0.388513	-0.174263
C155	C	1.467713	0.721846	0.159070
C156	C	1.801046	1.055179	0.492404
C157	C	1.134511	0.388311	-0.087014
C158	C	1.467845	0.721644	0.246320
C159	C	1.801178	1.054977	0.579653
H160	H	0.582699	0.294865	-0.287304
H161	H	0.916032	0.628198	0.046029
H162	H	1.249365	0.961531	0.379362
O163	O	0.846386	0.281172	-0.274036
O164	O	1.179719	0.614505	0.059297
O165	O	1.513052	0.947838	0.392631
H166	H	0.804104	0.245283	-0.239183
H167	H	1.137437	0.578616	0.094150
H168	H	1.470771	0.911950	0.427483
H169	H	1.225640	0.294771	-1.079435
H170	H	1.558973	0.628105	-0.746101
H171	H	1.892306	0.961438	-0.412768
H172	H	0.686866	0.482188	-0.469136
H173	H	1.020199	0.815522	-0.135803
H174	H	1.353532	1.148855	0.197530
O175	O	1.238852	0.281264	-0.667030
O176	O	1.572185	0.614597	-0.333696
O177	O	1.905519	0.947931	-0.000363
H178	H	1.278772	0.317370	-0.629687
H179	H	1.612105	0.650703	-0.296354
H180	H	1.945439	0.984037	0.036980
O181	O	0.423120	0.281238	-0.274082
O182	O	0.756453	0.614572	0.059251
O183	O	1.089787	0.947905	0.392584
H184	H	0.465385	0.245321	-0.239238
H185	H	0.798719	0.578654	0.094095
H186	H	1.132052	0.911988	0.427428
H187	H	1.043308	0.481952	-0.677785
H188	H	1.376642	0.815285	-0.344452
H189	H	1.709975	1.148618	-0.011118
H190	H	1.043384	0.481848	-1.079363
H191	H	1.376717	0.815181	-0.746030
H192	H	1.710051	1.148514	-0.412696
O193	O	0.423154	0.495879	-0.482382
O194	O	0.756488	0.829212	-0.149049
O195	O	1.089821	1.162545	0.184284
H196	H	0.385783	0.536835	-0.447152
H197	H	0.719116	0.870169	-0.113819
H198	H	1.052450	1.203502	0.219515
H199	H	0.835594	0.482163	-0.469120
H200	H	1.168927	0.815496	-0.135787
H201	H	1.502260	1.148829	0.197546
O202	O	1.238890	0.281197	-0.919867
O203	O	1.572224	0.614530	-0.586534
O204	O	1.905557	0.947864	-0.253201
H205	H	1.273822	0.245329	-0.962153
H206	H	1.607155	0.578662	-0.628820
H207	H	1.940488	0.911996	-0.295487
O208	O	1.030077	0.495513	-0.919787
O209	O	1.363411	0.828847	-0.586454
O210	O	1.696744	1.162180	-0.253120
H211	H	0.995162	0.531356	-0.962048
H212	H	1.328495	0.864690	-0.628715
H213	H	1.661828	1.198023	-0.295381
H214	H	1.043341	0.481912	-0.826517
H215	H	1.376674	0.815245	-0.493183
H216	H	1.710008	1.148579	-0.159850
H217	H	1.225598	0.294845	-0.826578
H218	H	1.558931	0.628178	-0.493244
H219	H	1.892264	0.961512	-0.159911
O220	O	0.593583	0.495845	-0.482387
O221	O	0.926917	0.829178	-0.149054
O222	O	1.260250	1.162512	0.184280
H223	H	0.551316	0.531746	-0.517245
H224	H	0.884650	0.865079	-0.183912
H225	H	1.217983	1.198412	0.149422
H226	H	0.686817	0.294835	-0.287295
H227	H	1.020151	0.628168	0.046038
H228	H	1.353484	0.961502	0.379372
