data_functionalizedCrystal
_audit_creation_method	'MofGen! by Chris Wilmer'
_symmetry_space_group_name_H-M	'P1'
_symmetry_Int_Tables_number	1
_symmetry_cell_setting	triclinic
loop_
_symmetry_equiv_pos_as_xyz
  x,y,z
_cell_length_a	17.077404
_cell_length_b	15.297327
_cell_length_c	17.077396
_cell_angle_alpha	99.647268
_cell_angle_beta	89.980499
_cell_angle_gamma	99.707136
loop_
_atom_site_label
_atom_site_type_symbol
_atom_site_fract_x
_atom_site_fract_y
_atom_site_fract_z
Zn1	Zn	1.145953	-0.359161	-0.497895
Zn2	Zn	1.123133	-0.510035	-0.389335
Zn3	Zn	1.014680	-0.359192	-0.366647
Zn4	Zn	0.991934	-0.509981	-0.520550
O5	O	1.068925	-0.434592	-0.443607
O6	O	1.252771	-0.379184	-0.483507
O7	O	1.108715	-0.490061	-0.276484
O8	O	1.051163	-0.232941	-0.365082
O9	O	1.236005	-0.490030	-0.403749
O10	O	1.147608	-0.232918	-0.461508
O11	O	1.029035	-0.379238	-0.259815
O12	O	0.901817	-0.379186	-0.387050
O13	O	1.012395	-0.489939	-0.627386
O14	O	0.885105	-0.489970	-0.500121
O15	O	1.125553	-0.379132	-0.610742
O16	O	1.086659	-0.636275	-0.425717
O17	O	0.990268	-0.636236	-0.522120
C18	C	0.864979	-0.434576	-0.443583
C19	C	0.777727	-0.434591	-0.443594
C20	C	0.728043	-0.492363	-0.502403
C21	C	0.646062	-0.492365	-0.502416
C22	C	0.613767	-0.434599	-0.443616
C23	C	0.663458	-0.376820	-0.384804
C24	C	0.745438	-0.376814	-0.384795
C25	C	0.492585	-0.376838	-0.384825
C26	C	0.410599	-0.376844	-0.384833
C27	C	0.393210	-0.492389	-0.502446
C28	C	0.475189	-0.492383	-0.502438
C29	C	0.524875	-0.434605	-0.443624
C30	C	1.033541	-0.668990	-0.478856
C31	C	1.018475	-0.769266	-0.493962
C32	C	1.176925	-1.051885	-0.335910
C33	C	1.191079	-0.957670	-0.321713
C34	C	1.147930	-0.910565	-0.364774
C35	C	1.090623	-0.957683	-0.422034
C36	C	1.076462	-1.051907	-0.436228
C37	C	1.047467	-0.910586	-0.465092
C38	C	0.990160	-0.957705	-0.522352
C39	C	0.976003	-1.051919	-0.536544
C40	C	1.019152	-1.099025	-0.493483
C41	C	1.061628	-0.816363	-0.450898
C42	C	0.961165	-0.816384	-0.551217
C43	C	0.947010	-0.910599	-0.565413
C44	C	1.273666	-0.434609	-0.443632
C45	C	1.360915	-0.434617	-0.443642
C46	C	1.068982	-0.434526	-0.648341
C47	C	1.069007	-0.434498	-0.735587
C48	C	1.104468	-0.199279	-0.408237
C49	C	1.119615	-0.099003	-0.393165
C50	C	1.127930	-0.376795	-0.767910
C51	C	1.127944	-0.376765	-0.849886
C52	C	1.069037	-0.434443	-0.899538
C53	C	1.010108	-0.492147	-0.867209
C54	C	1.010091	-0.492172	-0.785234
C55	C	1.010148	-0.492093	-1.038071
C56	C	1.010165	-0.492070	-1.120052
C57	C	1.128000	-0.376686	-1.102724
C58	C	1.127984	-0.376711	-1.020748
C59	C	1.069055	-0.434417	-0.988425
C60	C	1.068922	-0.434593	-0.239659
C61	C	1.069088	-0.434368	-0.152376
H62	H	0.501481	-0.539426	-0.550314
H63	H	0.926027	-0.778032	-0.586279
H64	H	0.785891	-0.329765	-0.336910
C65	C	1.191768	-0.314116	-0.713900
C66	C	1.156043	-0.256318	-0.658127
C67	C	1.214823	-0.198568	-0.608356
H68	H	1.226890	-0.279659	-0.744792
H69	H	1.220745	-0.348610	-0.687064
H70	H	1.127079	-0.221827	-0.684961
H71	H	1.120926	-0.290750	-0.627216
H72	H	1.243801	-0.233063	-0.581520
H73	H	1.249942	-0.164118	-0.639255
H74	H	1.190592	-0.159351	-0.570504
H75	H	1.108287	-0.778007	-0.404277
H76	H	0.962196	-0.539034	-1.160477
H77	H	0.605612	-0.539410	-0.550304
H78	H	0.962151	-0.539070	-1.011755
C79	C	1.003872	-1.201319	-0.509046
C80	C	1.019205	-1.232408	-0.588478
C81	C	1.005153	-1.326636	-0.602840
H82	H	0.950023	-1.222816	-0.498713
H83	H	1.037803	-1.222652	-0.475244
H84	H	0.985275	-1.211083	-0.622269
H85	H	1.073050	-1.210935	-0.598829
H86	H	1.039084	-1.347969	-0.569038
H87	H	0.951305	-1.348125	-0.592503
H88	H	1.015562	-1.347742	-0.656733
H89	H	0.754331	-0.539406	-0.550283
H90	H	0.962142	-0.539106	-0.907641
C91	C	0.339143	-0.555017	-0.566261
C92	C	0.260440	-0.542641	-0.553702
C93	C	0.210610	-0.600311	-0.612473
H94	H	0.343325	-0.615653	-0.563851
H95	H	0.354542	-0.541883	-0.617062
H96	H	0.245045	-0.555781	-0.502914
H97	H	0.256233	-0.482018	-0.556120
H98	H	0.226009	-0.587177	-0.663274
H99	H	0.214799	-0.660942	-0.610059
H100	H	0.157205	-0.591915	-0.603964
C101	C	0.375691	-0.314023	-0.320953
C102	C	0.436751	-0.263399	-0.269461
C103	C	0.404624	-0.205510	-0.210612
H104	H	0.338507	-0.348383	-0.291800
H105	H	0.349672	-0.274719	-0.345118
H106	H	0.462757	-0.302698	-0.245298
H107	H	0.473938	-0.229021	-0.298591
H108	H	0.378605	-0.166206	-0.234777
H109	H	0.367441	-0.239878	-0.181465
H110	H	0.446049	-0.171149	-0.175672
C111	C	0.946081	-0.554933	-0.750295
C112	C	0.894512	-0.605463	-0.811324
C113	C	0.835543	-0.663300	-0.779171
H114	H	0.916997	-0.520540	-0.713132
H115	H	0.970149	-0.594299	-0.724258
H116	H	0.870446	-0.566102	-0.837348
H117	H	0.923573	-0.639875	-0.848492
H118	H	0.859611	-0.702666	-0.753135
H119	H	0.806465	-0.628899	-0.742009
H120	H	0.800551	-0.697597	-0.820575
C121	C	0.546611	-0.314258	-0.320947
C122	C	0.585968	-0.365270	-0.278246
C123	C	0.635751	-0.307660	-0.219402
H124	H	0.515733	-0.279835	-0.285846
H125	H	0.584576	-0.275005	-0.345102
H126	H	0.548008	-0.404507	-0.254091
H127	H	0.616860	-0.399692	-0.313324
H128	H	0.673716	-0.268407	-0.243557
H129	H	0.604867	-0.273239	-0.184307
H130	H	0.662466	-0.342262	-0.190427
H131	H	1.159457	-0.833851	-0.353211
C132	C	1.253362	-0.906679	-0.259550
C133	C	1.288137	-0.968094	-0.224894
C134	C	1.345527	-0.921153	-0.167633
H135	H	1.228959	-0.869974	-0.219721
H136	H	1.293117	-0.869890	-0.284052
H137	H	1.248389	-1.004868	-0.200392
H138	H	1.312555	-1.004801	-0.264703
H139	H	1.385282	-0.884364	-0.192135
H140	H	1.321118	-0.884449	-0.127809
H141	H	1.369134	-0.962816	-0.144117
C142	C	1.223684	-1.103190	-0.289244
C143	C	1.199015	-1.195786	-0.313931
C144	C	1.242070	-1.243077	-0.270951
H145	H	1.214548	-1.087893	-0.234165
H146	H	1.278766	-1.087765	-0.298436
H147	H	1.143947	-1.211205	-0.304733
H148	H	1.208154	-1.211111	-0.369004
H149	H	1.297152	-1.227652	-0.280143
H150	H	1.232930	-1.227772	-0.215874
H151	H	1.225343	-1.305908	-0.287700
C152	C	0.913773	-1.102915	-0.598767
C153	C	0.879028	-1.041501	-0.633455
C154	C	0.821707	-1.088443	-0.690785
H155	H	0.873986	-1.139727	-0.574340
H156	H	0.938252	-1.139597	-0.638564
H157	H	0.854549	-1.004834	-0.593665
H158	H	0.918795	-1.004687	-0.657898
H159	H	0.846186	-1.125125	-0.730582
H160	H	0.781926	-1.125254	-0.666352
H161	H	0.798131	-1.046781	-0.714333
C162	C	1.192013	-0.314086	-0.884835
C163	C	1.243613	-0.263603	-0.823810
C164	C	1.302651	-0.205859	-0.855974
H165	H	1.168034	-0.274681	-0.910889
H166	H	1.221051	-0.348574	-0.921988
H167	H	1.214580	-0.229118	-0.786670
H168	H	1.267612	-0.302984	-0.797750
H169	H	1.331689	-0.240347	-0.893128
H170	H	1.278665	-0.166460	-0.882028
H171	H	1.337673	-0.171605	-0.814575
C172	C	1.192089	-0.314140	-1.137793
C173	C	1.266783	-0.333815	-1.120846
C174	C	1.325838	-0.276231	-1.153155
H175	H	1.189867	-0.253494	-1.115274
H176	H	1.183710	-0.322392	-1.193733
H177	H	1.275161	-0.325556	-1.064917
H178	H	1.269032	-0.394451	-1.143366
H179	H	1.317458	-0.284483	-1.209094
H180	H	1.323607	-0.215588	-1.130633
H181	H	1.376523	-0.289577	-1.141667
H182	H	0.637157	-0.329781	-0.336930
H183	H	0.900350	-0.948976	-0.612035
H184	H	1.175955	-0.329750	-0.980324
