data_functionalizedCrystal
_audit_creation_method	'MofGen! by Chris Wilmer'
_symmetry_space_group_name_H-M	'P1'
_symmetry_Int_Tables_number	1
_symmetry_cell_setting	triclinic
loop_
_symmetry_equiv_pos_as_xyz
  x,y,z
_cell_length_a	18.050589
_cell_length_b	16.959455
_cell_length_c	16.959447
_cell_angle_alpha	90.026816
_cell_angle_beta	89.976922
_cell_angle_gamma	89.976786
loop_
_atom_site_label
_atom_site_type_symbol
_atom_site_fract_x
_atom_site_fract_y
_atom_site_fract_z
Zn1	Zn	-0.295770	-1.208364	-0.447125
Zn2	Zn	0.204230	-0.708364	0.052875
Zn3	Zn	-0.419964	-1.208260	-0.314955
Zn4	Zn	0.080036	-0.708260	0.185045
Zn5	Zn	-0.295781	-1.076185	-0.314941
Zn6	Zn	0.204219	-0.576185	0.185059
Zn7	Zn	-0.419912	-1.076138	-0.447072
Zn8	Zn	0.080088	-0.576138	0.052928
O9	O	-0.357857	-1.142237	-0.381024
O10	O	0.142143	-0.642237	0.118976
O11	O	-0.312262	-1.318961	-0.429621
O12	O	0.187738	-0.818961	0.070379
O13	O	-0.403517	-1.190716	-0.204343
O14	O	0.096483	-0.690716	0.295657
O15	O	-0.191855	-1.093782	-0.332492
O16	O	0.308145	-0.593782	0.167508
O17	O	-0.403506	-1.318885	-0.332516
O18	O	0.096494	-0.818885	0.167484
O19	O	-0.191847	-1.190893	-0.429607
O20	O	0.308153	-0.690893	0.070393
O21	O	-0.312281	-1.093681	-0.204332
O22	O	0.187719	-0.593681	0.295668
O23	O	-0.312231	-0.965568	-0.332441
O24	O	0.187769	-0.465568	0.167559
O25	O	-0.403418	-1.093702	-0.557690
O26	O	0.096582	-0.593702	-0.057690
O27	O	-0.403429	-0.965533	-0.429517
O28	O	0.096571	-0.465533	0.070483
O29	O	-0.312211	-1.190848	-0.557729
O30	O	0.187789	-0.690848	-0.057729
O31	O	-0.523882	-1.190671	-0.332465
O32	O	-0.023882	-0.690671	0.167535
O33	O	-0.523843	-1.093601	-0.429531
O34	O	-0.023843	-0.593601	0.070469
C35	C	-0.357826	-0.936871	-0.380972
C36	C	0.142174	-0.436871	0.119028
C37	C	-0.357830	-0.849014	-0.380969
C38	C	0.142170	-0.349014	0.119031
C39	C	-0.405299	-0.477488	-0.330398
C40	C	0.094701	0.022512	0.169602
C41	C	-0.310432	-0.477589	-0.431670
C42	C	0.189568	0.022411	0.068330
C43	C	-0.310423	-0.560134	-0.431656
C44	C	0.189577	-0.060134	0.068344
C45	C	-0.357853	-0.601361	-0.381012
C46	C	0.142147	-0.101361	0.118988
C47	C	-0.405292	-0.560042	-0.330383
C48	C	0.094708	-0.060042	0.169617
C49	C	-0.262990	-0.601460	-0.482289
C50	C	0.237010	-0.101460	0.017711
C51	C	-0.262979	-0.684011	-0.482278
C52	C	0.237021	-0.184011	0.017722
C53	C	-0.310406	-0.725239	-0.431629
C54	C	0.189594	-0.225239	0.068371
C55	C	-0.357846	-0.683915	-0.380998
C56	C	0.142154	-0.183915	0.119002
C57	C	-0.405276	-0.725141	-0.330354
C58	C	0.094724	-0.225141	0.169646
C59	C	-0.452714	-0.683818	-0.279718
C60	C	0.047286	-0.183818	0.220282
C61	C	-0.452719	-0.601270	-0.279735
C62	C	0.047281	-0.101270	0.220265
C63	C	-0.310400	-0.807787	-0.431612
C64	C	0.189600	-0.307787	0.068388
C65	C	-0.405270	-0.807695	-0.330340
C66	C	0.094730	-0.307695	0.169660
C67	C	-0.550809	-1.142141	-0.381011
C68	C	-0.050809	-0.642141	0.118989
C69	C	-0.633355	-1.142173	-0.381031
C70	C	-0.133355	-0.642173	0.118969
C71	C	-0.832812	-1.089438	-0.433797
C72	C	-0.332812	-0.589438	0.066203
C73	C	-0.882250	-1.070171	-0.361667
C74	C	-0.382250	-0.570171	0.138333
C75	C	-0.784485	-1.142251	-0.381042
C76	C	-0.284485	-0.642251	0.118958
C77	C	-0.882129	-1.161556	-0.453180
C78	C	-0.382129	-0.661556	0.046820
C79	C	-0.930470	-1.142324	-0.381058
C80	C	-0.430470	-0.642324	0.118942
C81	C	-0.832836	-1.122946	-0.308873
C82	C	-0.332836	-0.622946	0.191127
C83	C	-0.832711	-1.214364	-0.400435
C84	C	-0.332711	-0.714364	0.099565
C85	C	-0.882126	-1.195125	-0.328255
C86	C	-0.382126	-0.695125	0.171745
C87	C	-0.700387	-1.142206	-0.381033
C88	C	-0.200387	-0.642206	0.118967
C89	C	-1.014567	-1.142369	-0.381058
C90	C	-0.514567	-0.642369	0.118942
C91	C	-0.164151	-1.142354	-0.381054
C92	C	0.335849	-0.642354	0.118946
C93	C	-0.081605	-1.142404	-0.381067
C94	C	0.418395	-0.642404	0.118933
C95	C	-0.357807	-1.142281	-0.587192
C96	C	0.142193	-0.642281	-0.087192
C97	C	-0.357786	-1.142300	-0.675049
C98	C	0.142214	-0.642300	-0.175049
C99	C	-0.357880	-0.348405	-0.381062
C100	C	0.142120	0.151595	0.118938
C101	C	-0.357869	-0.436262	-0.381041
C102	C	0.142131	0.063738	0.118959
C103	C	-0.405264	-1.091731	-0.716304
C104	C	0.094736	-0.591731	-0.216304
C105	C	-0.310284	-1.192883	-0.716347
C106	C	0.189716	-0.692883	-0.216347
C107	C	-0.310260	-1.192899	-0.798893
C108	C	0.189740	-0.692899	-0.298893
C109	C	-0.357738	-1.142330	-0.840148
C110	C	0.142262	-0.642330	-0.340148
C111	C	-0.405240	-1.091744	-0.798858
C112	C	0.094760	-0.591744	-0.298858
C113	C	-0.262753	-1.243478	-0.840190
C114	C	0.237247	-0.743478	-0.340190
C115	C	-0.262726	-1.243496	-0.922741
C116	C	0.237274	-0.743496	-0.422741
C117	C	-0.310208	-1.192930	-0.963998
C118	C	0.189792	-0.692930	-0.463998
C119	C	-0.357713	-1.142343	-0.922702
C120	C	0.142287	-0.642343	-0.422702
C121	C	-0.405191	-1.091773	-0.963957
C122	C	0.094809	-0.591773	-0.463957
C123	C	-0.452700	-1.041190	-0.922663
C124	C	0.047300	-0.541190	-0.422663
C125	C	-0.452722	-1.041178	-0.840114
C126	C	0.047278	-0.541178	-0.340114
C127	C	-0.310186	-1.192942	-1.046546
C128	C	0.189814	-0.692942	-0.546546
C129	C	-0.405167	-1.091787	-1.046511
C130	C	0.094833	-0.591787	-0.546511
C131	C	-0.357852	-1.142238	-0.175657
C132	C	0.142148	-0.642238	0.324343
C133	C	-0.357664	-1.142372	-0.087801
C134	C	0.142336	-0.642372	0.412199
H135	H	-0.224352	-0.717649	-0.523508
H136	H	0.275648	-0.217649	-0.023508
O137	O	-0.804287	-1.101261	-0.228045
O138	O	-0.304287	-0.601261	0.271955
H139	H	-0.770113	-1.047034	-0.232296
H140	H	-0.270113	-0.547034	0.267704
O141	O	-0.456371	-1.037236	-1.091005
O142	O	0.043629	-0.537236	-0.591005
H143	H	-0.514664	-1.050754	-1.075160
H144	H	-0.014664	-0.550754	-0.575160
O145	O	-0.804121	-1.030195	-0.492808
O146	O	-0.304121	-0.530195	0.007192
H147	H	-0.770249	-1.061014	-0.537943
H148	H	-0.270249	-0.561014	-0.037943
O149	O	-0.456459	-0.432927	-0.275780
O150	O	0.043541	0.067073	0.224220
H151	H	-0.494295	-0.395327	-0.311089
H152	H	0.005705	0.104673	0.188911
O153	O	-0.910635	-1.254330	-0.269109
O154	O	-0.410635	-0.754330	0.230891
H155	H	-0.890786	-1.238150	-0.209319
H156	H	-0.390786	-0.738150	0.290681
H157	H	-0.903781	-1.177856	-0.514180
H158	H	-0.403781	-0.677856	-0.014180
O159	O	-0.804028	-1.295171	-0.422094
O160	O	-0.304028	-0.795171	0.077906
H161	H	-0.823795	-1.311068	-0.481991
H162	H	-0.323795	-0.811068	0.018009
O163	O	-0.503905	-0.986642	-0.967161
O164	O	-0.003905	-0.486642	-0.467161
H165	H	-0.495902	-0.995153	-1.031498
H166	H	0.004098	-0.495153	-0.531498
H167	H	-0.904026	-1.009222	-0.345279
H168	H	-0.404026	-0.509222	0.154721
H169	H	-0.271821	-0.444017	-0.472906
H170	H	0.228179	0.055983	0.027094
H171	H	-0.491401	-0.999994	-0.806485
H172	H	0.008599	-0.499994	-0.306485
O173	O	-0.211552	-1.298025	-0.795698
O174	O	0.288448	-0.798025	-0.295698
H175	H	-0.219561	-1.289526	-0.731359
H176	H	0.280439	-0.789526	-0.231359
H177	H	-0.271626	-1.234050	-0.682752
H178	H	0.228374	-0.734050	-0.182752
O179	O	-0.211495	-1.298058	-0.967279
O180	O	0.288505	-0.798058	-0.467279
H181	H	-0.178490	-1.333223	-0.924722
H182	H	0.321510	-0.833223	-0.424722
O183	O	-0.456501	-1.037169	-0.671774
O184	O	0.043499	-0.537169	-0.171774
H185	H	-0.448543	-1.045648	-0.607441
H186	H	0.051457	-0.545648	-0.107441
O187	O	-0.258950	-1.247482	-1.091098
O188	O	0.241050	-0.747482	-0.591098
H189	H	-0.271691	-1.309514	-1.075285
H190	H	0.228309	-0.809514	-0.575285
O191	O	-0.456425	-0.852161	-0.275714
O192	O	0.043575	-0.352161	0.224286
H193	H	-0.489412	-0.809556	-0.240513
H194	H	0.010588	-0.309556	0.259487
H195	H	-0.491340	-0.567617	-0.238509
H196	H	0.008660	-0.067617	0.261491
O197	O	-0.503865	-0.728289	-0.225091
O198	O	-0.003865	-0.228289	0.274909
H199	H	-0.541686	-0.765911	-0.260395
H200	H	-0.041686	-0.265911	0.239605
H201	H	-0.271779	-0.841429	-0.472841
H202	H	0.228221	-0.341429	0.027159
O203	O	-0.211829	-0.556999	-0.536904
O204	O	0.288171	-0.056999	-0.036904
H205	H	-0.219794	-0.492656	-0.528396
H206	H	0.280206	0.007344	-0.028396
