data_functionalizedCrystal
_audit_creation_method	'MofGen! by Chris Wilmer'
_symmetry_space_group_name_H-M	'P1'
_symmetry_Int_Tables_number	1
_symmetry_cell_setting	triclinic
loop_
_symmetry_equiv_pos_as_xyz
  x,y,z
_cell_length_a	21.395362
_cell_length_b	21.295417
_cell_length_c	21.395355
_cell_angle_alpha	89.978549
_cell_angle_beta	89.956060
_cell_angle_gamma	90.046383
loop_
_atom_site_label
_atom_site_type_symbol
_atom_site_fract_x
_atom_site_fract_y
_atom_site_fract_z
Zn1	Zn	0.957860	-0.250415	-0.354573
Zn2	Zn	0.957763	-0.355667	-0.249790
Zn3	Zn	0.853075	-0.250445	-0.249774
Zn4	Zn	0.853045	-0.355680	-0.354495
O5	O	0.905436	-0.303052	-0.302158
O6	O	1.045525	-0.264359	-0.340713
O7	O	0.943848	-0.341716	-0.162110
O8	O	0.867029	-0.162351	-0.263702
O9	O	1.045454	-0.341687	-0.263729
O10	O	0.944014	-0.162330	-0.340697
O11	O	0.866934	-0.264409	-0.162098
O12	O	0.765393	-0.264422	-0.263626
O13	O	0.866977	-0.341709	-0.442183
O14	O	0.765371	-0.341738	-0.340564
O15	O	0.943984	-0.264372	-0.442240
O16	O	0.943819	-0.443758	-0.263653
O17	O	0.866883	-0.443767	-0.340579
C18	C	0.742648	-0.303085	-0.302085
C19	C	0.673007	-0.303114	-0.302069
C20	C	0.640299	-0.343426	-0.342070
C21	C	0.574863	-0.343411	-0.342098
C22	C	0.542139	-0.303090	-0.302114
C23	C	0.574855	-0.262771	-0.262109
C24	C	0.640289	-0.262783	-0.262087
C25	C	0.438414	-0.298019	-0.245709
C26	C	0.372981	-0.298011	-0.245730
C27	C	0.340318	-0.303049	-0.302183
C28	C	0.373096	-0.308108	-0.358616
C29	C	0.438530	-0.308120	-0.358594
C30	C	0.471186	-0.303072	-0.302134
C31	C	0.236657	-0.343346	-0.342218
C32	C	0.171221	-0.343326	-0.342247
C33	C	0.171214	-0.262690	-0.262252
C34	C	0.236649	-0.262706	-0.262229
C35	C	0.269367	-0.303038	-0.302211
C36	C	0.905354	-0.466603	-0.302123
C37	C	0.905376	-0.536571	-0.302129
C38	C	0.945472	-0.569412	-0.262115
C39	C	0.945502	-0.635155	-0.262129
C40	C	0.905424	-0.668054	-0.302151
C41	C	0.865324	-0.635205	-0.342173
C42	C	0.865301	-0.569464	-0.342162
N43	N	0.850614	-0.771336	-0.306903
N44	N	0.850638	-0.833787	-0.306910
C45	C	0.905494	-0.866129	-0.302187
N46	N	0.960325	-0.833659	-0.297445
N47	N	0.960300	-0.771202	-0.297435
C48	C	0.905445	-0.739339	-0.302167
C49	C	0.945625	-0.970255	-0.262186
C50	C	0.945656	-1.035999	-0.262204
C51	C	0.865473	-1.036048	-0.342245
C52	C	0.865448	-0.970305	-0.342230
C53	C	0.905523	-0.937413	-0.302197
C54	C	1.068859	-0.303019	-0.302231
C55	C	1.138501	-0.303005	-0.302262
C56	C	0.905488	-0.303039	-0.465581
C57	C	0.905510	-0.303033	-0.535223
C58	C	0.905535	-0.138861	-0.302206
C59	C	0.905578	-0.068893	-0.302227
C60	C	0.945606	-0.262762	-0.567967
C61	C	0.945605	-0.262735	-0.633402
C62	C	0.905515	-0.302991	-0.666091
C63	C	0.865411	-0.343265	-0.633339
C64	C	0.865409	-0.343286	-0.567905
C65	C	0.900539	-0.359672	-0.769752
C66	C	0.900546	-0.359652	-0.835185
C67	C	0.905519	-0.302924	-0.867912
C68	C	0.910498	-0.246215	-0.835198
C69	C	0.910496	-0.246237	-0.769763
C70	C	0.905513	-0.302972	-0.737043
C71	C	0.945616	-0.262620	-0.971608
C72	C	0.945611	-0.262592	-1.037045
C73	C	0.865420	-0.343127	-1.036981
C74	C	0.865422	-0.343150	-0.971545
C75	C	0.905523	-0.302897	-0.938863
C76	C	0.905420	-0.303019	-0.139370
C77	C	0.905519	-0.302847	-0.069729
H78	H	0.144590	-0.376152	-0.374825
H79	H	0.666933	-0.376266	-0.374628
H80	H	0.346298	-0.293896	-0.199778
H81	H	0.978105	-0.542633	-0.229519
O82	O	0.984606	-0.223739	-0.536184
C83	C	1.025041	-0.259565	-0.498336
H84	H	1.028906	-0.309136	-0.518052
H85	H	1.005650	-0.261759	-0.448736
C86	C	1.085434	-0.167891	-0.473143
C87	C	1.090186	-0.228773	-0.497362
H88	H	1.125618	-0.148896	-0.472539
H89	H	1.058191	-0.143753	-0.498640
H90	H	1.069273	-0.169728	-0.431812
H91	H	1.106340	-0.226935	-0.538694
H92	H	1.117433	-0.252910	-0.471872
O93	O	0.826410	-0.382391	-0.664993
C94	C	0.791030	-0.417953	-0.622057
H95	H	0.788873	-0.392184	-0.575414
H96	H	0.813944	-0.465760	-0.615110
C97	C	0.726992	-0.458682	-0.704836
C98	C	0.724338	-0.427029	-0.647549
H99	H	0.685854	-0.464284	-0.720561
H100	H	0.750829	-0.434725	-0.733763
H101	H	0.746090	-0.498518	-0.699039
H102	H	0.705247	-0.387192	-0.653348
H103	H	0.700495	-0.450980	-0.618623
H104	H	0.914548	-0.200062	-0.743130
H105	H	0.144570	-0.229857	-0.229699
H106	H	0.978259	-0.943473	-0.229590
O107	O	0.984618	-0.223596	-0.665122
C108	C	1.019998	-0.188061	-0.622244
H109	H	1.022148	-0.213856	-0.575599
H110	H	0.997088	-0.140255	-0.615274
C111	C	1.084048	-0.147294	-0.705123
C112	C	1.086693	-0.178978	-0.647834
H113	H	1.125188	-0.141688	-0.720909
H114	H	1.060210	-0.171232	-0.734012
H115	H	1.064954	-0.107459	-0.699307
H116	H	1.105780	-0.218815	-0.653653
H117	H	1.110536	-0.155046	-0.618947
O118	O	0.543166	-0.223545	-0.223247
C119	C	0.586071	-0.187978	-0.187922
H120	H	0.632745	-0.185844	-0.213574
H121	H	0.592957	-0.210960	-0.140292
C122	C	0.503263	-0.123585	-0.147516
C123	C	0.560587	-0.120959	-0.179026
H124	H	0.487542	-0.082246	-0.142026
H125	H	0.474356	-0.147549	-0.171313
H126	H	0.509008	-0.142740	-0.107828
H127	H	0.554839	-0.101812	-0.218716
H128	H	0.589491	-0.096991	-0.155235
O129	O	0.268471	-0.382584	-0.380970
C130	C	0.306249	-0.423189	-0.345213
H131	H	0.286471	-0.427002	-0.295866
H132	H	0.355859	-0.403735	-0.343072
C133	C	0.331513	-0.483990	-0.436313
C134	C	0.307217	-0.488677	-0.375706
H135	H	0.332113	-0.524386	-0.455124
H136	H	0.306063	-0.456633	-0.460405
H137	H	0.372852	-0.467776	-0.434521
H138	H	0.265877	-0.504884	-0.377500
H139	H	0.332661	-0.516039	-0.351615
H140	H	0.914548	-0.200022	-0.861842
O141	O	0.268328	-0.223531	-0.223307
C142	C	0.225416	-0.187927	-0.188032
H143	H	0.178744	-0.213698	-0.185831
H144	H	0.218530	-0.140151	-0.211067
C145	C	0.308213	-0.147107	-0.124061
C146	C	0.250891	-0.178762	-0.121352
H147	H	0.323927	-0.141451	-0.082930
H148	H	0.337124	-0.171092	-0.147827
H149	H	0.302467	-0.107297	-0.143259
H150	H	0.256639	-0.218574	-0.102161
H151	H	0.221981	-0.154783	-0.097581
H152	H	0.832843	-1.062834	-0.374834
H153	H	0.896322	-0.405855	-0.743111
H154	H	0.832755	-0.376079	-0.541245
H155	H	0.832795	-0.943565	-0.374811
H156	H	0.978266	-0.229840	-0.944997
O157	O	0.984470	-0.666968	-0.223196
C158	C	1.019848	-0.623839	-0.187873
H159	H	0.994173	-0.577005	-0.185666
H160	H	1.067423	-0.616782	-0.210869
C161	C	1.060445	-0.707045	-0.123914
C162	C	1.028908	-0.649525	-0.121199
H163	H	1.066036	-0.722890	-0.082788
H164	H	1.036613	-0.736103	-0.147713
H165	H	1.100088	-0.701157	-0.143081
H166	H	0.989263	-0.655415	-0.102040
H167	H	1.052734	-0.620469	-0.097395
H168	H	0.346503	-0.312209	-0.404586
H169	H	0.465215	-0.312237	-0.404544
H170	H	0.666920	-0.229954	-0.229513
O171	O	0.984628	-1.067805	-0.223273
C172	C	1.020002	-1.024672	-0.187951
H173	H	0.994321	-0.977842	-0.185741
H174	H	1.067575	-1.017609	-0.210949
C175	C	1.060612	-1.107875	-0.123996
C176	C	1.029067	-1.050359	-0.121278
H177	H	1.066207	-1.123720	-0.082870
H178	H	1.036782	-1.136935	-0.147795
H179	H	1.100253	-1.101981	-0.143164
H180	H	0.989424	-1.056255	-0.102118
H181	H	1.052891	-1.021301	-0.097474
O182	O	0.826539	-0.382216	-1.068824
C183	C	0.835128	-0.373553	-1.133600
H184	H	0.883491	-0.352917	-1.142573
H185	H	0.797981	-0.340038	-1.152146
C186	C	0.769960	-0.462583	-1.156164
C187	C	0.829362	-0.437242	-1.167185
H188	H	0.766400	-0.501869	-1.176882
H189	H	0.764171	-0.468419	-1.112523
H190	H	0.739010	-0.434649	-1.171620
H191	H	0.860310	-0.465173	-1.151723
H192	H	0.835156	-0.431413	-1.210824
O193	O	0.826455	-0.382332	-0.939831
C194	C	0.791057	-0.417846	-0.982712
H195	H	0.816721	-0.420007	-1.029374
H196	H	0.743487	-0.394799	-0.989638
C197	C	0.750460	-0.482197	-0.899852
C198	C	0.781984	-0.484856	-0.957162
H199	H	0.744860	-0.523531	-0.884091
H200	H	0.774307	-0.458269	-0.870962
H201	H	0.710822	-0.462988	-0.905632
H202	H	0.821624	-0.504057	-0.951380
H203	H	0.758143	-0.508788	-0.986051
O204	O	0.826378	-0.537628	-0.381119
C205	C	0.840057	-0.553626	-0.443587
H206	H	0.864160	-0.601329	-0.444926
H207	H	0.872246	-0.516575	-0.464721
C208	C	0.749356	-0.498124	-0.479818
C209	C	0.778955	-0.556716	-0.481464
H210	H	0.711665	-0.500027	-0.503185
H211	H	0.740140	-0.487343	-0.437733
H212	H	0.776186	-0.467254	-0.497429
H213	H	0.752128	-0.587583	-0.463846
H214	H	0.788164	-0.567502	-0.523548
O215	O	0.543178	-0.382628	-0.380980
C216	C	0.586087	-0.418212	-0.416279
H217	H	0.632701	-0.420367	-0.390597
H218	H	0.593123	-0.395230	-0.463904
C219	C	0.503236	-0.482567	-0.456741
C220	C	0.560486	-0.485219	-0.425195
H221	H	0.487444	-0.523900	-0.462243
H222	H	0.474327	-0.458593	-0.432961
H223	H	0.509107	-0.463414	-0.496425
H224	H	0.554613	-0.504365	-0.385509
H225	H	0.589394	-0.509199	-0.448968
H226	H	0.978261	-0.229795	-1.063704
O227	O	0.895792	-0.414786	-0.866886
C228	C	0.946401	-0.453994	-0.850935
H229	H	0.965692	-0.439445	-0.803441
H230	H	0.984649	-0.449422	-0.887789
C231	C	0.900265	-0.540524	-0.906215
C232	C	0.923955	-0.522657	-0.847880
H233	H	0.886421	-0.582879	-0.904333
H234	H	0.866170	-0.514108	-0.916964
H235	H	0.932143	-0.536709	-0.936920
H236	H	0.892076	-0.526465	-0.817177
H237	H	0.958045	-0.549076	-0.837126
O238	O	0.470114	-0.293240	-0.190841
C239	C	0.454018	-0.344041	-0.151717
H240	H	0.436018	-0.384643	-0.181403
H241	H	0.416018	-0.328708	-0.117615
C242	C	0.534193	-0.315531	-0.078485
C243	C	0.512090	-0.365401	-0.114946
H244	H	0.570013	-0.328706	-0.055801
H245	H	0.545036	-0.281304	-0.104842
H246	H	0.502521	-0.302758	-0.050072
H247	H	0.543759	-0.378168	-0.143364
H248	H	0.501254	-0.399631	-0.088593
O249	O	0.826479	-0.667230	-0.381080
C250	C	0.862146	-0.705183	-0.421608
H251	H	0.909641	-0.714988	-0.399570
H252	H	0.868999	-0.679815	-0.468044
C253	C	0.769353	-0.755623	-0.459985
C254	C	0.827687	-0.767669	-0.432915
H255	H	0.748097	-0.794166	-0.466963
H256	H	0.745323	-0.730051	-0.432683
H257	H	0.775073	-0.734481	-0.498679
H258	H	0.821966	-0.788803	-0.394218
H259	H	0.851715	-0.793246	-0.460211
