data_functionalizedCrystal
_audit_creation_method	'MofGen! by Chris Wilmer'
_symmetry_space_group_name_H-M	'P1'
_symmetry_Int_Tables_number	1
_symmetry_cell_setting	triclinic
loop_
_symmetry_equiv_pos_as_xyz
  x,y,z
_cell_length_a	12.759401
_cell_length_b	18.101395
_cell_length_c	12.759393
_cell_angle_alpha	89.966555
_cell_angle_beta	89.981504
_cell_angle_gamma	90.031265
loop_
_atom_site_label
_atom_site_type_symbol
_atom_site_fract_x
_atom_site_fract_y
_atom_site_fract_z
Zn1	Zn	1.606136	-0.294783	-0.593968
Zn2	Zn	1.605980	-0.418644	-0.418282
Zn3	Zn	1.430438	-0.294822	-0.418307
Zn4	Zn	1.430376	-0.418587	-0.593923
O5	O	1.518232	-0.356709	-0.506120
O6	O	1.753136	-0.311221	-0.570671
O7	O	1.582654	-0.402259	-0.271264
O8	O	1.453835	-0.191183	-0.441638
O9	O	1.753021	-0.402221	-0.441595
O10	O	1.582920	-0.191155	-0.570695
O11	O	1.453684	-0.311287	-0.271283
O12	O	1.283408	-0.311232	-0.441595
O13	O	1.453730	-0.402124	-0.740950
O14	O	1.283363	-0.402162	-0.570619
O15	O	1.582860	-0.311166	-0.740983
O16	O	1.582594	-0.522270	-0.441552
O17	O	1.453579	-0.522228	-0.570595
C18	C	1.245265	-0.356695	-0.506106
C19	C	1.128488	-0.356707	-0.506125
C20	C	1.518092	-0.549120	-0.506089
C21	C	1.518128	-0.631434	-0.506111
C22	C	1.073630	-0.404131	-0.573197
C23	C	0.963906	-0.404140	-0.573208
C24	C	0.963908	-0.309301	-0.439066
C25	C	1.073630	-0.309288	-0.439061
C26	C	1.128488	-0.451550	-0.640260
C27	C	1.073630	-0.498977	-0.707337
C28	C	0.963906	-0.498987	-0.707348
C29	C	0.909040	-0.451568	-0.640283
C30	C	1.518358	-0.930525	-0.506168
C31	C	1.437374	-0.899204	-0.587559
C32	C	1.436989	-0.813586	-0.587305
C33	C	1.518244	-0.782142	-0.506140
C34	C	1.488263	-0.813302	-0.395415
C35	C	1.487741	-0.898947	-0.395903
C36	C	1.629501	-0.898866	-0.534526
C37	C	1.628847	-0.813215	-0.536954
C38	C	1.518181	-0.698283	-0.506118
C39	C	1.518418	-1.014384	-0.506182
C40	C	1.792265	-0.356723	-0.506135
C41	C	1.909042	-0.356729	-0.506141
C42	C	1.518306	-0.356634	-0.780153
C43	C	1.518337	-0.356602	-0.896930
C44	C	1.518402	-0.163547	-0.506174
C45	C	1.518474	-0.081233	-0.506197
C46	C	1.585584	-0.309236	-0.951811
C47	C	1.585609	-0.309209	-1.061535
C48	C	1.451137	-0.403922	-1.061488
C49	C	1.451108	-0.403944	-0.951766
C50	C	1.652814	-0.261894	-0.896975
C51	C	1.720068	-0.214524	-0.951856
C52	C	1.720092	-0.214497	-1.061580
C53	C	1.652864	-0.261840	-1.116423
C54	C	1.518219	-0.356730	-0.233153
C55	C	1.518392	-0.356553	-0.116376
H56	H	1.118309	-0.537579	-0.761945
O57	O	1.385744	-0.449937	-1.114597
C58	C	1.326401	-0.491764	-1.042629
H59	H	1.322764	-0.461447	-0.964427
H60	H	1.364824	-0.548013	-1.030936
C61	C	1.219056	-0.539662	-1.181493
C62	C	1.214581	-0.502423	-1.085448
H63	H	1.150081	-0.546241	-1.207907
H64	H	1.259038	-0.511485	-1.229981
H65	H	1.251079	-0.586532	-1.171737
H66	H	1.182570	-0.455551	-1.095208
H67	H	1.174590	-0.530593	-1.036962
O68	O	1.390887	-0.922905	-0.367081
C69	C	1.399064	-0.966327	-0.275678
H70	H	1.474026	-0.951265	-0.232030
H71	H	1.401248	-1.027266	-0.298084
C72	C	1.211712	-0.970285	-0.258134
C73	C	1.303778	-0.951781	-0.204521
H74	H	1.152933	-0.961316	-0.214243
H75	H	1.206202	-0.941033	-0.319717
H76	H	1.213547	-1.021067	-0.276803
H77	H	1.301947	-0.900999	-0.185865
H78	H	1.309285	-0.981024	-0.142934
H79	H	1.774796	-0.175974	-0.907195
H80	H	1.396333	-0.442503	-0.907081
H81	H	0.819695	-0.451573	-0.640307
O82	O	1.785514	-0.168459	-1.114730
C83	C	1.844821	-0.126667	-1.042798
H84	H	1.848409	-0.157020	-0.964573
H85	H	1.806400	-0.070422	-1.031145
C86	C	1.952253	-0.078715	-1.181707
C87	C	1.956667	-0.115998	-1.085633
H88	H	2.021244	-0.072130	-1.208131
H89	H	1.912294	-0.106868	-1.230170
H90	H	1.920231	-0.031848	-1.171984
H91	H	1.988677	-0.162868	-1.095360
H92	H	1.996634	-0.087852	-1.037172
H93	H	1.217831	-0.451549	-0.640256
O94	O	1.653054	-0.261745	-1.223010
C95	C	1.726803	-0.209770	-1.259693
H96	H	1.788177	-0.199415	-1.196470
H97	H	1.685197	-0.155764	-1.279184
C98	C	1.705277	-0.252657	-1.436493
C99	C	1.780663	-0.239943	-1.358843
H100	H	1.738499	-0.271267	-1.497655
H101	H	1.655588	-0.287672	-1.411780
H102	H	1.670612	-0.207649	-1.452722
H103	H	1.815318	-0.284952	-1.342605
H104	H	1.830360	-0.204936	-1.383556
H105	H	1.455945	-0.919745	-0.669927
H106	H	0.919227	-0.270696	-0.384464
O107	O	0.910778	-0.545122	-0.772539
C108	C	0.982730	-0.586955	-0.831746
H109	H	1.060924	-0.589473	-0.788698
H110	H	0.994448	-0.559903	-0.911607
C111	C	0.843830	-0.662697	-0.899562
C112	C	0.939867	-0.665796	-0.846686
H113	H	0.817390	-0.711329	-0.908783
H114	H	0.795354	-0.634512	-0.859677
H115	H	0.853609	-0.640151	-0.966107
H116	H	0.930085	-0.688333	-0.780137
H117	H	0.988342	-0.693987	-0.886560
O118	O	1.126764	-0.263206	-0.373800
C119	C	1.054819	-0.221350	-0.314616
H120	H	0.976583	-0.251684	-0.310911
H121	H	1.043202	-0.165135	-0.353223
C122	C	1.193697	-0.173332	-0.207373
C123	C	1.097609	-0.210592	-0.202815
H124	H	1.220093	-0.166693	-0.138410
H125	H	1.242169	-0.201529	-0.247248
H126	H	1.184003	-0.126490	-0.239550
H127	H	1.107307	-0.257436	-0.170651
H128	H	1.049140	-0.182403	-0.162932
O129	O	1.655949	-0.789036	-0.634193
C130	C	1.755358	-0.817269	-0.661033
H131	H	1.771570	-0.869268	-0.613284
H132	H	1.817958	-0.774068	-0.643413
C133	C	1.737573	-0.772356	-0.837302
C134	C	1.757481	-0.836227	-0.778662
H135	H	1.738886	-0.784048	-0.909861
H136	H	1.670601	-0.753333	-0.819219
H137	H	1.789744	-0.736362	-0.822606
H138	H	1.705304	-0.872216	-0.793348
H139	H	1.824445	-0.855256	-0.796750
O140	O	1.392394	-0.787844	-0.366058
C141	C	1.366645	-0.816368	-0.266471
H142	H	1.441494	-0.832309	-0.223276
H143	H	1.314826	-0.867242	-0.276060
C144	C	1.215475	-0.737689	-0.256133
C145	C	1.307407	-0.757263	-0.203078
H146	H	1.178930	-0.701233	-0.217030
H147	H	1.232820	-0.718474	-0.323229
H148	H	1.172305	-0.780090	-0.264121
H149	H	1.350581	-0.714864	-0.195102
H150	H	1.290068	-0.776469	-0.135979
H151	H	1.355493	-0.920792	-0.569012
O152	O	1.459498	-0.788535	-0.685266
C153	C	1.559212	-0.814299	-0.715736
H154	H	1.579568	-0.865998	-0.668934
H155	H	1.620281	-0.769668	-0.700009
C156	C	1.533143	-0.769395	-0.890971
C157	C	1.558141	-0.832897	-0.833494
H158	H	1.532485	-0.780864	-0.963610
H159	H	1.465966	-0.752035	-0.870442
H160	H	1.584037	-0.732208	-0.877853
H161	H	1.507240	-0.870079	-0.846603
H162	H	1.625310	-0.850264	-0.854028
O163	O	1.338639	-0.789307	-0.565012
C164	C	1.268295	-0.815552	-0.641643
H165	H	1.302330	-0.866964	-0.680360
H166	H	1.255377	-0.770970	-0.703444
C167	C	1.121128	-0.771847	-0.542011
C168	C	1.162926	-0.834996	-0.589559
H169	H	1.056129	-0.783838	-0.509886
H170	H	1.168520	-0.754162	-0.490386
H171	H	1.110372	-0.734701	-0.593521
H172	H	1.173694	-0.872137	-0.538048
H173	H	1.115534	-0.852687	-0.641175
H174	H	1.544168	-0.919669	-0.333192
H175	H	1.656833	-0.920408	-0.613890
O176	O	1.704509	-0.787635	-0.471268
C177	C	1.658887	-0.740826	-0.395686
H178	H	1.572101	-0.754627	-0.387334
H179	H	1.667936	-0.680852	-0.421488
C180	C	1.820657	-0.735119	-0.299810
C181	C	1.714065	-0.752073	-0.289545
H182	H	1.854695	-0.742054	-0.234338
H183	H	1.851395	-0.766652	-0.350733
H184	H	1.828183	-0.685142	-0.321315
H185	H	1.706541	-0.802052	-0.268053
H186	H	1.683327	-0.720549	-0.238616
H187	H	1.545393	-0.792936	-0.333119
H188	H	1.689837	-0.919120	-0.475245
H189	H	1.652803	-0.261912	-0.807632
