data_functionalizedCrystal
_audit_creation_method	'MofGen! by Chris Wilmer'
_symmetry_space_group_name_H-M	'P1'
_symmetry_Int_Tables_number	1
_symmetry_cell_setting	triclinic
loop_
_symmetry_equiv_pos_as_xyz
  x,y,z
_cell_length_a	16.109301
_cell_length_b	10.654550
_cell_length_c	15.186229
_cell_angle_alpha	89.997420
_cell_angle_beta	89.999362
_cell_angle_gamma	83.973192
loop_
_atom_site_label
_atom_site_type_symbol
_atom_site_fract_x
_atom_site_fract_y
_atom_site_fract_z
O1	O	1.104090	0.161419	-0.073171
O2	O	0.862148	0.181507	-0.073184
O3	O	0.988682	-0.011352	-0.073174
O4	O	0.977556	0.354278	-0.073181
O5	O	0.988673	-0.011354	0.073283
O6	O	0.862139	0.181505	0.073273
O7	O	1.104082	0.161416	0.073287
Zn8	Zn	0.983109	0.171460	0.096533
Zn9	Zn	0.983120	0.171463	-0.096431
O10	O	0.977548	0.354275	0.073276
C11	C	0.831164	0.180692	0.000043
C12	C	0.738854	0.178253	0.000037
C13	C	0.517228	0.287019	0.000045
C14	C	0.430494	0.284717	0.000051
C15	C	0.449008	0.055896	0.000052
C16	C	0.535741	0.058199	0.000052
C17	C	0.569848	0.173764	0.000045
C18	C	0.396382	0.169159	0.000050
C19	C	0.302341	0.166662	0.000056
C20	C	0.663895	0.176262	0.000040
C21	C	0.987861	-0.058140	0.000054
C22	C	0.985417	-0.197550	0.000050
C23	C	1.059918	-0.278046	0.000057
C24	C	1.057616	-0.409036	0.000051
C25	C	0.906306	-0.379020	0.000035
C26	C	0.908608	-0.248033	0.000035
C27	C	1.136726	-0.227564	0.000073
C28	C	1.211233	-0.308061	0.000081
C29	C	1.208932	-0.439051	0.000075
C30	C	1.132123	-0.489543	0.000061
C31	C	1.135066	0.162231	0.000058
C32	C	1.227376	0.164671	0.000057
C33	C	0.978369	0.401063	0.000047
C34	C	0.980813	0.540473	0.000044
N35	N	0.983108	0.171457	0.228226
N36	N	0.983129	0.171457	-0.228123
C37	C	1.039156	0.086088	0.453953
C38	C	1.039159	0.086085	0.546143
C39	C	0.927074	0.256830	0.546143
C40	C	0.927068	0.256826	0.453955
C41	C	0.983114	0.171456	0.407862
C42	C	0.983122	0.171457	0.592240
C43	C	0.983125	0.171455	0.692196
C44	C	0.983111	0.171457	0.307900
H45	H	1.138609	-0.120907	0.000081
H46	H	0.847943	-0.182490	0.000030
O47	O	1.285912	-0.259228	0.000050
C48	C	1.435748	-0.302826	0.000109
C49	C	1.351231	-0.358293	0.000127
H50	H	1.488580	-0.382894	0.000190
H51	H	1.440669	-0.242291	-0.061195
H52	H	1.440561	-0.242216	0.061389
H53	H	1.346361	-0.418961	-0.061111
H54	H	1.346347	-0.418757	0.061472
O55	O	1.093508	0.002957	0.409238
C56	C	1.140971	-0.215416	0.381147
C57	C	1.079359	-0.121389	0.431809
H58	H	1.129565	-0.315970	0.399391
H59	H	1.131361	-0.200904	0.307324
H60	H	1.207647	-0.198972	0.399266
H61	H	1.012659	-0.137776	0.413764
H62	H	1.089042	-0.135924	0.505620
H63	H	0.421227	-0.038193	0.000063
O64	O	0.586742	-0.051939	0.000012
C65	C	0.595960	-0.279141	0.000067
C66	C	0.538106	-0.154513	0.000088
H67	H	0.556661	-0.362104	0.000147
H68	H	0.637015	-0.283864	-0.061239
H69	H	0.637044	-0.283712	0.061346
H70	H	0.496970	-0.149859	-0.061150
H71	H	0.497107	-0.149842	0.061433
H72	H	1.130255	-0.596205	0.000046
H73	H	1.269599	-0.504589	0.000072
H74	H	0.387654	0.376940	0.000053
H75	H	0.843772	-0.420141	0.000024
H76	H	1.084793	0.016568	0.583668
H77	H	0.881444	0.326338	0.583680
O78	O	0.872709	0.339935	0.409217
C79	C	0.825214	0.558277	0.381037
C80	C	0.886834	0.464305	0.431740
H81	H	0.836601	0.658850	0.399242
H82	H	0.834834	0.543716	0.307220
H83	H	0.758540	0.541819	0.399159
H84	H	0.953532	0.480706	0.413692
H85	H	0.877141	0.478889	0.505545
O86	O	0.550400	0.399243	-0.000112
C87	C	0.637613	0.534622	-0.075960
C88	C	0.600091	0.407494	-0.075904
H89	H	0.677811	0.541324	-0.137222
H90	H	0.585134	0.615221	-0.076014
H91	H	0.677721	0.541401	-0.014641
H92	H	0.559992	0.400593	-0.137213
H93	H	0.652610	0.326957	-0.075804
