data_functionalizedCrystal
_audit_creation_method	'MofGen! by Chris Wilmer'
_symmetry_space_group_name_H-M	'P1'
_symmetry_Int_Tables_number	1
_symmetry_cell_setting	triclinic
loop_
_symmetry_equiv_pos_as_xyz
  x,y,z
_cell_length_a	30.570277
_cell_length_b	30.570279
_cell_length_c	30.570330
_cell_angle_alpha	59.997668
_cell_angle_beta	89.998668
_cell_angle_gamma	60.000192
loop_
_atom_site_label
_atom_site_type_symbol
_atom_site_fract_x
_atom_site_fract_y
_atom_site_fract_z
O1	O	-0.372836	-0.313095	0.013011
O2	O	-0.309225	-0.223519	-0.012953
O3	O	-0.309223	-0.313094	0.076622
O4	O	-0.372839	-0.223520	-0.076564
O5	O	-0.236468	-0.385848	0.076622
O6	O	-0.236471	-0.296273	-0.012953
O7	O	-0.300082	-0.385850	0.013011
Zn8	Zn	-0.256725	-0.352613	0.000029
Zn9	Zn	-0.352582	-0.256756	0.000029
O10	O	-0.300084	-0.296275	-0.076564
C11	C	-0.188654	-0.082303	-0.027139
C12	C	-0.215647	-0.028318	-0.023422
C13	C	-0.136009	-0.108501	-0.027507
C14	C	-0.188656	-0.161512	-0.027144
C15	C	-0.215651	-0.192218	-0.023433
C16	C	-0.136010	-0.187591	-0.027512
C17	C	-0.109441	-0.161515	-0.027139
C18	C	-0.051740	-0.192225	-0.023422
C19	C	-0.215103	-0.108498	-0.027512
C20	C	-0.005122	-0.217036	-0.020418
C21	C	-0.237454	0.015296	-0.020418
C22	C	-0.237459	-0.217026	-0.020433
C23	C	0.053362	-0.248162	-0.016650
C24	C	-0.264813	0.070012	-0.016651
C25	C	-0.264819	-0.248149	-0.016672
C26	C	-0.528835	-0.481158	0.031534
C27	C	-0.502268	-0.534173	0.031905
C28	C	-0.449624	-0.481155	0.031530
C29	C	-0.423176	-0.534171	0.031901
C30	C	-0.449623	-0.560370	0.031533
C31	C	-0.502268	-0.455079	0.031901
C32	C	-0.614448	-0.395339	0.025106
C33	C	-0.668545	-0.366177	0.021050
C34	C	-0.695677	-0.391210	0.019017
C35	C	-0.754333	-0.359592	0.014617
C36	C	-0.668716	-0.445410	0.021045
C37	C	-0.614621	-0.474572	0.025103
C38	C	-0.587489	-0.449534	0.027131
C39	C	-0.449828	-0.639557	0.025109
C40	C	-0.424894	-0.689598	0.021053
C41	C	-0.372730	-0.714694	0.019016
C42	C	-0.345693	-0.768949	0.014615
C43	C	-0.345492	-0.689758	0.021040
C44	C	-0.370425	-0.639721	0.025098
C45	C	-0.422593	-0.614621	0.027130
C46	C	-0.449831	-0.395334	0.025098
C47	C	-0.424899	-0.366164	0.021031
C48	C	-0.372736	-0.391195	0.018994
C49	C	-0.345699	-0.359574	0.014590
C50	C	-0.345499	-0.445391	0.021019
C51	C	-0.370429	-0.474560	0.025084
C52	C	-0.422594	-0.449529	0.027123
C53	C	-0.449629	-0.128223	-0.400622
C54	C	-0.502274	-0.075208	-0.427071
C55	C	-0.449630	-0.128223	-0.321410
C56	C	-0.502275	-0.075207	-0.347979
C57	C	-0.528843	-0.049010	-0.400624
C58	C	-0.423182	-0.154300	-0.347977
C59	C	-0.370237	-0.214043	-0.400414
C60	C	-0.345131	-0.243207	-0.425348
C61	C	-0.372198	-0.218175	-0.477512
C62	C	-0.344980	-0.249795	-0.504549
C63	C	-0.424371	-0.163975	-0.504752
C64	C	-0.449476	-0.134812	-0.479820
C65	C	-0.422408	-0.159848	-0.427652
C66	C	-0.614455	0.030175	-0.480016
C67	C	-0.668553	0.080216	-0.505123
C68	C	-0.695686	0.105313	-0.478056
C69	C	-0.754343	0.159568	-0.505274
C70	C	-0.668725	0.080378	-0.425883
C71	C	-0.614630	0.030342	-0.400778
C72	C	-0.587497	0.005241	-0.427845
C73	C	-0.370239	-0.214042	-0.235795
C74	C	-0.345135	-0.243209	-0.181695
C75	C	-0.372203	-0.218177	-0.154563
C76	C	-0.344985	-0.249796	-0.095906
C77	C	-0.424374	-0.163982	-0.181523
C78	C	-0.449480	-0.134814	-0.235621
C79	C	-0.422410	-0.159847	-0.262755
O80	O	0.226322	-0.385862	0.013031
O81	O	0.073137	-0.296286	-0.012932
O82	O	0.162706	-0.385864	0.076642
O83	O	0.136754	-0.296283	-0.076544
O84	O	0.162707	-0.313113	0.076647
O85	O	0.073139	-0.223534	-0.012927
O86	O	0.226324	-0.313110	0.013035
Zn87	Zn	0.149732	-0.256772	0.000055
Zn88	Zn	0.149729	-0.352625	0.000048
O89	O	0.136756	-0.223532	-0.076539
O90	O	-0.300077	0.213289	0.013034
O91	O	-0.236463	0.086067	-0.012928
O92	O	-0.236466	0.086060	0.076646
O93	O	-0.300074	0.213297	-0.076541
O94	O	-0.309222	0.086062	0.076641
O95	O	-0.309219	0.086070	-0.012933
O96	O	-0.372833	0.213292	0.013029
Zn97	Zn	-0.352577	0.149681	0.000047
Zn98	Zn	-0.256718	0.149678	0.000053
O99	O	-0.372830	0.213300	-0.076546
O100	O	-0.926872	0.304555	-0.541036
O101	O	-0.773688	0.177328	-0.477419
O102	O	-0.863257	0.177325	-0.477417
O103	O	-0.837303	0.304558	-0.541038
O104	O	-0.863255	0.177323	-0.550170
O105	O	-0.773686	0.177326	-0.550173
O106	O	-0.926870	0.304553	-0.613790
Zn107	Zn	-0.850278	0.240939	-0.593533
Zn108	Zn	-0.850280	0.240942	-0.497676
O109	O	-0.837301	0.304556	-0.613792
O110	O	-0.309222	-0.313094	-0.613776
O111	O	-0.372836	-0.223523	-0.550164
O112	O	-0.372834	-0.313097	-0.550160
O113	O	-0.309224	-0.223521	-0.613781
O114	O	-0.300079	-0.385852	-0.477404
O115	O	-0.300081	-0.296279	-0.477409
O116	O	-0.236467	-0.385850	-0.541021
Zn117	Zn	-0.256722	-0.352616	-0.497663
Zn118	Zn	-0.352581	-0.256757	-0.593522
O119	O	-0.236469	-0.296276	-0.541025
C120	C	-0.109443	-0.527076	0.338416
C121	C	-0.051741	-0.581062	0.365410
C122	C	-0.136011	-0.500878	0.364863
C123	C	-0.188656	-0.447863	0.259202
C124	C	-0.215650	-0.417154	0.201500
C125	C	-0.215104	-0.421785	0.285770
C126	C	-0.188656	-0.447863	0.338415
C127	C	-0.215649	-0.417155	0.365408
C128	C	-0.136011	-0.500878	0.285771
C129	C	-0.237457	-0.392345	0.387215
C130	C	-0.005124	-0.624677	0.387218
C131	C	-0.237457	-0.392344	0.154883
C132	C	-0.264816	-0.361220	0.414573
C133	C	0.053360	-0.679395	0.414577
C134	C	-0.264817	-0.361219	0.096399
C135	C	0.176900	-0.447894	0.338441
C136	C	0.173185	-0.417189	0.365437
C137	C	0.177268	-0.500910	0.364887
C138	C	0.176902	-0.447889	0.259226
C139	C	0.173189	-0.417178	0.201523
C140	C	0.177270	-0.500904	0.285792
C141	C	0.176898	-0.527104	0.338437
C142	C	0.173181	-0.581091	0.365429
C143	C	0.177272	-0.421814	0.285795
C144	C	0.170177	-0.624706	0.387234
C145	C	0.170183	-0.392382	0.387246
C146	C	0.170189	-0.392365	0.154906
C147	C	0.166409	-0.679423	0.414591
C148	C	0.166417	-0.361260	0.414607
C149	C	0.166425	-0.361238	0.096422
C150	C	-0.188656	-0.161565	0.338427
C151	C	-0.215650	-0.192274	0.365416
C152	C	-0.136010	-0.187647	0.364876
C153	C	-0.188655	-0.082342	0.259219
C154	C	-0.215648	-0.028347	0.201519
C155	C	-0.136009	-0.108545	0.285789
C156	C	-0.109441	-0.161568	0.338432
C157	C	-0.051739	-0.192281	0.365427
C158	C	-0.215103	-0.108542	0.285783
C159	C	-0.005121	-0.217095	0.387236
C160	C	-0.237458	-0.217086	0.387220
C161	C	-0.237456	0.015274	0.154902
C162	C	0.053363	-0.248225	0.414596
C163	C	-0.264818	-0.248212	0.414575
C164	C	-0.264815	0.070001	0.096420
C165	C	0.118261	-0.049006	-0.400600
C166	C	0.117891	-0.075201	-0.427049
C167	C	0.118257	-0.128221	-0.321388
C168	C	0.117887	-0.154296	-0.347958
C169	C	0.118259	-0.128216	-0.400603
C170	C	0.117889	-0.075206	-0.347955
C171	C	0.124691	0.030176	-0.400391
C172	C	0.128750	0.080217	-0.425324
C173	C	0.130788	0.105316	-0.477489
C174	C	0.135192	0.159570	-0.504524
C175	C	0.128762	0.080383	-0.504729
C176	C	0.124700	0.030348	-0.479798
C177	C	0.122667	0.005244	-0.427629
C178	C	0.124689	-0.134434	-0.479996
C179	C	0.128747	-0.163423	-0.505104
C180	C	0.130780	-0.217623	-0.478038
C181	C	0.135182	-0.249059	-0.505257
C182	C	0.128752	-0.242837	-0.425864
C183	C	0.124692	-0.213848	-0.400759
C184	C	0.122664	-0.159648	-0.427825
C185	C	0.124683	-0.134448	-0.235773
C186	C	0.128745	-0.163447	-0.181672
C187	C	0.130779	-0.217647	-0.154541
C188	C	0.135178	-0.249089	-0.095884
C189	C	0.128755	-0.242857	-0.181502
C190	C	0.124695	-0.213862	-0.235600
C191	C	0.122659	-0.159658	-0.262733
O192	O	0.136720	-0.296316	0.522623
O193	O	0.162693	-0.385890	0.459012
O194	O	0.073116	-0.296315	0.459000
O195	O	0.226297	-0.385891	0.522635
O196	O	0.073125	-0.223561	0.386249
O197	O	0.162702	-0.313136	0.386260
O198	O	0.136728	-0.223562	0.449871
Zn199	Zn	0.149716	-0.256798	0.406515
Zn200	Zn	0.149705	-0.352654	0.502368
O201	O	0.226306	-0.313137	0.449883
C202	C	-0.528835	0.518896	-0.400596
C203	C	-0.502267	0.544976	-0.427040
C204	C	-0.449621	0.439671	-0.321383
C205	C	-0.423173	0.465871	-0.347947
C206	C	-0.449621	0.518894	-0.400591
C207	C	-0.502267	0.465874	-0.347953
C208	C	-0.614449	0.525120	-0.400395
C209	C	-0.668547	0.554117	-0.425332
C210	C	-0.695679	0.608323	-0.477494
C211	C	-0.754336	0.639767	-0.504533
C212	C	-0.668718	0.633538	-0.504729
C213	C	-0.614622	0.604542	-0.479795
C214	C	-0.587490	0.550335	-0.427628
C215	C	-0.449826	0.604722	-0.479976
C216	C	-0.424890	0.633887	-0.505078
C217	C	-0.372726	0.608850	-0.478008
C218	C	-0.345687	0.640471	-0.505221
C219	C	-0.345487	0.554643	-0.425836
C220	C	-0.370420	0.525478	-0.400737
C221	C	-0.422590	0.550520	-0.427807
C222	C	-0.449827	0.360475	-0.235774
C223	C	-0.424895	0.310431	-0.181675
C224	C	-0.372730	0.285329	-0.154541
C225	C	-0.345693	0.231066	-0.095885
C226	C	-0.345493	0.310267	-0.181496
C227	C	-0.370424	0.360310	-0.235593
C228	C	-0.422591	0.385412	-0.262730
H229	H	-0.258359	-0.086568	-0.028112
H230	H	-0.258357	-0.379120	0.264434
C231	C	-0.531086	0.436256	-0.319139
N232	N	-0.552791	0.413948	-0.297436
H233	H	-0.523599	-0.053278	-0.470330
C234	C	-0.107196	-0.078919	0.256973
N235	N	-0.085497	-0.056604	0.235270
C236	C	-0.454146	-0.136444	-0.562137
N237	N	-0.476574	-0.115706	-0.605359
C238	C	-0.364741	-0.563791	0.032706
N239	N	-0.320728	-0.586102	0.033314
H240	H	-0.348193	-0.234430	-0.357937
H241	H	0.177873	-0.522830	0.264460
C242	C	-0.273540	-0.078915	0.256967
N243	N	-0.317554	-0.056600	0.235263
C244	C	-0.107195	-0.530499	0.423299
N245	N	-0.085492	-0.552808	0.467312
C246	C	0.178067	-0.530531	0.423322
N247	N	0.178667	-0.552840	0.467333
H248	H	-0.114684	-0.230310	0.408133
H249	H	0.117290	-0.196956	-0.326627
C250	C	-0.288101	0.527105	-0.396060
N251	N	-0.244878	0.506361	-0.373630
H252	H	-0.348242	0.481343	-0.358259
H253	H	-0.114681	-0.086573	-0.028104
C254	C	-0.584604	-0.367797	0.027342
N255	N	-0.562127	-0.347049	0.029023
C256	C	0.130992	-0.302483	-0.151654
N257	N	0.132675	-0.347391	-0.129172
H258	H	0.130396	-0.142886	-0.547584
C259	C	0.178075	-0.364181	0.256981
N260	N	0.178680	-0.320773	0.235278
C261	C	-0.584965	0.632277	-0.509752
N262	N	-0.562628	0.653169	-0.532316
H263	H	-0.523599	-0.556098	0.032502
C264	C	-0.698200	0.526380	-0.395371
N265	N	-0.720536	0.505488	-0.372805
C266	C	0.117087	-0.045577	-0.485486
N267	N	0.116482	-0.023266	-0.529499
C268	C	-0.454860	-0.306555	0.018811
N269	N	-0.477426	-0.261655	0.017139
H270	H	0.117336	-0.053308	-0.326611
H271	H	-0.302656	-0.287335	-0.159749
C272	C	-0.698198	-0.306559	0.018818
N273	N	-0.720534	-0.261654	0.017139
H274	H	-0.492305	-0.374951	0.026761
C275	C	-0.454856	0.693512	-0.562464
N276	N	-0.477424	0.738423	-0.605688
H277	H	-0.690825	0.100822	-0.403847
H278	H	0.130388	-0.142913	-0.159727
H279	H	0.123023	-0.090311	-0.257863
C280	C	-0.698566	-0.472950	0.018814
N281	N	-0.721046	-0.493697	0.017138
H282	H	-0.592670	-0.518703	0.026754
C283	C	0.122449	0.002569	-0.343006
N284	N	0.120763	-0.018226	-0.299782
C285	C	0.130981	0.107636	-0.395358
N286	N	0.132660	0.128290	-0.372788
C287	C	0.131007	0.107996	-0.562114
N288	N	0.132699	0.128791	-0.605336
C289	C	-0.584610	0.002572	-0.509796
N290	N	-0.562130	-0.018219	-0.532227
H291	H	0.130406	-0.286972	-0.403829
H292	H	0.123059	0.010043	-0.501975
C293	C	0.122461	-0.241582	-0.343370
N294	N	0.120781	-0.262472	-0.300144
C295	C	-0.288106	0.282650	-0.151645
N296	N	-0.244881	0.261845	-0.129161
H297	H	-0.523602	-0.412416	0.032492
H298	H	-0.348244	0.380614	-0.257539
H299	H	-0.492305	-0.619125	0.026767
C300	C	-0.288114	-0.472927	0.018778
N301	N	-0.244890	-0.493667	0.017093
C302	C	-0.288108	-0.717367	0.018795
N303	N	-0.244887	-0.738159	0.017103
C304	C	-0.107189	-0.245233	-0.028300
N305	N	-0.085479	-0.288652	-0.028887
H306	H	-0.447076	-0.709896	0.019407
C307	C	-0.364740	0.436253	-0.319125
N308	N	-0.320731	0.413948	-0.297417
C309	C	-0.107196	-0.530500	0.256957
N310	N	-0.085494	-0.552812	0.235255
H311	H	0.123049	-0.234393	-0.257550
C312	C	-0.531090	-0.045586	-0.319164
N313	N	-0.552794	-0.023275	-0.297462
C314	C	-0.364746	-0.211932	-0.319160
N315	N	-0.320734	-0.255339	-0.297456
H316	H	0.123035	-0.090300	-0.502039
H317	H	-0.523597	0.587640	-0.470296
C318	C	-0.287744	-0.302823	-0.395383
N319	N	-0.244518	-0.347728	-0.372813
H320	H	-0.447075	0.290129	-0.159733
H321	H	-0.348248	-0.619417	0.026742
C322	C	-0.698571	0.693173	-0.562112
N323	N	-0.721054	0.738091	-0.605333
H324	H	-0.491961	-0.090687	-0.257571
C325	C	-0.454151	-0.136444	-0.151675
N326	N	-0.476577	-0.115703	-0.129192
C327	C	-0.698204	0.107637	-0.562511
N328	N	-0.720541	0.128293	-0.605736
H329	H	-0.492303	0.380909	-0.257867
H330	H	-0.348250	-0.518687	0.026730
H331	H	-0.592359	0.480981	-0.357920
H332	H	-0.348193	-0.234426	-0.257886
H333	H	-0.491953	-0.090678	-0.502003
H334	H	-0.592678	0.010046	-0.358301
H335	H	-0.492302	0.625111	-0.502024
