data_functionalizedCrystal
_audit_creation_method	'MofGen! by Chris Wilmer'
_symmetry_space_group_name_H-M	'P1'
_symmetry_Int_Tables_number	1
_symmetry_cell_setting	triclinic
loop_
_symmetry_equiv_pos_as_xyz
  x,y,z
_cell_length_a	6.817900
_cell_length_b	14.125369
_cell_length_c	14.858340
_cell_angle_alpha	95.620569
_cell_angle_beta	104.519754
_cell_angle_gamma	100.397648
loop_
_atom_site_label
_atom_site_type_symbol
_atom_site_fract_x
_atom_site_fract_y
_atom_site_fract_z
V1	V	-4.022529	-0.133726	-0.289593
V2	V	-3.522529	0.366274	0.210407
O3	O	-4.026252	0.005795	-0.284457
O4	O	-3.526252	0.505795	0.215543
O5	O	-3.958563	-0.264549	-0.287251
O6	O	-3.458563	0.235451	0.212749
O7	O	-3.979360	-0.131946	-0.416060
O8	O	-3.479360	0.368054	0.083940
O9	O	-4.005311	-0.127726	-0.154756
O10	O	-3.505311	0.372274	0.345244
V11	V	-4.507496	-0.117005	-0.273509
V12	V	-4.007496	0.382995	0.226491
O13	O	-4.280620	-0.170405	-0.324874
O14	O	-3.780620	0.329595	0.175126
O15	O	-4.699603	-0.080326	-0.238229
O16	O	-4.199603	0.419674	0.261771
O17	O	-4.348256	0.013818	-0.275852
O18	O	-3.848256	0.513818	0.224148
O19	O	-4.621171	-0.256526	-0.278646
O20	O	-4.121171	0.243474	0.221354
O21	O	-4.642111	-0.123005	-0.408347
O22	O	-4.142111	0.376995	0.091653
O23	O	-4.327459	-0.118785	-0.147043
O24	O	-3.827459	0.381215	0.352957
C25	C	-3.799608	-0.296433	-0.282589
C26	C	-3.299608	0.203567	0.217411
C27	C	-3.828630	-0.403384	-0.281517
C28	C	-3.328630	0.096616	0.218483
C29	C	-3.826135	-0.127283	-0.446896
C30	C	-3.326135	0.372717	0.053104
C31	C	-3.872020	-0.126693	-0.550281
C32	C	-3.372020	0.373307	-0.050281
C33	C	-3.909281	-0.126213	-0.634241
C34	C	-3.409281	0.373787	-0.134241
C35	C	-3.956043	-0.125607	-0.739572
C36	C	-3.456043	0.374393	-0.239572
C37	C	-3.993328	-0.125124	-0.823525
C38	C	-3.493328	0.374876	-0.323525
C39	C	-4.040094	-0.124520	-0.928863
C40	C	-3.540094	0.375480	-0.428863
C41	C	-4.067532	-0.651529	-0.283517
C42	C	-3.567532	-0.151529	0.216483
C43	C	-3.881873	-0.599203	-0.279589
C44	C	-3.381873	-0.099203	0.220411
C45	C	-3.852249	-0.490239	-0.280662
C46	C	-3.352249	0.009761	0.219338
C47	C	-4.097164	-0.760502	-0.282445
C48	C	-3.597164	-0.260502	0.217555
C49	C	-4.170552	0.045696	-0.280511
C50	C	-3.670552	0.545696	0.219489
C51	C	-4.120769	0.152647	-0.281589
C52	C	-3.620769	0.652647	0.218411
C53	C	-4.144025	-0.123452	-0.116201
C54	C	-3.644025	0.376548	0.383799
C55	C	-4.077380	-0.124036	-0.012816
C56	C	-3.577380	0.375964	0.487184
H57	H	-3.745173	-0.636239	-0.275419
H58	H	-3.245173	-0.136239	0.224581
H59	H	-4.204220	-0.614495	-0.287685
H60	H	-3.704220	-0.114495	0.212315
