data_functionalizedCrystal
_audit_creation_method	'MofGen! by Chris Wilmer'
_symmetry_space_group_name_H-M	'P1'
_symmetry_Int_Tables_number	1
_symmetry_cell_setting	triclinic
loop_
_symmetry_equiv_pos_as_xyz
  x,y,z
_cell_length_a	21.295420
_cell_length_b	21.295417
_cell_length_c	13.032268
_cell_angle_alpha	97.140648
_cell_angle_beta	97.162788
_cell_angle_gamma	90.026289
loop_
_atom_site_label
_atom_site_type_symbol
_atom_site_fract_x
_atom_site_fract_y
_atom_site_fract_z
Zn1	Zn	0.917099	-0.295851	-0.590812
Zn2	Zn	0.930388	-0.387763	-0.416057
Zn3	Zn	0.825206	-0.282507	-0.416089
Zn4	Zn	0.811797	-0.401073	-0.590741
O5	O	0.871122	-0.341799	-0.503425
O6	O	1.006950	-0.308058	-0.567647
O7	O	0.927608	-0.362645	-0.269833
O8	O	0.837446	-0.196191	-0.439310
O9	O	1.016713	-0.375585	-0.439255
O10	O	0.904960	-0.205995	-0.567678
O11	O	0.850332	-0.285314	-0.269857
O12	O	0.735339	-0.298220	-0.439241
O13	O	0.814593	-0.398270	-0.736979
O14	O	0.725488	-0.385331	-0.567557
O15	O	0.891957	-0.320964	-0.737031
O16	O	0.914606	-0.477615	-0.439186
O17	O	0.827478	-0.487394	-0.567525
C18	C	0.707573	-0.341772	-0.503395
C19	C	0.637604	-0.341778	-0.503408
C20	C	0.133051	-0.306741	-0.570403
C21	C	0.198793	-0.306737	-0.570403
C22	C	0.236761	-0.341820	-0.503449
C23	C	0.208980	-0.376922	-0.436510
C24	C	0.143238	-0.376931	-0.436519
N25	N	0.346960	-0.339571	-0.411951
N26	N	0.409412	-0.339559	-0.411945
C27	C	0.434839	-0.341796	-0.503419
N28	N	0.395454	-0.344034	-0.594900
N29	N	0.332996	-0.344042	-0.594905
C30	C	0.308048	-0.341814	-0.503432
C31	C	0.533897	-0.306694	-0.570359
C32	C	0.599641	-0.306694	-0.570361
C33	C	0.609827	-0.376876	-0.436458
C34	C	0.544084	-0.376880	-0.436466
C35	C	0.506123	-0.341786	-0.503415
C36	C	0.871044	-0.505346	-0.503367
C37	C	0.871066	-0.575315	-0.503377
C38	C	0.916464	-0.603074	-0.436619
C39	C	0.916492	-0.668818	-0.436643
C40	C	0.871111	-0.706800	-0.503413
C41	C	0.825709	-0.679034	-0.570184
C42	C	0.825686	-0.613291	-0.570166
N43	N	0.815434	-0.810670	-0.511370
N44	N	0.815458	-0.873122	-0.511381
C45	C	0.871177	-0.904879	-0.503473
N46	N	0.926874	-0.871823	-0.495534
N47	N	0.926850	-0.809365	-0.495518
C48	C	0.871131	-0.778087	-0.503441
C49	C	0.916609	-1.003925	-0.436737
C50	C	0.916637	-1.069671	-0.436768
C51	C	0.825849	-1.079886	-0.570304
C52	C	0.825826	-1.014141	-0.570279
C53	C	0.871205	-0.976165	-0.503490
C54	C	1.035310	-0.341825	-0.503455
C55	C	1.105277	-0.341837	-0.503468
C56	C	0.850297	-0.362591	-0.775980
C57	C	0.841422	-0.371451	-0.892127
C58	C	0.871216	-0.177614	-0.503506
C59	C	0.871256	-0.107649	-0.503540
C60	C	0.875744	-0.337152	-0.943935
C61	C	0.866573	-0.346308	-1.063979
C62	C	0.891903	-0.321042	-0.231930
C63	C	0.900900	-0.312004	-0.115784
H64	H	0.239898	-0.405489	-0.381998
C65	C	0.966528	-0.962147	-0.363289
H66	H	0.960009	-0.919016	-0.372830
H67	H	1.007645	-0.974053	-0.378655
H68	H	0.962719	-0.967592	-0.293064
C69	C	0.775933	-1.121658	-0.643756
H70	H	0.782447	-1.164788	-0.634204
H71	H	0.779743	-1.116211	-0.713975
H72	H	0.734813	-1.109753	-0.628391
H73	H	0.805244	-0.407591	-0.936644
C74	C	0.949772	-0.263172	-1.055666
H75	H	0.970112	-0.242838	-1.103738
H76	H	0.980415	-0.284029	-1.013080
H77	H	0.928933	-0.232513	-1.013102
C78	C	0.775743	-0.582754	-0.643597
H79	H	0.748717	-0.614788	-0.683366
H80	H	0.796310	-0.560548	-0.689154
H81	H	0.751381	-0.554092	-0.603566
H82	H	0.953609	-1.092271	-0.382408
C83	C	0.775881	-0.983603	-0.643700
H84	H	0.748853	-1.015638	-0.683464
H85	H	0.796444	-0.961399	-0.689260
H86	H	0.751520	-0.954940	-0.603667
H87	H	0.911916	-0.301005	-0.899418
C88	C	0.091297	-0.268146	-0.644053
H89	H	0.117257	-0.247247	-0.683923
H90	H	0.068701	-0.237643	-0.604169
H91	H	0.062177	-0.295743	-0.689521
C92	C	0.651584	-0.415467	-0.362812
H93	H	0.694716	-0.410434	-0.372388
H94	H	0.639637	-0.458934	-0.377978
H95	H	0.646168	-0.400834	-0.292627
H96	H	0.622252	-0.278117	-0.624875
C97	C	0.492137	-0.268104	-0.644014
H98	H	0.518095	-0.247210	-0.683893
H99	H	0.469542	-0.237598	-0.604135
H100	H	0.463016	-0.295705	-0.689474
C101	C	0.513529	-0.415482	-0.362835
H102	H	0.468937	-0.410467	-0.372436
H103	H	0.529659	-0.400854	-0.292649
H104	H	0.523132	-0.458949	-0.378012
H105	H	0.221411	-0.278155	-0.624908
H106	H	0.953416	-0.572155	-0.382238
C107	C	0.112687	-0.415533	-0.362881
H108	H	0.144713	-0.436425	-0.323000
H109	H	0.083985	-0.446041	-0.402771
H110	H	0.090522	-0.387940	-0.317421
C111	C	0.966427	-0.699360	-0.363198
H112	H	0.993447	-0.667326	-0.323414
H113	H	0.990789	-0.728028	-0.403210
H114	H	0.945848	-0.721559	-0.317641
H115	H	0.788761	-0.709963	-0.624551
H116	H	0.830392	-0.382451	-1.108492
