data_functionalizedCrystal
_audit_creation_method	'MofGen! by Chris Wilmer'
_symmetry_space_group_name_H-M	'P1'
_symmetry_Int_Tables_number	1
_symmetry_cell_setting	triclinic
loop_
_symmetry_equiv_pos_as_xyz
  x,y,z
_cell_length_a	14.044220
_cell_length_b	9.730223
_cell_length_c	10.654550
_cell_angle_alpha	89.995747
_cell_angle_beta	88.836904
_cell_angle_gamma	90.001660
loop_
_atom_site_label
_atom_site_type_symbol
_atom_site_fract_x
_atom_site_fract_y
_atom_site_fract_z
O1	O	1.259697	-0.114143	0.302986
O2	O	0.983656	-0.114178	0.292052
O3	O	1.128023	-0.114151	0.115418
O4	O	1.115330	-0.114170	0.479621
O5	O	1.128014	0.114429	0.115411
O6	O	0.983646	0.114402	0.292046
O7	O	1.259688	0.114437	0.302980
Zn8	Zn	1.121665	0.150711	0.297512
Zn9	Zn	1.121678	-0.150453	0.297520
O10	O	1.115320	0.114410	0.479614
C11	C	0.948305	0.000108	0.287263
C12	C	0.842986	0.000095	0.272988
N13	N	1.121664	0.356248	0.297506
N14	N	1.121687	-0.355989	0.297517
C15	C	0.650153	0.000123	0.246889
C16	C	0.593185	0.000124	0.348137
C17	C	0.485886	0.000140	0.333615
C18	C	0.757462	0.000107	0.261409
C19	C	1.295038	0.000148	0.307769
C20	C	1.400358	0.000152	0.322044
C21	C	1.127086	0.000138	0.068523
C22	C	1.124298	0.000136	-0.071201
C23	C	1.185612	0.428186	0.219331
C24	C	1.185621	0.572069	0.219332
C25	C	1.057732	0.572063	0.375696
C26	C	1.057719	0.428183	0.375687
C27	C	1.209299	0.000146	-0.142144
C28	C	1.206673	0.000129	-0.273429
C29	C	1.034038	0.000097	-0.262814
C30	C	1.036665	0.000104	-0.131532
C31	C	1.116257	0.000118	0.526509
C32	C	1.119045	0.000111	0.666233
H33	H	0.624998	0.000112	0.445725
H34	H	1.237692	0.630636	0.155673
H35	H	0.618342	0.000136	0.149310
H36	H	1.280656	0.000168	-0.093027
H37	H	1.237679	0.369619	0.155670
O38	O	1.289333	0.000204	-0.342154
C39	C	1.460840	0.000160	-0.338820
C40	C	1.367297	0.000110	-0.260838
H41	H	1.523898	0.000056	-0.273108
H42	H	1.463986	0.095837	-0.400532
H43	H	1.463883	-0.095483	-0.400565
H44	H	1.364192	0.095689	-0.199021
H45	H	1.364190	-0.095630	-0.199207
O46	O	0.995492	0.641886	0.451500
C47	C	0.831045	0.685871	0.506578
C48	C	0.901426	0.606739	0.420626
H49	H	0.754978	0.657462	0.481665
H50	H	0.841959	0.801080	0.493148
H51	H	0.844104	0.657582	0.608627
H52	H	0.888410	0.634913	0.318545
H53	H	0.890496	0.491550	0.434164
H54	H	0.962690	0.000074	-0.311952
H55	H	0.967442	0.000092	-0.073767
O56	O	0.995692	0.358357	0.451818
C57	C	0.941491	0.314363	0.664065
C58	C	1.011803	0.393500	0.578003
H59	H	0.954479	0.342769	0.766101
H60	H	0.952463	0.199156	0.650736
H61	H	0.865423	0.342652	0.639053
H62	H	1.087899	0.365327	0.602961
H63	H	1.000749	0.508689	0.591345
