data_functionalizedCrystal
_audit_creation_method	'MofGen! by Chris Wilmer'
_symmetry_space_group_name_H-M	'P1'
_symmetry_Int_Tables_number	1
_symmetry_cell_setting	triclinic
loop_
_symmetry_equiv_pos_as_xyz
  x,y,z
_cell_length_a	12.827893
_cell_length_b	12.827892
_cell_length_c	18.215399
_cell_angle_alpha	89.973563
_cell_angle_beta	89.985304
_cell_angle_gamma	90.015552
loop_
_atom_site_label
_atom_site_type_symbol
_atom_site_fract_x
_atom_site_fract_y
_atom_site_fract_z
Zn1	Zn	1.597622	-0.416014	-0.416094
Zn2	Zn	1.597530	-0.590781	-0.293036
Zn3	Zn	1.422878	-0.416055	-0.293046
Zn4	Zn	1.422849	-0.590715	-0.416066
O5	O	1.510220	-0.503391	-0.354561
O6	O	1.743846	-0.439208	-0.399778
O7	O	1.574336	-0.567648	-0.190053
O8	O	1.446108	-0.269814	-0.309385
O9	O	1.743779	-0.567609	-0.309368
O10	O	1.574493	-0.269784	-0.399788
O11	O	1.446019	-0.439278	-0.190060
O12	O	1.276638	-0.439213	-0.309357
O13	O	1.446060	-0.567495	-0.519054
O14	O	1.276617	-0.567535	-0.399739
O15	O	1.574465	-0.439144	-0.519075
O16	O	1.574308	-0.737008	-0.309340
O17	O	1.445970	-0.736960	-0.399730
C18	C	1.238710	-0.503372	-0.354547
C19	C	1.122557	-0.503389	-0.354558
C20	C	0.950695	-0.566844	-0.309774
C21	C	1.070745	-0.566828	-0.309761
C22	C	1.510155	-0.774901	-0.354547
C23	C	1.510222	-0.891054	-0.354566
C24	C	1.573722	-0.942741	-0.399340
C25	C	1.573794	-1.062791	-0.399361
C26	C	1.782790	-0.503411	-0.354575
C27	C	1.898943	-0.503420	-0.354581
C28	C	1.510269	-0.503308	-0.546514
C29	C	1.510290	-0.503272	-0.628313
C30	C	1.510314	-0.230821	-0.354590
C31	C	1.510354	-0.114668	-0.354603
C32	C	1.443532	-0.436385	-0.816511
C33	C	1.443550	-0.436364	-0.893370
C34	C	1.577173	-0.570035	-0.893352
C35	C	1.577149	-0.570061	-0.816494
C36	C	1.510330	-0.503230	-0.778076
C37	C	1.510372	-0.503183	-0.931792
C38	C	1.510393	-0.503161	-1.015126
C39	C	1.510308	-0.503253	-0.694737
C40	C	1.510231	-0.503399	-0.163354
C41	C	1.510412	-0.503140	-0.081556
H42	H	0.943514	-0.449104	-0.392930
O43	O	1.438343	-1.055801	-0.303817
H44	H	1.391891	-1.112071	-0.271029
O45	O	1.438287	-0.950159	-0.303800
H46	H	1.385169	-0.999911	-0.336741
H47	H	1.115250	-0.621133	-0.271404
H48	H	1.389156	-0.381933	-0.924660
O49	O	1.645676	-0.883645	-0.450098
H50	H	1.634336	-0.798626	-0.442112
O51	O	1.063622	-0.431456	-0.405379
H52	H	1.084523	-0.349397	-0.392868
H53	H	1.631576	-0.624446	-0.924641
H54	H	1.631546	-0.624498	-0.785200
H55	H	0.906124	-0.621151	-0.271419
H56	H	1.628163	-1.107241	-0.437691
H57	H	1.389124	-0.381967	-0.785233
