data_functionalizedCrystal
_audit_creation_method	'MofGen! by Chris Wilmer'
_symmetry_space_group_name_H-M	'P1'
_symmetry_Int_Tables_number	1
_symmetry_cell_setting	triclinic
loop_
_symmetry_equiv_pos_as_xyz
  x,y,z
_cell_length_a	16.992694
_cell_length_b	15.944551
_cell_length_c	16.053802
_cell_angle_alpha	92.564789
_cell_angle_beta	87.249047
_cell_angle_gamma	87.083481
loop_
_atom_site_label
_atom_site_type_symbol
_atom_site_fract_x
_atom_site_fract_y
_atom_site_fract_z
O1	O	1.043704	0.174798	-0.069327
O2	O	0.815419	0.172843	-0.069352
O3	O	0.935795	0.051964	-0.069332
O4	O	0.923328	0.295677	-0.069348
O5	O	0.929169	0.058588	0.069526
O6	O	0.808793	0.179467	0.069506
O7	O	1.037078	0.181422	0.069530
Zn8	Zn	0.921884	0.181497	0.091565
Zn9	Zn	0.930613	0.172769	-0.091386
O10	O	0.916702	0.302301	0.069510
C11	C	0.782894	0.173641	0.000074
C12	C	0.695850	0.166141	0.000065
C13	C	0.645613	0.238506	0.000061
C14	C	0.563826	0.231454	0.000073
C15	C	0.532276	0.152037	0.000083
C16	C	0.582519	0.079667	0.000089
C17	C	0.664305	0.086719	0.000083
C18	C	0.288676	0.122807	0.000107
C19	C	0.206884	0.115759	0.000111
C20	C	0.188196	0.267548	0.000095
C21	C	0.269984	0.274593	0.000084
C22	C	0.320220	0.202223	0.000095
N23	N	0.448677	0.144827	0.000092
N24	N	0.403818	0.209434	0.000092
C25	C	0.931964	0.023948	0.000097
C26	C	0.930413	-0.069402	0.000098
C27	C	0.852090	-0.289513	0.000078
C28	C	0.885194	-0.344825	0.068547
C29	C	0.927606	-0.240317	0.000091
C30	C	0.891744	-0.351338	-0.068356
C31	C	0.924889	-0.405412	0.000081
C32	C	0.960728	-0.294396	0.068617
C33	C	0.967271	-0.300907	-0.068348
C34	C	1.000429	-0.356196	0.000138
C35	C	0.929169	-0.145209	0.000098
C36	C	0.923332	-0.500518	0.000080
C37	C	1.069603	0.180624	0.000103
C38	C	1.156648	0.188124	0.000106
C39	C	0.920533	0.330318	0.000079
C40	C	0.922085	0.423667	0.000073
N41	N	0.915931	0.187453	0.216424
N42	N	0.936572	0.166806	-0.216246
C43	C	0.967170	0.136040	0.260127
C44	C	0.963014	0.140215	0.347533
C45	C	0.907622	0.195808	0.391235
C46	C	0.856378	0.247223	0.347526
C47	C	0.860531	0.243043	0.260121
C48	C	0.889481	0.214042	0.652641
C49	C	0.885333	0.218220	0.740052
C50	C	0.991968	0.111209	0.740053
C51	C	0.996120	0.107038	0.652646
C52	C	0.944873	0.158450	0.608945
N53	N	0.903374	0.200078	0.480578
N54	N	0.949118	0.154175	0.519604
H55	H	0.181201	0.051085	0.000118
N56	N	0.548495	-0.005991	0.000114
H57	H	0.489061	0.000520	0.000117
H58	H	0.569321	-0.040362	-0.051358
N59	N	1.047233	0.055759	0.787192
H60	H	1.038926	-0.005196	0.771992
H61	H	1.103578	0.068547	0.771952
H62	H	0.295666	0.339262	0.000066
N63	N	1.055865	0.047078	0.605512
H64	H	1.087694	0.015140	0.646462
H65	H	1.027570	0.006177	0.569258
N66	N	1.013202	-0.275064	-0.145018
H67	H	0.977970	-0.238219	-0.178724
H68	H	1.059824	-0.242869	-0.127508
N69	N	0.853081	-0.384451	-0.145026
H70	H	0.797053	-0.360040	-0.144967
H71	H	0.883562	-0.367724	-0.196694
H72	H	0.840224	0.263494	0.775630
H73	H	0.705207	0.027792	0.000086
N74	N	1.018305	0.084793	0.394670
H75	H	1.054038	0.048955	0.353722
H76	H	1.051230	0.121066	0.430908
H77	H	0.147286	0.326467	0.000088
N78	N	0.834206	0.269486	0.605513
H79	H	0.798488	0.305337	0.646463
H80	H	0.865938	0.306923	0.569232
H81	H	1.012279	0.090773	0.224550
N82	N	0.342850	0.044751	0.000099
H83	H	0.399450	0.061264	0.000094
H84	H	0.330187	0.012829	0.051575
N85	N	0.796637	0.307184	0.394665
H86	H	0.806389	0.366684	0.379440
H87	H	0.741737	0.292940	0.379449
N88	N	0.805263	0.298491	0.212980
H89	H	0.769542	0.334344	0.253927
H90	H	0.837000	0.335925	0.176702
H91	H	1.063164	-0.385145	0.000184
H92	H	0.850491	-0.364314	0.126426
N93	N	0.679639	0.324163	0.000040
H94	H	0.635401	0.368935	0.000040
H95	H	0.710718	0.332855	0.051512
H96	H	0.789404	-0.260406	0.000139
N97	N	0.509673	0.309534	0.000137
H98	H	0.522256	0.341519	-0.051322
H99	H	0.453082	0.292995	0.000202
N100	N	0.999343	-0.261430	0.145377
H101	H	1.000128	-0.198156	0.144920
H102	H	0.968548	-0.277813	0.196980
