data_functionalizedCrystal
_audit_creation_method	'MofGen! by Chris Wilmer'
_symmetry_space_group_name_H-M	'P1'
_symmetry_Int_Tables_number	1
_symmetry_cell_setting	triclinic
loop_
_symmetry_equiv_pos_as_xyz
  x,y,z
_cell_length_a	16.992694
_cell_length_b	16.109301
_cell_length_c	15.186229
_cell_angle_alpha	90.005167
_cell_angle_beta	89.997727
_cell_angle_gamma	87.064852
loop_
_atom_site_label
_atom_site_type_symbol
_atom_site_fract_x
_atom_site_fract_y
_atom_site_fract_z
O1	O	-1.040345	-0.176288	-0.073123
O2	O	-0.540345	0.323712	0.426877
O3	O	-0.812060	-0.174354	-0.073149
O4	O	-0.312060	0.325646	0.426851
O5	O	-0.932474	-0.054708	-0.073126
O6	O	-0.432474	0.445292	0.426874
O7	O	-0.919931	-0.295934	-0.073146
O8	O	-0.419931	0.204066	0.426854
O9	O	-0.932466	-0.054706	0.073331
O10	O	-0.432466	0.445294	0.573331
O11	O	-0.812052	-0.174352	0.073308
O12	O	-0.312052	0.325648	0.573308
O13	O	-1.040337	-0.176286	0.073334
O14	O	-0.540337	0.323714	0.573334
Zn15	Zn	-0.926193	-0.175318	0.096574
Zn16	Zn	-0.426193	0.324682	0.596574
Zn17	Zn	-0.926204	-0.175321	-0.096389
Zn18	Zn	-0.426204	0.324679	0.403611
O19	O	-0.919923	-0.295931	0.073312
O20	O	-0.419923	0.204069	0.573312
C21	C	-0.782844	-0.171865	0.000076
C22	C	-0.282844	0.328135	0.500076
C23	C	-0.695802	-0.164441	0.000067
C24	C	-0.195802	0.335559	0.500067
C25	C	-1.069553	-0.178775	0.000107
C26	C	-0.569553	0.321225	0.500107
C27	C	-1.156595	-0.186198	0.000111
C28	C	-0.656595	0.313802	0.500111
C29	C	-0.931962	-0.023699	0.000103
C30	C	-0.431962	0.476301	0.500103
C31	C	-0.930439	0.068698	0.000104
C32	C	-0.430439	0.568698	0.500104
C33	C	-0.645543	-0.236067	0.000062
C34	C	-0.145543	0.263933	0.500062
C35	C	-0.563758	-0.229087	0.000074
C36	C	-0.063758	0.270913	0.500074
C37	C	-0.532234	-0.150481	0.000086
C38	C	-0.032234	0.349519	0.500086
C39	C	-0.582499	-0.078849	0.000094
C40	C	-0.082499	0.421151	0.500094
C41	C	-0.664282	-0.085830	0.000087
C42	C	-0.164282	0.414170	0.500087
C43	C	-0.288644	-0.121548	0.000112
C44	C	0.211356	0.378452	0.500112
C45	C	-0.206854	-0.114572	0.000116
C46	C	0.293146	0.385428	0.500116
C47	C	-0.188119	-0.264811	0.000098
C48	C	0.311881	0.235189	0.500098
C49	C	-0.269904	-0.271785	0.000086
C50	C	0.230096	0.228215	0.500086
C51	C	-0.320163	-0.200154	0.000099
C52	C	0.179837	0.299846	0.500099
N53	N	-0.448637	-0.143344	0.000096
N54	N	0.051363	0.356656	0.500096
N55	N	-0.403758	-0.207291	0.000095
N56	N	0.096242	0.292709	0.500095
C57	C	-0.920435	-0.326941	0.000081
C58	C	-0.420435	0.173059	0.500081
C59	C	-0.921959	-0.419338	0.000074
C60	C	-0.421959	0.080662	0.500074
N61	N	-0.926192	-0.175316	0.228267
N62	N	-0.426192	0.324684	0.728267
C63	C	-0.998348	0.286439	0.000097
C64	C	-0.498348	0.786439	0.500097
C65	C	-0.996911	0.373256	0.000090
C66	C	-0.496911	0.873256	0.500090
C67	C	-0.854044	0.362915	0.000077
C68	C	-0.354044	0.862915	0.500077
C69	C	-0.855482	0.276100	0.000078
C70	C	-0.355482	0.776100	0.500078
C71	C	-0.927636	0.237865	0.000093
C72	C	-0.427636	0.737865	0.500093
C73	C	-0.924761	0.411496	0.000084
C74	C	-0.424761	0.911496	0.500084
C75	C	-0.923202	0.505626	0.000076
C76	C	-0.423202	1.005626	0.500076
C77	C	-0.929196	0.143729	0.000099
C78	C	-0.429196	0.643729	0.500099
N79	N	-0.926212	-0.175317	-0.228082
N80	N	-0.426212	0.324683	0.271918
C81	C	-0.979529	-0.122357	0.454000
C82	C	-0.479529	0.377643	0.954000
C83	C	-0.979532	-0.122355	0.546190
C84	C	-0.479532	0.377645	1.046190
C85	C	-0.872869	-0.228279	0.546179
C86	C	-0.372869	0.271721	1.046179
C87	C	-0.872863	-0.228275	0.453991
C88	C	-0.372863	0.271725	0.953991
C89	C	-0.926198	-0.175316	0.407904
C90	C	-0.426198	0.324684	0.907904
C91	C	-0.926206	-0.175317	0.592281
C92	C	-0.426206	0.324683	1.092281
C93	C	-0.926208	-0.175316	0.692237
C94	C	-0.426208	0.324684	1.192237
C95	C	-0.926195	-0.175316	0.307941
C96	C	-0.426195	0.324684	0.807941
H97	H	-0.671204	-0.300077	0.000052
H98	H	-0.171204	0.199923	0.500052
H99	H	-0.705203	-0.027504	0.000091
H100	H	-0.205203	0.472496	0.500091
H101	H	-0.829430	-0.271401	0.416457
H102	H	-0.329430	0.228599	0.916457
H103	H	-0.522840	-0.287413	0.000069
H104	H	-0.022840	0.212587	0.500069
C105	C	-1.074694	0.426689	0.000100
C106	C	-0.574694	0.926689	0.500100
C107	C	-1.093359	0.487783	-0.075953
C108	C	-0.593359	0.987783	0.424047
C109	C	-1.171146	0.541216	-0.075945
C110	C	-0.671146	1.041216	0.424055
C111	C	-1.230269	0.533555	0.000116
C112	C	-0.730269	1.033555	0.500116
C113	C	-1.211605	0.472459	0.076175
C114	C	-0.711605	0.972459	0.576175
C115	C	-1.133818	0.419025	0.076166
C116	C	-0.633818	0.919025	0.576166
H117	H	-1.049592	0.493456	-0.132263
H118	H	-0.549592	0.993456	0.367737
H119	H	-1.184962	0.586444	-0.132249
H120	H	-0.684962	1.086444	0.367751
H121	H	-1.287851	0.573110	0.000122
H122	H	-0.787851	1.073110	0.500122
H123	H	-1.255373	0.466786	0.132485
H124	H	-0.755373	0.966786	0.632485
H125	H	-1.120003	0.373798	0.132470
H126	H	-0.620003	0.873798	0.632470
H127	H	-1.057101	0.255311	0.000107
H128	H	-0.557101	0.755311	0.500107
H129	H	-0.181191	-0.050558	0.000124
H130	H	0.318809	0.449442	0.500124
H131	H	-0.795298	0.394057	0.000067
H132	H	-0.295298	0.894057	0.500067
C133	C	-0.304569	-0.358259	0.000097
C134	C	0.195431	0.141741	0.500097
C135	C	-0.358214	-0.383708	0.076154
C136	C	0.141786	0.116292	0.576154
C137	C	-0.392875	-0.470185	0.076170
C138	C	0.107125	0.029815	0.576170
C139	C	-0.373890	-0.531213	0.000129
C140	C	0.126110	-0.031213	0.500129
C141	C	-0.320243	-0.505765	-0.075934
C142	C	0.179757	-0.005765	0.424066
C143	C	-0.285582	-0.419288	-0.075950
C144	C	0.214418	0.080712	0.424050
H145	H	-0.372270	-0.338531	0.132450
H146	H	0.127730	0.161469	0.632450
H147	H	-0.432588	-0.489023	0.132477
H148	H	0.067412	0.010977	0.632477
H149	H	-0.399548	-0.595228	0.000140
H150	H	0.100452	-0.095228	0.500140
H151	H	-0.306187	-0.550943	-0.132230
H152	H	0.193813	-0.050943	0.367770
H153	H	-0.245869	-0.400450	-0.132257
H154	H	0.254131	0.099550	0.367743
H155	H	-1.022956	-0.079233	0.416478
H156	H	-0.522956	0.420767	0.916478
C157	C	-0.777695	0.222660	0.000074
C158	C	-0.277695	0.722660	0.500074
C159	C	-0.759039	0.161558	0.076122
C160	C	-0.259039	0.661558	0.576122
C161	C	-0.681256	0.108117	0.076114
C162	C	-0.181256	0.608117	0.576114
C163	C	-0.622129	0.115779	0.000058
C164	C	-0.122129	0.615779	0.500058
C165	C	-0.640783	0.176884	-0.075995
C166	C	-0.140783	0.676884	0.424005
C167	C	-0.718566	0.230324	-0.075987
C168	C	-0.218566	0.730324	0.424013
H169	H	-0.802810	0.155884	0.132428
H170	H	-0.302810	0.655884	0.632428
H171	H	-0.667448	0.062883	0.132414
H172	H	-0.167448	0.562883	0.632414
H173	H	-0.564549	0.076219	0.000052
H174	H	-0.064549	0.576219	0.500052
H175	H	-0.597012	0.182558	-0.132301
H176	H	-0.097012	0.682558	0.367699
H177	H	-0.732374	0.275558	-0.132287
H178	H	-0.232374	0.775558	0.367713
C179	C	-1.038199	-0.064103	0.596897
C180	C	-0.538199	0.435897	1.096897
C181	C	-1.096869	-0.005859	0.546201
C182	C	-0.596869	0.494141	1.046201
C183	C	-1.155539	0.052397	0.596908
C184	C	-0.655539	0.552397	1.096908
C185	C	-1.155537	0.052410	0.698311
C186	C	-0.655537	0.552410	1.198311
C187	C	-1.096865	-0.005836	0.749013
C188	C	-0.596865	0.494164	1.249013
C189	C	-1.038196	-0.064092	0.698306
C190	C	-0.538196	0.435908	1.198306
H191	H	-1.096872	-0.005867	0.471131
H192	H	-0.596872	0.494133	0.971131
H193	H	-1.198972	0.095514	0.559375
H194	H	-0.698972	0.595514	1.059375
H195	H	-1.198968	0.095535	0.735847
H196	H	-0.698968	0.595535	1.235847
H197	H	-1.096862	-0.005828	0.824082
H198	H	-0.596862	0.494172	1.324082
H199	H	-0.994762	-0.107209	0.735839
H200	H	-0.494762	0.392791	1.235839
C201	C	-0.814208	-0.286539	0.596875
C202	C	-0.314208	0.213461	1.096875
C203	C	-0.814253	-0.286598	0.698278
C204	C	-0.314253	0.213402	1.198278
C205	C	-0.755592	-0.344862	0.748971
C206	C	-0.255592	0.155138	1.248971
C207	C	-0.696887	-0.403068	0.698261
C208	C	-0.196887	0.096932	1.198261
C209	C	-0.696840	-0.403012	0.596852
C210	C	-0.196840	0.096988	1.096852
C211	C	-0.755501	-0.344747	0.546159
C212	C	-0.255501	0.155253	1.046159
H213	H	-0.857712	-0.243508	0.735822
H214	H	-0.357712	0.256492	1.235822
H215	H	-0.755628	-0.344904	0.824041
H216	H	-0.255628	0.155096	1.324041
H217	H	-0.653463	-0.446199	0.735787
H218	H	-0.153463	0.053801	1.235787
H219	H	-0.653381	-0.446101	0.559308
H220	H	-0.153381	0.053899	1.059308
H221	H	-0.755466	-0.344706	0.471089
H222	H	-0.255466	0.155294	0.971089
C223	C	-0.132834	-0.343601	0.000094
C224	C	0.367166	0.156399	0.500094
C225	C	-0.074023	-0.359466	-0.075952
C226	C	0.425977	0.140534	0.424048
C227	C	-0.018738	-0.438260	-0.075951
C228	C	0.481262	0.061740	0.424049
C229	C	-0.022263	-0.501189	0.000095
C230	C	0.477737	-0.001189	0.500095
C231	C	-0.081076	-0.485326	0.076147
C232	C	0.418924	0.014674	0.576147
C233	C	-0.136361	-0.406532	0.076146
C234	C	0.363639	0.093468	0.576146
H235	H	-0.071412	-0.312880	-0.132251
H236	H	0.428588	0.187120	0.367749
H237	H	0.024799	-0.450002	-0.132250
H238	H	0.524799	0.049998	0.367750
H239	H	0.018662	-0.559517	0.000095
H240	H	0.518662	-0.059517	0.500095
H241	H	-0.083687	-0.531912	0.132446
H242	H	0.416313	-0.031912	0.632446
H243	H	-0.179898	-0.394790	0.132445
H244	H	0.320102	0.105210	0.632445
H245	H	-0.329554	-0.063220	0.000123
H246	H	0.170446	0.436780	0.500123
H247	H	-0.556826	-0.014846	0.000116
H248	H	-0.056826	0.485154	0.500116
