data_functionalizedCrystal
_audit_creation_method	'MofGen! by Chris Wilmer'
_symmetry_space_group_name_H-M	'P1'
_symmetry_Int_Tables_number	1
_symmetry_cell_setting	triclinic
loop_
_symmetry_equiv_pos_as_xyz
  x,y,z
_cell_length_a	19.288864
_cell_length_b	19.288859
_cell_length_c	18.366186
_cell_angle_alpha	89.995122
_cell_angle_beta	90.022929
_cell_angle_gamma	96.865014
loop_
_atom_site_label
_atom_site_type_symbol
_atom_site_fract_x
_atom_site_fract_y
_atom_site_fract_z
O1	O	0.921351	-0.086648	0.060783
O2	O	1.421351	0.413352	0.560783
O3	O	0.719090	-0.098337	0.060733
O4	O	1.219090	0.401663	0.560733
O5	O	0.826067	0.008638	0.060755
O6	O	1.326067	0.508638	0.560755
O7	O	0.814374	-0.193623	0.060761
O8	O	1.314374	0.306377	0.560761
O9	O	0.826049	0.008641	-0.060344
O10	O	1.326049	0.508641	0.439656
O11	O	0.719072	-0.098334	-0.060367
O12	O	1.219072	0.401666	0.439633
O13	O	0.921333	-0.086645	-0.060317
O14	O	1.421333	0.413355	0.439683
Zn15	Zn	0.820199	-0.092489	-0.079569
Zn16	Zn	1.320199	0.407511	0.420431
Zn17	Zn	0.820224	-0.092493	0.079985
Zn18	Zn	1.320224	0.407507	0.579985
O19	O	0.814355	-0.193620	-0.060339
O20	O	1.314355	0.306380	0.439661
C21	C	0.693204	-0.097959	0.000177
C22	C	1.193204	0.402041	0.500177
C23	C	0.616101	-0.096830	0.000158
C24	C	1.116101	0.403170	0.500158
C25	C	0.571403	-0.159598	0.000171
C26	C	1.071403	0.340402	0.500171
C27	C	0.498956	-0.158537	0.000179
C28	C	0.998956	0.341463	0.500179
C29	C	0.471210	-0.094705	0.000188
C30	C	0.971210	0.405295	0.500188
C31	C	0.515918	-0.031929	0.000171
C32	C	1.015918	0.468071	0.500171
C33	C	0.588363	-0.032991	0.000156
C34	C	1.088363	0.467009	0.500156
C35	C	0.362956	-0.044527	0.042638
C36	C	0.862956	0.455473	0.542638
C37	C	0.290511	-0.043467	0.042658
C38	C	0.790511	0.456533	0.542658
C39	C	0.247765	-0.091425	0.000232
C40	C	0.747765	0.408575	0.500232
C41	C	0.277470	-0.140455	-0.042203
C42	C	0.777470	0.359545	0.457797
C43	C	0.349915	-0.141518	-0.042219
C44	C	0.849915	0.358482	0.457781
C45	C	0.392656	-0.093546	0.000204
C46	C	0.892656	0.406454	0.500204
C47	C	0.124511	-0.153048	0.000253
C48	C	0.624511	0.346952	0.500253
C49	C	0.052063	-0.151984	0.000257
C50	C	0.552063	0.348016	0.500257
C51	C	0.069026	-0.025374	0.000256
C52	C	0.569026	0.474626	0.500256
C53	C	0.141472	-0.026439	0.000245
C54	C	0.641472	0.473561	0.500245
C55	C	0.169210	-0.090278	0.000247
C56	C	0.669210	0.409722	0.500247
C57	C	0.825682	0.034516	0.000206
C58	C	1.325682	0.534516	0.500206
C59	C	0.824555	0.111620	0.000207
C60	C	1.324555	0.611620	0.500207
C61	C	0.947218	-0.087022	0.000241
C62	C	1.447218	0.412978	0.500241
C63	C	1.024322	-0.088151	0.000265
C64	C	1.524322	0.411849	0.500265
N65	N	0.820188	-0.092486	-0.188460
N66	N	1.320188	0.407514	0.311540
C67	C	0.814740	-0.219498	0.000212
C68	C	1.314740	0.280502	0.500212
C69	C	0.815868	-0.296602	0.000216
C70	C	1.315868	0.203398	0.500216
C71	C	0.879698	0.675661	0.000239
C72	C	1.379698	1.175661	0.500239
C73	C	0.880764	0.603214	0.000233
C74	C	1.380764	1.103214	0.500233
C75	C	0.817994	0.558508	0.000218
C76	C	1.317994	1.058508	0.500218
C77	C	0.754155	0.586253	0.000190
C78	C	1.254155	1.086253	0.500190
C79	C	0.753092	0.658698	0.000189
C80	C	1.253092	1.158698	0.500189
C81	C	0.771188	0.437233	0.042632
C82	C	1.271188	0.937233	0.542632
C83	C	0.772254	0.364789	0.042637
C84	C	1.272254	0.864789	0.542637
C85	C	0.821272	0.335062	0.000218
C86	C	1.321272	0.835062	0.500218
C87	C	0.869235	0.377789	-0.042197
C88	C	1.369235	0.877789	0.457803
C89	C	0.868172	0.450234	-0.042198
C90	C	1.368172	0.950234	0.457802
C91	C	0.819141	0.479952	0.000219
C92	C	1.319141	0.979952	0.500219
C93	C	0.886262	0.228770	0.000234
C94	C	1.386262	0.728770	0.500234
C95	C	0.887325	0.156322	0.000223
C96	C	1.387325	0.656322	0.500223
C97	C	0.760715	0.139362	0.000188
C98	C	1.260715	0.639362	0.500188
C99	C	0.759654	0.211809	0.000191
C100	C	1.259654	0.711809	0.500191
C101	C	0.822430	0.256509	0.000218
C102	C	1.322430	0.756509	0.500218
C103	C	0.862174	-0.134510	-0.226542
C104	C	1.362174	0.365490	0.273458
C105	C	0.862186	-0.134508	-0.302770
C106	C	1.362186	0.365492	0.197230
C107	C	0.820197	-0.092490	-0.340913
C108	C	1.320197	0.407510	0.159087
C109	C	0.778208	-0.050457	-0.302821
C110	C	1.278208	0.449543	0.197179
C111	C	0.778203	-0.050455	-0.226595
C112	C	1.278203	0.449545	0.273405
C113	C	0.757586	-0.090733	-0.461709
C114	C	1.257586	0.409267	0.038291
C115	C	0.757589	-0.090740	-0.537934
C116	C	1.257589	0.409260	-0.037934
C117	C	0.820213	-0.092492	-0.576020
C118	C	1.320213	0.407508	-0.076020
C119	C	0.882835	-0.094252	-0.537872
C120	C	1.382835	0.405748	-0.037872
C121	C	0.882830	-0.094250	-0.461645
C122	C	1.382830	0.405750	0.038355
C123	C	0.820198	-0.092487	-0.423567
C124	C	1.320198	0.407513	0.076433
C125	C	0.862216	-0.134516	-0.696757
C126	C	1.362216	0.365484	-0.196757
C127	C	0.862228	-0.134509	-0.772986
C128	C	1.362228	0.365491	-0.272986
C129	C	0.778244	-0.050463	-0.773036
C130	C	1.278244	0.449537	-0.273036
C131	C	0.778238	-0.050466	-0.696809
C132	C	1.278238	0.449534	-0.196809
C133	C	0.820222	-0.092496	-0.658674
C134	C	1.320222	0.407504	-0.158674
N135	N	0.820241	-0.092490	0.188876
N136	N	1.320241	0.407510	0.688876
H137	H	0.015670	-0.203100	0.000263
H138	H	0.515670	0.296900	0.500263
H139	H	0.733203	0.330007	0.077178
H140	H	1.233203	0.830007	0.577178
Br141	Br	0.649029	0.052201	0.000136
Br142	Br	1.149029	0.552201	0.500136
Br143	Br	0.971456	0.289439	0.000268
Br144	Br	1.471456	0.789439	0.500268
Br145	Br	0.704652	0.477568	0.100198
Br146	Br	1.204652	0.977568	0.600198
Br147	Br	0.031379	0.061258	0.000257
Br148	Br	0.531379	0.561258	0.500257
H149	H	0.707676	0.234392	0.000177
H150	H	1.207676	0.734392	0.500177
H151	H	0.703048	0.549848	0.000176
H152	H	1.203048	1.049848	0.500176
H153	H	0.896402	-0.168739	-0.665706
H154	H	1.396402	0.331261	-0.165706
H155	H	0.896364	-0.168731	-0.195497
H156	H	1.396364	0.331269	0.304503
Br157	Br	0.202138	0.058751	0.000229
Br158	Br	0.702138	0.558751	0.500229
Br159	Br	0.666457	0.696344	0.000157
Br160	Br	1.166457	1.196344	0.500157
H161	H	0.744011	-0.016233	-0.195589
H162	H	1.244011	0.483767	0.304411
Br163	Br	0.967398	0.565561	0.000253
Br164	Br	1.467398	1.065561	0.500253
Br165	Br	0.162160	-0.239684	0.000251
Br166	Br	0.662160	0.260316	0.500251
H167	H	0.709607	0.102962	0.000169
H168	H	1.209607	0.602962	0.500169
Br169	Br	0.672598	-0.088289	-0.410029
Br170	Br	1.172598	0.411711	0.089971
H171	H	0.939306	0.133741	0.000238
H172	H	1.439306	0.633741	0.500238
H173	H	0.896377	-0.168731	-0.333782
H174	H	1.396377	0.331269	0.166218
H175	H	0.933818	-0.095681	-0.430588
H176	H	1.433818	0.404319	0.069412
H177	H	0.266331	-0.003546	0.077214
H178	H	0.766331	0.496454	0.577214
Br179	Br	0.721239	0.006557	-0.645122
Br180	Br	1.221239	0.506557	-0.145122
H181	H	0.909146	0.353586	-0.076744
H182	H	1.409146	0.853586	0.423256
H183	H	0.744022	-0.016245	-0.333882
H184	H	1.244022	0.483755	0.166118
Br185	Br	0.967830	-0.096632	-0.589550
Br186	Br	1.467830	0.403368	-0.089550
H187	H	0.397755	-0.005472	0.077190
H188	H	0.897755	0.494528	0.577190
Br189	Br	0.919221	-0.191542	-0.824671
Br190	Br	1.419221	0.308458	-0.324671
Br191	Br	0.721270	0.006573	-0.824793
Br192	Br	1.221270	0.506573	-0.324793
H193	H	0.907224	0.485019	-0.076736
H194	H	1.407224	0.985019	0.423264
Br195	Br	0.478264	0.054702	0.000176
Br196	Br	0.978264	0.554702	0.500176
H197	H	0.593982	-0.211581	0.000174
H198	H	1.093982	0.288419	0.500174
Br199	Br	0.438283	-0.243729	0.000192
Br200	Br	0.938283	0.256271	0.500192
H201	H	0.374098	-0.181438	-0.076774
H202	H	0.874098	0.318562	0.423226
Br203	Br	0.219465	-0.205549	-0.099783
Br204	Br	0.719465	0.294451	0.400217
H205	H	0.706599	-0.089311	-0.568989
H206	H	1.206599	0.410689	-0.068989
H207	H	0.930816	0.712052	0.000257
H208	H	1.430816	1.212052	0.500257
