data_functionalizedCrystal
_audit_creation_method	'MofGen! by Chris Wilmer'
_symmetry_space_group_name_H-M	'P1'
_symmetry_Int_Tables_number	1
_symmetry_cell_setting	triclinic
loop_
_symmetry_equiv_pos_as_xyz
  x,y,z
_cell_length_a	11.169417
_cell_length_b	13.032721
_cell_length_c	11.169409
_cell_angle_alpha	82.853997
_cell_angle_beta	90.019513
_cell_angle_gamma	97.205324
loop_
_atom_site_label
_atom_site_type_symbol
_atom_site_fract_x
_atom_site_fract_y
_atom_site_fract_z
Zn1	Zn	1.774211	-0.415916	0.739152
Zn2	Zn	2.107544	-0.082582	1.072485
Zn3	Zn	2.440877	0.250751	1.405819
Zn4	Zn	1.748569	-0.590704	0.563944
Zn5	Zn	2.081903	-0.257371	0.897278
Zn6	Zn	2.415236	0.075963	1.230611
Zn7	Zn	1.573487	-0.415980	0.538497
Zn8	Zn	1.906820	-0.082647	0.871830
Zn9	Zn	2.240154	0.250686	1.205164
Zn10	Zn	1.547985	-0.590620	0.764578
Zn11	Zn	1.881319	-0.257287	1.097911
Zn12	Zn	2.214652	0.076047	1.431245
O13	O	1.661063	-0.503305	0.651543
O14	O	1.994396	-0.169972	0.984876
O15	O	2.327730	0.163362	1.318209
O16	O	1.938758	-0.439110	0.715919
O17	O	2.272091	-0.105776	1.049253
O18	O	2.605424	0.227557	1.382586
O19	O	1.725286	-0.567589	0.392628
O20	O	2.058619	-0.234255	0.725961
O21	O	2.391952	0.099078	1.059295
O22	O	1.621517	-0.269735	0.543824
O23	O	1.954850	0.063598	0.877157
O24	O	2.288184	0.396932	1.210490
O25	O	1.919919	-0.567526	0.587195
O26	O	2.253252	-0.234193	0.920528
O27	O	2.586586	0.099141	1.253862
O28	O	1.768988	-0.269687	0.691244
O29	O	2.102321	0.063646	1.024578
O30	O	2.435654	0.396979	1.357911
O31	O	1.596654	-0.439220	0.373932
O32	O	1.929987	-0.105887	0.707265
O33	O	2.263320	0.227447	1.040599
O34	O	1.402156	-0.439139	0.568478
O35	O	1.735489	-0.105805	0.901812
O36	O	2.068822	0.227528	1.235145
O37	O	1.578053	-0.567383	0.929146
O38	O	1.911387	-0.234049	1.262479
O39	O	2.244720	0.099284	1.595813
O40	O	1.383420	-0.567446	0.734579
O41	O	1.716753	-0.234112	1.067912
O42	O	2.050086	0.099221	1.401246
O43	O	1.744260	-0.439028	0.910466
O44	O	2.077593	-0.105695	1.243799
O45	O	2.410927	0.227638	1.577132
O46	O	1.700558	-0.736930	0.611849
O47	O	2.033891	-0.403596	0.945183
O48	O	2.367224	-0.070263	1.278516
O49	O	1.553190	-0.736868	0.759254
O50	O	1.886523	-0.403535	1.092587
O51	O	2.219856	-0.070201	1.425921
C52	C	1.349240	-0.503291	0.651527
C53	C	1.682574	-0.169958	0.984860
C54	C	2.015907	0.163376	1.318194
C55	C	1.215838	-0.503310	0.651552
C56	C	1.549171	-0.169977	0.984886
C57	C	1.882504	0.163357	1.318219
C58	C	1.621357	-0.774816	0.691098
C59	C	1.954690	-0.441483	1.024432
C60	C	2.288023	-0.108150	1.357765
C61	C	1.604480	-0.890970	0.708060
C62	C	1.937813	-0.557637	1.041394
C63	C	2.271147	-0.224303	1.374727
C64	C	1.669935	-0.942751	0.642744
C65	C	2.003268	-0.609417	0.976077
C66	C	2.336602	-0.276084	1.309411
C67	C	1.652494	-1.062802	0.660274
C68	C	1.985827	-0.729468	0.993607
C69	C	2.319160	-0.396135	1.326940
C70	C	1.974103	-0.503320	0.651560
C71	C	2.307437	-0.169987	0.984893
C72	C	2.640770	0.163347	1.318226
C73	C	2.107502	-0.503326	0.651567
C74	C	2.440836	-0.169993	0.984900
C75	C	2.774169	0.163340	1.318233
C76	C	1.661172	-0.503189	0.964569
C77	C	1.994506	-0.169856	1.297902
C78	C	2.327839	0.163478	1.631235
C79	C	1.661219	-0.503139	1.097961
C80	C	1.994552	-0.169806	1.431295
C81	C	2.327885	0.163527	1.764628
C82	C	1.700957	-0.230733	0.611859
C83	C	2.034291	0.102600	0.945193
C84	C	2.367624	0.435933	1.278526
C85	C	1.717958	-0.114580	0.594948
C86	C	2.051291	0.218754	0.928282
C87	C	2.384625	0.552087	1.261615
C88	C	1.661035	-0.503345	0.339724
C89	C	1.994368	-0.170012	0.673057
C90	C	2.327701	0.163322	1.006391
C91	C	1.661263	-0.503100	0.206289
C92	C	1.994597	-0.169767	0.539622
C93	C	2.327930	0.163566	0.872955
H94	H	1.738891	-0.898208	0.573851
H95	H	2.072224	-0.564874	0.907184
H96	H	2.405558	-0.231541	1.240517
C97	C	1.511326	-0.951144	0.801138
C98	C	1.844659	-0.617811	1.134472
C99	C	2.177993	-0.284477	1.467805
N100	N	1.441158	-0.996466	0.871245
N101	N	1.774492	-0.663132	1.204578
N102	N	2.107825	-0.329799	1.537911
H103	H	1.786918	-1.070039	0.526051
H104	H	2.120252	-0.736706	0.859384
H105	H	2.453585	-0.403373	1.192717
C106	C	1.559335	-1.122972	0.753357
C107	C	1.892668	-0.789638	1.086690
C108	C	2.226002	-0.456305	1.420023
N109	N	1.489167	-1.168293	0.823463
N110	N	1.822500	-0.834960	1.156796
N111	N	2.155834	-0.501627	1.490130
