data_functionalizedCrystal
_audit_creation_method	'MofGen! by Chris Wilmer'
_symmetry_space_group_name_H-M	'P1'
_symmetry_Int_Tables_number	1
_symmetry_cell_setting	triclinic
loop_
_symmetry_equiv_pos_as_xyz
  x,y,z
_cell_length_a	15.944499
_cell_length_b	17.000371
_cell_length_c	14.421503
_cell_angle_alpha	90.003504
_cell_angle_beta	89.989779
_cell_angle_gamma	79.538428
loop_
_atom_site_label
_atom_site_type_symbol
_atom_site_fract_x
_atom_site_fract_y
_atom_site_fract_z
O1	O	1.106983	0.102448	-0.077167
O2	O	0.861489	0.115147	-0.077157
O3	O	0.999479	-0.007071	-0.077156
O4	O	0.968993	0.224666	-0.077168
O5	O	0.999457	-0.007052	0.077067
O6	O	0.861466	0.115165	0.077066
O7	O	1.106961	0.102466	0.077056
Cu8	Cu	0.984211	0.108817	0.091143
Cu9	Cu	0.984238	0.108796	-0.091244
O10	O	0.968970	0.224684	0.077055
C11	C	0.830221	0.114636	-0.000044
C12	C	0.737088	0.113078	-0.000040
C13	C	0.440304	0.184083	-0.000057
C14	C	0.504072	0.147164	-0.076097
C15	C	0.401870	0.107415	-0.000061
C16	C	0.504037	0.147161	0.075955
C17	C	0.566573	0.110201	-0.000049
C18	C	0.464413	0.070474	-0.076164
C19	C	0.464371	0.070482	0.075957
C20	C	0.528126	0.033507	-0.000102
C21	C	0.306989	0.105812	-0.000069
C22	C	0.661454	0.111798	-0.000048
C23	C	1.001106	-0.036715	-0.000045
C24	C	1.005975	-0.125075	-0.000046
C25	C	0.931044	-0.157091	-0.000047
C26	C	0.935624	-0.240115	-0.000045
C27	C	1.015136	-0.291120	-0.000048
C28	C	1.090073	-0.259099	-0.000044
C29	C	1.085492	-0.176077	-0.000040
C30	C	1.032831	-0.542268	-0.000055
C31	C	1.037406	-0.625296	-0.000062
C32	C	0.882956	-0.606305	-0.000061
C33	C	0.878383	-0.523283	-0.000062
C34	C	0.953319	-0.491268	-0.000053
C35	C	1.019820	-0.375984	-0.000049
C36	C	0.948635	-0.406406	-0.000046
C37	C	1.138228	0.102977	-0.000059
C38	C	1.231361	0.104536	-0.000069
C39	C	0.967344	0.254329	-0.000058
C40	C	0.962475	0.342688	-0.000063
N41	N	0.984199	0.108832	0.219424
N42	N	0.984258	0.108775	-0.219525
C43	C	0.920383	0.165320	0.469078
C44	C	0.995144	0.180760	0.530876
C45	C	0.984221	0.108813	0.408586
C46	C	0.909478	0.093392	0.530881
C47	C	0.984235	0.108797	0.591307
C48	C	1.059017	0.124288	0.469023
C49	C	0.973303	0.036890	0.469023
C50	C	1.048121	0.052299	0.530794
C51	C	0.984211	0.108825	0.303325
C52	C	0.984253	0.108784	0.696566
H53	H	0.446838	0.038069	-0.140522
C54	C	0.961699	-0.044494	0.335221
C55	C	0.960789	-0.045183	0.432305
H56	H	0.953971	-0.095164	0.312553
H57	H	0.916892	-0.004249	0.313180
H58	H	1.014861	-0.033615	0.314091
H59	H	0.907624	-0.056056	0.453436
H60	H	1.005599	-0.085440	0.454355
H61	H	1.084559	-0.417522	-0.000053
H62	H	1.004391	0.241576	0.558045
H63	H	0.566011	-0.030177	-0.000139
H64	H	0.402270	0.247710	-0.000134
H65	H	1.122240	0.137397	0.441966
C66	C	0.836298	-0.052720	-0.079326
C67	C	0.843640	-0.101029	-0.000046
H68	H	0.782335	-0.018115	-0.079324
H69	H	0.880262	-0.021770	-0.079319
H70	H	0.841305	-0.085514	-0.133102
H71	H	0.838639	-0.068235	0.053730
H72	H	0.799663	-0.131982	-0.000044
C73	C	0.771198	0.065641	0.492712
C74	C	0.824146	0.075781	0.567558
H75	H	0.718519	0.054767	0.515355
H76	H	0.761026	0.113083	0.456498
H77	H	0.798136	0.022184	0.455534
H78	H	0.797210	0.119242	0.604732
H79	H	0.834315	0.028333	0.603788
C80	C	0.483189	0.269810	-0.162653
C81	C	0.528074	0.190960	-0.162816
H82	H	0.498035	0.296861	-0.216165
H83	H	0.423667	0.269568	-0.163094
H84	H	0.497437	0.296480	-0.108594
H85	H	0.513820	0.164289	-0.216872
H86	H	0.587609	0.191198	-0.162384
C87	C	0.460043	0.067025	0.242298
C88	C	0.440423	0.026753	0.162745
H89	H	0.445251	0.040034	0.295881
H90	H	0.519381	0.068136	0.243231
H91	H	0.428790	0.120214	0.241741
H92	H	0.471681	-0.026435	0.163299
H93	H	0.381075	0.025633	0.161813
H94	H	1.102168	0.004502	0.557722
C95	C	0.859232	0.305138	0.463706
C96	C	0.847575	0.229877	0.432481
H97	H	0.814289	0.344992	0.441105
H98	H	0.859044	0.305891	0.529562
H99	H	0.912264	0.315576	0.441613
H100	H	0.794546	0.219437	0.454579
H101	H	0.847755	0.229122	0.366611
C102	C	1.238618	-0.203181	-0.000059
C103	C	1.167859	-0.140881	-0.000049
H104	H	1.289468	-0.181452	-0.000069
H105	H	1.237187	-0.235163	0.053718
H106	H	1.237192	-0.235171	-0.053845
H107	H	1.169281	-0.108894	0.053741
H108	H	1.169290	-0.108886	-0.053831
C109	C	0.482951	0.269789	0.162580
C110	C	0.527887	0.190958	0.162740
H111	H	0.497669	0.296828	0.216158
H112	H	0.497277	0.296492	0.108589
H113	H	0.423429	0.269506	0.162900
H114	H	0.587410	0.191240	0.162413
H115	H	0.513567	0.164248	0.216745
H116	H	0.874607	-0.266178	-0.000052
H117	H	0.813635	-0.481758	-0.000062
C118	C	0.821396	-0.725140	-0.000058
C119	C	0.800590	-0.641498	-0.000058
H120	H	0.770543	-0.746863	-0.000048
H121	H	0.853875	-0.742644	-0.053839
H122	H	0.853871	-0.742636	0.053723
H123	H	0.768120	-0.624001	-0.053843
H124	H	0.768097	-0.623986	0.053729
H125	H	1.093850	-0.516213	-0.000050
C126	C	1.189621	-0.635733	-0.000052
C127	C	1.124813	-0.681364	-0.000063
H128	H	1.243578	-0.670348	-0.000050
H129	H	1.184635	-0.602957	-0.053825
H130	H	1.184609	-0.602955	0.053738
H131	H	1.129821	-0.714137	-0.053857
H132	H	1.129801	-0.714153	0.053715
H133	H	1.154814	-0.300634	-0.000041
C134	C	0.853910	-0.302035	-0.079327
C135	C	0.861235	-0.350344	-0.000047
H136	H	0.799950	-0.267424	-0.079332
H137	H	0.897880	-0.271093	-0.079314
H138	H	0.858917	-0.334830	-0.133103
H139	H	0.856234	-0.317550	0.053729
H140	H	0.817253	-0.381290	-0.000052
