data_functionalizedCrystal
_audit_creation_method	'MofGen! by Chris Wilmer'
_symmetry_space_group_name_H-M	'P1'
_symmetry_Int_Tables_number	1
_symmetry_cell_setting	triclinic
loop_
_symmetry_equiv_pos_as_xyz
  x,y,z
_cell_length_a	15.298110
_cell_length_b	10.685676
_cell_length_c	10.685880
_cell_angle_alpha	80.978538
_cell_angle_beta	83.935669
_cell_angle_gamma	83.955655
loop_
_atom_site_label
_atom_site_type_symbol
_atom_site_fract_x
_atom_site_fract_y
_atom_site_fract_z
Zn1	Zn	-1.356355	0.864905	-0.450882
Zn2	Zn	-1.335279	1.056199	-0.259653
Zn3	Zn	-1.198648	0.813284	-0.274182
Zn4	Zn	-1.198629	1.041668	-0.502612
O5	O	-1.272228	0.944014	-0.371832
O6	O	-1.476749	0.917966	-0.397785
O7	O	-1.308341	1.008453	-0.085952
O8	O	-1.228397	0.644495	-0.282053
O9	O	-1.461264	1.058508	-0.257290
O10	O	-1.344264	0.682421	-0.411874
O11	O	-1.207959	0.829984	-0.096626
O12	O	-1.075456	0.815894	-0.332214
O13	O	-1.228365	1.033743	-0.671379
O14	O	-1.075442	0.983688	-0.500040
O15	O	-1.344245	0.903876	-0.633373
O16	O	-1.308323	1.229908	-0.307451
O17	O	-1.207927	1.219233	-0.485952
C18	C	-1.043507	0.892614	-0.423318
C19	C	-0.945660	0.870657	-0.445376
C20	C	-0.637592	1.100903	-0.214413
C21	C	-0.729524	1.121529	-0.193679
C22	C	-0.783562	1.058814	-0.256601
C23	C	-0.745660	0.975466	-0.340261
C24	C	-0.653718	0.954830	-0.360990
C25	C	-0.799689	0.912741	-0.403178
C26	C	-0.761786	0.829394	-0.486838
C27	C	-0.669853	0.808762	-0.507564
C28	C	-0.615815	0.871477	-0.444641
C29	C	-0.891630	0.933378	-0.382450
C30	C	-0.907757	0.787305	-0.529027
C31	C	-0.815824	0.766678	-0.549761
C32	C	-1.255861	1.270119	-0.400761
C33	C	-1.248942	1.409649	-0.413160
C34	C	-0.501841	0.995602	-0.320132
C35	C	-0.599689	1.017550	-0.298064
C36	C	-1.288654	0.972947	-0.699188
C37	C	-1.295654	0.985277	-0.838687
C38	C	-1.288655	1.616636	-0.342805
C39	C	-1.295582	1.477108	-0.330415
C40	C	-1.255920	0.915114	-0.045731
C41	C	-1.249109	0.902470	0.093837
H42	H	-0.760378	1.189389	-0.125560
H43	H	-0.951755	0.736232	-0.580260
C44	C	-1.355966	1.412037	-0.223251
C45	C	-1.397620	1.502233	-0.149418
C46	C	-1.453262	1.442331	-0.050697
H47	H	-1.322172	1.348559	-0.171484
H48	H	-1.399263	1.373714	-0.258143
H49	H	-1.354330	1.540535	-0.114528
H50	H	-1.431431	1.565715	-0.201149
H51	H	-1.496559	1.404008	-0.085588
H52	H	-1.419461	1.378854	0.001061
H53	H	-1.481537	1.503521	-0.000596
C54	C	-0.774835	0.676184	-0.640682
C55	C	-0.841827	0.625695	-0.691381
C56	C	-0.804102	0.542344	-0.775155
H57	H	-0.739310	0.609036	-0.596126
H58	H	-0.739333	0.721052	-0.707694
H59	H	-0.877314	0.580828	-0.624380
H60	H	-0.877357	0.692813	-0.735960
H61	H	-0.768600	0.587212	-0.842168
H62	H	-0.768578	0.475204	-0.730589
H63	H	-0.849550	0.508086	-0.809574
H64	H	-1.203720	1.458647	-0.493496
H65	H	-0.858417	1.075613	-0.239715
H66	H	-1.203897	0.822144	-0.857211
C67	C	-1.356081	1.092343	-0.903752
C68	C	-1.442971	1.081822	-0.849893
C69	C	-1.498658	1.180436	-0.909784
H70	H	-1.353056	1.086789	-0.991981
H71	H	-1.337946	1.171936	-0.892664
H72	H	-1.461101	1.002249	-0.860992
H73	H	-1.446024	1.087391	-0.761669
H74	H	-1.480524	1.260029	-0.898696
H75	H	-1.495626	1.174873	-0.998011
H76	H	-1.557618	1.173318	-0.873241
C77	C	-0.932727	1.024086	-0.291818
C78	C	-0.905515	1.145698	-0.335022
C79	C	-0.943365	1.229303	-0.251572
H80	H	-0.914371	0.994921	-0.209242
H81	H	-0.995225	1.027485	-0.288498
H82	H	-0.843032	1.142295	-0.338328
H83	H	-0.923871	1.174902	-0.417587
H84	H	-1.005862	1.232703	-0.248252
H85	H	-0.925006	1.200127	-0.169001
H86	H	-0.924913	1.311829	-0.280881
H87	H	-0.540956	0.854692	-0.461523
C88	C	-0.628532	0.718269	-0.598294
C89	C	-0.536453	0.713597	-0.602955
C90	C	-0.498360	0.630238	-0.686510
H91	H	-0.646816	0.747511	-0.680898
H92	H	-0.646859	0.635635	-0.569189
H93	H	-0.518134	0.796214	-0.632066
H94	H	-0.518145	0.684341	-0.520373
H95	H	-0.516688	0.547604	-0.657406
H96	H	-0.516651	0.659489	-0.769108
H97	H	-0.435882	0.627048	-0.689675
H98	H	-0.593586	1.151948	-0.163181
