data_functionalizedCrystal
_audit_creation_method	'MofGen! by Chris Wilmer'
_symmetry_space_group_name_H-M	'P1'
_symmetry_Int_Tables_number	1
_symmetry_cell_setting	triclinic
loop_
_symmetry_equiv_pos_as_xyz
  x,y,z
_cell_length_a	14.853567
_cell_length_b	14.519709
_cell_length_c	13.330367
_cell_angle_alpha	90.003343
_cell_angle_beta	90.004719
_cell_angle_gamma	83.657538
loop_
_atom_site_label
_atom_site_type_symbol
_atom_site_fract_x
_atom_site_fract_y
_atom_site_fract_z
O1	O	1.196416	0.120402	0.083357
O2	O	0.933962	0.134745	0.083374
O3	O	1.072148	-0.006668	0.083356
O4	O	1.058230	0.261815	0.083375
O5	O	1.072127	-0.006665	-0.083491
O6	O	0.933941	0.134748	-0.083473
O7	O	1.196395	0.120405	-0.083491
Cu8	Cu	1.065166	0.127576	-0.098716
Cu9	Cu	1.065191	0.127573	0.098600
O10	O	1.058209	0.261817	-0.083472
C11	C	0.900363	0.134096	-0.000047
C12	C	0.800278	0.132149	-0.000041
C13	C	1.071488	-0.041026	-0.000068
C14	C	1.069545	-0.143407	-0.000068
C15	C	0.387709	0.039914	-0.000070
C16	C	0.366493	0.207916	-0.000057
C17	C	0.460527	0.209747	-0.000054
C18	C	0.518157	0.126660	-0.000057
C19	C	0.481752	0.041743	-0.000064
C20	C	0.496939	0.294663	-0.000037
C21	C	0.590979	0.296498	-0.000033
C22	C	0.648610	0.213410	-0.000043
C23	C	0.612200	0.128489	-0.000051
C24	C	0.669830	0.045403	-0.000054
C25	C	0.633422	-0.039520	-0.000069
C26	C	0.539383	-0.041345	-0.000074
C27	C	0.742649	0.215235	-0.000038
C28	C	0.763873	0.047231	-0.000048
C29	C	1.062390	-0.518299	-0.000042
C30	C	1.064377	-0.413992	-0.000050
C31	C	1.065967	-0.330856	-0.000056
C32	C	1.067955	-0.226543	-0.000062
C33	C	1.229994	0.121053	-0.000067
C34	C	1.330079	0.123001	-0.000067
C35	C	1.058869	0.296175	-0.000046
C36	C	1.060812	0.398556	-0.000039
N37	N	1.065155	0.127578	-0.237498
C38	C	1.010393	0.071542	-0.290023
C39	C	1.119928	0.183610	-0.290000
C40	C	1.119939	0.183610	-0.395019
C41	C	1.065177	0.127573	-0.447544
C42	C	1.010404	0.071537	-0.395051
C43	C	1.174717	0.239638	-0.447520
C44	C	1.174731	0.239639	-0.552544
C45	C	1.119963	0.183606	-0.605072
C46	C	1.065188	0.127569	-0.552572
C47	C	1.010425	0.071532	-0.605098
C48	C	0.955644	0.015499	-0.552600
C49	C	0.955636	0.015505	-0.447579
C50	C	1.119971	0.183600	-0.710093
C51	C	1.010436	0.071528	-0.710126
N52	N	1.065209	0.127564	0.237381
H53	H	0.810790	-0.020429	-0.000054
H54	H	0.509731	-0.110484	-0.000110
H55	H	0.911038	-0.030116	-0.404826
H56	H	1.219308	0.285253	-0.404746
N57	N	0.438062	0.379519	-0.000002
N58	N	0.354102	0.377871	0.000002
H59	H	0.312514	0.437803	0.000033
H60	H	0.911061	-0.030130	-0.595380
H61	H	0.772288	0.284378	-0.000027
N62	N	0.954437	0.014320	-0.236390
N63	N	0.954425	0.014333	-0.142621
H64	H	0.914904	-0.026079	-0.104740
N65	N	0.692307	-0.124379	-0.000081
N66	N	0.747154	-0.142086	-0.070406
H67	H	0.788747	-0.202015	-0.070416
H68	H	0.358060	-0.029228	-0.000086
N69	N	1.175867	0.240833	-0.236336
N70	N	1.175854	0.240823	-0.142567
H71	H	1.215362	0.281238	-0.104661
N72	N	0.307626	0.292779	-0.000072
N73	N	0.311015	0.349226	-0.070403
H74	H	0.269435	0.409164	-0.070416
H75	H	0.620614	0.365646	-0.000020
H76	H	0.965838	0.025899	-0.752885
N77	N	1.230692	0.296876	-0.606149
N78	N	1.279584	0.346901	-0.559237
H79	H	1.319107	0.387327	-0.597096
N80	N	1.175935	0.240827	-0.763702
N81	N	1.224832	0.290847	-0.716793
H82	H	1.264360	0.331267	-0.754652
