data_functionalizedCrystal
_audit_creation_method	'MofGen! by Chris Wilmer'
_symmetry_space_group_name_H-M	'P1'
_symmetry_Int_Tables_number	1
_symmetry_cell_setting	triclinic
loop_
_symmetry_equiv_pos_as_xyz
  x,y,z
_cell_length_a	19.288859
_cell_length_b	19.288865
_cell_length_c	14.048226
_cell_angle_alpha	89.988335
_cell_angle_beta	89.992667
_cell_angle_gamma	83.134986
loop_
_atom_site_label
_atom_site_type_symbol
_atom_site_fract_x
_atom_site_fract_y
_atom_site_fract_z
O1	O	0.921353	0.086629	-0.079190
O2	O	1.254686	0.419962	0.254143
O3	O	1.588019	0.753295	0.587476
O4	O	0.719092	0.098322	-0.079189
O5	O	1.052425	0.431655	0.254144
O6	O	1.385758	0.764989	0.587477
O7	O	0.826067	-0.008655	-0.079171
O8	O	1.159400	0.324678	0.254162
O9	O	1.492733	0.658012	0.587496
O10	O	0.814378	0.193606	-0.079209
O11	O	1.147711	0.526939	0.254125
O12	O	1.481044	0.860272	0.587458
O13	O	0.826054	-0.008661	0.079150
O14	O	1.159387	0.324672	0.412484
O15	O	1.492720	0.658005	0.745817
O16	O	0.719079	0.098316	0.079132
O17	O	1.052412	0.431649	0.412465
O18	O	1.385745	0.764982	0.745799
O19	O	0.921340	0.086622	0.079131
O20	O	1.254673	0.419956	0.412464
O21	O	1.588007	0.753289	0.745798
Zn22	Zn	0.820207	0.092468	0.104268
Zn23	Zn	1.153541	0.425801	0.437602
Zn24	Zn	1.486874	0.759135	0.770935
Zn25	Zn	0.820224	0.092476	-0.104327
Zn26	Zn	1.153558	0.425810	0.229007
Zn27	Zn	1.486891	0.759143	0.562340
O28	O	0.814365	0.193600	0.079113
O29	O	1.147698	0.526933	0.412446
O30	O	1.481032	0.860266	0.745779
C31	C	0.693209	0.097943	-0.000028
C32	C	1.026542	0.431277	0.333305
C33	C	1.359875	0.764610	0.666638
C34	C	0.616105	0.096816	-0.000027
C35	C	0.949438	0.430149	0.333306
C36	C	1.282771	0.763483	0.666639
C37	C	0.052064	0.151959	-0.000039
C38	C	0.385397	0.485293	0.333294
C39	C	0.718731	0.818626	0.666628
C40	C	0.124511	0.153025	-0.000044
C41	C	0.457844	0.486358	0.333289
C42	C	0.791177	0.819691	0.666623
C43	C	0.169217	0.090255	-0.000031
C44	C	0.502551	0.423589	0.333303
C45	C	0.835884	0.756922	0.666636
C46	C	0.141472	0.026416	-0.000036
C47	C	0.474806	0.359749	0.333297
C48	C	0.808139	0.693083	0.666630
C49	C	0.069027	0.025353	-0.000041
C50	C	0.402360	0.358686	0.333293
C51	C	0.735694	0.692019	0.666626
C52	C	0.290483	0.043440	0.055449
C53	C	0.623816	0.376773	0.388782
C54	C	0.957150	0.710107	0.722115
C55	C	0.362927	0.044506	0.055459
C56	C	0.696260	0.377840	0.388792
C57	C	1.029593	0.711173	0.722125
C58	C	0.392663	0.093533	-0.000022
C59	C	0.725997	0.426866	0.333312
C60	C	1.059330	0.760200	0.666645
C61	C	0.349946	0.141505	-0.055500
C62	C	0.683279	0.474838	0.277834
C63	C	1.016612	0.808172	0.611167
C64	C	0.277500	0.140442	-0.055504
C65	C	0.610834	0.473775	0.277829
C66	C	0.944167	0.807108	0.611163
C67	C	0.247773	0.091401	-0.000027
C68	C	0.581106	0.424735	0.333307
C69	C	0.914440	0.758068	0.666640
C70	C	0.498955	0.158523	-0.000028
C71	C	0.832288	0.491857	0.333305
C72	C	1.165621	0.825190	0.666639
C73	C	0.571403	0.159586	-0.000039
C74	C	0.904736	0.492919	0.333294
C75	C	1.238070	0.826253	0.666627
C76	C	0.588364	0.032976	-0.000022
C77	C	0.921697	0.366309	0.333311
C78	C	1.255030	0.699642	0.666645
C79	C	0.515917	0.031915	-0.000020
C80	C	0.849250	0.365248	0.333313
C81	C	1.182583	0.698581	0.666646
C82	C	0.471216	0.094691	-0.000019
C83	C	0.804550	0.428024	0.333314
C84	C	1.137883	0.761357	0.666648
C85	C	0.825684	-0.034535	-0.000007
C86	C	1.159017	0.298799	0.333326
C87	C	1.492351	0.632132	0.666659
C88	C	0.824555	-0.111638	0.000001
C89	C	1.157888	0.221695	0.333334
C90	C	1.491222	0.555028	0.666668
C91	C	0.887323	-0.156336	0.000005
C92	C	1.220656	0.176997	0.333339
C93	C	1.553990	0.510331	0.666672
C94	C	0.886262	-0.228783	-0.000010
C95	C	1.219596	0.104550	0.333324
C96	C	1.552929	0.437884	0.666657
C97	C	0.822430	-0.256529	-0.000010
C98	C	1.155763	0.076804	0.333323
C99	C	1.489097	0.410138	0.666657
C100	C	0.759654	-0.211822	-0.000020
C101	C	1.092987	0.121512	0.333313
C102	C	1.426320	0.454845	0.666647
C103	C	0.760716	-0.139376	-0.000014
C104	C	1.094050	0.193957	0.333319
C105	C	1.427383	0.527291	0.666652
C106	C	0.772246	-0.364818	0.055447
C107	C	1.105579	-0.031484	0.388780
C108	C	1.438913	0.301849	0.722113
C109	C	0.771186	-0.437262	0.055447
C110	C	1.104519	-0.103929	0.388780
C111	C	1.437853	0.229405	0.722114
C112	C	0.819150	-0.479975	-0.000031
C113	C	1.152484	-0.146641	0.333302
C114	C	1.485817	0.186692	0.666635
C115	C	0.868186	-0.450235	-0.055498
C116	C	1.201520	-0.116902	0.277835
C117	C	1.534853	0.216431	0.611169
C118	C	0.869249	-0.377790	-0.055492
C119	C	1.202582	-0.044457	0.277841
C120	C	1.535916	0.288877	0.611174
C121	C	0.821271	-0.335083	-0.000017
C122	C	1.154604	-0.001750	0.333317
C123	C	1.487938	0.331584	0.666650
C124	C	0.880773	-0.603228	-0.000045
C125	C	1.214106	-0.269895	0.333289
C126	C	1.547439	0.063438	0.666622
C127	C	0.879709	-0.675676	-0.000066
C128	C	1.213043	-0.342343	0.333268
C129	C	1.546376	-0.009010	0.666601
C130	C	0.753099	-0.658713	-0.000066
C131	C	1.086432	-0.325380	0.333267
C132	C	1.419766	0.007953	0.666600
C133	C	0.754164	-0.586267	-0.000055
C134	C	1.087497	-0.252934	0.333279
C135	C	1.420831	0.080400	0.666612
C136	C	0.818003	-0.558529	-0.000040
C137	C	1.151336	-0.225196	0.333294
C138	C	1.484670	0.108138	0.666627
C139	C	0.947223	0.087001	-0.000032
C140	C	1.280556	0.420334	0.333301
C141	C	1.613890	0.753668	0.666635
C142	C	1.024327	0.088128	-0.000039
C143	C	1.357660	0.421462	0.333294
C144	C	1.690993	0.754795	0.666627
C145	C	0.814747	0.219479	-0.000053
C146	C	1.148081	0.552812	0.333280
C147	C	1.481414	0.886146	0.666614
C148	C	0.815876	0.296583	-0.000068
C149	C	1.149210	0.629916	0.333266
C150	C	1.482543	0.963249	0.666599
N151	N	0.820201	0.092462	0.246629
N152	N	1.153534	0.425795	0.579962
N153	N	1.486868	0.759129	0.913296
N154	N	0.820236	0.092477	-0.246687
N155	N	1.153569	0.425810	0.086646
N156	N	1.486903	0.759144	0.419979
C157	C	0.867584	0.045112	0.296455
C158	C	1.200918	0.378445	0.629789
C159	C	1.534251	0.711779	0.963122
C160	C	0.867589	0.045112	0.396113
C161	C	1.200922	0.378445	0.729446
C162	C	1.534256	0.711778	1.062780
C163	C	0.820213	0.092465	0.445943
C164	C	1.153546	0.425798	0.779276
C165	C	1.486880	0.759132	1.112609
C166	C	0.772825	0.139817	0.396109
C167	C	1.106158	0.473151	0.729443
C168	C	1.439491	0.806484	1.062776
C169	C	0.772817	0.139814	0.296454
C170	C	1.106151	0.473147	0.629787
C171	C	1.439484	0.806481	0.963120
C172	C	0.772845	0.139822	0.603824
C173	C	1.106178	0.473156	0.937157
C174	C	1.439511	0.806489	1.270490
C175	C	0.772853	0.139827	0.703486
C176	C	1.106186	0.473160	1.036820
C177	C	1.439520	0.806494	1.370153
C178	C	0.867616	0.045120	0.703483
C179	C	1.200950	0.378453	1.036816
C180	C	1.534283	0.711787	1.370150
C181	C	0.867609	0.045117	0.603827
C182	C	1.200942	0.378450	0.937161
C183	C	1.534276	0.711783	1.270494
C184	C	0.820221	0.092470	0.554001
C185	C	1.153555	0.425803	0.887334
C186	C	1.486888	0.759137	1.220668
H187	H	0.046445	-0.026628	-0.000041
H188	H	0.379778	0.306706	0.333292
H189	H	0.713111	0.640039	0.666625
H190	H	0.734274	0.178386	0.744053
H191	H	1.067607	0.511720	1.077386
H192	H	1.400941	0.845053	1.410719
H193	H	0.147099	0.205005	-0.000035
H194	H	0.480432	0.538338	0.333298
H195	H	0.813766	0.871672	0.666632
H196	H	0.906166	0.006554	0.255891
H197	H	1.239499	0.339888	0.589224
H198	H	1.572833	0.673221	0.922557
F199	F	0.408383	-0.006545	0.114510
F200	F	0.741716	0.326789	0.447844
F201	F	1.075049	0.660122	0.781177
H202	H	0.731255	-0.461469	0.100606
H203	H	1.064588	-0.128136	0.433939
H204	H	1.397922	0.205197	0.767272
H205	H	0.906189	0.006561	0.563256
H206	H	1.239522	0.339895	0.896589
H207	H	1.572856	0.673228	1.229923
H208	H	0.906201	0.006563	0.744057
H209	H	1.239534	0.339897	1.077391
H210	H	1.572867	0.673230	1.410724
F211	F	0.687357	-0.538694	-0.000056
F212	F	1.020690	-0.205361	0.333278
F213	F	1.354023	0.127973	0.666611
F214	F	0.600922	0.227527	-0.000048
F215	F	0.934255	0.560861	0.333285
F216	F	1.267589	0.894194	0.666619
F217	F	0.721193	-0.319366	0.114500
F218	F	1.054526	0.013967	0.447833
F219	F	1.387860	0.347301	0.781167
F220	F	0.486395	-0.036024	-0.000023
F221	F	0.819729	0.297309	0.333310
F222	F	1.153062	0.630643	0.666643
H223	H	0.707681	-0.234417	-0.000022
H224	H	1.041014	0.098916	0.333311
H225	H	1.374348	0.432250	0.666644
F226	F	0.258847	-0.008772	0.114458
F227	F	0.592180	0.324562	0.447791
F228	F	0.925514	0.657895	0.781124
H229	H	0.734232	0.178370	0.255886
H230	H	1.067565	0.511704	0.589219
H231	H	1.400899	0.845037	0.922553
H232	H	0.906171	0.006555	0.436681
H233	H	1.239505	0.339889	0.770014
H234	H	1.572838	0.673222	1.103348
H235	H	0.734254	0.178380	0.563258
H236	H	1.067588	0.511714	0.896592
H237	H	1.400921	0.845047	1.229925
F238	F	0.722400	0.190212	0.449143
F239	F	1.055733	0.523545	0.782476
F240	F	1.389066	0.856879	1.115809
H241	H	0.907243	-0.485011	-0.100674
H242	H	1.240577	-0.151678	0.232659
H243	H	1.573910	0.181656	0.565992
H244	H	0.015673	0.203077	-0.000042
H245	H	0.349006	0.536410	0.333291
H246	H	0.682340	0.869743	0.666624
F247	F	0.381586	0.193692	-0.114542
F248	F	0.714919	0.527026	0.218791
F249	F	1.048252	0.860359	0.552125
H250	H	0.937377	-0.265183	-0.000010
H251	H	1.270711	0.068151	0.333323
H252	H	1.604044	0.401484	0.666657
F253	F	0.635939	-0.033829	-0.000020
F254	F	0.969272	0.299504	0.333314
F255	F	1.302606	0.632838	0.666647
F256	F	0.189053	-0.040387	-0.000025
F257	F	0.522387	0.292946	0.333308
F258	F	0.855720	0.626279	0.666641
H259	H	0.939306	-0.133757	0.000015
H260	H	1.272639	0.199577	0.333348
H261	H	1.605972	0.532910	0.666681
H262	H	0.909174	-0.353579	-0.100657
H263	H	1.242508	-0.020246	0.232677
H264	H	1.575841	0.313087	0.566010
F265	F	0.948714	-0.573705	-0.000024
F266	F	1.282048	-0.240372	0.333310
F267	F	1.615381	0.092962	0.666643
H268	H	0.462558	0.209639	-0.000029
H269	H	0.795891	0.542972	0.333305
H270	H	1.129224	0.876306	0.666638
F271	F	0.232040	0.191493	-0.114550
F272	F	0.565373	0.524826	0.218783
F273	F	0.898707	0.858159	0.552116
F274	F	0.946520	-0.723248	-0.000067
F275	F	1.279853	-0.389914	0.333266
F276	F	1.613186	-0.056581	0.666600
H277	H	0.701125	-0.681303	-0.000071
H278	H	1.034459	-0.347970	0.333262
H279	H	1.367792	-0.014637	0.666595
F280	F	0.693907	-0.091803	-0.000020
F281	F	1.027240	0.241530	0.333314
F282	F	1.360573	0.574863	0.666647
