data_functionalizedCrystal
_audit_creation_method	'MofGen! by Chris Wilmer'
_symmetry_space_group_name_H-M	'P1'
_symmetry_Int_Tables_number	1
_symmetry_cell_setting	triclinic
loop_
_symmetry_equiv_pos_as_xyz
  x,y,z
_cell_length_a	12.811438
_cell_length_b	8.559649
_cell_length_c	11.295483
_cell_angle_alpha	93.518058
_cell_angle_beta	88.710055
_cell_angle_gamma	103.054868
loop_
_atom_site_label
_atom_site_type_symbol
_atom_site_fract_x
_atom_site_fract_y
_atom_site_fract_z
O1	O	1.371384	-0.220439	-0.049100
O2	O	1.066556	-0.240262	-0.016175
O3	O	1.245826	0.001757	-0.035539
O4	O	1.192115	-0.462458	-0.029735
O5	O	1.230083	-0.019467	-0.231890
O6	O	1.050814	-0.261486	-0.212525
O7	O	1.355641	-0.241663	-0.245450
Cu8	Cu	1.201790	-0.253513	-0.246916
Cu9	Cu	1.220408	-0.228413	-0.014709
O10	O	1.176372	-0.483682	-0.226086
C11	C	1.020022	-0.249111	-0.110174
C12	C	0.904818	-0.243839	-0.097730
C13	C	0.751022	-0.224839	0.026826
C14	C	0.859267	-0.229791	0.015144
C15	C	0.842118	-0.252930	-0.198930
C16	C	0.733873	-0.247978	-0.187248
C17	C	0.688329	-0.233935	-0.074366
C18	C	0.580081	-0.228994	-0.062685
C19	C	0.562936	-0.252122	-0.276758
C20	C	0.671180	-0.257074	-0.288440
C21	C	1.242025	0.050600	-0.134152
C22	C	1.254142	0.227758	-0.135454
C23	C	1.402177	-0.232814	-0.151449
C24	C	1.517380	-0.238086	-0.163885
C25	C	1.180173	-0.532525	-0.127471
C26	C	1.168057	-0.709682	-0.126161
N27	N	1.188703	-0.271166	-0.410239
C28	C	1.327720	-0.083582	-0.674545
C29	C	1.317836	-0.096934	-0.798141
C30	C	1.159048	-0.311213	-0.781029
C31	C	1.168932	-0.297861	-0.657433
C32	C	1.253272	-0.184044	-0.604195
C33	C	1.263159	-0.170700	-0.480597
C34	C	1.104367	-0.384970	-0.463487
C35	C	1.094483	-0.398322	-0.587083
N36	N	1.233504	-0.210747	0.148613
H37	H	0.910308	-0.222384	0.097545
H38	H	1.378459	-0.015127	-0.855416
O39	O	1.003529	-0.521094	-0.644505
H40	H	0.953851	-0.459062	-0.695958
O41	O	1.354114	-0.047938	-0.423168
H42	H	1.404213	0.019688	-0.492855
O43	O	1.024054	-0.493328	-0.387613
H44	H	1.045088	-0.464919	-0.292723
O45	O	1.364054	0.336331	-0.147344
H46	H	1.414487	0.321412	-0.072074
O47	O	1.418680	0.039167	-0.617111
H48	H	1.468788	0.106787	-0.686795
H49	H	0.708279	-0.268502	-0.380345
H50	H	0.713937	-0.213422	0.118739
H51	H	1.090375	-0.403869	-0.824390
O52	O	0.530957	-0.213809	0.059057
H53	H	0.592746	-0.208287	0.127458
O54	O	0.891247	-0.268078	-0.320673
H55	H	0.977048	-0.270000	-0.311790
H56	H	0.511878	-0.259536	-0.359156
O57	O	1.058148	0.181757	-0.114283
H58	H	1.065559	0.054982	-0.115068
