data_functionalizedCrystal
_audit_creation_method	'MofGen! by Chris Wilmer'
_symmetry_space_group_name_H-M	'P1'
_symmetry_Int_Tables_number	1
_symmetry_cell_setting	triclinic
loop_
_symmetry_equiv_pos_as_xyz
  x,y,z
_cell_length_a	19.288840
_cell_length_b	10.540539
_cell_length_c	18.366186
_cell_angle_alpha	89.995944
_cell_angle_beta	89.983729
_cell_angle_gamma	83.825754
loop_
_atom_site_label
_atom_site_type_symbol
_atom_site_fract_x
_atom_site_fract_y
_atom_site_fract_z
O1	O	0.922419	0.158193	-0.060668
O2	O	0.720299	0.179587	-0.060642
O3	O	0.825970	-0.015920	-0.060655
O4	O	0.816748	0.353700	-0.060656
O5	O	0.825952	-0.015929	0.060444
O6	O	0.720281	0.179577	0.060457
O7	O	0.922401	0.158184	0.060431
Zn8	Zn	0.821338	0.168879	0.079671
Zn9	Zn	0.821362	0.168892	-0.079882
O10	O	0.816730	0.353691	0.060444
C11	C	0.694409	0.178899	-0.000089
C12	C	0.617290	0.176849	-0.000080
C13	C	0.581090	0.175869	-0.066093
C14	C	0.508630	0.173928	-0.066102
C15	C	0.472375	0.172942	-0.000094
C16	C	0.508584	0.173929	0.065928
C17	C	0.581041	0.175882	0.065935
C18	C	0.362523	0.095495	0.050468
C19	C	0.290067	0.093534	0.050458
C20	C	0.248891	0.166922	-0.000113
C21	C	0.280181	0.242255	-0.050686
C22	C	0.352639	0.244209	-0.050679
C23	C	0.393807	0.170824	-0.000094
C24	C	0.134122	0.163839	-0.066140
C25	C	0.061660	0.161906	-0.066146
C26	C	0.061616	0.161894	0.065885
C27	C	0.134075	0.163840	0.065890
C28	C	0.170324	0.164806	-0.000125
C29	C	0.825270	-0.063212	-0.000106
C30	C	0.823201	-0.204114	-0.000110
C31	C	0.743911	-0.385760	-0.000372
C32	C	0.746008	-0.239189	-0.000100
C33	C	0.860339	-0.266611	0.069039
C34	C	0.857704	-0.413096	0.069097
C35	C	0.859295	-0.413639	-0.068615
C36	C	0.860006	-0.266673	-0.069530
C37	C	0.948292	0.158872	-0.000123
C38	C	1.025410	0.160922	-0.000138
C39	C	0.817431	0.400983	-0.000106
C40	C	0.819500	0.541885	-0.000107
N41	N	0.821327	0.168870	0.188562
N42	N	0.821379	0.168891	-0.188774
C43	C	0.868134	0.082342	0.226657
C44	C	0.868138	0.082336	0.302885
C45	C	0.821342	0.168880	0.341015
C46	C	0.774527	0.255415	0.302911
C47	C	0.774519	0.255410	0.226685
C48	C	0.812816	0.284536	0.461776
C49	C	0.812828	0.284543	0.538001
C50	C	0.821362	0.168896	0.576123
C51	C	0.829898	0.053237	0.538010
C52	C	0.829890	0.053232	0.461784
C53	C	0.821345	0.168895	0.423670
C54	C	0.868177	0.082355	0.696872
C55	C	0.868176	0.082347	0.773102
C56	C	0.774568	0.255437	0.773126
C57	C	0.774565	0.255434	0.696898
C58	C	0.821373	0.168894	0.658776
H59	H	0.479150	0.173132	-0.119859
H60	H	0.610515	0.176681	0.119693
O61	O	0.918627	-0.010991	0.343986
H62	H	0.952640	0.042300	0.378698
O63	O	0.386390	0.325470	-0.105212
H64	H	0.345590	0.376186	-0.140376
H65	H	0.479060	0.173129	0.119672
H66	H	0.713535	-0.415290	0.048945
H67	H	0.716786	-0.195926	-0.049668
H68	H	0.906289	0.011885	0.665832
H69	H	0.916285	-0.243715	-0.073713
H70	H	0.396044	0.035730	0.091652
O71	O	0.935425	-0.238676	0.072443
H72	H	0.970125	-0.329774	0.071682
O73	O	0.931238	-0.478289	0.073265
H74	H	0.937023	-0.538060	0.123100
O75	O	0.256326	0.012276	0.105000
H76	H	0.199026	0.023230	0.096493
H77	H	0.834526	-0.223436	0.120504
O78	O	0.724025	0.348735	0.185595
H79	H	0.731878	0.334184	0.126185
H80	H	0.906246	0.011873	0.195620
O81	O	0.620188	0.176928	-0.137291
H82	H	0.582837	0.175932	-0.183196
H83	H	0.032187	0.161116	-0.119904
H84	H	0.032097	0.161099	0.119630
O85	O	0.933151	-0.477843	-0.069239
H86	H	0.960904	-0.445945	-0.117755
H87	H	0.163550	0.164630	0.119645
O88	O	0.826214	-0.454668	-0.138044
H89	H	0.781034	-0.507225	-0.124494
O90	O	0.918669	-0.010988	0.814186
H91	H	0.889138	-0.072560	0.848924
O92	O	0.824069	-0.211639	-0.137298
H93	H	0.780179	-0.140022	-0.121612
O94	O	0.235782	0.321428	-0.105233
H95	H	0.180140	0.307433	-0.096737
H96	H	0.713425	-0.413672	-0.049959
H97	H	0.163637	0.164640	-0.119893
O98	O	0.707025	-0.182993	0.065686
H99	H	0.686604	-0.260523	0.097433
O100	O	0.724063	0.348769	0.344039
H101	H	0.733403	0.447673	0.329390
O102	O	0.821325	-0.449658	0.137571
H103	H	0.767577	-0.400067	0.138786
O104	O	0.839084	-0.071502	0.420673
H105	H	0.845014	-0.151924	0.459981
O106	O	0.839098	-0.071512	0.579113
H107	H	0.837659	-0.052084	0.638521
O108	O	0.724094	0.348789	0.814240
H109	H	0.731965	0.334263	0.873645
H110	H	0.736453	0.325898	0.665880
H111	H	0.805882	0.378719	0.569026
H112	H	0.805854	0.378716	0.430744
