data_functionalizedCrystal
_audit_creation_method	'MofGen! by Chris Wilmer'
_symmetry_space_group_name_H-M	'P1'
_symmetry_Int_Tables_number	1
_symmetry_cell_setting	triclinic
loop_
_symmetry_equiv_pos_as_xyz
  x,y,z
_cell_length_a	14.044220
_cell_length_b	14.519709
_cell_length_c	12.503552
_cell_angle_alpha	93.525226
_cell_angle_beta	93.839891
_cell_angle_gamma	91.565489
loop_
_atom_site_label
_atom_site_type_symbol
_atom_site_fract_x
_atom_site_fract_y
_atom_site_fract_z
O1	O	1.263541	-0.217493	0.089211
O2	O	1.513541	0.032507	0.339211
O3	O	1.763541	0.282507	0.589211
O4	O	2.013541	0.532507	0.839211
O5	O	0.987560	-0.209467	0.089238
O6	O	1.237560	0.040533	0.339238
O7	O	1.487560	0.290533	0.589238
O8	O	1.737560	0.540533	0.839238
O9	O	1.132867	-0.079832	0.089214
O10	O	1.382867	0.170168	0.339214
O11	O	1.632867	0.420168	0.589214
O12	O	1.882867	0.670168	0.839214
O13	O	1.118234	-0.347128	0.089235
O14	O	1.368234	-0.097128	0.339235
O15	O	1.618234	0.152872	0.589235
O16	O	1.868234	0.402872	0.839235
O17	O	1.121926	-0.089590	-0.089427
O18	O	1.371926	0.160410	0.160573
O19	O	1.621926	0.410410	0.410573
O20	O	1.871926	0.660410	0.660573
O21	O	0.976619	-0.219225	-0.089403
O22	O	1.226619	0.030775	0.160597
O23	O	1.476619	0.280775	0.410597
O24	O	1.726619	0.530775	0.660597
O25	O	1.252600	-0.227250	-0.089430
O26	O	1.502600	0.022750	0.160570
O27	O	1.752600	0.272750	0.410570
O28	O	2.002600	0.522750	0.660570
Cu29	Cu	1.113611	-0.224128	-0.105728
Cu30	Cu	1.363611	0.025872	0.144272
Cu31	Cu	1.613611	0.275872	0.394272
Cu32	Cu	1.863611	0.525872	0.644272
Cu33	Cu	1.126549	-0.212589	0.105535
Cu34	Cu	1.376549	0.037411	0.355535
Cu35	Cu	1.626549	0.287411	0.605535
Cu36	Cu	1.876549	0.537411	0.855535
O37	O	1.107293	-0.356885	-0.089406
O38	O	1.357293	-0.106885	0.160594
O39	O	1.607293	0.143115	0.410594
O40	O	1.857293	0.393115	0.660594
C41	C	0.946769	-0.210833	-0.000079
C42	C	1.196769	0.039167	0.249921
C43	C	1.446769	0.289167	0.499921
C44	C	1.696769	0.539167	0.749921
C45	C	0.841526	-0.200356	-0.000069
C46	C	1.091526	0.049644	0.249931
C47	C	1.341526	0.299644	0.499931
C48	C	1.591526	0.549644	0.749931
N49	N	1.104517	-0.232245	-0.254319
N50	N	1.354517	0.017755	-0.004319
N51	N	1.604517	0.267755	0.245681
N52	N	1.854517	0.517755	0.495681
C53	C	1.126715	-0.050296	-0.000107
C54	C	1.376715	0.199704	0.249893
C55	C	1.626715	0.449704	0.499893
C56	C	1.876715	0.699704	0.749893
C57	C	1.124671	0.052250	-0.000107
C58	C	1.374671	0.302250	0.249893
C59	C	1.624671	0.552250	0.499893
C60	C	1.874671	0.802250	0.749893
C61	C	0.648831	-0.181202	-0.000092
C62	C	0.898831	0.068798	0.249908
C63	C	1.148831	0.318798	0.499908
C64	C	1.398831	0.568798	0.749908
C65	C	0.591324	-0.255510	-0.000091
C66	C	0.841324	-0.005510	0.249909
C67	C	1.091324	0.244490	0.499909
C68	C	1.341324	0.494490	0.749909
C69	C	0.484102	-0.244853	-0.000104
C70	C	0.734102	0.005147	0.249896
C71	C	0.984102	0.255147	0.499896
C72	C	1.234102	0.505147	0.749896
C73	C	0.756063	-0.191858	-0.000079
C74	C	1.006063	0.058142	0.249921
C75	C	1.256063	0.308142	0.499921
C76	C	1.506063	0.558142	0.749921
C77	C	1.293391	-0.225884	-0.000111
C78	C	1.543391	0.024116	0.249889
C79	C	1.793391	0.274116	0.499889
C80	C	2.043391	0.524116	0.749889
C81	C	1.398634	-0.236361	-0.000114
C82	C	1.648634	0.013639	0.249886
C83	C	1.898634	0.263639	0.499886
C84	C	2.148634	0.513639	0.749886
C85	C	1.113446	-0.386421	-0.000083
C86	C	1.363446	-0.136421	0.249917
C87	C	1.613446	0.113579	0.499917
C88	C	1.863446	0.363579	0.749917
C89	C	1.115490	-0.488967	-0.000076
C90	C	1.365490	-0.238967	0.249924
C91	C	1.615490	0.011033	0.499924
C92	C	1.865490	0.261033	0.749924
C93	C	1.117148	0.427754	-0.000078
C94	C	1.367148	0.677754	0.249922
C95	C	1.617148	0.927754	0.499922
C96	C	1.867148	1.177754	0.749922
C97	C	1.119237	0.323277	-0.000087
C98	C	1.369237	0.573277	0.249913
C99	C	1.619237	0.823277	0.499913
C100	C	1.869237	1.073277	0.749913
C101	C	1.120909	0.240005	-0.000094
C102	C	1.370909	0.490005	0.249906
C103	C	1.620909	0.740005	0.499906
C104	C	1.870909	0.990005	0.749906
C105	C	1.122999	0.135522	-0.000100
C106	C	1.372999	0.385522	0.249900
C107	C	1.622999	0.635522	0.499900
C108	C	1.872999	0.885522	0.749900
C109	C	1.149022	-0.192523	-0.526760
C110	C	1.399022	0.057477	-0.276760
C111	C	1.649022	0.307477	-0.026760
C112	C	1.899022	0.557477	0.223240
C113	C	1.091149	-0.244185	-0.473426
C114	C	1.341149	0.005815	-0.223426
C115	C	1.591149	0.255815	0.026574
C116	C	1.841149	0.505815	0.276574
C117	C	1.098589	-0.237540	-0.351504
C118	C	1.348589	0.012460	-0.101504
C119	C	1.598589	0.262460	0.148496
C120	C	1.848589	0.512460	0.398496
C121	C	1.141583	-0.199167	-0.648693
C122	C	1.391583	0.050833	-0.398693
C123	C	1.641583	0.300833	-0.148693
C124	C	1.891583	0.550833	0.101307
N125	N	1.135650	-0.204466	0.254127
N126	N	1.385650	0.045534	0.504127
N127	N	1.635650	0.295534	0.754127
N128	N	1.885650	0.545534	1.004127
H129	H	0.622617	-0.327131	-0.000080
H130	H	0.872617	-0.077131	0.249920
H131	H	1.122617	0.172869	0.499920
H132	H	1.372617	0.422869	0.749920
F133	F	1.019086	-0.308520	-0.533428
F134	F	1.269086	-0.058520	-0.283428
F135	F	1.519086	0.191480	-0.033428
F136	F	1.769086	0.441480	0.216572
F137	F	0.607932	-0.087594	-0.000102
F138	F	0.857932	0.162406	0.249898
F139	F	1.107932	0.412406	0.499898
F140	F	1.357932	0.662406	0.749898
H141	H	1.204153	-0.143308	-0.480858
H142	H	1.454153	0.106692	-0.230858
H143	H	1.704153	0.356692	0.019142
H144	H	1.954153	0.606692	0.269142
