data_functionalizedCrystal
_audit_creation_method	'MofGen! by Chris Wilmer'
_symmetry_space_group_name_H-M	'P1'
_symmetry_Int_Tables_number	1
_symmetry_cell_setting	triclinic
loop_
_symmetry_equiv_pos_as_xyz
  x,y,z
_cell_length_a	19.077105
_cell_length_b	15.299816
_cell_length_c	19.076919
_cell_angle_alpha	102.310100
_cell_angle_beta	90.076224
_cell_angle_gamma	78.483666
loop_
_atom_site_label
_atom_site_type_symbol
_atom_site_fract_x
_atom_site_fract_y
_atom_site_fract_z
Zn1	Zn	1.115517	-0.442478	-0.502525
Zn2	Zn	1.615517	0.057522	-0.002525
Zn3	Zn	1.139183	-0.589537	-0.405660
Zn4	Zn	1.639183	-0.089537	0.094340
Zn5	Zn	1.001149	-0.430226	-0.378599
Zn6	Zn	1.501149	0.069774	0.121401
Zn7	Zn	1.016933	-0.588986	-0.518335
Zn8	Zn	1.516933	-0.088986	-0.018335
O9	O	1.068195	-0.512807	-0.451280
O10	O	1.568195	-0.012807	0.048720
O11	O	1.217681	-0.467345	-0.494385
O12	O	1.717681	0.032655	0.005615
O13	O	1.124171	-0.563508	-0.303052
O14	O	1.624171	-0.063508	0.196948
O15	O	0.999811	-0.303865	-0.377096
O16	O	1.499811	0.196135	0.122904
O17	O	1.235068	-0.575388	-0.423218
O18	O	1.735068	-0.075388	0.076782
O19	O	1.083836	-0.312867	-0.468145
O20	O	1.583836	0.187133	0.031855
O21	O	1.022758	-0.446462	-0.283170
O22	O	1.522758	0.053538	0.216830
O23	O	0.904218	-0.445927	-0.392427
O24	O	1.404218	0.054073	0.107573
O25	O	1.026712	-0.574448	-0.615257
O26	O	1.526712	-0.074448	-0.115257
O27	O	0.915814	-0.562568	-0.495090
O28	O	1.415814	-0.062568	0.004910
O29	O	1.099141	-0.466810	-0.603641
O30	O	1.599141	0.033190	-0.103641
O31	O	1.139476	-0.717451	-0.438549
O32	O	1.639476	-0.217451	0.061451
O33	O	1.049659	-0.717045	-0.521331
O34	O	1.549659	-0.217045	-0.021331
C35	C	0.884340	-0.502859	-0.442538
C36	C	1.384340	-0.002859	0.057462
C37	C	0.805688	-0.498626	-0.438818
C38	C	1.305688	0.001374	0.061182
C39	C	1.098867	-0.750435	-0.484608
C40	C	1.598867	-0.250435	0.015392
C41	C	1.112052	-0.852098	-0.498893
C42	C	1.612052	-0.352098	0.001107
C43	C	0.774807	-0.557450	-0.490463
C44	C	1.274807	-0.057450	0.009537
C45	C	0.700904	-0.553461	-0.486970
C46	C	1.200904	-0.053461	0.013030
C47	C	0.657883	-0.490651	-0.431828
C48	C	1.157883	0.009349	0.068172
C49	C	0.688769	-0.431820	-0.380180
C50	C	1.188769	0.068180	0.119820
C51	C	0.762670	-0.435806	-0.383677
C52	C	1.262670	0.064194	0.116323
C53	C	0.436210	-0.472206	-0.415646
C54	C	0.936210	0.027794	0.084354
C55	C	0.362304	-0.468227	-0.412151
C56	C	0.862304	0.031773	0.087849
C57	C	0.374444	-0.589866	-0.518943
C58	C	0.874444	-0.089866	-0.018943
C59	C	0.448347	-0.593850	-0.522432
C60	C	0.948347	-0.093850	-0.022432
C61	C	0.479225	-0.535016	-0.470787
C62	C	0.979225	-0.035016	0.029213
N63	N	0.582342	-0.486574	-0.428254
N64	N	1.082342	0.013426	0.071746
N65	N	0.554764	-0.539090	-0.474364
N66	N	1.054764	-0.039090	0.025636
C67	C	0.974413	-1.120225	-0.349448
C68	C	1.474413	-0.620225	0.150552
C69	C	0.962021	-1.024708	-0.336029
C70	C	1.462021	-0.524708	0.163971
C71	C	0.999528	-0.981551	-0.376743
C72	C	1.499528	-0.481551	0.123257
C73	C	1.049429	-1.033921	-0.430880
C74	C	1.549429	-0.533921	0.069120
C75	C	1.061818	-1.129447	-0.444305
C76	C	1.561818	-0.629447	0.055695
C77	C	1.086933	-0.990773	-0.471600
C78	C	1.586933	-0.490773	0.028400
C79	C	1.136834	-1.043143	-0.525737
C80	C	1.636834	-0.543143	-0.025737
C81	C	1.149221	-1.138660	-0.539159
C82	C	1.649221	-0.638660	-0.039159
C83	C	1.111714	-1.181817	-0.498444
C84	C	1.611714	-0.681817	0.001556
C85	C	1.074544	-0.895246	-0.458175
C86	C	1.574544	-0.395246	0.041825
C87	C	1.161948	-0.904468	-0.553032
C88	C	1.661948	-0.404468	-0.053032
C89	C	1.174340	-0.999985	-0.566451
C90	C	1.674340	-0.499985	-0.066451
C91	C	1.252769	-0.522795	-0.460057
C92	C	1.752769	-0.022795	0.039943
C93	C	1.331423	-0.527051	-0.463797
C94	C	1.831423	-0.027051	0.036203
C95	C	1.062047	-0.521934	-0.635841
C96	C	1.562047	-0.021934	-0.135841
C97	C	1.059427	-0.525824	-0.714490
C98	C	1.559427	-0.025824	-0.214490
C99	C	1.037423	-0.274253	-0.417838
C100	C	1.537423	0.225747	0.082162
C101	C	1.024309	-0.172595	-0.403587
C102	C	1.524309	0.327405	0.096413
C103	C	1.095904	-0.471612	-0.745394
C104	C	1.595904	0.028388	-0.245394
C105	C	1.093433	-0.475263	-0.819292
C106	C	1.593433	0.024737	-0.319292
C107	C	1.054488	-0.533130	-0.862286
C108	C	1.554488	-0.033130	-0.362286
C109	C	1.018007	-0.587344	-0.831378
C110	C	1.518007	-0.087344	-0.331378
C111	C	1.020474	-0.583688	-0.757480
C112	C	1.520474	-0.083688	-0.257480
C113	C	1.043062	-0.550069	-1.083945
C114	C	1.543062	-0.050069	-0.583945
C115	C	1.040599	-0.553723	-1.157848
C116	C	1.540599	-0.053723	-0.657848
C117	C	1.116024	-0.441640	-1.145756
C118	C	1.616024	0.058360	-0.645756
C119	C	1.118491	-0.437993	-1.071858
C120	C	1.618491	0.062007	-0.571858
C121	C	1.082007	-0.492203	-1.040956
C122	C	1.582007	0.007797	-0.540956
N123	N	1.051964	-0.536865	-0.937823
N124	N	1.551964	-0.036865	-0.437823
N125	N	1.084528	-0.488463	-0.965420
N126	N	1.584528	0.011537	-0.465420
C127	C	1.074352	-0.503651	-0.267429
C128	C	1.574352	-0.003651	0.232571
C129	C	1.077076	-0.499512	-0.188751
C130	C	1.577076	0.000488	0.311249
H131	H	0.809830	-0.608599	-0.535364
H132	H	1.309830	-0.108599	-0.035364
C133	C	0.934197	-0.839703	-0.305871
C134	C	1.434197	-0.339703	0.194129
C135	C	0.985914	-0.876556	-0.361988
C136	C	1.485914	-0.376556	0.138012
H137	H	0.925797	-0.774881	-0.296757
H138	H	1.425797	-0.274881	0.203243
H139	H	0.890931	-0.859486	-0.318949
H140	H	1.390931	-0.359486	0.181051
H141	H	0.950798	-0.859738	-0.263844
H142	H	1.450798	-0.359738	0.236156
H143	H	0.969310	-0.856526	-0.404016
H144	H	1.469310	-0.356526	0.095984
H145	H	1.029189	-0.856764	-0.348913
H146	H	1.529189	-0.356764	0.151087
H147	H	1.127619	-0.424493	-0.710393
H148	H	1.627619	0.075507	-0.210393
H149	H	1.121803	-1.259595	-0.509365
H150	H	1.621803	-0.759595	-0.009365
C151	C	0.830207	-0.316759	-0.360674
C152	C	1.330207	0.183241	0.139326
C153	C	0.796615	-0.371145	-0.326904
C154	C	1.296615	0.128855	0.173096
H155	H	0.851157	-0.276833	-0.325623
H156	H	1.351157	0.223167	0.174377
H157	H	0.866402	-0.354734	-0.394007
H158	H	1.366402	0.145266	0.105993
H159	H	0.795839	-0.281813	-0.385284
H160	H	1.295839	0.218187	0.114716
H161	H	0.830984	-0.406095	-0.302298
H162	H	1.330984	0.093905	0.197702
H163	H	0.760416	-0.333165	-0.293559
H164	H	1.260416	0.166835	0.206441
C165	C	1.107175	-0.323385	-0.821956
C166	C	1.607175	0.176615	-0.321956
C167	C	1.133533	-0.415668	-0.853253
C168	C	1.633533	0.084332	-0.353253
H169	H	1.131937	-0.286593	-0.842918
H170	H	1.631937	0.213407	-0.342918
H171	H	1.057506	-0.308029	-0.829933
H172	H	1.557506	0.191971	-0.329933
H173	H	1.114219	-0.312949	-0.771793
H174	H	1.614219	0.187051	-0.271793
H175	H	1.126485	-0.426106	-0.903416
H176	H	1.626485	0.073894	-0.403416
H177	H	1.183214	-0.431031	-0.845282
H178	H	1.683214	0.068969	-0.345282
C179	C	1.107209	-0.323254	-1.212075
C180	C	1.607209	0.176746	-0.712075
C181	C	1.156118	-0.382045	-1.179723
C182	C	1.656118	0.117955	-0.679723
H183	H	1.131962	-0.286455	-1.233040
H184	H	1.631962	0.213545	-0.733040
H185	H	1.083672	-0.358242	-1.248255
H186	H	1.583672	0.141758	-0.748255
H187	H	1.072829	-0.285182	-1.176867
H188	H	1.572829	0.214818	-0.676867
H189	H	1.190496	-0.420122	-1.214932
H190	H	1.690496	0.079878	-0.714932
H191	H	1.179667	-0.347053	-1.143539
H192	H	1.679667	0.152947	-0.643539
H193	H	0.921392	-0.982072	-0.291951
H194	H	1.421392	-0.482072	0.208049
C195	C	1.234385	-1.138179	-0.631562
C196	C	1.734385	-0.638179	-0.131562
C197	C	1.204075	-1.196226	-0.598663
C198	C	1.704075	-0.696226	-0.098663
H199	H	1.268254	-1.173719	-0.668292
H200	H	1.768254	-0.673719	-0.168292
H201	H	1.197806	-1.100620	-0.651910
H202	H	1.697806	-0.600620	-0.151910
H203	H	1.257662	-1.100842	-0.596793
H204	H	1.757662	-0.600842	-0.096793
H205	H	1.180793	-1.233559	-0.633431
H206	H	1.680793	-0.733559	-0.133431
H207	H	1.240660	-1.233802	-0.578315
H208	H	1.740660	-0.733802	-0.078315
C209	C	0.952286	-0.553497	-0.998095
C210	C	1.452286	-0.053497	-0.498095
C211	C	1.002963	-0.609654	-1.049975
C212	C	1.502963	-0.109654	-0.549975
H213	H	0.927528	-0.590284	-0.977123
H214	H	1.427528	-0.090284	-0.477123
H215	H	0.975835	-0.518516	-0.961922
H216	H	1.475835	-0.018516	-0.461922
H217	H	0.919119	-0.513617	-1.020060
H218	H	1.419119	-0.013617	-0.520060
H219	H	1.036133	-0.649530	-1.028008
H220	H	1.536133	-0.149530	-0.528008
H221	H	0.979413	-0.644651	-1.086154
H222	H	1.479413	-0.144651	-0.586154
H223	H	1.008884	-0.600848	-1.192853
H224	H	1.508884	-0.100848	-0.692853
C225	C	0.529965	-0.615928	-0.623342
C226	C	1.029965	-0.115928	-0.123342
C227	C	0.495629	-0.662886	-0.583053
C228	C	0.995629	-0.162886	-0.083053
H229	H	0.559158	-0.658551	-0.660764
H230	H	1.059158	-0.158551	-0.160764
H231	H	0.495099	-0.575927	-0.643508
H232	H	0.995099	-0.075927	-0.143508
H233	H	0.558935	-0.581472	-0.593077
H234	H	1.058935	-0.081472	-0.093077
H235	H	0.466655	-0.697337	-0.613317
H236	H	0.966655	-0.197337	-0.113317
H237	H	0.530500	-0.702904	-0.562886
H238	H	1.030500	-0.202904	-0.062886
C239	C	1.181774	-0.762138	-0.574570
C240	C	1.681774	-0.262138	-0.074570
C241	C	1.203182	-0.857039	-0.597789
C242	C	1.703182	-0.357039	-0.097789
H243	H	1.207231	-0.732856	-0.602198
H244	H	1.707231	-0.232856	-0.102198
H245	H	1.131859	-0.744478	-0.580437
H246	H	1.631859	-0.244478	-0.080437
H247	H	1.191726	-0.744720	-0.525331
H248	H	1.691726	-0.244720	-0.025331
H249	H	1.193225	-0.874458	-0.647027
H250	H	1.693225	-0.374458	-0.147027
H251	H	1.253109	-0.874707	-0.591929
H252	H	1.753109	-0.374707	-0.091929
H253	H	0.986295	-0.634458	-0.866390
H254	H	1.486295	-0.134458	-0.366390
C255	C	0.945696	-0.694870	-0.776854
C256	C	1.445696	-0.194870	-0.276854
C257	C	0.980392	-0.643296	-0.723512
C258	C	1.480392	-0.143296	-0.223512
H259	H	0.920955	-0.731675	-0.755884
H260	H	1.420955	-0.231675	-0.255884
H261	H	0.912519	-0.654987	-0.798797
H262	H	1.412519	-0.154987	-0.298797
H263	H	0.980087	-0.732937	-0.812054
H264	H	1.480087	-0.232937	-0.312054
H265	H	0.946000	-0.605223	-0.688314
H266	H	1.446000	-0.105223	-0.188314
H267	H	1.013572	-0.683184	-0.701558
H268	H	1.513572	-0.183184	-0.201558
C269	C	1.133721	-0.283852	-1.029068
C270	C	1.633721	0.216148	-0.529068
C271	C	1.161291	-0.374360	-1.024613
C272	C	1.661291	0.125640	-0.524613
H273	H	1.160142	-0.244565	-0.999901
H274	H	1.660142	0.255435	-0.499901
H275	H	1.137469	-0.278294	-1.077502
H276	H	1.637469	0.221706	-0.577502
H277	H	1.084854	-0.267313	-1.012811
H278	H	1.584854	0.232687	-0.512811
H279	H	1.210157	-0.390902	-1.040875
H280	H	1.710157	0.109098	-0.540875
H281	H	1.157550	-0.379922	-0.976169
H282	H	1.657550	0.120078	-0.476169
C283	C	0.720330	-0.674119	-0.592861
C284	C	1.220330	-0.174119	-0.092861
C285	C	0.666962	-0.618137	-0.543731
C286	C	1.166962	-0.118137	-0.043731
H287	H	0.699376	-0.714055	-0.627899
H288	H	1.199376	-0.214055	-0.127899
H289	H	0.743115	-0.637228	-0.615769
H290	H	1.243115	-0.137228	-0.115769
H291	H	0.754688	-0.709054	-0.568233
H292	H	1.254688	-0.209054	-0.068233
H293	H	0.632607	-0.583197	-0.568358
H294	H	1.132607	-0.083197	-0.068358
H295	H	0.644166	-0.655033	-0.520820
H296	H	1.144166	-0.155033	-0.020820
C297	C	0.266548	-0.637764	-0.561006
C298	C	0.766548	-0.137764	-0.061006
C299	C	0.340499	-0.654525	-0.575715
C300	C	0.840499	-0.154525	-0.075715
H301	H	0.245593	-0.677679	-0.596061
H302	H	0.745593	-0.177679	-0.096061
H303	H	0.257730	-0.648055	-0.514745
H304	H	0.757730	-0.148055	-0.014745
H305	H	0.246168	-0.576193	-0.562249
H306	H	0.746168	-0.076193	-0.062249
H307	H	0.360880	-0.716094	-0.574466
H308	H	0.860880	-0.216094	-0.074466
H309	H	0.349322	-0.644241	-0.621988
H310	H	0.849322	-0.144241	-0.121988
H311	H	1.214970	-1.042638	-0.610531
H312	H	1.714970	-0.542638	-0.110531
C313	C	0.954606	-1.262565	-0.327915
C314	C	1.454606	-0.762565	0.172085
C315	C	0.933192	-1.167665	-0.304698
C316	C	1.433192	-0.667665	0.195302
H317	H	0.929157	-1.291850	-0.300282
H318	H	1.429157	-0.791850	0.199718
H319	H	0.944654	-1.279986	-0.377147
H320	H	1.444654	-0.779986	0.122853
H321	H	1.004528	-1.280220	-0.322050
H322	H	1.504528	-0.780220	0.177950
H323	H	0.883270	-1.150009	-0.310569
H324	H	1.383270	-0.650009	0.189431
H325	H	0.943138	-1.150237	-0.255454
H326	H	1.443138	-0.650237	0.244546
H327	H	0.461343	-0.424306	-0.373588
H328	H	0.961343	0.075694	0.126412
C329	C	0.357721	-0.348374	-0.306946
C330	C	0.857721	0.151626	0.193054
C331	C	0.315013	-0.399176	-0.351537
C332	C	0.815013	0.100824	0.148463
H333	H	0.328524	-0.305746	-0.269531
H334	H	0.828524	0.194254	0.230469
H335	H	0.392580	-0.388375	-0.286772
H336	H	0.892580	0.111625	0.213228
H337	H	0.381014	-0.316535	-0.334296
H338	H	0.881014	0.183465	0.165704
H339	H	0.291724	-0.431021	-0.324189
H340	H	0.791724	0.068979	0.175811
H341	H	0.280141	-0.359170	-0.371713
H342	H	0.780141	0.140830	0.128287
H343	H	0.653735	-0.380676	-0.335284
H344	H	1.153735	0.119324	0.164716
H345	H	1.033914	-0.852615	-0.414097
H346	H	1.533914	-0.352615	0.085903
