data_functionalizedCrystal
_audit_creation_method	'MofGen! by Chris Wilmer'
_symmetry_space_group_name_H-M	'P1'
_symmetry_Int_Tables_number	1
_symmetry_cell_setting	triclinic
loop_
_symmetry_equiv_pos_as_xyz
  x,y,z
_cell_length_a	16.109301
_cell_length_b	10.489741
_cell_length_c	14.586319
_cell_angle_alpha	90.004063
_cell_angle_beta	90.001418
_cell_angle_gamma	84.000327
loop_
_atom_site_label
_atom_site_type_symbol
_atom_site_fract_x
_atom_site_fract_y
_atom_site_fract_z
O1	O	1.104142	0.163948	0.076182
O2	O	0.862206	0.184351	0.076196
O3	O	0.988679	-0.011528	0.076183
O4	O	0.977669	0.359827	0.076195
O5	O	0.988669	-0.011533	-0.076298
O6	O	0.862196	0.184346	-0.076284
O7	O	1.104132	0.163943	-0.076299
Cu8	Cu	0.983163	0.174144	-0.090214
Cu9	Cu	0.983175	0.174150	0.090112
O10	O	0.977659	0.359822	-0.076286
C11	C	0.831221	0.183522	-0.000042
C12	C	0.738910	0.181044	-0.000037
C13	C	0.987842	-0.059050	-0.000057
C14	C	0.985354	-0.200644	-0.000055
C15	C	0.517319	0.291514	-0.000044
C16	C	0.430584	0.289175	-0.000050
C17	C	0.449026	0.056771	-0.000053
C18	C	0.535759	0.059111	-0.000054
C19	C	0.569903	0.176486	-0.000045
C20	C	0.396435	0.171808	-0.000050
C21	C	0.302393	0.169272	-0.000056
C22	C	0.663950	0.179022	-0.000040
C23	C	0.904883	-0.267616	-0.000043
C24	C	0.942892	-0.360293	-0.075226
C25	C	0.942921	-0.360263	0.075108
C26	C	1.023396	-0.291455	-0.075300
C27	C	1.023414	-0.291416	0.075102
C28	C	1.061482	-0.384066	-0.000100
C29	C	1.135117	0.164772	-0.000058
C30	C	1.227427	0.167250	-0.000058
C31	C	0.978495	0.407344	-0.000044
C32	C	0.980983	0.548938	-0.000040
N33	N	0.983160	0.174139	-0.217046
C34	C	1.039185	0.087433	-0.548046
C35	C	1.039183	0.087433	-0.452065
C36	C	0.927157	0.260860	-0.452064
C37	C	0.927163	0.260865	-0.548043
C38	C	0.983176	0.174144	-0.596032
C39	C	0.983168	0.174140	-0.404071
C40	C	0.983165	0.174141	-0.300004
C41	C	0.983180	0.174144	-0.700105
N42	N	0.983184	0.174144	0.216944
H43	H	0.387773	0.382843	-0.000051
H44	H	1.057412	-0.261119	-0.138933
C45	C	0.897334	-0.400896	-0.159895
C46	C	0.815377	-0.341404	-0.159536
C47	C	0.773376	-0.378783	-0.237508
H48	H	0.925285	-0.376195	-0.213351
H49	H	0.896475	-0.491317	-0.159564
H50	H	0.816240	-0.251002	-0.159876
H51	H	0.787404	-0.366097	-0.106098
H52	H	0.772517	-0.469205	-0.237177
H53	H	0.801334	-0.354080	-0.290959
H54	H	0.717762	-0.338433	-0.237271
H55	H	0.545116	0.387088	-0.000043
H56	H	0.578575	-0.034565	-0.000057
C57	C	0.411792	-0.070529	-0.000008
C58	C	0.324580	-0.047962	0.000019
C59	C	0.290255	-0.165202	0.000076
H60	H	0.429700	-0.117994	-0.053167
H61	H	0.429751	-0.117896	0.053187
H62	H	0.306629	-0.000615	-0.053170
H63	H	0.306649	-0.000516	0.053175
H64	H	0.308213	-0.212570	0.053271
H65	H	0.308168	-0.212659	-0.053084
H66	H	0.231078	-0.149907	0.000103
C67	C	1.099821	-0.006775	-0.399800
C68	C	1.087786	0.011709	-0.305473
C69	C	1.143582	-0.075134	-0.257299
H70	H	1.090197	-0.091875	-0.415508
H71	H	1.155463	0.006895	-0.415390
H72	H	1.032157	-0.001971	-0.289890
H73	H	1.097417	0.096791	-0.289738
H74	H	1.199224	-0.061464	-0.272889
H75	H	1.133953	-0.160228	-0.273015
H76	H	1.135429	-0.062596	-0.193294
H77	H	1.084795	0.016821	-0.587116
H78	H	1.127704	-0.434450	-0.000146
H79	H	0.881551	0.331465	-0.412982
H80	H	1.057439	-0.260863	0.138663
C81	C	0.816618	-0.200298	0.000008
C82	C	0.774253	-0.236719	0.077996
C83	C	0.692941	-0.174746	0.078063
H84	H	0.818696	-0.110137	0.000600
H85	H	0.788114	-0.223738	-0.053438
H86	H	0.802750	-0.213271	0.131428
H87	H	0.772153	-0.326870	0.077421
H88	H	0.664437	-0.198186	0.024617
H89	H	0.695027	-0.084587	0.078652
H90	H	0.664184	-0.199458	0.130972
C91	C	0.897656	-0.400864	0.159974
C92	C	0.939175	-0.364288	0.238508
C93	C	0.897502	-0.401677	0.316698
H94	H	0.842024	-0.360617	0.160011
H95	H	0.896868	-0.491299	0.159709
H96	H	0.939954	-0.273870	0.238773
H97	H	0.994804	-0.404531	0.238501
H98	H	0.896715	-0.492112	0.316434
H99	H	0.841872	-0.361427	0.316726
H100	H	0.925671	-0.376876	0.369992
C101	C	0.866256	0.355070	-0.599984
C102	C	0.817181	0.430986	-0.537417
C103	C	0.761063	0.517768	-0.585231
H104	H	0.896389	0.408299	-0.637421
H105	H	0.831332	0.309205	-0.637414
H106	H	0.852101	0.476847	-0.500002
H107	H	0.787031	0.377793	-0.499978
H108	H	0.726139	0.471904	-0.622662
H109	H	0.791203	0.570988	-0.622666
H110	H	0.727754	0.569279	-0.542787
