data_functionalizedCrystal
_audit_creation_method	'MofGen! by Chris Wilmer'
_symmetry_space_group_name_H-M	'P1'
_symmetry_Int_Tables_number	1
_symmetry_cell_setting	triclinic
loop_
_symmetry_equiv_pos_as_xyz
  x,y,z
_cell_length_a	6.817900
_cell_length_b	16.418049
_cell_length_c	11.102193
_cell_angle_alpha	93.887827
_cell_angle_beta	108.604059
_cell_angle_gamma	103.389670
loop_
_atom_site_label
_atom_site_type_symbol
_atom_site_fract_x
_atom_site_fract_y
_atom_site_fract_z
V1	V	-4.085012	-0.115892	-0.396705
O2	O	-4.071820	0.005563	-0.388693
O3	O	-4.035743	-0.229788	-0.394435
O4	O	-4.062193	-0.114112	-0.569520
O5	O	-4.045186	-0.110914	-0.212396
V6	V	-4.565438	-0.101364	-0.374606
O7	O	-4.353065	-0.147760	-0.445180
O8	O	-4.747583	-0.069497	-0.326131
O9	O	-4.391500	0.012532	-0.376877
O10	O	-4.696027	-0.222819	-0.382619
O11	O	-4.722661	-0.106342	-0.558916
O12	O	-4.365050	-0.103144	-0.201792
C13	C	-3.879705	-0.257554	-0.388291
C14	C	-3.920879	-0.350666	-0.387587
C15	C	-3.913444	-0.109996	-0.611627
C16	C	-3.976064	-0.109294	-0.752907
C17	C	-4.198616	-0.569155	-0.392347
C18	C	-4.237294	-0.656645	-0.391697
C19	C	-3.871193	-0.648100	-0.378972
C20	C	-3.832523	-0.560614	-0.379632
C21	C	-3.996238	-0.521143	-0.386313
C22	C	-4.073586	-0.696119	-0.385003
C23	C	-4.115521	-0.790979	-0.384297
C24	C	-3.954303	-0.426277	-0.387021
C25	C	-4.061311	-0.262706	-0.789827
C26	C	-4.133345	-0.339079	-0.874658
C27	C	-4.192183	-0.338415	-1.007401
C28	C	-4.178990	-0.261370	-1.055315
C29	C	-4.106955	-0.184997	-0.970484
C30	C	-4.048114	-0.185669	-0.837739
C31	C	-4.021724	-0.031588	-0.933565
C32	C	-3.962871	-0.032250	-0.800821
C33	C	-4.008530	0.045457	-0.981479
C34	C	-3.936480	0.121832	-0.896647
C35	C	-3.877638	0.121165	-0.763896
C36	C	-3.890836	0.044123	-0.715990
C37	C	-4.210880	0.040293	-0.383017
C38	C	-4.148945	0.133404	-0.383730
C39	C	-4.177141	-0.107263	-0.159677
C40	C	-4.093759	-0.107960	-0.018396
H41	H	-4.331926	-0.537021	-0.397786
C42	C	-4.014505	-0.465906	-0.858987
C43	C	-4.147350	-0.423707	-0.821838
H44	H	-4.023022	-0.518136	-0.826341
H45	H	-3.870387	-0.431689	-0.825631
H46	H	-4.060039	-0.476523	-0.950187
H47	H	-4.101805	-0.413084	-0.730637
H48	H	-4.291497	-0.457931	-0.855187
H49	H	-3.667717	-0.521521	-0.374723
H50	H	-4.013375	-0.263254	-0.681741
H51	H	-4.056459	0.045992	-1.089567
C52	C	-4.455592	-0.472921	-1.085868
C53	C	-4.271371	-0.422363	-1.100655
H54	H	-4.504469	-0.524748	-1.143435
H55	H	-4.564810	-0.443971	-1.104191
H56	H	-4.422418	-0.484342	-0.999953
H57	H	-4.304549	-0.410937	-1.186568
H58	H	-4.162130	-0.451319	-1.082341
H59	H	-4.226929	-0.260836	-1.163404
C60	C	-3.988850	0.190966	-1.083743
C61	C	-3.921979	0.206512	-0.949316
H62	H	-3.979881	0.243246	-1.116257
H63	H	-4.133101	0.156886	-1.117212
H64	H	-3.898889	0.162233	-1.108922
H65	H	-4.011951	0.235239	-0.924136
H66	H	-3.777705	0.240605	-0.915833
H67	H	-3.818996	0.183357	-0.694833
C68	C	-4.507060	-0.679575	-0.292518
C69	C	-4.459751	-0.709417	-0.398317
H70	H	-4.644397	-0.712158	-0.296604
H71	H	-4.507448	-0.621829	-0.293875
H72	H	-4.401432	-0.684515	-0.215322
H73	H	-4.565370	-0.704471	-0.475514
H74	H	-4.459380	-0.767177	-0.396972
C75	C	-3.955997	0.080985	-0.521912
C76	C	-3.826165	0.043394	-0.570076
H77	H	-3.916066	0.080538	-0.431830
H78	H	-4.102132	0.050122	-0.562909
H79	H	-3.937813	0.137796	-0.538316
H80	H	-3.844361	-0.013419	-0.553681
H81	H	-3.679995	0.074256	-0.529066
H82	H	-3.737906	-0.680248	-0.373530
