data_functionalizedCrystal
_audit_creation_method	'MofGen! by Chris Wilmer'
_symmetry_space_group_name_H-M	'P1'
_symmetry_Int_Tables_number	1
_symmetry_cell_setting	triclinic
loop_
_symmetry_equiv_pos_as_xyz
  x,y,z
_cell_length_a	10.489741
_cell_length_b	10.489716
_cell_length_c	18.366186
_cell_angle_alpha	89.997846
_cell_angle_beta	89.993662
_cell_angle_gamma	84.534155
loop_
_atom_site_label
_atom_site_type_symbol
_atom_site_fract_x
_atom_site_fract_y
_atom_site_fract_z
O1	O	1.694046	0.179972	-0.060497
O2	O	1.322849	0.196865	-0.060508
O3	O	1.516910	0.002818	-0.060505
O4	O	1.499985	0.374018	-0.060500
O5	O	1.516877	0.002808	0.060594
O6	O	1.322815	0.196855	0.060591
O7	O	1.694013	0.179962	0.060602
Zn8	Zn	1.508409	0.188407	0.079824
Zn9	Zn	1.508453	0.188420	-0.079730
O10	O	1.499951	0.374008	0.060599
C11	C	1.275301	0.195584	0.000040
C12	C	1.133672	0.191767	0.000036
C13	C	1.515622	-0.044719	0.000042
C14	C	1.511817	-0.186350	0.000036
C15	C	1.065542	0.068301	0.000041
C16	C	0.973427	0.126630	-0.059665
C17	C	0.973428	0.126649	0.059729
C18	C	1.043421	0.250146	-0.059720
C19	C	1.043432	0.250149	0.059729
C20	C	0.951344	0.308568	0.000008
C21	C	1.630822	-0.284024	0.000046
C22	C	1.567953	-0.361379	-0.059663
C23	C	1.567893	-0.361353	0.059732
C24	C	1.448999	-0.261840	-0.059722
C25	C	1.448956	-0.261809	0.059726
C26	C	1.386000	-0.339115	0.000003
C27	C	1.741561	0.181243	0.000052
C28	C	1.883190	0.185060	0.000052
C29	C	1.501240	0.421545	0.000050
C30	C	1.505044	0.563176	0.000052
N31	N	1.508388	0.188397	0.188715
N32	N	1.508484	0.188420	-0.188621
C33	C	1.594347	0.102516	0.226817
C34	C	1.594355	0.102511	0.303044
C35	C	1.508416	0.188408	0.341168
C36	C	1.422441	0.274295	0.303057
C37	C	1.422427	0.274290	0.226830
C38	C	1.492761	0.304430	0.461929
C39	C	1.492784	0.304437	0.538154
C40	C	1.508453	0.188424	0.576275
C41	C	1.524126	0.072400	0.538162
C42	C	1.524111	0.072394	0.461936
C43	C	1.508422	0.188423	0.423822
C44	C	1.594426	0.102530	0.697032
C45	C	1.594425	0.102523	0.773261
C46	C	1.422517	0.274318	0.773272
C47	C	1.422511	0.274315	0.697044
C48	C	1.508473	0.188422	0.658929
H49	H	1.115241	-0.033196	-0.000035
H50	H	1.352466	0.344232	0.334100
Br51	Br	1.711081	-0.014050	0.824975
Br52	Br	1.095151	0.337146	0.143869
Br53	Br	0.921769	0.039573	-0.143804
H54	H	1.352539	0.344253	0.804311
Br55	Br	1.094808	0.337161	-0.143947
Br56	Br	1.545368	-0.085058	0.410212
Br57	Br	0.868946	0.477912	-0.000040
Br58	Br	1.365338	-0.189668	-0.143952
H59	H	0.942441	0.074382	0.110206
Br60	Br	1.803348	-0.242890	-0.000045
H61	H	1.398749	-0.218295	0.110205
Br62	Br	1.213343	-0.379840	-0.000050
Br63	Br	1.305758	0.390850	0.175116
H64	H	1.618204	-0.404870	-0.110140
Br65	Br	1.471623	0.461895	0.410201
H66	H	1.618141	-0.404830	0.110209
H67	H	1.352520	0.344252	0.666020
Br68	Br	1.711081	-0.014041	0.645302
H69	H	1.536884	-0.022069	0.569198
H70	H	1.664339	0.032574	0.195785
Br71	Br	1.711023	-0.014054	0.354763
Br72	Br	1.471529	0.461896	0.589871
