data_functionalizedCrystal
_audit_creation_method	'MofGen! by Chris Wilmer'
_symmetry_space_group_name_H-M	'P1'
_symmetry_Int_Tables_number	1
_symmetry_cell_setting	triclinic
loop_
_symmetry_equiv_pos_as_xyz
  x,y,z
_cell_length_a	10.540539
_cell_length_b	17.699083
_cell_length_c	16.776229
_cell_angle_alpha	89.992455
_cell_angle_beta	89.994937
_cell_angle_gamma	83.904253
loop_
_atom_site_label
_atom_site_type_symbol
_atom_site_fract_x
_atom_site_fract_y
_atom_site_fract_z
O1	O	1.683941	0.106662	-0.066252
O2	O	2.183941	0.606662	0.433748
O3	O	1.314344	0.116711	-0.066262
O4	O	1.814344	0.616711	0.433738
O5	O	1.509585	0.001565	-0.066250
O6	O	2.009585	0.501565	0.433750
O7	O	1.488701	0.221808	-0.066265
O8	O	1.988701	0.721808	0.433735
O9	O	1.509559	0.001558	0.066326
O10	O	2.009559	0.501558	0.566326
O11	O	1.314318	0.116704	0.066314
O12	O	1.814318	0.616704	0.566314
O13	O	1.683915	0.106654	0.066324
O14	O	2.183915	0.606654	0.566324
Zn15	Zn	1.499113	0.111678	0.087368
Zn16	Zn	1.999113	0.611678	0.587368
Zn17	Zn	1.499147	0.111687	-0.087307
Zn18	Zn	1.999147	0.611687	0.412693
O19	O	1.488675	0.221800	0.066312
O20	O	1.988675	0.721800	0.566312
C21	C	1.508823	-0.026641	0.000038
C22	C	2.008823	0.473359	0.500038
C23	C	1.506578	-0.110673	0.000038
C24	C	2.006578	0.389327	0.500038
C25	C	1.267042	0.115954	0.000025
C26	C	1.767042	0.615954	0.500025
C27	C	1.126135	0.113699	0.000021
C28	C	1.626135	0.613699	0.500021
C29	C	1.621180	-0.158549	0.000043
C30	C	2.121180	0.341451	0.500043
C31	C	1.619064	-0.237506	0.000036
C32	C	2.119064	0.262494	0.500036
C33	C	1.502343	-0.268586	0.000030
C34	C	2.002343	0.231414	0.500030
C35	C	1.387732	-0.220704	0.000023
C36	C	1.887732	0.279296	0.500023
C37	C	1.389851	-0.141748	0.000025
C38	C	1.889851	0.358252	0.500025
C39	C	1.379187	-0.539122	0.000017
C40	C	1.879187	-0.039122	0.500017
C41	C	1.377078	-0.618084	0.000018
C42	C	1.877078	-0.118084	0.500018
C43	C	1.608400	-0.634880	0.000027
C44	C	2.108400	-0.134880	0.500027
C45	C	1.610518	-0.555925	0.000029
C46	C	2.110518	-0.055925	0.500029
C47	C	1.495908	-0.508050	0.000018
C48	C	1.995908	-0.008050	0.500018
C49	C	1.498205	-0.422436	0.000024
C50	C	1.998205	0.077564	0.500024
C51	C	1.500045	-0.354198	0.000029
C52	C	2.000045	0.145802	0.500029
C53	C	0.944289	0.027300	0.000336
C54	C	1.444289	0.527300	0.500336
C55	C	1.090865	0.029586	0.000029
C56	C	1.590865	0.529586	0.500029
C57	C	1.063737	0.154182	-0.075686
C58	C	1.563737	0.654182	0.424314
C59	C	0.917245	0.151311	-0.075741
C60	C	1.417245	0.651311	0.424259
C61	C	0.916696	0.153014	0.075023
C62	C	1.416696	0.653014	0.575023
C63	C	1.063664	0.153789	0.076015
C64	C	1.563664	0.653789	0.576015
C65	C	1.731217	0.107412	0.000035
C66	C	2.231217	0.607412	0.500035
C67	C	1.872124	0.109666	0.000034
C68	C	2.372124	0.609666	0.500034
C69	C	1.489436	0.250006	0.000022
C70	C	1.989436	0.750006	0.500022
C71	C	1.491681	0.334038	0.000016
C72	C	1.991681	0.834038	0.500016
N73	N	1.499099	0.111671	0.206580
N74	N	1.999099	0.611671	0.706580
N75	N	1.499171	0.111688	-0.206518
N76	N	1.999171	0.611688	0.293482
C77	C	1.585577	0.060705	0.248302
C78	C	2.085577	0.560705	0.748302
C79	C	1.585584	0.060705	0.331754
C80	C	2.085584	0.560705	0.831754
C81	C	1.499118	0.111674	0.373483
C82	C	1.999118	0.611674	0.873483
C83	C	1.412630	0.162642	0.331754
C84	C	1.912630	0.662642	0.831754
C85	C	1.412618	0.162638	0.248304
C86	C	1.912618	0.662638	0.748304
C87	C	1.412676	0.162657	0.668301
C88	C	1.912676	0.662657	1.168301
C89	C	1.412697	0.162658	0.751758
C90	C	1.912697	0.662658	1.251758
C91	C	1.585642	0.060724	0.751752
C92	C	2.085642	0.560724	1.251752
C93	C	1.585630	0.060720	0.668302
C94	C	2.085630	0.560720	1.168302
C95	C	1.499139	0.111685	0.626581
C96	C	1.999139	0.611685	1.126581
C97	C	1.499130	0.111684	0.536092
C98	C	1.999130	0.611684	1.036092
C99	C	1.499131	0.111679	0.463969
C100	C	1.999131	0.611679	0.963969
H101	H	1.716228	-0.133251	0.000052
H102	H	2.216228	0.366749	0.500052
Br103	Br	0.835443	0.252134	-0.081475
Br104	Br	1.335443	0.752134	0.418525
Br105	Br	1.234313	-0.076772	0.000013
Br106	Br	1.734313	0.423228	0.500013
Br107	Br	1.295270	0.231810	0.388382
Br108	Br	1.795270	0.731810	0.888382
Br109	Br	1.135590	0.107323	-0.169593
Br110	Br	1.635590	0.607323	0.330407
H111	H	1.084961	0.215953	-0.078507
H112	H	1.584961	0.715953	0.421493
Br113	Br	0.864936	0.107637	0.170670
Br114	Br	1.364936	0.607637	0.670670
H115	H	1.285864	-0.500152	0.000008
H116	H	1.785864	-0.000152	0.500008
H117	H	1.105156	0.124215	0.132023
H118	H	1.605156	0.624215	0.632023
H119	H	1.656001	0.019205	0.365725
H120	H	2.156001	0.519205	0.865725
H121	H	0.916300	-0.005933	0.054631
H122	H	1.416300	0.494067	0.554631
Br123	Br	1.702987	-0.008450	0.611673
Br124	Br	2.202987	0.491550	1.111673
Br125	Br	0.894960	-0.027854	-0.089639
Br126	Br	1.394960	0.472146	0.410361
Br127	Br	1.162852	-0.023506	0.090483
Br128	Br	1.662852	0.476494	0.590483
Br129	Br	1.161397	-0.023631	-0.090733
Br130	Br	1.661397	0.476369	0.409267
Br131	Br	1.763946	-0.699858	0.000042
Br132	Br	2.263946	-0.199858	0.500042
Br133	Br	1.102160	0.256004	0.083628
Br134	Br	1.602160	0.756004	0.583628
H135	H	0.889593	0.121397	-0.132330
H136	H	1.389593	0.621397	0.367670
Br137	Br	0.836135	0.254276	0.075869
Br138	Br	1.336135	0.754276	0.575869
H139	H	1.655994	0.019204	0.214333
H140	H	2.155994	0.519204	0.714333
Br141	Br	1.703026	-0.008446	0.808377
Br142	Br	2.203026	0.491554	1.308377
H143	H	1.342281	0.204165	0.785732
H144	H	1.842281	0.704165	1.285732
H145	H	1.712384	-0.276484	0.000041
H146	H	2.212384	0.223516	0.500041
H147	H	1.282024	-0.643386	0.000015
H148	H	1.782024	-0.143386	0.500015
Br149	Br	1.229324	-0.262882	0.000002
Br150	Br	1.729324	0.237118	0.500002
Br151	Br	1.295301	0.231822	0.611684
Br152	Br	1.795301	0.731822	1.111684
H153	H	1.705564	-0.530624	0.000037
H154	H	2.205564	-0.030624	0.500037
Br155	Br	1.295240	0.231804	0.191680
Br156	Br	1.795240	0.731804	0.691680
