data_functionalizedCrystal
_audit_creation_method	'MofGen! by Chris Wilmer'
_symmetry_space_group_name_H-M	'P1'
_symmetry_Int_Tables_number	1
_symmetry_cell_setting	triclinic
loop_
_symmetry_equiv_pos_as_xyz
  x,y,z
_cell_length_a	12.759401
_cell_length_b	13.031981
_cell_length_c	12.759393
_cell_angle_alpha	82.783445
_cell_angle_beta	89.977963
_cell_angle_gamma	97.191927
loop_
_atom_site_label
_atom_site_type_symbol
_atom_site_fract_x
_atom_site_fract_y
_atom_site_fract_z
Zn1	Zn	1.553155	-0.416059	-0.540871
Zn2	Zn	1.530730	-0.590871	-0.342847
Zn3	Zn	1.377447	-0.416111	-0.365196
Zn4	Zn	1.355139	-0.590794	-0.518491
O5	O	1.454118	-0.503459	-0.441851
O6	O	1.697200	-0.439259	-0.514616
O7	O	1.510348	-0.567743	-0.198784
O8	O	1.419475	-0.269838	-0.407220
O9	O	1.680724	-0.567693	-0.369129
O10	O	1.548567	-0.269800	-0.536287
O11	O	1.397731	-0.439347	-0.215204
O12	O	1.227468	-0.439272	-0.385518
O13	O	1.381456	-0.567562	-0.668488
O14	O	1.211079	-0.567612	-0.498143
O15	O	1.526936	-0.439184	-0.684930
O16	O	1.488717	-0.737127	-0.347427
O17	O	1.359711	-0.737070	-0.476472
C18	C	1.181153	-0.503440	-0.441828
C19	C	1.064374	-0.503457	-0.441839
C20	C	1.000943	-0.570226	-0.366011
C21	C	0.891217	-0.570244	-0.366037
C22	C	0.908363	-0.436715	-0.517722
C23	C	1.018086	-0.436703	-0.517700
C24	C	0.725493	-0.693484	-0.312563
C25	C	0.662059	-0.760244	-0.236720
C26	C	0.695574	-0.776165	-0.132135
C27	C	0.792523	-0.725311	-0.103375
C28	C	0.855952	-0.658543	-0.179213
C29	C	0.822436	-0.642642	-0.283810
C30	C	1.183812	-0.313462	-0.571163
C31	C	1.247244	-0.246688	-0.646998
C32	C	1.213732	-0.230756	-0.751586
C33	C	1.116783	-0.281592	-0.780345
C34	C	1.053351	-0.348365	-0.704510
C35	C	1.086870	-0.364299	-0.599923
C36	C	1.419389	-0.775023	-0.407119
C37	C	1.404628	-0.891200	-0.392295
C38	C	1.461877	-0.942893	-0.449609
C39	C	1.446623	-1.062967	-0.434289
C40	C	1.728148	-0.503478	-0.441876
C41	C	1.844924	-0.503487	-0.441886
C42	C	1.454209	-0.503358	-0.715898
C43	C	1.454248	-0.503316	-0.832680
C44	C	1.489011	-0.230834	-0.476743
C45	C	1.503880	-0.114657	-0.491611
C46	C	1.530006	-0.436459	-0.896107
C47	C	1.530030	-0.436414	-1.005837
C48	C	1.378533	-0.570091	-0.988702
C49	C	1.378505	-0.570130	-0.878975
C50	C	1.583384	-0.313095	-1.171578
C51	C	1.659158	-0.246247	-1.235007
C52	C	1.763716	-0.230222	-1.201466
C53	C	1.792520	-0.281059	-1.104495
C54	C	1.716751	-0.347915	-1.041071
C55	C	1.612181	-0.363920	-1.074613
C56	C	1.325162	-0.693450	-0.713232
C57	C	1.249397	-0.760312	-0.649804
C58	C	1.144835	-0.776348	-0.683342
C59	C	1.116033	-0.725529	-0.780314
C60	C	1.191798	-0.658668	-0.843741
C61	C	1.296358	-0.642630	-0.810196
C62	C	1.454097	-0.503483	-0.168881
C63	C	1.454299	-0.503232	-0.052137
H64	H	1.038626	-0.624584	-0.304242
C65	C	1.585357	-1.054371	-0.573226
H66	H	1.584929	-0.981577	-0.572812
H67	H	1.567703	-1.072172	-0.641547
H68	H	1.653715	-1.072162	-0.555650
H69	H	1.386306	-1.107601	-0.373880
C70	C	1.847068	-0.156693	-1.271232
H71	H	1.913470	-0.154436	-1.237374
H72	H	1.826421	-0.088649	-1.281792
H73	H	1.852743	-0.181645	-1.337573
C74	C	0.946715	-0.404299	-0.736147
H75	H	0.935843	-0.385257	-0.809300
H76	H	0.891349	-0.384561	-0.696258
H77	H	0.947180	-0.477595	-0.722416
C78	C	0.962588	-0.602613	-0.147590
H79	H	0.973469	-0.621658	-0.074439
H80	H	0.962147	-0.529320	-0.161337
H81	H	1.017947	-0.622380	-0.187477
H82	H	0.698201	-0.680538	-0.397725
C83	C	1.061492	-0.849899	-0.613578
H84	H	0.995096	-0.852171	-0.647448
H85	H	1.055810	-0.824967	-0.547234
H86	H	1.082149	-0.917945	-0.603034
C87	C	1.323155	-0.951492	-0.310686
H88	H	1.323595	-1.024286	-0.311091
H89	H	1.254801	-0.933700	-0.328249
H90	H	1.340821	-0.933695	-0.242359
H91	H	1.326182	-0.205288	-0.623572
C92	C	1.468366	-0.330716	-1.208468
H93	H	1.427360	-0.377801	-1.156802
H94	H	1.466547	-0.359102	-1.273566
H95	H	1.440225	-0.266110	-1.217779
C96	C	1.627473	-0.190322	-1.341662
H97	H	1.554342	-0.209423	-1.352548
H98	H	1.667415	-0.210009	-1.397016
H99	H	1.641103	-0.117024	-1.341213
C100	C	0.857448	-0.363287	-0.601162
H101	H	0.910942	-0.323528	-0.646327
H102	H	0.820446	-0.317700	-0.566893
H103	H	0.809557	-0.403339	-0.641761
H104	H	1.265384	-0.176372	-0.813328
C105	C	1.281079	-0.816214	-0.543137
H106	H	1.354201	-0.797078	-0.532237
H107	H	1.267468	-0.889510	-0.543569
H108	H	1.241119	-0.796521	-0.487792
H109	H	1.591678	-0.382051	-0.858417
H110	H	1.316868	-0.624492	-1.026409
C111	C	0.829380	-0.742817	0.011674
H112	H	0.777723	-0.789870	0.052720
H113	H	0.838669	-0.678180	0.039714
H114	H	0.894486	-0.771226	0.013566
H115	H	1.740204	-0.389309	-0.962122
H116	H	1.410303	-0.680391	-0.685911
C117	C	1.907539	-0.263433	-1.067607
H118	H	1.948536	-0.216329	-1.119264
H119	H	1.935687	-0.328029	-1.058294
H120	H	1.909351	-0.235043	-1.002505
H121	H	1.168338	-0.617288	-0.922701
H122	H	1.522181	-0.898257	-0.510024
H123	H	1.030891	-0.738590	-0.807623
H124	H	0.643921	-0.830526	-0.070384
C125	C	0.555429	-0.816189	-0.268357
H126	H	0.544559	-0.797163	-0.341513
H127	H	0.500062	-0.796440	-0.228478
H128	H	0.555892	-0.889484	-0.254609
C129	C	1.079909	-0.264074	-0.895389
H130	H	1.013081	-0.303906	-0.901652
H131	H	1.129844	-0.285271	-0.940825
H132	H	1.074037	-0.192226	-0.914657
C133	C	1.220681	-0.331000	-0.456116
H134	H	1.169026	-0.378060	-0.415075
H135	H	1.229975	-0.266371	-0.428060
H136	H	1.285785	-0.359410	-0.454241
