data_functionalizedCrystal
_audit_creation_method	'MofGen! by Chris Wilmer'
_symmetry_space_group_name_H-M	'P1'
_symmetry_Int_Tables_number	1
_symmetry_cell_setting	triclinic
loop_
_symmetry_equiv_pos_as_xyz
  x,y,z
_cell_length_a	10.654546
_cell_length_b	10.654550
_cell_length_c	9.730223
_cell_angle_alpha	90.000193
_cell_angle_beta	89.998853
_cell_angle_gamma	95.515807
loop_
_atom_site_label
_atom_site_type_symbol
_atom_site_fract_x
_atom_site_fract_y
_atom_site_fract_z
O1	O	1.667836	-0.176372	-0.114316
O2	O	1.302357	-0.193183	-0.114312
O3	O	1.493500	-0.002038	-0.114309
O4	O	1.476694	-0.367517	-0.114319
O5	O	1.493498	-0.002043	0.114271
O6	O	1.302355	-0.193188	0.114268
O7	O	1.667834	-0.176377	0.114264
Zn8	Zn	1.485094	-0.184783	0.150558
Zn9	Zn	1.485097	-0.184777	-0.150606
O10	O	1.476692	-0.367522	0.114261
C11	C	1.255558	-0.191952	-0.000022
C12	C	1.116115	-0.188262	-0.000020
C13	C	1.050621	-0.186513	-0.124625
C14	C	0.919601	-0.183036	-0.124636
C15	C	0.919579	-0.183051	0.124574
C16	C	1.050596	-0.186538	0.124584
C17	C	1.050633	-0.186499	-0.268505
C18	C	0.919613	-0.183021	-0.268516
C19	C	1.492265	0.044757	-0.000021
C20	C	1.488573	0.184200	-0.000026
C21	C	1.714633	-0.177608	-0.000030
C22	C	1.854077	-0.181298	-0.000040
C23	C	1.477927	-0.414317	-0.000031
C24	C	1.481619	-0.553761	-0.000035
N25	N	1.485102	-0.184787	0.356094
C26	C	1.601115	0.263687	-0.000023
C27	C	1.597638	0.394708	-0.000032
C28	C	1.369068	0.366742	-0.000042
C29	C	1.372546	0.235724	-0.000042
C30	C	1.733078	0.279835	-0.000011
C31	C	1.729601	0.410855	-0.000021
N32	N	1.485100	-0.184763	-0.356143
C33	C	1.569762	-0.100177	0.428021
C34	C	1.569758	-0.100162	0.571904
C35	C	1.400431	-0.269377	0.571920
C36	C	1.400429	-0.269386	0.428040
C37	C	1.667525	-0.002485	0.428014
C38	C	1.667522	-0.002470	0.571897
H39	H	1.102356	-0.097056	-0.313137
H40	H	1.331482	-0.338271	0.369478
C41	C	0.847498	-0.181147	0.261631
N42	N	0.793207	-0.179709	0.364865
H43	H	1.779322	0.452614	0.095637
H44	H	0.867901	-0.272461	-0.313177
H45	H	1.075453	-0.275176	-0.323750
C46	C	1.241445	0.423431	-0.000044
N47	N	1.145317	0.466127	-0.000039
H48	H	0.894798	-0.094338	-0.323755
H49	H	1.331492	-0.338255	0.630514
H50	H	1.280904	0.171009	-0.000063
H51	H	1.646082	0.094047	0.388962
H52	H	1.764033	-0.023987	0.610946
H53	H	1.637009	0.088752	0.616515
C54	C	1.802801	0.240170	-0.129238
N55	N	1.855313	0.210294	-0.226571
C56	C	1.790712	-0.043799	0.367716
N57	N	1.883498	-0.074916	0.322299
H58	H	1.103915	-0.187976	0.226049
C59	C	1.783504	0.472530	-0.133338
N60	N	1.824109	0.518986	-0.233747
C61	C	1.789846	0.231696	0.133320
N62	N	1.832602	0.195437	0.233748
