data_functionalizedCrystal
_audit_creation_method	'MofGen! by Chris Wilmer'
_symmetry_space_group_name_H-M	'P1'
_symmetry_Int_Tables_number	1
_symmetry_cell_setting	triclinic
loop_
_symmetry_equiv_pos_as_xyz
  x,y,z
_cell_length_a	14.853567
_cell_length_b	12.503572
_cell_length_c	14.853576
_cell_angle_alpha	86.470594
_cell_angle_beta	83.636707
_cell_angle_gamma	93.520287
loop_
_atom_site_label
_atom_site_type_symbol
_atom_site_fract_x
_atom_site_fract_y
_atom_site_fract_z
O1	O	1.201556	0.089244	0.112499
O2	O	0.939098	0.089262	0.126519
O3	O	1.077333	0.089248	-0.011720
O4	O	1.063321	0.089257	0.250738
O5	O	1.066937	-0.089393	-0.001306
O6	O	0.928702	-0.089379	0.136933
O7	O	1.191160	-0.089397	0.122913
Cu8	Cu	1.058982	-0.105699	0.130874
Cu9	Cu	1.071276	0.105564	0.118559
O10	O	1.052925	-0.089383	0.261152
C11	C	0.900311	-0.000056	0.131091
C12	C	0.800228	-0.000049	0.129187
N13	N	1.050341	-0.254291	0.139535
C14	C	0.387690	-0.000077	0.039023
C15	C	0.366414	-0.000070	0.203255
C16	C	0.460448	-0.000066	0.205045
C17	C	0.518108	-0.000066	0.123822
C18	C	0.481733	-0.000070	0.040810
C19	C	0.496831	-0.000052	0.288055
C20	C	0.590870	-0.000047	0.289848
C21	C	0.648531	-0.000055	0.208625
C22	C	0.612151	-0.000060	0.125610
C23	C	0.669810	-0.000060	0.044387
C24	C	0.633431	-0.000072	-0.038629
C25	C	0.539394	-0.000078	-0.040413
C26	C	0.742569	-0.000049	0.210409
C27	C	0.763853	-0.000053	0.046175
C28	C	1.037630	-0.473405	0.152284
C29	C	1.092632	-0.526737	0.097144
C30	C	1.085560	-0.648660	0.104238
C31	C	1.044701	-0.351471	0.145192
C32	C	1.229947	-0.000077	0.118341
C33	C	1.330030	-0.000077	0.120245
C34	C	1.071499	-0.000071	-0.040101
C35	C	1.069592	-0.000067	-0.140185
N36	N	1.079924	0.254156	0.109890
C37	C	1.074362	0.097315	-0.192877
C38	C	1.063038	-0.097446	-0.181537
C39	C	1.061251	-0.097447	-0.275571
C40	C	1.066021	-0.000064	-0.328262
C41	C	1.072578	0.097318	-0.286920
C42	C	1.054704	-0.194827	-0.316921
C43	C	1.052918	-0.194831	-0.410961
C44	C	1.057681	-0.097447	-0.463654
C45	C	1.064237	-0.000061	-0.422306
C46	C	1.069007	0.097321	-0.474997
C47	C	1.075557	0.194708	-0.433650
C48	C	1.077341	0.194701	-0.339613
C49	C	1.055896	-0.097441	-0.557692
C50	C	1.067223	0.097324	-0.569041
C51	C	1.058759	-0.000062	0.289534
C52	C	1.060666	-0.000059	0.389617
H53	H	0.680390	-0.000065	-0.104760
H54	H	1.145033	-0.480830	0.044610
C55	C	0.303872	0.000156	0.291449
C56	C	0.325653	0.092079	0.336057
C57	C	0.268045	0.092330	0.417302
H58	H	0.311237	-0.062065	0.329218
H59	H	0.242647	0.000214	0.278527
H60	H	0.386863	0.092012	0.348982
H61	H	0.318282	0.154315	0.298315
H62	H	0.206820	0.092387	0.404380
H63	H	0.275415	0.030104	0.455063
H64	H	0.282810	0.154702	0.447574
C65	C	0.967624	-0.534554	0.222225
C66	C	0.880528	-0.507329	0.206031
C67	C	0.816019	-0.563664	0.270434
H68	H	0.978521	-0.516237	0.281375
H69	H	0.972040	-0.609561	0.217737
H70	H	0.876115	-0.432339	0.210528
H71	H	0.869602	-0.525649	0.146894
H72	H	0.820435	-0.638672	0.265946
H73	H	0.826924	-0.545343	0.329579
H74	H	0.756917	-0.545208	0.259450
C75	C	1.072442	0.203169	-0.626094
C76	C	1.078574	0.288447	-0.569756
C77	C	1.083388	0.385966	-0.622281
H78	H	1.019470	0.207358	-0.656220
H79	H	1.124535	0.207291	-0.669808
H80	H	1.026485	0.284326	-0.526058
H81	H	1.131544	0.284294	-0.539629
H82	H	1.135482	0.390088	-0.665996
H83	H	1.030415	0.390143	-0.652405
H84	H	1.087558	0.443838	-0.584065
C85	C	0.826569	0.000116	-0.041954
C86	C	0.886528	0.092016	-0.051075
C87	C	0.944322	0.092201	-0.132240
H88	H	0.791549	0.000162	-0.091723
H89	H	0.860134	-0.062143	-0.041046
H90	H	0.852966	0.154259	-0.051990
H91	H	0.921568	0.091989	-0.001325
H92	H	0.977887	0.029942	-0.131333
H93	H	0.909295	0.092245	-0.182003
H94	H	0.985016	0.154549	-0.138435
C95	C	1.084549	0.300315	-0.294565
C96	C	1.085141	0.279466	-0.200940
C97	C	1.091816	0.376730	-0.159414
H98	H	1.034091	0.340448	-0.305381
H99	H	1.139149	0.340299	-0.319082
H100	H	1.030547	0.239500	-0.176431
H101	H	1.135597	0.239350	-0.190097
H102	H	1.146416	0.416713	-0.183931
H103	H	1.041357	0.416855	-0.170237
H104	H	1.092227	0.362597	-0.095887
H105	H	1.050567	-0.176732	-0.591353
H106	H	1.079446	0.273996	-0.476565
H107	H	0.358066	-0.000091	-0.028566
C108	C	0.434285	0.000175	0.376246
C109	C	0.456056	0.092105	0.420850
C110	C	0.398443	0.092357	0.502091
H111	H	0.441653	-0.062042	0.414020
H112	H	0.373061	0.000224	0.363321
H113	H	0.517265	0.092047	0.433778
H114	H	0.448682	0.154336	0.383103
H115	H	0.337219	0.092406	0.489166
H116	H	0.405816	0.030137	0.539857
H117	H	0.413201	0.154735	0.532361
H118	H	1.079691	0.176605	-0.159207
C119	C	1.057672	-0.203131	-0.124252
C120	C	0.980853	-0.208813	-0.059910
C121	C	0.975869	-0.306161	-0.007123
H122	H	1.110597	-0.207283	-0.094048
H123	H	1.053458	-0.261167	-0.162299
H124	H	0.985075	-0.150793	-0.021869
H125	H	0.927915	-0.204680	-0.090089
H126	H	0.971655	-0.364196	-0.045170
H127	H	1.028798	-0.310304	0.023074
H128	H	0.923744	-0.310033	0.036533
H129	H	1.047584	-0.274129	-0.444618
H130	H	0.509764	-0.000113	-0.107998
C131	C	1.049523	-0.300662	-0.259872
C132	C	1.043413	-0.385946	-0.316207
C133	C	1.038631	-0.483460	-0.263679
H134	H	0.997445	-0.304832	-0.216154
H135	H	1.102516	-0.304796	-0.229753
H136	H	0.990425	-0.381814	-0.346310
H137	H	1.095485	-0.381811	-0.359923
H138	H	1.091624	-0.487594	-0.233561
H139	H	0.986552	-0.487619	-0.219964
H140	H	1.034493	-0.541337	-0.301895
C141	C	0.630420	0.000194	0.379939
C142	C	0.689105	0.092121	0.380412
C143	C	0.725542	0.092390	0.463395
H144	H	0.663108	-0.062025	0.387780
H145	H	0.582634	0.000257	0.428073
H146	H	0.736883	0.092048	0.332292
H147	H	0.656437	0.154354	0.372587
H148	H	0.677757	0.092452	0.511528
H149	H	0.758227	0.030167	0.471228
H150	H	0.765358	0.154765	0.463730
H151	H	0.772184	-0.000041	0.277999
