data_functionalizedCrystal
_audit_creation_method	'MofGen! by Chris Wilmer'
_symmetry_space_group_name_H-M	'P1'
_symmetry_Int_Tables_number	1
_symmetry_cell_setting	triclinic
loop_
_symmetry_equiv_pos_as_xyz
  x,y,z
_cell_length_a	12.594517
_cell_length_b	21.295412
_cell_length_c	12.594516
_cell_angle_alpha	90.020623
_cell_angle_beta	89.988061
_cell_angle_gamma	89.986042
loop_
_atom_site_label
_atom_site_type_symbol
_atom_site_fract_x
_atom_site_fract_y
_atom_site_fract_z
Zn1	Zn	1.627293	-0.355795	0.423886
Zn2	Zn	1.627176	-0.250539	0.601878
Zn3	Zn	1.449289	-0.250557	0.423902
Zn4	Zn	1.449279	-0.355788	0.601810
O5	O	1.538259	-0.303170	0.512869
O6	O	1.776223	-0.341827	0.447519
O7	O	1.603534	-0.162452	0.578305
O8	O	1.472955	-0.264528	0.274954
O9	O	1.776137	-0.264496	0.578289
O10	O	1.603733	-0.341846	0.274942
O11	O	1.472842	-0.162466	0.447546
O12	O	1.300342	-0.264521	0.447479
O13	O	1.472938	-0.443878	0.578172
O14	O	1.300335	-0.341834	0.578188
O15	O	1.603724	-0.443883	0.447452
O16	O	1.603525	-0.264490	0.750815
O17	O	1.472824	-0.341816	0.750765
C18	C	1.261718	-0.303179	0.512829
C19	C	1.143413	-0.303198	0.512837
C20	C	1.074187	-0.345167	0.584068
C21	C	1.003379	-0.360648	0.487025
C22	C	1.003421	-0.287704	0.609961
C23	C	1.074164	-0.318709	0.415742
C24	C	1.074212	-0.245739	0.538743
C25	C	1.003437	-0.261197	0.441632
C26	C	1.538343	-0.467360	0.512803
C27	C	1.538378	-0.537328	0.512774
C28	C	1.470344	-0.570192	0.444681
C29	C	1.470341	-0.635935	0.444661
C30	C	1.538389	-0.668811	0.512724
C31	C	1.606428	-0.635939	0.580831
C32	C	1.606422	-0.570198	0.580856
N33	N	1.631565	-0.772041	0.520859
N34	N	1.631567	-0.834492	0.520829
C35	C	1.538409	-0.866886	0.512653
N36	N	1.445246	-0.834468	0.504487
N37	N	1.445245	-0.772011	0.504512
C38	C	1.538403	-0.740096	0.512704
C39	C	1.470366	-0.971035	0.444534
C40	C	1.470360	-1.036779	0.444522
C41	C	1.606457	-1.036782	0.580686
C42	C	1.606453	-0.971039	0.580704
C43	C	1.538409	-0.938170	0.512622
C44	C	1.815880	-0.303160	0.512910
C45	C	1.934186	-0.303157	0.512928
C46	C	1.538190	-0.303164	0.789410
C47	C	1.538257	-0.303182	0.907715
C48	C	1.538238	-0.139618	0.512858
C49	C	1.538408	-0.069650	0.512586
C50	C	1.538358	-0.303190	0.235248
C51	C	1.538401	-0.303198	0.116942
C52	C	1.467162	-0.345210	0.976979
C53	C	1.441225	-0.287772	1.047834
C54	C	1.564292	-0.360630	1.047660
C55	C	1.512268	-0.245714	0.977011
C56	C	1.635380	-0.318610	0.976831
C57	C	1.609480	-0.261132	1.047653
H58	H	1.105254	-0.380705	0.644190
C59	C	1.746240	-0.336244	0.934704
H60	H	1.764590	-0.377086	0.958861
H61	H	1.796944	-0.306803	0.959980
H62	H	1.745577	-0.335735	0.859282
C63	C	1.395494	-0.534039	0.369799
H64	H	1.354970	-0.563031	0.329247
H65	H	1.436225	-0.508401	0.323441
H66	H	1.349093	-0.508386	0.410521
C67	C	0.961322	-0.426262	0.457480
H68	H	0.985534	-0.456049	0.508130
H69	H	0.986573	-0.437551	0.389006
H70	H	0.885899	-0.425667	0.457104
H71	H	0.972341	-0.274618	0.692058
H72	H	1.105108	-0.331851	0.333620
H73	H	1.406932	-0.380700	0.945946
H74	H	1.105349	-0.197178	0.560651
C75	C	1.681287	-0.672097	0.655695
H76	H	1.721802	-0.643106	0.696258
H77	H	1.727680	-0.697749	0.614974
H78	H	1.640553	-0.697735	0.702058
H79	H	1.661828	-0.543440	0.636305
C80	C	0.961721	-0.213227	0.360225
H81	H	0.920211	-0.182408	0.395644
H82	H	0.919234	-0.234176	0.308954
H83	H	1.019987	-0.193496	0.325864
C84	C	1.593967	-0.426250	1.089582
H85	H	1.543332	-0.456051	1.065370
H86	H	1.594444	-0.425695	1.164999
H87	H	1.662426	-0.437491	1.064216
H88	H	1.414959	-0.944271	0.389099
C89	C	1.395508	-0.672093	0.369748
H90	H	1.354988	-0.643101	0.329201
H91	H	1.349117	-0.697733	0.410438
H92	H	1.436261	-0.697743	0.323370
C93	C	1.395520	-1.072929	0.369613
H94	H	1.355005	-1.043935	0.329066
H95	H	1.349126	-1.098566	0.410306
H96	H	1.436266	-1.098584	0.323235
C97	C	1.482460	-0.180075	0.935270
H98	H	1.482551	-0.180476	0.859840
H99	H	1.532692	-0.150201	0.960032
H100	H	1.413726	-0.169061	0.960173
C101	C	1.681311	-1.072938	0.655553
H102	H	1.671576	-1.116798	0.645782
H103	H	1.665711	-1.062156	0.727069
H104	H	1.752833	-1.062173	0.639980
C105	C	1.681304	-0.934887	0.655595
H106	H	1.721839	-0.963881	0.696122
H107	H	1.640575	-0.909231	0.701975
H108	H	1.727695	-0.909253	0.614884
C109	C	1.330359	-0.270145	1.089973
H110	H	1.335251	-0.233003	1.131491
H111	H	1.303687	-0.303413	1.132533
H112	H	1.283742	-0.263137	1.031880
C113	C	1.690779	-0.213076	1.089323
H114	H	1.672162	-0.172310	1.065003
H115	H	1.759514	-0.223681	1.063938
H116	H	1.690797	-0.213581	1.164748
