data_functionalizedCrystal
_audit_creation_method	'MofGen! by Chris Wilmer'
_symmetry_space_group_name_H-M	'P1'
_symmetry_Int_Tables_number	1
_symmetry_cell_setting	triclinic
loop_
_symmetry_equiv_pos_as_xyz
  x,y,z
_cell_length_a	23.532407
_cell_length_b	15.538191
_cell_length_c	14.750522
_cell_angle_alpha	107.528790
_cell_angle_beta	75.732887
_cell_angle_gamma	114.939614
loop_
_atom_site_label
_atom_site_type_symbol
_atom_site_fract_x
_atom_site_fract_y
_atom_site_fract_z
O1	O	-0.739228	0.132720	0.079711
O2	O	-0.569997	0.149304	0.079740
O3	O	-0.687555	0.003572	0.079715
O4	O	-0.621671	0.278452	0.079736
O5	O	-0.673004	-0.032780	-0.079941
O6	O	-0.555446	0.112953	-0.079917
O7	O	-0.724677	0.096368	-0.079945
Zn8	Zn	-0.637751	0.098889	-0.105280
Zn9	Zn	-0.656923	0.146784	0.105075
O10	O	-0.607120	0.242100	-0.079921
C11	C	-0.541592	0.130707	-0.000085
C12	C	-0.478634	0.129440	-0.000074
C13	C	-0.687172	-0.049764	-0.000113
C14	C	-0.707705	-0.154530	-0.000114
C15	C	-0.753083	0.114966	-0.000118
C16	C	-0.816042	0.116234	-0.000123
C17	C	-0.063614	0.207709	-0.000112
C18	C	-0.004452	0.206528	-0.000118
O19	O	0.047047	0.279085	-0.000147
N20	N	0.000561	0.119893	-0.000123
C21	C	-0.053590	0.034430	-0.000131
O22	O	-0.043893	-0.039369	-0.000137
C23	C	-0.112749	0.035610	-0.000132
C24	C	-0.117759	0.122253	-0.000118
C25	C	-0.068626	0.294345	-0.000098
C26	C	-0.127783	0.295525	-0.000090
C27	C	-0.181928	0.210070	-0.000096
C28	C	-0.176916	0.123434	-0.000110
C29	C	-0.166898	-0.049854	-0.000148
C30	C	-0.226059	-0.048666	-0.000150
C31	C	-0.231069	0.037977	-0.000135
C32	C	-0.290219	0.039158	-0.000108
N33	N	-0.295232	0.125794	-0.000103
C34	C	-0.241087	0.211249	-0.000097
C35	C	0.070650	0.031958	-0.000131
C36	C	0.129807	0.030779	-0.000123
C37	C	0.178941	0.202878	-0.000112
C38	C	0.119782	0.204057	-0.000112
C39	C	0.065637	0.118594	-0.000126
C40	C	-0.365324	0.213722	-0.000080
C41	C	-0.424489	0.214896	-0.000068
C42	C	-0.473616	0.042797	-0.000085
C43	C	-0.414457	0.041624	-0.000092
C44	C	-0.360310	0.127093	-0.000093
O45	O	-0.341745	-0.033362	-0.000083
O46	O	-0.250794	0.285033	-0.000104
C47	C	-0.607502	0.295437	-0.000090
C48	C	-0.586970	0.400204	-0.000082
N49	N	-0.624671	0.066201	-0.248841
C50	C	-0.790956	0.686076	-0.000127
C51	C	-0.771648	0.784523	-0.000123
C52	C	-0.663045	0.807987	-0.000105
C53	C	-0.682345	0.709540	-0.000104
C54	C	-0.746301	0.648592	-0.000116
C55	C	-0.637689	0.672057	-0.000093
C56	C	-0.656987	0.573618	-0.000097
C57	C	-0.720940	0.512663	-0.000113
C58	C	-0.765598	0.550153	-0.000121
C59	C	-0.573733	0.733005	-0.000087
C60	C	-0.529077	0.695521	-0.000076
C61	C	-0.548375	0.597082	-0.000074
C62	C	-0.612328	0.536127	-0.000089
C63	C	-0.503716	0.559592	-0.000066
C64	C	-0.523014	0.461153	-0.000070
C65	C	-0.631626	0.437688	-0.000093
C66	C	-0.706487	0.270781	-0.600624
C67	C	-0.697338	0.247861	-0.701127
C68	C	-0.651816	0.133962	-0.701110
C69	C	-0.660958	0.156876	-0.600604
C70	C	-0.688295	0.225286	-0.550370
C71	C	-0.642766	0.111381	-0.550350
C72	C	-0.651911	0.134289	-0.449854
C73	C	-0.679248	0.202694	-0.399612
C74	C	-0.697440	0.248194	-0.449873
C75	C	-0.615433	0.042966	-0.600586
C76	C	-0.597241	-0.002529	-0.550332
C77	C	-0.606382	0.020384	-0.449834
C78	C	-0.633719	0.088788	-0.399592
C79	C	-0.588190	-0.025117	-0.399572
C80	C	-0.597335	-0.002208	-0.299076
C81	C	-0.642864	0.111697	-0.299096
N82	N	-0.670009	0.179464	0.248636
H83	H	-0.321241	0.283319	-0.000084
H84	H	-0.607993	0.024310	-0.682417
H85	H	-0.683706	0.388063	-0.000089
N86	N	0.234257	0.290166	-0.000138
N87	N	0.250227	0.332578	-0.067441
H88	H	0.289295	0.394222	-0.067463
N89	N	-0.528922	-0.044500	-0.000089
N90	N	-0.544899	-0.086937	0.067197
H91	H	-0.583959	-0.148594	0.067188
H92	H	-0.712154	0.284916	-0.742041
H93	H	-0.574986	-0.058232	-0.591247
N94	N	-0.161802	-0.138367	-0.000158
N95	N	-0.210160	-0.214652	-0.000170
H96	H	-0.206564	-0.277171	-0.000177
H97	H	0.133878	-0.039771	-0.000120
H98	H	-0.817679	0.500528	-0.000116
H99	H	-0.665116	0.167413	-0.258192
N100	N	-0.725360	0.318078	-0.398549
N101	N	-0.695289	0.393450	-0.342480
H102	H	-0.715009	0.442802	-0.306234
N103	N	-0.438386	0.621835	-0.000064
N104	N	-0.398047	0.603364	-0.067354
H105	H	-0.351906	0.647321	-0.067353
N106	N	-0.560279	-0.095003	-0.450906
N107	N	-0.552125	-0.115457	-0.540634
H108	H	-0.532414	-0.164817	-0.576890
N109	N	0.114670	0.292554	-0.000127
N110	N	0.093277	0.297091	-0.067432
H111	H	0.089671	0.359595	-0.067447
H112	H	-0.736651	0.432509	-0.000112
N113	N	-0.623900	0.064082	-0.752442
N114	N	-0.615741	0.043630	-0.842170
H115	H	-0.596024	-0.005723	-0.878423
N116	N	-0.477392	0.422869	-0.000074
N117	N	-0.420292	0.477295	-0.000069
H118	H	-0.388068	0.450257	-0.000079
H119	H	-0.686695	0.221343	-0.317781
N120	N	-0.463753	0.757791	-0.000036
N121	N	-0.435690	0.769980	0.067282
H122	H	-0.389554	0.813959	0.067317
H123	H	0.026564	-0.037639	-0.000134
H124	H	-0.728739	0.326497	-0.559720
H125	H	-0.843037	0.636451	-0.000123
N126	N	-0.578774	-0.048718	-0.247750
N127	N	-0.554381	-0.109811	-0.292613
H128	H	-0.541282	-0.142673	-0.256365
N129	N	-0.817274	0.822793	-0.000146
N130	N	-0.874372	0.768359	-0.000166
H131	H	-0.906595	0.795385	-0.000187
N132	N	-0.429617	0.303396	-0.000049
N133	N	-0.463273	0.338580	0.067255
H134	H	-0.466895	0.401080	0.067267
N135	N	-0.281359	-0.135979	-0.000174
N136	N	-0.276870	-0.213326	-0.000191
H137	H	-0.315924	-0.274992	-0.000208
H138	H	-0.610972	0.857623	-0.000098
N139	N	-0.132884	0.384039	-0.000074
N140	N	-0.084527	0.460325	-0.000070
H141	H	-0.088125	0.522843	-0.000060
H142	H	-0.024542	0.363936	-0.000097
H143	H	-0.410380	-0.028925	-0.000090
H144	H	-0.558022	0.813158	-0.000090
