data_functionalizedCrystal
_audit_creation_method	'MofGen! by Chris Wilmer'
_symmetry_space_group_name_H-M	'P1'
_symmetry_Int_Tables_number	1
_symmetry_cell_setting	triclinic
loop_
_symmetry_equiv_pos_as_xyz
  x,y,z
_cell_length_a	21.395364
_cell_length_b	19.120786
_cell_length_c	21.395355
_cell_angle_alpha	87.540705
_cell_angle_beta	89.975448
_cell_angle_gamma	92.480057
loop_
_atom_site_label
_atom_site_type_symbol
_atom_site_fract_x
_atom_site_fract_y
_atom_site_fract_z
Zn1	Zn	0.947247	-0.279432	-0.343622
Zn2	Zn	1.197247	-0.029432	-0.093622
Zn3	Zn	1.447247	0.220568	0.156378
Zn4	Zn	1.697247	0.470568	0.406378
Zn5	Zn	0.942690	-0.396873	-0.234373
Zn6	Zn	1.192690	-0.146873	0.015627
Zn7	Zn	1.442690	0.103127	0.265627
Zn8	Zn	1.692690	0.353127	0.515627
Zn9	Zn	0.842461	-0.279463	-0.238857
Zn10	Zn	1.092461	-0.029463	0.011143
Zn11	Zn	1.342461	0.220537	0.261143
Zn12	Zn	1.592461	0.470537	0.511143
Zn13	Zn	0.837971	-0.396885	-0.339112
Zn14	Zn	1.087971	-0.146885	-0.089112
Zn15	Zn	1.337971	0.103115	0.160888
Zn16	Zn	1.587971	0.353115	0.410888
O17	O	0.892592	-0.338163	-0.288991
O18	O	1.142592	-0.088163	-0.038991
O19	O	1.392592	0.161837	0.211009
O20	O	1.642592	0.411837	0.461009
O21	O	1.034321	-0.294993	-0.329140
O22	O	1.284321	-0.044993	-0.079140
O23	O	1.534321	0.205007	0.170860
O24	O	1.784321	0.455007	0.420860
O25	O	0.929366	-0.381306	-0.147289
O26	O	1.179366	-0.131306	0.102711
O27	O	1.429366	0.118694	0.352711
O28	O	1.679366	0.368694	0.602711
O29	O	0.860148	-0.181168	-0.256519
O30	O	1.110148	0.068832	-0.006519
O31	O	1.360148	0.318832	0.243481
O32	O	1.610148	0.568832	0.493481
O33	O	1.030973	-0.381276	-0.248875
O34	O	1.280973	-0.131276	0.001125
O35	O	1.530973	0.118724	0.251125
O36	O	1.780973	0.368724	0.501125
O37	O	0.937134	-0.181146	-0.333489
O38	O	1.187134	0.068854	-0.083489
O39	O	1.437134	0.318854	0.166511
O40	O	1.687134	0.568854	0.416511
O41	O	0.855728	-0.295045	-0.150584
O42	O	1.105728	-0.045045	0.099416
O43	O	1.355728	0.204955	0.349416
O44	O	1.605728	0.454955	0.599416
O45	O	0.754187	-0.295057	-0.252146
O46	O	1.004187	-0.045057	-0.002146
O47	O	1.254187	0.204943	0.247854
O48	O	1.504187	0.454943	0.497854
O49	O	0.852495	-0.381297	-0.427389
O50	O	1.102495	-0.131297	-0.177389
O51	O	1.352495	0.118703	0.072611
O52	O	1.602495	0.368703	0.322611
O53	O	0.750888	-0.381327	-0.325803
O54	O	1.000888	-0.131327	-0.075803
O55	O	1.250888	0.118673	0.174197
O56	O	1.500888	0.368673	0.424197
O57	O	0.932780	-0.295005	-0.430702
O58	O	1.182780	-0.045005	-0.180702
O59	O	1.432780	0.204995	0.069298
O60	O	1.682780	0.454995	0.319298
O61	O	0.925012	-0.495165	-0.244503
O62	O	1.175012	-0.245165	0.005497
O63	O	1.425012	0.004835	0.255497
O64	O	1.675012	0.254835	0.505497
O65	O	0.848076	-0.495174	-0.321454
O66	O	1.098076	-0.245174	-0.071454
O67	O	1.348076	0.004826	0.178546
O68	O	1.598076	0.254826	0.428546
C69	C	0.729803	-0.338197	-0.288972
C70	C	0.979803	-0.088197	-0.038972
C71	C	1.229803	0.161803	0.211028
C72	C	1.479803	0.411803	0.461028
C73	C	0.660161	-0.338229	-0.288978
C74	C	0.910161	-0.088229	-0.038978
C75	C	1.160161	0.161771	0.211022
C76	C	1.410161	0.411771	0.461022
C77	C	0.629211	-0.293375	-0.330831
C78	C	0.879211	-0.043375	-0.080831
C79	C	1.129211	0.206625	0.169169
C80	C	1.379211	0.456625	0.419169
C81	C	0.563776	-0.293356	-0.330835
C82	C	0.813776	-0.043356	-0.080835
C83	C	1.063776	0.206644	0.169165
C84	C	1.313776	0.456644	0.419165
C85	C	0.529294	-0.338204	-0.288991
C86	C	0.779294	-0.088204	-0.038991
C87	C	1.029294	0.161796	0.211009
C88	C	1.279294	0.411796	0.461009
C89	C	0.560251	-0.383061	-0.247130
C90	C	0.810251	-0.133061	0.002870
C91	C	1.060251	0.116939	0.252870
C92	C	1.310251	0.366939	0.502870
C93	C	0.625685	-0.383074	-0.247124
C94	C	0.875685	-0.133074	0.002876
C95	C	1.125685	0.116926	0.252876
C96	C	1.375685	0.366926	0.502876
C97	C	0.423167	-0.401459	-0.281545
C98	C	0.673167	-0.151459	-0.031545
C99	C	0.923167	0.098541	0.218455
C100	C	1.173167	0.348541	0.468455
C101	C	0.357734	-0.401447	-0.281555
C102	C	0.607734	-0.151447	-0.031555
C103	C	0.857734	0.098553	0.218445
C104	C	1.107734	0.348553	0.468445
C105	C	0.327474	-0.338165	-0.289006
C106	C	0.577474	-0.088165	-0.039006
C107	C	0.827474	0.161835	0.210994
C108	C	1.077474	0.411835	0.460994
C109	C	0.362655	-0.274893	-0.296460
C110	C	0.612655	-0.024893	-0.046460
C111	C	0.862655	0.225107	0.203540
C112	C	1.112655	0.475107	0.453540
C113	C	0.428088	-0.274905	-0.296454
C114	C	0.678088	-0.024905	-0.046454
C115	C	0.928088	0.225095	0.203546
C116	C	1.178088	0.475095	0.453546
C117	C	0.458341	-0.338195	-0.288992
C118	C	0.708341	-0.088195	-0.038992
C119	C	0.958341	0.161805	0.211008
C120	C	1.208341	0.411805	0.461008
C121	C	0.225573	-0.293287	-0.330865
C122	C	0.475573	-0.043287	-0.080865
C123	C	0.725573	0.206713	0.169135
C124	C	0.975573	0.456713	0.419135
C125	C	0.160137	-0.293268	-0.330864
C126	C	0.410137	-0.043268	-0.080864
C127	C	0.660137	0.206732	0.169136
C128	C	0.910137	0.456732	0.419136
C129	C	0.156613	-0.382979	-0.247162
C130	C	0.406613	-0.132979	0.002838
C131	C	0.656613	0.117021	0.252838
C132	C	0.906613	0.367021	0.502838
C133	C	0.222048	-0.382992	-0.247160
C134	C	0.472048	-0.132992	0.002840
C135	C	0.722048	0.117008	0.252840
C136	C	0.972048	0.367008	0.502840
C137	C	0.256524	-0.338148	-0.289015
C138	C	0.506524	-0.088148	-0.039015
C139	C	0.756524	0.161852	0.210985
C140	C	1.006524	0.411852	0.460985
C141	C	0.885579	-0.520655	-0.282016
C142	C	1.135579	-0.270655	-0.032016
C143	C	1.385579	-0.020655	0.217984
C144	C	1.635579	0.229345	0.467984
C145	C	0.882636	-0.598726	-0.279053
C146	C	1.132636	-0.348726	-0.029053
C147	C	1.382636	-0.098726	0.220947
C148	C	1.632636	0.151274	0.470947
C149	C	0.921306	-0.635331	-0.317768
C150	C	1.171306	-0.385331	-0.067768
C151	C	1.421306	-0.135331	0.182232
C152	C	1.671306	0.114669	0.432232
C153	C	0.918538	-0.708687	-0.314985
C154	C	1.168538	-0.458687	-0.064985
C155	C	1.418538	-0.208687	0.185015
C156	C	1.668538	0.041313	0.435015
C157	C	0.877103	-0.745436	-0.273484
C158	C	1.127103	-0.495436	-0.023484
C159	C	1.377103	-0.245436	0.226516
C160	C	1.627103	0.004564	0.476516
C161	C	0.838429	-0.708825	-0.234768
C162	C	1.088429	-0.458825	0.015232
C163	C	1.338429	-0.208825	0.265232
C164	C	1.588429	0.041175	0.515232
C165	C	0.841194	-0.635471	-0.237554
C166	C	1.091194	-0.385471	0.012446
C167	C	1.341194	-0.135471	0.262446
C168	C	1.591194	0.114529	0.512446
C169	C	0.866748	-0.966923	-0.263067
C170	C	1.116748	-0.716923	-0.013067
C171	C	1.366748	-0.466923	0.236933
C172	C	1.616748	-0.216923	0.486933
C173	C	0.863987	-1.040282	-0.260282
C174	C	1.113987	-0.790282	-0.010282
C175	C	1.363987	-0.540282	0.239718
C176	C	1.613987	-0.290282	0.489718
C177	C	0.944096	-1.040139	-0.340501
C178	C	1.194096	-0.790139	-0.090501
C179	C	1.444096	-0.540139	0.159499
C180	C	1.694096	-0.290139	0.409499
C181	C	0.946860	-0.966783	-0.343281
C182	C	1.196860	-0.716783	-0.093281
C183	C	1.446860	-0.466783	0.156719
C184	C	1.696860	-0.216783	0.406719
C185	C	0.908184	-0.930179	-0.304567
C186	C	1.158184	-0.680179	-0.054567
C187	C	1.408184	-0.430179	0.195433
C188	C	1.658184	-0.180179	0.445433
C189	C	0.874275	-0.820417	-0.270637
C190	C	1.124275	-0.570417	-0.020637
C191	C	1.374275	-0.320417	0.229363
C192	C	1.624275	-0.070417	0.479363
C193	C	0.911010	-0.855199	-0.307417
C194	C	1.161010	-0.605199	-0.057417
C195	C	1.411010	-0.355199	0.192583
C196	C	1.661010	-0.105199	0.442583
C197	C	1.056017	-0.338129	-0.289010
C198	C	1.306017	-0.088129	-0.039010
C199	C	1.556017	0.161871	0.210990
C200	C	1.806017	0.411871	0.460990
C201	C	1.125659	-0.338115	-0.289019
C202	C	1.375659	-0.088115	-0.039019
C203	C	1.625659	0.161885	0.210981
C204	C	1.875659	0.411885	0.460981
C205	C	0.892645	-0.338149	-0.452415
C206	C	1.142645	-0.088149	-0.202415
C207	C	1.392645	0.161851	0.047585
C208	C	1.642645	0.411851	0.297585
C209	C	0.892667	-0.338143	-0.522057
C210	C	1.142667	-0.088143	-0.272057
C211	C	1.392667	0.161857	-0.022057
C212	C	1.642667	0.411857	0.227943
C213	C	0.899650	-0.154959	-0.296007
C214	C	1.149650	0.095041	-0.046007
C215	C	1.399650	0.345041	0.203993
C216	C	1.649650	0.595041	0.453993
C217	C	0.902657	-0.076888	-0.298997
C218	C	1.152657	0.173112	-0.048997
C219	C	1.402657	0.423112	0.201003
C220	C	1.652657	0.673112	0.451003
C221	C	0.934470	-0.293209	-0.556496
C222	C	1.184470	-0.043209	-0.306496
C223	C	1.434470	0.206791	-0.056496
C224	C	1.684470	0.456791	0.193504
C225	C	0.934470	-0.293179	-0.621932
C226	C	1.184470	-0.043179	-0.371932
C227	C	1.434470	0.206821	-0.121932
C228	C	1.684470	0.456821	0.128068
C229	C	0.892674	-0.338095	-0.652927
C230	C	1.142674	-0.088095	-0.402927
C231	C	1.392674	0.161905	-0.152927
C232	C	1.642674	0.411905	0.097073
C233	C	0.850863	-0.383032	-0.618479
C234	C	1.100863	-0.133032	-0.368479
C235	C	1.350863	0.116968	-0.118479
C236	C	1.600863	0.366968	0.131521
C237	C	0.850860	-0.383056	-0.553044
C238	C	1.100860	-0.133056	-0.303044
C239	C	1.350860	0.116944	-0.053044
C240	C	1.600860	0.366944	0.196956
C241	C	0.885296	-0.401340	-0.754184
C242	C	1.135296	-0.151340	-0.504184
C243	C	1.385296	0.098660	-0.254184
C244	C	1.635296	0.348660	-0.004184
C245	C	0.885304	-0.401318	-0.819618
C246	C	1.135304	-0.151318	-0.569618
C247	C	1.385304	0.098682	-0.319618
C248	C	1.635304	0.348682	-0.069618
C249	C	0.892681	-0.338021	-0.854750
C250	C	1.142681	-0.088021	-0.604750
C251	C	1.392681	0.161979	-0.354750
C252	C	1.642681	0.411979	-0.104750
C253	C	0.900063	-0.274745	-0.824441
C254	C	1.150063	-0.024745	-0.574441
C255	C	1.400063	0.225255	-0.324441
C256	C	1.650063	0.475255	-0.074441
C257	C	0.900060	-0.274769	-0.759006
C258	C	1.150060	-0.024769	-0.509006
C259	C	1.400060	0.225231	-0.259006
C260	C	1.650060	0.475231	-0.009006
C261	C	0.892673	-0.338074	-0.723880
C262	C	1.142673	-0.088074	-0.473880
C263	C	1.392673	0.161926	-0.223880
C264	C	1.642673	0.411926	0.026120
C265	C	0.934486	-0.293050	-0.960144
C266	C	1.184486	-0.043050	-0.710144
C267	C	1.434486	0.206950	-0.460144
C268	C	1.684486	0.456950	-0.210144
C269	C	0.934482	-0.293019	-1.025582
C270	C	1.184482	-0.043019	-0.775582
C271	C	1.434482	0.206981	-0.525582
C272	C	1.684482	0.456981	-0.275582
C273	C	0.850878	-0.382879	-1.022127
C274	C	1.100878	-0.132879	-0.772127
C275	C	1.350878	0.117121	-0.522127
C276	C	1.600878	0.367121	-0.272127
C277	C	0.850879	-0.382904	-0.956691
C278	C	1.100879	-0.132904	-0.706691
C279	C	1.350879	0.117096	-0.456691
C280	C	1.600879	0.367096	-0.206691
C281	C	0.892686	-0.337991	-0.925703
C282	C	1.142686	-0.087991	-0.675703
C283	C	1.392686	0.162009	-0.425703
C284	C	1.642686	0.412009	-0.175703
C285	C	0.892578	-0.338127	-0.126205
C286	C	1.142578	-0.088127	0.123795
C287	C	1.392578	0.161873	0.373795
C288	C	1.642578	0.411873	0.623795
C289	C	0.892684	-0.337935	-0.056571
C290	C	1.142684	-0.087935	0.193429
C291	C	1.392684	0.162065	0.443429
C292	C	1.642684	0.412065	0.693429
H293	H	0.650884	-0.419600	-0.213041
H294	H	0.900884	-0.169600	0.036959
H295	H	1.150884	0.080400	0.286959
H296	H	1.400884	0.330400	0.536959
H297	H	0.835257	-0.937125	-0.231543
H298	H	1.085257	-0.687125	0.018457
H299	H	1.335257	-0.437125	0.268457
H300	H	1.585257	-0.187125	0.518457
F301	F	0.877452	-0.468661	-0.851869
F302	F	1.127452	-0.218661	-0.601869
F303	F	1.377452	0.031339	-0.351869
F304	F	1.627452	0.281339	-0.101869
F305	F	0.455365	-0.468816	-0.273607
F306	F	0.705365	-0.218816	-0.023607
F307	F	0.955365	0.031184	0.226393
F308	F	1.205365	0.281184	0.476393
H309	H	0.456730	-0.223387	-0.302521
H310	H	0.706730	0.026613	-0.052521
H311	H	0.956730	0.276613	0.197479
H312	H	1.206730	0.526613	0.447479
H313	H	0.955050	-0.605415	-0.351560
H314	H	1.205050	-0.355415	-0.101560
H315	H	1.455050	-0.105415	0.148440
H316	H	1.705050	0.144585	0.398440
F317	F	0.959690	-0.747643	-0.356198
F318	F	1.209690	-0.497643	-0.106198
F319	F	1.459690	-0.247643	0.143802
F320	F	1.709690	0.002357	0.393802
H321	H	0.980600	-0.936864	-0.377074
H322	H	1.230600	-0.686864	-0.127074
H323	H	1.480600	-0.436864	0.122926
H324	H	1.730600	-0.186864	0.372926
H325	H	0.657277	-0.256858	-0.364912
H326	H	0.907277	-0.006858	-0.114912
H327	H	1.157277	0.243142	0.135088
H328	H	1.407277	0.493142	0.385088
F329	F	0.907917	-0.207374	-0.861826
F330	F	1.157917	0.042626	-0.611826
F331	F	1.407917	0.292626	-0.361826
F332	F	1.657917	0.542626	-0.111826
H333	H	0.338019	-0.223363	-0.302527
H334	H	0.588019	0.026637	-0.052527
H335	H	0.838019	0.276637	0.197473
H336	H	1.088019	0.526637	0.447473
H337	H	0.134939	-0.256738	-0.364945
H338	H	0.384939	-0.006738	-0.114945
H339	H	0.634939	0.243262	0.135055
H340	H	0.884939	0.493262	0.385055
H341	H	0.830243	-1.070201	-0.226486
H342	H	1.080243	-0.820201	0.023514
H343	H	1.330243	-0.570201	0.273514
H344	H	1.580243	-0.320201	0.523514
F345	F	0.985254	-1.079101	-0.381701
F346	F	1.235254	-0.829101	-0.131701
F347	F	1.485254	-0.579101	0.118299
F348	F	1.735254	-0.329101	0.368299
H349	H	0.804689	-0.738752	-0.200979
H350	H	1.054689	-0.488752	0.049021
H351	H	1.304689	-0.238752	0.299021
H352	H	1.554689	0.011248	0.549021
H353	H	0.809704	-0.605667	-0.206029
H354	H	1.059704	-0.355667	0.043971
H355	H	1.309704	-0.105667	0.293971
H356	H	1.559704	0.144333	0.543971
F357	F	0.523552	-0.430789	-0.202594
F358	F	0.773552	-0.180789	0.047406
F359	F	1.023552	0.069211	0.297406
F360	F	1.273552	0.319211	0.547406
H361	H	0.944744	-0.825276	-0.341210
H362	H	1.194744	-0.575276	-0.091210
H363	H	1.444744	-0.325276	0.158790
H364	H	1.694744	-0.075276	0.408790
H365	H	0.128538	-0.419495	-0.213092
H366	H	0.378538	-0.169495	0.036908
H367	H	0.628538	0.080505	0.286908
H368	H	0.878538	0.330505	0.536908
H369	H	0.816816	-0.419646	-0.525004
H370	H	1.066816	-0.169646	-0.275004
H371	H	1.316816	0.080354	-0.025004
H372	H	1.566816	0.330354	0.224996
F373	F	0.830175	-0.859535	-0.226472
F374	F	1.080175	-0.609535	0.023528
F375	F	1.330175	-0.359535	0.273528
F376	F	1.580175	-0.109535	0.523528
H377	H	0.538572	-0.256827	-0.364915
H378	H	0.788572	-0.006827	-0.114915
H379	H	1.038572	0.243173	0.135085
H380	H	1.288572	0.493173	0.385085
H381	H	0.879122	-0.452871	-0.725585
H382	H	1.129122	-0.202871	-0.475585
H383	H	1.379122	0.047129	-0.225585
H384	H	1.629122	0.297129	0.024415
H385	H	0.968512	-0.256636	-0.531270
H386	H	1.218512	-0.006636	-0.281270
H387	H	1.468512	0.243364	-0.031270
H388	H	1.718512	0.493364	0.218730
F389	F	0.978954	-0.245340	-0.658593
F390	F	1.228954	0.004660	-0.408593
F391	F	1.478954	0.254660	-0.158593
F392	F	1.728954	0.504660	0.091407
H393	H	0.253645	-0.256768	-0.364942
H394	H	0.503645	-0.006768	-0.114942
H395	H	0.753645	0.243232	0.135058
H396	H	1.003645	0.493232	0.385058
F397	F	0.806390	-0.430678	-1.055109
F398	F	1.056390	-0.180678	-0.805109
F399	F	1.306390	0.069322	-0.555109
F400	F	1.556390	0.319322	-0.305109
H401	H	0.906069	-0.223247	-0.734331
H402	H	1.156069	0.026753	-0.484331
H403	H	1.406069	0.276753	-0.234331
H404	H	1.656069	0.526753	0.015669
F405	F	0.254988	-0.430730	-0.202612
F406	F	0.504988	-0.180730	0.047388
F407	F	0.754988	0.069270	0.297388
F408	F	1.004988	0.319270	0.547388
F409	F	0.978978	-0.245247	-0.927162
F410	F	1.228978	0.004753	-0.677162
F411	F	1.478978	0.254753	-0.427162
F412	F	1.728978	0.504753	-0.177162
F413	F	0.978983	-0.245199	-1.062234
F414	F	1.228983	0.004801	-0.812234
F415	F	1.478983	0.254801	-0.562234
F416	F	1.728983	0.504801	-0.312234
F417	F	0.806388	-0.430732	-0.920036
F418	F	1.056388	-0.180732	-0.670036
F419	F	1.306388	0.069268	-0.420036
F420	F	1.556388	0.319268	-0.170036
F421	F	0.320299	-0.468788	-0.273631
F422	F	0.570299	-0.218788	-0.023631
F423	F	0.820299	0.031212	0.226369
F424	F	1.070299	0.281212	0.476369
H425	H	0.816831	-0.419601	-0.643719
H426	H	1.066831	-0.169601	-0.393719
H427	H	1.316831	0.080399	-0.143719
H428	H	1.566831	0.330399	0.106281
