data_functionalizedCrystal
_audit_creation_method	'MofGen! by Chris Wilmer'
_symmetry_space_group_name_H-M	'P1'
_symmetry_Int_Tables_number	1
_symmetry_cell_setting	triclinic
loop_
_symmetry_equiv_pos_as_xyz
  x,y,z
_cell_length_a	11.792241
_cell_length_b	10.540539
_cell_length_c	10.268362
_cell_angle_alpha	89.996859
_cell_angle_beta	89.999626
_cell_angle_gamma	84.359454
loop_
_atom_site_label
_atom_site_type_symbol
_atom_site_fract_x
_atom_site_fract_y
_atom_site_fract_z
O1	O	1.507362	0.173992	-0.108167
O2	O	2.007362	0.673992	0.391833
O3	O	1.177067	0.191924	-0.108197
O4	O	1.677067	0.691924	0.391803
O5	O	1.349750	-0.001773	-0.108180
O6	O	1.849750	0.498227	0.391820
O7	O	1.334679	0.367689	-0.108184
O8	O	1.834679	0.867689	0.391816
O9	O	1.349735	-0.001781	0.108421
O10	O	1.849735	0.498219	0.608421
O11	O	1.177052	0.191916	0.108404
O12	O	1.677052	0.691916	0.608404
O13	O	1.507347	0.173984	0.108433
O14	O	2.007347	0.673984	0.608433
Cu15	Cu	1.342198	0.182949	0.128196
Cu16	Cu	1.842198	0.682949	0.628196
Cu17	Cu	1.342216	0.182959	-0.127959
Cu18	Cu	1.842216	0.682959	0.372041
O19	O	1.334664	0.367681	0.108416
O20	O	1.834664	0.867681	0.608416
C21	C	1.134766	0.190793	0.000100
C22	C	1.634766	0.690793	0.500100
C23	C	1.008743	0.187422	0.000088
C24	C	1.508743	0.687422	0.500088
C25	C	0.778015	0.181223	0.000126
C26	C	1.278015	0.681223	0.500126
C27	C	0.906409	0.184667	0.000105
C28	C	1.406409	0.684667	0.500105
C29	C	1.348612	-0.049076	0.000118
C30	C	1.848612	0.450924	0.500118
C31	C	1.345231	-0.190014	0.000111
C32	C	1.845231	0.309986	0.500111
C33	C	1.215660	-0.373018	-0.000387
C34	C	1.715660	0.126982	0.499613
C35	C	1.219087	-0.226411	0.000101
C36	C	1.719087	0.273589	0.500101
C37	C	1.405928	-0.251874	0.123806
C38	C	1.905928	0.248126	0.623806
C39	C	1.401623	-0.398404	0.123910
C40	C	1.901623	0.101596	0.623910
C41	C	1.404206	-0.398921	-0.122405
C42	C	1.904206	0.101079	0.377595
C43	C	1.405368	-0.251943	-0.124041
C44	C	1.905368	0.248057	0.375959
C45	C	1.549648	0.175114	0.000134
C46	C	2.049648	0.675114	0.500134
C47	C	1.675671	0.178486	0.000137
C48	C	2.175671	0.678486	0.500137
C49	C	1.335802	0.414984	0.000116
C50	C	1.835802	0.914984	0.500116
C51	C	1.339183	0.555921	0.000114
C52	C	1.839183	1.055921	0.500114
N53	N	1.342194	0.182942	0.308362
N54	N	1.842194	0.682942	0.808362
N55	N	1.342229	0.182956	-0.308125
N56	N	1.842229	0.682956	0.191875
C57	C	1.342210	0.182956	0.574032
C58	C	1.842210	0.682956	1.074032
C59	C	1.342197	0.182952	0.426195
C60	C	1.842197	0.682952	0.926195
H61	H	1.171327	-0.183649	-0.088569
H62	H	1.671327	0.316351	0.411431
H63	H	1.166026	-0.403067	0.087812
H64	H	1.666026	0.096933	0.587812
H65	H	1.495319	-0.446444	-0.123229
H66	H	1.995319	0.053556	0.376771
H67	H	1.497336	-0.228021	-0.131502
H68	H	1.997336	0.271979	0.368498
H69	H	1.363752	-0.209140	0.215848
H70	H	1.863752	0.290860	0.715848
H71	H	1.165836	-0.401453	-0.089091
H72	H	1.665836	0.098547	0.410909
O73	O	1.352652	-0.202896	-0.233310
O74	O	1.852652	0.297104	0.266690
C75	C	1.431246	-0.143044	-0.309753
C76	C	1.931246	0.356956	0.190247
H77	H	1.521547	-0.184541	-0.284755
H78	H	2.021547	0.315459	0.215245
H79	H	1.413900	-0.159929	-0.417272
H80	H	1.913900	0.340071	0.082728
H81	H	1.421842	-0.036268	-0.289046
H82	H	1.921842	0.463732	0.210954
H83	H	1.498564	-0.229821	0.128413
H84	H	1.998564	0.270179	0.628413
O85	O	1.161553	-0.176539	0.106010
O86	O	1.661553	0.323461	0.606010
C87	C	1.047500	-0.205700	0.100406
C88	C	1.547500	0.294300	0.600406
H89	H	1.041825	-0.293307	0.036533
H90	H	1.541825	0.206693	0.536533
H91	H	1.016517	-0.225974	0.202784
H92	H	1.516517	0.274026	0.702784
H93	H	0.991932	-0.121401	0.057371
H94	H	1.491932	0.378599	0.557371
O95	O	1.509787	-0.456132	0.130810
O96	O	2.009787	0.043868	0.630810
C97	C	1.521724	-0.531869	0.244089
C98	C	2.021724	-0.031869	0.744089
H99	H	1.434439	-0.557901	0.276289
H100	H	1.934439	-0.057901	0.776289
H101	H	1.579478	-0.622621	0.222575
H102	H	2.079478	-0.122621	0.722575
H103	H	1.560909	-0.476332	0.325000
H104	H	2.060909	0.023668	0.825000
O105	O	1.355351	-0.436227	-0.234224
O106	O	1.855351	0.063773	0.265776
C107	C	1.241049	-0.382785	-0.239641
C108	C	1.741049	0.117215	0.260359
H109	H	1.229917	-0.294126	-0.175553
H110	H	1.729917	0.205874	0.324447
H111	H	1.217929	-0.355567	-0.344457
H112	H	1.717929	0.144433	0.155543
H113	H	1.182874	-0.455445	-0.203297
H114	H	1.682874	0.044555	0.296703
O115	O	1.347964	-0.432018	0.234068
O116	O	1.847964	0.067982	0.734068
C117	C	1.250212	-0.491733	0.200285
C118	C	1.750212	0.008267	0.700285
H119	H	1.260585	-0.532426	0.097641
H120	H	1.760585	-0.032426	0.597641
H121	H	1.238912	-0.572121	0.271965
H122	H	1.738912	-0.072121	0.771965
H123	H	1.172096	-0.418942	0.203932
H124	H	1.672096	0.081058	0.703932
