data_functionalizedCrystal
_audit_creation_method	'MofGen! by Chris Wilmer'
_symmetry_space_group_name_H-M	'P1'
_symmetry_Int_Tables_number	1
_symmetry_cell_setting	triclinic
loop_
_symmetry_equiv_pos_as_xyz
  x,y,z
_cell_length_a	10.654583
_cell_length_b	10.654550
_cell_length_c	9.130313
_cell_angle_alpha	90.000110
_cell_angle_beta	90.005937
_cell_angle_gamma	84.491717
loop_
_atom_site_label
_atom_site_type_symbol
_atom_site_fract_x
_atom_site_fract_y
_atom_site_fract_z
O1	O	-1.667810	-0.176592	-0.121989
O2	O	-1.302337	-0.193355	-0.121949
O3	O	-1.493476	-0.002235	-0.121965
O4	O	-1.476670	-0.367712	-0.121974
O5	O	-1.493474	-0.002240	0.121634
O6	O	-1.302334	-0.193360	0.121650
O7	O	-1.667807	-0.176597	0.121610
Cu8	Cu	-1.485071	-0.184979	0.143872
Cu9	Cu	-1.485073	-0.184973	-0.144212
O10	O	-1.476668	-0.367717	0.121625
C11	C	-1.255538	-0.192118	-0.000145
C12	C	-1.116097	-0.188409	-0.000129
C13	C	-1.050565	-0.186682	0.132649
C14	C	-0.919544	-0.183208	0.132632
C15	C	-0.919597	-0.183193	-0.132953
C16	C	-1.050617	-0.186658	-0.132935
C17	C	-1.050533	-0.186696	0.285982
C18	C	-0.919512	-0.183222	0.285966
N19	N	-1.485078	-0.184983	0.346495
C20	C	-1.492241	0.044560	-0.000167
C21	C	-1.488549	0.184004	-0.000172
C22	C	-0.714608	-0.177816	-0.000183
C23	C	-0.854056	-0.181469	-0.000164
C24	C	-1.477903	-0.414512	-0.000176
C25	C	-1.481595	-0.553956	-0.000181
C26	C	-1.601089	0.263476	-0.000179
C27	C	-1.597612	0.394497	-0.000189
C28	C	-1.369046	0.366561	-0.000177
C29	C	-1.372524	0.235543	-0.000178
C30	C	-1.733050	0.279606	-0.000180
C31	C	-1.729573	0.410627	-0.000190
N32	N	-1.485076	-0.184960	-0.346834
C33	C	-1.569736	-0.100384	0.423140
C34	C	-1.569733	-0.100369	0.576477
C35	C	-1.400408	-0.269562	0.576510
C36	C	-1.400407	-0.269570	0.423176
C37	C	-1.667498	-0.002705	0.423122
C38	C	-1.667495	-0.002690	0.576459
H39	H	-1.096792	-0.099907	0.344865
C40	C	-1.639143	0.126052	0.367523
C41	C	-1.740279	0.178365	0.282400
C42	C	-1.714203	0.296972	0.231169
H43	H	-1.564741	0.117332	0.309641
H44	H	-1.627275	0.179754	0.448406
H45	H	-1.752133	0.124675	0.201529
H46	H	-1.814693	0.187115	0.340251
H47	H	-1.702334	0.350675	0.312053
H48	H	-1.639798	0.288241	0.173293
H49	H	-1.782823	0.332487	0.173420
H50	H	-1.775070	0.243972	0.104997
C51	C	-1.626639	0.118954	0.639659
C52	C	-1.504291	0.135023	0.592072
C53	C	-1.466631	0.247079	0.650239
H54	H	-1.627930	0.114922	0.743572
H55	H	-1.682791	0.188109	0.607456
H56	H	-1.448154	0.065886	0.624283
H57	H	-1.502968	0.139078	0.488167
H58	H	-1.522783	0.316234	0.618036
H59	H	-1.467929	0.243037	0.754150
H60	H	-1.383620	0.258002	0.617949
C61	C	-1.089732	-0.308882	0.349539
C62	C	-0.982145	-0.386302	0.391612
C63	C	-1.018207	-0.498863	0.450179
H64	H	-1.134786	-0.350982	0.277769
H65	H	-1.142109	-0.290619	0.432524
H66	H	-0.929788	-0.404567	0.308638
H67	H	-0.937078	-0.344242	0.463396
H68	H	-1.070585	-0.480600	0.533164
H69	H	-1.063262	-0.540951	0.378401
H70	H	-0.945217	-0.551401	0.478745
H71	H	-1.331460	-0.338446	0.360773
H72	H	-1.769455	0.456268	-0.105373
C73	C	-1.796240	-0.031469	0.631663
C74	C	-1.874995	-0.049088	0.512136
C75	C	-1.993594	-0.075613	0.562932
H76	H	-1.832133	0.036957	0.689413
H77	H	-1.787376	-0.105957	0.689434
H78	H	-1.883863	0.025392	0.454389
H79	H	-1.839142	-0.117517	0.454373
H80	H	-1.984729	-0.150101	0.620704
H81	H	-2.029474	-0.007184	0.620683
H82	H	-2.047039	-0.087582	0.481842
C83	C	-1.250199	0.149467	-0.000108
C84	C	-1.147851	0.222650	-0.000072
C85	C	-1.035142	0.143401	0.000012
H86	H	-1.246634	0.097750	-0.085033
H87	H	-1.246726	0.097794	0.084875
H88	H	-1.151323	0.274301	-0.085046
H89	H	-1.151374	0.274365	0.084847
H90	H	-1.031669	0.091727	0.084994
H91	H	-1.031590	0.091687	-0.084915
H92	H	-0.965686	0.193043	0.000050
H93	H	-1.103970	-0.188045	-0.241055
H94	H	-1.331471	-0.338430	0.638960
H95	H	-0.873226	-0.270016	0.344831
C96	C	-1.243207	0.422764	-0.000102
C97	C	-1.264245	0.554515	-0.000073
C98	C	-1.148350	0.606327	0.000017
H99	H	-1.196727	0.395689	-0.085023
H100	H	-1.196805	0.395627	0.084885
H101	H	-1.310627	0.581640	-0.085051
H102	H	-1.310706	0.581624	0.084842
H103	H	-1.101947	0.579190	0.085004
H104	H	-1.101878	0.579243	-0.084905
H105	H	-1.162608	0.695725	0.000051
H106	H	-1.784666	0.250244	-0.102124
H107	H	-0.889924	-0.091626	0.333549
H108	H	-0.866267	-0.181767	-0.241078
H109	H	-1.779293	0.452379	0.101748
H110	H	-1.758681	-0.033304	0.375553
