data_functionalizedCrystal
_audit_creation_method	'MofGen! by Chris Wilmer'
_symmetry_space_group_name_H-M	'P1'
_symmetry_Int_Tables_number	1
_symmetry_cell_setting	triclinic
loop_
_symmetry_equiv_pos_as_xyz
  x,y,z
_cell_length_a	12.759401
_cell_length_b	12.759400
_cell_length_c	12.759393
_cell_angle_alpha	90.027853
_cell_angle_beta	90.019676
_cell_angle_gamma	90.014710
loop_
_atom_site_label
_atom_site_type_symbol
_atom_site_fract_x
_atom_site_fract_y
_atom_site_fract_z
Zn1	Zn	1.606269	-0.418204	0.594004
Zn2	Zn	1.606162	-0.593919	0.418332
Zn3	Zn	1.430568	-0.418256	0.418343
Zn4	Zn	1.430561	-0.593842	0.593973
O5	O	1.518390	-0.506055	0.506163
O6	O	1.753276	-0.441523	0.570709
O7	O	1.582827	-0.570671	0.271313
O8	O	1.453923	-0.271228	0.441662
O9	O	1.753197	-0.570620	0.441644
O10	O	1.583010	-0.271189	0.570720
O11	O	1.453819	-0.441612	0.271320
O12	O	1.283546	-0.441538	0.441632
O13	O	1.453912	-0.570489	0.740999
O14	O	1.283541	-0.570540	0.570667
O15	O	1.583004	-0.441448	0.741021
O16	O	1.582820	-0.740930	0.441614
O17	O	1.453807	-0.740874	0.570657
C18	C	1.245423	-0.506037	0.506148
C19	C	1.128646	-0.506055	0.506167
C20	C	1.073826	-0.438955	0.573475
C21	C	0.964102	-0.438966	0.573482
C22	C	0.964028	-0.573185	0.438870
C23	C	1.073750	-0.573168	0.438858
C24	C	1.518330	-0.779023	0.506154
C25	C	1.518400	-0.895799	0.506185
C26	C	1.451209	-0.950670	0.573324
C27	C	1.451264	-1.060394	0.573334
C28	C	1.585712	-1.060367	0.439062
C29	C	1.585650	-0.950645	0.439048
C30	C	1.383958	-0.895825	0.640461
C31	C	1.316762	-0.950696	0.707607
C32	C	1.316818	-1.060420	0.707617
C33	C	1.384070	-1.115273	0.640481
C34	C	1.792423	-0.506074	0.506179
C35	C	1.909200	-0.506082	0.506185
C36	C	1.518469	-0.505954	0.780197
C37	C	1.518502	-0.505911	0.896973
C38	C	1.518479	-0.232022	0.506196
C39	C	1.518517	-0.115245	0.506209
C40	C	1.518372	-0.506080	0.233196
C41	C	1.518542	-0.505827	0.116420
C42	C	1.585725	-0.438709	0.951849
C43	C	1.585743	-0.438664	1.061573
C44	C	1.451312	-0.573032	1.061537
C45	C	1.451289	-0.573071	0.951814
H46	H	1.118519	-0.384304	0.628278
F47	F	1.379787	-0.644509	1.119911
H48	H	1.383908	-0.806482	0.640463
H49	H	0.919472	-0.384325	0.628289
H50	H	1.640452	-0.384020	0.907200
H51	H	1.640481	-0.383939	1.106248
F52	F	1.245186	-0.892316	0.779046
H53	H	0.919318	-0.627827	0.384071
H54	H	1.262098	-1.105093	0.762284
F55	F	1.132097	-0.644580	0.367208
F56	F	1.384153	-1.232052	0.640522
H57	H	1.640466	-1.105037	0.384405
F58	F	1.379732	-0.644596	0.893409
H59	H	1.640363	-0.905968	0.384376
