data_functionalizedCrystal
_audit_creation_method	'MofGen! by Chris Wilmer'
_symmetry_space_group_name_H-M	'P1'
_symmetry_Int_Tables_number	1
_symmetry_cell_setting	triclinic
loop_
_symmetry_equiv_pos_as_xyz
  x,y,z
_cell_length_a	18.215407
_cell_length_b	12.594516
_cell_length_c	18.215407
_cell_angle_alpha	90.006371
_cell_angle_beta	90.010236
_cell_angle_gamma	90.016501
loop_
_atom_site_label
_atom_site_type_symbol
_atom_site_fract_x
_atom_site_fract_y
_atom_site_fract_z
Zn1	Zn	1.125047	-0.423906	0.416146
Zn2	Zn	1.458381	-0.090572	0.749479
Zn3	Zn	1.791714	0.242761	1.082812
Zn4	Zn	1.124995	-0.601854	0.293092
Zn5	Zn	1.458329	-0.268521	0.626425
Zn6	Zn	1.791662	0.064812	0.959759
Zn7	Zn	1.002001	-0.423892	0.293093
Zn8	Zn	1.335334	-0.090558	0.626426
Zn9	Zn	1.668667	0.242775	0.959760
Zn10	Zn	1.001965	-0.601844	0.416117
Zn11	Zn	1.335298	-0.268511	0.749450
Zn12	Zn	1.668631	0.064823	1.082783
O13	O	1.063502	-0.512874	0.354612
O14	O	1.396835	-0.179540	0.687945
O15	O	1.730169	0.153793	1.021278
O16	O	1.228025	-0.447521	0.399834
O17	O	1.561358	-0.114188	0.733167
O18	O	1.894691	0.219146	1.066500
O19	O	1.108673	-0.578246	0.190108
O20	O	1.442006	-0.244912	0.523441
O21	O	1.775340	0.088421	0.856774
O22	O	1.018360	-0.274948	0.309429
O23	O	1.351693	0.058386	0.642762
O24	O	1.685026	0.391719	0.976095
O25	O	1.227987	-0.578259	0.309427
O26	O	1.561320	-0.244926	0.642760
O27	O	1.894653	0.088407	0.976093
O28	O	1.108762	-0.274958	0.399835
O29	O	1.442095	0.058375	0.733168
O30	O	1.775428	0.391709	1.066502
O31	O	1.018309	-0.447497	0.190109
O32	O	1.351643	-0.114164	0.523442
O33	O	1.684976	0.219170	0.856775
O34	O	0.899012	-0.447487	0.309401
O35	O	1.232345	-0.114154	0.642734
O36	O	1.565678	0.219180	0.976067
O37	O	1.018299	-0.578242	0.519105
O38	O	1.351632	-0.244908	0.852438
O39	O	1.684965	0.088425	1.185771
O40	O	0.898985	-0.578228	0.399786
O41	O	1.232319	-0.244895	0.733119
O42	O	1.565652	0.088439	1.066452
O43	O	1.108727	-0.447511	0.519126
O44	O	1.442060	-0.114178	0.852459
O45	O	1.775394	0.219156	1.185793
O46	O	1.108638	-0.750799	0.309399
O47	O	1.441972	-0.417465	0.642732
O48	O	1.775305	-0.084132	0.976066
O49	O	1.018248	-0.750791	0.399785
O50	O	1.351582	-0.417458	0.733118
O51	O	1.684915	-0.084124	1.066451
C52	C	0.872296	-0.512856	0.354591
C53	C	1.205629	-0.179522	0.687924
C54	C	1.538962	0.153811	1.021257
C55	C	0.790497	-0.512873	0.354599
C56	C	1.123830	-0.179540	0.687932
C57	C	1.457164	0.153793	1.021266
C58	C	0.602309	-0.581057	0.401603
C59	C	0.935642	-0.247724	0.734937
C60	C	1.268975	0.085609	1.068270
C61	C	0.525450	-0.581061	0.401613
C62	C	0.858783	-0.247727	0.734946
C63	C	1.192116	0.085606	1.068279
C64	C	0.525448	-0.444710	0.307636
C65	C	0.858781	-0.111376	0.640969
C66	C	1.192114	0.221957	0.974303
C67	C	0.602305	-0.444702	0.307631
C68	C	0.935638	-0.111369	0.640965
C69	C	1.268972	0.221965	0.974298
C70	C	0.640733	-0.512882	0.354614
C71	C	0.974067	-0.179548	0.687947
C72	C	1.307400	0.153785	1.021280
C73	C	0.487017	-0.512893	0.354628
C74	C	0.820351	-0.179560	0.687961
C75	C	1.153684	0.153774	1.021295
C76	C	0.403684	-0.512896	0.354637
C77	C	0.737017	-0.179563	0.687971
C78	C	1.070350	0.153771	1.021304
C79	C	0.724072	-0.512877	0.354605
C80	C	1.057406	-0.179544	0.687939
C81	C	1.390739	0.153789	1.021272
C82	C	1.063454	-0.789415	0.354605
C83	C	1.396787	-0.456081	0.687938
C84	C	1.730120	-0.122748	1.021271
C85	C	1.063501	-0.907720	0.354626
C86	C	1.396834	-0.574387	0.687959
C87	C	1.730167	-0.241054	1.021293
C88	C	1.014333	-0.977008	0.403752
C89	C	1.347666	-0.643675	0.737086
C90	C	1.680999	-0.310341	1.070419
C91	C	0.996415	-1.047840	0.336599
C92	C	1.329748	-0.714506	0.669933
C93	C	1.663081	-0.381173	1.003266
C94	C	1.081486	-1.047687	0.421790
C95	C	1.414819	-0.714354	0.755124
C96	C	1.748152	-0.381021	1.088457
C97	C	1.045547	-0.976994	0.287438
C98	C	1.378880	-0.643661	0.620771
C99	C	1.712214	-0.310327	0.954104
C100	C	1.130649	-0.976835	0.372674
C101	C	1.463983	-0.643502	0.706007
C102	C	1.797316	-0.310168	1.039341
C103	C	1.112757	-1.047635	0.305475
C104	C	1.446090	-0.714302	0.638808
C105	C	1.779423	-0.380968	0.972141
C106	C	1.255455	-0.512893	0.354633
C107	C	1.588788	-0.179560	0.687967
C108	C	1.922122	0.153774	1.021300
C109	C	1.337254	-0.512901	0.354643
C110	C	1.670587	-0.179568	0.687976
C111	C	2.003920	0.153766	1.021309
C112	C	1.063515	-0.512877	0.546565
C113	C	1.396848	-0.179543	0.879898
C114	C	1.730181	0.153790	1.213231
C115	C	1.063520	-0.512878	0.628364
C116	C	1.396853	-0.179545	0.961697
C117	C	1.730187	0.153789	1.295030
C118	C	1.063571	-0.235253	0.354635
C119	C	1.396904	0.098080	0.687968
C120	C	1.730237	0.431414	1.021302
C121	C	1.063600	-0.116948	0.354645
C122	C	1.396933	0.216386	0.687978
C123	C	1.730266	0.549719	1.021312
C124	C	1.110591	-0.444818	0.816570
C125	C	1.443925	-0.111484	1.149903
C126	C	1.777258	0.221849	1.483236
C127	C	1.110587	-0.444817	0.893428
C128	C	1.443921	-0.111484	1.226762
C129	C	1.777254	0.221849	1.560095
C130	C	1.016425	-0.580954	0.893395
C131	C	1.349758	-0.247620	1.226728
C132	C	1.683091	0.085713	1.560062
C133	C	1.016426	-0.580948	0.816538
C134	C	1.349759	-0.247615	1.149871
C135	C	1.683092	0.085719	1.483204
C136	C	1.063513	-0.512882	0.778127
C137	C	1.396847	-0.179548	1.111460
C138	C	1.730180	0.153785	1.444794
C139	C	1.063508	-0.512887	0.931843
C140	C	1.396842	-0.179553	1.265176
C141	C	1.730175	0.153780	1.598510
C142	C	1.063503	-0.512887	1.015177
C143	C	1.396837	-0.179553	1.348510
C144	C	1.730170	0.153780	1.681843
C145	C	1.063517	-0.512880	0.694788
C146	C	1.396851	-0.179547	1.028121
C147	C	1.730184	0.153787	1.361455
C148	C	1.063490	-0.512894	1.163405
C149	C	1.396823	-0.179561	1.496739
C150	C	1.730156	0.153773	1.830072
C151	C	1.063501	-0.512890	1.081607
C152	C	1.396835	-0.179557	1.414940
C153	C	1.730168	0.153776	1.748273
H154	H	0.494150	-0.389202	0.269383
H155	H	0.827483	-0.055869	0.602717
H156	H	1.160816	0.277465	0.936050
H157	H	1.096657	-1.078739	0.478583
H158	H	1.429991	-0.745406	0.811916
H159	H	1.763324	-0.412073	1.145250
H160	H	0.978084	-0.636373	0.785237
H161	H	1.311417	-0.303040	1.118570
H162	H	1.644750	0.030294	1.451904
H163	H	0.633595	-0.636571	0.439862
H164	H	0.966928	-0.303238	0.773195
H165	H	1.300261	0.030096	1.106528
H166	H	0.978089	-0.636373	0.924678
H167	H	1.311423	-0.303040	1.258012
H168	H	1.644756	0.030294	1.591345
F169	F	0.643202	-0.372131	0.257619
F170	F	0.976535	-0.038797	0.590953
F171	F	1.309869	0.294536	0.924286
H172	H	1.030310	-0.946070	0.230630
H173	H	1.363643	-0.612737	0.563963
H174	H	1.696976	-0.279404	0.897296
F175	F	0.959890	-0.936469	0.457976
F176	F	1.293224	-0.603136	0.791309
F177	F	1.626557	-0.269802	1.124643
H178	H	1.148931	-0.389391	0.785298
H179	H	1.482264	-0.056057	1.118631
H180	H	1.815598	0.277276	1.451965
H181	H	0.494168	-0.636574	0.439877
H182	H	0.827501	-0.303241	0.773211
H183	H	1.160834	0.030092	1.106544
F184	F	0.922247	-1.088603	0.316650
F185	F	1.255581	-0.755270	0.649983
F186	F	1.588914	-0.421937	0.983317
H187	H	1.187377	-0.945626	0.387956
H188	H	1.520710	-0.612293	0.721289
H189	H	1.854043	-0.278959	1.054622
H190	H	1.148922	-0.389391	0.924725
H191	H	1.482255	-0.056058	1.258058
H192	H	1.815589	0.277276	1.591392
F193	F	1.167162	-1.087915	0.251123
F194	F	1.500495	-0.754582	0.584457
F195	F	1.833828	-0.421249	0.917790
