data_functionalizedCrystal
_audit_creation_method	'MofGen! by Chris Wilmer'
_symmetry_space_group_name_H-M	'P1'
_symmetry_Int_Tables_number	1
_symmetry_cell_setting	triclinic
loop_
_symmetry_equiv_pos_as_xyz
  x,y,z
_cell_length_a	16.109318
_cell_length_b	11.026623
_cell_length_c	9.483334
_cell_angle_alpha	78.597253
_cell_angle_beta	80.717014
_cell_angle_gamma	83.972367
loop_
_atom_site_label
_atom_site_type_symbol
_atom_site_fract_x
_atom_site_fract_y
_atom_site_fract_z
O1	O	1.116406	-0.175053	0.120764
O2	O	0.877249	-0.194447	0.120793
O3	O	0.977007	-0.008102	0.120773
O4	O	1.016649	-0.361398	0.120784
O5	O	0.997226	0.029899	-0.121006
O6	O	0.897469	-0.156445	-0.120987
O7	O	1.136625	-0.137052	-0.121015
Cu8	Cu	1.018893	-0.143278	-0.143077
Cu9	Cu	0.994982	-0.188220	0.142855
O10	O	1.036868	-0.323396	-0.120996
C11	C	0.856266	-0.174657	-0.000093
C12	C	0.763616	-0.172293	-0.000082
C13	C	0.452378	-0.185363	0.131686
C14	C	0.539430	-0.187580	0.131695
C15	C	0.561490	-0.146131	-0.131906
C16	C	0.474439	-0.143907	-0.131914
C17	C	0.419885	-0.163530	-0.000113
C18	C	0.593989	-0.167970	-0.000097
C19	C	0.688375	-0.170373	-0.000088
C20	C	0.325493	-0.161125	-0.000121
C21	C	0.979803	0.056107	-0.000114
C22	C	0.958001	0.190813	-0.000108
C23	C	1.018197	0.264638	-0.000114
C24	C	0.995665	0.403864	-0.000108
C25	C	1.157609	-0.156841	-0.000126
C26	C	1.250258	-0.159207	-0.000128
N27	N	1.035717	-0.111668	-0.344187
C28	C	1.034071	0.612395	-0.000108
C29	C	1.055870	0.477688	-0.000114
C30	C	0.999934	-0.178896	-0.416409
C31	C	1.013951	-0.152583	-0.583817
N32	N	0.978163	-0.219820	0.343964
H33	H	0.565881	-0.205357	0.239019
H34	H	1.086415	0.224770	-0.000131
O35	O	0.620334	-0.124983	-0.274055
H36	H	0.613867	-0.197273	-0.337257
H37	H	0.447984	-0.126125	-0.239247
O38	O	0.923825	-0.321862	-0.573790
H39	H	0.961965	-0.391540	-0.504422
O40	O	1.090043	-0.009618	-0.426430
H41	H	1.092523	-0.004959	-0.545013
H42	H	0.927443	0.443727	-0.000091
H43	H	0.407962	-0.201340	0.239007
H44	H	1.124083	0.437809	-0.000012
O45	O	0.867636	0.243606	-0.000107
H46	H	0.864120	0.344678	-0.000118
H47	H	0.958925	-0.255937	-0.354307
H48	H	1.054970	-0.075546	-0.645915
