data_functionalizedCrystal
_audit_creation_method	'MofGen! by Chris Wilmer'
_symmetry_space_group_name_H-M	'P1'
_symmetry_Int_Tables_number	1
_symmetry_cell_setting	triclinic
loop_
_symmetry_equiv_pos_as_xyz
  x,y,z
_cell_length_a	18.215405
_cell_length_b	18.215407
_cell_length_c	18.215399
_cell_angle_alpha	90.017587
_cell_angle_beta	89.968171
_cell_angle_gamma	89.976259
loop_
_atom_site_label
_atom_site_type_symbol
_atom_site_fract_x
_atom_site_fract_y
_atom_site_fract_z
Zn1	Zn	-0.292976	-1.125056	-0.416123
Zn2	Zn	0.207024	-0.625056	0.083877
Zn3	Zn	-0.416052	-1.124973	-0.293054
Zn4	Zn	0.083948	-0.624973	0.206946
Zn5	Zn	-0.293004	-1.001995	-0.293069
Zn6	Zn	0.206996	-0.501995	0.206931
Zn7	Zn	-0.416005	-1.001956	-0.416077
Zn8	Zn	0.083995	-0.501956	0.083923
O9	O	-0.354509	-1.063495	-0.354581
O10	O	0.145491	-0.563495	0.145419
O11	O	-0.309310	-1.228029	-0.399811
O12	O	0.190690	-0.728029	0.100189
O13	O	-0.399761	-1.108641	-0.190072
O14	O	0.100239	-0.608641	0.309928
O15	O	-0.190016	-1.018370	-0.309418
O16	O	0.309984	-0.518370	0.190582
O17	O	-0.399734	-1.227968	-0.309392
O18	O	0.100266	-0.727968	0.190608
O19	O	-0.189995	-1.108782	-0.399826
O20	O	0.310005	-0.608782	0.100174
O21	O	-0.309358	-1.018289	-0.190083
O22	O	0.190642	-0.518289	0.309917
O23	O	-0.309312	-0.899005	-0.309373
O24	O	0.190688	-0.399005	0.190627
O25	O	-0.399653	-1.018304	-0.519068
O26	O	0.100347	-0.518304	-0.019068
O27	O	-0.399681	-0.898977	-0.399747
O28	O	0.100319	-0.398977	0.100253
O29	O	-0.309264	-1.108745	-0.519102
O30	O	0.190736	-0.608745	-0.019102
O31	O	-0.519030	-1.108604	-0.309347
O32	O	-0.019030	-0.608604	0.190653
O33	O	-0.518996	-1.018224	-0.399732
O34	O	-0.018996	-0.518224	0.100268
C35	C	-0.354495	-0.872289	-0.354557
C36	C	0.145505	-0.372289	0.145443
C37	C	-0.354507	-0.790490	-0.354565
C38	C	0.145493	-0.290490	0.145435
C39	C	-0.401634	-0.602300	-0.401560
C40	C	0.098366	-0.102300	0.098440
C41	C	-0.401635	-0.525442	-0.401569
C42	C	0.098365	-0.025442	0.098431
C43	C	-0.307389	-0.525441	-0.307604
C44	C	0.192611	-0.025441	0.192396
C45	C	-0.307384	-0.602299	-0.307600
C46	C	0.192616	-0.102299	0.192400
C47	C	-0.354511	-0.640726	-0.354577
C48	C	0.145489	-0.140726	0.145423
C49	C	-0.354517	-0.487010	-0.354589
C50	C	0.145483	0.012990	0.145411
C51	C	-0.354519	-0.403676	-0.354598
C52	C	0.145481	0.096324	0.145402
C53	C	-0.354509	-0.724065	-0.354570
C54	C	0.145491	-0.224065	0.145430
C55	C	-0.545716	-1.063421	-0.354549
C56	C	-0.045716	-0.563421	0.145451
C57	C	-0.627514	-1.063456	-0.354560
C58	C	-0.127514	-0.563456	0.145440
C59	C	-0.892566	-1.110655	-0.307596
C60	C	-0.392566	-0.610655	0.192404
C61	C	-0.815707	-1.110624	-0.307580
C62	C	-0.315707	-0.610624	0.192420
C63	C	-0.815712	-1.016426	-0.401615
C64	C	-0.315712	-0.516426	0.098385
C65	C	-0.892569	-1.016453	-0.401628
C66	C	-0.392569	-0.516453	0.098372
C67	C	-0.930994	-1.063572	-0.354619
C68	C	-0.430994	-0.563572	0.145381
C69	C	-0.777278	-1.063514	-0.354590
C70	C	-0.277278	-0.563514	0.145410
C71	C	-0.693944	-1.063481	-0.354572
C72	C	-0.193944	-0.563481	0.145428
C73	C	-1.014333	-1.063604	-0.354636
C74	C	-0.514333	-0.563604	0.145364
C75	C	-0.162556	-1.063589	-0.354629
C76	C	0.337444	-0.563589	0.145371
C77	C	-0.080757	-1.063630	-0.354649
C78	C	0.419243	-0.563630	0.145351
C79	C	-0.354451	-1.063530	-0.546534
C80	C	0.145549	-0.563530	-0.046534
C81	C	-0.354425	-1.063544	-0.628333
C82	C	0.145575	-0.563544	-0.128333
C83	C	-0.354522	-0.255448	-0.354602
C84	C	0.145478	0.244552	0.145398
C85	C	-0.354521	-0.337247	-0.354602
C86	C	0.145479	0.162753	0.145398
C87	C	-0.307321	-1.016538	-0.816534
C88	C	0.192679	-0.516538	-0.316534
C89	C	-0.307306	-1.016551	-0.893392
C90	C	0.192694	-0.516551	-0.393392
C91	C	-0.401442	-1.110639	-0.893370
C92	C	0.098558	-0.610639	-0.393370
C93	C	-0.401460	-1.110622	-0.816513
C94	C	0.098540	-0.610622	-0.316513
C95	C	-0.354395	-1.063572	-0.778096
C96	C	0.145605	-0.563572	-0.278096
C97	C	-0.354363	-1.063602	-0.931813
C98	C	0.145637	-0.563602	-0.431813
C99	C	-0.354347	-1.063616	-1.015146
C100	C	0.145653	-0.563616	-0.515146
C101	C	-0.354412	-1.063557	-0.694757
C102	C	0.145588	-0.563557	-0.194757
C103	C	-0.354515	-1.063503	-0.163375
C104	C	0.145485	-0.563503	0.336625
C105	C	-0.354333	-1.063630	-0.081576
C106	C	0.145667	-0.563630	0.418424
H107	H	-0.269022	-0.494144	-0.269356
H108	H	0.230978	0.005856	0.230644
O109	O	-0.447222	-1.156369	-0.930575
O110	O	0.052778	-0.656369	-0.430575
C111	C	-0.488763	-1.197892	-0.880166
C112	C	0.011237	-0.697892	-0.380166
H113	H	-0.491326	-1.167734	-0.825377
H114	H	0.008674	-0.667734	-0.325377
H115	H	-0.461815	-1.253794	-0.872002
H116	H	0.038185	-0.753794	-0.372002
C117	C	-0.563933	-1.245516	-0.977432
C118	C	-0.063933	-0.745516	-0.477432
C119	C	-0.567085	-1.208471	-0.910141
C120	C	-0.067085	-0.708471	-0.410141
H121	H	-0.612245	-1.252045	-0.995922
H122	H	-0.112245	-0.752045	-0.495922
H123	H	-0.535945	-1.217543	-1.011394
H124	H	-0.035945	-0.717543	-0.511394
H125	H	-0.541473	-1.292096	-0.970620
H126	H	-0.041473	-0.792096	-0.470620
H127	H	-0.589536	-1.161888	-0.916955
H128	H	-0.089536	-0.661888	-0.416955
H129	H	-0.595079	-1.236437	-0.876180
H130	H	-0.095079	-0.736437	-0.376180
H131	H	-0.268998	-0.978228	-0.785257
H132	H	0.231002	-0.478228	-0.285257
O133	O	-0.778264	-1.156293	-0.261926
O134	O	-0.278264	-0.656293	0.238074
C135	C	-0.702188	-1.146180	-0.272003
C136	C	-0.202188	-0.646180	0.227997
H137	H	-0.691716	-1.089364	-0.296044
H138	H	-0.191716	-0.589364	0.203956
H139	H	-0.680313	-1.189795	-0.311234
H140	H	-0.180313	-0.689795	0.188766
C141	C	-0.675642	-1.222745	-0.168011
C142	C	-0.175642	-0.722745	0.331989
C143	C	-0.662780	-1.152961	-0.197534
C144	C	-0.162780	-0.652961	0.302466
H145	H	-0.651332	-1.226931	-0.122077
H146	H	-0.151332	-0.726931	0.377923
H147	H	-0.726896	-1.229561	-0.161224
H148	H	-0.226896	-0.729561	0.338776
H149	H	-0.657412	-1.259083	-0.200711
H150	H	-0.157412	-0.759083	0.299289
H151	H	-0.681018	-1.116624	-0.164839
H152	H	-0.181018	-0.616624	0.335161
H153	H	-0.611528	-1.146138	-0.204314
H154	H	-0.111528	-0.646138	0.295686
O155	O	-0.778270	-0.970731	-0.447258
O156	O	-0.278270	-0.470731	0.052742
C157	C	-0.702193	-0.980791	-0.437153
C158	C	-0.202193	-0.480791	0.062847
H159	H	-0.691670	-1.037598	-0.413105
H160	H	-0.191670	-0.537598	0.086895
H161	H	-0.680443	-0.937158	-0.397916
H162	H	-0.180443	-0.437158	0.102084
C163	C	-0.675612	-0.904211	-0.541138
C164	C	-0.175612	-0.404211	-0.041138
C165	C	-0.662687	-0.973985	-0.511608
C166	C	-0.162687	-0.473985	-0.011608
H167	H	-0.651241	-0.900010	-0.587065
H168	H	-0.151241	-0.400010	-0.087065
H169	H	-0.726866	-0.897431	-0.547945
H170	H	-0.226866	-0.397431	-0.047945
H171	H	-0.657486	-0.867858	-0.508434
H172	H	-0.157486	-0.367858	-0.008434
H173	H	-0.680820	-1.010336	-0.544308
H174	H	-0.180820	-0.510336	-0.044308
H175	H	-0.611434	-0.980771	-0.504809
H176	H	-0.111434	-0.480771	-0.004809
H177	H	-0.439797	-1.148924	-0.785216
H178	H	0.060203	-0.648924	-0.285216
O179	O	-0.929870	-0.970793	-0.447416
O180	O	-0.429870	-0.470793	0.052584
C181	C	-0.911013	-0.986805	-0.520777
C182	C	-0.411013	-0.486805	-0.020777
H183	H	-0.889836	-1.045586	-0.524550
H184	H	-0.389836	-0.545586	-0.024550
H185	H	-0.866419	-0.947318	-0.539968
H186	H	-0.366419	-0.447318	-0.039968
C187	C	-1.005271	-0.906035	-0.565257
C188	C	-0.505271	-0.406035	-0.065257
C189	C	-0.979267	-0.978233	-0.569892
C190	C	-0.479267	-0.478233	-0.069892
H191	H	-1.047372	-0.900745	-0.595555
H192	H	-0.547372	-0.400745	-0.095555
H193	H	-1.017974	-0.895245	-0.515832
H194	H	-0.517974	-0.395245	-0.015832
H195	H	-0.968103	-0.873138	-0.581249
H196	H	-0.468103	-0.373138	-0.081249
H197	H	-1.016432	-1.011128	-0.553892
H198	H	-0.516432	-0.511128	-0.053892
H199	H	-0.966572	-0.989029	-0.619316
H200	H	-0.466572	-0.489029	-0.119316
O201	O	-0.447428	-0.639516	-0.447267
O202	O	0.052572	-0.139516	0.052733
C203	C	-0.489031	-0.589115	-0.488725
C204	C	0.010969	-0.089115	0.011275
H205	H	-0.458894	-0.534340	-0.491326
H206	H	0.041106	-0.034340	0.008674
H207	H	-0.544893	-0.580911	-0.461680
H208	H	-0.044893	-0.080911	0.038320
C209	C	-0.536743	-0.686408	-0.563836
C210	C	-0.036743	-0.186408	-0.063836
C211	C	-0.499724	-0.619134	-0.567036
C212	C	0.000276	-0.119134	-0.067036
H213	H	-0.543342	-0.704926	-0.612142
H214	H	-0.043342	-0.204926	-0.112142
H215	H	-0.508716	-0.720365	-0.535904
H216	H	-0.008716	-0.220365	-0.035904
H217	H	-0.583290	-0.679563	-0.541296
H218	H	-0.083290	-0.179563	-0.041296
H219	H	-0.453174	-0.625982	-0.589568
H220	H	0.046826	-0.125982	-0.089568
H221	H	-0.527743	-0.585179	-0.594974
H222	H	-0.027743	-0.085179	-0.094974
O223	O	-0.447307	-0.488082	-0.447285
O224	O	0.052693	0.011918	0.052715
C225	C	-0.405470	-0.443646	-0.494885
C226	C	0.094530	0.056354	0.005115
H227	H	-0.347513	-0.466830	-0.499533
H228	H	0.152487	0.033170	0.000467
H229	H	-0.402910	-0.385389	-0.472142
H230	H	0.097090	0.114611	0.027858
C231	C	-0.512704	-0.414008	-0.565616
C232	C	-0.012704	0.085992	-0.065616
C233	C	-0.441521	-0.442487	-0.571330
C234	C	0.058479	0.057513	-0.071330
H235	H	-0.534943	-0.413289	-0.612771
H236	H	-0.034943	0.086711	-0.112771
H237	H	-0.540891	-0.443943	-0.533546
H238	H	-0.040891	0.056057	-0.033546
H239	H	-0.510561	-0.365462	-0.546661
H240	H	-0.010561	0.134538	-0.046661
H241	H	-0.443666	-0.491034	-0.590277
H242	H	0.056334	0.008966	-0.090277
H243	H	-0.413335	-0.412559	-0.603406
H244	H	0.086665	0.087441	-0.103406
H245	H	-0.269007	-0.633586	-0.269341
H246	H	0.230993	-0.133586	0.230659
H247	H	-0.923849	-1.149021	-0.269319
H248	H	-0.423849	-0.649021	0.230681
H249	H	-0.268974	-0.978250	-0.924684
H250	H	0.231026	-0.478250	-0.424684
