data_functionalizedCrystal
_audit_creation_method	'MofGen! by Chris Wilmer'
_symmetry_space_group_name_H-M	'P1'
_symmetry_Int_Tables_number	1
_symmetry_cell_setting	triclinic
loop_
_symmetry_equiv_pos_as_xyz
  x,y,z
_cell_length_a	12.784905
_cell_length_b	12.784905
_cell_length_c	8.140239
_cell_angle_alpha	89.997726
_cell_angle_beta	89.996744
_cell_angle_gamma	73.107319
loop_
_atom_site_label
_atom_site_type_symbol
_atom_site_fract_x
_atom_site_fract_y
_atom_site_fract_z
O1	O	1.409692	0.006715	-0.136623
O2	O	1.909692	0.506715	0.363377
O3	O	1.095994	0.052627	-0.136622
O4	O	1.595994	0.552627	0.363378
O5	O	1.275798	-0.127178	-0.136618
O6	O	1.775798	0.372822	0.363382
O7	O	1.229887	0.186520	-0.136627
O8	O	1.729887	0.686520	0.363373
O9	O	1.275789	-0.127179	0.136609
O10	O	1.775789	0.372821	0.636609
O11	O	1.095985	0.052626	0.136605
O12	O	1.595985	0.552626	0.636605
O13	O	1.409683	0.006714	0.136604
O14	O	1.909683	0.506714	0.636604
Zn15	Zn	1.252832	0.029670	0.179985
Zn16	Zn	1.752832	0.529670	0.679985
Zn17	Zn	1.252844	0.029671	-0.180003
Zn18	Zn	1.752844	0.529671	0.319997
O19	O	1.229878	0.186519	0.136600
O20	O	1.729878	0.686519	0.636600
C21	C	1.056114	0.055612	-0.000009
C22	C	1.556114	0.555612	0.499991
C23	C	0.937299	0.064496	-0.000008
C24	C	1.437299	0.564496	0.499992
C25	C	0.757644	-0.116512	-0.000032
C26	C	1.257644	0.383488	0.499968
C27	C	0.646008	-0.108170	-0.000032
C28	C	1.146008	0.391830	0.499968
C29	C	0.602389	0.089523	-0.000020
C30	C	1.102389	0.589523	0.499980
C31	C	0.714025	0.081180	-0.000020
C32	C	1.214025	0.581180	0.499980
C33	C	0.791649	-0.021841	-0.000024
C34	C	1.291649	0.478159	0.499976
C35	C	0.903287	-0.030182	-0.000012
C36	C	1.403287	0.469818	0.499988
C37	C	0.859666	0.167509	-0.000011
C38	C	1.359666	0.667509	0.499989
C39	C	0.748030	0.175852	-0.000011
C40	C	1.248030	0.675852	0.499989
C41	C	1.278780	-0.167054	-0.000007
C42	C	1.778780	0.332946	0.499993
C43	C	1.287664	-0.285869	-0.000014
C44	C	1.787664	0.214131	0.499986
C45	C	1.106656	-0.465524	0.000003
C46	C	1.606656	0.034476	0.500003
C47	C	1.114998	-0.577160	-0.000004
C48	C	1.614998	-0.077160	0.499996
C49	C	1.312691	-0.620779	-0.000022
C50	C	1.812691	-0.120779	0.499978
C51	C	1.304348	-0.509143	-0.000015
C52	C	1.804348	-0.009143	0.499985
C53	C	1.201327	-0.431518	-0.000005
C54	C	1.701327	0.068482	0.499995
C55	C	1.192986	-0.319880	-0.000010
C56	C	1.692986	0.180120	0.499990
C57	C	1.390677	-0.363501	-0.000017
C58	C	1.890677	0.136499	0.499983
C59	C	1.399020	-0.475137	-0.000023
C60	C	1.899020	0.024863	0.499977
C61	C	1.449563	0.003729	-0.000013
C62	C	1.949563	0.503729	0.499987
C63	C	1.568377	-0.005156	-0.000024
C64	C	2.068377	0.494844	0.499976
C65	C	1.226897	0.226395	-0.000015
C66	C	1.726897	0.726395	0.499985
C67	C	1.218012	0.345210	-0.000019
C68	C	1.718012	0.845210	0.499981
N69	N	1.252832	0.029667	0.425668
N70	N	1.752832	0.529667	0.925668
N71	N	1.252853	0.029664	-0.425686
N72	N	1.752853	0.529664	0.074314
H73	H	0.539169	0.173397	-0.000039
H74	H	1.039169	0.673397	0.499961
H75	H	0.887364	0.244598	0.000004
H76	H	1.387364	0.744598	0.500004
H77	H	1.482896	-0.538353	-0.000025
H78	H	1.982896	-0.038353	0.499975
C79	C	0.662632	0.289169	0.000001
C80	C	1.162632	0.789169	0.500001
N81	N	0.598311	0.374522	0.000019
N82	N	1.098311	0.874522	0.500019
H83	H	0.820848	-0.200396	-0.000024
H84	H	1.320848	0.299604	0.499976
H85	H	1.109101	-0.256679	-0.000006
H86	H	1.609101	0.243321	0.499994
H87	H	1.022772	-0.402320	-0.000002
H88	H	1.522772	0.097680	0.499998
H89	H	1.037907	-0.604841	0.000012
H90	H	1.537907	-0.104841	0.500012
C91	C	1.494823	-0.326088	-0.000029
C92	C	1.994823	0.173912	0.499971
N93	N	1.573263	-0.297907	-0.000044
N94	N	2.073263	0.202093	0.499956
H95	H	1.396565	-0.683998	-0.000010
H96	H	1.896565	-0.183998	0.499990
H97	H	0.618327	-0.185261	-0.000042
H98	H	1.118327	0.314739	0.499958
H99	H	0.966489	-0.114067	-0.000012
H100	H	1.466489	0.385933	0.499988
