data_functionalizedCrystal
_audit_creation_method	'MofGen! by Chris Wilmer'
_symmetry_space_group_name_H-M	'P1'
_symmetry_Int_Tables_number	1
_symmetry_cell_setting	triclinic
loop_
_symmetry_equiv_pos_as_xyz
  x,y,z
_cell_length_a	19.805407
_cell_length_b	14.908520
_cell_length_c	19.805399
_cell_angle_alpha	93.269050
_cell_angle_beta	89.983114
_cell_angle_gamma	93.320773
loop_
_atom_site_label
_atom_site_type_symbol
_atom_site_fract_x
_atom_site_fract_y
_atom_site_fract_z
Zn1	Zn	1.019185	-0.359168	-0.398269
Zn2	Zn	1.012581	-0.510037	-0.291612
Zn3	Zn	0.906004	-0.359197	-0.285095
Zn4	Zn	0.899441	-0.509986	-0.404757
O5	O	0.959303	-0.434597	-0.344933
O6	O	1.113026	-0.379191	-0.384133
O7	O	0.998426	-0.490062	-0.196032
O8	O	0.926528	-0.232948	-0.294665
O9	O	1.108173	-0.490034	-0.305773
O10	O	1.009682	-0.232927	-0.377813
O11	O	0.920124	-0.379240	-0.191244
O12	O	0.810417	-0.379190	-0.300956
O13	O	0.915343	-0.489946	-0.498611
O14	O	0.805596	-0.489974	-0.388871
O15	O	1.003319	-0.379141	-0.493845
O16	O	0.992063	-0.636275	-0.312064
O17	O	0.908939	-0.636238	-0.395190
C18	C	0.783448	-0.434580	-0.344910
C19	C	0.708215	-0.434594	-0.344918
C20	C	0.670374	-0.492366	-0.390629
C21	C	0.599686	-0.492368	-0.390638
C22	C	0.566839	-0.434601	-0.344933
C23	C	0.604685	-0.376823	-0.299220
C24	C	0.675373	-0.376817	-0.299214
C25	C	0.319611	-0.376843	-0.299243
C26	C	0.248919	-0.376854	-0.299251
C27	C	0.243924	-0.492393	-0.390667
C28	C	0.314612	-0.492388	-0.390662
C29	C	0.352452	-0.434606	-0.344951
C30	C	0.429100	-0.434604	-0.344942
C31	C	0.490192	-0.434607	-0.344938
C32	C	0.949091	-0.668990	-0.355053
C33	C	0.944783	-0.769265	-0.359405
C34	C	1.023335	-0.957670	-0.281093
C35	C	1.019291	-1.051887	-0.285180
C36	C	0.932654	-1.051917	-0.371669
C37	C	0.936698	-0.957700	-0.367582
C38	C	0.982040	-0.910580	-0.322292
C39	C	0.986081	-0.816361	-0.318202
C40	C	0.899447	-0.816394	-0.404694
C41	C	0.895403	-0.910610	-0.408781
C42	C	1.135845	-0.434615	-0.344956
C43	C	1.211077	-0.434623	-0.344966
C44	C	0.959335	-0.434534	-0.521473
C45	C	0.959349	-0.434508	-0.596704
C46	C	0.969574	-0.199288	-0.334788
C47	C	0.973951	-0.099014	-0.330465
C48	C	0.918590	-0.376797	-0.629554
C49	C	0.918600	-0.376780	-0.700242
C50	C	0.959374	-0.434469	-0.738078
C51	C	1.000134	-0.492185	-0.705223
C52	C	1.000120	-0.492207	-0.634537
C53	C	1.000192	-0.492101	-0.990293
C54	C	1.000204	-0.492073	-1.060984
C55	C	0.918672	-0.376674	-1.055998
C56	C	0.918658	-0.376695	-0.985312
C57	C	0.959415	-0.434415	-0.952463
C58	C	0.959403	-0.434435	-0.875816
C59	C	0.959390	-0.434445	-0.814724
C60	C	0.959313	-0.434594	-0.169077
C61	C	0.959441	-0.434367	-0.093835
H62	H	0.577936	-0.329784	-0.262009
C63	C	1.080724	-0.606263	-0.703047
C64	C	1.044953	-0.555601	-0.746810
H65	H	1.108391	-0.645415	-0.728721
H66	H	1.108322	-0.566969	-0.673786
H67	H	1.049714	-0.640775	-0.676960
H68	H	1.075963	-0.521083	-0.772894
H69	H	1.017352	-0.594900	-0.776082
H70	H	0.341352	-0.539430	-0.427877
C71	C	0.785952	-0.325502	-0.258616
C72	C	0.716971	-0.313313	-0.248967
H73	H	0.811631	-0.286289	-0.227599
H74	H	0.794891	-0.386091	-0.251248
H75	H	0.798116	-0.312377	-0.303545
H76	H	0.704806	-0.326445	-0.204040
H77	H	0.708028	-0.252710	-0.256330
C78	C	1.004205	-0.613584	-0.560277
C79	C	1.044923	-0.555644	-0.598424
H80	H	1.031864	-0.652754	-0.537987
H81	H	0.979926	-0.579228	-0.527632
H82	H	0.973217	-0.648075	-0.589345
H83	H	1.075908	-0.521148	-0.569356
H84	H	1.069213	-0.590004	-0.631073
C85	C	1.132691	-1.080739	-0.253586
C86	C	1.064696	-1.103628	-0.239890
H87	H	1.160726	-1.112673	-0.225621
H88	H	1.141895	-1.096143	-0.299734
H89	H	1.141567	-1.017877	-0.244679
H90	H	1.055818	-1.166489	-0.248802
H91	H	1.055488	-1.088230	-0.193731
H92	H	0.895743	-1.090299	-0.408546
C93	C	0.850730	-1.055053	-0.453446
C94	C	0.845562	-0.962410	-0.458558
H95	H	0.819955	-1.087028	-0.484173
H96	H	0.895534	-1.070426	-0.464070
H97	H	0.840195	-1.070533	-0.408627
H98	H	0.856102	-0.946929	-0.503376
H99	H	0.800748	-0.947031	-0.447938
H100	H	1.033371	-0.539110	-0.963557
H101	H	0.697113	-0.539409	-0.427845
C102	C	1.071315	-0.825798	-0.233126
C103	C	1.035920	-0.764564	-0.268421
H104	H	1.102087	-0.793820	-0.202397
H105	H	1.040264	-0.862601	-0.208804
H106	H	1.095606	-0.862492	-0.264243
H107	H	1.011624	-0.727874	-0.237305
H108	H	1.066975	-0.727746	-0.292745
C109	C	0.867176	-0.671981	-0.436836
C110	C	0.854053	-0.764630	-0.449986
H111	H	0.839153	-0.640027	-0.464799
H112	H	0.857960	-0.656597	-0.390687
H113	H	0.913313	-0.656486	-0.446116
H114	H	0.807917	-0.780127	-0.440701
H115	H	0.863263	-0.780021	-0.496145
C116	C	0.133347	-0.543705	-0.431283
C117	C	0.202329	-0.555900	-0.440922
H118	H	0.107671	-0.582909	-0.462309
H119	H	0.121175	-0.556832	-0.386363
H120	H	0.124413	-0.483106	-0.438651
H121	H	0.211264	-0.616498	-0.433549
H122	H	0.214505	-0.542780	-0.485852
H123	H	0.885392	-0.329815	-0.598753
H124	H	0.568879	-0.539412	-0.427860
C125	C	0.260953	-0.262622	-0.208893
C126	C	0.212812	-0.313345	-0.249013
H127	H	0.238661	-0.223414	-0.177883
H128	H	0.286804	-0.301874	-0.184643
H129	H	0.290035	-0.228166	-0.236945
H130	H	0.183733	-0.347806	-0.220961
H131	H	0.186950	-0.274088	-0.273265
C132	C	0.914498	-0.255424	-0.774524
C133	C	0.873792	-0.313357	-0.736361
H134	H	0.886830	-0.216278	-0.796827
H135	H	0.945479	-0.220915	-0.745471
H136	H	0.938783	-0.289792	-0.807166
H137	H	0.849510	-0.278989	-0.703716
H138	H	0.842799	-0.347870	-0.765417
C139	C	0.838058	-0.262629	-0.987485
C140	C	0.873836	-0.313285	-0.943723
H141	H	0.810383	-0.223488	-0.961810
H142	H	0.869058	-0.228113	-1.013569
H143	H	0.810460	-0.301935	-1.016749
H144	H	0.901438	-0.273980	-0.914462
H145	H	0.842832	-0.347804	-0.917628
C146	C	0.882474	-0.325402	-1.162142
C147	C	0.873859	-0.313237	-1.092108
H148	H	0.854806	-0.286242	-1.184431
H149	H	0.928523	-0.312197	-1.173162
H150	H	0.869922	-0.386015	-1.176328
H151	H	0.886416	-0.252624	-1.077920
H152	H	0.827800	-0.326435	-1.081082
C153	C	1.080789	-0.606169	-1.058817
C154	C	1.045020	-0.555497	-1.102576
H155	H	1.108451	-0.645324	-1.084496
H156	H	1.108392	-0.566881	-1.029557
H157	H	1.049778	-0.640679	-1.032730
H158	H	1.076031	-0.520982	-1.128660
H159	H	1.017414	-0.594790	-1.131847
H160	H	1.060250	-0.919304	-0.244211
H161	H	0.350412	-0.329800	-0.262018
