data_functionalizedCrystal
_audit_creation_method	'MofGen! by Chris Wilmer'
_symmetry_space_group_name_H-M	'P1'
_symmetry_Int_Tables_number	1
_symmetry_cell_setting	triclinic
loop_
_symmetry_equiv_pos_as_xyz
  x,y,z
_cell_length_a	17.077404
_cell_length_b	13.031981
_cell_length_c	17.077396
_cell_angle_alpha	97.212086
_cell_angle_beta	90.019777
_cell_angle_gamma	97.186978
loop_
_atom_site_label
_atom_site_type_symbol
_atom_site_fract_x
_atom_site_fract_y
_atom_site_fract_z
Zn1	Zn	1.160402	-0.416236	0.404113
Zn2	Zn	1.660402	0.083764	0.904113
Zn3	Zn	1.143657	-0.591030	0.256161
Zn4	Zn	1.643657	-0.091030	0.756161
Zn5	Zn	1.029132	-0.416258	0.272859
Zn6	Zn	1.529132	0.083742	0.772859
Zn7	Zn	1.012457	-0.590953	0.387391
Zn8	Zn	1.512457	-0.090953	0.887391
O9	O	1.086412	-0.503619	0.330131
O10	O	1.586412	-0.003619	0.830131
O11	O	1.268025	-0.439446	0.384497
O12	O	1.768025	0.060554	0.884497
O13	O	1.128436	-0.567888	0.148525
O14	O	1.628436	-0.067888	0.648525
O15	O	1.060531	-0.269993	0.304256
O16	O	1.560531	0.230007	0.804256
O17	O	1.255723	-0.567866	0.275798
O18	O	1.755723	-0.067866	0.775798
O19	O	1.156975	-0.269977	0.400688
O20	O	1.656975	0.230023	0.900688
O21	O	1.044294	-0.439483	0.160793
O22	O	1.544294	0.060517	0.660793
O23	O	0.917075	-0.439409	0.288041
O24	O	1.417075	0.060591	0.788041
O25	O	1.032112	-0.567735	0.499461
O26	O	1.532112	-0.067735	0.999461
O27	O	0.904825	-0.567757	0.372188
O28	O	1.404825	-0.067757	0.872188
O29	O	1.140806	-0.439372	0.511746
O30	O	1.640806	0.060628	1.011746
O31	O	1.112267	-0.737282	0.259583
O32	O	1.612267	-0.237282	0.759583
O33	O	1.015875	-0.737226	0.355997
O34	O	1.515875	-0.237226	0.855997
C35	C	0.882468	-0.503578	0.330113
C36	C	1.382468	-0.003578	0.830113
C37	C	0.795218	-0.503585	0.330121
C38	C	1.295218	-0.003585	0.830121
C39	C	0.413027	-0.570600	0.373876
C40	C	0.913027	-0.070600	0.873876
C41	C	0.495009	-0.570586	0.373865
C42	C	0.995009	-0.070586	0.873865
C43	C	0.542363	-0.503647	0.330141
C44	C	1.042363	-0.003647	0.830141
C45	C	0.507730	-0.436725	0.286419
C46	C	1.007730	0.063275	0.786419
C47	C	0.425749	-0.436745	0.286425
C48	C	0.925749	0.063255	0.786425
C49	C	0.678604	-0.436687	0.286409
C50	C	1.178604	0.063313	0.786409
C51	C	0.760591	-0.436666	0.286403
C52	C	1.260591	0.063334	0.786403
C53	C	0.747864	-0.570528	0.373849
C54	C	1.247864	-0.070528	0.873849
C55	C	0.665883	-0.570548	0.373856
C56	C	1.165883	-0.070548	0.873856
C57	C	0.631256	-0.503624	0.330134
C58	C	1.131256	-0.003624	0.830134
C59	C	1.060466	-0.775178	0.304181
C60	C	1.560466	-0.275178	0.804181
C61	C	1.049438	-0.891352	0.293105
C62	C	1.549438	-0.391352	0.793105
C63	C	1.092209	-0.943055	0.335927
C64	C	1.592209	-0.443055	0.835927
C65	C	1.080813	-1.063127	0.324481
C66	C	1.580813	-0.563127	0.824481
C67	C	1.291152	-0.503662	0.330150
C68	C	1.791152	-0.003662	0.830150
C69	C	1.378400	-0.503681	0.330158
C70	C	1.878400	-0.003681	0.830158
C71	C	1.086467	-0.503542	0.534883
C72	C	1.586467	-0.003542	1.034883
C73	C	1.086490	-0.503510	0.622136
C74	C	1.586490	-0.003510	1.122136
C75	C	1.112481	-0.231000	0.356200
C76	C	1.612481	0.269000	0.856200
C77	C	1.123589	-0.114826	0.367309
C78	C	1.623589	0.385174	0.867309
C79	C	1.086410	-0.503621	0.126183
C80	C	1.586410	-0.003621	0.626183
C81	C	1.086567	-0.503359	0.038959
C82	C	1.586567	-0.003359	0.538959
C83	C	1.143090	-0.436665	0.669525
C84	C	1.643090	0.063335	1.169525
C85	C	1.143102	-0.436630	0.751509
C86	C	1.643102	0.063370	1.251509
C87	C	1.086519	-0.503446	0.786101
C88	C	1.586519	-0.003446	1.286101
C89	C	1.029913	-0.570294	0.738706
C90	C	1.529913	-0.070294	1.238706
C91	C	1.029898	-0.570322	0.656725
C92	C	1.529898	-0.070322	1.156725
C93	C	1.029951	-0.570231	0.909582
C94	C	1.529951	-0.070231	1.409582
C95	C	1.029967	-0.570204	0.991570
C96	C	1.529967	-0.070204	1.491570
C97	C	1.143156	-0.436539	1.004367
C98	C	1.643156	0.063461	1.504367
C99	C	1.143140	-0.436567	0.922385
C100	C	1.643140	0.063433	1.422385
C101	C	1.086536	-0.503417	0.874995
C102	C	1.586536	-0.003417	1.374995
H103	H	0.650414	-0.382188	0.250808
H104	H	1.150414	0.117812	0.750808
H105	H	0.776061	-0.625017	0.409451
H106	H	1.276061	-0.125017	0.909451
H107	H	0.983890	-0.624609	1.019733
H108	H	1.483890	-0.124609	1.519733
H109	H	0.983839	-0.624692	0.766878
H110	H	1.483839	-0.124692	1.266878
O111	O	0.968896	-0.642323	0.858465
O112	O	1.468896	-0.142323	1.358465
H113	H	0.929555	-0.688786	0.896291
H114	H	1.429555	-0.188786	1.396291
H115	H	1.137262	-0.898429	0.381066
H116	H	1.637262	-0.398429	0.881066
H117	H	1.004380	-0.935980	0.247974
H118	H	1.504380	-0.435980	0.747974
H119	H	0.983802	-0.624744	0.618142
H120	H	1.483802	-0.124744	1.118142
H121	H	0.374478	-0.625103	0.409486
H122	H	0.874478	-0.125103	0.909486
H123	H	0.523198	-0.625081	0.409462
H124	H	1.023198	-0.125081	0.909462
O125	O	1.021135	-1.122231	0.264682
O126	O	1.521135	-0.622231	0.764682
H127	H	0.976491	-1.171987	0.295065
H128	H	1.476491	-0.671987	0.795065
H129	H	0.627330	-0.625051	0.409464
H130	H	1.127330	-0.125051	0.909464
O131	O	0.811665	-0.364471	0.239241
O132	O	1.311665	0.135529	0.739241
H133	H	0.844549	-0.411180	0.194789
H134	H	1.344549	0.088820	0.694789
O135	O	0.558796	-0.364526	0.239253
O136	O	1.058796	0.135474	0.739253
H137	H	0.601223	-0.311391	0.279526
H138	H	1.101223	0.188609	0.779526
H139	H	1.168645	-1.070203	0.412451
H140	H	1.668645	-0.570203	0.912451
O141	O	1.204120	-0.364599	0.632215
O142	O	1.704120	0.135401	1.132215
H143	H	1.243474	-0.318106	0.678945
H144	H	1.743474	0.181894	1.178945
O145	O	0.388386	-0.364577	0.239273
O146	O	0.888386	0.135423	0.739273
H147	H	0.411933	-0.282560	0.260673
H148	H	0.911933	0.217440	0.760673
H149	H	1.189220	-0.382166	0.894222
H150	H	1.689220	0.117834	1.394222
H151	H	1.189193	-0.382201	0.790090
H152	H	1.689193	0.117799	1.290090
O153	O	1.204204	-0.364424	1.055473
O154	O	1.704204	0.135576	1.555473
H155	H	1.194704	-0.375615	1.118293
H156	H	1.694704	0.124385	1.618293
