data_functionalizedCrystal
_audit_creation_method	'MofGen! by Chris Wilmer'
_symmetry_space_group_name_H-M	'P1'
_symmetry_Int_Tables_number	1
_symmetry_cell_setting	triclinic
loop_
_symmetry_equiv_pos_as_xyz
  x,y,z
_cell_length_a	10.723024
_cell_length_b	13.339070
_cell_length_c	9.798715
_cell_angle_alpha	89.999403
_cell_angle_beta	89.996609
_cell_angle_gamma	100.048582
loop_
_atom_site_label
_atom_site_type_symbol
_atom_site_fract_x
_atom_site_fract_y
_atom_site_fract_z
O1	O	1.704930	0.142225	-0.113477
O2	O	1.346348	0.155839	-0.113481
O3	O	1.484486	0.001483	-0.113475
O4	O	1.566793	0.296581	-0.113483
O5	O	1.484471	0.001483	0.113507
O6	O	1.346334	0.155839	0.113501
O7	O	1.704916	0.142225	0.113505
Zn8	Zn	1.525623	0.149032	0.149541
Zn9	Zn	1.525642	0.149032	-0.149517
O10	O	1.566779	0.296581	0.113500
C11	C	1.299509	0.154848	0.000009
C12	C	1.159959	0.151884	0.000008
C13	C	1.113970	0.238253	0.000005
C14	C	0.969739	0.235192	0.000003
C15	C	1.470575	-0.036303	0.000014
C16	C	1.429133	-0.148892	0.000008
C17	C	1.751368	-0.511449	0.000012
C18	C	1.790309	-0.405666	0.000025
C19	C	1.700018	-0.341468	0.000020
C20	C	1.570779	-0.383062	0.000003
C21	C	1.531834	-0.488855	0.000001
C22	C	1.480485	-0.318874	0.000009
C23	C	1.351246	-0.360469	-0.000008
C24	C	1.312308	-0.466252	-0.000012
C25	C	1.402598	-0.530450	-0.000007
C26	C	1.519430	-0.213081	0.000012
C27	C	1.299897	-0.190487	0.000000
C28	C	1.260956	-0.296270	-0.000013
C29	C	1.751755	0.143216	0.000012
C30	C	1.891305	0.146180	0.000004
C31	C	1.580689	0.334367	0.000008
C32	C	1.622132	0.446956	0.000005
N33	N	1.525619	0.149031	0.353641
N34	N	1.525653	0.149025	-0.353617
C35	C	1.583523	0.083935	0.421420
C36	C	1.583542	0.083932	0.578583
H37	H	0.930908	0.072237	-0.000002
F38	F	1.071862	0.052267	0.000019
F39	F	1.648019	0.010912	0.345195
H40	H	1.181375	0.314464	0.000011
F41	F	0.917968	0.331840	-0.000010
F42	F	1.656970	-0.168825	0.000031
F43	F	1.741466	-0.228884	0.000030
H44	H	1.824868	-0.563728	0.000027
H45	H	1.633122	0.028204	0.636870
H46	H	1.155727	-0.330152	-0.000027
H47	H	1.895534	-0.371808	0.000042
F48	F	1.361159	-0.643039	-0.000150
F49	F	1.174760	-0.510517	-0.000013
H50	H	1.226374	-0.138216	0.000003
H51	H	1.476082	0.204763	0.588105
F52	F	1.460830	0.221869	0.429867
