data_functionalizedCrystal
_audit_creation_method	'MofGen! by Chris Wilmer'
_symmetry_space_group_name_H-M	'P1'
_symmetry_Int_Tables_number	1
_symmetry_cell_setting	triclinic
loop_
_symmetry_equiv_pos_as_xyz
  x,y,z
_cell_length_a	19.121102
_cell_length_b	19.120786
_cell_length_c	18.101390
_cell_angle_alpha	87.524889
_cell_angle_beta	87.541727
_cell_angle_gamma	89.915559
loop_
_atom_site_label
_atom_site_type_symbol
_atom_site_fract_x
_atom_site_fract_y
_atom_site_fract_z
Zn1	Zn	1.059863	-0.324890	-0.451720
Zn2	Zn	1.054773	-0.442145	-0.322370
Zn3	Zn	0.942625	-0.319913	-0.322850
Zn4	Zn	0.937592	-0.437088	-0.441134
O5	O	0.998713	-0.381009	-0.384518
O6	O	1.157293	-0.344644	-0.438791
O7	O	1.039872	-0.425964	-0.218798
O8	O	0.962413	-0.222464	-0.344576
O9	O	1.153553	-0.430790	-0.343759
O10	O	1.048547	-0.226120	-0.439256
O11	O	0.957477	-0.336161	-0.219151
O12	O	0.843852	-0.331257	-0.334311
O13	O	0.953835	-0.422171	-0.546173
O14	O	0.840154	-0.417345	-0.421213
O15	O	1.043667	-0.339740	-0.553951
O16	O	1.034992	-0.539584	-0.333493
O17	O	0.948900	-0.535869	-0.420748
C18	C	0.816565	-0.373213	-0.376666
C19	C	0.738641	-0.369894	-0.373323
C20	C	0.990866	-0.563166	-0.375937
C21	C	0.987574	-0.641096	-0.372293
C22	C	0.700122	-0.413225	-0.416920
C23	C	0.626905	-0.410097	-0.413784
C24	C	0.592207	-0.363643	-0.367045
C25	C	0.630731	-0.320308	-0.323446
C26	C	0.703947	-0.323432	-0.326587
C27	C	0.371236	-0.351961	-0.355304
C28	C	0.298014	-0.348842	-0.352165
C29	C	0.294193	-0.438630	-0.442504
C30	C	0.367411	-0.441753	-0.445638
C31	C	0.405929	-0.398416	-0.402041
C32	C	0.517366	-0.360447	-0.363836
C33	C	0.480768	-0.401609	-0.405255
C34	C	1.030839	-0.679550	-0.419913
C35	C	1.027742	-0.752773	-0.416491
C36	C	0.981383	-0.787542	-0.365444
C37	C	0.938114	-0.749083	-0.317822
C38	C	0.941207	-0.675860	-0.321248
C39	C	0.969798	-1.008533	-0.352633
C40	C	0.966709	-1.081761	-0.349209
C41	C	1.056337	-1.085447	-0.447879
C42	C	1.059429	-1.012223	-0.451298
C43	C	1.016157	-0.973770	-0.403679
C44	C	0.978219	-0.862388	-0.361943
C45	C	1.019319	-0.898925	-0.407184
C46	C	1.181572	-0.388836	-0.392402
C47	C	1.259495	-0.392172	-0.395762
C48	C	0.998757	-0.380947	-0.577685
C49	C	0.998776	-0.380920	-0.660001
C50	C	1.006609	-0.198142	-0.393151
C51	C	1.009974	-0.120215	-0.396829
C52	C	0.998816	-0.380878	-0.959096
C53	C	1.055506	-0.329213	-0.932663
C54	C	1.055345	-0.329005	-0.847047
C55	C	0.998797	-0.380899	-0.810712
C56	C	0.925795	-0.357670	-0.839552
C57	C	0.926138	-0.357279	-0.925230
C58	C	1.014471	-0.455884	-0.924834
C59	C	1.016108	-0.455575	-0.839272
C60	C	0.998781	-0.380912	-0.726851
C61	C	0.998826	-0.380863	-1.042957
C62	C	0.998711	-0.381022	-0.192107
C63	C	0.998836	-0.380857	-0.109807
H64	H	0.595546	-0.445382	-0.449285
H65	H	0.882633	-0.393101	-0.942370
O66	O	1.083553	-0.483081	-0.955324
H67	H	1.126206	-0.447130	-0.941706
H68	H	0.928955	-1.110067	-0.307640
O69	O	0.479926	-0.310359	-0.313419
H70	H	0.496334	-0.255941	-0.329401
H71	H	0.882547	-0.394003	-0.815594
O72	O	0.260572	-0.298744	-0.301752
H73	H	0.276976	-0.244326	-0.317742
O74	O	0.907307	-0.285695	-0.813582
H75	H	0.949993	-0.266349	-0.780144
H76	H	0.262824	-0.473912	-0.477998
O77	O	0.928234	-0.899896	-0.306874
H78	H	0.891141	-0.931749	-0.336884
H79	H	1.069814	-0.473034	-0.820588
O80	O	1.041958	-0.255485	-0.822633
H81	H	0.990436	-0.237225	-0.841897
H82	H	0.934565	-0.977231	-0.313858
H83	H	0.977568	-0.496393	-0.814285
H84	H	1.109922	-0.343976	-0.955045
O85	O	1.127181	-0.348740	-0.821548
H86	H	1.162350	-0.358516	-0.870399
O87	O	0.959733	-0.506934	-0.946894
H88	H	0.921559	-0.479066	-0.982086
H89	H	1.045538	-0.274024	-0.956238
H90	H	0.900364	-0.777397	-0.276261
O91	O	1.109453	-0.974723	-0.506333
H92	H	1.139024	-1.013765	-0.538867
H93	H	0.728368	-0.451055	-0.454978
O94	O	0.404836	-0.491851	-0.496055
H95	H	0.365750	-0.521451	-0.525852
H96	H	0.912498	-0.302356	-0.947081
H97	H	0.402588	-0.316678	-0.319799
O98	O	0.593311	-0.270220	-0.273013
H99	H	0.535927	-0.275338	-0.278139
H100	H	1.068592	-0.651246	-0.461478
H101	H	0.905975	-0.644552	-0.282472
O102	O	1.069327	-0.861431	-0.462235
H103	H	1.039343	-0.826725	-0.500093
O104	O	0.745498	-0.276707	-0.279556
H105	H	0.709071	-0.243886	-0.246519
O106	O	0.518193	-0.451699	-0.455676
H107	H	0.550006	-0.488754	-0.422224
O108	O	1.074407	-0.794251	-0.467851
H109	H	1.107169	-0.757773	-0.503916
O110	O	1.102997	-1.126918	-0.499250
H111	H	1.093054	-1.183675	-0.488301
