data_functionalizedCrystal
_audit_creation_method	'MofGen! by Chris Wilmer'
_symmetry_space_group_name_H-M	'P1'
_symmetry_Int_Tables_number	1
_symmetry_cell_setting	triclinic
loop_
_symmetry_equiv_pos_as_xyz
  x,y,z
_cell_length_a	13.339070
_cell_length_b	15.538191
_cell_length_c	12.376457
_cell_angle_alpha	96.760679
_cell_angle_beta	75.589755
_cell_angle_gamma	81.450694
loop_
_atom_site_label
_atom_site_type_symbol
_atom_site_fract_x
_atom_site_fract_y
_atom_site_fract_z
O1	O	1.207811	0.419051	-0.094003
O2	O	0.934051	0.362493	-0.094002
O3	O	1.124222	0.267570	-0.094008
O4	O	1.017640	0.513974	-0.093997
O5	O	1.076708	0.291259	0.094005
O6	O	0.886537	0.386182	0.094011
O7	O	1.160297	0.442740	0.094010
Zn8	Zn	1.015874	0.418223	0.123862
Zn9	Zn	1.078475	0.387011	-0.123854
O10	O	0.970126	0.537663	0.094016
C11	C	0.876113	0.364784	0.000004
C12	C	0.774268	0.336307	0.000004
C13	C	1.111617	0.247233	-0.000005
C14	C	1.144835	0.151340	-0.000017
C15	C	0.328171	0.557731	-0.000004
C16	C	0.423859	0.584490	-0.000007
C17	C	0.511466	0.522446	-0.000004
C18	C	0.503376	0.433640	0.000002
C19	C	0.407681	0.406878	-0.000004
C20	C	0.590975	0.371593	-0.000004
C21	C	0.582885	0.282786	0.000002
C22	C	0.487198	0.256029	-0.000003
C23	C	0.399592	0.318072	-0.000006
C24	C	0.686670	0.398355	0.000002
C25	C	0.766179	0.247501	0.000002
C26	C	0.670491	0.220743	0.000005
C27	C	0.814845	-0.222695	0.000009
C28	C	0.846079	-0.312797	0.000011
C29	C	1.021762	-0.289322	0.000010
C30	C	0.990545	-0.199217	0.000002
C31	C	0.887085	-0.165911	0.000003
C32	C	1.062785	-0.142432	-0.000004
C33	C	1.031568	-0.052334	-0.000006
C34	C	0.928112	-0.019021	-0.000002
C35	C	0.855868	-0.075813	0.000001
C36	C	1.166243	-0.175739	0.000003
C37	C	1.238482	-0.118955	-0.000003
C38	C	1.207268	-0.028856	-0.000013
C39	C	1.103812	0.004457	-0.000009
C40	C	1.279512	0.027936	-0.000015
C41	C	1.248295	0.118034	-0.000017
C42	C	1.072595	0.094555	-0.000011
C43	C	1.218236	0.440449	0.000001
C44	C	1.320083	0.468926	-0.000006
C45	C	0.982732	0.558000	0.000011
C46	C	0.949516	0.653893	0.000015
N47	N	0.973157	0.439525	0.292922
N48	N	1.121201	0.365704	-0.292914
C49	C	1.220367	0.316238	0.647899
C50	C	1.250259	0.301327	0.529558
C51	C	1.180986	0.335875	0.470393
C52	C	1.081816	0.385337	0.529581
C53	C	1.051923	0.400255	0.647933
C54	C	1.012543	0.419892	0.470427
C55	C	0.913372	0.469354	0.529615
C56	C	0.883485	0.484269	0.647955
C57	C	0.952758	0.449721	0.707120
C58	C	1.042435	0.404974	0.352075
C59	C	0.873991	0.488991	0.352109
C60	C	0.844099	0.503902	0.470450
H61	H	0.589378	0.544238	-0.000009
N62	N	1.295077	0.278973	0.711702
H63	H	1.362140	0.303432	0.691092
H64	H	1.261009	0.295935	0.795634
H65	H	0.928419	0.461858	0.803483
N66	N	1.391096	-0.007995	-0.000019
H67	H	1.432124	0.041650	-0.000024
H68	H	1.390257	-0.036077	0.069685
N69	N	1.213227	0.319779	0.342755
H70	H	1.162320	0.287252	0.314269
H71	H	1.212414	0.378128	0.314324
H72	H	0.817584	0.517125	0.303938
H73	H	1.191658	-0.249105	-0.000005
H74	H	1.307120	0.164270	-0.000021
H75	H	1.322719	-0.146085	0.000002
N76	N	0.744277	-0.039863	0.000023
H77	H	0.745018	-0.011780	-0.069667
H78	H	0.703295	-0.089539	0.000073
H79	H	0.902696	0.054344	0.000003
N80	N	0.860660	0.180573	-0.000001
H81	H	0.922506	0.211001	0.000005
H82	H	0.843680	0.151739	0.069695
H83	H	1.123180	0.364702	0.303895
H84	H	1.331003	0.261057	0.481372
H85	H	0.802739	0.524552	0.696146
N86	N	0.737141	0.557247	0.534300
H87	H	0.746027	0.610729	0.583395
H88	H	0.697840	0.576809	0.478801
N89	N	0.695379	0.494135	0.000005
H90	H	0.715690	0.517386	0.069703
H91	H	0.750907	0.499753	-0.069736
N92	N	0.432592	0.680263	-0.000030
H93	H	0.362577	0.715507	-0.000035
H94	H	0.452949	0.703444	0.069665
H95	H	0.321671	0.296290	-0.000003
N96	N	0.233693	0.624641	-0.000021
H97	H	0.171850	0.594209	-0.000028
H98	H	0.215432	0.671041	0.069677
N99	N	0.960996	0.130473	0.000008
H100	H	0.926522	0.176110	0.069711
H101	H	0.961808	0.158505	-0.069728
N102	N	0.478472	0.160245	-0.000011
H103	H	0.548486	0.125000	-0.000006
H104	H	0.422883	0.154641	0.069686
H105	H	0.663892	0.148434	0.000001
N106	N	0.703261	-0.186764	-0.000009
H107	H	0.662230	-0.236408	-0.000012
H108	H	0.668865	-0.141108	0.069688
H109	H	0.787240	-0.359028	0.000032
H110	H	1.105999	-0.316452	0.000014
