data_functionalizedCrystal
_audit_creation_method	'MofGen! by Chris Wilmer'
_symmetry_space_group_name_H-M	'P1'
_symmetry_Int_Tables_number	1
_symmetry_cell_setting	triclinic
loop_
_symmetry_equiv_pos_as_xyz
  x,y,z
_cell_length_a	23.532361
_cell_length_b	14.519709
_cell_length_c	22.610064
_cell_angle_alpha	90.003132
_cell_angle_beta	90.003897
_cell_angle_gamma	96.745093
loop_
_atom_site_label
_atom_site_type_symbol
_atom_site_fract_x
_atom_site_fract_y
_atom_site_fract_z
O1	O	0.755785	-0.111732	0.049127
O2	O	0.589991	-0.127975	0.049141
O3	O	0.677284	0.014438	0.049128
O4	O	0.668492	-0.254145	0.049139
O5	O	0.677268	0.014417	-0.049241
O6	O	0.589976	-0.127996	-0.049228
O7	O	0.755769	-0.111753	-0.049243
Zn8	Zn	0.672870	-0.119878	-0.064854
Zn9	Zn	0.672890	-0.119850	0.064752
O10	O	0.668477	-0.254166	-0.049230
C11	C	0.568765	-0.127579	-0.000042
C12	C	0.505541	-0.126356	-0.000037
C13	C	0.232281	-0.120995	0.053581
C14	C	0.291686	-0.122153	0.053582
O15	O	0.322422	-0.122710	0.099184
N16	N	0.321386	-0.122749	-0.000039
C17	C	0.291679	-0.122178	-0.053665
O18	O	0.322396	-0.122791	-0.099274
C19	C	0.232276	-0.121014	-0.053666
C20	C	0.202578	-0.120427	-0.000041
C21	C	0.202584	-0.120407	0.107201
C22	C	0.143183	-0.119252	0.107199
C23	C	0.113479	-0.118683	0.053577
C24	C	0.143177	-0.119271	-0.000043
C25	C	0.202570	-0.120436	-0.107292
C26	C	0.143162	-0.119271	-0.107288
C27	C	0.113465	-0.118684	-0.053663
C28	C	0.054072	-0.117547	-0.053667
N29	N	0.024373	-0.116951	-0.000046
C30	C	0.054076	-0.117519	0.053576
C31	C	0.416430	-0.124621	-0.053659
C32	C	0.475832	-0.125792	-0.053659
C33	C	0.475835	-0.125765	0.053589
C34	C	0.416432	-0.124601	0.053588
C35	C	0.386730	-0.124025	-0.000038
C36	C	-0.070670	-0.115093	0.053569
C37	C	-0.130077	-0.113940	0.053562
C38	C	-0.130075	-0.113963	-0.053685
C39	C	-0.070674	-0.115120	-0.053679
C40	C	-0.040973	-0.115681	-0.000047
O41	O	0.023299	-0.116985	-0.099245
O42	O	0.023353	-0.116894	0.099178
C43	C	0.676866	0.048782	-0.000057
C44	C	0.675638	0.151149	-0.000057
C45	C	0.776996	-0.112149	-0.000059
C46	C	0.840220	-0.113372	-0.000060
C47	C	0.668894	-0.288510	-0.000044
C48	C	0.670122	-0.390877	-0.000040
N49	N	0.672860	-0.119896	-0.153306
C50	C	0.671118	0.525990	-0.000041
C51	C	0.672374	0.421697	-0.000046
C52	C	0.673378	0.338573	-0.000050
C53	C	0.674634	0.234273	-0.000053
C54	C	0.711545	-0.056799	-0.561953
C55	C	0.711548	-0.056793	-0.623873
O56	O	0.744415	-0.003160	-0.655897
N57	N	0.672890	-0.119831	-0.654843
C58	C	0.634222	-0.182874	-0.623890
O59	O	0.601340	-0.236492	-0.655919
C60	C	0.634217	-0.182876	-0.561972
C61	C	0.672882	-0.119839	-0.531005
C62	C	0.750207	0.006233	-0.530986
C63	C	0.750204	0.006225	-0.469071
C64	C	0.711541	-0.056816	-0.438122
C65	C	0.672880	-0.119848	-0.469089
C66	C	0.595547	-0.245914	-0.531020
C67	C	0.595545	-0.245910	-0.469097
C68	C	0.634210	-0.182873	-0.438130
C69	C	0.634214	-0.182896	-0.376225
N70	N	0.672872	-0.119857	-0.345255
C71	C	0.711536	-0.056817	-0.376203
C72	C	0.634235	-0.182865	-0.753924
C73	C	0.634243	-0.182869	-0.815842
C74	C	0.711568	-0.056786	-0.815820
C75	C	0.711563	-0.056787	-0.753901
C76	C	0.672894	-0.119827	-0.722954
C77	C	0.711528	-0.056839	-0.246176
C78	C	0.711524	-0.056856	-0.184255
C79	C	0.634197	-0.182935	-0.184282
C80	C	0.634203	-0.182923	-0.246197
C81	C	0.672870	-0.119867	-0.277143
O82	O	0.601362	-0.236499	-0.344162
O83	O	0.744407	-0.003200	-0.344167
N84	N	0.672905	-0.119825	0.153204
H85	H	0.118982	-0.118810	-0.150958
H86	H	0.500005	-0.126285	-0.097326
C87	C	0.384147	-0.124147	0.111791
C88	C	0.343719	-0.202840	0.114937
C89	C	0.313975	-0.202458	0.168551
H90	H	0.365216	-0.069968	0.114077
H91	H	0.410327	-0.124705	0.143741
H92	H	0.317542	-0.202274	0.082996
H93	H	0.362634	-0.257032	0.112661
H94	H	0.340156	-0.203015	0.200501
H95	H	0.295049	-0.148275	0.170832
H96	H	0.286545	-0.255853	0.170695
C97	C	0.753494	0.011505	-0.150559
C98	C	0.788421	-0.037231	-0.114970
C99	C	0.827059	0.025738	-0.083910
H100	H	0.732958	0.049673	-0.126386
H101	H	0.776556	0.049102	-0.177808
H102	H	0.765362	-0.074813	-0.087725
H103	H	0.808969	-0.075395	-0.139129
H104	H	0.850121	0.063336	-0.111159
H105	H	0.806518	0.063903	-0.059741
H106	H	0.850765	-0.007320	-0.059764
H107	H	0.226762	-0.120867	0.150869
H108	H	0.743050	-0.005454	-0.841030
C109	C	0.753430	0.011759	-0.720228
C110	C	0.723010	0.067941	-0.684699
C111	C	0.761551	0.131118	-0.653678
H112	H	0.776453	0.049386	-0.747482
H113	H	0.777180	-0.021127	-0.696021
H114	H	0.699270	0.100825	-0.708904
H115	H	0.699989	0.030341	-0.657434
H116	H	0.785301	0.098232	-0.629471
H117	H	0.784573	0.168738	-0.680936
H118	H	0.740917	0.169239	-0.629564
C119	C	-0.038526	-0.115710	-0.111961
C120	C	-0.077256	-0.114945	-0.158921
C121	C	-0.047665	-0.115464	-0.212619
H122	H	-0.019635	-0.169928	-0.114275
H123	H	-0.011077	-0.062349	-0.114222
H124	H	-0.104695	-0.168301	-0.156660
H125	H	-0.096148	-0.060731	-0.156626
H126	H	-0.020216	-0.062103	-0.214880
H127	H	-0.028775	-0.169683	-0.214927
H128	H	-0.073938	-0.114937	-0.244487
C129	C	-0.038537	-0.115758	0.111859
C130	C	-0.077271	-0.115024	0.158810
C131	C	-0.047692	-0.115658	0.212515
H132	H	-0.011070	-0.062441	0.114179
H133	H	-0.019670	-0.170020	0.114123
H134	H	-0.096128	-0.060768	0.156548
H135	H	-0.104739	-0.168337	0.156510
H136	H	-0.028826	-0.169919	0.214779
H137	H	-0.020226	-0.062340	0.214829
H138	H	-0.073969	-0.115168	0.244378
H139	H	-0.154254	-0.113465	0.097232
C140	C	0.592359	-0.251421	-0.849490
C141	C	0.622747	-0.307636	-0.885028
C142	C	0.584179	-0.370802	-0.916024
H143	H	0.568604	-0.218555	-0.873692
H144	H	0.569342	-0.289016	-0.822203
H145	H	0.645754	-0.270045	-0.912311
H146	H	0.646500	-0.340521	-0.860840
H147	H	0.561163	-0.408398	-0.888738
H148	H	0.560426	-0.337929	-0.940223
H149	H	0.604792	-0.408957	-0.940136
C150	C	0.508047	-0.126564	0.111828
C151	C	0.487284	-0.205635	0.144182
C152	C	0.516950	-0.206408	0.197827
H153	H	0.502626	-0.072644	0.133927
H154	H	0.547680	-0.127388	0.104169
H155	H	0.447660	-0.204803	0.151842
H156	H	0.492705	-0.259567	0.122100
H157	H	0.556582	-0.207232	0.190168
H158	H	0.511527	-0.152486	0.219921
H159	H	0.502870	-0.260061	0.219783
C160	C	0.592285	-0.251521	-0.150703
C161	C	0.601612	-0.342073	-0.165751
C162	C	0.563017	-0.405273	-0.134822
H163	H	0.554244	-0.241947	-0.160826
H164	H	0.597827	-0.242550	-0.109387
H165	H	0.596066	-0.351040	-0.207058
H166	H	0.639646	-0.351676	-0.155625
H167	H	0.568558	-0.396302	-0.093506
H168	H	0.524978	-0.395691	-0.144948
H169	H	0.569343	-0.466719	-0.145023
H170	H	-0.154271	-0.113504	-0.097343
C171	C	0.234902	-0.121107	-0.165453
C172	C	0.293284	-0.122264	-0.153990
C173	C	0.323085	-0.122890	-0.207557
H174	H	0.229518	-0.067146	-0.187523
H175	H	0.220904	-0.174724	-0.187494
H176	H	0.307278	-0.068653	-0.131958
H177	H	0.298686	-0.176222	-0.131929
H178	H	0.309087	-0.176506	-0.229598
H179	H	0.317696	-0.068927	-0.229623
H180	H	0.362699	-0.123683	-0.199786
H181	H	0.602748	-0.234207	-0.728729
C182	C	0.753573	0.011662	-0.279661
C183	C	0.787435	0.066839	-0.239278
C184	C	0.826179	0.129941	-0.270103
H185	H	0.733120	0.049975	-0.303816
H186	H	0.777347	-0.021281	-0.303803
H187	H	0.763664	0.099780	-0.215147
H188	H	0.807901	0.028552	-0.215122
H189	H	0.849953	0.096999	-0.294245
H190	H	0.805722	0.168248	-0.294257
H191	H	0.849163	0.167381	-0.242708
H192	H	0.781687	0.057557	-0.443861
C193	C	0.792254	0.074722	-0.564474
C194	C	0.826115	0.129897	-0.524089
C195	C	0.864867	0.192990	-0.554912
H196	H	0.771807	0.113036	-0.588634
H197	H	0.816029	0.041771	-0.588611
H198	H	0.802343	0.162845	-0.499963
H199	H	0.846574	0.091608	-0.499928
H200	H	0.888641	0.160040	-0.579048
H201	H	0.844415	0.231298	-0.579071
H202	H	0.887849	0.230429	-0.527516
C203	C	0.553502	-0.314395	-0.564523
C204	C	0.519634	-0.369574	-0.524155
C205	C	0.480888	-0.432664	-0.554995
H206	H	0.573953	-0.352708	-0.588680
H207	H	0.529731	-0.281443	-0.588665
H208	H	0.543401	-0.402524	-0.500023
H209	H	0.499170	-0.331287	-0.499997
H210	H	0.457117	-0.399712	-0.579137
H211	H	0.501344	-0.470971	-0.579151
H212	H	0.457901	-0.470105	-0.527610
C213	C	0.553652	-0.314403	-0.435422
C214	C	0.584038	-0.370594	-0.399864
C215	C	0.545468	-0.433693	-0.368830
H216	H	0.530612	-0.352030	-0.462668
H217	H	0.529921	-0.281456	-0.411233
H218	H	0.607760	-0.403538	-0.424051
H219	H	0.607076	-0.332992	-0.372607
H220	H	0.521736	-0.400746	-0.344641
H221	H	0.522430	-0.471313	-0.396081
H222	H	0.566079	-0.471820	-0.344697
H223	H	0.392250	-0.124165	-0.097331
C224	C	0.111052	-0.118553	0.165484
C225	C	0.149793	-0.119269	0.212437
C226	C	0.120221	-0.118606	0.266140
H227	H	0.083584	-0.171867	0.167809
H228	H	0.092189	-0.064288	0.167741
H229	H	0.168647	-0.173527	0.210181
H230	H	0.177262	-0.065959	0.210132
H231	H	0.101357	-0.064342	0.268397
H232	H	0.092754	-0.171921	0.268459
H233	H	0.146502	-0.119083	0.298005
H234	H	0.602724	-0.234261	-0.271411
