data_functionalizedCrystal
_audit_creation_method	'MofGen! by Chris Wilmer'
_symmetry_space_group_name_H-M	'P1'
_symmetry_Int_Tables_number	1
_symmetry_cell_setting	triclinic
loop_
_symmetry_equiv_pos_as_xyz
  x,y,z
_cell_length_a	19.288864
_cell_length_b	15.995350
_cell_length_c	18.366186
_cell_angle_alpha	89.995992
_cell_angle_beta	89.977106
_cell_angle_gamma	83.314311
loop_
_atom_site_label
_atom_site_type_symbol
_atom_site_fract_x
_atom_site_fract_y
_atom_site_fract_z
O1	O	0.921624	0.104451	-0.060780
O2	O	1.421624	0.604451	0.439220
O3	O	0.719400	0.118542	-0.060729
O4	O	1.219400	0.618542	0.439271
O5	O	0.826040	-0.010412	-0.060755
O6	O	1.326040	0.489588	0.439245
O7	O	0.814984	0.233405	-0.060754
O8	O	1.314984	0.733405	0.439246
O9	O	0.826022	-0.010418	0.060344
O10	O	1.326022	0.489582	0.560344
O11	O	0.719382	0.118535	0.060370
O12	O	1.219382	0.618535	0.560370
O13	O	0.921606	0.104445	0.060320
O14	O	1.421606	0.604445	0.560320
Zn15	Zn	0.820491	0.111489	0.079572
Zn16	Zn	1.320491	0.611489	0.579572
Zn17	Zn	0.820515	0.111498	-0.079982
Zn18	Zn	1.320515	0.611498	0.420018
O19	O	0.814966	0.233399	0.060346
O20	O	1.314966	0.733399	0.560346
C21	C	0.693513	0.118085	-0.000173
C22	C	1.193513	0.618085	0.499827
C23	C	0.616406	0.116724	-0.000154
C24	C	1.116406	0.616724	0.499846
C25	C	0.825574	-0.041608	-0.000207
C26	C	1.325574	0.458392	0.499793
C27	C	0.824203	-0.134553	-0.000211
C28	C	1.324203	0.365447	0.499789
C29	C	0.571906	0.192388	-0.000165
C30	C	1.071906	0.692388	0.499835
C31	C	0.499456	0.191110	-0.000173
C32	C	0.999456	0.691110	0.499827
C33	C	0.471508	0.114163	-0.000185
C34	C	0.971508	0.614163	0.499815
C35	C	0.516018	0.038489	-0.000170
C36	C	1.016018	0.538489	0.499830
C37	C	0.588467	0.039769	-0.000155
C38	C	1.088467	0.539769	0.499845
C39	C	0.363096	0.053676	-0.042636
C40	C	0.863096	0.553676	0.457364
C41	C	0.290648	0.052398	-0.042656
C42	C	0.790648	0.552398	0.457344
C43	C	0.248053	0.110209	-0.000229
C44	C	0.748053	0.610209	0.499771
C45	C	0.277912	0.169312	0.042208
C46	C	0.777912	0.669312	0.542208
C47	C	0.350361	0.170593	0.042224
C48	C	0.850361	0.670593	0.542224
C49	C	0.392951	0.112765	-0.000201
C50	C	0.892951	0.612765	0.499799
C51	C	0.124993	0.184492	-0.000248
C52	C	0.624993	0.684492	0.499752
C53	C	0.052542	0.183210	-0.000251
C54	C	0.552542	0.683210	0.499749
C55	C	0.069106	0.030587	-0.000255
C56	C	0.569106	0.530587	0.499745
C57	C	0.141556	0.031871	-0.000244
C58	C	0.641556	0.531871	0.499756
C59	C	0.169495	0.108826	-0.000244
C60	C	0.669495	0.608826	0.499756
C61	C	0.819282	-0.472282	-0.000207
C62	C	1.319282	0.027718	0.499793
C63	C	0.743335	-0.424562	-0.000460
C64	C	1.243335	0.075438	0.499540
C65	C	0.744706	-0.327877	-0.000187
C66	C	1.244706	0.172123	0.499813
C67	C	0.821723	-0.304731	-0.000209
C68	C	1.321723	0.195269	0.499791
C69	C	0.859173	-0.345953	0.068934
C70	C	1.359173	0.154047	0.568934
C71	C	0.857265	-0.442582	0.068992
C72	C	1.357265	0.057418	0.568992
C73	C	0.858854	-0.442939	-0.068721
C74	C	1.358854	0.057061	0.431279
C75	C	0.858836	-0.345993	-0.069635
C76	C	1.358836	0.154007	0.430365
C77	C	0.823107	-0.210039	-0.000208
C78	C	1.323107	0.289961	0.499792
C79	C	0.817901	-0.566975	-0.000203
C80	C	1.317901	-0.066975	0.499797
C81	C	0.947492	0.104902	-0.000238
C82	C	1.447492	0.604902	0.499762
C83	C	1.024600	0.106263	-0.000262
C84	C	1.524600	0.606263	0.499738
C85	C	0.815432	0.264595	-0.000204
C86	C	1.315432	0.764595	0.499796
C87	C	0.816802	0.357540	-0.000206
C88	C	1.316802	0.857540	0.499794
N89	N	0.820480	0.111483	0.188463
N90	N	1.320480	0.611483	0.688463
N91	N	0.820531	0.111497	-0.188873
N92	N	1.320531	0.611497	0.311127
C93	C	0.867715	0.054410	0.226552
C94	C	1.367715	0.554410	0.726552
C95	C	0.867720	0.054407	0.302780
C96	C	1.367720	0.554407	0.802780
C97	C	0.820495	0.111490	0.340916
C98	C	1.320495	0.611490	0.840916
C99	C	0.773250	0.168567	0.302818
C100	C	1.273250	0.668567	0.802818
C101	C	0.773243	0.168564	0.226591
C102	C	1.273243	0.668564	0.726591
C103	C	0.811395	0.187781	0.461678
C104	C	1.311395	0.687781	0.961678
C105	C	0.811407	0.187785	0.537903
C106	C	1.311407	0.687785	1.037903
C107	C	0.820515	0.111500	0.576023
C108	C	1.320515	0.611500	1.076023
C109	C	0.829624	0.035208	0.537909
C110	C	1.329624	0.535208	1.037909
C111	C	0.829617	0.035204	0.461683
C112	C	1.329617	0.535204	0.961683
C113	C	0.820498	0.111500	0.423571
C114	C	1.320498	0.611500	0.923571
C115	C	0.867758	0.054419	0.696767
C116	C	1.367758	0.554419	1.196767
C117	C	0.867757	0.054414	0.772996
C118	C	1.367757	0.554414	1.272996
C119	C	0.773292	0.168582	0.773033
C120	C	1.273292	0.668582	1.273033
C121	C	0.773289	0.168579	0.696805
C122	C	1.273289	0.668579	1.196805
C123	C	0.820525	0.111499	0.658677
C124	C	1.320525	0.611499	1.158677
H125	H	0.594649	0.255051	-0.000166
H126	H	1.094649	0.755051	0.499834
H127	H	0.734828	0.215057	0.665791
H128	H	1.234828	0.715057	1.165791
H129	H	0.915755	-0.332041	0.071489
H130	H	1.415755	0.167959	0.571489
H131	H	0.734798	0.215044	0.333872
H132	H	1.234798	0.715044	0.833872
H133	H	0.243232	0.216387	0.076757
H134	H	0.743232	0.716387	0.576757
H135	H	0.147742	0.247153	-0.000237
H136	H	0.647742	0.747153	0.499763
N137	N	0.801579	0.270067	0.579009
N138	N	1.301579	0.770067	1.079009
H139	H	0.795796	0.318392	0.543295
H140	H	1.295796	0.818392	1.043295
H141	H	0.758594	0.271940	0.610656
H142	H	1.258594	0.771940	1.110656
H143	H	0.906186	0.007929	0.333798
H144	H	1.406186	0.507929	0.833798
H145	H	0.712987	-0.442976	-0.050043
H146	H	1.212987	0.057024	0.449957
H147	H	0.837032	-0.026916	0.430654
H148	H	1.337032	0.473084	0.930654
N149	N	0.821065	-0.466690	0.137472
N150	N	1.321065	0.033310	0.637472
H151	H	0.778407	-0.494460	0.124082
H152	H	1.278407	0.005540	0.624082
H153	H	0.854084	-0.507158	0.166850
H154	H	1.354084	-0.007158	0.666850
N155	N	0.801573	0.270065	0.420566
N156	N	1.301573	0.770065	0.920566
H157	H	0.795811	0.318394	0.456275
H158	H	1.295811	0.818394	0.956275
H159	H	0.843766	0.274818	0.388918
H160	H	1.343766	0.774818	0.888918
H161	H	0.906219	0.007938	0.665722
H162	H	1.406219	0.507938	1.165722
N163	N	0.703295	-0.450360	0.064875
N164	N	1.203295	0.049640	0.564875
H165	H	0.688141	-0.399239	0.095758
H166	H	1.188141	0.100761	0.595758
H167	H	0.660811	-0.476319	0.047948
H168	H	1.160811	0.023681	0.547948
N169	N	0.004541	0.264823	-0.000205
N170	N	0.504541	0.764823	0.499795
H171	H	0.033237	0.313764	-0.000187
H172	H	0.533237	0.813764	0.499813
H173	H	-0.025881	0.267656	-0.045085
H174	H	0.474119	0.767656	0.454915
N175	N	0.722291	0.230120	0.185504
N176	N	1.222291	0.730120	0.685504
H177	H	0.692372	0.266281	0.221227
H178	H	1.192372	0.766281	0.721227
H179	H	0.748875	0.267056	0.153860
H180	H	1.248875	0.767056	0.653860
H181	H	0.715055	-0.299903	0.049476
H182	H	1.215055	0.200097	0.549476
H183	H	0.046352	-0.032065	-0.000310
H184	H	0.546352	0.467935	0.499690
H185	H	0.177789	-0.029743	-0.000239
H186	H	0.677789	0.470257	0.499761
H187	H	0.831456	-0.318639	-0.120785
H188	H	1.331456	0.181361	0.379215
H189	H	0.266342	0.004277	-0.077214
H190	H	0.766342	0.504277	0.422786
N191	N	0.839465	-0.047081	0.579008
N192	N	1.339465	0.452919	1.079008
H193	H	0.800866	-0.081886	0.565765
H194	H	1.300866	0.418114	1.065765
H195	H	0.886060	-0.078907	0.565694
H196	H	1.386060	0.421093	1.065694
N197	N	0.931119	-0.485585	0.073132
N198	N	1.431119	0.014415	0.573132
H199	H	0.964769	-0.441745	0.074915
H200	H	1.464769	0.058255	0.574915
H201	H	0.936671	-0.521493	0.118457
H202	H	1.436671	-0.021493	0.618457
H203	H	0.374670	0.218714	0.076780
H204	H	0.874670	0.718714	0.576780
N205	N	0.824713	-0.308228	0.137115
N206	N	1.324713	0.191772	0.637115
H207	H	0.784850	-0.264446	0.123372
H208	H	1.284850	0.235554	0.623372
H209	H	0.806271	-0.354021	0.166763
H210	H	1.306271	0.145979	0.666763
H211	H	0.915001	-0.330843	-0.073826
H212	H	1.415001	0.169157	0.426174
N213	N	0.451447	0.272721	-0.000187
N214	N	0.951447	0.772721	0.499813
H215	H	0.480140	0.321665	-0.000184
H216	H	0.980140	0.821665	0.499816
H217	H	0.421056	0.275506	-0.045088
H218	H	0.921056	0.775506	0.454912
H219	H	0.834031	-0.463382	-0.121128
H220	H	1.334031	0.036618	0.378872
H221	H	0.914850	-0.474911	-0.069202
H222	H	1.414850	0.025089	0.430798
N223	N	0.918718	-0.007132	0.814082
N224	N	1.418718	0.492868	1.314082
H225	H	0.948645	-0.043283	0.778358
H226	H	1.448645	0.456717	1.278358
H227	H	0.949414	0.024855	0.845682
H228	H	1.449414	0.524855	1.345682
H229	H	0.906177	0.007930	0.195510
H230	H	1.406177	0.507930	0.695510
H231	H	0.397772	0.006598	-0.077190
H232	H	0.897772	0.506598	0.422810
N233	N	0.722349	0.230144	0.814155
N234	N	1.222349	0.730144	1.314155
H235	H	0.748886	0.267142	0.845766
H236	H	1.248886	0.767142	1.345766
H237	H	0.692438	0.266243	0.778408
H238	H	1.192438	0.766243	1.278408
N239	N	0.485880	-0.044505	-0.000174
N240	N	0.985880	0.455495	0.499826
H241	H	0.433231	-0.033836	-0.000186
H242	H	0.933231	0.466164	0.499814
H243	H	0.502186	-0.077607	-0.045062
H244	H	1.002186	0.422393	0.454938
H245	H	0.624700	-0.021848	-0.000146
H246	H	1.124700	0.478152	0.499854
H247	H	0.715267	-0.299341	-0.049751
H248	H	1.215267	0.200659	0.450249
