data_functionalizedCrystal
_audit_creation_method	'MofGen! by Chris Wilmer'
_symmetry_space_group_name_H-M	'P1'
_symmetry_Int_Tables_number	1
_symmetry_cell_setting	triclinic
loop_
_symmetry_equiv_pos_as_xyz
  x,y,z
_cell_length_a	6.817900
_cell_length_b	11.102244
_cell_length_c	10.943881
_cell_angle_alpha	91.859180
_cell_angle_beta	108.843448
_cell_angle_gamma	108.604870
loop_
_atom_site_label
_atom_site_type_symbol
_atom_site_fract_x
_atom_site_fract_y
_atom_site_fract_z
V1	V	-4.114330	-0.175802	-0.402549
O2	O	-4.073316	0.008485	-0.394890
O3	O	-4.091081	-0.348622	-0.399793
O4	O	-4.092335	-0.173082	-0.578116
O5	O	-4.072054	-0.168270	-0.215332
V6	V	-4.591277	-0.153761	-0.380157
O7	O	-4.390012	-0.224151	-0.451668
O8	O	-4.765792	-0.105413	-0.331037
O9	O	-4.391319	0.019059	-0.382913
O10	O	-4.749688	-0.338049	-0.387816
O11	O	-4.750950	-0.161293	-0.567374
O12	O	-4.390066	-0.156482	-0.204590
C13	C	-3.941347	-0.390752	-0.393441
C14	C	-4.003801	-0.532035	-0.392358
C15	C	-3.972147	-0.580280	-0.273620
C16	C	-4.030844	-0.713033	-0.272617
C17	C	-4.152842	-0.749284	-0.509100
C18	C	-4.094160	-0.616534	-0.510102
C19	C	-3.901704	-0.559352	-0.137089
C20	C	-3.960401	-0.692104	-0.136086
C21	C	-3.942944	-0.166832	-0.620909
C22	C	-4.006410	-0.165751	-0.764436
C23	C	-4.235812	-0.171736	-0.855319
C24	C	-4.123114	-0.062491	-0.921058
C25	C	-4.232133	-0.272993	-0.954424
C26	C	-3.892831	-0.056434	-0.828270
C27	C	-4.001923	-0.267031	-0.861645
C28	C	-3.889054	-0.157755	-0.927336
C29	C	-4.204396	0.061182	-0.389261
C30	C	-4.121182	0.202463	-0.390353
C31	C	-4.202798	-0.162736	-0.161790
C32	C	-4.118569	-0.163810	-0.018262
H33	H	-3.807979	-0.715128	-0.078456
O34	O	-3.655529	-0.489407	-0.074637
H35	H	-3.621940	-0.418259	0.009865
O36	O	-3.933328	-0.381598	-0.826455
H37	H	-4.073855	-0.471357	-0.877495
H38	H	-4.102542	-0.731909	-0.098506
O39	O	-4.429013	-0.179402	-0.813088
H40	H	-4.380327	-0.181061	-0.706260
O41	O	-3.695430	-0.149861	-0.969220
H42	H	-3.551559	-0.145932	-0.882605
H43	H	-4.376215	-0.364498	-1.009169
H44	H	-4.000034	-0.520261	-0.089879
H45	H	-3.748859	0.035169	-0.773671
O46	O	-4.128308	-0.564491	-0.638167
H47	H	-4.200977	-0.645553	-0.719867
O48	O	-4.191788	0.052059	-0.956249
H49	H	-4.336311	0.046075	-0.927656
H50	H	-4.226417	-0.818098	-0.604962
