data_functionalizedCrystal
_audit_creation_method	'MofGen! by Chris Wilmer'
_symmetry_space_group_name_H-M	'P1'
_symmetry_Int_Tables_number	1
_symmetry_cell_setting	triclinic
loop_
_symmetry_equiv_pos_as_xyz
  x,y,z
_cell_length_a	18.101398
_cell_length_b	18.101397
_cell_length_c	16.120297
_cell_angle_alpha	87.130973
_cell_angle_beta	87.127415
_cell_angle_gamma	90.018196
loop_
_atom_site_label
_atom_site_type_symbol
_atom_site_fract_x
_atom_site_fract_y
_atom_site_fract_z
Zn1	Zn	1.110945	-0.316129	0.471491
Zn2	Zn	1.610945	0.183871	0.971491
Zn3	Zn	1.117142	-0.433693	0.332074
Zn4	Zn	1.617142	0.066307	0.832074
Zn5	Zn	0.993381	-0.309865	0.332082
Zn6	Zn	1.493381	0.190135	0.832082
Zn7	Zn	0.987081	-0.439926	0.471424
Zn8	Zn	1.487081	0.060074	0.971424
O9	O	1.052137	-0.374903	0.401768
O10	O	1.552137	0.125097	0.901768
O11	O	1.215399	-0.331738	0.453022
O12	O	1.715399	0.168262	0.953022
O13	O	1.105955	-0.412037	0.215413
O14	O	1.605955	0.087963	0.715413
O15	O	1.009020	-0.207065	0.350607
O16	O	1.509020	0.292935	0.850607
O17	O	1.219951	-0.418111	0.350593
O18	O	1.719951	0.081889	0.850593
O19	O	1.095393	-0.211667	0.453030
O20	O	1.595393	0.288333	0.953030
O21	O	1.015029	-0.321061	0.215419
O22	O	1.515029	0.178939	0.715419
O23	O	0.888914	-0.327105	0.350542
O24	O	1.388914	0.172895	0.850542
O25	O	0.998281	-0.428734	0.588095
O26	O	1.498281	0.071266	1.088095
O27	O	0.884285	-0.422660	0.452916
O28	O	1.384285	0.077340	0.952916
O29	O	1.089284	-0.337781	0.588144
O30	O	1.589284	0.162219	1.088144
O31	O	1.099845	-0.538151	0.350527
O32	O	1.599845	-0.038151	0.850527
O33	O	1.004290	-0.542730	0.452908
O34	O	1.504290	-0.042730	0.952908
C35	C	0.859729	-0.374880	0.401723
C36	C	1.359729	0.125120	0.901723
C37	C	0.777415	-0.374888	0.401723
C38	C	1.277415	0.125112	0.901723
C39	C	0.626704	-0.374905	0.401761
C40	C	1.126704	0.125095	0.901761
C41	C	0.598234	-0.314707	0.337457
C42	C	1.098234	0.185293	0.837457
C43	C	0.512606	-0.314501	0.337668
C44	C	1.012606	0.185499	0.837668
C45	C	0.478320	-0.374921	0.401796
C46	C	0.978320	0.125079	0.901796
C47	C	0.505496	-0.358053	0.489756
C48	C	1.005496	0.141947	0.989756
C49	C	0.591158	-0.357611	0.489363
C50	C	1.091158	0.142389	0.989363
C51	C	0.596146	-0.452154	0.378880
C52	C	1.096146	0.047846	0.878880
C53	C	0.510580	-0.451655	0.376963
C54	C	1.010580	0.048345	0.876963
C55	C	0.394460	-0.374932	0.401821
C56	C	0.894460	0.125068	0.901821
C57	C	0.710565	-0.374893	0.401741
C58	C	1.210565	0.125107	0.901741
C59	C	1.052076	-0.567312	0.401728
C60	C	1.552076	-0.067312	0.901728
C61	C	1.052116	-0.649627	0.401738
C62	C	1.552116	-0.149627	0.901738
C63	C	1.052207	-0.948721	0.401814
C64	C	1.552207	-0.448721	0.901814
C65	C	1.112176	-0.914476	0.337227
C66	C	1.612176	-0.414476	0.837227
C67	C	1.112366	-0.828865	0.337394
C68	C	1.612366	-0.328865	0.837394
C69	C	1.052162	-0.800337	0.401776
C70	C	1.552162	-0.300337	0.901776
C71	C	1.069361	-0.835305	0.489653
C72	C	1.569361	-0.335305	0.989653
C73	C	1.069818	-0.920934	0.489301
C74	C	1.569818	-0.420934	0.989301
C75	C	0.974853	-0.916212	0.379285
C76	C	1.474853	-0.416212	0.879285
C77	C	0.975328	-0.830474	0.377324
C78	C	1.475328	-0.330474	0.877324
C79	C	1.052135	-0.716477	0.401759
C80	C	1.552135	-0.216477	0.901759
C81	C	1.052235	-1.032581	0.401836
C82	C	1.552235	-0.532581	0.901836
C83	C	1.245297	-0.374928	0.401814
C84	C	1.745297	0.125072	0.901814
C85	C	1.327610	-0.374938	0.401833
C86	C	1.827610	0.125062	0.901833
C87	C	1.042389	-0.384651	0.619215
C88	C	1.542389	0.115349	1.119215
C89	C	1.038234	-0.388805	0.711878
C90	C	1.538234	0.111195	1.211878
C91	C	1.052218	-0.181744	0.401827
C92	C	1.552218	0.318256	0.901827
C93	C	1.052253	-0.099431	0.401852
C94	C	1.552253	0.400569	0.901852
C95	C	1.061890	-0.365140	0.185167
C96	C	1.561890	0.134860	0.685167
C97	C	1.066188	-0.360777	0.092505
C98	C	1.566188	0.139223	0.592505
C99	C	1.030622	-0.396373	0.881534
C100	C	1.530622	0.103627	1.381534
C101	C	1.073798	-0.353212	0.922854
C102	C	1.573798	0.146788	1.422854
C103	C	1.069563	-0.357422	1.017257
C104	C	1.569563	0.142578	1.517257
C105	C	1.034857	-0.392163	0.787123
C106	C	1.534857	0.107837	1.287123
H107	H	0.621723	-0.324608	0.272030
H108	H	1.121723	0.175392	0.772030
H109	H	0.958442	-0.935034	0.316316
H110	H	1.458442	-0.435034	0.816316
H111	H	0.610281	-0.301271	0.508702
H112	H	1.110281	0.198729	1.008702
O113	O	1.126985	-0.300085	0.875805
O114	O	1.626985	0.199915	1.375805
H115	H	1.113583	-0.242685	0.892451
H116	H	1.613583	0.257315	1.392451
H117	H	0.990482	-0.436485	0.917054
H118	H	1.490482	0.063515	1.417054
H119	H	0.619095	-0.257707	0.352453
H120	H	1.119095	0.242293	0.852453
O121	O	0.475942	-0.284282	0.515827
O122	O	0.975942	0.215718	1.015827
H123	H	0.522874	-0.246835	0.525890
H124	H	1.022874	0.253165	1.025890
O125	O	0.488604	-0.327814	0.251288
O126	O	0.988604	0.172186	0.751288
H127	H	0.509800	-0.382177	0.231923
H128	H	1.009800	0.117823	0.731923
O129	O	0.484570	-0.238582	0.357792
O130	O	0.984570	0.261418	0.857792
H131	H	0.532189	-0.201875	0.367420
H132	H	1.032189	0.298125	0.867420
H133	H	0.609680	-0.399782	0.538934
H134	H	1.109680	0.100218	1.038934
O135	O	0.620227	-0.511502	0.440903
O136	O	1.120227	-0.011502	0.940903
H137	H	0.653798	-0.486151	0.487800
H138	H	1.153798	0.013849	0.987800
H139	H	0.482945	-0.400735	0.538994
H140	H	0.982945	0.099265	1.038994
H141	H	1.102064	-0.804967	0.272235
H142	H	1.602064	-0.304967	0.772235
H143	H	0.493142	-0.464452	0.312229
H144	H	0.993142	0.035548	0.812229
O145	O	0.628458	-0.473591	0.295332
O146	O	1.128458	0.026409	0.795332
H147	H	0.666663	-0.429419	0.269182
H148	H	1.166663	0.070581	0.769182
H149	H	0.962288	-0.807300	0.312653
H150	H	1.462288	-0.307300	0.812653
H151	H	0.487247	-0.498566	0.420353
H152	H	0.987247	0.001434	0.920353
H153	H	1.102043	-0.932174	0.271872
H154	H	1.602043	-0.432174	0.771872
H155	H	1.169246	-0.936611	0.351962
H156	H	1.669246	-0.436611	0.851962
H157	H	1.169746	-0.808996	0.352301
H158	H	1.669746	-0.308996	0.852301
O159	O	1.144559	-0.948470	0.514567
O160	O	1.644559	-0.448470	1.014567
H161	H	1.180038	-0.900622	0.526918
H162	H	1.680038	-0.400622	1.026918
H163	H	1.026846	-0.817171	0.539070
H164	H	1.526846	-0.317171	1.039070
O165	O	1.014196	-0.951374	0.555217
O166	O	1.514196	-0.451374	1.055217
H167	H	1.029379	-0.933476	0.616996
H168	H	1.529379	-0.433476	1.116996
O169	O	1.143268	-0.808190	0.515494
O170	O	1.643268	-0.308190	1.015494
H171	H	1.142082	-0.747055	0.518263
H172	H	1.642082	-0.247055	1.018263
O173	O	0.913375	-0.804748	0.435064
O174	O	1.413375	-0.304748	0.935064
H175	H	0.936483	-0.769931	0.482307
H176	H	1.436483	-0.269931	0.982307
O177	O	0.915698	-0.946003	0.441470
O178	O	1.415698	-0.446003	0.941470
H179	H	0.941222	-0.983763	0.488213
H180	H	1.441222	-0.483763	0.988213
