data_functionalizedCrystal
_audit_creation_method	'MofGen! by Chris Wilmer'
_symmetry_space_group_name_H-M	'P1'
_symmetry_Int_Tables_number	1
_symmetry_cell_setting	triclinic
loop_
_symmetry_equiv_pos_as_xyz
  x,y,z
_cell_length_a	8.597340
_cell_length_b	15.995343
_cell_length_c	7.681481
_cell_angle_alpha	84.253283
_cell_angle_beta	103.474906
_cell_angle_gamma	84.417751
loop_
_atom_site_label
_atom_site_type_symbol
_atom_site_fract_x
_atom_site_fract_y
_atom_site_fract_z
O1	O	2.099838	0.115795	0.172134
O2	O	1.635776	0.129136	0.101721
O3	O	1.880502	0.000575	0.138887
O4	O	1.855112	0.244355	0.134969
O5	O	1.910624	-0.015285	0.436319
O6	O	1.665898	0.113276	0.399154
O7	O	2.129960	0.099935	0.469566
Zn8	Zn	1.902711	0.104088	0.481584
Zn9	Zn	1.863025	0.124983	0.089704
O10	O	1.885234	0.228496	0.432401
C11	C	1.591454	0.120657	0.241428
C12	C	1.414509	0.119010	0.214581
C13	C	1.894517	-0.038550	0.287449
C14	C	1.891378	-0.131501	0.286986
C15	C	1.885676	-0.301685	0.286081
C16	C	1.709023	-0.325026	0.259273
C17	C	1.705629	-0.421666	0.258074
C18	C	1.880059	-0.469243	0.285191
C19	C	1.951716	-0.431108	0.129162
C20	C	1.953799	-0.334309	0.129357
C21	C	1.990640	-0.352450	0.467998
C22	C	1.984343	-0.449062	0.469216
C23	C	1.876893	-0.563940	0.284684
C24	C	1.888845	-0.206988	0.286577
C25	C	2.174282	0.108414	0.329856
C26	C	2.351225	0.110062	0.356691
C27	C	1.871219	0.267621	0.283835
C28	C	1.874356	0.360573	0.284286
N29	N	1.929808	0.089826	0.749033
N30	N	1.835941	0.139238	-0.177743
H31	H	1.652859	-0.303501	0.370424
N32	N	2.111950	-0.470670	0.146215
N33	N	2.188650	-0.448363	0.033456
H34	H	2.301816	-0.476304	0.045499
H35	H	2.120830	-0.338521	0.489372
N36	N	1.312643	0.127033	0.036174
N37	N	1.164225	0.125638	0.013871
H38	H	1.092279	0.131303	-0.112127
N39	N	2.050043	0.026556	0.861603
N40	N	2.195298	0.028731	0.863160
H41	H	2.280213	-0.015954	0.942664
N42	N	1.609111	-0.280526	0.094199
N43	N	1.667442	-0.231698	-0.003790
H44	H	1.596883	-0.200266	-0.120374
H45	H	1.432414	0.103654	0.498902
H46	H	1.624052	-0.433579	0.125345
H47	H	1.947922	-0.331037	0.588067
N48	N	1.633861	-0.453652	0.397265
N49	N	1.585931	-0.404589	0.495973
H50	H	1.535244	-0.427174	0.594285
N51	N	1.861378	-0.292197	-0.041783
N52	N	1.795787	-0.334363	-0.160534
H53	H	1.730511	-0.304625	-0.281406
N54	N	2.115388	-0.315538	0.144981
N55	N	2.224426	-0.347638	0.279808
H56	H	2.338545	-0.334382	0.290838
N57	N	1.859199	-0.447839	-0.041303
N58	N	1.846627	-0.522512	-0.071773
H59	H	1.781282	-0.534329	-0.192163
N60	N	1.919127	-0.480727	0.614226
N61	N	1.778106	-0.454529	0.617278
H62	H	1.732042	-0.476897	0.719687
N63	N	2.145320	-0.491119	0.506897
N64	N	2.185992	-0.536851	0.398244
H65	H	2.299687	-0.566554	0.424843
H66	H	1.740121	0.189672	0.732508
