data_functionalizedCrystal
_audit_creation_method	'MofGen! by Chris Wilmer'
_symmetry_space_group_name_H-M	'P1'
_symmetry_Int_Tables_number	1
_symmetry_cell_setting	triclinic
loop_
_symmetry_equiv_pos_as_xyz
  x,y,z
_cell_length_a	17.000383
_cell_length_b	17.038272
_cell_length_c	9.130307
_cell_angle_alpha	89.996293
_cell_angle_beta	89.995337
_cell_angle_gamma	83.355929
loop_
_atom_site_label
_atom_site_type_symbol
_atom_site_fract_x
_atom_site_fract_y
_atom_site_fract_z
O1	O	1.057996	0.028051	-0.121900
O2	O	0.828176	0.056294	-0.121882
O3	O	0.941720	-0.071549	-0.121880
O4	O	0.944452	0.155894	-0.121903
O5	O	0.941716	-0.071550	0.121719
O6	O	0.828172	0.056293	0.121717
O7	O	1.057992	0.028050	0.121699
Cu8	Cu	0.943082	0.042172	0.143950
Cu9	Cu	0.943087	0.042173	-0.144134
O10	O	0.944448	0.155894	0.121696
C11	C	0.798624	0.057810	-0.000080
C12	C	0.710571	0.062321	-0.000073
C13	C	0.939234	-0.100508	-0.000080
C14	C	0.931821	-0.186793	-0.000080
C15	C	0.212326	0.091445	-0.000130
C16	C	0.295061	0.087201	-0.000129
C17	C	0.341068	0.013535	-0.000110
C18	C	0.304335	-0.055892	-0.000108
C19	C	0.221601	-0.051647	-0.000120
C20	C	0.591103	-0.002861	-0.000083
C21	C	0.673843	-0.007101	-0.000066
C22	C	0.664564	0.135993	-0.000090
C23	C	0.581828	0.140231	-0.000093
C24	C	0.545103	0.070804	-0.000098
C25	C	0.425637	0.009195	-0.000104
C26	C	0.460535	0.075145	-0.000115
C27	C	0.999879	-0.241568	-0.000084
C28	C	0.992910	-0.322641	-0.000097
C29	C	0.917881	-0.348938	-0.000096
C30	C	0.849817	-0.294156	-0.000096
C31	C	0.856788	-0.213085	-0.000094
C32	C	0.893255	-0.593009	-0.000114
C33	C	0.886289	-0.674088	-0.000113
C34	C	1.029382	-0.702567	-0.000116
C35	C	1.036346	-0.621493	-0.000104
C36	C	0.968283	-0.566718	-0.000112
C37	C	0.910755	-0.431807	-0.000105
C38	C	0.975410	-0.483850	-0.000114
C39	C	1.087545	0.026534	-0.000107
C40	C	1.175598	0.022024	-0.000124
C41	C	0.946935	0.184852	-0.000107
C42	C	0.954348	0.271137	-0.000117
N43	N	0.943084	0.042170	0.346573
N44	N	0.943090	0.042168	-0.346757
C45	C	1.043673	-0.071008	0.346565
C46	C	1.093973	-0.127595	0.423228
C47	C	1.093981	-0.127596	0.576562
C48	C	1.043682	-0.071005	0.653236
C49	C	0.993382	-0.014418	0.576573
C50	C	0.993381	-0.014422	0.423236
C51	C	0.892790	0.098755	0.576581
C52	C	0.892785	0.098761	0.423247
C53	C	0.842491	0.155345	0.653255
C54	C	0.792194	0.211937	0.576592
C55	C	0.792189	0.211936	0.423249
C56	C	0.842485	0.155348	0.346584
H57	H	0.174872	0.151432	-0.000134
F58	F	1.079736	-0.213589	-0.000071
H59	H	1.097443	-0.600089	-0.000105
F60	F	0.182513	-0.125535	-0.000113
F61	F	0.411570	0.153543	-0.000144
H62	H	0.837832	-0.548421	-0.000120
F63	F	0.552028	-0.076751	-0.000116
H64	H	1.043679	-0.071007	0.221713
H65	H	0.463105	-0.050784	-0.000083
F66	F	0.703656	0.209876	-0.000092
H67	H	1.043685	-0.071016	0.778088
F68	F	1.055258	-0.455861	-0.000123
F69	F	1.065347	-0.380934	-0.000099
H70	H	0.842496	0.155339	0.778107
F71	F	1.101815	-0.760867	-0.000109
H72	H	1.134925	-0.173672	0.360787
F73	F	0.334145	0.161089	-0.000143
F74	F	0.532870	0.218637	-0.000122
H75	H	0.711300	-0.067092	-0.000058
H76	H	0.801367	-0.168486	-0.000091
H77	H	0.341800	-0.115872	-0.000101
F78	F	0.830905	-0.459802	-0.000110
F79	F	0.806430	-0.702071	-0.000104
H80	H	0.751226	0.258014	0.360838
F81	F	0.738664	0.272154	0.658200
H82	H	0.788727	-0.315573	-0.000105
F83	F	0.842488	0.155345	0.183393
F84	F	1.147512	-0.187825	0.658152
