data_functionalizedCrystal
_audit_creation_method	'MofGen! by Chris Wilmer'
_symmetry_space_group_name_H-M	'P1'
_symmetry_Int_Tables_number	1
_symmetry_cell_setting	triclinic
loop_
_symmetry_equiv_pos_as_xyz
  x,y,z
_cell_length_a	12.759399
_cell_length_b	19.805407
_cell_length_c	19.805399
_cell_angle_alpha	89.984884
_cell_angle_beta	89.974940
_cell_angle_gamma	90.012432
loop_
_atom_site_label
_atom_site_type_symbol
_atom_site_fract_x
_atom_site_fract_y
_atom_site_fract_z
Zn1	Zn	-0.418351	1.034771	-0.382706
Zn2	Zn	-0.594049	1.034713	-0.269526
Zn3	Zn	-0.418376	0.921591	-0.269534
Zn4	Zn	-0.593981	0.921571	-0.382676
O5	O	-0.506189	0.978162	-0.326110
O6	O	-0.441676	1.129480	-0.367702
O7	O	-0.570785	1.019691	-0.174810
O8	O	-0.271352	0.936637	-0.284563
O9	O	-0.570760	1.129437	-0.284548
O10	O	-0.271334	1.019789	-0.367710
O11	O	-0.441719	0.936581	-0.174816
O12	O	-0.441653	0.826872	-0.284534
O13	O	-0.570644	0.936603	-0.477397
O14	O	-0.570668	0.826857	-0.367658
O15	O	-0.441610	1.019771	-0.477419
O16	O	-0.741061	1.019673	-0.284519
O17	O	-0.741011	0.936548	-0.367650
C18	C	-0.506156	0.802306	-0.326094
C19	C	-0.506168	0.727074	-0.326103
C20	C	-0.439072	0.691752	-0.369467
C21	C	-0.439078	0.621064	-0.369469
C22	C	-0.506185	0.585698	-0.326111
C23	C	-0.573283	0.621024	-0.282743
C24	C	-0.573271	0.691712	-0.282737
C25	C	-0.573330	0.335951	-0.282763
C26	C	-0.573339	0.265259	-0.282774
C27	C	-0.439137	0.265303	-0.369496
C28	C	-0.439125	0.335990	-0.369490
C29	C	-0.506219	0.371311	-0.326119
C30	C	-0.506211	0.447959	-0.326116
C31	C	-0.506199	0.509051	-0.326117
C32	C	-0.779157	0.978120	-0.326095
C33	C	-0.895933	0.978164	-0.326111
C34	C	-0.950786	1.021497	-0.282874
C35	C	-1.060511	1.021540	-0.282897
C36	C	-1.060518	0.934913	-0.369396
C37	C	-0.950796	0.934873	-0.369376
C38	C	-1.210391	1.101434	-0.258812
C39	C	-1.265248	1.144761	-0.215564
C40	C	-1.229698	1.155181	-0.149523
C41	C	-1.139293	1.122265	-0.126717
C42	C	-1.084442	1.078934	-0.169961
C43	C	-1.119990	1.068526	-0.236011
C44	C	-0.800914	0.854978	-0.393454
C45	C	-0.746060	0.811643	-0.436695
C46	C	-0.781608	0.801216	-0.502737
C47	C	-0.872017	0.834120	-0.525541
C48	C	-0.926870	0.877455	-0.482300
C49	C	-0.891315	0.887884	-0.416259
C50	C	-0.232156	0.978222	-0.326141
C51	C	-0.115379	0.978247	-0.326154
C52	C	-0.506116	0.978191	-0.502653
C53	C	-0.506085	0.978204	-0.577885
C54	C	-0.506223	1.154704	-0.326127
C55	C	-0.506237	1.229936	-0.326135
C56	C	-0.438874	0.934941	-0.613232
C57	C	-0.438854	0.934950	-0.683921
C58	C	-0.506040	0.978226	-0.719261
C59	C	-0.573258	1.021492	-0.683909
C60	C	-0.573283	1.021478	-0.613222
C61	C	-0.573160	1.021545	-0.968983
C62	C	-0.573128	1.021557	-1.039675
C63	C	-0.438731	0.935017	-1.039681
C64	C	-0.438756	0.935003	-0.968994
C65	C	-0.505977	0.978266	-0.933648
C66	C	-0.506000	0.978254	-0.857000
C67	C	-0.506013	0.978242	-0.795908
C68	C	-0.506186	0.978171	-0.150255
C69	C	-0.505921	0.978289	-0.075023
H70	H	-0.627918	0.592224	-0.247436
H71	H	-0.384483	0.364782	-0.404799
H72	H	-0.627988	0.236466	-0.247464
H73	H	-0.628005	1.056713	-0.584443
O74	O	-1.244947	1.091440	-0.322981
C75	C	-1.285416	1.142112	-0.430478
C76	C	-1.246283	1.153528	-0.357820
H77	H	-1.286489	1.192299	-0.458670
H78	H	-1.367957	1.120102	-0.429119
H79	H	-1.230697	1.105467	-0.457449
H80	H	-1.300925	1.190186	-0.330807
H81	H	-1.163723	1.175504	-0.359227
O82	O	-0.373832	0.726177	-0.411493
C83	C	-0.231946	0.805964	-0.420751
C84	C	-0.305785	0.767036	-0.373081
H85	H	-0.176896	0.838997	-0.389713
H86	H	-0.280187	0.839112	-0.456077
H87	H	-0.184040	0.768560	-0.451758
H88	H	-0.353706	0.804391	-0.342030
H89	H	-0.257483	0.733878	-0.337799
O90	O	-0.374015	0.586785	-0.411692
C91	C	-0.323214	0.565238	-0.526885
C92	C	-0.396985	0.604086	-0.479143
H93	H	-0.341744	0.579222	-0.581428
H94	H	-0.334742	0.508633	-0.519502
H95	H	-0.238479	0.579136	-0.515060
H96	H	-0.481748	0.590245	-0.490939
H97	H	-0.385366	0.660682	-0.486535
O98	O	-0.374064	0.231022	-0.411720
C99	C	-0.323266	0.209471	-0.526912
C100	C	-0.397034	0.248322	-0.479171
H101	H	-0.341795	0.223455	-0.581455
H102	H	-0.334798	0.152866	-0.519528
H103	H	-0.238530	0.223366	-0.515087
H104	H	-0.481798	0.234483	-0.490966
H105	H	-0.385411	0.304917	-0.486563
H106	H	-0.384128	0.899718	-0.712697
O107	O	-0.373577	0.892836	-0.579010
C108	C	-0.240231	0.807021	-0.586486
C109	C	-0.314141	0.854663	-0.625323
H110	H	-0.192143	0.776155	-0.623913
H111	H	-0.288423	0.771568	-0.553402
H112	H	-0.185356	0.838110	-0.553383
H113	H	-0.369032	0.823628	-0.658463
H114	H	-0.265884	0.890118	-0.658364
O115	O	-1.014640	0.909398	-0.504571
C116	C	-1.133808	0.927107	-0.597250
C117	C	-1.034388	0.890898	-0.572120
H118	H	-1.149818	0.912153	-0.651861
H119	H	-1.121977	0.984075	-0.594076
H120	H	-1.203280	0.911864	-0.564392
H121	H	-0.964869	0.906086	-0.604957
H122	H	-1.046308	0.833938	-0.575278
H123	H	-1.010835	1.052135	-0.151392
H124	H	-0.627963	0.364700	-0.247449
O125	O	-0.638602	0.725996	-0.240689
C126	C	-0.817241	0.747572	-0.207606
C127	C	-0.743377	0.708716	-0.255281
H128	H	-0.901966	0.733605	-0.219377
H129	H	-0.805795	0.804176	-0.215051
H130	H	-0.798631	0.733665	-0.153054
H131	H	-0.761942	0.722567	-0.309851
H132	H	-0.754837	0.652122	-0.247777
O133	O	-0.897444	1.063455	-0.240781
C134	C	-0.773609	1.072578	-0.149410
C135	C	-0.833969	1.024981	-0.197027
H136	H	-0.722259	1.041491	-0.114033
H137	H	-0.831618	1.103546	-0.118463
H138	H	-0.722209	1.107944	-0.180523
H139	H	-0.885371	0.989574	-0.165967
H140	H	-0.775903	0.994060	-0.227977
O141	O	-1.104885	1.132481	-0.062549
C142	C	-1.133608	1.189234	0.043459
C143	C	-1.172681	1.177736	-0.029199
H144	H	-1.188415	1.225811	0.070449
H145	H	-1.051116	1.211319	0.042103
H146	H	-1.132403	1.139038	0.071632
H147	H	-1.173954	1.227904	-0.057414
H148	H	-1.255151	1.155619	-0.027793
H149	H	-1.274370	1.190460	-0.114311
H150	H	-1.338856	1.171561	-0.234139
O151	O	-0.728176	0.759117	-0.544663
C152	C	-0.580394	0.684555	-0.557956
C153	C	-0.640786	0.732222	-0.510409
H154	H	-0.509739	0.662786	-0.530275
H155	H	-0.552661	0.713864	-0.604182
H156	H	-0.634128	0.641687	-0.574601
H157	H	-0.587115	0.775098	-0.493712
H158	H	-0.668534	0.702865	-0.464218
O159	O	-0.906385	0.823943	-0.589725
C160	C	-0.877736	0.767117	-0.695703
C161	C	-0.838687	0.778598	-0.623036
H162	H	-0.823034	0.730445	-0.722651
H163	H	-0.878872	0.817273	-0.723951
H164	H	-0.960267	0.745098	-0.694284
H165	H	-0.756144	0.800595	-0.624393
H166	H	-0.837628	0.728426	-0.594817
O167	O	-0.766447	0.864995	-0.329265
C168	C	-0.725882	0.814327	-0.221782
C169	C	-0.764950	0.802895	-0.294452
H170	H	-0.724638	0.764126	-0.193619
H171	H	-0.780619	0.850918	-0.194750
H172	H	-0.643386	0.836401	-0.223196
H173	H	-0.847430	0.780798	-0.293099
H174	H	-0.710141	0.766328	-0.321455
O175	O	-0.373538	0.893005	-1.074122
C176	C	-0.313888	0.854691	-1.183021
C177	C	-0.387788	0.902288	-1.144105
H178	H	-0.325368	0.862189	-1.239609
H179	H	-0.332332	0.800092	-1.169162
H180	H	-0.229191	0.866587	-1.169095
H181	H	-0.472510	0.890452	-1.158010
H182	H	-0.369253	0.956872	-1.157967
O183	O	-0.373458	0.892900	-0.934770
C184	C	-0.240109	0.807087	-0.942239
C185	C	-0.314019	0.854726	-0.981080
H186	H	-0.192017	0.776221	-0.979664
H187	H	-0.288302	0.771635	-0.909155
H188	H	-0.185237	0.838178	-0.909135
H189	H	-0.368906	0.823689	-1.014220
H190	H	-0.265761	0.890180	-1.014121
O191	O	-0.638350	1.063690	-1.073929
C192	C	-0.689337	1.178815	-1.095593
C193	C	-0.615431	1.131178	-1.056747
H194	H	-0.670818	1.233389	-1.081726
H195	H	-0.774072	1.166958	-1.081672
H196	H	-0.677785	1.171360	-1.152183
H197	H	-0.626888	1.138606	-1.000148
H198	H	-0.530722	1.143046	-1.070723
H199	H	-1.105201	0.899666	-0.404619
O200	O	-0.638592	1.063544	-0.934731
C201	C	-0.817318	1.096347	-0.913065
C202	C	-0.743335	1.048745	-0.951910
H203	H	-0.902019	1.084389	-0.926929
H204	H	-0.798949	1.150938	-0.926989
H205	H	-0.805753	1.088922	-0.856475
H206	H	-0.754859	1.056110	-1.008509
H207	H	-0.761723	0.994171	-0.937929
H208	H	-0.627968	1.056725	-0.712689
H209	H	-0.672440	0.784855	-0.418124
