data_functionalizedCrystal
_audit_creation_method	'MofGen! by Chris Wilmer'
_symmetry_space_group_name_H-M	'P1'
_symmetry_Int_Tables_number	1
_symmetry_cell_setting	triclinic
loop_
_symmetry_equiv_pos_as_xyz
  x,y,z
_cell_length_a	9.065215
_cell_length_b	10.268362
_cell_length_c	9.065215
_cell_angle_alpha	89.998151
_cell_angle_beta	94.985269
_cell_angle_gamma	90.004031
loop_
_atom_site_label
_atom_site_type_symbol
_atom_site_fract_x
_atom_site_fract_y
_atom_site_fract_z
O1	O	1.960402	0.108274	-0.216338
O2	O	2.460402	0.608274	0.283662
O3	O	1.531116	0.108279	-0.234089
O4	O	2.031116	0.608279	0.265911
O5	O	1.754634	0.108279	-0.010571
O6	O	2.254634	0.608279	0.489429
O7	O	1.736884	0.108274	-0.439856
O8	O	2.236884	0.608274	0.060144
O9	O	1.754615	-0.108322	-0.010561
O10	O	2.254615	0.391678	0.489439
O11	O	1.531097	-0.108322	-0.234079
O12	O	2.031097	0.391678	0.265921
O13	O	1.960382	-0.108327	-0.216328
O14	O	2.460382	0.391673	0.283672
Cu15	Cu	1.745738	-0.128101	-0.225203
Cu16	Cu	2.245738	0.371899	0.274797
Cu17	Cu	1.745761	0.128054	-0.225214
Cu18	Cu	2.245761	0.628054	0.274786
O19	O	1.736864	-0.108327	-0.439847
O20	O	2.236864	0.391673	0.060153
C21	C	1.476120	-0.000021	-0.232379
C22	C	1.976120	0.499979	0.267621
C23	C	1.312277	-0.000018	-0.227281
C24	C	1.812277	0.499982	0.272719
N25	N	1.745732	-0.308267	-0.225194
N26	N	2.245732	0.191733	0.274806
C27	C	1.745753	-0.573938	-0.225211
C28	C	2.245753	-0.073938	0.274789
C29	C	1.745737	-0.426100	-0.225206
C30	C	2.245737	0.073900	0.274794
C31	C	2.015379	-0.000024	-0.218038
C32	C	2.515379	0.499976	0.281962
C33	C	2.179222	-0.000018	-0.223136
C34	C	2.679222	0.499982	0.276864
C35	C	1.752920	-0.000018	0.044421
C36	C	2.252920	0.499982	0.544421
C37	C	1.747821	-0.000008	0.208264
C38	C	2.247821	0.499992	0.708264
N39	N	1.745778	0.308220	-0.225211
N40	N	2.245778	0.808220	0.274789
C41	C	1.738579	-0.000017	0.505162
C42	C	2.238579	0.499983	1.005162
C43	C	1.743676	0.000009	0.341319
C44	C	2.243676	0.500009	0.841319
