data_functionalizedCrystal
_audit_creation_method	'MofGen! by Chris Wilmer'
_symmetry_space_group_name_H-M	'P1'
_symmetry_Int_Tables_number	1
_symmetry_cell_setting	triclinic
loop_
_symmetry_equiv_pos_as_xyz
  x,y,z
_cell_length_a	14.519731
_cell_length_b	14.519709
_cell_length_c	12.996460
_cell_angle_alpha	90.007090
_cell_angle_beta	90.005673
_cell_angle_gamma	83.684499
loop_
_atom_site_label
_atom_site_type_symbol
_atom_site_fract_x
_atom_site_fract_y
_atom_site_fract_z
O1	O	1.223857	0.120986	0.085571
O2	O	1.723857	0.620986	0.585571
O3	O	0.955382	0.135203	0.085573
O4	O	1.455382	0.635203	0.585573
O5	O	1.096738	-0.006143	0.085563
O6	O	1.596738	0.493857	0.585563
O7	O	1.082501	0.262332	0.085582
O8	O	1.582501	0.762332	0.585582
O9	O	1.096723	-0.006151	-0.085571
O10	O	1.596723	0.493849	0.414429
O11	O	0.955368	0.135195	-0.085561
O12	O	1.455368	0.635195	0.414439
O13	O	1.223842	0.120979	-0.085563
O14	O	1.723842	0.620979	0.414437
Cu15	Cu	1.089603	0.128086	-0.101187
Cu16	Cu	1.589603	0.628086	0.398813
Cu17	Cu	1.089621	0.128095	0.101198
Cu18	Cu	1.589621	0.628095	0.601198
O19	O	1.082487	0.262325	-0.085552
O20	O	1.582487	0.762325	0.414448
C21	C	0.921016	0.134532	0.000006
C22	C	1.421016	0.634532	0.500006
C23	C	0.818635	0.132536	0.000007
C24	C	1.318635	0.632536	0.500007
C25	C	0.735491	0.130915	0.000011
C26	C	1.235491	0.630915	0.500011
C27	C	0.631182	0.128888	0.000011
C28	C	1.131182	0.628888	0.500011
C29	C	0.548043	0.127280	0.000011
C30	C	1.048043	0.627280	0.500011
C31	C	0.443728	0.125253	0.000013
C32	C	0.943728	0.625253	0.500013
C33	C	1.096067	-0.040507	-0.000004
C34	C	1.596067	0.459493	0.499996
C35	C	1.094079	-0.142889	-0.000005
C36	C	1.594079	0.357111	0.499995
C37	C	1.086759	-0.517785	0.000022
C38	C	1.586759	-0.017785	0.500022
C39	C	1.088792	-0.413477	0.000014
C40	C	1.588792	0.086523	0.500014
C41	C	1.090419	-0.330340	0.000008
C42	C	1.590419	0.169660	0.500008
C43	C	1.092452	-0.226025	0.000002
C44	C	1.592452	0.273975	0.500002
C45	C	1.258209	0.121649	0.000007
C46	C	1.758209	0.621649	0.500007
C47	C	1.360589	0.123645	0.000013
C48	C	1.860589	0.623645	0.500013
C49	C	1.083157	0.296688	0.000017
C50	C	1.583157	0.796688	0.500017
C51	C	1.085146	0.399070	0.000024
C52	C	1.585146	0.899070	0.500024
N53	N	1.089598	0.128079	-0.243535
N54	N	1.589598	0.628079	0.256465
C55	C	1.089620	0.128096	-0.663349
C56	C	1.589620	0.628096	-0.163349
C57	C	1.089611	0.128094	-0.546544
C58	C	1.589611	0.628094	-0.046544
C59	C	1.089609	0.128088	-0.453445
C60	C	1.589609	0.628088	0.046555
C61	C	1.089600	0.128085	-0.336633
C62	C	1.589600	0.628085	0.163367
N63	N	1.089634	0.128095	0.243545
N64	N	1.589634	0.628095	0.743545
