data_functionalizedCrystal
_audit_creation_method	'MofGen! by Chris Wilmer'
_symmetry_space_group_name_H-M	'P1'
_symmetry_Int_Tables_number	1
_symmetry_cell_setting	triclinic
loop_
_symmetry_equiv_pos_as_xyz
  x,y,z
_cell_length_a	15.995292
_cell_length_b	9.065218
_cell_length_c	8.140239
_cell_angle_alpha	89.997972
_cell_angle_beta	89.996105
_cell_angle_gamma	84.242251
loop_
_atom_site_label
_atom_site_type_symbol
_atom_site_fract_x
_atom_site_fract_y
_atom_site_fract_z
O1	O	1.112453	0.189751	-0.136653
O2	O	0.868850	0.213323	-0.136645
O3	O	0.995687	-0.013226	-0.136644
O4	O	0.985616	0.416300	-0.136654
O5	O	0.995679	-0.013228	0.136583
O6	O	0.868843	0.213320	0.136582
O7	O	1.112446	0.189748	0.136575
Zn8	Zn	0.990643	0.201534	0.179959
Zn9	Zn	0.990652	0.201537	-0.180030
O10	O	0.985609	0.416297	0.136573
C11	C	0.837643	0.212362	-0.000031
C12	C	0.744669	0.209486	-0.000028
C13	C	0.406850	0.198912	-0.000047
C14	C	0.431402	0.362429	-0.000660
C15	C	0.528101	0.365537	-0.000038
C16	C	0.574446	0.204159	-0.000039
C17	C	0.544720	0.122407	0.155984
C18	C	0.447914	0.120438	0.156107
C19	C	0.448042	0.117102	-0.154603
C20	C	0.544580	0.123162	-0.156658
C21	C	0.669164	0.207116	-0.000029
C22	C	0.312132	0.195951	-0.000046
C23	C	0.994715	-0.068191	-0.000033
C24	C	0.991821	-0.231964	-0.000040
C25	C	1.143652	0.190709	-0.000044
C26	C	1.236627	0.193585	-0.000057
C27	C	0.986580	0.471262	-0.000041
C28	C	0.989474	0.635036	-0.000046
N29	N	0.990643	0.201531	0.425641
N30	N	0.990659	0.201529	-0.425712
H31	H	0.420105	0.168213	-0.272859
H32	H	0.421524	0.177055	0.272738
H33	H	0.402856	0.425105	0.110599
H34	H	0.563604	0.182686	-0.272082
H35	H	0.576657	0.005373	-0.166082
H36	H	0.565206	0.179177	0.272096
H37	H	0.432455	0.000547	0.163194
H38	H	0.433136	-0.003257	-0.155658
Cl39	Cl	0.557272	0.464968	0.172939
Cl40	Cl	0.558234	0.464384	-0.172714
H41	H	0.403887	0.425457	-0.112552
Cl42	Cl	0.592521	-0.060945	0.164939
