data_functionalizedCrystal
_audit_creation_method	'MofGen! by Chris Wilmer'
_symmetry_space_group_name_H-M	'P1'
_symmetry_Int_Tables_number	1
_symmetry_cell_setting	triclinic
loop_
_symmetry_equiv_pos_as_xyz
  x,y,z
_cell_length_a	14.853567
_cell_length_b	10.723024
_cell_length_c	13.330367
_cell_angle_alpha	90.001812
_cell_angle_beta	90.003824
_cell_angle_gamma	95.948600
loop_
_atom_site_label
_atom_site_type_symbol
_atom_site_fract_x
_atom_site_fract_y
_atom_site_fract_z
O1	O	0.126452	-1.655898	0.083408
O2	O	0.138555	-1.292623	0.083410
O3	O	0.001325	-1.483964	0.083412
O4	O	0.263682	-1.464557	0.083406
O5	O	0.001311	-1.483971	-0.083435
O6	O	0.138542	-1.292630	-0.083437
O7	O	0.126438	-1.655904	-0.083439
Cu8	Cu	0.132489	-1.474268	-0.098673
Cu9	Cu	0.132505	-1.474260	0.098643
O10	O	0.263668	-1.464563	-0.083441
C11	C	0.137668	-1.246136	-0.000013
C12	C	0.135032	-1.107608	-0.000011
C13	C	-0.032275	-1.483088	-0.000009
C14	C	-0.132373	-1.480453	0.000000
N15	N	0.132477	-1.474282	-0.237454
C16	C	-0.545566	-1.355653	-0.000018
C17	C	-0.565646	-1.582971	-0.000020
C18	C	-0.471599	-1.585448	-0.000014
C19	C	-0.414531	-1.473027	-0.000012
C20	C	-0.451510	-1.358127	-0.000015
C21	C	-0.434614	-1.700345	-0.000020
C22	C	-0.340562	-1.702828	-0.000016
C23	C	-0.283491	-1.590405	-0.000006
C24	C	-0.320475	-1.475501	-0.000009
C25	C	-0.263407	-1.363079	-0.000007
C26	C	-0.300389	-1.248174	-0.000002
C27	C	-0.394440	-1.245704	-0.000006
C28	C	-0.189441	-1.592874	-0.000002
C29	C	-0.169351	-1.365554	-0.000004
C30	C	0.297269	-1.465439	-0.000018
C31	C	0.397366	-1.468075	-0.000020
C32	C	0.127326	-1.702392	-0.000014
C33	C	0.129961	-1.840919	-0.000009
C34	C	0.211819	-1.031849	-0.000013
C35	C	0.209097	-0.888673	-0.000011
N36	N	0.132510	-1.474255	0.237425
C37	C	0.193145	-1.389365	0.289949
C38	C	0.071869	-1.559151	0.289929
C39	C	0.071861	-1.559157	0.394947
C40	C	0.132496	-1.474266	0.447471
C41	C	0.193140	-1.389370	0.394978
C42	C	0.011224	-1.644060	0.447449
C43	C	0.011214	-1.644069	0.552473
C44	C	0.071845	-1.559172	0.605000
C45	C	0.132491	-1.474271	0.552499
C46	C	0.193126	-1.389381	0.605024
C47	C	0.253768	-1.304473	0.552526
C48	C	0.253771	-1.304472	0.447504
C49	C	0.071842	-1.559173	0.710021
C50	C	0.193121	-1.389386	0.710052
H51	H	-0.122892	-1.274005	0.000003
N52	N	0.045279	-1.053130	-0.000001
H53	H	-0.005591	-1.123359	0.000000
H54	H	0.040723	-0.999756	-0.061853
H55	H	0.242494	-1.320253	0.752811
N56	N	0.319172	-1.212900	0.390883
H57	H	0.309976	-1.225784	0.316383
H58	H	0.383258	-1.227243	0.409249
H59	H	-0.310459	-1.796390	-0.000018
N60	N	-0.054200	-1.735636	0.609084
H61	H	-0.094511	-1.688005	0.652650
H62	H	-0.019241	-1.790818	0.652606
H63	H	0.022472	-1.628309	0.752761
N64	N	0.296178	-0.802457	-0.000003
H65	H	0.281890	-0.712398	-0.000001
H66	H	0.332451	-0.818709	-0.061857
N67	N	0.301577	-1.086315	-0.000016
H68	H	0.306207	-1.139679	-0.061866
H69	H	0.306161	-1.139612	0.061875
N70	N	-0.238834	-1.126921	-0.000025
H71	H	-0.173644	-1.145933	-0.000035
H72	H	-0.250869	-1.076838	0.061824
N73	N	0.319170	-1.212921	0.609181
H74	H	0.309964	-1.225818	0.683676
H75	H	0.308043	-1.124430	0.590837
N76	N	-0.434322	-1.121777	-0.000010
H77	H	-0.472899	-1.115681	0.061834
H78	H	-0.472849	-1.115768	-0.061907
H79	H	-0.159334	-1.686428	-0.000012
H80	H	-0.481085	-1.791873	-0.000031
N81	N	0.042879	-0.927132	-0.000019
H82	H	-0.010306	-0.875586	-0.000020
H83	H	0.040383	-0.981775	0.061832
N84	N	0.258544	-1.297782	0.233336
H85	H	0.249348	-1.310651	0.158834
H86	H	0.322630	-1.312124	0.251698
N87	N	0.006482	-1.650708	0.233272
H88	H	-0.033820	-1.603072	0.189693
H89	H	-0.031878	-1.704471	0.282522
N90	N	-0.585445	-1.231724	-0.000008
H91	H	-0.653685	-1.247208	-0.000007
H92	H	-0.564623	-1.182526	-0.061860
N93	N	-0.627201	-1.704212	-0.000034
H94	H	-0.666672	-1.708247	0.061812
H95	H	-0.589444	-1.777310	-0.000070
H96	H	-0.038139	-1.713181	0.404680
