data_functionalizedCrystal
_audit_creation_method	'MofGen! by Chris Wilmer'
_symmetry_space_group_name_H-M	'P1'
_symmetry_Int_Tables_number	1
_symmetry_cell_setting	triclinic
loop_
_symmetry_equiv_pos_as_xyz
  x,y,z
_cell_length_a	13.897449
_cell_length_b	13.897448
_cell_length_c	13.897441
_cell_angle_alpha	89.969401
_cell_angle_beta	90.014047
_cell_angle_gamma	89.977982
loop_
_atom_site_label
_atom_site_type_symbol
_atom_site_fract_x
_atom_site_fract_y
_atom_site_fract_z
Zn1	Zn	1.474703	0.383873	0.545209
Zn2	Zn	1.724703	0.633873	0.795209
Zn3	Zn	1.974703	0.883873	1.045209
Zn4	Zn	2.224703	1.133873	1.295209
Zn5	Zn	1.474597	0.545195	0.383911
Zn6	Zn	1.724597	0.795195	0.633911
Zn7	Zn	1.974597	1.045195	0.883911
Zn8	Zn	2.224597	1.295195	1.133911
Zn9	Zn	1.313392	0.383927	0.383946
Zn10	Zn	1.563392	0.633927	0.633946
Zn11	Zn	1.813392	0.883927	0.883946
Zn12	Zn	2.063392	1.133927	1.133946
Zn13	Zn	1.313373	0.545140	0.545182
Zn14	Zn	1.563373	0.795140	0.795182
Zn15	Zn	1.813373	1.045140	1.045182
Zn16	Zn	2.063373	1.295140	1.295182
O17	O	1.394016	0.464534	0.464562
O18	O	1.644016	0.714534	0.714562
O19	O	1.894016	0.964534	0.964562
O20	O	2.144016	1.214534	1.214562
O21	O	1.609670	0.405273	0.523809
O22	O	1.859670	0.655273	0.773809
O23	O	2.109670	0.905273	1.023809
O24	O	2.359670	1.155273	1.273809
O25	O	1.453176	0.523848	0.248934
O26	O	1.703176	0.773848	0.498934
O27	O	1.953176	1.023848	0.748934
O28	O	2.203176	1.273848	0.998934
O29	O	1.334842	0.248938	0.405365
O30	O	1.584842	0.498938	0.655365
O31	O	1.834842	0.748938	0.905365
O32	O	2.084842	0.998938	1.155365
O33	O	1.609592	0.523795	0.405304
O34	O	1.859592	0.773795	0.655304
O35	O	2.109592	1.023795	0.905304
O36	O	2.359592	1.273795	1.155304
O37	O	1.453356	0.248898	0.523844
O38	O	1.703356	0.498898	0.773844
O39	O	1.953356	0.748898	1.023844
O40	O	2.203356	0.998898	1.273844
O41	O	1.334739	0.405366	0.248960
O42	O	1.584739	0.655366	0.498960
O43	O	1.834739	0.905366	0.748960
O44	O	2.084739	1.155366	0.998960
O45	O	1.178408	0.405312	0.405338
O46	O	1.428408	0.655312	0.655338
O47	O	1.678408	0.905312	0.905338
O48	O	1.928408	1.155312	1.155338
O49	O	1.334811	0.523702	0.680167
O50	O	1.584811	0.773702	0.930167
O51	O	1.834811	1.023702	1.180167
O52	O	2.084811	1.273702	1.430167
O53	O	1.178394	0.523754	0.523797
O54	O	1.428394	0.773754	0.773797
O55	O	1.678394	1.023754	1.023797
O56	O	1.928394	1.273754	1.273797
O57	O	1.453339	0.405220	0.680187
O58	O	1.703339	0.655220	0.930187
O59	O	1.953339	0.905220	1.180187
O60	O	2.203339	1.155220	1.430187
O61	O	1.453158	0.680169	0.405277
O62	O	1.703158	0.930169	0.655277
O63	O	1.953158	1.180169	0.905277
O64	O	2.203158	1.430169	1.155277
O65	O	1.334708	0.680129	0.523763
O66	O	1.584708	0.930129	0.773763
O67	O	1.834708	1.180129	1.023763
O68	O	2.084708	1.430129	1.273763
C69	C	1.143402	0.464534	0.464569
C70	C	1.393402	0.714534	0.714569
C71	C	1.643402	0.964534	0.964569
C72	C	1.893402	1.214534	1.214569
C73	C	1.036188	0.464558	0.464595
C74	C	1.286188	0.714558	0.714595
C75	C	1.536188	0.964558	0.964595
C76	C	1.786188	1.214558	1.214595
C77	C	1.393946	0.715148	0.464534
C78	C	1.643946	0.965148	0.714534
C79	C	1.893946	1.215148	0.964534
C80	C	2.143946	1.465148	1.214534
C81	C	1.394004	0.822362	0.464554
C82	C	1.644004	1.072362	0.714554
C83	C	1.894004	1.322362	0.964554
C84	C	2.144004	1.572362	1.214554
C85	C	1.394085	0.464448	0.716155
C86	C	1.644085	0.714448	0.966155
C87	C	1.894085	0.964448	1.216155
C88	C	2.144085	1.214448	1.466155
C89	C	1.394114	0.464412	0.823369
C90	C	1.644114	0.714412	1.073369
C91	C	1.894114	0.964412	1.323369
C92	C	2.144114	1.214412	1.573369
C93	C	1.645609	0.464534	0.464555
C94	C	1.895609	0.714534	0.714555
C95	C	2.145609	0.964534	0.964555
C96	C	2.395609	1.214534	1.214555
C97	C	1.752823	0.464534	0.464552
C98	C	2.002823	0.714534	0.714552
C99	C	2.252823	0.964534	0.964552
C100	C	2.502823	1.214534	1.214552
C101	C	1.839893	0.464544	0.464559
C102	C	2.089893	0.714544	0.714559
C103	C	2.339893	0.964544	0.964559
C104	C	2.589893	1.214544	1.214559
C105	C	1.949125	0.464554	0.464576
C106	C	2.199125	0.714554	0.714576
C107	C	2.449125	0.964554	0.964576
C108	C	2.699125	1.214554	1.214576
C109	C	1.394113	0.212941	0.464611
C110	C	1.644113	0.462941	0.714611
C111	C	1.894113	0.712941	0.964611
C112	C	2.144113	0.962941	1.214611
C113	C	1.394154	0.105727	0.464632
C114	C	1.644154	0.355727	0.714632
C115	C	1.894154	0.605727	0.964632
C116	C	2.144154	0.855727	1.214632
C117	C	1.394105	1.018657	0.464615
C118	C	1.644105	1.268657	0.714615
C119	C	1.894105	1.518657	0.964615
C120	C	2.144105	1.768657	1.214615
C121	C	1.394046	0.909424	0.464584
C122	C	1.644046	1.159424	0.714584
C123	C	1.894046	1.409424	0.964584
C124	C	2.144046	1.659424	1.214584
C125	C	1.394003	0.464549	0.213948
C126	C	1.644003	0.714549	0.463948
C127	C	1.894003	0.964549	0.713948
C128	C	2.144003	1.214549	0.963948
C129	C	1.394161	0.464314	0.106734
C130	C	1.644161	0.714314	0.356734
C131	C	1.894161	0.964314	0.606734
C132	C	2.144161	1.214314	0.856734
C133	C	1.394140	0.464347	1.019664
C134	C	1.644140	0.714347	1.269664
C135	C	1.894140	0.964347	1.519664
C136	C	2.144140	1.214347	1.769664
C137	C	1.394122	0.464386	0.910432
C138	C	1.644122	0.714386	1.160432
C139	C	1.894122	0.964386	1.410432
C140	C	2.144122	1.214386	1.660432
