data_functionalizedCrystal
_audit_creation_method	'MofGen! by Chris Wilmer'
_symmetry_space_group_name_H-M	'P1'
_symmetry_Int_Tables_number	1
_symmetry_cell_setting	triclinic
loop_
_symmetry_equiv_pos_as_xyz
  x,y,z
_cell_length_a	23.532361
_cell_length_b	16.109301
_cell_length_c	14.586319
_cell_angle_alpha	89.998390
_cell_angle_beta	90.001545
_cell_angle_gamma	96.854425
loop_
_atom_site_label
_atom_site_type_symbol
_atom_site_fract_x
_atom_site_fract_y
_atom_site_fract_z
O1	O	0.755650	-0.100735	0.076151
O2	O	1.005650	0.149265	0.326151
O3	O	1.255650	0.399265	0.576151
O4	O	1.505650	0.649265	0.826151
O5	O	0.589837	-0.115379	0.076174
O6	O	0.839837	0.134621	0.326174
O7	O	1.089837	0.384621	0.576174
O8	O	1.339837	0.634621	0.826174
O9	O	0.677298	0.013011	0.076153
O10	O	0.927298	0.263011	0.326153
O11	O	1.177298	0.513011	0.576153
O12	O	1.427298	0.763011	0.826153
O13	O	0.668188	-0.229125	0.076173
O14	O	0.918188	0.020875	0.326173
O15	O	1.168188	0.270875	0.576173
O16	O	1.418188	0.520875	0.826173
O17	O	0.677288	0.013003	-0.076328
O18	O	0.927288	0.263003	0.173672
O19	O	1.177288	0.513003	0.423672
O20	O	1.427288	0.763003	0.673672
O21	O	0.589826	-0.115387	-0.076307
O22	O	0.839826	0.134613	0.173693
O23	O	1.089826	0.384613	0.423693
O24	O	1.339826	0.634613	0.673693
O25	O	0.755639	-0.100743	-0.076329
O26	O	1.005639	0.149257	0.173671
O27	O	1.255639	0.399257	0.423671
O28	O	1.505639	0.649257	0.673671
Cu29	Cu	0.672732	-0.108066	-0.090241
Cu30	Cu	0.922732	0.141934	0.159759
Cu31	Cu	1.172732	0.391934	0.409759
Cu32	Cu	1.422732	0.641934	0.659759
Cu33	Cu	0.672744	-0.108056	0.090085
Cu34	Cu	0.922744	0.141944	0.340085
Cu35	Cu	1.172744	0.391944	0.590085
Cu36	Cu	1.422744	0.641944	0.840085
O37	O	0.668178	-0.229133	-0.076308
O38	O	0.918178	0.020867	0.173692
O39	O	1.168178	0.270867	0.423692
O40	O	1.418178	0.520867	0.673692
C41	C	0.568614	-0.115016	-0.000064
C42	C	0.818614	0.134984	0.249936
C43	C	1.068614	0.384984	0.499936
C44	C	1.318614	0.634984	0.749936
C45	C	0.505391	-0.113913	-0.000056
C46	C	0.755391	0.136087	0.249944
C47	C	1.005391	0.386087	0.499944
C48	C	1.255391	0.636087	0.749944
N49	N	0.672727	-0.108071	-0.217073
N50	N	0.922727	0.141929	0.032927
N51	N	1.172727	0.391929	0.282927
N52	N	1.422727	0.641929	0.532927
C53	C	0.676924	0.043979	-0.000088
C54	C	0.926924	0.293979	0.249912
C55	C	1.176924	0.543979	0.499912
C56	C	1.426924	0.793979	0.749912
C57	C	0.675818	0.136265	-0.000089
C58	C	0.925818	0.386265	0.249911
C59	C	1.175818	0.636265	0.499911
C60	C	1.425818	0.886265	0.749911
C61	C	0.232135	-0.109087	0.083056
C62	C	0.482135	0.140913	0.333056
C63	C	0.732135	0.390913	0.583056
C64	C	0.982135	0.640913	0.833056
C65	C	0.291539	-0.110131	0.083058
C66	C	0.541539	0.139869	0.333058
C67	C	0.791539	0.389869	0.583058
C68	C	1.041539	0.639869	0.833058
O69	O	0.322272	-0.110638	0.153745
O70	O	0.572272	0.139362	0.403745
O71	O	0.822272	0.389362	0.653745
O72	O	1.072272	0.639362	0.903745
N73	N	0.321241	-0.110662	-0.000060
N74	N	0.571241	0.139338	0.249940
N75	N	0.821241	0.389338	0.499940
N76	N	1.071241	0.639338	0.749940
C77	C	0.291537	-0.110141	-0.083185
C78	C	0.541537	0.139859	0.166815
C79	C	0.791537	0.389859	0.416815
C80	C	1.041537	0.639859	0.666815
O81	O	0.322255	-0.110688	-0.153883
O82	O	0.572255	0.139312	0.096117
O83	O	0.822255	0.389312	0.346117
O84	O	1.072255	0.639312	0.596117
C85	C	0.232135	-0.109091	-0.083186
C86	C	0.482135	0.140909	0.166814
C87	C	0.732135	0.390909	0.416814
C88	C	0.982135	0.640909	0.666814
C89	C	0.202435	-0.108569	-0.000063
C90	C	0.452435	0.141431	0.249937
C91	C	0.702435	0.391431	0.499937
C92	C	0.952435	0.641431	0.749937
C93	C	0.202436	-0.108563	0.166172
C94	C	0.452436	0.141437	0.416172
C95	C	0.702436	0.391437	0.666172
C96	C	0.952436	0.641437	0.916172
C97	C	0.143036	-0.107521	0.166169
C98	C	0.393036	0.142479	0.416169
C99	C	0.643036	0.392479	0.666169
C100	C	0.893036	0.642479	0.916169
C101	C	0.113336	-0.107003	0.083050
C102	C	0.363336	0.142997	0.333050
C103	C	0.613336	0.392997	0.583050
C104	C	0.863336	0.642997	0.833050
C105	C	0.143036	-0.107527	-0.000066
C106	C	0.393036	0.142473	0.249934
C107	C	0.643036	0.392473	0.499934
C108	C	0.893036	0.642473	0.749934
C109	C	0.202432	-0.108565	-0.166311
C110	C	0.452432	0.141435	0.083689
C111	C	0.702432	0.391435	0.333689
C112	C	0.952432	0.641435	0.583689
C113	C	0.143026	-0.107514	-0.166305
C114	C	0.393026	0.142486	0.083695
C115	C	0.643026	0.392486	0.333695
C116	C	0.893026	0.642486	0.583695
C117	C	0.113327	-0.106991	-0.083182
C118	C	0.363327	0.143009	0.166818
C119	C	0.613327	0.393009	0.416818
C120	C	0.863327	0.643009	0.666818
C121	C	0.053936	-0.105966	-0.083188
C122	C	0.303936	0.144034	0.166812
C123	C	0.553936	0.394034	0.416812
C124	C	0.803936	0.644034	0.666812
N125	N	0.024234	-0.105435	-0.000070
N126	N	0.274234	0.144565	0.249930
N127	N	0.524234	0.394565	0.499930
N128	N	0.774234	0.644565	0.749930
C129	C	0.053934	-0.105953	0.083049
C130	C	0.303934	0.144047	0.333049
C131	C	0.553934	0.394047	0.583049
C132	C	0.803934	0.644047	0.833049
C133	C	0.416285	-0.112344	-0.083176
C134	C	0.666285	0.137656	0.166824
C135	C	0.916285	0.387656	0.416824
C136	C	1.166285	0.637656	0.666824
C137	C	0.475685	-0.113400	-0.083175
C138	C	0.725685	0.136600	0.166825
C139	C	0.975685	0.386600	0.416825
C140	C	1.225685	0.636600	0.666825
C141	C	0.475684	-0.113387	0.083068
C142	C	0.725684	0.136613	0.333068
C143	C	0.975684	0.386613	0.583068
C144	C	1.225684	0.636613	0.833068
C145	C	0.416282	-0.112338	0.083067
C146	C	0.666282	0.137662	0.333067
C147	C	0.916282	0.387662	0.583067
C148	C	1.166282	0.637662	0.833067
C149	C	0.386583	-0.111813	-0.000058
C150	C	0.636583	0.138187	0.249942
C151	C	0.886583	0.388187	0.499942
C152	C	1.136583	0.638187	0.749942
C153	C	-0.070810	-0.103765	0.083037
C154	C	0.179190	0.146235	0.333037
C155	C	0.429190	0.396235	0.583037
C156	C	0.679190	0.646235	0.833037
C157	C	-0.130215	-0.102727	0.083027
C158	C	0.119785	0.147273	0.333027
C159	C	0.369785	0.397273	0.583027
C160	C	0.619785	0.647273	0.833027
C161	C	-0.130208	-0.102735	-0.083216
C162	C	0.119792	0.147265	0.166784
C163	C	0.369792	0.397265	0.416784
C164	C	0.619792	0.647265	0.666784
C165	C	-0.070808	-0.103778	-0.083206
C166	C	0.179192	0.146222	0.166794
C167	C	0.429192	0.396222	0.416794
C168	C	0.679192	0.646222	0.666794
C169	C	-0.041110	-0.104290	-0.000072
C170	C	0.208890	0.145710	0.249928
C171	C	0.458890	0.395710	0.499928
C172	C	0.708890	0.645710	0.749928
O173	O	0.023166	-0.105455	-0.153838
O174	O	0.273166	0.144545	0.096162
O175	O	0.523166	0.394545	0.346162
O176	O	0.773166	0.644545	0.596162
O177	O	0.023209	-0.105395	0.153735
O178	O	0.273209	0.144605	0.403735
O179	O	0.523209	0.394605	0.653735
O180	O	0.773209	0.644605	0.903735
C181	C	0.776863	-0.101106	-0.000090
C182	C	1.026863	0.148894	0.249910
C183	C	1.276863	0.398894	0.499910
C184	C	1.526863	0.648894	0.749910
C185	C	0.840085	-0.102208	-0.000092
C186	C	1.090085	0.147792	0.249908
C187	C	1.340085	0.397792	0.499908
C188	C	1.590085	0.647792	0.749908
C189	C	0.668552	-0.260101	-0.000065
C190	C	0.918552	-0.010101	0.249935
C191	C	1.168552	0.239899	0.499935
C192	C	1.418552	0.489899	0.749935
C193	C	0.669658	-0.352387	-0.000058
C194	C	0.919658	-0.102387	0.249942
C195	C	1.169658	0.147613	0.499942
C196	C	1.419658	0.397613	0.749942
C197	C	0.725143	0.358937	-0.000081
C198	C	0.975143	0.608937	0.249919
C199	C	1.225143	0.858937	0.499919
C200	C	1.475143	1.108937	0.749919
C201	C	0.724099	0.445649	-0.000074
C202	C	0.974099	0.695649	0.249926
C203	C	1.224099	0.945649	0.499926
C204	C	1.474099	1.195649	0.749926
C205	C	0.620329	0.424934	-0.000063
C206	C	0.870329	0.674934	0.249937
C207	C	1.120329	0.924934	0.499937
C208	C	1.370329	1.174934	0.749937
C209	C	0.621374	0.338224	-0.000065
C210	C	0.871374	0.588224	0.249935
C211	C	1.121374	0.838224	0.499935
C212	C	1.371374	1.088224	0.749935
C213	C	0.673782	0.305228	-0.000078
C214	C	0.923782	0.555228	0.249922
C215	C	1.173782	0.805228	0.499922
C216	C	1.423782	1.055228	0.749922
C217	C	0.671694	0.478650	-0.000069
C218	C	0.921694	0.728650	0.249931
C219	C	1.171694	0.978650	0.499931
C220	C	1.421694	1.228650	0.749931
C221	C	0.670561	0.572667	-0.000061
C222	C	0.920561	0.822667	0.249939
C223	C	1.170561	1.072667	0.499939
C224	C	1.420561	1.322667	0.749939
C225	C	0.674915	0.211205	-0.000085
C226	C	0.924915	0.461205	0.249915
C227	C	1.174915	0.711205	0.499915
C228	C	1.424915	0.961205	0.749915
C229	C	0.707267	-0.158220	-0.452080
C230	C	0.957267	0.091780	-0.202080
C231	C	1.207267	0.341780	0.047920
C232	C	1.457267	0.591780	0.297920
C233	C	0.707273	-0.158214	-0.548061
C234	C	0.957273	0.091786	-0.298061
C235	C	1.207273	0.341786	-0.048061
C236	C	1.457273	0.591786	0.201939
C237	C	0.638212	-0.057890	-0.548069
C238	C	0.888212	0.192110	-0.298069
C239	C	1.138212	0.442110	-0.048069
C240	C	1.388212	0.692110	0.201931
C241	C	0.638210	-0.057892	-0.452090
C242	C	0.888210	0.192108	-0.202090
C243	C	1.138210	0.442108	0.047910
C244	C	1.388210	0.692108	0.297910
C245	C	0.672736	-0.108062	-0.404097
C246	C	0.922736	0.141938	-0.154097
C247	C	1.172736	0.391938	0.095903
C248	C	1.422736	0.641938	0.345903
C249	C	0.672745	-0.108054	-0.596058
C250	C	0.922745	0.141946	-0.346058
C251	C	1.172745	0.391946	-0.096058
C252	C	1.422745	0.641946	0.153942
C253	C	0.672751	-0.108047	-0.700125
C254	C	0.922751	0.141953	-0.450125
C255	C	1.172751	0.391953	-0.200125
C256	C	1.422751	0.641953	0.049875
C257	C	0.672731	-0.108067	-0.300024
C258	C	0.922731	0.141933	-0.050024
C259	C	1.172731	0.391933	0.199976
C260	C	1.422731	0.641933	0.449976
N261	N	0.672754	-0.108044	0.216917
N262	N	0.922754	0.141956	0.466917
N263	N	1.172754	0.391956	0.716917
N264	N	1.422754	0.641956	0.966917
H265	H	-0.154394	-0.102303	0.150719
H266	H	0.095606	0.147697	0.400719
H267	H	0.345606	0.397697	0.650719
H268	H	0.595606	0.647697	0.900719
H269	H	0.226603	-0.108988	-0.233998
H270	H	0.476603	0.141012	0.016002
H271	H	0.726603	0.391012	0.266002
H272	H	0.976603	0.641012	0.516002
N273	N	0.565975	0.280286	-0.000055
N274	N	0.815975	0.530286	0.249945
N275	N	1.065975	0.780286	0.499945
N276	N	1.315975	1.030286	0.749945
H277	H	0.532616	0.314344	-0.000052
H278	H	0.782616	0.564344	0.249948
H279	H	1.032616	0.814344	0.499948
H280	H	1.282616	1.064344	0.749948
H281	H	0.564146	0.243857	-0.056580
H282	H	0.814146	0.493857	0.193420
H283	H	1.064146	0.743857	0.443420
H284	H	1.314146	0.993857	0.693420
H285	H	0.392107	-0.111927	-0.150870
H286	H	0.642107	0.138073	0.099130
H287	H	0.892107	0.388073	0.349130
H288	H	1.142107	0.638073	0.599130
H289	H	0.765922	0.489377	-0.000074
H290	H	1.015922	0.739377	0.249926
H291	H	1.265922	0.989377	0.499926
H292	H	1.515922	1.239377	0.749926
H293	H	0.577660	0.451810	-0.000054
H294	H	0.827660	0.701810	0.249946
H295	H	1.077660	0.951810	0.499946
H296	H	1.327660	1.201810	0.749946
N297	N	0.110996	-0.106944	-0.255964
N298	N	0.360996	0.143056	-0.005964
N299	N	0.610996	0.393056	0.244036
N300	N	0.860996	0.643056	0.494036
H301	H	0.138879	-0.106867	-0.308612
H302	H	0.388879	0.143133	-0.058612
H303	H	0.638879	0.393133	0.191388
H304	H	0.888879	0.643133	0.441388
H305	H	0.081985	-0.158344	-0.259860
H306	H	0.331985	0.091656	-0.009860
H307	H	0.581985	0.341656	0.240140
H308	H	0.831985	0.591656	0.490140
N309	N	0.744531	-0.212304	-0.599797
N310	N	0.994531	0.037696	-0.349797
N311	N	1.244531	0.287696	-0.099797
N312	N	1.494531	0.537696	0.150203
H313	H	0.733290	-0.272885	-0.583098
H314	H	0.983290	-0.022885	-0.333098
H315	H	1.233290	0.227115	-0.083098
H316	H	1.483290	0.477115	0.166902
H317	H	0.739291	-0.204624	-0.667869
H318	H	0.989291	0.045376	-0.417869
H319	H	1.239291	0.295376	-0.167869
H320	H	1.489291	0.545376	0.082131
H321	H	0.610090	-0.017042	-0.413022
H322	H	0.860090	0.232958	-0.163022
H323	H	1.110090	0.482958	0.086978
H324	H	1.360090	0.732958	0.336978
H325	H	0.735380	-0.199071	-0.413007
H326	H	0.985380	0.050929	-0.163007
H327	H	1.235380	0.300929	0.086993
H328	H	1.485380	0.550929	0.336993
H329	H	0.767818	0.332076	-0.000091
H330	H	1.017818	0.582076	0.249909
H331	H	1.267818	0.832076	0.499909
H332	H	1.517818	1.082076	0.749909
H333	H	0.610102	-0.017044	-0.587156
H334	H	0.860102	0.232956	-0.337156
H335	H	1.110102	0.482956	-0.087156
H336	H	1.360102	0.732956	0.162844
H337	H	-0.046637	-0.104184	0.150733
H338	H	0.203363	0.145816	0.400733
H339	H	0.453363	0.395816	0.650733
H340	H	0.703363	0.645816	0.900733
H341	H	0.118861	-0.107091	0.233857
H342	H	0.368861	0.142909	0.483857
H343	H	0.618861	0.392909	0.733857
H344	H	0.868861	0.642909	0.983857
N345	N	-0.038775	-0.104351	-0.172860
N346	N	0.211225	0.145649	0.077140
N347	N	0.461225	0.395649	0.327140
N348	N	0.711225	0.645649	0.577140
H349	H	-0.009502	-0.053237	-0.176572
H350	H	0.240498	0.196763	0.073428
H351	H	0.490498	0.446763	0.323428
H352	H	0.740498	0.696763	0.573428
H353	H	-0.018791	-0.156362	-0.176505
H354	H	0.231209	0.093638	0.073495
H355	H	0.481209	0.343638	0.323495
H356	H	0.731209	0.593638	0.573495
H357	H	0.226612	-0.108982	0.233861
H358	H	0.476612	0.141018	0.483861
H359	H	0.726612	0.391018	0.733861
H360	H	0.976612	0.641018	0.983861
H361	H	-0.154400	-0.102316	-0.150889
H362	H	0.095600	0.147684	0.099111
H363	H	0.345600	0.397684	0.349111
H364	H	0.595600	0.647684	0.599111
N365	N	0.507731	-0.113933	0.172715
N366	N	0.757731	0.136067	0.422715
N367	N	1.007731	0.386067	0.672715
N368	N	1.257731	0.636067	0.922715
H369	H	0.502025	-0.062201	0.209045
H370	H	0.752025	0.187799	0.459045
H371	H	1.002025	0.437799	0.709045
H372	H	1.252025	0.687799	0.959045
H373	H	0.492755	-0.165326	0.208997
H374	H	0.742755	0.084674	0.458997
H375	H	0.992755	0.334674	0.708997
H376	H	1.242755	0.584674	0.958997
N377	N	0.384251	-0.111772	0.172719
N378	N	0.634251	0.138228	0.422719
N379	N	0.884251	0.388228	0.672719
N380	N	1.134251	0.638228	0.922719
H381	H	0.412085	-0.112261	0.225370
H382	H	0.662085	0.137739	0.475370
H383	H	0.912085	0.387739	0.725370
H384	H	1.162085	0.637739	0.975370
H385	H	0.364238	-0.059787	0.176339
H386	H	0.614238	0.190213	0.426339
H387	H	0.864238	0.440213	0.676339
H388	H	1.114238	0.690213	0.926339
H389	H	0.499860	-0.113839	-0.150862
H390	H	0.749860	0.136161	0.099138
H391	H	0.999860	0.386161	0.349138
H392	H	1.249860	0.636161	0.599138
