data_functionalizedCrystal
_audit_creation_method	'MofGen! by Chris Wilmer'
_symmetry_space_group_name_H-M	'P1'
_symmetry_Int_Tables_number	1
_symmetry_cell_setting	triclinic
loop_
_symmetry_equiv_pos_as_xyz
  x,y,z
_cell_length_a	18.101398
_cell_length_b	19.120786
_cell_length_c	18.101389
_cell_angle_alpha	87.539356
_cell_angle_beta	89.975673
_cell_angle_gamma	92.460164
loop_
_atom_site_label
_atom_site_type_symbol
_atom_site_fract_x
_atom_site_fract_y
_atom_site_fract_z
Zn1	Zn	1.119565	-0.279790	-0.406239
Zn2	Zn	1.114191	-0.397230	-0.277109
Zn3	Zn	0.995724	-0.279782	-0.282401
Zn4	Zn	0.990406	-0.397200	-0.400899
O5	O	1.054972	-0.338501	-0.341662
O6	O	1.222484	-0.295384	-0.389130
O7	O	1.098453	-0.381660	-0.174178
O8	O	1.016627	-0.181494	-0.303278
O9	O	1.218536	-0.381667	-0.294259
O10	O	1.107612	-0.181499	-0.394261
O11	O	1.011416	-0.295372	-0.178066
O12	O	0.891387	-0.295342	-0.298100
O13	O	1.007563	-0.381616	-0.505241
O14	O	0.887479	-0.381609	-0.385160
O15	O	1.102455	-0.295355	-0.509164
O16	O	1.093295	-0.495516	-0.289081
O17	O	1.002351	-0.495494	-0.380029
C18	C	0.862562	-0.338472	-0.341625
C19	C	0.780248	-0.338477	-0.341626
C20	C	1.046683	-0.520990	-0.333418
C21	C	1.043205	-0.599060	-0.329915
C22	C	0.481155	-0.338521	-0.341686
C23	C	0.514926	-0.283973	-0.287201
C24	C	0.600538	-0.284119	-0.286952
C25	C	0.629539	-0.338498	-0.341656
C26	C	0.595100	-0.412484	-0.317000
C27	C	0.509469	-0.412181	-0.316618
C28	C	0.513613	-0.319726	-0.420932
C29	C	0.599338	-0.318078	-0.420578
C30	C	0.713398	-0.338490	-0.341640
C31	C	0.397295	-0.338534	-0.341700
C32	C	1.088907	-0.635679	-0.375679
C33	C	1.085636	-0.709034	-0.372389
C34	C	1.036666	-0.745768	-0.323332
C35	C	0.990959	-0.709143	-0.277567
C36	C	0.994227	-0.635790	-0.280860
C37	C	1.024428	-0.967251	-0.311018
C38	C	1.021165	-1.040609	-0.307726
C39	C	1.115841	-1.040495	-0.402550
C40	C	1.119108	-0.967141	-0.405836
C41	C	1.073398	-0.930522	-0.360074
C42	C	1.033323	-0.820748	-0.319966
C43	C	1.076738	-0.855543	-0.363443
C44	C	1.248132	-0.338530	-0.341700
C45	C	1.330446	-0.338542	-0.341716
C46	C	1.055015	-0.338483	-0.534825
C47	C	1.055034	-0.338475	-0.617140
C48	C	1.063313	-0.155299	-0.349956
C49	C	1.066867	-0.077229	-0.353490
C50	C	1.055083	-0.338344	-0.916237
C51	C	0.995189	-0.392444	-0.882451
C52	C	0.995333	-0.392695	-0.796821
C53	C	1.055058	-0.338409	-0.767851
C54	C	1.132181	-0.358507	-0.798052
C55	C	1.131845	-0.358862	-0.883681
C56	C	1.038537	-0.264025	-0.888008
C57	C	1.036781	-0.264454	-0.802337
C58	C	1.055049	-0.338445	-0.683990
C59	C	1.055097	-0.338310	-1.000098
C60	C	1.054973	-0.338468	-0.149253
C61	C	1.055107	-0.338277	-0.066948
H62	H	0.624040	-0.229255	-0.302789
O63	O	0.926564	-0.377678	-0.907577
C64	C	0.796488	-0.410298	-0.904913
C65	C	0.874163	-0.427089	-0.876377
H66	H	0.754103	-0.450245	-0.879712
H67	H	0.782491	-0.355507	-0.888482
H68	H	0.795376	-0.412736	-0.967722
H69	H	0.875333	-0.424690	-0.813569
H70	H	0.888128	-0.481870	-0.892865
H71	H	1.153054	-1.070318	-0.439808
H72	H	1.177860	-0.320341	-0.779425
H73	H	0.987211	-0.937442	-0.273755
H74	H	1.122857	-0.738847	-0.409649
H75	H	0.951084	-0.739058	-0.237626
O76	O	1.124404	-0.819942	-0.411058
C77	C	1.251363	-0.797346	-0.448114
C78	C	1.197460	-0.837727	-0.394155
H79	H	1.310441	-0.811699	-0.434457
H80	H	1.237745	-0.811765	-0.507182
H81	H	1.245805	-0.738632	-0.442617
H82	H	1.202988	-0.896450	-0.399585
H83	H	1.211093	-0.823249	-0.335109
O84	O	0.488719	-0.298590	-0.217575
C85	C	0.518459	-0.328715	-0.090744
C86	C	0.548219	-0.312164	-0.169565
H87	H	0.566548	-0.339708	-0.051908
H88	H	0.487899	-0.282021	-0.071057
H89	H	0.478883	-0.376723	-0.090928
H90	H	0.587823	-0.264177	-0.169443
H91	H	0.578734	-0.358896	-0.189219
H92	H	0.983451	-0.245715	-0.910418
H93	H	0.491574	-0.359457	-0.461569
H94	H	0.619090	-0.354914	-0.463618
O95	O	1.136376	-0.599921	-0.423373
C96	C	1.149964	-0.517087	-0.527119
C97	C	1.096126	-0.557524	-0.473139
H98	H	1.117442	-0.482811	-0.567378
H99	H	1.190229	-0.482683	-0.494745
H100	H	1.182081	-0.555876	-0.559229
H101	H	1.063959	-0.518786	-0.441015
H102	H	1.055909	-0.591939	-0.505555
H103	H	0.957011	-0.605975	-0.243596
O104	O	0.985722	-0.856512	-0.272407
C105	C	0.882032	-0.939387	-0.258622
C106	C	0.935901	-0.898938	-0.312561
H107	H	0.841729	-0.973687	-0.291066
H108	H	0.914492	-0.973768	-0.218409
H109	H	0.849962	-0.900605	-0.226454
H110	H	0.967984	-0.937668	-0.344780
H111	H	0.903400	-0.864546	-0.352726
H112	H	1.146915	-0.412258	-0.774189
O113	O	0.490847	-0.256451	-0.446952
C114	C	0.527021	-0.139024	-0.490247
C115	C	0.552905	-0.210655	-0.460814
H116	H	0.577179	-0.101974	-0.501448
H117	H	0.494755	-0.145931	-0.543703
H118	H	0.489952	-0.116124	-0.447323
H119	H	0.590000	-0.233596	-0.503684
H120	H	0.585130	-0.203705	-0.407342
O121	O	0.969145	-0.246246	-0.778871
C122	C	0.899883	-0.163223	-0.713865
C123	C	0.976522	-0.183752	-0.740415
H124	H	0.905823	-0.112704	-0.682754
H125	H	0.862155	-0.154928	-0.763602
H126	H	0.874937	-0.206877	-0.675536
H127	H	1.001533	-0.140124	-0.778730
H128	H	1.014199	-0.192072	-0.690643
O129	O	1.166699	-0.931568	-0.453553
C130	C	1.260302	-0.939199	-0.547215
C131	C	1.206421	-0.979571	-0.493228
H132	H	1.292443	-0.977992	-0.579295
H133	H	1.227850	-0.904880	-0.587496
H134	H	1.300541	-0.904827	-0.514776
H135	H	1.166170	-1.013981	-0.525605
H136	H	1.238920	-1.013846	-0.452947
H137	H	1.177804	-0.321168	-0.906119
H138	H	0.938039	-0.380118	-0.776355
H139	H	1.005728	-0.447195	-0.901511
H140	H	1.005987	-0.447783	-0.773858
H141	H	1.077487	-0.222006	-0.782865
H142	H	0.981285	-1.070516	-0.267777
H143	H	1.146262	-0.413190	-0.901218
H144	H	1.082201	-0.223717	-0.910099
O145	O	0.484694	-0.431310	-0.247431
C146	C	0.410498	-0.513993	-0.171828
C147	C	0.438508	-0.492419	-0.250219
H148	H	0.373138	-0.563394	-0.174058
H149	H	0.459618	-0.524667	-0.134226
H150	H	0.377959	-0.469853	-0.149170
H151	H	0.471034	-0.536532	-0.272944
H152	H	0.389357	-0.481722	-0.287771
O153	O	0.493301	-0.218304	-0.305801
C154	C	0.429599	-0.117796	-0.267535
C155	C	0.454066	-0.192154	-0.246361
H156	H	0.397859	-0.096638	-0.219496
H157	H	0.480375	-0.082038	-0.280535
H158	H	0.392402	-0.119685	-0.318279
H159	H	0.491246	-0.190333	-0.195605
H160	H	0.403257	-0.227882	-0.233408
O161	O	0.624407	-0.298909	-0.217020
C162	C	0.729215	-0.315952	-0.137229
C163	C	0.702286	-0.299175	-0.216460
H164	H	0.792181	-0.316188	-0.136752
H165	H	0.709954	-0.274498	-0.098985
H166	H	0.705434	-0.369647	-0.117298
H167	H	0.726055	-0.245500	-0.236458
H168	H	0.721538	-0.340672	-0.254654
O169	O	0.617037	-0.462279	-0.362736
C170	C	0.579479	-0.550518	-0.447822
C171	C	0.554534	-0.494138	-0.396065
H172	H	0.528959	-0.576302	-0.474771
H173	H	0.617523	-0.525194	-0.492489
H174	H	0.610430	-0.591835	-0.414476
H175	H	0.523554	-0.452804	-0.429348
H176	H	0.516528	-0.519512	-0.351397
O177	O	0.619757	-0.431972	-0.248525
C178	C	0.616286	-0.520491	-0.149587
C179	C	0.588300	-0.498509	-0.227135
H180	H	0.590854	-0.574281	-0.132263
H181	H	0.679098	-0.522866	-0.150707
H182	H	0.599587	-0.480567	-0.108357
H183	H	0.604946	-0.538410	-0.268408
H184	H	0.525492	-0.496112	-0.225954
H185	H	0.486861	-0.454199	-0.354390
O186	O	0.626541	-0.253168	-0.442815
C187	C	0.698420	-0.183999	-0.533602
C188	C	0.667645	-0.257548	-0.508514
H189	H	0.731672	-0.187518	-0.586714
H190	H	0.650676	-0.147878	-0.544021
H191	H	0.735739	-0.162156	-0.488606
H192	H	0.630336	-0.279453	-0.553481
H193	H	0.715424	-0.293621	-0.498071
