data_functionalizedCrystal
_audit_creation_method	'MofGen! by Chris Wilmer'
_symmetry_space_group_name_H-M	'P1'
_symmetry_Int_Tables_number	1
_symmetry_cell_setting	triclinic
loop_
_symmetry_equiv_pos_as_xyz
  x,y,z
_cell_length_a	10.540514
_cell_length_b	10.540539
_cell_length_c	9.482900
_cell_angle_alpha	99.430988
_cell_angle_beta	80.616091
_cell_angle_gamma	84.520326
loop_
_atom_site_label
_atom_site_type_symbol
_atom_site_fract_x
_atom_site_fract_y
_atom_site_fract_z
O1	O	1.705514	0.159047	-0.120907
O2	O	1.336096	0.175936	-0.120905
O3	O	1.529233	-0.017215	-0.120904
O4	O	1.512377	0.352199	-0.120908
O5	O	1.490004	0.022177	0.120888
O6	O	1.296867	0.215329	0.120887
O7	O	1.666285	0.198439	0.120885
Cu8	Cu	1.477994	0.210481	0.142964
Cu9	Cu	1.524387	0.163895	-0.142984
O10	O	1.473148	0.391591	0.120885
C11	C	1.269178	0.194373	-0.000009
C12	C	1.128229	0.190604	-0.000008
C13	C	1.057524	0.328743	-0.000013
C14	C	0.911001	0.324778	-0.000569
C15	C	0.958250	0.093024	-0.137823
C16	C	1.104807	0.097860	-0.137931
C17	C	1.060598	0.140614	0.137042
C18	C	0.913326	0.139575	0.138846
C19	C	1.508355	-0.044823	-0.000011
C20	C	1.504574	-0.185772	-0.000018
C21	C	1.359743	-0.369274	-0.000560
C22	C	1.363489	-0.222567	-0.000016
C23	C	1.550069	-0.224940	0.138056
C24	C	1.545235	-0.371466	0.138173
C25	C	1.592715	-0.416781	-0.136790
C26	C	1.594310	-0.270096	-0.138616
C27	C	1.733203	0.180002	-0.000014
C28	C	1.874154	0.183770	-0.000024
C29	C	1.494027	0.419198	-0.000012
C30	C	1.497809	0.560145	-0.000014
N31	N	1.445373	0.243246	0.344084
N32	N	1.557018	0.131119	-0.344104
C33	C	1.514756	0.173552	0.416283
C34	C	1.487624	0.200824	0.583701
H35	H	0.932345	0.123067	-0.240765
F36	F	1.661136	0.026946	0.574703
F37	F	0.834289	0.416027	0.128507
F38	F	1.457756	-0.386343	0.273077
F39	F	1.163630	0.141038	-0.273084
H40	H	1.365880	0.323099	0.406214
F41	F	1.684404	-0.194643	0.144771
H42	H	1.408127	0.280681	0.645825
H43	H	1.070034	0.400878	0.098789
F44	F	1.122098	0.007727	0.138799
F45	F	1.117953	0.379908	-0.128985
F46	F	0.877520	0.373528	-0.130444
H47	H	1.153767	-0.004571	-0.143813
H48	H	0.936704	-0.011379	-0.142556
F49	F	1.079606	0.222965	0.273605
H50	H	0.855791	0.206095	0.240791
H51	H	0.887725	0.038152	0.147577
F52	F	1.676524	-0.432843	0.146375
H53	H	1.326123	-0.196084	-0.098994
F54	F	1.307891	-0.427731	-0.129983
H55	H	1.288263	-0.383435	0.097901
H56	H	1.486234	-0.165597	0.240808
F57	F	1.730527	-0.240221	-0.149524
F58	F	1.272142	-0.146864	0.129568
F59	F	1.726108	-0.478720	-0.138008
H60	H	1.564032	-0.465379	-0.241442
H61	H	1.561203	-0.245874	-0.240760
H62	H	1.594240	0.093690	0.354156
