data_functionalizedCrystal
_audit_creation_method	'MofGen! by Chris Wilmer'
_symmetry_space_group_name_H-M	'P1'
_symmetry_Int_Tables_number	1
_symmetry_cell_setting	triclinic
loop_
_symmetry_equiv_pos_as_xyz
  x,y,z
_cell_length_a	14.853569
_cell_length_b	13.930277
_cell_length_c	14.853559
_cell_angle_alpha	90.002361
_cell_angle_beta	83.633509
_cell_angle_gamma	90.005244
loop_
_atom_site_label
_atom_site_type_symbol
_atom_site_fract_x
_atom_site_fract_y
_atom_site_fract_z
O1	O	1.196364	0.079782	0.117711
O2	O	0.933904	0.079793	0.131731
O3	O	1.072149	0.079786	-0.006510
O4	O	1.058119	0.079789	0.255951
O5	O	1.072130	-0.079876	-0.006513
O6	O	0.933885	-0.079869	0.131728
O7	O	1.196345	-0.079880	0.117708
Zn8	Zn	1.065112	-0.105224	0.124717
Zn9	Zn	1.065137	0.105137	0.124721
O10	O	1.058100	-0.079873	0.255948
C11	C	0.900306	-0.000036	0.131094
C12	C	0.800222	-0.000032	0.129189
N13	N	1.065101	-0.248790	0.124714
C14	C	0.763848	-0.000029	0.046178
C15	C	0.742554	-0.000039	0.210411
C16	C	0.648520	-0.000040	0.208625
C17	C	0.612146	-0.000037	0.125614
C18	C	0.669806	-0.000033	0.044389
C19	C	0.590853	-0.000053	0.289848
C20	C	0.496812	-0.000055	0.288065
C21	C	0.460437	-0.000046	0.205053
C22	C	0.518103	-0.000041	0.123825
C23	C	0.481729	-0.000039	0.040813
C24	C	0.539394	-0.000027	-0.040416
C25	C	0.633430	-0.000024	-0.038623
C26	C	0.366401	-0.000049	0.203260
C27	C	0.387687	-0.000042	0.039024
C28	C	1.003920	-0.701056	0.185910
C29	C	1.126379	-0.701032	0.063525
C30	C	1.126368	-0.600536	0.063523
C31	C	1.065133	-0.550296	0.124715
C32	C	1.003909	-0.600551	0.185911
C33	C	1.187597	-0.550273	0.002334
C34	C	1.187590	-0.449771	0.002330
C35	C	1.126350	-0.399529	0.063519
C36	C	1.065123	-0.449791	0.124716
C37	C	1.003888	-0.399551	0.185909
C38	C	0.942655	-0.449810	0.247102
C39	C	0.942669	-0.550309	0.247100
C40	C	1.126336	-0.299030	0.063521
C41	C	1.003877	-0.299046	0.185909
C42	C	1.229943	-0.000048	0.118345
C43	C	1.330027	-0.000046	0.120249
C44	C	1.071505	-0.000043	-0.040100
C45	C	1.069604	-0.000037	-0.140184
N46	N	1.065155	0.248703	0.124717
C47	C	1.061551	0.086995	-0.563358
C48	C	1.061530	-0.087075	-0.563355
C49	C	1.063323	-0.087076	-0.469322
C50	C	1.064229	-0.000040	-0.422302
C51	C	1.063342	0.086997	-0.469315
C52	C	1.064202	-0.174111	-0.422301
C53	C	1.065994	-0.174115	-0.328262
C54	C	1.066906	-0.087078	-0.281241
C55	C	1.066020	-0.000038	-0.328260
C56	C	1.066926	0.086997	-0.281240
C57	C	1.066046	0.174039	-0.328258
C58	C	1.064254	0.174033	-0.422294
C59	C	1.068698	-0.087073	-0.187204
C60	C	1.068717	0.086999	-0.187197
C61	C	1.058744	-0.000042	0.289538
C62	C	1.060645	-0.000041	0.389622
H63	H	0.509766	-0.000019	-0.108003
H64	H	1.066777	0.244903	-0.289961
C65	C	1.063274	0.269767	-0.474013
H66	H	1.062066	0.257298	-0.536750
H67	H	1.116101	0.305533	-0.465419
H68	H	1.011032	0.305525	-0.451787
H69	H	0.810803	-0.000016	-0.019956
C70	C	1.060537	-0.182805	-0.615075
H71	H	1.059349	-0.170341	-0.677815
H72	H	1.008299	-0.218571	-0.592854
H73	H	1.113368	-0.218561	-0.606478
C74	C	1.060579	0.182733	-0.615071
H75	H	1.059378	0.170271	-0.677810
H76	H	1.113406	0.218493	-0.606466
H77	H	1.008337	0.218492	-0.592847
H78	H	1.063459	-0.244970	-0.460591
C79	C	1.066974	-0.269854	-0.276551
H80	H	1.066185	-0.321688	-0.318025
H81	H	1.015146	-0.273475	-0.233051
H82	H	1.120215	-0.273469	-0.246687
H83	H	1.069394	-0.157940	-0.148924
H84	H	0.680389	-0.000016	-0.104755
H85	H	1.176194	-0.258113	0.013702
C86	C	0.782559	-0.000039	0.301718
H87	H	0.734749	-0.000046	0.349835
H88	H	0.818806	0.055638	0.305830
H89	H	0.818795	-0.055724	0.305827
C90	C	0.347682	-0.000041	-0.052290
H91	H	0.395495	-0.000040	-0.100405
H92	H	0.311439	0.055632	-0.056397
H93	H	0.311444	-0.055730	-0.056406
C94	C	1.069717	0.182738	-0.135478
H95	H	1.070915	0.170276	-0.072740
H96	H	1.016901	0.218507	-0.144081
H97	H	1.121970	0.218489	-0.157701
C98	C	0.630860	-0.000051	0.381153
H99	H	0.583052	-0.000065	0.429272
H100	H	0.667100	0.055632	0.385265
H101	H	0.667103	-0.055730	0.385260
H102	H	0.449869	-0.000063	0.354207
H103	H	0.319454	-0.000067	0.269396
H104	H	0.892801	-0.408893	0.296930
H105	H	0.954009	-0.258146	0.235737
H106	H	0.892817	-0.591237	0.296922
H107	H	1.176239	-0.741940	0.013708
C108	C	0.936572	-0.756336	0.253220
H109	H	0.945348	-0.823386	0.244462
H110	H	0.876394	-0.739875	0.243321
H111	H	0.946440	-0.739860	0.313411
C112	C	1.254950	-0.605536	-0.064969
H113	H	1.246179	-0.672588	-0.056211
H114	H	1.315126	-0.589058	-0.055066
H115	H	1.245086	-0.589070	-0.125161
H116	H	1.237447	-0.408856	-0.047498
