data_functionalizedCrystal
_audit_creation_method	'MofGen! by Chris Wilmer'
_symmetry_space_group_name_H-M	'P1'
_symmetry_Int_Tables_number	1
_symmetry_cell_setting	triclinic
loop_
_symmetry_equiv_pos_as_xyz
  x,y,z
_cell_length_a	19.805407
_cell_length_b	19.077068
_cell_length_c	19.077299
_cell_angle_alpha	85.330127
_cell_angle_beta	92.302895
_cell_angle_gamma	92.327086
loop_
_atom_site_label
_atom_site_type_symbol
_atom_site_fract_x
_atom_site_fract_y
_atom_site_fract_z
Zn1	Zn	1.038986	-0.296774	0.409873
Zn2	Zn	1.538986	0.203226	0.909873
Zn3	Zn	1.030188	-0.409902	0.296716
Zn4	Zn	1.530188	0.090098	0.796716
Zn5	Zn	0.921463	-0.292032	0.292000
Zn6	Zn	1.421463	0.207968	0.792000
Zn7	Zn	0.921389	-0.414625	0.414560
Zn8	Zn	1.421389	0.085375	0.914560
O9	O	0.978006	-0.353333	0.353287
O10	O	1.478006	0.146667	0.853287
O11	O	1.132536	-0.311789	0.394876
O12	O	1.632536	0.188211	0.894876
O13	O	1.012114	-0.390306	0.197442
O14	O	1.512114	0.109694	0.697442
O15	O	0.940766	-0.194011	0.303701
O16	O	1.440766	0.305989	0.803701
O17	O	1.126071	-0.394904	0.311740
O18	O	1.626071	0.105096	0.811740
O19	O	1.027110	-0.197495	0.390302
O20	O	1.527110	0.302505	0.890302
O21	O	0.932234	-0.303707	0.193977
O22	O	1.432234	0.196293	0.693977
O23	O	0.826736	-0.308286	0.308245
O24	O	1.326736	0.191714	0.808245
O25	O	0.940639	-0.402953	0.512586
O26	O	1.440639	0.097047	1.012586
O27	O	0.826682	-0.398355	0.398289
O28	O	1.326682	0.101645	0.898289
O29	O	1.027038	-0.316368	0.509143
O30	O	1.527038	0.183632	1.009143
O31	O	1.012042	-0.509179	0.316284
O32	O	1.512042	-0.009179	0.816284
O33	O	0.932108	-0.512649	0.402863
O34	O	1.432108	-0.012649	0.902863
C35	C	0.802150	-0.353319	0.353264
C36	C	1.302150	0.146681	0.853264
C37	C	0.726918	-0.353330	0.353271
C38	C	1.226918	0.146670	0.853271
C39	C	0.691558	-0.400294	0.400087
C40	C	1.191558	0.099706	0.900087
C41	C	0.620870	-0.400296	0.400097
C42	C	1.120870	0.099704	0.900097
C43	C	0.585543	-0.353337	0.353287
C44	C	1.085543	0.146663	0.853287
C45	C	0.620908	-0.306368	0.306469
C46	C	1.120908	0.193632	0.806469
C47	C	0.691595	-0.306363	0.306463
C48	C	1.191595	0.193637	0.806463
C49	C	0.335835	-0.306384	0.306493
C50	C	0.835835	0.193616	0.806493
C51	C	0.265142	-0.306394	0.306502
C52	C	0.765142	0.193606	0.806502
C53	C	0.265110	-0.400317	0.400127
C54	C	0.765110	0.099683	0.900127
C55	C	0.335797	-0.400312	0.400121
C56	C	0.835797	0.099688	0.900121
C57	C	0.371156	-0.353341	0.353306
C58	C	0.871156	0.146659	0.853306
C59	C	0.447804	-0.353339	0.353297
C60	C	0.947804	0.146661	0.853297
C61	C	0.508895	-0.353342	0.353293
C62	C	1.008895	0.146658	0.853293
C63	C	0.971131	-0.536493	0.360609
C64	C	1.471131	-0.036493	0.860609
C65	C	0.968253	-0.614851	0.363765
C66	C	1.468253	-0.114851	0.863765
C67	C	1.008553	-0.649835	0.320208
C68	C	1.508553	-0.149835	0.820208
C69	C	1.005849	-0.723461	0.323180
C70	C	1.505849	-0.223461	0.823180
C71	C	0.962842	-0.762100	0.369706
C72	C	1.462842	-0.262100	0.869706
C73	C	0.922541	-0.727111	0.413268
C74	C	1.422541	-0.227111	0.913268
C75	C	0.925248	-0.653487	0.410299
C76	C	1.425248	-0.153487	0.910299
C77	C	0.950282	-0.982489	0.383420
C78	C	1.450282	-0.482489	0.883420
C79	C	0.947577	-1.056118	0.386384
C80	C	1.447577	-0.556118	0.886384
C81	C	1.030887	-1.052462	0.296297
C82	C	1.530887	-0.552462	0.796297
C83	C	1.033587	-0.978837	0.293329
C84	C	1.533587	-0.478837	0.793329
C85	C	0.993288	-0.943854	0.336893
C86	C	1.493288	-0.443854	0.836893
N87	N	0.960076	-0.837358	0.372744
N88	N	1.460076	-0.337358	0.872744
N89	N	0.996058	-0.868599	0.333858
N90	N	1.496058	-0.368599	0.833858
C91	C	1.154549	-0.353348	0.353311
C92	C	1.654549	0.146652	0.853311
C93	C	1.229781	-0.353355	0.353321
C94	C	1.729781	0.146645	0.853321
C95	C	0.984812	-0.360716	0.537158
C96	C	1.484812	0.139284	1.037158
C97	C	0.987712	-0.363862	0.615513
C98	C	1.487712	0.136138	1.115513
C99	C	0.984927	-0.169459	0.345953
C100	C	1.484927	0.330541	0.845953
C101	C	0.987877	-0.091102	0.342827
C102	C	1.487877	0.408898	0.842827
C103	C	1.008538	-0.386447	1.056763
C104	C	1.508538	0.113553	1.556763
C105	C	1.005803	-0.383487	0.983140
C106	C	1.505803	0.116513	1.483140
C107	C	0.962851	-0.336916	0.944532
C108	C	1.462851	0.163084	1.444532
C109	C	0.922626	-0.293308	0.979551
C110	C	1.422626	0.206692	1.479551
C111	C	0.925357	-0.296272	1.053173
C112	C	1.425357	0.203728	1.553173
C113	C	0.950219	-0.323218	0.724154
C114	C	1.450219	0.176782	1.224154
C115	C	0.947491	-0.320256	0.650527
C116	C	1.447491	0.179744	1.150527
C117	C	1.030668	-0.410436	0.654121
C118	C	1.530668	0.089564	1.154121
C119	C	1.033399	-0.413393	0.727744
C120	C	1.533399	0.086607	1.227744
C121	C	0.993171	-0.369788	0.762757
C122	C	1.493171	0.130212	1.262757
N123	N	0.960056	-0.333887	0.869278
N124	N	1.460056	0.166113	1.369278
N125	N	0.995963	-0.372821	0.838010
N126	N	1.495963	0.127179	1.338010
C127	C	0.971220	-0.345993	1.170132
C128	C	1.471220	0.154007	1.670132
C129	C	0.968317	-0.342841	1.091777
C130	C	1.468317	0.157159	1.591777
H131	H	0.720316	-0.438536	0.438203
H132	H	1.220316	0.061464	0.938203
H133	H	1.038665	-0.751941	0.287711
H134	H	1.538665	-0.251941	0.787711
H135	H	0.236312	-0.438560	0.438249
H136	H	0.736312	0.061440	0.938249
F137	F	0.373390	-0.450295	0.449940
F138	F	0.873390	0.049705	0.949940
F139	F	1.048613	-0.429898	0.945879
F140	F	1.548613	0.070102	1.445879
F141	F	0.907391	-0.945267	0.429784
F142	F	1.407391	-0.445267	0.929784
H143	H	1.068607	-0.947378	0.255443
H144	H	1.568607	-0.447378	0.755443
F145	F	0.729227	-0.256377	0.256637
F146	F	1.229227	0.243623	0.756637
H147	H	1.043571	-0.618379	0.282318
H148	H	1.543571	-0.118379	0.782318
F149	F	1.079110	-0.462965	0.768829
F150	F	1.579110	0.037035	1.268829
H151	H	1.063697	-1.080953	0.260830
H152	H	1.563697	-0.580953	0.760830
H153	H	0.592083	-0.438539	0.438219
H154	H	1.092083	0.061461	0.938219
F155	F	0.882552	-0.249857	1.090436
F156	F	1.382552	0.250143	1.590436
F157	F	0.227546	-0.256410	0.256679
F158	F	0.727546	0.243590	0.756679
H159	H	0.912564	-1.087577	0.424284
H160	H	1.412564	-0.587577	0.924284
F161	F	0.876773	-0.768237	0.462789
F162	F	1.376773	-0.268237	0.962789
F163	F	0.882357	-0.616255	0.456660
F164	F	1.382357	-0.116255	0.956660
H165	H	0.887650	-0.255392	0.948110
H166	H	1.387650	0.244608	1.448110
F167	F	0.901774	-0.270686	0.609439
F168	F	1.401774	0.229314	1.109439
H169	H	1.043518	-0.424367	1.088193
H170	H	1.543518	0.075633	1.588193
H171	H	0.917461	-0.287713	0.752652
H172	H	1.417461	0.212287	1.252652
H173	H	0.364615	-0.268143	0.268369
H174	H	0.864615	0.231857	0.768369
F175	F	0.583308	-0.256386	0.256655
F176	F	1.083308	0.243614	0.756655
H177	H	1.063419	-0.445938	0.625606
H178	H	1.563419	0.054062	1.125606
