data_functionalizedCrystal
_audit_creation_method	'MofGen! by Chris Wilmer'
_symmetry_space_group_name_H-M	'P1'
_symmetry_Int_Tables_number	1
_symmetry_cell_setting	triclinic
loop_
_symmetry_equiv_pos_as_xyz
  x,y,z
_cell_length_a	12.759401
_cell_length_b	13.897448
_cell_length_c	12.759393
_cell_angle_alpha	89.967173
_cell_angle_beta	89.979527
_cell_angle_gamma	90.019217
loop_
_atom_site_label
_atom_site_type_symbol
_atom_site_fract_x
_atom_site_fract_y
_atom_site_fract_z
Zn1	Zn	1.606240	-0.383924	-0.594007
Zn2	Zn	2.106240	0.116076	-0.094007
Zn3	Zn	1.606123	-0.545252	-0.418322
Zn4	Zn	2.106123	-0.045252	0.081678
Zn5	Zn	1.430540	-0.383977	-0.418342
Zn6	Zn	1.930540	0.116023	0.081658
Zn7	Zn	1.430521	-0.545183	-0.593959
Zn8	Zn	1.930521	-0.045183	-0.093959
O9	O	1.518356	-0.464584	-0.506158
O10	O	2.018356	0.035416	-0.006158
O11	O	1.753245	-0.405331	-0.570714
O12	O	2.253245	0.094669	-0.070714
O13	O	1.582791	-0.523909	-0.271303
O14	O	2.082791	-0.023909	0.228697
O15	O	1.453903	-0.248988	-0.441673
O16	O	1.953903	0.251012	0.058327
O17	O	1.753160	-0.523858	-0.441638
O18	O	2.253160	-0.023858	0.058362
O19	O	1.582989	-0.248949	-0.570734
O20	O	2.082989	0.251051	-0.070734
O21	O	1.453790	-0.405421	-0.271318
O22	O	1.953790	0.094579	0.228682
O23	O	1.283516	-0.405354	-0.441627
O24	O	1.783516	0.094646	0.058373
O25	O	1.453872	-0.523740	-0.740987
O26	O	1.953872	-0.023740	-0.240987
O27	O	1.283503	-0.523792	-0.570652
O28	O	1.783503	-0.023792	-0.070652
O29	O	1.582971	-0.405264	-0.741022
O30	O	2.082971	0.094736	-0.241022
O31	O	1.582772	-0.680224	-0.441592
O32	O	2.082772	-0.180224	0.058408
O33	O	1.453758	-0.680173	-0.570632
O34	O	1.953758	-0.180173	-0.070632
C35	C	1.245389	-0.464572	-0.506137
C36	C	1.745389	0.035428	-0.006137
C37	C	1.128612	-0.464590	-0.506153
C38	C	1.628612	0.035410	-0.006153
C39	C	1.073770	-0.526354	-0.573230
C40	C	1.573770	-0.026354	-0.073230
C41	C	0.964046	-0.526358	-0.573251
C42	C	1.464046	-0.026358	-0.073251
C43	C	0.964015	-0.402830	-0.439108
C44	C	1.464015	0.097170	0.060892
C45	C	1.073737	-0.402823	-0.439093
C46	C	1.573737	0.097177	0.060907
C47	C	1.518279	-0.715198	-0.506127
C48	C	2.018279	-0.215198	-0.006127
C49	C	1.518343	-0.822412	-0.506149
C50	C	2.018343	-0.322412	-0.006149
C51	C	1.518453	-1.018707	-0.506215
C52	C	2.018453	-0.518707	-0.006215
C53	C	1.518389	-0.909475	-0.506182
C54	C	2.018389	-0.409475	-0.006182
C55	C	1.792389	-0.464596	-0.506179
C56	C	2.292389	0.035404	-0.006179
C57	C	1.909166	-0.464602	-0.506188
C58	C	2.409166	0.035398	-0.006188
C59	C	1.518432	-0.464489	-0.780191
C60	C	2.018432	0.035511	-0.280191
C61	C	1.518465	-0.464448	-0.896968
C62	C	2.018465	0.035552	-0.396968
C63	C	1.518462	-0.212991	-0.506211
C64	C	2.018462	0.287009	-0.006211
C65	C	1.518507	-0.105777	-0.506234
C66	C	2.018507	0.394223	-0.006234
C67	C	1.585714	-0.402711	-1.061581
C68	C	2.085714	0.097289	-0.561581
C69	C	1.585694	-0.402749	-0.951857
C70	C	2.085694	0.097251	-0.451857
C71	C	1.451259	-0.526121	-0.951808
C72	C	1.951259	-0.026121	-0.451808
C73	C	1.451286	-0.526088	-1.061531
C74	C	1.951286	-0.026088	-0.561531
C75	C	1.518340	-0.464609	-0.233190
C76	C	2.018340	0.035391	0.266810
C77	C	1.518511	-0.464377	-0.116414
C78	C	2.018511	0.035623	0.383586
H79	H	0.919399	-0.576651	-0.627874
H80	H	1.419399	-0.076651	-0.127874
H81	H	1.396525	-0.576362	-0.907109
H82	H	1.896525	-0.076362	-0.407109
H83	H	1.396560	-0.576309	-1.106177
H84	H	1.896560	-0.076309	-0.606177
C85	C	0.903650	-0.334903	-0.365337
C86	C	1.403650	0.165097	0.134663
H87	H	0.830448	-0.343760	-0.374943
H88	H	1.330448	0.156240	0.125057
H89	H	0.921653	-0.270107	-0.380829
H90	H	1.421653	0.229893	0.119171
H91	H	0.921597	-0.348952	-0.294715
H92	H	1.421597	0.151048	0.205285
C93	C	1.134067	-0.334880	-0.365303
C94	C	1.634067	0.165120	0.134697
H95	H	1.085673	-0.298105	-0.325356
H96	H	1.585673	0.201895	0.174644
H97	H	1.176902	-0.292895	-0.405569
H98	H	1.676902	0.207105	0.094431
H99	H	1.176836	-0.371733	-0.319447
H100	H	1.676836	0.128267	0.180553
C101	C	1.659669	-0.334843	-1.121950
C102	C	2.159669	0.165157	-0.621950
H103	H	1.699696	-0.298130	-1.073574
H104	H	2.199696	0.201870	-0.573574
H105	H	1.619514	-0.292797	-1.164761
H106	H	2.119514	0.207203	-0.664761
H107	H	1.705443	-0.371740	-1.164745
H108	H	2.205443	0.128260	-0.664745
C109	C	1.659611	-0.334911	-0.891545
C110	C	2.159611	0.165089	-0.391545
H111	H	1.699643	-0.298151	-0.939950
H112	H	2.199643	0.201849	-0.439950
H113	H	1.705366	-0.371820	-0.848738
H114	H	2.205366	0.128180	-0.348738
H115	H	1.619420	-0.292892	-0.848750
H116	H	2.119420	0.207108	-0.348750
H117	H	1.118446	-0.576647	-0.627837
H118	H	1.618446	-0.076647	-0.127837
