data_functionalizedCrystal
_audit_creation_method	'MofGen! by Chris Wilmer'
_symmetry_space_group_name_H-M	'P1'
_symmetry_Int_Tables_number	1
_symmetry_cell_setting	triclinic
loop_
_symmetry_equiv_pos_as_xyz
  x,y,z
_cell_length_a	12.837943
_cell_length_b	13.339070
_cell_length_c	11.295483
_cell_angle_alpha	95.212346
_cell_angle_beta	85.461227
_cell_angle_gamma	105.229117
loop_
_atom_site_label
_atom_site_type_symbol
_atom_site_fract_x
_atom_site_fract_y
_atom_site_fract_z
O1	O	1.458416	0.264173	-0.098995
O2	O	1.152768	0.250811	-0.099002
O3	O	1.270513	0.106847	-0.098996
O4	O	1.340670	0.408137	-0.099001
O5	O	1.260165	0.119470	0.099055
O6	O	1.142420	0.263434	0.099048
O7	O	1.448068	0.276796	0.099056
Cu8	Cu	1.294299	0.271267	0.117135
Cu9	Cu	1.306537	0.256339	-0.117082
O10	O	1.330322	0.420760	0.099049
C11	C	1.107675	0.252608	0.000022
C12	C	0.988726	0.239146	0.000019
C13	C	1.253488	0.074327	0.000027
C14	C	1.218164	-0.041381	0.000022
C15	C	0.794315	0.400986	0.000033
C16	C	0.682553	0.388342	0.000031
C17	C	0.653436	0.201215	0.000022
C18	C	0.765199	0.213859	0.000024
C19	C	0.835635	0.313748	0.000028
C20	C	0.947400	0.326391	0.000021
C21	C	0.918281	0.139265	0.000020
C22	C	0.806518	0.126621	0.000018
C23	C	1.492830	-0.379696	0.000029
C24	C	1.526022	-0.270983	0.000041
C25	C	1.449060	-0.213577	0.000036
C26	C	1.338901	-0.264895	0.000019
C27	C	1.305705	-0.373618	0.000017
C28	C	1.261935	-0.207499	0.000024
C29	C	1.151776	-0.258817	0.000007
C30	C	1.118585	-0.367530	0.000004
C31	C	1.195547	-0.424936	0.000009
C32	C	1.295131	-0.098776	0.000026
C33	C	1.108006	-0.092698	0.000014
C34	C	1.074814	-0.201411	0.000002
C35	C	1.493161	0.274998	0.000029
C36	C	1.612110	0.288460	0.000024
C37	C	1.347347	0.453280	0.000023
C38	C	1.382672	0.568987	0.000021
N39	N	1.285699	0.281767	0.281871
N40	N	1.315142	0.245832	-0.281818
C41	C	1.377032	0.170190	0.531166
C42	C	1.370543	0.178133	0.655829
C43	C	1.266225	0.305590	0.655863
C44	C	1.272714	0.297647	0.531200
C45	C	1.328121	0.229946	0.468856
C46	C	1.334616	0.222009	0.344190
C47	C	1.230293	0.349460	0.344227
C48	C	1.223804	0.357403	0.468890
H49	H	0.851666	0.482319	0.000035
C50	C	1.205858	0.378933	0.723510
C51	C	1.097795	0.349948	0.693229
C52	C	1.042145	0.417474	0.755537
H53	H	1.238329	0.448237	0.703148
H54	H	1.208924	0.375079	0.806688
H55	H	1.094735	0.353812	0.610070
H56	H	1.065294	0.280655	0.713594
H57	H	1.045210	0.413621	0.838715
H58	H	1.074625	0.486774	0.735170
H59	H	0.968817	0.397812	0.735008
C60	C	1.177352	0.414530	0.276642
C61	C	1.222498	0.520379	0.306952
C62	C	1.173773	0.580356	0.244706
H63	H	1.101870	0.397772	0.297035
H64	H	1.189177	0.400181	0.193455
H65	H	1.210664	0.534722	0.390120
H66	H	1.297976	0.537169	0.286555
H67	H	1.185598	0.566007	0.161519
H68	H	1.098293	0.563589	0.265105
H69	H	1.204404	0.652181	0.265254
H70	H	1.168527	-0.513460	-0.000005
H71	H	0.951934	0.068229	0.000008
H72	H	1.384823	-0.057004	0.000040
C73	C	1.437193	0.096597	0.463684
C74	C	1.478623	0.045950	0.544937
C75	C	1.534039	-0.021862	0.482819
H76	H	1.494940	0.135120	0.415038
H77	H	1.388920	0.046414	0.415087
H78	H	1.526893	0.096126	0.593513
H79	H	1.420898	0.007407	0.593585
H80	H	1.485766	-0.072045	0.434222
H81	H	1.591781	0.016670	0.434175
H82	H	1.562147	-0.056241	0.537939
H83	H	1.476092	-0.125058	0.000046
C84	C	1.163447	0.430760	0.536525
C85	C	1.055385	0.401788	0.506245
C86	C	0.999749	0.469334	0.568537
H87	H	1.195930	0.500059	0.516149
H88	H	1.166512	0.426918	0.619705
H89	H	1.052326	0.405641	0.423083
H90	H	1.022871	0.332501	0.526624
H91	H	1.002813	0.465492	0.651717
H92	H	1.032241	0.538629	0.548156
H93	H	0.926421	0.449681	0.548009
H94	H	1.028886	-0.409309	-0.000001
C95	C	0.577126	0.092690	0.000077
C96	C	0.637227	0.018991	0.000099
C97	C	0.566967	-0.080992	0.000163
H98	H	0.536500	0.079329	-0.068967
H99	H	0.529329	0.088217	0.069171
H100	H	0.685005	0.023461	-0.068988
H101	H	0.677850	0.032318	0.069138
H102	H	0.519170	-0.085465	0.069257
H103	H	0.526345	-0.094342	-0.068882
H104	H	0.607734	-0.131008	0.000189
H105	H	1.615714	-0.229207	0.000056
C106	C	1.576540	-0.441833	0.000095
C107	C	1.680117	-0.373627	0.000131
C108	C	1.757264	-0.430829	0.000208
H109	H	1.571233	-0.488780	-0.068950
H110	H	1.563928	-0.479946	0.069188
H111	H	1.692726	-0.335531	-0.068955
H112	H	1.685460	-0.326679	0.069171
H113	H	1.744652	-0.468942	0.069301
H114	H	1.751946	-0.477773	-0.068838
H115	H	1.827549	-0.384559	0.000244
C116	C	0.955213	-0.257095	-0.000255
C117	C	0.912173	-0.235331	-0.102166
C118	C	0.802005	-0.286621	-0.102452
H119	H	0.918461	-0.233681	0.068726
H120	H	0.946430	-0.330076	-0.000322
H121	H	0.920948	-0.162366	-0.102088
H122	H	0.948894	-0.258748	-0.171164
H123	H	0.793222	-0.359601	-0.102519
H124	H	0.765264	-0.263202	-0.033467
H125	H	0.772791	-0.271868	-0.171602
H126	H	1.045336	-0.045958	0.000015
H127	H	1.004748	0.407725	0.000026
H128	H	1.410369	0.129473	0.706558
H129	H	0.648916	0.459381	0.000039
H130	H	0.749154	0.045295	0.000029
H131	H	1.379734	0.166887	0.293430
