data_functionalizedCrystal
_audit_creation_method	'MofGen! by Chris Wilmer'
_symmetry_space_group_name_H-M	'P1'
_symmetry_Int_Tables_number	1
_symmetry_cell_setting	triclinic
loop_
_symmetry_equiv_pos_as_xyz
  x,y,z
_cell_length_a	12.759401
_cell_length_b	15.298259
_cell_length_c	12.759399
_cell_angle_alpha	99.706090
_cell_angle_beta	89.984825
_cell_angle_gamma	99.661248
loop_
_atom_site_label
_atom_site_type_symbol
_atom_site_fract_x
_atom_site_fract_y
_atom_site_fract_z
Zn1	Zn	1.503442	-0.510078	0.315428
Zn2	Zn	1.533737	-0.359233	0.521544
Zn3	Zn	1.358146	-0.359239	0.345877
Zn4	Zn	1.327736	-0.510052	0.491070
O5	O	1.430765	-0.434651	0.418480
O6	O	1.654480	-0.490076	0.342780
O7	O	1.535850	-0.232989	0.523738
O8	O	1.377468	-0.379262	0.194814
O9	O	1.676738	-0.379251	0.494213
O10	O	1.484217	-0.490083	0.172443
O11	O	1.406844	-0.232994	0.394676
O12	O	1.207093	-0.379237	0.365127
O13	O	1.325638	-0.636300	0.442274
O14	O	1.184750	-0.490038	0.471799
O15	O	1.454729	-0.636319	0.313231
O16	O	1.506362	-0.379226	0.664525
O17	O	1.355014	-0.490032	0.642136
C18	C	1.157801	-0.434636	0.418461
C19	C	1.041021	-0.434651	0.418474
C20	C	0.888015	-0.377067	0.362842
C21	C	0.997741	-0.377058	0.362821
C22	C	0.974568	-0.492263	0.474141
C23	C	0.864844	-0.492275	0.474155
C24	C	0.844742	-0.319464	0.307194
C25	C	0.911188	-0.261853	0.251525
C26	C	1.020914	-0.261844	0.251504
C27	C	1.064194	-0.319446	0.307154
C28	C	1.383412	-0.669959	0.370956
C29	C	1.363233	-0.770233	0.350705
C30	C	1.575023	-1.052873	0.562411
C31	C	1.593976	-0.958660	0.581445
C32	C	1.536293	-0.911549	0.523762
C33	C	1.459651	-0.958660	0.447041
C34	C	1.440689	-1.052882	0.428011
C35	C	1.401959	-0.911557	0.389361
C36	C	1.325318	-0.958668	0.312641
C37	C	1.306360	-1.052881	0.293614
C38	C	1.364044	-1.099992	0.351297
C39	C	1.420921	-0.817335	0.408391
C40	C	1.286588	-0.817344	0.273991
C41	C	1.267634	-0.911557	0.254957
C42	C	1.704796	-0.434666	0.418499
C43	C	1.821571	-0.434672	0.418507
C44	C	1.430700	-0.434645	0.691448
C45	C	1.430762	-0.434673	0.808219
C46	C	1.477995	-0.200258	0.465742
C47	C	1.498377	-0.099984	0.485698
C48	C	1.509630	-0.377042	0.874691
C49	C	1.509686	-0.377075	0.984408
C50	C	1.351998	-0.492372	0.961172
C51	C	1.351947	-0.492342	0.851456
C52	C	1.588445	-0.319372	0.831454
C53	C	1.667318	-0.261737	0.897927
C54	C	1.667375	-0.261770	1.007645
C55	C	1.588558	-0.319439	1.050889
C56	C	1.430849	-0.434688	1.144439
C57	C	1.430870	-0.434735	1.027653
H58	H	1.075010	-0.214942	0.206167
N59	N	1.223705	-1.103703	0.210866
H60	H	1.167136	-1.142789	0.245659
H61	H	1.190119	-1.059514	0.177227
H62	H	1.731603	-0.214847	1.061763
N63	N	1.182539	-0.319448	0.307122
H64	H	1.218067	-0.274217	0.263408
H65	H	1.212232	-0.302788	0.382558
N66	N	1.637213	-1.103693	0.624626
H67	H	1.678045	-1.142795	0.574042
H68	H	1.688586	-1.059504	0.676115
H69	H	1.656368	-0.920309	0.643921
H70	H	1.588617	-0.319468	1.140228
N71	N	1.224383	-0.766541	0.211754
H72	H	1.172952	-0.810680	0.160268
H73	H	1.183614	-0.727437	0.262404
N74	N	1.266991	-0.554565	1.007810
H75	H	1.278989	-0.545837	1.087401
H76	H	1.194798	-0.540462	0.991543
N77	N	1.266889	-0.554503	0.779751
H78	H	1.216963	-0.591037	0.823789
H79	H	1.225680	-0.517734	0.741706
H80	H	0.755400	-0.319463	0.307207
N81	N	1.556742	-0.809934	0.544271
H82	H	1.489233	-0.787228	0.568155
H83	H	1.614082	-0.787309	0.601598
N84	N	1.021245	-0.554381	0.534167
H85	H	1.100839	-0.545629	0.525715
H86	H	1.004899	-0.540231	0.612034
N87	N	1.752326	-0.199539	0.851296
H88	H	1.824558	-0.213614	0.867479
H89	H	1.740232	-0.208287	0.771719
H90	H	1.205231	-0.949928	0.192491
N91	N	0.793169	-0.554410	0.534186
H92	H	0.837230	-0.590895	0.569442
H93	H	0.755029	-0.517626	0.590175
N94	N	1.588379	-0.319332	0.713119
H95	H	1.650272	-0.274054	0.695813
H96	H	1.595129	-0.381254	0.674214
N97	N	1.503583	-0.766537	0.491134
H98	H	1.575352	-0.782943	0.471508
H99	H	1.506756	-0.699718	0.494408
H100	H	1.348619	-1.176708	0.335802
N101	N	0.864516	-0.199721	0.191515
H102	H	0.784924	-0.208461	0.199981
H103	H	0.896661	-0.135271	0.220781
