data_functionalizedCrystal
_audit_creation_method	'MofGen! by Chris Wilmer'
_symmetry_space_group_name_H-M	'P1'
_symmetry_Int_Tables_number	1
_symmetry_cell_setting	triclinic
loop_
_symmetry_equiv_pos_as_xyz
  x,y,z
_cell_length_a	21.295419
_cell_length_b	13.032318
_cell_length_c	13.032268
_cell_angle_alpha	90.931219
_cell_angle_beta	97.160450
_cell_angle_gamma	82.779696
loop_
_atom_site_label
_atom_site_type_symbol
_atom_site_fract_x
_atom_site_fract_y
_atom_site_fract_z
Zn1	Zn	0.884863	0.482956	-0.529496
Zn2	Zn	0.888127	0.633143	-0.335673
Zn3	Zn	0.794422	0.461199	-0.357535
Zn4	Zn	0.768080	0.654957	-0.507588
O5	O	0.833873	0.558064	-0.432573
O6	O	0.973386	0.502854	-0.503804
O7	O	0.888087	0.592099	-0.194660
O8	O	0.816078	0.320143	-0.398664
O9	O	0.975784	0.613196	-0.361403
O10	O	0.882524	0.336127	-0.525003
O11	O	0.819243	0.465773	-0.210722
O12	O	0.702838	0.486925	-0.377421
O13	O	0.771182	0.650376	-0.654407
O14	O	0.683485	0.629279	-0.487664
O15	O	0.856981	0.524007	-0.670503
O16	O	0.862545	0.779979	-0.340160
O17	O	0.774347	0.796006	-0.466465
C18	C	0.670321	0.558109	-0.432538
C19	C	0.600349	0.558157	-0.432544
C20	C	0.566240	0.500822	-0.506780
C21	C	0.500499	0.500795	-0.506788
C22	C	0.468867	0.558122	-0.432568
C23	C	0.502984	0.615460	-0.358318
C24	C	0.568725	0.615477	-0.358306
N25	N	0.360278	0.647105	-0.413104
N26	N	0.297826	0.647087	-0.413121
C27	C	0.270794	0.558072	-0.432597
N28	N	0.308570	0.469077	-0.452075
N29	N	0.371027	0.469097	-0.452063
C30	C	0.397582	0.558109	-0.432572
C31	C	0.165401	0.500703	-0.506846
C32	C	0.099660	0.500673	-0.506846
C33	C	0.102146	0.615347	-0.358381
C34	C	0.167887	0.615367	-0.358376
C35	C	0.199510	0.558047	-0.432614
C36	C	0.815957	0.825318	-0.398585
C37	C	0.808346	0.939654	-0.384079
C38	C	0.998064	0.558019	-0.432609
C39	C	1.068033	0.557999	-0.432624
C40	C	0.837800	0.998463	-0.440184
C41	C	0.829935	1.116636	-0.425193
C42	C	0.810779	0.592051	-0.700813
C43	C	0.800938	0.606535	-0.815122
C44	C	0.851836	1.289770	-0.466726
C45	C	0.859392	1.175443	-0.481305
C46	C	0.839002	0.550468	-0.874047
C47	C	0.828832	0.565436	-0.992191
C48	C	0.856919	0.524134	-0.165386
C49	C	0.866901	0.509360	-0.051115
H50	H	0.477226	0.662135	-0.297887
C51	C	0.963848	1.148320	-0.535785
C52	C	0.901298	1.125326	-0.561138
H53	H	0.989716	1.117384	-0.585075
H54	H	0.980197	1.122011	-0.468922
H55	H	0.964052	1.221161	-0.536184
H56	H	0.901094	1.052485	-0.560732
H57	H	0.884945	1.151630	-0.628019
H58	H	0.071890	0.453978	-0.567297
H59	H	0.076392	0.662024	-0.297949
C60	C	0.942251	0.971338	-0.494674
C61	C	0.879700	0.948345	-0.520019
H62	H	0.968116	0.940405	-0.543969
H63	H	0.958603	0.945025	-0.427813
H64	H	0.942454	1.044179	-0.495069
H65	H	0.879496	0.875504	-0.519617
H66	H	0.863343	0.974653	-0.586898
H67	H	0.195658	0.662060	-0.297928
C68	C	0.738504	1.235934	-0.395522
C69	C	0.788029	1.166757	-0.345362
H70	H	0.712636	1.266881	-0.346237
H71	H	0.713319	1.199710	-0.445558
H72	H	0.755971	1.288138	-0.428775
H73	H	0.770562	1.114549	-0.312115
H74	H	0.813217	1.202983	-0.295308
C75	C	0.775082	0.644602	-1.149512
C76	C	0.774672	0.645209	-1.042145
H77	H	0.741650	0.693856	-1.180349
H78	H	0.769001	0.577709	-1.175854
H79	H	0.814872	0.661846	-1.165147
H80	H	0.734884	0.627958	-1.026510
H81	H	0.780749	0.712117	-1.015795
H82	H	0.777304	0.976794	-0.324953
H83	H	0.472722	0.454101	-0.567239
C84	C	0.867371	0.396899	-0.770708
C85	C	0.893163	0.470709	-0.824083
H86	H	0.900810	0.347664	-0.739859
H87	H	0.839011	0.362828	-0.817619
H88	H	0.844806	0.430147	-0.718436
H89	H	0.915724	0.437462	-0.876361
H90	H	0.921534	0.504783	-0.777168
C91	C	0.895253	0.355765	-0.947816
C92	C	0.921058	0.429574	-1.001175
H93	H	0.928686	0.306509	-0.916985
H94	H	0.866883	0.321721	-0.994733
H95	H	0.872699	0.389010	-0.895531
H96	H	0.943609	0.396330	-1.053465
H97	H	0.949439	0.463621	-0.954254
H98	H	0.760816	0.665611	-0.852139
C99	C	0.557175	0.387463	-0.653526
C100	C	0.601001	0.437800	-0.588369
H101	H	0.578639	0.348548	-0.703888
H102	H	0.525141	0.437310	-0.687091
H103	H	0.538030	0.342379	-0.613786
H104	H	0.620143	0.482890	-0.628107
H105	H	0.633047	0.387947	-0.554802
C106	C	0.564577	0.728827	-0.211560
C107	C	0.606221	0.678513	-0.276707
H108	H	0.587727	0.767750	-0.161190
H109	H	0.545338	0.678967	-0.178004
H110	H	0.532431	0.773902	-0.251304
H111	H	0.638364	0.633433	-0.236964
H112	H	0.625470	0.728380	-0.310265
H113	H	0.191151	0.454022	-0.567289
