data_functionalizedCrystal
_audit_creation_method	'MofGen! by Chris Wilmer'
_symmetry_space_group_name_H-M	'P1'
_symmetry_Int_Tables_number	1
_symmetry_cell_setting	triclinic
loop_
_symmetry_equiv_pos_as_xyz
  x,y,z
_cell_length_a	14.908571
_cell_length_b	18.050589
_cell_length_c	14.908308
_cell_angle_alpha	93.269302
_cell_angle_beta	90.175053
_cell_angle_gamma	86.724558
loop_
_atom_site_label
_atom_site_type_symbol
_atom_site_fract_x
_atom_site_fract_y
_atom_site_fract_z
Zn1	Zn	1.345230	-0.387558	-0.587600
Zn2	Zn	1.353791	-0.505024	-0.437245
Zn3	Zn	1.203548	-0.373294	-0.428597
Zn4	Zn	1.194819	-0.504142	-0.578897
O5	O	1.274347	-0.442504	-0.508085
O6	O	1.472191	-0.409479	-0.574916
O7	O	1.341097	-0.481949	-0.310273
O8	O	1.222413	-0.271266	-0.449712
O9	O	1.478480	-0.495781	-0.464452
O10	O	1.326506	-0.281746	-0.566530
O11	O	1.230714	-0.385168	-0.303919
O12	O	1.076565	-0.384312	-0.441273
O13	O	1.207536	-0.494277	-0.705876
O14	O	1.070152	-0.480446	-0.551698
O15	O	1.318042	-0.408624	-0.712270
O16	O	1.332633	-0.608827	-0.456013
O17	O	1.215836	-0.608179	-0.560084
C18	C	1.040734	-0.430736	-0.494603
C19	C	0.940791	-0.425720	-0.488857
C20	C	0.746369	-0.516539	-0.592890
C21	C	0.652464	-0.511829	-0.587494
C22	C	0.659075	-0.411586	-0.472674
C23	C	0.752980	-0.416296	-0.478070
C24	C	0.796623	-0.468775	-0.538179
C25	C	0.890530	-0.473489	-0.543570
C26	C	0.897139	-0.373243	-0.428755
C27	C	0.803235	-0.368533	-0.423359
C28	C	1.274239	-0.635451	-0.508063
C29	C	1.274274	-0.717999	-0.508089
C30	C	1.210820	-0.917126	-0.564665
C31	C	1.193639	-0.961795	-0.481356
C32	C	1.274362	-0.869134	-0.508106
C33	C	1.291586	-0.971550	-0.591427
C34	C	1.274444	-1.015125	-0.508129
C35	C	1.257140	-0.912712	-0.424750
C36	C	1.355122	-0.922467	-0.534880
C37	C	1.337975	-0.967112	-0.451515
C38	C	1.274312	-0.785033	-0.508094
C39	C	1.274495	-1.099224	-0.508132
C40	C	1.508873	-0.454320	-0.521619
C41	C	1.608814	-0.459355	-0.527387
C42	C	1.260860	-0.452943	-0.742610
C43	C	1.255113	-0.457391	-0.842551
C44	C	1.274479	-0.248807	-0.508127
C45	C	1.274535	-0.166265	-0.508145
C46	C	1.359381	-0.376542	-1.037010
C47	C	1.353984	-0.380719	-1.130914
C48	C	1.238917	-0.469919	-1.124263
C49	C	1.244314	-0.465741	-1.030360
C50	C	1.304549	-0.419052	-0.986737
C51	C	1.309951	-0.414880	-0.892832
C52	C	1.194880	-0.504075	-0.886183
C53	C	1.189483	-0.508252	-0.980086
C54	C	1.287833	-0.432055	-0.274474
C55	C	1.293755	-0.427407	-0.174544
H56	H	0.611550	-0.550721	-0.632047
H57	H	1.391749	-0.988912	-0.403636
O58	O	1.368337	-0.369477	-0.850349
C59	C	1.320289	-0.316510	-0.793106
H60	H	1.252945	-0.338652	-0.775100
H61	H	1.308355	-0.262592	-0.828739
C62	C	1.457610	-0.274382	-0.728881
C63	C	1.374899	-0.301579	-0.706759
H64	H	1.491297	-0.265169	-0.675620
H65	H	1.489981	-0.310065	-0.767449
H66	H	1.447653	-0.229453	-0.758577
H67	H	1.384857	-0.346512	-0.677075
H68	H	1.342531	-0.265904	-0.668184
H69	H	1.408431	-0.338530	-1.001492
O70	O	0.760873	-0.317458	-0.365069
C71	C	0.782737	-0.245499	-0.386169
H72	H	0.804439	-0.246329	-0.459492
H73	H	0.840013	-0.226623	-0.341132
C74	C	0.673281	-0.190255	-0.280950
C75	C	0.699928	-0.191273	-0.371009
H76	H	0.622203	-0.156804	-0.271595
H77	H	0.658553	-0.238734	-0.266732
H78	H	0.721018	-0.174526	-0.243430
H79	H	0.652196	-0.207011	-0.408527
H80	H	0.714647	-0.142795	-0.385233
O81	O	1.407155	-0.339451	-1.179884
C82	C	1.389493	-0.353160	-1.272122
H83	H	1.319352	-0.374563	-1.280941
H84	H	1.441273	-0.396574	-1.301841
C85	C	1.481151	-0.254292	-1.309988
C86	C	1.394999	-0.280574	-1.320820
H87	H	1.484552	-0.209519	-1.340029
H88	H	1.493053	-0.245057	-1.247846
H89	H	1.524292	-0.290477	-1.334753
H90	H	1.351862	-0.244393	-1.296045
H91	H	1.383090	-0.289801	-1.382959
O92	O	0.946057	-0.326947	-0.375565
C93	C	1.003668	-0.369293	-0.320508
H94	H	1.015906	-0.427723	-0.352917
H95	H	0.971285	-0.372589	-0.251781
C96	C	1.078780	-0.260401	-0.269620
C97	C	1.093817	-0.332165	-0.309430
H98	H	1.134387	-0.237498	-0.262782
H99	H	1.039964	-0.231871	-0.306710
H100	H	1.051792	-0.263158	-0.212351
H101	H	1.120794	-0.329406	-0.366701
H102	H	1.132639	-0.360694	-0.272348
O103	O	1.436494	-0.901674	-0.562070
C104	C	1.454358	-0.931778	-0.649972
H105	H	1.388390	-0.944210	-0.685035
H106	H	1.498338	-0.985351	-0.646859
C107	C	1.584596	-0.860229	-0.659767
C108	C	1.503572	-0.875493	-0.702835
H109	H	1.614958	-0.825512	-0.692375
H110	H	1.572564	-0.839949	-0.600544
H111	H	1.621235	-0.904878	-0.657175
H112	H	1.466931	-0.830846	-0.705416
H113	H	1.515600	-0.895764	-0.762059
O114	O	1.180473	-0.515243	-1.166790
C115	C	1.187445	-0.509788	-1.260450
H116	H	1.256119	-0.489541	-1.277283
H117	H	1.132614	-0.468726	-1.284014
C118	C	1.092013	-0.611513	-1.287516
C119	C	1.176363	-0.586652	-1.308191
H120	H	1.085173	-0.658925	-1.316966
H121	H	1.087313	-0.615187	-1.224416
H122	H	1.046330	-0.577288	-1.307153
H123	H	1.222044	-0.620871	-1.288543
H124	H	1.181071	-0.582985	-1.371289
O125	O	1.239671	-0.882053	-0.340731
C126	C	1.239823	-0.804002	-0.341736
H127	H	1.225634	-0.786233	-0.412796
H128	H	1.308288	-0.784990	-0.318944
C129	C	1.184098	-0.790254	-0.190354
C130	C	1.166663	-0.768429	-0.277630
H131	H	1.138973	-0.768309	-0.150808
H132	H	1.183999	-0.842838	-0.189675
H133	H	1.241154	-0.774409	-0.171373
H134	H	1.109614	-0.784282	-0.296613
H135	H	1.166751	-0.715846	-0.278311
H136	H	1.306123	-0.997236	-0.661882
O137	O	1.146520	-0.890965	-0.621528
C138	C	1.061527	-0.910835	-0.592986
H139	H	1.064189	-0.921304	-0.518311
H140	H	1.042330	-0.963481	-0.632595
C141	C	0.987754	-0.834422	-0.700897
C142	C	0.991021	-0.847275	-0.609177
H143	H	0.944261	-0.795218	-0.710888
H144	H	1.045015	-0.821038	-0.720129
H145	H	0.971759	-0.878299	-0.733893
H146	H	1.007027	-0.803402	-0.576184
H147	H	0.933761	-0.860651	-0.589940
O148	O	1.112208	-0.982703	-0.454469
C149	C	1.074803	-1.028221	-0.523168
H150	H	1.130748	-1.054623	-0.568437
H151	H	1.026078	-0.993132	-0.564601
C152	C	0.955479	-1.057252	-0.425491
C153	C	1.024192	-1.089684	-0.481087
H154	H	0.924256	-1.095163	-0.399534
H155	H	0.980677	-1.026583	-0.379207
H156	H	0.914885	-1.028012	-0.460027
H157	H	1.064791	-1.118915	-0.446549
H158	H	0.998999	-1.120359	-0.527364
O159	O	1.131101	-0.553690	-1.022514
C160	C	1.179141	-0.606633	-1.079796
H161	H	1.251583	-0.613524	-1.055582
H162	H	1.178160	-0.586991	-1.151145
C163	C	1.046113	-0.673225	-1.108434
C164	C	1.135085	-0.681693	-1.078690
H165	H	1.018936	-0.719525	-1.107755
H166	H	1.013746	-0.637555	-1.069845
H167	H	1.045307	-0.656854	-1.167889
H168	H	1.135889	-0.698054	-1.019232
H169	H	1.167452	-0.717367	-1.117269
O170	O	1.141739	-0.545411	-0.837258
C171	C	1.196023	-0.593553	-0.785906
H172	H	1.264988	-0.570165	-0.775768
H173	H	1.203789	-0.650691	-0.822662
C174	C	1.066963	-0.629273	-0.706304
C175	C	1.151665	-0.600545	-0.693847
H176	H	1.039600	-0.633590	-0.649520
H177	H	1.030390	-0.596841	-0.740903
H178	H	1.073447	-0.676885	-0.736937
H179	H	1.145179	-0.552930	-0.663225
H180	H	1.188236	-0.632969	-0.659241
H181	H	0.926063	-0.516221	-0.592512
H182	H	0.623524	-0.368856	-0.423742
O183	O	0.788626	-0.567536	-0.651350
C184	C	0.724133	-0.608701	-0.698463
H185	H	0.657023	-0.575072	-0.697795
H186	H	0.716018	-0.663089	-0.664845
C187	C	0.837727	-0.666928	-0.797066
C188	C	0.755303	-0.625622	-0.796251
H189	H	0.856954	-0.677369	-0.857385
H190	H	0.881178	-0.639196	-0.765323
H191	H	0.830953	-0.712246	-0.769046
H192	H	0.762080	-0.580301	-0.824260
H193	H	0.711853	-0.653346	-0.828001
