data_functionalizedCrystal
_audit_creation_method	'MofGen! by Chris Wilmer'
_symmetry_space_group_name_H-M	'P1'
_symmetry_Int_Tables_number	1
_symmetry_cell_setting	triclinic
loop_
_symmetry_equiv_pos_as_xyz
  x,y,z
_cell_length_a	16.109301
_cell_length_b	17.038272
_cell_length_c	15.500346
_cell_angle_alpha	92.974377
_cell_angle_beta	93.179977
_cell_angle_gamma	87.286518
loop_
_atom_site_label
_atom_site_type_symbol
_atom_site_fract_x
_atom_site_fract_y
_atom_site_fract_z
O1	O	1.113943	0.103719	0.071889
O2	O	0.872769	0.116226	0.071903
O3	O	0.991922	-0.003843	0.071889
O4	O	0.994790	0.223789	0.071903
O5	O	0.984558	-0.010298	-0.071997
O6	O	0.865406	0.109771	-0.071983
O7	O	1.106579	0.097264	-0.071997
Cu8	Cu	0.985320	0.102928	-0.085128
Cu9	Cu	0.994028	0.110562	0.085034
O10	O	0.987426	0.217333	-0.071984
C11	C	0.838077	0.112492	-0.000039
C12	C	0.745674	0.110974	-0.000033
C13	C	0.985633	-0.036199	-0.000054
C14	C	0.977854	-0.122992	-0.000053
C15	C	0.528210	0.178688	-0.000039
C16	C	0.441388	0.177255	-0.000045
C17	C	0.451145	0.034797	-0.000050
C18	C	0.537965	0.036231	-0.000051
C19	C	0.576496	0.108179	-0.000041
C20	C	0.402853	0.105312	-0.000046
C21	C	0.308716	0.103757	-0.000052
C22	C	0.670638	0.109734	-0.000036
C23	C	1.049274	-0.173107	-0.000058
C24	C	1.041961	-0.254657	-0.000049
C25	C	0.963225	-0.286090	-0.000042
C26	C	0.891800	-0.235969	-0.000034
C27	C	0.899115	-0.154420	-0.000037
C28	C	0.937384	-0.531847	-0.000029
C29	C	0.930074	-0.613403	-0.000029
C30	C	1.080236	-0.632085	-0.000042
C31	C	1.087543	-0.550534	-0.000050
C32	C	1.016118	-0.500419	-0.000038
C33	C	0.955748	-0.369448	-0.000036
C34	C	1.023597	-0.417063	-0.000038
C35	C	1.141271	0.100998	-0.000054
C36	C	1.233675	0.102517	-0.000053
C37	C	0.993715	0.249689	-0.000039
C38	C	1.001494	0.336482	-0.000034
N39	N	0.979200	0.097558	-0.204811
C40	C	0.948693	0.070538	-0.749989
C41	C	0.953318	0.074630	-0.659418
C42	C	1.009399	0.124114	-0.614142
C43	C	1.060866	0.169504	-0.659443
C44	C	1.056245	0.165408	-0.750012
C45	C	1.026046	0.138851	-0.340681
C46	C	1.030661	0.142946	-0.250105
C47	C	0.923114	0.048070	-0.250087
C48	C	0.918494	0.043982	-0.340658
C49	C	0.969963	0.089369	-0.385950
C50	C	1.014126	0.128299	-0.521564
C51	C	0.965240	0.085179	-0.478527
N52	N	1.000154	0.115926	0.204717
H53	H	0.559579	0.237272	-0.000038
O54	O	0.904769	0.031794	-0.527360
H55	H	0.869764	0.000910	-0.480652
O56	O	1.081555	0.187807	-0.389523
H57	H	1.042562	0.227943	-0.430813
H58	H	0.879224	-0.491053	-0.000019
H59	H	0.872828	0.003685	-0.377515
O60	O	0.590048	-0.039825	-0.000057
H61	H	0.656892	-0.026739	-0.000068
O62	O	1.157272	-0.686134	-0.000050
H63	H	1.138962	-0.748121	-0.000041
H64	H	0.402077	0.234670	-0.000046
O65	O	1.108519	-0.383168	-0.000042
H66	H	1.112439	-0.349099	-0.058692
H67	H	0.840956	-0.113617	-0.000033
O68	O	1.134197	-0.139203	-0.000058
H69	H	1.182631	-0.187755	-0.000049
H70	H	0.865955	-0.638993	-0.000037
H71	H	1.059787	0.168591	-0.484691
H72	H	0.891641	-0.395050	-0.000032
O73	O	0.888220	0.017150	-0.798822
H74	H	0.853225	-0.013735	-0.752106
O75	O	0.806874	-0.269866	-0.000035
H76	H	0.813784	-0.334993	-0.000047
H77	H	0.419762	-0.023781	-0.000063
H78	H	1.100119	-0.295458	-0.000055
O79	O	1.172466	-0.516628	-0.000037
H80	H	1.220903	-0.565178	-0.000026
O81	O	0.897809	0.025682	-0.610562
H82	H	0.858026	-0.009407	-0.657260
H83	H	0.881211	0.011118	-0.213200
H84	H	1.076328	0.183248	-0.213244
O85	O	1.121351	0.222884	-0.610617
H86	H	1.115912	0.218117	-0.540028
O87	O	1.111744	0.214365	-0.798872
H88	H	1.151512	0.249469	-0.752176
