data_functionalizedCrystal
_audit_creation_method	'MofGen! by Chris Wilmer'
_symmetry_space_group_name_H-M	'P1'
_symmetry_Int_Tables_number	1
_symmetry_cell_setting	triclinic
loop_
_symmetry_equiv_pos_as_xyz
  x,y,z
_cell_length_a	14.519731
_cell_length_b	10.489741
_cell_length_c	12.996460
_cell_angle_alpha	89.994152
_cell_angle_beta	89.994327
_cell_angle_gamma	84.114013
loop_
_atom_site_label
_atom_site_type_symbol
_atom_site_fract_x
_atom_site_fract_y
_atom_site_fract_z
O1	O	1.224768	0.167333	-0.085568
O2	O	1.724768	0.667333	0.414432
O3	O	0.956401	0.186995	-0.085570
O4	O	1.456401	0.686995	0.414430
O5	O	1.096691	-0.008497	-0.085563
O6	O	1.596691	0.491503	0.414437
O7	O	1.084478	0.362825	-0.085575
O8	O	1.584478	0.862825	0.414425
O9	O	1.096677	-0.008508	0.085571
O10	O	1.596677	0.491492	0.585571
O11	O	0.956386	0.186984	0.085564
O12	O	1.456386	0.686984	0.585564
O13	O	1.224754	0.167322	0.085565
O14	O	1.724754	0.667322	0.585565
Cu15	Cu	1.090569	0.177152	0.101190
Cu16	Cu	1.590569	0.677152	0.601190
Cu17	Cu	1.090586	0.177165	-0.101195
Cu18	Cu	1.590586	0.677165	0.398805
O19	O	1.084463	0.362814	0.085558
O20	O	1.584463	0.862814	0.585558
C21	C	0.922029	0.186068	-0.000003
C22	C	1.422029	0.686068	0.499997
C23	C	0.819634	0.183308	-0.000004
C24	C	1.319634	0.683308	0.499996
C25	C	0.736478	0.181064	-0.000008
C26	C	1.236478	0.681064	0.499992
C27	C	0.632154	0.178261	-0.000008
C28	C	1.132154	0.678261	0.499992
C29	C	0.549003	0.176037	-0.000008
C30	C	1.049003	0.676037	0.499992
C31	C	0.444672	0.173234	-0.000010
C32	C	0.944672	0.673234	0.499990
C33	C	1.095762	-0.056024	0.000003
C34	C	1.595762	0.443976	0.500003
C35	C	1.093002	-0.197625	0.000001
C36	C	1.593002	0.302375	0.500001
C37	C	1.003739	-0.264844	-0.000007
C38	C	1.503739	0.235156	0.499993
C39	C	1.045899	-0.357407	0.084371
C40	C	1.545899	0.142593	0.584371
C41	C	1.045935	-0.357371	-0.084353
C42	C	1.545935	0.142629	0.415647
C43	C	1.135198	-0.288323	0.084449
C44	C	1.635198	0.211677	0.584449
C45	C	1.135221	-0.288278	-0.084351
C46	C	1.635221	0.211722	0.415649
C47	C	1.177446	-0.380814	0.000047
C48	C	1.677446	0.119186	0.500047
C49	C	1.259125	0.168249	-0.000004
C50	C	1.759125	0.668249	0.499996
C51	C	1.361521	0.171010	-0.000010
C52	C	1.861521	0.671010	0.499990
C53	C	1.085393	0.410342	-0.000010
C54	C	1.585393	0.910342	0.499990
C55	C	1.088153	0.551943	-0.000015
C56	C	1.588153	1.051943	0.499985
N57	N	1.090563	0.177142	0.243538
N58	N	1.590563	0.677142	0.743538
N59	N	1.090599	0.177165	-0.243542
N60	N	1.590599	0.677165	0.256458
C61	C	1.090585	0.177166	0.663352
C62	C	1.590585	0.677166	1.163352
C63	C	1.090576	0.177164	0.546547
C64	C	1.590576	0.677164	1.046547
C65	C	1.090574	0.177155	0.453448
C66	C	1.590574	0.677155	0.953448
C67	C	1.090565	0.177151	0.336636
C68	C	1.590565	0.677151	0.836636
H69	H	0.930348	-0.214436	0.000078
H70	H	1.430348	0.285564	0.500078
N71	N	0.995907	-0.397887	-0.178849
N72	N	1.495907	0.102113	0.321151
H73	H	0.994932	-0.494023	-0.178504
H74	H	1.494932	0.005977	0.321496
H75	H	0.930321	-0.355184	-0.178717
H76	H	1.430321	0.144816	0.321283
N77	N	0.995874	-0.397968	0.178873
N78	N	1.495874	0.102032	0.678873
H79	H	0.930261	-0.355354	0.178815
H80	H	1.430261	0.144646	0.678815
H81	H	0.994972	-0.494111	0.178466
H82	H	1.494972	0.005889	0.678466
H83	H	1.172928	-0.257885	0.155864
H84	H	1.672928	0.242115	0.655864
H85	H	1.250903	-0.430996	0.000095
H86	H	1.750903	0.069004	0.500095
N87	N	1.185224	-0.247664	-0.178842
N88	N	1.685224	0.252336	0.321158
H89	H	1.151456	-0.272493	-0.242549
H90	H	1.651456	0.227507	0.257451
H91	H	1.187235	-0.151719	-0.177682
H92	H	1.687235	0.348281	0.322318
