data_functionalizedCrystal
_audit_creation_method	'MofGen! by Chris Wilmer'
_symmetry_space_group_name_H-M	'P1'
_symmetry_Int_Tables_number	1
_symmetry_cell_setting	triclinic
loop_
_symmetry_equiv_pos_as_xyz
  x,y,z
_cell_length_a	14.560438
_cell_length_b	20.016444
_cell_length_c	14.560438
_cell_angle_alpha	60.001636
_cell_angle_beta	90.000907
_cell_angle_gamma	59.999442
loop_
_atom_site_label
_atom_site_type_symbol
_atom_site_fract_x
_atom_site_fract_y
_atom_site_fract_z
Zr1	Zr	0.884771	0.731239	-0.120447
O2	O	0.738122	0.870615	-0.267090
O3	O	0.929726	0.591865	-0.075499
O4	O	0.929726	0.731240	-0.267094
O5	O	0.738122	0.731238	0.075645
O6	O	1.080867	0.731238	-0.267089
O7	O	0.738122	0.731240	-0.075496
O8	O	1.080867	0.481921	0.075639
O9	O	0.738123	0.980555	-0.267083
O10	O	1.061694	0.649189	-0.056318
O11	O	0.948899	0.649189	0.056473
O12	O	0.948900	0.813285	-0.169105
O13	O	0.836105	0.813285	-0.056314
Zr14	Zr	1.125823	0.731232	0.120614
Zr15	Zr	1.125823	0.731235	-0.120439
Zr16	Zr	0.884771	0.731236	0.120606
Zr17	Zr	0.884771	0.906580	-0.120434
Zr18	Zr	1.125823	0.555891	0.120601
O19	O	1.080868	0.870606	0.075666
O20	O	1.080868	0.870610	-0.267079
O21	O	0.738123	0.870611	0.075655
O22	O	1.272472	0.591856	0.267257
O23	O	1.272472	0.591860	-0.075488
O24	O	0.929726	0.591860	0.267246
O25	O	1.272472	0.731233	-0.075478
O26	O	1.080868	0.731231	0.267261
O27	O	0.929727	0.731233	0.267256
O28	O	1.272472	0.731231	0.075663
O29	O	0.929727	0.980552	-0.267077
O30	O	1.080867	0.481919	0.267243
O31	O	1.272471	0.481916	0.267250
O32	O	1.272471	0.481919	0.075645
O33	O	0.738123	0.980552	-0.075478
O34	O	0.929727	0.980550	-0.075472
O35	O	1.061694	0.649186	0.169272
O36	O	1.174489	0.649186	0.056481
O37	O	1.061695	0.813282	-0.056306
O38	O	0.948900	0.813282	0.056485
C39	C	1.005296	0.511911	0.000068
C40	C	1.005296	0.437474	0.000063
C41	C	1.064178	0.266204	-0.058794
C42	C	1.064181	0.196256	-0.058785
C43	C	0.946415	0.196270	0.058968
C44	C	0.946419	0.266211	0.058965
C45	C	1.005297	0.301180	0.000078
C46	C	1.005297	0.161291	0.000089
C47	C	1.005300	0.085451	0.000099
C48	C	1.005296	0.377024	0.000069
C49	C	0.703777	0.731240	0.000074
C50	C	0.601444	0.731241	0.000070
C51	C	0.553361	0.731243	-0.083193
C52	C	0.457215	0.731235	-0.083177
C53	C	0.457242	0.731224	0.083368
C54	C	0.553391	0.731227	0.083356
C55	C	0.601415	0.731258	-0.166479
C56	C	0.553330	0.731261	-0.249749
C57	C	0.457185	0.731252	-0.249734
C58	C	0.409123	0.731240	-0.166449
C59	C	1.306817	0.731231	0.000093
C60	C	1.409150	0.731230	0.000097
C61	C	1.005297	0.731239	-0.301436
C62	C	1.005297	0.731240	-0.403769
C63	C	1.005298	0.950560	0.000099
C64	C	1.005298	1.024997	0.000104
C65	C	0.946415	0.816895	-0.510719
C66	C	0.946418	0.816891	-0.606868
C67	C	1.064187	0.645569	-0.489103
C68	C	1.064189	0.645574	-0.392957
C69	C	0.887522	0.902562	-0.521531
C70	C	0.828634	0.988223	-0.628486
C71	C	0.828637	0.988219	-0.724635
C72	C	0.887529	0.902552	-0.713829
C73	C	1.005297	0.731232	0.301603
C74	C	1.005297	0.731230	0.403936
C75	C	1.306816	0.511906	0.000078
C76	C	1.409149	0.437468	0.000076
C77	C	1.005297	0.511907	0.301588
C78	C	1.005297	0.437469	0.403916
C79	C	1.306816	0.511903	0.301598
C80	C	1.409149	0.437463	0.403929
C81	C	0.703778	0.950568	-0.301431
C82	C	0.601445	1.025008	-0.403762
C83	C	0.703778	0.950564	0.000089
C84	C	0.601445	1.025003	0.000090
C85	C	1.005298	0.950564	-0.301421
C86	C	1.005298	1.025002	-0.403749
C87	C	1.398328	0.402513	-0.058814
C88	C	1.494471	0.332580	-0.058838
C89	C	1.601434	0.297599	0.000035
C90	C	1.612254	0.332561	0.058928
C91	C	1.516111	0.402498	0.058945
C92	C	1.064174	0.402510	0.510860
C93	C	1.064170	0.332578	0.607017
C94	C	1.005294	0.297600	0.596227
C95	C	0.946409	0.332565	0.489272
C96	C	0.946407	0.402501	0.393117
C97	C	1.516094	0.402506	0.393109
C98	C	1.612256	0.332571	0.489251
C99	C	1.601471	0.297592	0.596211
C100	C	1.494515	0.332556	0.607029
C101	C	1.398355	0.402494	0.510888
C102	C	0.494500	1.059974	-0.392942
C103	C	0.398339	1.129930	-0.489084
C104	C	0.409124	1.164913	-0.596044
C105	C	0.516079	1.129944	-0.606862
C106	C	0.612239	1.059994	-0.510722
C107	C	0.612266	1.059965	0.058971
C108	C	0.516123	1.129918	0.058969
C109	C	0.409160	1.164901	0.000092
C110	C	0.398341	1.129935	-0.058796
C111	C	0.494483	1.059989	-0.058800
C112	C	1.064185	1.059958	-0.392923
C113	C	1.064207	1.129891	-0.489062
C114	C	1.005335	1.164872	-0.596025
C115	C	0.946445	1.129910	-0.606848
C116	C	0.946430	1.059973	-0.510711
H117	H	0.898471	0.294688	0.106910
C118	C	0.729876	1.021528	-0.522643
N119	N	0.818479	0.992557	-0.531630
H120	H	1.112119	0.430981	0.519666
C121	C	0.303411	1.241840	0.000113
N122	N	0.223764	1.299788	0.000137
C123	C	0.881736	1.168366	-0.724518
N124	N	0.833009	1.197324	-0.813150
H125	H	1.112128	0.167779	-0.106722
C126	C	1.128963	0.294120	0.724657
N127	N	1.177769	0.265153	0.813260
H128	H	1.112134	0.575826	-0.305872
H129	H	0.898477	0.167791	0.106911
H130	H	0.780697	1.057969	-0.811718
C131	C	0.707179	0.731264	-0.166501
N132	N	0.786841	0.731269	-0.166516
H133	H	0.330815	1.221870	-0.674319
C134	C	0.729918	1.021501	0.123739
N135	N	0.818530	0.992539	0.172519
C136	C	0.887519	0.902574	-0.415771
N137	N	0.887518	0.902583	-0.336112
H138	H	0.887538	0.902556	-0.792125
C139	C	0.482609	1.021511	-0.275294
N140	N	0.473644	0.992550	-0.186684
H141	H	0.780694	1.057970	-0.637276
H142	H	1.524896	0.430976	0.306025
C143	C	0.606210	0.731259	-0.341347
N144	N	0.646041	0.731254	-0.410338
C145	C	0.881647	0.440938	0.275481
N146	N	0.832868	0.469883	0.186878
C147	C	0.528049	1.168359	0.123762
N148	N	0.537035	1.197310	0.172568
H149	H	1.699335	0.304110	0.480423
C150	C	1.280718	0.440937	0.522810
N151	N	1.192115	0.469891	0.531797
C152	C	1.482545	0.294126	-0.123615
N153	N	1.473559	0.265162	-0.172402
H154	H	1.679779	0.240644	0.674486
C155	C	1.280676	0.440984	-0.123592
N156	N	1.192064	0.469961	-0.172392
H157	H	0.418042	0.731246	-0.317529
C158	C	0.280698	1.168381	-0.477159
N159	N	0.192094	1.197341	-0.468174
C160	C	0.280670	1.168415	-0.123538
N161	N	0.192037	1.197391	-0.172291
H162	H	1.112122	0.294672	-0.106742
H163	H	0.898472	1.031520	-0.519540
C164	C	1.128962	1.021487	-0.275273
N165	N	1.177762	0.992510	-0.186661
H166	H	0.592541	0.731223	0.151158
C167	C	1.005360	1.241806	-0.701769
N168	N	1.005381	1.299755	-0.781412
H169	H	1.679711	0.240651	0.000013
H170	H	1.485750	0.304065	0.694129
H171	H	0.330841	0.731223	-0.166437
H172	H	0.418103	0.731216	0.151175
C173	C	1.729924	0.294065	0.123693
N174	N	1.818557	0.265062	0.172482
H175	H	0.485656	1.031524	-0.106744
H176	H	1.112131	0.575823	-0.480315
H177	H	1.524938	0.430949	0.106907
H178	H	1.005304	0.240653	0.674532
H179	H	1.112160	1.158350	-0.480228
H180	H	0.524847	1.158437	-0.693961
C181	C	0.881655	0.294074	0.477423
N182	N	0.832889	0.265076	0.468501
