data_functionalizedCrystal
_audit_creation_method	'MofGen! by Chris Wilmer'
_symmetry_space_group_name_H-M	'P1'
_symmetry_Int_Tables_number	1
_symmetry_cell_setting	triclinic
loop_
_symmetry_equiv_pos_as_xyz
  x,y,z
_cell_length_a	19.077105
_cell_length_b	13.032721
_cell_length_c	19.076929
_cell_angle_alpha	99.135035
_cell_angle_beta	90.078300
_cell_angle_gamma	95.201395
loop_
_atom_site_label
_atom_site_type_symbol
_atom_site_fract_x
_atom_site_fract_y
_atom_site_fract_z
Zn1	Zn	1.013382	-0.505323	-0.481828
Zn2	Zn	1.513382	-0.005323	0.018172
Zn3	Zn	1.003112	-0.673288	-0.378086
Zn4	Zn	1.503112	-0.173288	0.121914
Zn5	Zn	0.901846	-0.491339	-0.358476
Zn6	Zn	1.401846	0.008661	0.141524
Zn7	Zn	0.880986	-0.672650	-0.490786
Zn8	Zn	1.380986	-0.172650	0.009214
O9	O	0.949832	-0.585650	-0.427294
O10	O	1.449832	-0.085650	0.072706
O11	O	1.109808	-0.533723	-0.472524
O12	O	1.609808	-0.033723	0.027476
O13	O	0.994111	-0.643567	-0.276696
O14	O	1.494111	-0.143567	0.223304
O15	O	0.929670	-0.347020	-0.362882
O16	O	1.429670	0.152980	0.137118
O17	O	1.102262	-0.657127	-0.396306
O18	O	1.602262	-0.157127	0.103694
O19	O	1.011615	-0.357294	-0.453509
O20	O	1.511615	0.142706	0.046491
O21	O	0.919712	-0.509889	-0.262288
O22	O	1.419712	-0.009889	0.237712
O23	O	0.801291	-0.509270	-0.371569
O24	O	1.301291	-0.009270	0.128431
O25	O	0.894117	-0.656039	-0.588387
O26	O	1.394117	-0.156039	-0.088387
O27	O	0.785965	-0.642479	-0.468777
O28	O	1.285965	-0.142479	0.031223
O29	O	0.991388	-0.533104	-0.581805
O30	O	1.491388	-0.033104	-0.081805
O31	O	0.973883	-0.819377	-0.404992
O32	O	1.473883	-0.319377	0.095008
O33	O	0.884158	-0.818908	-0.487793
O34	O	1.384158	-0.318908	0.012207
C35	C	0.768272	-0.574288	-0.419017
C36	C	1.268272	-0.074288	0.080983
C37	C	0.690598	-0.569454	-0.415496
C38	C	1.190598	-0.069454	0.084504
C39	C	0.925661	-0.857046	-0.449509
C40	C	1.425661	-0.357046	0.050491
C41	C	0.915383	-0.973156	-0.459039
C42	C	1.415383	-0.473156	0.040961
C43	C	0.646139	-0.636634	-0.464389
C44	C	1.146139	-0.136634	0.035611
C45	C	0.573156	-0.632078	-0.461082
C46	C	1.073156	-0.132078	0.038918
C47	C	0.544634	-0.560347	-0.408878
C48	C	1.044634	-0.060347	0.091122
C49	C	0.589098	-0.493159	-0.359982
C50	C	1.089098	0.006841	0.140018
C51	C	0.662080	-0.497711	-0.363293
C52	C	1.162080	0.002289	0.136707
C53	C	0.327217	-0.539281	-0.393559
C54	C	0.827217	-0.039281	0.106441
C55	C	0.254230	-0.534737	-0.390251
C56	C	0.754230	-0.034737	0.109749
C57	C	0.238293	-0.673655	-0.491352
C58	C	0.738293	-0.173655	0.008648
C59	C	0.311277	-0.678205	-0.494656
C60	C	0.811277	-0.178205	0.005344
C61	C	0.355735	-0.611014	-0.445762
C62	C	0.855735	-0.111014	0.054238
N63	N	0.470034	-0.555690	-0.405495
N64	N	0.970034	-0.055690	0.094505
N65	N	0.430334	-0.615666	-0.449149
N66	N	0.930334	-0.115666	0.050851
C67	C	0.955231	-1.025123	-0.422354
C68	C	1.455231	-0.525123	0.077646
C69	C	0.944610	-1.145128	-0.432203
C70	C	1.444610	-0.645128	0.067797
C71	C	1.132100	-0.597056	-0.435603
C72	C	1.632100	-0.097056	0.064397
C73	C	1.209771	-0.601917	-0.439144
C74	C	1.709771	-0.101917	0.060856
C75	C	0.941571	-0.596060	-0.611427
C76	C	1.441571	-0.096060	-0.111427
C77	C	0.938050	-0.600496	-0.689893
C78	C	1.438050	-0.100496	-0.189893
C79	C	0.974115	-0.313196	-0.405009
C80	C	1.474115	0.186804	0.094991
C81	C	0.984464	-0.197093	-0.395512
C82	C	1.484464	0.302907	0.104488
C83	C	0.912799	-0.632397	-1.131949
C84	C	1.412799	-0.132397	-0.631949
C85	C	0.916106	-0.628214	-1.058220
C86	C	1.416106	-0.128214	-0.558220
C87	C	0.968405	-0.562122	-1.017933
C88	C	1.468405	-0.062122	-0.517933
C89	C	1.017398	-0.500203	-1.051378
C90	C	1.517398	-0.000203	-0.551378
C91	C	1.014088	-0.504382	-1.125105
C92	C	1.514088	-0.004382	-0.625105
C93	C	0.983733	-0.542756	-0.797065
C94	C	1.483733	-0.042756	-0.297065
C95	C	0.987040	-0.538584	-0.723333
C96	C	1.487040	-0.038584	-0.223333
C97	C	0.885747	-0.666593	-0.730181
C98	C	1.385747	-0.166593	-0.230181
C99	C	0.882444	-0.670771	-0.803909
C100	C	1.382444	-0.170771	-0.303909
C101	C	0.931434	-0.608848	-0.837347
C102	C	1.431434	-0.108848	-0.337347
N103	N	0.971788	-0.557847	-0.942571
N104	N	1.471788	-0.057847	-0.442571
N105	N	0.928048	-0.613119	-0.912708
N106	N	1.428048	-0.113119	-0.412708
C107	C	0.958107	-0.575207	-0.243873
C108	C	1.458107	-0.075207	0.256127
C109	C	0.961789	-0.570485	-0.165389
C110	C	1.461789	-0.070485	0.334611
H111	H	0.669356	-0.695049	-0.506898
H112	H	1.169356	-0.195049	-0.006898
H113	H	0.873407	-1.017508	-0.497741
H114	H	1.373407	-0.517508	0.002259
H115	H	0.902631	-1.189477	-0.470907
H116	H	1.402631	-0.689477	0.029093
H117	H	1.053978	-0.453963	-1.152330
H118	H	1.553978	0.046037	-0.652330
H119	H	0.536961	-0.686784	-0.500896
H120	H	1.036961	-0.186784	-0.000896
H121	H	0.202088	-0.728357	-0.531160
H122	H	0.702088	-0.228357	-0.031160
C123	C	0.288191	-0.815056	-0.594262
C124	C	0.788191	-0.315056	-0.094262
C125	C	0.342627	-0.757052	-0.552042
C126	C	0.842627	-0.257052	-0.052042
H127	H	0.307547	-0.863731	-0.629691
H128	H	0.807547	-0.363731	-0.129691
H129	H	0.257551	-0.851422	-0.565433
H130	H	0.757551	-0.351422	-0.065433
H131	H	0.262564	-0.769352	-0.616304
H132	H	0.762564	-0.269352	-0.116304
H133	H	0.368250	-0.802756	-0.529996
H134	H	0.868250	-0.302756	-0.029996
H135	H	0.373279	-0.720685	-0.580875
H136	H	0.873279	-0.220685	-0.080875
H137	H	1.026448	-1.152745	-0.356813
H138	H	1.526448	-0.652745	0.143187
C139	C	0.185112	-0.388523	-0.365401
C140	C	0.685112	0.111477	0.134599
C141	C	0.222887	-0.455854	-0.332875
C142	C	0.722887	0.044146	0.167125
H143	H	0.165763	-0.339825	-0.329983
H144	H	0.665763	0.160175	0.170017
H145	H	0.215762	-0.352185	-0.394236
H146	H	0.715762	0.147815	0.105764
H147	H	0.148185	-0.427899	-0.394035
H148	H	0.648185	0.072101	0.105965
H149	H	0.259819	-0.416478	-0.304246
H150	H	0.759819	0.083522	0.195754
H151	H	0.192236	-0.492195	-0.304028
H152	H	0.692236	0.007805	0.195972
C153	C	0.856503	-0.815394	-0.897841
C154	C	1.356503	-0.315394	-0.397841
C155	C	0.824959	-0.743443	-0.848183
C156	C	1.324959	-0.243443	-0.348183
H157	H	0.821016	-0.860271	-0.925168
H158	H	1.321016	-0.360271	-0.425168
H159	H	0.885191	-0.779119	-0.928313
H160	H	1.385191	-0.279119	-0.428313
H161	H	0.884686	-0.855599	-0.873717
H162	H	1.384686	-0.355599	-0.373717
H163	H	0.796780	-0.703233	-0.872307
H164	H	1.296780	-0.203233	-0.372307
H165	H	0.796259	-0.779721	-0.817707
H166	H	1.296259	-0.279721	-0.317707
H167	H	0.363407	-0.484577	-0.353742
H168	H	0.863407	0.015423	0.146258
H169	H	0.997213	-0.980773	-0.383657
H170	H	1.497213	-0.480773	0.116343
H171	H	0.870213	-0.686220	-1.164747
H172	H	1.370213	-0.186220	-0.664747
H173	H	0.876219	-0.678641	-1.030998
H174	H	1.376219	-0.178641	-0.530998
H175	H	0.845861	-0.717006	-0.702947
H176	H	1.345861	-0.217006	-0.202947
H177	H	1.029630	-0.484759	-0.690533
H178	H	1.529630	0.015241	-0.190533
H179	H	1.023627	-0.492340	-0.824282
H180	H	1.523627	0.007660	-0.324282
C181	C	0.484300	-0.424498	-0.310016
C182	C	0.984300	0.075502	0.189984
C183	C	0.557748	-0.414306	-0.302600
C184	C	1.057748	0.085694	0.197400
H185	H	0.464949	-0.375820	-0.274586
H186	H	0.964949	0.124180	0.225414
H187	H	0.471577	-0.411260	-0.355676
H188	H	0.971577	0.088740	0.144324
H189	H	0.466565	-0.493326	-0.304803
H190	H	0.966565	0.006674	0.195197
H191	H	0.575484	-0.345480	-0.307818
H192	H	1.075484	0.154520	0.192182
H193	H	0.570477	-0.427537	-0.256928
H194	H	1.070477	0.072463	0.243072
H195	H	1.059979	-0.446386	-1.018570
H196	H	1.559979	0.053614	-0.518570
H197	H	0.698278	-0.443000	-0.323481
H198	H	1.198278	0.057000	0.176519
