data_functionalizedCrystal
_audit_creation_method	'MofGen! by Chris Wilmer'
_symmetry_space_group_name_H-M	'P1'
_symmetry_Int_Tables_number	1
_symmetry_cell_setting	triclinic
loop_
_symmetry_equiv_pos_as_xyz
  x,y,z
_cell_length_a	14.971486
_cell_length_b	9.065218
_cell_length_c	14.048226
_cell_angle_alpha	89.995444
_cell_angle_beta	89.998499
_cell_angle_gamma	84.315007
loop_
_atom_site_label
_atom_site_type_symbol
_atom_site_fract_x
_atom_site_fract_y
_atom_site_fract_z
O1	O	1.188380	0.192261	-0.079047
O2	O	0.928151	0.215285	-0.079073
O3	O	1.063645	-0.010979	-0.079057
O4	O	1.052887	0.418524	-0.079062
O5	O	1.063628	-0.010992	0.079264
O6	O	0.928135	0.215271	0.079249
O7	O	1.188363	0.192248	0.079274
Zn8	Zn	1.058246	0.203758	0.104398
Zn9	Zn	1.058268	0.203775	-0.104197
O10	O	1.052870	0.418511	0.079259
C11	C	0.894811	0.214248	0.000085
C12	C	0.795491	0.211163	0.000075
C13	C	1.062602	-0.065951	0.000102
C14	C	1.059511	-0.229731	0.000097
C15	C	0.739256	0.344086	0.000075
C16	C	0.645935	0.341178	0.000089
C17	C	0.608850	0.205345	0.000097
C18	C	0.665092	0.072412	0.000100
C19	C	0.758411	0.075321	0.000092
C20	C	0.470584	0.066357	0.000113
C21	C	0.377259	0.063446	0.000118
C22	C	0.358108	0.332214	0.000110
C23	C	0.451427	0.335123	0.000102
C24	C	0.507663	0.202189	0.000103
C25	C	1.221704	0.193284	0.000115
C26	C	1.321024	0.196370	0.000118
C27	C	1.053912	0.473483	0.000098
C28	C	1.057004	0.637264	0.000097
N29	N	1.058238	0.203745	0.246759
N30	N	1.058284	0.203776	-0.246557
C31	C	1.118254	0.103597	0.296584
C32	C	1.118260	0.103596	0.396242
C33	C	1.058254	0.203751	0.446073
C34	C	0.998231	0.303904	0.396241
C35	C	0.998222	0.303896	0.296585
C36	C	0.998257	0.303915	0.603955
C37	C	0.998268	0.303924	0.703618
C38	C	1.118295	0.103614	0.703612
C39	C	1.118286	0.103607	0.603956
C40	C	1.058264	0.203762	0.554131
H41	H	0.769442	0.454697	0.000068
C42	C	1.183467	-0.004946	0.242410
C43	C	1.238870	0.073731	0.185171
C44	C	1.298943	-0.026231	0.135255
H45	H	1.150854	-0.066450	0.203484
H46	H	1.219264	-0.064608	0.286310
H47	H	1.203077	0.133367	0.141277
H48	H	1.271503	0.135229	0.224074
H49	H	1.334740	-0.085893	0.179155
H50	H	1.266323	-0.087729	0.096334
H51	H	1.336546	0.027137	0.096419
H52	H	0.634890	-0.038186	0.000119
H53	H	0.804197	-0.032919	0.000092
H54	H	0.949350	0.385445	0.256019
C55	C	0.491735	0.482562	-0.000120
C56	C	0.544720	0.492085	-0.081597
C57	C	0.581851	0.627896	-0.081846
H58	H	0.527810	0.489446	0.055017
H59	H	0.444898	0.561351	-0.000175
H60	H	0.591550	0.413318	-0.081534
H61	H	0.508665	0.485227	-0.136747
H62	H	0.535015	0.706685	-0.081900
H63	H	0.617923	0.634768	-0.026705
H64	H	0.617799	0.634381	-0.137130
H65	H	1.167128	0.022047	0.436808
C66	C	1.183474	-0.005296	0.550023
C67	C	1.236023	-0.093034	0.614984
C68	C	1.296075	-0.193387	0.565337
H69	H	1.221212	0.047706	0.511133
H70	H	1.150819	-0.066880	0.511178
H71	H	1.268676	-0.031458	0.653813
H72	H	1.198310	-0.146069	0.653877
H73	H	1.263420	-0.254971	0.526492
H74	H	1.333807	-0.140373	0.526448
H75	H	1.331731	-0.252938	0.609405
H76	H	0.347068	-0.047161	0.000126
C77	C	0.932988	0.412420	0.549808
C78	C	0.877578	0.333682	0.492629
C79	C	0.817438	0.433589	0.442745
H80	H	0.965550	0.473957	0.510845
H81	H	0.897202	0.472052	0.593728
H82	H	0.913359	0.274075	0.448714
H83	H	0.844995	0.272150	0.531568
H84	H	0.781652	0.493221	0.486665
H85	H	0.850008	0.495121	0.403788
H86	H	0.779830	0.380180	0.403950
C87	C	0.296953	0.476436	-0.000039
C88	C	0.242798	0.482600	-0.081474
C89	C	0.186440	0.615421	-0.081644
H90	H	0.332295	0.557867	-0.000099
H91	H	0.260101	0.480908	0.055147
H92	H	0.279645	0.478142	-0.136645
H93	H	0.207436	0.401199	-0.081430
H94	H	0.149589	0.619892	-0.026458
H95	H	0.221790	0.696841	-0.081702
H96	H	0.149684	0.619614	-0.136892
H97	H	1.167166	0.022064	0.744185
C98	C	0.933004	0.412704	0.757551
C99	C	0.880412	0.500372	0.692589
C100	C	0.820268	0.600575	0.742237
H101	H	0.965562	0.474362	0.796425
H102	H	0.895310	0.359541	0.796412
H103	H	0.918101	0.553531	0.653745
H104	H	0.847835	0.438755	0.653713
H105	H	0.782574	0.547412	0.781098
H106	H	0.852834	0.662222	0.781110
H107	H	0.784572	0.660060	0.698169
H108	H	0.600152	0.449418	0.000088
H109	H	0.516370	-0.041893	0.000115
H110	H	0.949369	0.385447	0.436819
