data_functionalizedCrystal
_audit_creation_method	'MofGen! by Chris Wilmer'
_symmetry_space_group_name_H-M	'P1'
_symmetry_Int_Tables_number	1
_symmetry_cell_setting	triclinic
loop_
_symmetry_equiv_pos_as_xyz
  x,y,z
_cell_length_a	14.853566
_cell_length_b	17.699083
_cell_length_c	16.176319
_cell_angle_alpha	90.007696
_cell_angle_beta	89.995436
_cell_angle_gamma	96.541286
loop_
_atom_site_label
_atom_site_type_symbol
_atom_site_fract_x
_atom_site_fract_y
_atom_site_fract_z
O1	O	1.196005	-0.098812	-0.068694
O2	O	0.933502	-0.110585	-0.068707
O3	O	1.072170	0.005472	-0.068693
O4	O	1.057337	-0.214868	-0.068708
O5	O	1.072151	0.005479	0.068800
O6	O	0.933483	-0.110577	0.068786
O7	O	1.195986	-0.098805	0.068800
Cu8	Cu	1.064733	-0.104690	0.081347
Cu9	Cu	1.064755	-0.104699	-0.081255
O10	O	1.057318	-0.214861	0.068785
C11	C	0.899906	-0.110048	0.000037
C12	C	0.799828	-0.108450	0.000032
C13	C	0.376678	-0.101695	-0.074900
C14	C	0.376679	-0.101687	0.075000
C15	C	0.470708	-0.103188	0.074998
C16	C	0.517726	-0.103943	0.000045
C17	C	0.470715	-0.103198	-0.074905
C18	C	0.517724	-0.103941	0.149946
C19	C	0.611758	-0.105443	0.149947
C20	C	0.658779	-0.106192	0.074993
C21	C	0.611763	-0.105446	0.000040
C22	C	0.658781	-0.106201	-0.074913
C23	C	0.611767	-0.105450	-0.149867
C24	C	0.517736	-0.103948	-0.149859
C25	C	0.752810	-0.107694	0.074985
C26	C	0.752818	-0.107704	-0.074918
C27	C	1.071629	0.033674	0.000054
C28	C	1.070035	0.117696	0.000054
C29	C	1.229582	-0.099342	0.000053
C30	C	1.329660	-0.100940	0.000053
C31	C	1.057859	-0.243063	0.000036
C32	C	1.059454	-0.327085	0.000031
N33	N	1.064724	-0.104684	0.195712
C34	C	1.151430	0.166106	0.000060
C35	C	1.149926	0.245053	0.000052
C36	C	1.067027	0.275589	0.000045
C37	C	0.985625	0.227172	0.000037
C38	C	0.987130	0.148227	0.000039
C39	C	0.979556	0.545551	0.000030
C40	C	0.978058	0.624503	0.000031
C41	C	1.142352	0.642378	0.000044
C42	C	1.143857	0.563432	0.000045
C43	C	1.062456	0.515023	0.000033
C44	C	1.064087	0.429419	0.000039
C45	C	1.065394	0.361191	0.000045
N46	N	1.064772	-0.104700	-0.195620
C47	C	1.126144	-0.053315	0.238983
C48	C	1.126149	-0.053314	0.325530
C49	C	1.064736	-0.104686	0.368805
C50	C	1.003309	-0.156057	0.325528
C51	C	1.003301	-0.156054	0.238982
C52	C	1.003340	-0.156072	0.674556
C53	C	1.003355	-0.156073	0.761108
C54	C	1.126188	-0.053332	0.761104
C55	C	1.126180	-0.053329	0.674558
C56	C	1.064750	-0.104697	0.631289
C57	C	1.064744	-0.104696	0.537445
C58	C	1.064745	-0.104691	0.462647
H59	H	0.479449	-0.103335	-0.210882
H60	H	0.920849	0.108811	0.000034
C61	C	1.231897	0.695630	0.000047
C62	C	1.253446	0.752374	0.071441
C63	C	1.342987	0.805624	0.071447
C64	C	1.410981	0.802130	0.000059
C65	C	1.389434	0.745384	-0.071341
C66	C	1.299892	0.692134	-0.071347
H67	H	1.203112	0.754962	0.124292
H68	H	1.358937	0.847631	0.124302
H69	H	1.477265	0.841549	0.000063
H70	H	1.439768	0.742796	-0.124191
H71	H	1.283942	0.650127	-0.124202
H72	H	0.650029	-0.106053	0.210979
C73	C	0.935753	-0.212569	0.373126
C74	C	0.935800	-0.212615	0.468322
C75	C	0.868244	-0.269130	0.515917
C76	C	0.800641	-0.325599	0.468315
C77	C	0.800592	-0.325555	0.373114
C78	C	0.868148	-0.269040	0.325519
H79	H	0.985846	-0.170812	0.503565
H80	H	0.868281	-0.269163	0.586392
H81	H	0.750632	-0.367435	0.503548
H82	H	0.750546	-0.367359	0.337871
H83	H	0.868111	-0.269007	0.255044
C84	C	0.894435	0.260762	0.000024
C85	C	0.870793	0.312585	0.071417
C86	C	0.779602	0.346173	0.071405
C87	C	0.712052	0.327939	-0.000001
C88	C	0.735693	0.276113	-0.071399
C89	C	0.826884	0.242525	-0.071387
H90	H	0.920799	0.326085	0.124281
H91	H	0.762102	0.384538	0.124259
H92	H	0.644547	0.352803	-0.000010
H93	H	0.685687	0.262613	-0.124263
H94	H	0.844384	0.204160	-0.124241
H95	H	0.650061	-0.106070	-0.210893
C96	C	1.193732	0.003182	0.626955
C97	C	1.262603	-0.026495	0.567439
C98	C	1.330154	0.030019	0.519837
C99	C	1.328834	0.116210	0.531751
C100	C	1.259960	0.145891	0.591270
C101	C	1.192409	0.089377	0.638872
H102	H	1.263583	-0.090302	0.558618
H103	H	1.381139	0.008047	0.475778
H104	H	1.378839	0.158045	0.496513
H105	H	1.258980	0.209698	0.600092
H106	H	1.141424	0.111349	0.682932
H107	H	1.176205	-0.011503	0.796343
H108	H	0.910547	0.649362	0.000027
C109	C	1.193700	0.003196	0.191385
C110	C	1.261257	0.059704	0.238987
C111	C	1.328813	0.116219	0.191392
C112	C	1.328812	0.116227	0.096195
C113	C	1.261253	0.059717	0.048588
C114	C	1.193697	0.003202	0.096183
H115	H	1.261260	0.059700	0.309462
H116	H	1.378825	0.158051	0.226634
H117	H	1.378821	0.158063	0.060963
H118	H	1.261250	0.059721	-0.021887
H119	H	1.143685	-0.038630	0.060940
H120	H	0.338396	-0.101080	-0.135926
H121	H	0.791094	-0.108317	-0.135954
C122	C	0.804516	-0.108526	0.157428
C123	C	0.879540	-0.043891	0.178060
C124	C	0.931243	-0.044724	0.260511
C125	C	0.907921	-0.110190	0.322329
C126	C	0.832893	-0.174830	0.301699
C127	C	0.781191	-0.173997	0.219249
H128	H	0.896808	0.004575	0.132297
H129	H	0.986783	0.003127	0.275782
H130	H	0.946194	-0.110806	0.383364
H131	H	0.815626	-0.223296	0.347462
H132	H	0.725651	-0.221848	0.203977
H133	H	1.218936	0.141250	0.000070
H134	H	0.953285	-0.197882	0.203752
C135	C	0.324958	-0.100862	0.157443
C136	C	0.327503	-0.166737	0.219269
C137	C	0.275777	-0.165912	0.301715
C138	C	0.221506	-0.099212	0.322335
C139	C	0.218959	-0.033333	0.260508
C140	C	0.270685	-0.034157	0.178062
H141	H	0.367680	-0.216116	0.204006
H142	H	0.277662	-0.214681	0.347483
H143	H	0.183215	-0.098602	0.383366
H144	H	0.178783	0.016047	0.275771
H145	H	0.268800	0.014611	0.132293
H146	H	0.953324	-0.197898	0.639333
C147	C	0.465998	-0.103119	0.232387
C148	C	0.468530	-0.169000	0.294206
C149	C	0.416797	-0.168180	0.376648
C150	C	0.362531	-0.101477	0.397272
C151	C	0.359997	-0.035591	0.335451
C152	C	0.411731	-0.036411	0.253009
H153	H	0.508703	-0.218382	0.278940
H154	H	0.418673	-0.216953	0.422412
H155	H	0.324235	-0.100870	0.458301
H156	H	0.319825	0.013790	0.350717
H157	H	0.409854	0.012362	0.207245
C158	C	1.239462	0.298304	0.000058
C159	C	1.330650	0.264718	0.000072
C160	C	1.420191	0.317969	0.000075
C161	C	1.418544	0.404807	0.000065
C162	C	1.327352	0.438398	0.000051
C163	C	1.237812	0.385147	0.000048
H164	H	1.331873	0.200431	0.000079
H165	H	1.487696	0.293102	0.000085
H166	H	1.484827	0.444227	0.000067
H167	H	1.326130	0.502685	0.000044
H168	H	1.170306	0.410014	0.000038
H169	H	0.953342	-0.197907	0.796341
H170	H	1.211362	0.538575	0.000055
H171	H	0.913274	0.506145	0.000020
H172	H	1.176161	-0.011486	0.360760
