data_functionalizedCrystal
_audit_creation_method	'MofGen! by Chris Wilmer'
_symmetry_space_group_name_H-M	'P1'
_symmetry_Int_Tables_number	1
_symmetry_cell_setting	triclinic
loop_
_symmetry_equiv_pos_as_xyz
  x,y,z
_cell_length_a	13.032831
_cell_length_b	12.759400
_cell_length_c	13.032268
_cell_angle_alpha	82.849813
_cell_angle_beta	89.113023
_cell_angle_gamma	82.819639
loop_
_atom_site_label
_atom_site_type_symbol
_atom_site_fract_x
_atom_site_fract_y
_atom_site_fract_z
Zn1	Zn	1.498516	-0.709532	0.780845
Zn2	Zn	1.520267	-0.866067	0.608867
Zn3	Zn	1.348373	-0.665643	0.587085
Zn4	Zn	1.326515	-0.860387	0.758992
O5	O	1.423418	-0.775407	0.683947
O6	O	1.645323	-0.751042	0.776293
O7	O	1.515715	-0.823490	0.462060
O8	O	1.368334	-0.524453	0.612817
O9	O	1.661303	-0.866048	0.649941
O10	O	1.478644	-0.556699	0.755172
O11	O	1.389425	-0.676239	0.446057
O12	O	1.201551	-0.670731	0.591628
O13	O	1.331081	-0.856366	0.905808
O14	O	1.185493	-0.813808	0.717927
O15	O	1.457450	-0.745534	0.921863
O16	O	1.494520	-1.012325	0.628751
O17	O	1.352172	-1.008152	0.739048
C18	C	1.156205	-0.736891	0.650043
C19	C	1.041887	-0.720442	0.635563
C20	C	0.983014	-0.783992	0.691504
C21	C	0.864860	-0.766993	0.676540
C22	C	1.423359	-1.048363	0.683918
C23	C	1.423424	-1.165153	0.683952
C24	C	1.497609	-1.222171	0.626602
C25	C	1.497668	-1.331908	0.626642
C26	C	1.349348	-1.327596	0.741382
C27	C	1.349295	-1.217863	0.741348
C28	C	1.571738	-1.169461	0.569206
C29	C	1.645929	-1.226480	0.511852
C30	C	1.645988	-1.336216	0.511891
C31	C	1.571857	-1.388934	0.569286
C32	C	1.691674	-0.814074	0.717984
C33	C	1.805989	-0.830552	0.732489
C34	C	1.389401	-0.805212	0.952195
C35	C	1.374905	-0.817913	1.066506
C36	C	1.423501	-0.501392	0.684002
C37	C	1.423537	-0.384623	0.684026
C38	C	1.457361	-0.745651	0.416751
C39	C	1.472056	-0.732683	0.302465
C40	C	1.430967	-0.768738	1.125413
C41	C	1.415986	-0.781864	1.243560
H42	H	1.004816	-0.653445	0.576595
C43	C	1.361641	-0.956208	1.270435
C44	C	1.336212	-0.851826	1.293534
H45	H	1.312388	-0.999395	1.301282
H46	H	1.428519	-0.983470	1.296761
H47	H	1.361244	-0.956549	1.197593
H48	H	1.336616	-0.851484	1.366376
H49	H	1.269317	-0.824557	1.267213
C50	C	0.891862	-0.621031	0.548061
C51	C	0.814834	-0.676544	0.596924
H52	H	0.860974	-0.565190	0.498916
H53	H	0.938746	-0.668348	0.513912
H54	H	0.928092	-0.591894	0.598218
H55	H	0.778609	-0.705689	0.546767
H56	H	0.767932	-0.629219	0.631073
H57	H	1.571696	-1.080107	0.569164
H58	H	1.706403	-1.382640	0.465198
C59	C	1.168839	-1.341955	0.769255
C60	C	1.267861	-1.385537	0.804462
H61	H	1.118531	-1.377720	0.808202
H62	H	1.162621	-1.350148	0.698255
H63	H	1.158203	-1.268442	0.777447
H64	H	1.278500	-1.459049	0.796263
H65	H	1.274081	-1.377354	0.875479
C66	C	1.320564	-0.992253	1.093385
C67	C	1.295135	-0.887871	1.116484
H68	H	1.271311	-1.035441	1.124233
H69	H	1.387442	-1.019515	1.119712
H70	H	1.320167	-0.992594	1.020543
H71	H	1.295539	-0.887529	1.189327
H72	H	1.228240	-0.860602	1.090163
H73	H	1.571918	-1.478291	0.569323
H74	H	1.490051	-0.716916	1.088378
C75	C	1.086458	-0.831454	0.845024
C76	C	1.033049	-0.874434	0.771116
H77	H	1.117351	-0.887292	0.894169
H78	H	1.039559	-0.784149	0.879170
H79	H	1.138699	-0.793785	0.811853
H80	H	0.980802	-0.912096	0.804286
H81	H	1.079952	-0.921757	0.736966
H82	H	0.843052	-0.897545	0.791471
C83	C	1.551206	-0.663226	1.145118
C84	C	1.551811	-0.662700	1.252485
H85	H	1.600441	-0.620020	1.114265
H86	H	1.484317	-0.635972	1.118816
H87	H	1.568466	-0.734044	1.129460
H88	H	1.534543	-0.591883	1.268144
H89	H	1.618715	-0.689950	1.278797
H90	H	1.706289	-1.183553	0.465129
C91	C	1.276976	-1.196147	0.909071
C92	C	1.267756	-1.155177	0.804390
H93	H	1.226636	-1.157449	0.947992
H94	H	1.344140	-1.189734	0.932920
H95	H	1.266388	-1.269041	0.917292
H96	H	1.278351	-1.082284	0.796167
H97	H	1.200576	-1.161579	0.780533
