data_functionalizedCrystal
_audit_creation_method	'MofGen! by Chris Wilmer'
_symmetry_space_group_name_H-M	'P1'
_symmetry_Int_Tables_number	1
_symmetry_cell_setting	triclinic
loop_
_symmetry_equiv_pos_as_xyz
  x,y,z
_cell_length_a	11.026607
_cell_length_b	15.995350
_cell_length_c	10.065875
_cell_angle_alpha	98.791555
_cell_angle_beta	79.302338
_cell_angle_gamma	96.039196
loop_
_atom_site_label
_atom_site_type_symbol
_atom_site_fract_x
_atom_site_fract_y
_atom_site_fract_z
O1	O	1.627917	0.340991	-0.113481
O2	O	1.274611	0.301065	-0.113484
O3	O	1.460922	0.200596	-0.113481
O4	O	1.441606	0.441460	-0.113484
O5	O	1.425395	0.219853	0.113507
O6	O	1.239084	0.320322	0.113504
O7	O	1.592390	0.360247	0.113508
Zn8	Zn	1.410096	0.343342	0.149545
Zn9	Zn	1.456905	0.317971	-0.149522
O10	O	1.406079	0.460716	0.113504
C11	C	1.211637	0.303328	0.000010
C12	C	1.076923	0.281371	0.000008
C13	C	1.003118	0.341997	0.000007
C14	C	0.863884	0.319305	0.000005
C15	C	1.442360	0.178909	0.000011
C16	C	1.439967	0.085597	0.000003
C17	C	1.431369	-0.253446	0.000007
C18	C	1.298762	-0.226055	-0.000503
C19	C	1.301076	-0.128960	0.000009
C20	C	1.435634	-0.085243	0.000004
C21	C	1.480793	-0.105459	0.129624
C22	C	1.477442	-0.202588	0.129732
C23	C	1.520584	-0.224432	-0.128396
C24	C	1.520821	-0.127636	-0.130109
C25	C	1.438051	0.009819	0.000007
C26	C	1.428955	-0.348507	0.000014
C27	C	1.655365	0.357984	0.000011
C28	C	1.790080	0.379940	0.000003
C29	C	1.424641	0.482403	0.000010
C30	C	1.427036	0.575714	0.000009
N31	N	1.378160	0.360658	0.353650
N32	N	1.488851	0.300649	-0.353627
C33	C	1.445785	0.323989	0.421430
C34	C	1.421215	0.337324	0.578597
H35	H	0.829963	0.448650	0.000012
H36	H	1.234718	-0.101006	0.093083
N37	N	1.320416	0.391982	0.655840
H38	H	1.357728	0.440989	0.715120
H39	H	1.278695	0.414559	0.588929
N40	N	1.209653	-0.252149	0.121939
H41	H	1.140323	-0.292131	0.090300
H42	H	1.254906	-0.281601	0.177685
H43	H	1.521868	0.282719	0.363107
N44	N	1.483495	-0.271333	-0.258537
H45	H	1.554146	-0.304244	-0.312380
H46	H	1.408454	-0.311827	-0.235460
H47	H	1.573939	-0.219655	0.135610
H48	H	1.260276	-0.260465	-0.093456
H49	H	1.487979	-0.115735	-0.225998
N50	N	1.024097	0.190364	0.000026
H51	H	0.932119	0.187054	0.000028
H52	H	1.065646	0.154441	-0.084119
H53	H	1.620171	-0.098149	-0.137938
N54	N	1.650354	-0.247064	-0.129564
H55	H	1.651410	-0.275970	-0.047369
H56	H	1.678315	-0.286622	-0.215611
N57	N	1.277366	0.415314	0.430899
H58	H	1.314677	0.464321	0.490178
H59	H	1.235644	0.437891	0.363988
N60	N	1.589650	0.245990	0.569135
H61	H	1.631404	0.223352	0.635963
H62	H	1.552252	0.197026	0.509857
N63	N	1.055940	0.433007	0.000015
H64	H	1.147917	0.436317	0.000016
H65	H	1.040729	0.454649	-0.084134
N66	N	0.811063	0.228293	0.000023
H67	H	0.719086	0.224983	0.000025
H68	H	0.852612	0.192370	-0.084122
H69	H	1.264174	-0.116175	-0.092908
H70	H	1.578894	-0.076025	0.134441
N71	N	1.394142	-0.225480	0.258076
H72	H	1.359938	-0.172505	0.314048
H73	H	1.323609	-0.266799	0.232851
N74	N	1.400589	-0.066092	0.257393
H75	H	1.311896	-0.089901	0.258682
H76	H	1.430475	-0.079458	0.340182
