data_functionalizedCrystal
_audit_creation_method	'MofGen! by Chris Wilmer'
_symmetry_space_group_name_H-M	'P1'
_symmetry_Int_Tables_number	1
_symmetry_cell_setting	triclinic
loop_
_symmetry_equiv_pos_as_xyz
  x,y,z
_cell_length_a	10.540539
_cell_length_b	27.732048
_cell_length_c	9.616153
_cell_angle_alpha	89.992780
_cell_angle_beta	89.995174
_cell_angle_gamma	83.584073
loop_
_atom_site_label
_atom_site_type_symbol
_atom_site_fract_x
_atom_site_fract_y
_atom_site_fract_z
O1	O	1.682934	0.068112	-0.115597
O2	O	1.313243	0.074530	-0.115616
O3	O	1.509570	0.000996	-0.115579
O4	O	1.486607	0.141645	-0.115634
O5	O	1.509544	0.000998	0.115712
O6	O	1.313216	0.074531	0.115676
O7	O	1.682908	0.068113	0.115694
Zn8	Zn	1.498058	0.071323	0.152407
Zn9	Zn	1.498093	0.071320	-0.152329
O10	O	1.486580	0.141647	0.115658
C11	C	1.265947	0.074049	0.000028
C12	C	1.125062	0.072609	0.000022
C13	C	0.944031	0.017434	0.000583
C14	C	1.090586	0.018894	0.000047
C15	C	1.062282	0.098458	-0.132062
C16	C	0.915817	0.096625	-0.132157
C17	C	0.915251	0.097720	0.130864
C18	C	1.062211	0.098214	0.132595
C19	C	1.509075	-0.017013	0.000070
C20	C	1.507623	-0.070677	0.000081
C21	C	1.614502	-0.408819	0.000015
C22	C	1.609117	-0.610513	-0.000004
O23	O	1.706850	-0.641153	-0.000060
N24	N	1.492703	-0.630369	-0.000009
C25	C	1.377627	-0.599799	-0.000018
O26	O	1.278486	-0.621317	-0.000036
C27	C	1.383013	-0.398107	-0.000008
C28	C	1.499435	-0.378253	0.000011
C29	C	1.730915	-0.388965	0.000033
C30	C	1.732260	-0.338544	0.000045
C31	C	1.617193	-0.307978	0.000040
C32	C	1.500780	-0.327832	0.000023
C33	C	1.267939	-0.367538	-0.000027
C34	C	1.269296	-0.317112	-0.000028
C35	C	1.385718	-0.297258	-0.000009
C36	C	1.387058	-0.246846	0.000031
N37	N	1.503472	-0.226989	0.000036
C38	C	1.618540	-0.257555	0.000040
C39	C	1.374807	-0.705691	-0.000020
C40	C	1.373460	-0.756114	-0.000020
C41	C	1.604950	-0.766824	-0.000009
C42	C	1.606296	-0.716400	0.000001
C43	C	1.491221	-0.685834	-0.000015
C44	C	1.621356	-0.151668	0.000068
C45	C	1.622691	-0.101243	0.000086
C46	C	1.391201	-0.090538	0.000068
C47	C	1.389865	-0.140959	0.000057
C48	C	1.504953	-0.171523	0.000052
O49	O	1.289377	-0.216177	0.000071
O50	O	1.717666	-0.236029	0.000028
C51	C	1.613157	-0.459239	0.000003
C52	C	1.496745	-0.479094	-0.000014
C53	C	1.381678	-0.448528	-0.000019
C54	C	1.495398	-0.529517	-0.000014
C55	C	1.610465	-0.560083	-0.000009
C56	C	1.726879	-0.540226	-0.000005
C57	C	1.728224	-0.489806	0.000008
C58	C	1.265264	-0.468384	-0.000023
C59	C	1.263928	-0.518805	-0.000034
C60	C	1.378995	-0.549371	-0.000030
C61	C	1.730203	0.068594	0.000048
C62	C	1.871089	0.070034	0.000044
C63	C	1.487075	0.159656	0.000005
C64	C	1.488527	0.213320	-0.000015
N65	N	1.498043	0.071324	0.360382
N66	N	1.498118	0.071316	-0.360303
C67	C	1.392711	0.110527	0.580733
C68	C	1.392932	0.110674	0.419565
C69	C	1.630268	0.082797	0.418833
C70	C	1.629691	0.083074	0.580051
C71	C	1.472477	0.020519	0.580311
C72	C	1.469416	0.020848	0.419084
H73	H	1.134072	-0.001446	0.094731
N74	N	1.736592	0.046006	0.368038
H75	H	1.820692	0.054090	0.406883
H76	H	1.720378	0.012559	0.400114
N77	N	1.659789	0.132167	0.629832
H78	H	1.659709	0.132839	0.734845
H79	H	1.746651	0.138396	0.594320
H80	H	1.281093	-0.680808	-0.000033
H81	H	1.295065	-0.157124	0.000081
N82	N	1.340572	0.009346	0.368473
H83	H	1.351244	-0.021739	0.312872
H84	H	1.283266	0.005388	0.450909
N85	N	1.855033	-0.421928	0.000039
H86	H	1.928972	-0.401692	0.000051
H87	H	1.859509	-0.443083	0.085787
N88	N	1.267097	-0.057565	0.000101
H89	H	1.285626	-0.022611	0.000115
H90	H	1.216313	-0.064028	-0.085640
N91	N	1.850990	-0.573199	0.000013
H92	H	1.832458	-0.608152	0.000005
H93	H	1.901782	-0.566722	-0.085726
H94	H	0.884448	0.080337	0.230982
H95	H	1.082922	0.137906	-0.136991
N96	N	0.907384	-0.010676	0.126062
H97	H	0.843138	0.010411	0.183778
H98	H	0.868648	-0.040527	0.094459
H99	H	1.710524	0.055665	0.619053
N100	N	1.853794	-0.468395	0.000030
H101	H	1.926474	-0.495416	0.000031
H102	H	1.859415	-0.447704	-0.085709
N103	N	1.661155	0.131330	0.365319
H104	H	1.589691	0.145952	0.303229
H105	H	1.671112	0.153733	0.446426
N106	N	0.850048	0.147794	-0.140151
H107	H	0.754482	0.147003	-0.140280
H108	H	0.875234	0.166901	-0.057142
H109	H	1.541271	-0.009733	0.378804
N110	N	1.413988	0.160164	0.634336
H111	H	1.336712	0.174229	0.688922
H112	H	1.491636	0.157314	0.696582
N113	N	1.262699	0.101544	0.367193
H114	H	1.270649	0.071124	0.308637
H115	H	1.204689	0.097409	0.448905
H116	H	1.378214	0.009599	0.621048
H117	H	1.105661	0.080501	-0.230347
H118	H	1.701097	-0.700239	0.000015
H119	H	1.169116	-0.534965	-0.000037
H120	H	1.084736	0.137377	0.140555
N121	N	0.879558	0.071309	-0.262906
H122	H	0.784245	0.069866	-0.264274
H123	H	0.905204	0.089848	-0.346856
N124	N	1.142368	-0.388943	-0.000029
H125	H	1.069691	-0.361922	-0.000035
H126	H	1.136765	-0.409627	-0.085771
N127	N	1.748270	-0.079834	0.000103
H128	H	1.754003	-0.059145	-0.085630
H129	H	1.753906	-0.059183	0.085907
N130	N	0.905224	-0.010567	-0.124138
H131	H	0.840602	0.010672	-0.180990
H132	H	0.982894	-0.020846	-0.183029
N133	N	0.850471	0.149113	0.132035
H134	H	0.792793	0.154457	0.048285
H135	H	0.798145	0.154707	0.219716
H136	H	1.715071	-0.176549	0.000059
H137	H	1.171560	-0.443502	-0.000030
N138	N	1.574305	-0.018143	0.630812
H139	H	1.636753	-0.002856	0.691859
H140	H	1.533254	-0.043243	0.685945
N141	N	1.117532	0.073204	0.262038
H142	H	1.183033	0.045403	0.234932
H143	H	1.159505	0.097158	0.320606
H144	H	1.175585	-0.292227	-0.000043
H145	H	1.827062	-0.322384	0.000055
H146	H	1.698643	-0.791720	-0.000005
H147	H	1.278658	-0.772274	-0.000011
N148	N	1.262058	0.101529	0.632137
H149	H	1.269921	0.071949	0.694150
H150	H	1.223209	0.130675	0.686467
H151	H	1.409195	0.148361	0.380972
H152	H	1.133231	-0.001590	-0.094785
