data_functionalizedCrystal
_audit_creation_method	'MofGen! by Chris Wilmer'
_symmetry_space_group_name_H-M	'P1'
_symmetry_Int_Tables_number	1
_symmetry_cell_setting	triclinic
loop_
_symmetry_equiv_pos_as_xyz
  x,y,z
_cell_length_a	16.109301
_cell_length_b	16.776229
_cell_length_c	16.109301
_cell_angle_alpha	89.991926
_cell_angle_beta	96.538519
_cell_angle_gamma	90.004422
loop_
_atom_site_label
_atom_site_type_symbol
_atom_site_fract_x
_atom_site_fract_y
_atom_site_fract_z
O1	O	1.103135	0.066240	-0.106869
O2	O	0.861073	0.066253	-0.120168
O3	O	0.988754	0.066238	0.007512
O4	O	0.975454	0.066255	-0.234550
O5	O	0.988737	-0.066338	0.007520
O6	O	0.861056	-0.066323	-0.120161
O7	O	1.103118	-0.066336	-0.106861
Zn8	Zn	0.982084	-0.087379	-0.113510
Zn9	Zn	0.982107	0.087296	-0.113520
O10	O	0.975437	-0.066321	-0.234542
C11	C	0.830090	-0.000033	-0.119626
C12	C	0.737794	-0.000029	-0.118011
N13	N	0.982075	-0.206590	-0.113502
C14	C	0.515522	-0.000033	-0.190018
C15	C	0.428801	-0.000038	-0.188494
C16	C	0.448676	-0.000045	-0.037006
C17	C	0.535394	-0.000046	-0.038530
C18	C	0.568815	-0.000036	-0.115039
C19	C	0.395376	-0.000040	-0.111990
C20	C	0.301350	-0.000046	-0.110337
C21	C	0.662847	-0.000031	-0.116693
C22	C	1.038629	-0.248314	-0.056988
C23	C	1.038634	-0.331766	-0.056988
C24	C	0.982088	-0.373493	-0.113505
C25	C	0.925527	-0.331764	-0.170022
C26	C	0.925519	-0.248313	-0.170018
C27	C	0.925557	-0.668311	-0.170038
C28	C	0.925571	-0.751767	-0.170039
C29	C	1.038672	-0.751764	-0.057008
C30	C	1.038664	-0.668313	-0.057004
C31	C	0.982101	-0.626591	-0.113517
C32	C	0.982096	-0.536103	-0.113516
C33	C	0.982096	-0.463980	-0.113511
C34	C	1.134101	-0.000048	-0.107404
C35	C	1.226397	-0.000047	-0.109019
C36	C	0.988206	-0.000050	0.038491
C37	C	0.986591	-0.000051	0.130786
N38	N	0.982122	0.206507	-0.113521
C39	C	0.975984	-0.000031	-0.265521
C40	C	0.977600	-0.000025	-0.357816
C41	C	1.058599	-0.000043	0.353059
C42	C	1.057075	-0.000036	0.439779
C43	C	0.905586	-0.000031	0.419905
C44	C	0.907111	-0.000032	0.333186
C45	C	0.983620	-0.000042	0.299766
C46	C	0.980571	-0.000034	0.473205
C47	C	0.978918	-0.000027	0.567231
C48	C	0.985273	-0.000047	0.205734
H49	H	0.542730	-0.000030	-0.252317
C50	C	1.100886	-0.797666	0.005166
N51	N	1.147744	-0.832238	0.051993
H52	H	0.843295	-0.000024	0.447127
H53	H	0.846050	-0.000029	0.289792
H54	H	1.120897	-0.000049	0.325851
H55	H	0.385413	-0.000038	-0.249550
C56	C	0.411905	-0.000049	0.047150
N57	N	0.384210	-0.000049	0.110538
H58	H	0.879466	-0.214342	-0.216036
C59	C	1.100835	-0.202422	0.005187
N60	N	1.147688	-0.167858	0.052022
H61	H	0.578788	-0.000050	0.022530
C62	C	1.139558	-0.000044	0.498398
N63	N	1.201688	-0.000052	0.542550
H64	H	1.084684	-0.365737	-0.010969
H65	H	1.084712	-0.634342	-0.010985
C66	C	0.863318	-0.377666	-0.232184
N67	N	0.816460	-0.412239	-0.279006
C68	C	0.863358	-0.797665	-0.232211
N69	N	0.816500	-0.832236	-0.279035
C70	C	0.863445	-0.622427	-0.232312
N71	N	0.816697	-0.587865	-0.279259
