data_functionalizedCrystal
_audit_creation_method	'MofGen! by Chris Wilmer'
_symmetry_space_group_name_H-M	'P1'
_symmetry_Int_Tables_number	1
_symmetry_cell_setting	triclinic
loop_
_symmetry_equiv_pos_as_xyz
  x,y,z
_cell_length_a	12.759400
_cell_length_b	18.215407
_cell_length_c	18.215399
_cell_angle_alpha	90.014769
_cell_angle_beta	89.973045
_cell_angle_gamma	89.989695
loop_
_atom_site_label
_atom_site_type_symbol
_atom_site_fract_x
_atom_site_fract_y
_atom_site_fract_z
Zn1	Zn	-0.418375	-1.125102	-0.416093
Zn2	Zn	-0.594080	-1.125039	-0.293034
Zn3	Zn	-0.418402	-1.002041	-0.293045
Zn4	Zn	-0.593999	-1.002023	-0.416063
O5	O	-0.506214	-1.063551	-0.354559
O6	O	-0.441705	-1.228078	-0.399777
O7	O	-0.570821	-1.108704	-0.190051
O8	O	-0.271377	-1.018400	-0.309384
O9	O	-0.570794	-1.228032	-0.309366
O10	O	-0.271357	-1.108812	-0.399787
O11	O	-0.441751	-1.018339	-0.190059
O12	O	-0.441673	-0.899055	-0.309355
O13	O	-0.570657	-1.018368	-0.519051
O14	O	-0.570683	-0.899041	-0.399737
O15	O	-0.441627	-1.108794	-0.519073
O16	O	-0.741090	-1.108686	-0.309337
O17	O	-0.741031	-1.018307	-0.399726
C18	C	-0.506173	-0.872345	-0.354544
C19	C	-0.506181	-0.790546	-0.354556
C20	C	-0.439094	-0.602375	-0.401706
C21	C	-0.439099	-0.525517	-0.401708
C22	C	-0.573318	-0.525479	-0.307417
C23	C	-0.573307	-0.602337	-0.307412
C24	C	-0.506196	-0.640783	-0.354561
C25	C	-0.506213	-0.487067	-0.354568
C26	C	-0.506219	-0.403733	-0.354569
C27	C	-0.506188	-0.724122	-0.354558
C28	C	-0.779181	-1.063508	-0.354543
C29	C	-0.895958	-1.063556	-0.354561
C30	C	-0.950816	-1.110669	-0.307548
C31	C	-1.060540	-1.110714	-0.307570
C32	C	-1.060538	-1.016527	-0.401622
C33	C	-0.950816	-1.016487	-0.401603
C34	C	-0.895957	-1.157739	-0.260506
C35	C	-0.950816	-1.204855	-0.213488
C36	C	-1.060540	-1.204900	-0.213511
C37	C	-1.115406	-1.157829	-0.260552
C38	C	-0.232181	-1.063615	-0.354590
C39	C	-0.115404	-1.063642	-0.354604
C40	C	-0.506130	-1.063586	-0.546512
C41	C	-0.506094	-1.063601	-0.628311
C42	C	-0.506244	-0.255504	-0.354572
C43	C	-0.506228	-0.337303	-0.354573
C44	C	-0.438842	-1.016587	-0.816510
C45	C	-0.438821	-1.016600	-0.893368
C46	C	-0.573221	-1.110703	-0.893350
C47	C	-0.573246	-1.110686	-0.816492
C48	C	-0.506051	-1.063629	-0.778074
C49	C	-0.506004	-1.063659	-0.931790
C50	C	-0.505982	-1.063673	-1.015124
C51	C	-0.506075	-1.063614	-0.694735
C52	C	-0.506222	-1.063559	-0.163352
C53	C	-0.505961	-1.063687	-0.081554
H54	H	-0.627958	-0.494167	-0.269032
H55	H	-1.105219	-0.978204	-0.439920
H56	H	-0.906138	-1.243183	-0.175193
N57	N	-0.366328	-0.965861	-0.934820
H58	H	-0.317637	-0.995783	-0.966721
H59	H	-0.409084	-0.931762	-0.966653
N60	N	-0.645677	-0.643768	-0.256555
H61	H	-0.688197	-0.607752	-0.226691
H62	H	-0.694343	-0.675667	-0.286450
N63	N	-0.777614	-1.157685	-0.260478
H64	H	-0.751183	-1.194651	-0.223544
H65	H	-0.751194	-1.171151	-0.310992
H66	H	-0.627928	-1.149015	-0.924639
H67	H	-0.906150	-0.978124	-0.439886
H68	H	-1.105202	-1.243270	-0.175232
N69	N	-0.645746	-1.161422	-0.775031
H70	H	-0.688304	-1.191238	-0.811030
H71	H	-0.602998	-1.195480	-0.743148
N72	N	-1.233751	-1.157883	-0.260585
H73	H	-1.260181	-1.194875	-0.223667
H74	H	-1.260169	-1.107393	-0.247042
H75	H	-0.384444	-0.633676	-0.440095
N76	N	-0.366375	-0.965826	-0.775080
H77	H	-0.409076	-0.931707	-0.743182
H78	H	-0.317711	-0.995786	-0.743244
N79	N	-0.366713	-0.484091	-0.452548
H80	H	-0.324196	-0.520111	-0.482411
H81	H	-0.409532	-0.452205	-0.486558
