data_functionalizedCrystal
_audit_creation_method	'MofGen! by Chris Wilmer'
_symmetry_space_group_name_H-M	'P1'
_symmetry_Int_Tables_number	1
_symmetry_cell_setting	triclinic
loop_
_symmetry_equiv_pos_as_xyz
  x,y,z
_cell_length_a	19.188930
_cell_length_b	16.109301
_cell_length_c	14.586319
_cell_angle_alpha	89.994786
_cell_angle_beta	89.982618
_cell_angle_gamma	83.303130
loop_
_atom_site_label
_atom_site_type_symbol
_atom_site_fract_x
_atom_site_fract_y
_atom_site_fract_z
O1	O	0.926386	0.103796	-0.076538
O2	O	1.176386	0.353796	0.173462
O3	O	1.426386	0.603796	0.423462
O4	O	1.676386	0.853796	0.673462
O5	O	0.723108	0.117769	-0.076476
O6	O	0.973108	0.367769	0.173524
O7	O	1.223108	0.617769	0.423524
O8	O	1.473108	0.867769	0.673524
O9	O	0.830331	-0.010267	-0.076499
O10	O	1.080331	0.239733	0.173501
O11	O	1.330331	0.489733	0.423501
O12	O	1.580331	0.739733	0.673501
O13	O	0.819163	0.231832	-0.076514
O14	O	1.069163	0.481832	0.173486
O15	O	1.319163	0.731832	0.423486
O16	O	1.569163	0.981832	0.673486
O17	O	0.830324	-0.010268	0.075982
O18	O	1.080324	0.239732	0.325982
O19	O	1.330324	0.489732	0.575982
O20	O	1.580324	0.739732	0.825982
O21	O	0.723100	0.117767	0.076005
O22	O	0.973100	0.367767	0.326005
O23	O	1.223100	0.617767	0.576005
O24	O	1.473100	0.867767	0.826005
O25	O	0.926379	0.103795	0.075943
O26	O	1.176379	0.353795	0.325943
O27	O	1.426379	0.603795	0.575943
O28	O	1.676379	0.853795	0.825943
Cu29	Cu	0.824739	0.110781	0.089897
Cu30	Cu	1.074739	0.360781	0.339897
Cu31	Cu	1.324739	0.610781	0.589897
Cu32	Cu	1.574739	0.860781	0.839897
Cu33	Cu	0.824748	0.110783	-0.090429
Cu34	Cu	1.074748	0.360783	0.159571
Cu35	Cu	1.324748	0.610783	0.409571
Cu36	Cu	1.574748	0.860783	0.659571
O37	O	0.819155	0.231830	0.075966
O38	O	1.069155	0.481830	0.325966
O39	O	1.319155	0.731830	0.575966
O40	O	1.569155	0.981830	0.825966
C41	C	0.829875	-0.041241	-0.000258
C42	C	1.079875	0.208759	0.249742
C43	C	1.329875	0.458759	0.499742
C44	C	1.579875	0.708759	0.749742
C45	C	0.828519	-0.133532	-0.000256
C46	C	1.078519	0.116468	0.249744
C47	C	1.328519	0.366468	0.499744
C48	C	1.578519	0.616468	0.749744
C49	C	0.697092	0.117316	-0.000227
C50	C	0.947092	0.367316	0.249773
C51	C	1.197092	0.617316	0.499773
C52	C	1.447092	0.867316	0.749773
C53	C	0.619584	0.115958	-0.000203
C54	C	0.869584	0.365958	0.249797
C55	C	1.119584	0.615958	0.499797
C56	C	1.369584	0.865958	0.749797
C57	C	0.888990	-0.356005	-0.000290
C58	C	1.138990	-0.106005	0.249710
C59	C	1.388990	0.143995	0.499710
C60	C	1.638990	0.393995	0.749710
C61	C	0.887710	-0.442721	-0.000297
C62	C	1.137710	-0.192721	0.249703
C63	C	1.387710	0.057279	0.499703
C64	C	1.637710	0.307279	0.749703
C65	C	0.760493	-0.422425	-0.000254
C66	C	1.010493	-0.172425	0.249746
C67	C	1.260493	0.077575	0.499746
C68	C	1.510493	0.327575	0.749746
C69	C	0.761773	-0.335710	-0.000253
C70	C	1.011773	-0.085710	0.249747
C71	C	1.261773	0.164290	0.499747
C72	C	1.511773	0.414290	0.749747
C73	C	0.826024	-0.302503	-0.000267
C74	C	1.076024	-0.052503	0.249733
C75	C	1.326024	0.197497	0.499733
C76	C	1.576024	0.447497	0.749733
C77	C	0.823463	-0.475933	-0.000274
C78	C	1.073463	-0.225933	0.249726
C79	C	1.323463	0.024067	0.499726
C80	C	1.573463	0.274067	0.749726
C81	C	0.822075	-0.569955	-0.000282
C82	C	1.072075	-0.319955	0.249718
C83	C	1.322075	-0.069955	0.499718
C84	C	1.572075	0.180045	0.749718
C85	C	0.827412	-0.208475	-0.000261
C86	C	1.077412	0.041525	0.249739
C87	C	1.327412	0.291525	0.499739
C88	C	1.577412	0.541525	0.749739
C89	C	0.574836	0.191085	-0.000222
C90	C	0.824836	0.441085	0.249778
C91	C	1.074836	0.691085	0.499778
C92	C	1.324836	0.941085	0.749778
C93	C	0.502009	0.189809	-0.000232
C94	C	0.752009	0.439809	0.249768
C95	C	1.002009	0.689809	0.499768
C96	C	1.252009	0.939809	0.749768
C97	C	0.473934	0.113401	-0.000241
C98	C	0.723934	0.363401	0.249759
C99	C	0.973934	0.613401	0.499759
C100	C	1.223934	0.863401	0.749759
C101	C	0.518692	0.038264	-0.000217
C102	C	0.768692	0.288264	0.249783
C103	C	1.018692	0.538264	0.499783
C104	C	1.268692	0.788264	0.749783
C105	C	0.591517	0.039542	-0.000198
C106	C	0.841517	0.289542	0.249802
C107	C	1.091517	0.539542	0.499802
C108	C	1.341517	0.789542	0.749802
N109	N	0.365820	0.054998	-0.052170
N110	N	0.615820	0.304998	0.197830
N111	N	0.865820	0.554998	0.447830
N112	N	1.115820	0.804998	0.697830
N113	N	0.296638	0.053788	-0.052191
N114	N	0.546638	0.303788	0.197809
N115	N	0.796638	0.553788	0.447809
N116	N	1.046638	0.803788	0.697809
C117	C	0.254516	0.109545	-0.000297
C118	C	0.504516	0.359545	0.249703
C119	C	0.754516	0.609545	0.499703
C120	C	1.004516	0.859545	0.749703
N121	N	0.284188	0.166569	0.051606
N122	N	0.534188	0.416569	0.301606
N123	N	0.784188	0.666569	0.551606
N124	N	1.034188	0.916569	0.801606
N125	N	0.353375	0.167781	0.051622
N126	N	0.603375	0.417781	0.301622
N127	N	0.853375	0.667781	0.551622
N128	N	1.103375	0.917781	0.801622
C129	C	0.394968	0.112007	-0.000262
C130	C	0.644968	0.362007	0.249738
C131	C	0.894968	0.612007	0.499738
C132	C	1.144968	0.862007	0.749738
C133	C	0.130800	0.183294	-0.000326
C134	C	0.380800	0.433294	0.249674
C135	C	0.630800	0.683294	0.499674
C136	C	0.880800	0.933294	0.749674
C137	C	0.057973	0.182015	-0.000330
C138	C	0.307973	0.432015	0.249670
C139	C	0.557973	0.682015	0.499670
C140	C	0.807973	0.932015	0.749670
C141	C	0.074657	0.030468	-0.000324
C142	C	0.324657	0.280468	0.249676
C143	C	0.574657	0.530468	0.499676
C144	C	0.824657	0.780468	0.749676
C145	C	0.147483	0.031749	-0.000311
C146	C	0.397483	0.281749	0.249689
C147	C	0.647483	0.531749	0.499689
C148	C	0.897483	0.781749	0.749689
C149	C	0.175550	0.108165	-0.000316
C150	C	0.425550	0.358165	0.249684
C151	C	0.675550	0.608165	0.499684
C152	C	0.925550	0.858165	0.749684
C153	C	0.952395	0.104248	-0.000308
C154	C	1.202395	0.354248	0.249692
C155	C	1.452395	0.604248	0.499692
C156	C	1.702395	0.854248	0.749692
C157	C	1.029903	0.105606	-0.000338
C158	C	1.279903	0.355606	0.249662
C159	C	1.529903	0.605606	0.499662
C160	C	1.779903	0.855606	0.749662
C161	C	0.819612	0.262805	-0.000277
C162	C	1.069612	0.512805	0.249723
C163	C	1.319612	0.762805	0.499723
C164	C	1.569612	1.012805	0.749723
C165	C	0.820968	0.355096	-0.000284
C166	C	1.070968	0.605096	0.249716
C167	C	1.320968	0.855096	0.499716
C168	C	1.570968	1.105096	0.749716
N169	N	0.824738	0.110779	0.216728
N170	N	1.074738	0.360779	0.466728
N171	N	1.324738	0.610779	0.716728
N172	N	1.574738	0.860779	0.966728
N173	N	0.824754	0.110778	-0.217261
N174	N	1.074754	0.360778	0.032739
N175	N	1.324754	0.610778	0.282739
N176	N	1.574754	0.860778	0.532739
C177	C	0.872232	0.054103	0.451724
C178	C	1.122232	0.304103	0.701724
C179	C	1.372232	0.554103	0.951724
C180	C	1.622232	0.804103	1.201724
C181	C	0.872234	0.054101	0.547706
C182	C	1.122234	0.304101	0.797706
C183	C	1.372234	0.554101	1.047706
C184	C	1.622234	0.804101	1.297706
C185	C	0.777255	0.167457	0.547736
C186	C	1.027255	0.417457	0.797736
C187	C	1.277255	0.667457	1.047736
C188	C	1.527255	0.917457	1.297736
C189	C	0.777250	0.167454	0.451757
C190	C	1.027250	0.417454	0.701757
C191	C	1.277250	0.667454	0.951757
C192	C	1.527250	0.917454	1.201757
C193	C	0.824743	0.110778	0.403753
C194	C	1.074743	0.360778	0.653753
C195	C	1.324743	0.610778	0.903753
C196	C	1.574743	0.860778	1.153753
C197	C	0.824750	0.110779	0.595714
C198	C	1.074750	0.360779	0.845714
C199	C	1.324750	0.610779	1.095714
C200	C	1.574750	0.860779	1.345714
C201	C	0.824751	0.110777	0.699781
C202	C	1.074751	0.360777	0.949781
C203	C	1.324751	0.610777	1.199781
C204	C	1.574751	0.860777	1.449781
C205	C	0.824740	0.110779	0.299679
C206	C	1.074740	0.360779	0.549679
C207	C	1.324740	0.610779	0.799679
C208	C	1.574740	0.860779	1.049679
H209	H	0.941306	-0.328970	-0.000302
H210	H	1.191306	-0.078970	0.249698
H211	H	1.441306	0.171030	0.499698
H212	H	1.691306	0.421030	0.749698
F213	F	0.726714	0.227774	0.598831
F214	F	0.976714	0.477774	0.848831
F215	F	1.226714	0.727774	1.098831
F216	F	1.476714	0.977774	1.348831
H217	H	0.597683	0.253308	-0.000228
H218	H	0.847683	0.503308	0.249772
H219	H	1.097683	0.753308	0.499772
H220	H	1.347683	1.003308	0.749772
H221	H	0.938983	-0.486279	-0.000317
H222	H	1.188983	-0.236279	0.249683
H223	H	1.438983	0.013721	0.499683
H224	H	1.688983	0.263721	0.749683
F225	F	0.454376	0.269773	-0.000250
F226	F	0.704376	0.519773	0.249750
F227	F	0.954376	0.769773	0.499750
F228	F	1.204376	1.019773	0.749750
F229	F	0.694753	-0.278766	-0.000236
F230	F	0.944753	-0.028766	0.249764
F231	F	1.194753	0.221234	0.499764
F232	F	1.444753	0.471234	0.749764
F233	F	0.488812	-0.043055	-0.000223
F234	F	0.738812	0.206945	0.249777
F235	F	0.988812	0.456945	0.499777
F236	F	1.238812	0.706945	0.749777
H237	H	0.627952	-0.021638	-0.000183
H238	H	0.877952	0.228362	0.249817
H239	H	1.127952	0.478362	0.499817
H240	H	1.377952	0.728362	0.749817
H241	H	0.738575	0.213606	0.412696
H242	H	0.988575	0.463606	0.662696
H243	H	1.238575	0.713606	0.912696
H244	H	1.488575	0.963606	1.162696
H245	H	0.051799	-0.031745	-0.000389
H246	H	0.301799	0.218255	0.249611
H247	H	0.551799	0.468255	0.499611
H248	H	0.801799	0.718255	0.749611
F249	F	0.922777	-0.006221	0.598757
F250	F	1.172777	0.243779	0.848757
F251	F	1.422777	0.493779	1.098757
F252	F	1.672777	0.743779	1.348757
F253	F	0.160674	0.264621	-0.000324
F254	F	0.410674	0.514621	0.249676
F255	F	0.660674	0.764621	0.499676
F256	F	0.910674	1.014621	0.749676
H257	H	0.183919	-0.029428	-0.000300
H258	H	0.433919	0.220572	0.249700
H259	H	0.683919	0.470572	0.499700
H260	H	0.933919	0.720572	0.749700
H261	H	0.708182	-0.449473	-0.000242
H262	H	0.958182	-0.199473	0.249758
H263	H	1.208182	0.050527	0.499758
H264	H	1.458182	0.300527	0.749758
F265	F	0.010347	0.261980	-0.000346
F266	F	0.260347	0.511980	0.249654
F267	F	0.510347	0.761980	0.499654
F268	F	0.760347	1.011980	0.749654
F269	F	0.922776	-0.006218	0.400639
F270	F	1.172776	0.243782	0.650639
F271	F	1.422776	0.493782	0.900639
F272	F	1.672776	0.743782	1.150639
