data_functionalizedCrystal
_audit_creation_method	'MofGen! by Chris Wilmer'
_symmetry_space_group_name_H-M	'P1'
_symmetry_Int_Tables_number	1
_symmetry_cell_setting	triclinic
loop_
_symmetry_equiv_pos_as_xyz
  x,y,z
_cell_length_a	9.065218
_cell_length_b	10.654550
_cell_length_c	9.730223
_cell_angle_alpha	90.000043
_cell_angle_beta	89.997438
_cell_angle_gamma	95.249592
loop_
_atom_site_label
_atom_site_type_symbol
_atom_site_fract_x
_atom_site_fract_y
_atom_site_fract_z
O1	O	0.207235	-1.668660	-0.114181
O2	O	0.226979	-1.303260	-0.114206
O3	O	0.002423	-1.493512	-0.114190
O4	O	0.431790	-1.478407	-0.114197
O5	O	0.002417	-1.493500	0.114390
O6	O	0.226972	-1.303247	0.114374
O7	O	0.207228	-1.668647	0.114399
Zn8	Zn	0.217099	-1.485945	0.150678
Zn9	Zn	0.217108	-1.485962	-0.150486
O10	O	0.431784	-1.478395	0.114383
C11	C	-0.052559	-1.492055	0.000097
C12	C	-0.216378	-1.487714	0.000091
C13	C	0.225526	-1.256450	0.000081
C14	C	0.221188	-1.116989	0.000071
C15	C	0.208681	-1.715457	0.000109
C16	C	0.213019	-1.854918	0.000109
C17	C	0.486766	-1.479852	0.000092
C18	C	0.650585	-1.484193	0.000090
N19	N	0.217093	-1.485943	0.356215
C20	C	0.353403	-1.038027	0.000073
C21	C	0.349319	-0.906990	0.000097
C22	C	0.080794	-0.933890	0.000112
C23	C	0.084879	-1.064924	0.000098
N24	N	0.217102	-1.485973	-0.356022
C25	C	0.117702	-1.570217	0.428148
C26	C	0.117703	-1.570229	0.572031
C27	C	0.316498	-1.401691	0.572035
C28	C	0.316489	-1.401674	0.428155
H29	H	0.464395	-1.080414	0.000062
Br30	Br	0.451374	-1.287285	0.330520
H31	H	0.036768	-1.638850	0.630594
Br32	Br	0.528762	-0.799831	0.000107
H33	H	-0.030185	-0.891482	0.000141
H34	H	-0.022793	-1.129219	0.000100
H35	H	0.036766	-1.638832	0.369577
Br36	Br	0.451391	-1.287332	0.669673
