data_functionalizedCrystal
_audit_creation_method	'MofGen! by Chris Wilmer'
_symmetry_space_group_name_H-M	'P1'
_symmetry_Int_Tables_number	1
_symmetry_cell_setting	triclinic
loop_
_symmetry_equiv_pos_as_xyz
  x,y,z
_cell_length_a	17.077404
_cell_length_b	13.897448
_cell_length_c	17.077396
_cell_angle_alpha	90.024780
_cell_angle_beta	89.980499
_cell_angle_gamma	89.980206
loop_
_atom_site_label
_atom_site_type_symbol
_atom_site_fract_x
_atom_site_fract_y
_atom_site_fract_z
Zn1	Zn	1.200073	0.384009	-0.443863
Zn2	Zn	1.533406	0.717342	-0.110530
Zn3	Zn	1.866739	1.050676	0.222804
Zn4	Zn	1.199987	0.545322	-0.312605
Zn5	Zn	1.533321	0.878655	0.020728
Zn6	Zn	1.866654	1.211988	0.354061
Zn7	Zn	1.068805	0.384043	-0.312611
Zn8	Zn	1.402138	0.717376	0.020722
Zn9	Zn	1.735471	1.050710	0.354056
Zn10	Zn	1.068780	0.545264	-0.443829
Zn11	Zn	1.402113	0.878598	-0.110496
Zn12	Zn	1.735447	1.211931	0.222838
O13	O	1.134411	0.464660	-0.378227
O14	O	1.467745	0.797993	-0.044894
O15	O	1.801078	1.131326	0.288440
O16	O	1.309908	0.405417	-0.426463
O17	O	1.643242	0.738751	-0.093130
O18	O	1.976575	1.072084	0.240203
O19	O	1.182560	0.523966	-0.202759
O20	O	1.515894	0.857299	0.130574
O21	O	1.849227	1.190633	0.463908
O22	O	1.086263	0.249057	-0.330038
O23	O	1.419597	0.582390	0.003295
O24	O	1.752930	0.915723	0.336628
O25	O	1.309846	0.523933	-0.330029
O26	O	1.643179	0.857266	0.003304
O27	O	1.976512	1.190600	0.336638
O28	O	1.182706	0.249032	-0.426469
O29	O	1.516039	0.582365	-0.093135
O30	O	1.849372	0.915699	0.240198
O31	O	1.086181	0.405475	-0.202763
O32	O	1.419514	0.738808	0.130570
O33	O	1.752847	1.072142	0.463904
O34	O	0.958954	0.405420	-0.330005
O35	O	1.292288	0.738753	0.003328
O36	O	1.625621	1.072086	0.336661
O37	O	1.086222	0.523835	-0.553680
O38	O	1.419555	0.857169	-0.220347
O39	O	1.752889	1.190502	0.112986
O40	O	0.958936	0.523868	-0.426411
O41	O	1.292270	0.857202	-0.093077
O42	O	1.625603	1.190535	0.240256
O43	O	1.182682	0.405362	-0.553705
O44	O	1.516015	0.738695	-0.220372
O45	O	1.849349	1.072029	0.112961
O46	O	1.182537	0.680296	-0.329996
O47	O	1.515870	1.013629	0.003337
O48	O	1.849203	1.346962	0.336671
O49	O	1.086139	0.680254	-0.426405
O50	O	1.419472	1.013587	-0.093072
O51	O	1.752806	1.346920	0.240261
C52	C	0.930463	0.464642	-0.378205
C53	C	1.263797	0.797975	-0.044872
C54	C	1.597130	1.131309	0.288461
C55	C	0.843214	0.464658	-0.378215
C56	C	1.176547	0.797991	-0.044881
C57	C	1.509880	1.131324	0.288452
C58	C	0.802235	0.526427	-0.428332
C59	C	1.135568	0.859760	-0.094999
C60	C	1.468901	1.193094	0.238334
C61	C	0.720254	0.526429	-0.428345
C62	C	1.053587	0.859763	-0.095012
C63	C	1.386921	1.193096	0.238322
C64	C	0.679254	0.464666	-0.378235
C65	C	1.012587	0.797999	-0.044902
C66	C	1.345921	1.131333	0.288431
C67	C	0.720239	0.402890	-0.328115
C68	C	1.053572	0.736223	0.005218
C69	C	1.386905	1.069557	0.338551
C70	C	0.802218	0.402884	-0.328107
C71	C	1.135551	0.736217	0.005226
C72	C	1.468884	1.069550	0.338559
C73	C	0.549369	0.402909	-0.328134
C74	C	0.882702	0.736242	0.005199
C75	C	1.216035	1.069576	0.338532
C76	C	0.467384	0.402916	-0.328141
C77	C	0.800718	0.736250	0.005192
C78	C	1.134051	1.069583	0.338526
C79	C	0.467405	0.526454	-0.428372
C80	C	0.800738	0.859788	-0.095039
C81	C	1.134072	1.193121	0.238295
C82	C	0.549384	0.526448	-0.428364
C83	C	0.882717	0.859782	-0.095031
C84	C	1.216051	1.193115	0.238303
C85	C	0.590363	0.464673	-0.378243
C86	C	0.923696	0.798006	-0.044909
C87	C	1.257030	1.131340	0.288424
C88	C	1.134347	0.715274	-0.378214
C89	C	1.467681	1.048607	-0.044880
C90	C	1.801014	1.381941	0.288453
C91	C	1.134392	0.822488	-0.378234
C92	C	1.467725	1.155821	-0.044901
C93	C	1.801058	1.489154	0.288433
C94	C	1.134469	1.018783	-0.378290
C95	C	1.467802	1.352116	-0.044957
C96	C	1.801136	1.685450	0.288376
C97	C	1.134424	0.909550	-0.378261
C98	C	1.467757	1.242884	-0.044928
C99	C	1.801090	1.576217	0.288405
C100	C	1.339155	0.464678	-0.378249
C101	C	1.672489	0.798011	-0.044916
C102	C	2.005822	1.131344	0.288417
C103	C	1.426405	0.464686	-0.378259
C104	C	1.759739	0.798019	-0.044925
C105	C	2.093072	1.131352	0.288408
C106	C	1.134459	0.464588	-0.582971
C107	C	1.467792	0.797922	-0.249638
C108	C	1.801125	1.131255	0.083695
C109	C	1.134479	0.464558	-0.670221
C110	C	1.467812	0.797892	-0.336888
C111	C	1.801146	1.131225	-0.003555
C112	C	1.134490	1.213067	-0.378267
C113	C	1.467823	1.546400	-0.044934
C114	C	1.801157	1.879733	0.288400
C115	C	1.134507	1.105853	-0.378308
C116	C	1.467840	1.439186	-0.044974
C117	C	1.801173	1.772519	0.288359
C118	C	1.184708	0.402864	-0.711226
C119	C	1.518041	0.736197	-0.377892
C120	C	1.851374	1.069531	-0.044559
C121	C	1.184717	0.402832	-0.793206
C122	C	1.518050	0.736165	-0.459873
C123	C	1.851384	1.069498	-0.126539
C124	C	1.134501	0.464500	-0.834181
C125	C	1.467835	0.797833	-0.500847
C126	C	1.801168	1.131166	-0.167514
C127	C	1.084267	0.526197	-0.793171
C128	C	1.417600	0.859530	-0.459837
C129	C	1.750934	1.192863	-0.126504
C130	C	1.084254	0.526223	-0.711192
C131	C	1.417588	0.859556	-0.377858
C132	C	1.750921	1.192890	-0.044525
C133	C	1.084299	0.526139	-0.964041
C134	C	1.417632	0.859472	-0.630707
C135	C	1.750965	1.192805	-0.297374
C136	C	1.084312	0.526114	-1.046025
C137	C	1.417646	0.859447	-0.712692
C138	C	1.750979	1.192780	-0.379359
C139	C	1.184761	0.402747	-1.046055
C140	C	1.518095	0.736081	-0.712722
C141	C	1.851428	1.069414	-0.379389
C142	C	1.184749	0.402774	-0.964076
C143	C	1.518082	0.736107	-0.630743
C144	C	1.851415	1.069440	-0.297410
C145	C	1.134515	0.464472	-0.923072
C146	C	1.467849	0.797806	-0.589738
C147	C	1.801182	1.131139	-0.256405
C148	C	1.134409	0.464661	-0.174279
C149	C	1.467742	0.797994	0.159054
C150	C	1.801076	1.131327	0.492387
C151	C	1.134541	0.464419	-0.087030
C152	C	1.467874	0.797753	0.246304
C153	C	1.801208	1.131086	0.579637
H154	H	0.835582	0.352580	-0.287300
H155	H	1.168915	0.685913	0.046033
H156	H	1.502248	1.019246	0.379366
H157	H	1.043381	0.576365	-0.930657
H158	H	1.376714	0.909698	-0.597324
H159	H	1.710048	1.243032	-0.263991
H160	H	1.043378	0.576404	-0.826539
H161	H	1.376711	0.909737	-0.493205
H162	H	1.710044	1.243071	-0.159872
H163	H	1.225643	0.352564	-0.930717
H164	H	1.558976	0.685897	-0.597384
H165	H	1.892310	1.019230	-0.264050
H166	H	1.225602	0.352650	-0.677870
H167	H	1.558935	0.685983	-0.344537
H168	H	1.892268	1.019316	-0.011203
H169	H	0.582764	0.576746	-0.469163
H170	H	0.916097	0.910080	-0.135830
H171	H	1.249431	1.243413	0.197503
H172	H	0.835611	0.576725	-0.469135
H173	H	1.168944	0.910058	-0.135802
H174	H	1.502278	1.243392	0.197531
H175	H	0.582731	0.352597	-0.287327
H176	H	0.916065	0.685930	0.046006
H177	H	1.249398	1.019263	0.379340
H178	H	1.225662	0.352508	-1.079445
H179	H	1.558995	0.685842	-0.746112
H180	H	1.892329	1.019175	-0.412778
H181	H	1.225620	0.352596	-0.826588
H182	H	1.558953	0.685930	-0.493255
H183	H	1.892287	1.019263	-0.159922
H184	H	1.043345	0.576451	-0.677807
H185	H	1.376678	0.909785	-0.344473
H186	H	1.710012	1.243118	-0.011140
H187	H	0.686850	0.352597	-0.287318
H188	H	1.020183	0.685931	0.046015
H189	H	1.353517	1.019264	0.379348
H190	H	0.686893	0.576729	-0.469155
H191	H	1.020226	0.910062	-0.135822
H192	H	1.353559	1.243396	0.197511
H193	H	0.434036	0.576751	-0.469185
H194	H	0.767369	0.910085	-0.135851
H195	H	1.100703	1.243418	0.197482
H196	H	0.434004	0.352612	-0.287347
H197	H	0.767337	0.685945	0.045987
H198	H	1.100671	1.019278	0.379320
H199	H	1.043420	0.576327	-1.079385
H200	H	1.376754	0.909660	-0.746051
H201	H	1.710087	1.242994	-0.412718
