data_functionalizedCrystal
_audit_creation_method	'MofGen! by Chris Wilmer'
_symmetry_space_group_name_H-M	'P1'
_symmetry_Int_Tables_number	1
_symmetry_cell_setting	triclinic
loop_
_symmetry_equiv_pos_as_xyz
  x,y,z
_cell_length_a	10.489741
_cell_length_b	10.489711
_cell_length_c	9.565339
_cell_angle_alpha	90.003838
_cell_angle_beta	90.000264
_cell_angle_gamma	84.533091
loop_
_atom_site_label
_atom_site_type_symbol
_atom_site_fract_x
_atom_site_fract_y
_atom_site_fract_z
O1	O	1.694031	0.179976	0.116161
O2	O	1.322834	0.196869	0.116181
O3	O	1.516899	0.002822	0.116175
O4	O	1.499966	0.374023	0.116168
O5	O	1.516888	0.002805	-0.116346
O6	O	1.322823	0.196852	-0.116339
O7	O	1.694021	0.179959	-0.116359
Zn8	Zn	1.508421	0.188402	-0.153266
Zn9	Zn	1.508434	0.188425	0.153089
O10	O	1.499956	0.374005	-0.116352
C11	C	1.275297	0.195584	-0.000076
C12	C	1.133668	0.191767	-0.000067
C13	C	1.065541	0.068301	-0.000078
C14	C	0.973413	0.126633	0.114562
C15	C	0.973437	0.126646	-0.114684
C16	C	1.043405	0.250151	0.114668
C17	C	1.043439	0.250146	-0.114682
C18	C	0.951338	0.308568	-0.000013
C19	C	1.515623	-0.044719	-0.000082
C20	C	1.511821	-0.186350	-0.000070
C21	C	1.628525	-0.368737	-0.000090
C22	C	1.570225	-0.276601	-0.114730
C23	C	1.570204	-0.276608	0.114516
C24	C	1.446682	-0.346552	-0.114831
C25	C	1.446678	-0.346569	0.114519
C26	C	1.388288	-0.254461	-0.000149
C27	C	1.741558	0.181243	-0.000099
C28	C	1.883187	0.185060	-0.000098
C29	C	1.501232	0.421546	-0.000093
C30	C	1.505034	0.563178	-0.000096
N31	N	1.508421	0.188386	-0.362346
C32	C	1.597467	0.097939	-0.546685
C33	C	1.624288	0.213088	-0.453450
C34	C	1.481656	0.073247	-0.453511
C35	C	1.535323	0.303638	-0.546649
C36	C	1.392640	0.163722	-0.546718
C37	C	1.419414	0.278953	-0.453526
N38	N	1.508444	0.188431	0.362168
H39	H	0.942460	0.074375	-0.211604
O40	O	1.697261	-0.003287	-0.600882
H41	H	1.695768	-0.002972	-0.716908
O42	O	1.084226	0.319259	0.243230
H43	H	1.189798	0.321492	0.242271
H44	H	1.074475	0.302337	-0.211610
H45	H	0.901903	0.410173	0.000047
H46	H	1.730027	-0.418427	-0.000209
O47	O	1.262971	0.136013	-0.601041
H48	H	1.263935	0.137222	-0.717065
O49	O	0.932333	0.057455	0.242950
H50	H	0.826663	0.056069	0.242265
O51	O	1.753987	0.240764	-0.399161
H52	H	1.827731	0.165539	-0.436457
O53	O	1.451635	-0.055752	-0.399322
H54	H	1.525673	-0.130672	-0.436653
H55	H	1.622474	-0.245621	-0.211656
H56	H	1.394468	-0.377369	-0.211859
H57	H	1.286696	-0.204995	-0.000207
O58	O	1.377558	-0.387727	0.242904
H59	H	1.429030	-0.360041	0.337935
H60	H	1.622482	-0.245641	0.211434
H61	H	1.558076	0.401053	-0.587390
H62	H	1.344117	0.355544	-0.412880
H63	H	1.115242	-0.033196	0.000067
