data_functionalizedCrystal
_audit_creation_method	'MofGen! by Chris Wilmer'
_symmetry_space_group_name_H-M	'P1'
_symmetry_Int_Tables_number	1
_symmetry_cell_setting	triclinic
loop_
_symmetry_equiv_pos_as_xyz
  x,y,z
_cell_length_a	14.908571
_cell_length_b	12.594516
_cell_length_c	14.908694
_cell_angle_alpha	93.272928
_cell_angle_beta	83.592472
_cell_angle_gamma	86.712497
loop_
_atom_site_label
_atom_site_type_symbol
_atom_site_fract_x
_atom_site_fract_y
_atom_site_fract_z
Zn1	Zn	1.413379	-0.560363	-0.591545
Zn2	Zn	1.913379	-0.060363	-0.091545
Zn3	Zn	1.404558	-0.727465	-0.440191
Zn4	Zn	1.904558	-0.227465	0.059809
Zn5	Zn	1.253279	-0.538593	-0.431479
Zn6	Zn	1.753279	-0.038593	0.068521
Zn7	Zn	1.261990	-0.727382	-0.582790
Zn8	Zn	1.761990	-0.227382	-0.082790
O9	O	1.333302	-0.638451	-0.511501
O10	O	1.833302	-0.138451	-0.011501
O11	O	1.538876	-0.591676	-0.578778
O12	O	2.038876	-0.091676	-0.078778
O13	O	1.377154	-0.693334	-0.312369
O14	O	1.877154	-0.193334	0.187631
O15	O	1.274563	-0.392539	-0.452730
O16	O	1.774563	0.107461	0.047270
O17	O	1.532396	-0.714444	-0.467579
O18	O	2.032396	-0.214444	0.032421
O19	O	1.392187	-0.408534	-0.570330
O20	O	1.892187	0.091466	-0.070330
O21	O	1.266010	-0.554570	-0.305968
O22	O	1.766010	-0.054570	0.194032
O23	O	1.127767	-0.554490	-0.444240
O24	O	1.627767	-0.054490	0.055760
O25	O	1.289409	-0.714303	-0.710617
O26	O	1.789409	-0.214303	-0.210617
O27	O	1.134167	-0.693193	-0.555407
O28	O	1.634167	-0.193193	-0.055407
O29	O	1.400634	-0.591595	-0.717050
O30	O	1.900634	-0.091595	-0.217050
O31	O	1.385600	-0.876395	-0.459089
O32	O	1.885600	-0.376395	0.040911
O33	O	1.280856	-0.876334	-0.563856
O34	O	1.780856	-0.376334	-0.063856
C35	C	1.098124	-0.621471	-0.497929
C36	C	1.598124	-0.121471	0.002071
C37	C	0.997515	-0.614234	-0.492144
C38	C	1.497515	-0.114234	0.007856
C39	C	0.815163	-0.745267	-0.596877
C40	C	1.315163	-0.245267	-0.096877
C41	C	0.720632	-0.738471	-0.591444
C42	C	1.220632	-0.238471	-0.091444
C43	C	0.713921	-0.593842	-0.475853
C44	C	1.213921	-0.093842	0.024147
C45	C	0.808452	-0.600638	-0.481285
C46	C	1.308452	-0.100638	0.018715
C47	C	0.859070	-0.676354	-0.541798
C48	C	1.359070	-0.176354	-0.041798
C49	C	0.953602	-0.683154	-0.547225
C50	C	1.453602	-0.183154	-0.047225
C51	C	0.946889	-0.538521	-0.431638
C52	C	1.446889	-0.038521	0.068362
C53	C	0.852358	-0.531725	-0.426206
C54	C	1.352358	-0.031725	0.073794
C55	C	1.333242	-0.914987	-0.511489
C56	C	1.833242	-0.414987	-0.011489
C57	C	1.333301	-1.033298	-0.511519
C58	C	1.833301	-0.533298	-0.011519
C59	C	1.276322	-1.102554	-0.568458
C60	C	1.776322	-0.602554	-0.068458
C61	C	1.249505	-1.165879	-0.484594
C62	C	1.749505	-0.665879	0.015406
C63	C	1.360201	-1.180779	-0.595402
C64	C	1.860201	-0.680779	-0.095402
C65	C	1.306437	-1.095059	-0.427608
C66	C	1.806437	-0.595059	0.072392
C67	C	1.417175	-1.109959	-0.538474
C68	C	1.917175	-0.609959	-0.038474
C69	C	1.390386	-1.173251	-0.454554
C70	C	1.890386	-0.673251	0.045446
C71	C	1.569398	-0.655497	-0.525127
C72	C	2.069398	-0.155497	-0.025127
C73	C	1.670008	-0.662762	-0.530933
C74	C	2.170008	-0.162762	-0.030933
C75	C	1.346977	-0.655369	-0.747595
C76	C	1.846977	-0.155369	-0.247595
C77	C	1.352804	-0.662578	-0.848204
C78	C	1.852804	-0.162578	-0.348204
C79	C	1.333387	-0.360838	-0.511535
C80	C	1.833387	0.139162	-0.011535
C81	C	1.333424	-0.242536	-0.511549
C82	C	1.833424	0.257464	-0.011549
C83	C	1.248000	-0.531632	-1.030594
C84	C	1.748000	-0.031632	-0.530594
C85	C	1.253472	-0.538402	-1.125125
C86	C	1.753472	-0.038402	-0.625125
C87	C	1.369216	-0.682893	-1.131798
C88	C	1.869216	-0.182893	-0.631798
C89	C	1.363744	-0.676123	-1.037267
C90	C	1.863744	-0.176123	-0.537267
C91	C	1.303135	-0.600489	-0.986668
C92	C	1.803135	-0.100489	-0.486668
C93	C	1.297667	-0.593714	-0.892136
C94	C	1.797667	-0.093714	-0.392136
C95	C	1.413407	-0.738209	-0.898811
C96	C	1.913407	-0.238209	-0.398811
C97	C	1.418879	-0.744979	-0.993342
C98	C	1.918879	-0.244979	-0.493342
C99	C	1.319732	-0.621526	-0.276329
C100	C	1.819732	-0.121526	0.223671
C101	C	1.314079	-0.614029	-0.175730
C102	C	1.814079	-0.114029	0.324270
H103	H	0.684888	-0.794585	-0.636297
H104	H	1.184888	-0.294585	-0.136297
H105	H	1.198657	-0.470039	-0.989396
H106	H	1.698657	0.029961	-0.489396
H107	H	1.178631	-1.190715	-0.461818
H108	H	1.678631	-0.690715	0.038182
H109	H	1.283653	-1.057778	-0.356657
H110	H	1.783653	-0.557778	0.143343
Br111	Br	1.451449	-0.785548	-1.200482
Br112	Br	1.951449	-0.285548	-0.700482
H113	H	1.488035	-1.085128	-0.561289
H114	H	1.988035	-0.585128	-0.061289
Br115	Br	1.501125	-0.847626	-1.062019
Br116	Br	2.001125	-0.347626	-0.562019
Br117	Br	1.022297	-0.785915	-0.629344
Br118	Br	1.522297	-0.285915	-0.129344
H119	H	0.856377	-0.806923	-0.646144
H120	H	1.356377	-0.306923	-0.146144
Br121	Br	0.645211	-0.491074	-0.393752
Br122	Br	1.145211	0.008926	0.106248
H123	H	0.811132	-0.470077	-0.376940
H124	H	1.311132	0.029923	0.123060
H125	H	1.208576	-0.482332	-1.160885
H126	H	1.708576	0.017668	-0.660885
Br127	Br	1.006480	-0.445003	-0.356872
Br128	Br	1.506480	0.054997	0.143128
Br129	Br	1.195857	-1.050795	-0.648586
Br130	Br	1.695857	-0.550795	-0.148586
Br131	Br	1.470786	-1.224662	-0.374228
Br132	Br	1.970786	-0.724662	0.125772
H133	H	1.382904	-1.218181	-0.666329
H134	H	1.882904	-0.718181	-0.166329
H135	H	1.248320	-0.532125	-0.850940
H136	H	1.748320	-0.032125	-0.350940
H137	H	1.458305	-0.794274	-0.863037
H138	H	1.958305	-0.294274	-0.363037
