data_functionalizedCrystal
_audit_creation_method	'MofGen! by Chris Wilmer'
_symmetry_space_group_name_H-M	'P1'
_symmetry_Int_Tables_number	1
_symmetry_cell_setting	triclinic
loop_
_symmetry_equiv_pos_as_xyz
  x,y,z
_cell_length_a	19.805407
_cell_length_b	18.101395
_cell_length_c	19.805399
_cell_angle_alpha	90.025118
_cell_angle_beta	90.019573
_cell_angle_gamma	90.031104
loop_
_atom_site_label
_atom_site_type_symbol
_atom_site_fract_x
_atom_site_fract_y
_atom_site_fract_z
Zn1	Zn	1.034714	-0.294847	0.382731
Zn2	Zn	1.368047	0.038487	0.716065
Zn3	Zn	1.701380	0.371820	1.049398
Zn4	Zn	1.034619	-0.418690	0.269548
Zn5	Zn	1.367952	-0.085357	0.602881
Zn6	Zn	1.701286	0.247976	0.936214
Zn7	Zn	0.921528	-0.294867	0.269556
Zn8	Zn	1.254862	0.038466	0.602889
Zn9	Zn	1.588195	0.371799	0.936222
Zn10	Zn	0.921482	-0.418651	0.382695
Zn11	Zn	1.254816	-0.085318	0.716028
Zn12	Zn	1.588149	0.248016	1.049361
O13	O	0.978086	-0.356764	0.326132
O14	O	1.311419	-0.023430	0.659466
O15	O	1.644753	0.309903	0.992799
O16	O	1.129418	-0.311283	0.367729
O17	O	1.462751	0.022051	0.701063
O18	O	1.796084	0.355384	1.034396
O19	O	1.019597	-0.402290	0.174832
O20	O	1.352930	-0.068957	0.508166
O21	O	1.686264	0.264377	0.841499
O22	O	0.936601	-0.191232	0.284587
O23	O	1.269935	0.142102	0.617921
O24	O	1.603268	0.475435	0.951254
O25	O	1.129348	-0.402270	0.284574
O26	O	1.462682	-0.068937	0.617907
O27	O	1.796015	0.264397	0.951241
O28	O	1.019758	-0.191217	0.367737
O29	O	1.353091	0.142117	0.701070
O30	O	1.686425	0.475450	1.034404
O31	O	0.936510	-0.311318	0.174838
O32	O	1.269843	0.022016	0.508171
O33	O	1.603176	0.355349	0.841505
O34	O	0.826806	-0.311279	0.284552
O35	O	1.160139	0.022054	0.617885
O36	O	1.493472	0.355387	0.951219
O37	O	0.936523	-0.402203	0.477416
O38	O	1.269857	-0.068870	0.810749
O39	O	1.603190	0.264464	1.144083
O40	O	0.826772	-0.402223	0.367674
O41	O	1.160105	-0.068890	0.701008
O42	O	1.493439	0.264444	1.034341
O43	O	1.019714	-0.311245	0.477443
O44	O	1.353047	0.022089	0.810776
O45	O	1.686380	0.355422	1.144110
O46	O	1.019553	-0.522318	0.284538
O47	O	1.352886	-0.188985	0.617872
O48	O	1.686219	0.144349	0.951205
O49	O	0.936432	-0.522289	0.367667
O50	O	1.269765	-0.188956	0.701000
O51	O	1.603098	0.144378	1.034333
C52	C	0.802230	-0.356750	0.326110
C53	C	1.135563	-0.023416	0.659444
C54	C	1.468897	0.309917	0.992777
C55	C	0.726998	-0.356761	0.326117
C56	C	1.060331	-0.023428	0.659451
C57	C	1.393665	0.309905	0.992784
C58	C	0.691654	-0.404187	0.369329
C59	C	1.024987	-0.070854	0.702662
C60	C	1.358321	0.262480	1.035996
C61	C	0.620965	-0.404188	0.369339
C62	C	0.954299	-0.070855	0.702672
C63	C	1.287632	0.262478	1.036005
C64	C	0.585622	-0.356767	0.326132
C65	C	0.918956	-0.023434	0.659466
C66	C	1.252289	0.309899	0.992799
C67	C	0.620971	-0.309336	0.282919
C68	C	0.954305	0.023997	0.616252
C69	C	1.287638	0.357330	0.949585
C70	C	0.691658	-0.309332	0.282913
C71	C	1.024992	0.024001	0.616246
C72	C	1.358325	0.357335	0.949580
C73	C	0.335898	-0.309353	0.282941
C74	C	0.669231	0.023981	0.616274
C75	C	1.002565	0.357314	0.949608
C76	C	0.265206	-0.309363	0.282948
C77	C	0.598539	0.023971	0.616282
C78	C	0.931872	0.357304	0.949615
C79	C	0.265205	-0.404209	0.369367
C80	C	0.598538	-0.070876	0.702700
C81	C	0.931872	0.262458	1.036033
C82	C	0.335892	-0.404205	0.369361
C83	C	0.669226	-0.070871	0.702694
C84	C	1.002559	0.262462	1.036028
C85	C	0.371235	-0.356771	0.326150
C86	C	0.704568	-0.023438	0.659483
C87	C	1.037902	0.309895	0.992817
C88	C	0.447883	-0.356770	0.326141
C89	C	0.781217	-0.023436	0.659474
C90	C	1.114550	0.309897	0.992808
C91	C	0.508975	-0.356772	0.326137
C92	C	0.842308	-0.023439	0.659471
C93	C	1.175642	0.309894	0.992804
C94	C	0.977995	-0.549174	0.326112
C95	C	1.311329	-0.215841	0.659446
C96	C	1.644662	0.117492	0.992779
C97	C	0.978018	-0.631489	0.326127
C98	C	1.311352	-0.298155	0.659460
C99	C	1.644685	0.035178	0.992793
C100	C	0.978167	-0.930579	0.326163
C101	C	1.311500	-0.597246	0.659496
C102	C	1.644834	-0.263913	0.992830
C103	C	0.925991	-0.899267	0.378595
C104	C	1.259324	-0.565934	0.711928
C105	C	1.592657	-0.232600	1.045262
C106	C	0.925743	-0.813649	0.378431
C107	C	1.259076	-0.480316	0.711764
C108	C	1.592410	-0.146982	1.045098
C109	C	0.978093	-0.782197	0.326146
C110	C	1.311427	-0.448864	0.659479
C111	C	1.644760	-0.115530	0.992812
C112	C	0.958782	-0.813345	0.254811
C113	C	1.292116	-0.480012	0.588144
C114	C	1.625449	-0.146679	0.921478
C115	C	0.958446	-0.898990	0.255125
C116	C	1.291779	-0.565657	0.588458
C117	C	1.625113	-0.232324	0.921791
C118	C	1.049768	-0.898924	0.344438
C119	C	1.383102	-0.565591	0.677771
C120	C	1.716435	-0.232257	1.011104
C121	C	1.049347	-0.813273	0.346002
C122	C	1.382681	-0.479940	0.679335
C123	C	1.716014	-0.146606	1.012669
C124	C	0.978053	-0.698337	0.326131
C125	C	1.311386	-0.365004	0.659465
C126	C	1.644719	-0.031671	0.992798
C127	C	0.978206	-1.014439	0.326173
C128	C	1.311539	-0.681105	0.659506
C129	C	1.644873	-0.347772	0.992839
C130	C	1.154629	-0.356779	0.326155
C131	C	1.487962	-0.023445	0.659488
C132	C	1.821295	0.309888	0.992821
C133	C	1.229861	-0.356785	0.326164
C134	C	1.563194	-0.023452	0.659498
C135	C	1.896527	0.309882	0.992831
C136	C	0.978124	-0.356717	0.502675
C137	C	1.311457	-0.023384	0.836008
C138	C	1.644791	0.309949	1.169342
C139	C	0.978140	-0.356697	0.577907
C140	C	1.311473	-0.023364	0.911241
C141	C	1.644807	0.309969	1.244574
C142	C	0.978195	-0.163602	0.326167
C143	C	1.311529	0.169731	0.659500
C144	C	1.644862	0.503065	0.992834
C145	C	0.978242	-0.081288	0.326182
C146	C	1.311575	0.252046	0.659515
C147	C	1.644908	0.585379	0.992849
C148	C	0.978087	-0.356757	0.150276
C149	C	1.311420	-0.023424	0.483610
C150	C	1.644754	0.309910	0.816943
C151	C	0.978202	-0.356568	0.075045
C152	C	1.311535	-0.023235	0.408378
C153	C	1.644869	0.310099	0.741711
C154	C	1.021458	-0.309333	0.613266
C155	C	1.354792	0.024000	0.946600
C156	C	1.688125	0.357334	1.279933
C157	C	1.021465	-0.309311	0.683955
C158	C	1.354799	0.024022	1.017288
C159	C	1.688132	0.357355	1.350622
C160	C	0.978157	-0.356659	0.719283
C161	C	1.311490	-0.023325	1.052616
C162	C	1.644824	0.310008	1.385950
C163	C	0.934834	-0.404025	0.683919
C164	C	1.268167	-0.070692	1.017252
C165	C	1.601501	0.262642	1.350585
C166	C	0.934824	-0.404042	0.613231
C167	C	1.268157	-0.070709	0.946565
C168	C	1.601491	0.262624	1.279898
C169	C	0.934872	-0.403956	0.968992
C170	C	1.268205	-0.070623	1.302325
C171	C	1.601539	0.262711	1.635659
C172	C	0.934887	-0.403937	1.039684
C173	C	1.268220	-0.070603	1.373018
C174	C	1.601553	0.262730	1.706351
C175	C	1.021513	-0.309225	1.039716
C176	C	1.354847	0.024108	1.373049
C177	C	1.688180	0.357441	1.706382
C178	C	1.021503	-0.309242	0.969028
C179	C	1.354837	0.024091	1.302362
C180	C	1.688170	0.357424	1.635695
C181	C	0.978178	-0.356606	0.933670
C182	C	1.311512	-0.023272	1.267004
C183	C	1.644845	0.310061	1.600337
C184	C	0.978170	-0.356628	0.857022
C185	C	1.311504	-0.023294	1.190355
C186	C	1.644837	0.310039	1.523689
C187	C	0.978168	-0.356641	0.795930
C188	C	1.311501	-0.023308	1.129263
C189	C	1.644834	0.310025	1.462597
H190	H	0.937825	-0.792587	0.431325
H191	H	1.271158	-0.459254	0.764658
H192	H	1.604491	-0.125920	1.097992
Br193	Br	0.383855	-0.468568	0.427996
Br194	Br	0.717188	-0.135235	0.761329
Br195	Br	1.050521	0.198098	1.094663
H196	H	0.236420	-0.442829	0.404554
H197	H	0.569754	-0.109495	0.737887
H198	H	0.903087	0.223838	1.071220
H199	H	1.056741	-0.270744	0.712741
H200	H	1.390074	0.062589	1.046075
H201	H	1.723408	0.395922	1.379408
Br202	Br	1.080285	-0.244987	0.921087
Br203	Br	1.413618	0.088346	1.254420
Br204	Br	1.746951	0.421679	1.587753
H205	H	0.899617	-0.442494	1.068446
H206	H	1.232950	-0.109161	1.401780
H207	H	1.566284	0.224173	1.735113
Br208	Br	1.117573	-0.777575	0.286998
Br209	Br	1.450906	-0.444242	0.620331
Br210	Br	1.784240	-0.110909	0.953664
Br211	Br	0.876053	-0.468279	0.731863
Br212	Br	1.209386	-0.134945	1.065196
Br213	Br	1.542720	0.198388	1.398529
Br214	Br	1.114563	-0.932687	0.280800
Br215	Br	1.447897	-0.599353	0.614133
Br216	Br	1.781230	-0.266020	0.947467
Br217	Br	0.945923	-0.933519	0.467045
Br218	Br	1.279256	-0.600185	0.800378
Br219	Br	1.612589	-0.266852	1.133711
Br220	Br	0.217240	-0.245001	0.224307
Br221	Br	0.550573	0.088332	0.557640
Br222	Br	0.883907	0.421665	0.890974
H223	H	0.592189	-0.270722	0.247742
H224	H	0.925522	0.062611	0.581076
H225	H	1.258856	0.395944	0.914409
Br226	Br	0.383854	-0.244975	0.224301
Br227	Br	0.717188	0.088358	0.557635
Br228	Br	1.050521	0.421692	0.890968
Br229	Br	1.080312	-0.244944	1.087705
Br230	Br	1.413646	0.088390	1.421038
Br231	Br	1.746979	0.421723	1.754372
Br232	Br	0.739626	-0.244962	0.224270
Br233	Br	1.072960	0.088371	0.557603
Br234	Br	1.406293	0.421704	0.890936
Br235	Br	0.876072	-0.468234	0.921015
Br236	Br	1.209406	-0.134900	1.254348
Br237	Br	1.542739	0.198433	1.587682
Br238	Br	1.080242	-0.245078	0.565328
Br239	Br	1.413576	0.088255	0.898662
Br240	Br	1.746909	0.421589	1.231995
H241	H	0.906106	-0.919033	0.239644
H242	H	1.239439	-0.585699	0.572978
H243	H	1.572773	-0.252366	0.906311
Br244	Br	0.838073	-0.935264	0.358692
Br245	Br	1.171406	-0.601930	0.692025
Br246	Br	1.504739	-0.268597	1.025358
H247	H	0.899543	-0.442604	0.584443
H248	H	1.232876	-0.109271	0.917776
H249	H	1.566210	0.224063	1.251109
H250	H	0.720425	-0.442805	0.404510
H251	H	1.053759	-0.109472	0.737844
H252	H	1.387092	0.223861	1.071177
Br253	Br	1.073622	-0.779340	0.433504
Br254	Br	1.406955	-0.446007	0.766838
Br255	Br	1.740289	-0.112673	1.100171
Br256	Br	0.837283	-0.779601	0.358260
Br257	Br	1.170617	-0.446268	0.691594
Br258	Br	1.503950	-0.112934	1.024927
H259	H	0.592192	-0.442808	0.404525
H260	H	0.925525	-0.109474	0.737859
H261	H	1.258858	0.223859	1.071192
Br262	Br	1.019031	-0.933523	0.187788
Br263	Br	1.352364	-0.600189	0.521122
Br264	Br	1.685697	-0.266856	0.854455
Br265	Br	1.020129	-0.779396	0.187919
Br266	Br	1.353462	-0.446062	0.521252
Br267	Br	1.686796	-0.112729	0.854586
H268	H	0.906997	-0.791960	0.239053
H269	H	1.240330	-0.458626	0.572386
H270	H	1.573663	-0.125293	0.905720
H271	H	1.067374	-0.920474	0.395569
H272	H	1.400708	-0.587141	0.728902
H273	H	1.734041	-0.253807	1.062235
