data_functionalizedCrystal
_audit_creation_method	'MofGen! by Chris Wilmer'
_symmetry_space_group_name_H-M	'P1'
_symmetry_Int_Tables_number	1
_symmetry_cell_setting	triclinic
loop_
_symmetry_equiv_pos_as_xyz
  x,y,z
_cell_length_a	10.654550
_cell_length_b	23.532407
_cell_length_c	9.730223
_cell_angle_alpha	89.990210
_cell_angle_beta	89.996251
_cell_angle_gamma	83.666824
loop_
_atom_site_label
_atom_site_type_symbol
_atom_site_fract_x
_atom_site_fract_y
_atom_site_fract_z
O1	O	1.665300	0.079982	-0.114431
O2	O	1.299580	0.087603	-0.114412
O3	O	1.493468	0.000933	-0.114384
O4	O	1.471412	0.166652	-0.114460
O5	O	1.493466	0.000935	0.114196
O6	O	1.299578	0.087605	0.114168
O7	O	1.665298	0.079985	0.114149
Zn8	Zn	1.482437	0.083795	0.150450
Zn9	Zn	1.482440	0.083792	-0.150714
O10	O	1.471410	0.166655	0.114120
C11	C	1.252799	0.087044	-0.000119
C12	C	1.113409	0.085370	-0.000110
C13	C	1.492905	-0.020286	-0.000087
C14	C	1.491217	-0.083514	-0.000066
C15	C	1.032306	0.136400	-0.000153
C16	C	0.901335	0.134824	-0.000176
C17	C	0.932582	0.031183	-0.000118
C18	C	1.063550	0.032760	-0.000085
C19	C	1.014265	0.196236	-0.000193
C20	C	0.883294	0.194660	-0.000216
C21	C	1.369514	-0.350474	-0.000145
C22	C	1.371082	-0.291064	-0.000135
O23	O	1.274537	-0.254948	-0.000173
N24	N	1.486349	-0.267687	-0.000125
C25	C	1.600054	-0.303723	-0.000140
O26	O	1.698241	-0.278384	-0.000132
C27	C	1.598484	-0.363133	-0.000160
C28	C	1.483210	-0.386506	-0.000156
C29	C	1.254249	-0.373849	-0.000143
C30	C	1.252681	-0.433255	-0.000150
C31	C	1.366377	-0.469287	-0.000161
C32	C	1.481642	-0.445913	-0.000164
C33	C	1.712188	-0.399168	-0.000185
C34	C	1.710608	-0.458581	-0.000206
C35	C	1.595334	-0.481955	-0.000202
C36	C	1.593770	-0.541351	-0.000182
N37	N	1.478504	-0.564728	-0.000192
C38	C	1.364807	-0.528696	-0.000181
C39	C	1.603342	-0.178959	-0.000099
C40	C	1.604914	-0.119551	-0.000069
C41	C	1.375942	-0.106896	-0.000067
C42	C	1.374372	-0.166305	-0.000087
C43	C	1.488076	-0.202337	-0.000109
C44	C	1.361523	-0.653455	-0.000197
C45	C	1.359965	-0.712867	-0.000199
C46	C	1.588936	-0.725517	-0.000209
C47	C	1.590495	-0.666110	-0.000199
C48	C	1.476778	-0.630080	-0.000198
O49	O	1.690265	-0.577502	-0.000150
O50	O	1.266636	-0.554044	-0.000207
C51	C	1.712079	0.080543	-0.000148
C52	C	1.851469	0.082217	-0.000166
C53	C	1.471972	0.187873	-0.000180
C54	C	1.473661	0.251101	-0.000210
N55	N	1.482445	0.083797	0.355987
N56	N	1.482443	0.083786	-0.356250
C57	C	1.568320	0.045432	0.427925
C58	C	1.568317	0.045425	0.571808
C59	C	1.396559	0.122152	0.571801
C60	C	1.396557	0.122156	0.427921
C61	C	1.667486	0.001136	0.427930
C62	C	1.667483	0.001129	0.571813
H63	H	1.129581	-0.008793	-0.000030
C64	C	0.877725	-0.026685	-0.000099
N65	N	0.836408	-0.070273	-0.000087
C66	C	0.825947	0.225111	-0.129476
N67	N	0.782755	0.248044	-0.226833
C68	C	0.820809	0.219103	0.133074
N69	N	0.773742	0.237516	0.233462
C70	C	1.728435	-0.218590	-0.000095
N71	N	1.822655	-0.248436	-0.000088
H72	H	1.161658	-0.344516	-0.000138
C73	C	1.052894	0.227851	0.129032
N74	N	1.081989	0.251660	0.226364
H75	H	1.326631	0.153383	0.630386
C76	C	1.247563	-0.192010	-0.000095
N77	N	1.152045	-0.211368	-0.000106
H78	H	1.758231	0.015006	0.383292
H79	H	1.049318	0.215288	-0.098889
C80	C	1.233149	-0.738573	-0.000199
N81	N	1.137634	-0.757934	-0.000204
C82	C	1.236428	-0.613829	-0.000187
N83	N	1.142207	-0.583984	-0.000169
C84	C	1.839000	-0.373471	-0.000196
N85	N	1.934523	-0.354117	-0.000209
H86	H	1.158813	-0.452280	-0.000159
C87	C	1.640383	-0.057994	0.375193
N88	N	1.619965	-0.102529	0.335471
C89	C	1.628017	-0.054746	0.632122
N90	N	1.598283	-0.096829	0.677549
C91	C	1.302183	0.164403	0.348794
N92	N	1.231135	0.196244	0.289195
H93	H	1.698781	-0.100526	-0.000051
C94	C	1.835696	-0.498213	-0.000223
N95	N	1.929911	-0.528062	-0.000230
C96	C	1.717301	-0.640398	-0.000196
N97	N	1.812814	-0.621036	-0.000209
H98	H	1.283364	-0.077547	-0.000057
H99	H	1.681505	-0.754865	-0.000211
H100	H	1.763686	0.010886	0.610853
