data_functionalizedCrystal
_audit_creation_method	'MofGen! by Chris Wilmer'
_symmetry_space_group_name_H-M	'P1'
_symmetry_Int_Tables_number	1
_symmetry_cell_setting	triclinic
loop_
_symmetry_equiv_pos_as_xyz
  x,y,z
_cell_length_a	18.215407
_cell_length_b	15.299816
_cell_length_c	18.215399
_cell_angle_alpha	99.657378
_cell_angle_beta	89.980167
_cell_angle_gamma	80.351325
loop_
_atom_site_label
_atom_site_type_symbol
_atom_site_fract_x
_atom_site_fract_y
_atom_site_fract_z
Zn1	Zn	1.175767	-0.359060	-0.466870
Zn2	Zn	1.675767	0.140940	0.033130
Zn3	Zn	1.196971	-0.509888	-0.365123
Zn4	Zn	1.696971	-0.009888	0.134877
Zn5	Zn	1.052704	-0.359090	-0.343821
Zn6	Zn	1.552704	0.140910	0.156179
Zn7	Zn	1.073954	-0.509838	-0.488141
Zn8	Zn	1.573954	-0.009838	0.011859
O9	O	1.124849	-0.434469	-0.415989
O10	O	1.624849	0.065531	0.084011
O11	O	1.281565	-0.379077	-0.453386
O12	O	1.781565	0.120923	0.046614
O13	O	1.177814	-0.489918	-0.259318
O14	O	1.677814	0.010082	0.240682
O15	O	1.051262	-0.232875	-0.342327
O16	O	1.551262	0.267125	0.157673
O17	O	1.297144	-0.489889	-0.378633
O18	O	1.797144	0.010111	0.121367
O19	O	1.141676	-0.232854	-0.432730
O20	O	1.641676	0.267146	0.067270
O21	O	1.071822	-0.379127	-0.243667
O22	O	1.571822	0.120873	0.256333
O23	O	0.952537	-0.379078	-0.362953
O24	O	1.452537	0.120922	0.137047
O25	O	1.087479	-0.489804	-0.588299
O26	O	1.587479	0.010196	-0.088299
O27	O	0.968149	-0.489832	-0.468984
O28	O	1.468149	0.010168	0.031016
O29	O	1.162281	-0.379028	-0.572671
O30	O	1.662281	0.120972	-0.072671
O31	O	1.198419	-0.636092	-0.399259
O32	O	1.698419	-0.136092	0.100741
O33	O	1.108039	-0.636055	-0.489639
O34	O	1.608039	-0.136055	0.010361
C35	C	0.933640	-0.434454	-0.415965
C36	C	1.433640	0.065546	0.084035
C37	C	0.851844	-0.434469	-0.415976
C38	C	1.351844	0.065531	0.084024
C39	C	0.671811	-0.492229	-0.471140
C40	C	1.171811	0.007771	0.028860
C41	C	0.594953	-0.492232	-0.471150
C42	C	1.094953	0.007768	0.028850
C43	C	0.578641	-0.376725	-0.360856
C44	C	1.078641	0.123275	0.139144
C45	C	0.655497	-0.376719	-0.360850
C46	C	1.155497	0.123281	0.139150
C47	C	0.702081	-0.434476	-0.415992
C48	C	1.202081	0.065524	0.084008
C49	C	0.548366	-0.434485	-0.416007
C50	C	1.048366	0.065515	0.083993
C51	C	0.465033	-0.434488	-0.416017
C52	C	0.965033	0.065512	0.083983
C53	C	0.785420	-0.434472	-0.415983
C54	C	1.285420	0.065528	0.084017
C55	C	1.157856	-0.668798	-0.449085
C56	C	1.657856	-0.168798	0.050915
C57	C	1.172044	-0.769046	-0.463268
C58	C	1.672044	-0.269046	0.036732
C59	C	1.023929	-1.051970	-0.314869
C60	C	1.523929	-0.551970	0.185131
C61	C	1.010595	-0.957782	-0.301545
C62	C	1.510595	-0.457782	0.198455
C63	C	1.050956	-0.910594	-0.341974
C64	C	1.550956	-0.410594	0.158026
C65	C	1.104653	-0.957601	-0.395730
C66	C	1.604653	-0.457601	0.104270
C67	C	1.117984	-1.051798	-0.409060
C68	C	1.617984	-0.551798	0.090940
C69	C	1.145012	-0.910422	-0.436165
C70	C	1.645012	-0.410422	0.063835
C71	C	1.198709	-0.957429	-0.489922
C72	C	1.698709	-0.457429	0.010078
C73	C	1.212038	-1.051616	-0.503248
C74	C	1.712038	-0.551616	-0.003248
C75	C	1.171677	-1.098805	-0.462819
C76	C	1.671677	-0.598805	0.037181
C77	C	1.131680	-0.816225	-0.422836
C78	C	1.631680	-0.316225	0.077164
C79	C	1.225736	-0.816053	-0.517027
C80	C	1.725736	-0.316053	-0.017027
C81	C	1.239070	-0.910240	-0.530351
C82	C	1.739070	-0.410240	-0.030351
C83	C	1.316804	-0.434485	-0.416013
C84	C	1.816804	0.065515	0.083987
C85	C	1.398604	-0.434492	-0.416023
C86	C	1.898604	0.065508	0.083977
C87	C	1.124885	-0.434407	-0.607933
C88	C	1.624885	0.065593	-0.107933
C89	C	1.124900	-0.434380	-0.689728
C90	C	1.624900	0.065620	-0.189728
C91	C	1.091733	-0.199224	-0.382779
C92	C	1.591733	0.300776	0.117221
C93	C	1.077621	-0.098977	-0.368628
C94	C	1.577621	0.401023	0.131372
C95	C	1.163859	-0.376645	-0.869778
C96	C	1.663859	0.123355	-0.369778
C97	C	1.163864	-0.376619	-0.946633
C98	C	1.663864	0.123381	-0.446633
C99	C	1.085974	-0.491976	-0.962896
C100	C	1.585974	0.008024	-0.462896
C101	C	1.085965	-0.491997	-0.886042
C102	C	1.585965	0.008003	-0.386042
C103	C	1.124912	-0.434333	-0.839485
C104	C	1.624912	0.065667	-0.339485
C105	C	1.124926	-0.434286	-0.993194
C106	C	1.624926	0.065714	-0.493194
C107	C	1.124931	-0.434258	-1.076524
C108	C	1.624931	0.065742	-0.576524
C109	C	1.124906	-0.434360	-0.756150
C110	C	1.624906	0.065640	-0.256150
C111	C	1.124846	-0.434466	-0.224782
C112	C	1.624846	0.065534	0.275218
C113	C	1.124938	-0.434238	-0.142951
C114	C	1.624938	0.065762	0.357049
H115	H	0.540704	-0.329703	-0.315960
H116	H	1.040704	0.170297	0.184040
C117	C	0.722515	-0.554892	-0.530927
C118	C	1.222515	-0.054892	-0.030927
C119	C	0.796305	-0.542545	-0.519109
C120	C	1.296305	-0.042545	-0.019109
C121	C	0.843033	-0.600262	-0.574167
C122	C	1.343033	-0.100262	-0.074167
H123	H	0.708186	-0.541823	-0.578575
H124	H	1.208186	-0.041823	-0.078575
H125	H	0.718495	-0.615496	-0.528633
H126	H	1.218495	-0.115496	-0.028633
H127	H	0.800322	-0.481956	-0.521411
H128	H	1.300322	0.018044	-0.021411
H129	H	0.810657	-0.555620	-0.471472
H130	H	1.310657	-0.055620	0.028528
H131	H	0.839012	-0.660866	-0.571873
H132	H	1.339012	-0.160866	-0.071873
H133	H	0.828697	-0.587189	-0.621812
H134	H	1.328697	-0.087189	-0.121812
H135	H	0.893105	-0.591899	-0.566153
H136	H	1.393105	-0.091899	-0.066153
H137	H	0.570311	-0.539259	-0.516058
H138	H	1.070311	-0.039259	-0.016058
H139	H	0.966874	-0.919512	-0.257777
H140	H	1.466874	-0.419512	0.242223
C141	C	1.043761	-0.554732	-1.013374
C142	C	1.543761	-0.054732	-0.513374
C143	C	1.072336	-0.643972	-1.007260
C144	C	1.572336	-0.143972	-0.507260
C145	C	1.033463	-0.701810	-1.053741
C146	C	1.533463	-0.201810	-0.553741
H147	H	1.049316	-0.546583	-1.063513
H148	H	1.549316	-0.046583	-0.563513
H149	H	0.992448	-0.541589	-0.998899
H150	H	1.492448	-0.041589	-0.498899
H151	H	1.123636	-0.657111	-1.021739
H152	H	1.623636	-0.157111	-0.521739
H153	H	1.066780	-0.652150	-0.957132
H154	H	1.566780	-0.152150	-0.457132
H155	H	0.982150	-0.688667	-1.039266
H156	H	1.482150	-0.188667	-0.539266
H157	H	1.039021	-0.693653	-1.103877
H158	H	1.539021	-0.193653	-0.603877
H159	H	1.052841	-0.762365	-1.049594
H160	H	1.552841	-0.262365	-0.549594
H161	H	0.680142	-0.329683	-0.315940
H162	H	1.180142	0.170317	0.184060
H163	H	1.195570	-0.329689	-0.831873
H164	H	1.695570	0.170311	-0.331873
C165	C	1.043692	-0.554536	-0.853000
C166	C	1.543692	-0.054536	-0.353000
C167	C	1.052003	-0.542191	-0.775727
C168	C	1.552003	-0.042191	-0.275727
C169	C	1.013063	-0.599772	-0.745262
C170	C	1.513063	-0.099772	-0.245262
H171	H	1.062953	-0.615169	-0.874064
H172	H	1.562953	-0.115169	-0.374064
H173	H	0.992370	-0.541322	-0.863678
H174	H	1.492370	-0.041322	-0.363678
H175	H	1.103314	-0.555412	-0.765055
H176	H	1.603314	-0.055412	-0.265055
H177	H	1.032738	-0.481570	-0.754643
H178	H	1.532738	0.018430	-0.254643
H179	H	0.961742	-0.586558	-0.755941
H180	H	1.461742	-0.086558	-0.255941
H181	H	1.032328	-0.660402	-0.766332
H182	H	1.532328	-0.160402	-0.266332
H183	H	1.018692	-0.591398	-0.692829
H184	H	1.518692	-0.091398	-0.192829
C185	C	1.206072	-0.314017	-0.979660
C186	C	1.706072	0.185983	-0.479660
C187	C	1.197726	-0.326316	-1.056928
C188	C	1.697726	0.173684	-0.556928
C189	C	1.236588	-0.268648	-1.087374
C190	C	1.736588	0.231352	-0.587374
H191	H	1.257399	-0.327162	-0.969021
H192	H	1.757399	0.172838	-0.469021
H193	H	1.186755	-0.253404	-0.958545
H194	H	1.686755	0.246596	-0.458545
H195	H	1.217046	-0.386915	-1.078036
H196	H	1.717046	0.113085	-0.578036
H197	H	1.146408	-0.313164	-1.067587
H198	H	1.646408	0.186836	-0.567587
H199	H	1.217271	-0.208035	-1.066259
H200	H	1.717271	0.291965	-0.566259
H201	H	1.287913	-0.281798	-1.076731
H202	H	1.787913	0.218202	-0.576731
H203	H	1.230925	-0.276979	-1.139802
H204	H	1.730925	0.223021	-0.639802
H205	H	1.087960	-0.777960	-0.379067
H206	H	1.587960	-0.277960	0.120933
C207	C	0.980216	-1.103365	-0.271030
C208	C	1.480216	-0.603365	0.228970
C209	C	1.003397	-1.195913	-0.294199
C210	C	1.503397	-0.695913	0.205801
C211	C	0.963150	-1.243287	-0.253821
C212	C	1.463150	-0.743287	0.246179
H213	H	0.928570	-1.088082	-0.279545
H214	H	1.428570	-0.588082	0.220455
H215	H	0.988849	-1.088014	-0.219404
H216	H	1.488849	-0.588014	0.280596
H217	H	0.994759	-1.211258	-0.345813
H218	H	1.494759	-0.711258	0.154187
H219	H	1.055038	-1.211223	-0.285682
H220	H	1.555038	-0.711223	0.214318
H221	H	0.971782	-1.227936	-0.202195
H222	H	1.471782	-0.727936	0.297805
H223	H	0.911505	-1.227997	-0.262339
H224	H	1.411505	-0.727997	0.237661
H225	H	0.978877	-1.306086	-0.269531
H226	H	1.478877	-0.806086	0.230469
C227	C	1.036403	-0.808333	-0.327371
C228	C	1.536403	-0.308333	0.172629
C229	C	0.980754	-0.777265	-0.271627
C230	C	1.480754	-0.277265	0.228373
C231	C	0.967335	-0.683064	-0.258142
C232	C	1.467335	-0.183064	0.241858
H233	H	1.020592	-0.786883	-0.371771
H234	H	1.520592	-0.286883	0.128229
H235	H	1.080863	-0.786955	-0.311622
H236	H	1.580863	-0.286955	0.188378
H237	H	0.936303	-0.798633	-0.287378
H238	H	1.436303	-0.298633	0.212622
H239	H	0.996549	-0.798690	-0.227215
H240	H	1.496549	-0.298690	0.272785
H241	H	1.011795	-0.661687	-0.242394
H242	H	1.511795	-0.161687	0.257606
H243	H	0.951527	-0.661623	-0.302547
H244	H	1.451527	-0.161623	0.197453
H245	H	0.929582	-0.661972	-0.220314
H246	H	1.429582	-0.161972	0.279686
H247	H	1.182533	-1.175500	-0.473662
H248	H	1.682533	-0.675500	0.026338
H249	H	1.255759	-1.089887	-0.547024
H250	H	1.755759	-0.589887	-0.047024
C251	C	1.297307	-0.961446	-0.588713
C252	C	1.797307	-0.461446	-0.088713
C253	C	1.300327	-1.054032	-0.591741
C254	C	1.800327	-0.554032	-0.091741
C255	C	1.353958	-1.101230	-0.645501
C256	C	1.853958	-0.601230	-0.145501
H257	H	1.344616	-0.946077	-0.575861
H258	H	1.844616	-0.446077	-0.075861
H259	H	1.284321	-0.946035	-0.635986
H260	H	1.784321	-0.446035	-0.135986
H261	H	1.313317	-1.069436	-0.544478
H262	H	1.813317	-0.569436	-0.044478
H263	H	1.253032	-1.069427	-0.604603
H264	H	1.753032	-0.569427	-0.104603
H265	H	1.340972	-1.085819	-0.692775
H266	H	1.840972	-0.585819	-0.192775
H267	H	1.401262	-1.085854	-0.632644
H268	H	1.901262	-0.585854	-0.132644
H269	H	1.356009	-1.164054	-0.647568
H270	H	1.856009	-0.664054	-0.147568
H271	H	1.258600	-0.777633	-0.549950
H272	H	1.758600	-0.277633	-0.049950
