data_functionalizedCrystal
_audit_creation_method	'MofGen! by Chris Wilmer'
_symmetry_space_group_name_H-M	'P1'
_symmetry_Int_Tables_number	1
_symmetry_cell_setting	triclinic
loop_
_symmetry_equiv_pos_as_xyz
  x,y,z
_cell_length_a	19.376995
_cell_length_b	21.606444
_cell_length_c	21.606444
_cell_angle_alpha	59.992989
_cell_angle_beta	75.504647
_cell_angle_gamma	52.467676
loop_
_atom_site_label
_atom_site_type_symbol
_atom_site_fract_x
_atom_site_fract_y
_atom_site_fract_z
Zr1	Zr	0.686695	0.677515	-0.235482
O2	O	0.572881	0.806640	-0.308777
O3	O	0.721584	0.548387	-0.212998
O4	O	0.721588	0.677511	-0.342137
O5	O	0.572874	0.677519	-0.077787
O6	O	0.838892	0.677513	-0.368469
O7	O	0.572877	0.677515	-0.179637
O8	O	0.838885	0.446532	-0.137462
O9	O	0.572881	0.908500	-0.308794
O10	O	0.824007	0.601502	-0.223078
O11	O	0.736463	0.601504	-0.127417
O12	O	0.736468	0.753532	-0.279462
O13	O	0.648923	0.753534	-0.183801
Zr14	Zr	0.873777	0.677525	-0.115039
Zr15	Zr	0.873781	0.677518	-0.277479
Zr16	Zr	0.686691	0.677522	-0.073042
Zr17	Zr	0.686696	0.839970	-0.235509
Zr18	Zr	0.873776	0.515069	-0.115012
O19	O	0.838887	0.806653	-0.137523
O20	O	0.838893	0.806643	-0.368491
O21	O	0.572875	0.806650	-0.077809
O22	O	0.987591	0.548400	-0.041744
O23	O	0.987597	0.548390	-0.272712
O24	O	0.721578	0.548397	0.017970
O25	O	0.987597	0.677520	-0.272734
O26	O	0.838883	0.677528	-0.008384
O27	O	0.721579	0.677527	0.017949
O28	O	0.987595	0.677525	-0.170883
O29	O	0.721590	0.908502	-0.342176
O30	O	0.838881	0.446538	-0.008345
O31	O	0.987590	0.446540	-0.041727
O32	O	0.987593	0.446534	-0.170844
O33	O	0.572878	0.908505	-0.179676
O34	O	0.721587	0.908507	-0.213058
O35	O	0.824003	0.601508	-0.071059
O36	O	0.911548	0.601506	-0.166720
O37	O	0.824008	0.753536	-0.223104
O38	O	0.736464	0.753538	-0.127443
C39	C	0.780234	0.474313	-0.175226
C40	C	0.780234	0.405347	-0.175214
C41	C	0.715609	0.429078	-0.216833
C42	C	0.715612	0.364289	-0.216850
C43	C	0.780236	0.275769	-0.175243
C44	C	0.844867	0.252038	-0.133622
C45	C	0.844867	0.316826	-0.133610
C46	C	0.844866	-0.009249	-0.133670
C47	C	0.844859	-0.074038	-0.133683
C48	C	0.715611	0.038214	-0.216909
C49	C	0.715611	0.103002	-0.216897
C50	C	0.780244	0.079266	-0.175280
C51	C	0.780242	0.149518	-0.175264
C52	C	0.780235	0.205517	-0.175254
C53	C	0.546220	0.677517	-0.122729
C54	C	0.466797	0.677516	-0.104900
C55	C	0.354850	0.677518	-0.023664
C56	C	0.429481	0.677518	-0.040424
C57	C	0.429488	0.677517	-0.152644
C58	C	0.354854	0.677521	-0.135896
C59	C	0.317542	0.677520	-0.071405
C60	C	0.317546	0.677523	-0.183636
C61	C	0.242921	0.677523	-0.166887
C62	C	0.205604	0.677519	-0.102398
C63	C	0.242917	0.677519	-0.054656
C64	C	0.354863	0.677518	-0.248125
C65	C	0.317555	0.677520	-0.295865
C66	C	0.242925	0.677526	-0.279119
C67	C	0.205608	0.677522	-0.214630
C68	C	0.205612	0.677526	-0.326861
C69	C	0.130987	0.677525	-0.310112
C70	C	0.130983	0.677521	-0.197881
C71	C	1.014252	0.677523	-0.227792
C72	C	1.093675	0.677524	-0.245621
C73	C	0.780241	0.677511	-0.378447
C74	C	0.780243	0.677508	-0.447407
C75	C	0.780237	0.880727	-0.175295
C76	C	0.780237	0.949693	-0.175306
C77	C	0.734536	0.756889	-0.900147
C78	C	0.734534	0.756887	-0.835349
C79	C	0.780230	0.677526	-0.773520
C80	C	0.825924	0.598162	-0.776489
C81	C	0.825920	0.598166	-0.841284
C82	C	0.825938	0.598147	-0.515174
C83	C	0.825941	0.598150	-0.450376
C84	C	0.734553	0.756868	-0.509238
C85	C	0.734549	0.756871	-0.574034
C86	C	0.780238	0.677508	-0.576996
C87	C	0.780239	0.677512	-0.647257
C88	C	0.780236	0.677521	-0.703261
C89	C	0.780230	0.677529	0.027927
C90	C	0.780229	0.677532	0.096886
C91	C	1.014250	0.474316	-0.227758
C92	C	1.093673	0.405351	-0.245575
C93	C	0.780229	0.474322	0.027961
C94	C	0.780227	0.405358	0.096932
C95	C	1.014245	0.474325	-0.024571
C96	C	1.093666	0.405362	0.026572
C97	C	0.546226	0.880715	-0.325950
C98	C	0.466805	0.949677	-0.377093
C99	C	0.546221	0.880724	-0.122763
C100	C	0.466798	0.949689	-0.104946
C101	C	0.780242	0.880718	-0.378482
C102	C	0.780245	0.949681	-0.447453
C103	C	1.085275	0.372962	-0.283368
C104	C	1.159894	0.308170	-0.300122
C105	C	1.242910	0.275765	-0.279080
C106	C	1.251305	0.308160	-0.241286
C107	C	1.176688	0.372955	-0.224536
C108	C	0.825921	0.372975	0.158747
C109	C	0.825916	0.308185	0.223560
C110	C	0.780221	0.275776	0.226556
C111	C	0.734521	0.308166	0.164734
C112	C	0.734522	0.372959	0.099924
C113	C	1.176668	0.372976	0.000653
C114	C	1.251299	0.308187	0.048699
C115	C	1.242927	0.275782	0.122664
C116	C	1.159916	0.308175	0.148583
C117	C	1.085286	0.372967	0.100537
C118	C	0.383803	0.982072	-0.351174
C119	C	0.309172	1.046880	-0.399220
C120	C	0.317545	1.079289	-0.473184
C121	C	0.400555	1.046892	-0.499104
C122	C	0.475185	0.982089	-0.451058
C123	C	0.475196	0.982085	-0.067160
C124	C	0.400577	1.046894	-0.050423
C125	C	0.317562	1.079302	-0.071468
C126	C	0.309166	1.046903	-0.109259
C127	C	0.383784	0.982100	-0.126000
C128	C	0.825948	0.982070	-0.450426
C129	C	0.825968	1.046860	-0.515230
C130	C	0.780277	1.079264	-0.577059
C131	C	0.734572	1.046870	-0.574084
C132	C	0.734558	0.982076	-0.509282
H133	H	0.662987	0.383620	-0.250740
F134	F	0.203197	0.677531	0.013980
H135	H	0.863132	0.399355	0.156322
F136	F	0.469184	0.677513	0.010396
F137	F	0.409531	1.081361	-0.010201
H138	H	0.256810	1.132069	-0.057832
F139	F	0.913645	-0.168253	-0.089397
H140	H	0.863133	0.281821	0.273890
H141	H	0.780227	0.223018	0.279333
F142	F	0.646823	0.063473	-0.261204
F143	F	0.874582	0.947594	-0.384631
F144	F	0.913647	0.157826	-0.089343
H145	H	1.153112	0.281781	0.208811
F146	F	1.150940	0.273701	-0.340343
F147	F	0.220807	1.081401	-0.131650
F148	F	1.339664	0.273661	-0.218893
H149	H	1.303702	0.223024	0.161778
H150	H	0.376934	0.955725	-0.156765
F151	F	0.996951	0.407424	0.128133
H152	H	0.863126	0.533545	-0.726141
F153	F	0.685893	0.273665	0.167933
H154	H	1.183537	0.399318	-0.193759
H155	H	0.376970	0.955688	-0.290950
F156	F	0.685904	0.947619	-0.506127
F157	F	0.685889	0.407413	0.034138
H158	H	1.318883	0.281819	0.027583
H159	H	1.183502	0.399351	-0.059571
F160	F	0.220835	1.081346	-0.371621
H161	H	0.697372	1.073264	-0.624433
H162	H	1.303661	0.223004	-0.292722
F163	F	0.126184	0.677513	-0.084571
F164	F	0.646823	0.523287	-0.261115
H165	H	0.256769	1.132056	-0.512299
F166	F	0.409453	1.081391	-0.577826
H167	H	0.542767	0.955714	-0.472171
F168	F	0.913650	-0.034520	-0.089371
F169	F	0.315131	0.677529	0.044971
H170	H	0.863185	1.073229	-0.517638
F171	F	0.563540	0.947608	-0.044757
H172	H	0.780295	1.132024	-0.629820
H173	H	0.662985	0.175078	-0.250775
H174	H	0.897491	0.297497	-0.099720
F175	F	0.685916	0.841338	-0.639836
F176	F	0.874566	0.513682	-0.518318
H177	H	0.100597	0.677530	-0.145369
H178	H	0.415630	0.677514	-0.261757
F179	F	0.357274	0.677518	-0.364498
F180	F	0.245338	0.677515	-0.395491
F181	F	0.469207	0.677515	-0.221277
H182	H	0.100611	0.677525	-0.348987
F183	F	0.874577	0.513679	-0.384571
F184	F	0.685905	0.841357	-0.965947
H185	H	0.697328	0.821507	-0.832939
F186	F	0.874550	0.513703	-0.844439
F187	F	0.685922	0.841334	-0.506080
F188	F	0.996931	0.407440	-0.305772
