data_functionalizedCrystal
_audit_creation_method	'MofGen! by Chris Wilmer'
_symmetry_space_group_name_H-M	'P1'
_symmetry_Int_Tables_number	1
_symmetry_cell_setting	triclinic
loop_
_symmetry_equiv_pos_as_xyz
  x,y,z
_cell_length_a	26.374263
_cell_length_b	26.373608
_cell_length_c	26.370205
_cell_angle_alpha	60.005297
_cell_angle_beta	60.010839
_cell_angle_gamma	59.993700
loop_
_atom_site_label
_atom_site_type_symbol
_atom_site_fract_x
_atom_site_fract_y
_atom_site_fract_z
O1	O	0.070152	-0.740800	0.619517
O2	O	0.026377	-0.576764	0.499159
O3	O	0.130245	-0.680560	0.499088
O4	O	-0.033715	-0.637003	0.619589
O5	O	0.164701	-0.646107	0.533470
O6	O	0.060833	-0.542310	0.533541
O7	O	0.104608	-0.706346	0.653899
Cu8	Cu	0.085867	-0.621182	0.596859
Cu9	Cu	0.045119	-0.661927	0.556199
O10	O	0.000741	-0.602549	0.653971
N11	N	0.114528	-0.592529	0.625461
N12	N	0.016463	-0.690587	0.527598
C13	C	0.181428	-0.355400	0.692330
C14	C	0.181530	-0.525690	0.862573
C15	C	0.181440	-0.525667	0.692313
C16	C	0.351736	-0.525673	0.692271
C17	C	0.200174	-0.411588	0.711047
C18	C	0.200232	-0.506954	0.806384
C19	C	0.295546	-0.506943	0.711016
C20	C	0.200182	-0.506940	0.711037
C21	C	0.157567	-0.283881	0.668507
C22	C	0.157587	-0.549500	0.668479
C23	C	0.224035	-0.483107	0.734871
C24	C	0.455739	-0.507754	0.637520
C25	C	0.520749	-0.529425	0.615835
C26	C	0.520768	-0.634611	0.655947
C27	C	0.455759	-0.612939	0.677633
C28	C	0.173240	-0.251367	0.604595
C29	C	0.151546	-0.186351	0.582941
C30	C	0.098512	-0.186369	0.689113
C31	C	0.120206	-0.251385	0.710768
C32	C	0.093669	-0.533798	0.684205
C33	C	0.071992	-0.555464	0.662532
C34	C	0.178144	-0.608536	0.609422
C35	C	0.199825	-0.586869	0.631088
C36	C	0.093821	-0.533842	0.966616
C37	C	0.072187	-0.555526	1.031630
C38	C	0.178370	-0.608608	1.031591
C39	C	0.200004	-0.586926	0.966576
C40	C	0.157728	-0.549541	0.934090
C41	C	0.423247	-0.549509	0.668416
C42	C	-0.097522	-0.709158	0.508557
C43	C	-0.002050	-0.709295	0.413344
C44	C	-0.002241	-0.804604	0.508735
C45	C	-0.002225	-0.709288	0.508793
C46	C	-0.026009	-0.733087	0.484858
N47	N	0.552340	-0.592538	0.625346
O48	O	0.750867	-0.598274	0.477076
O49	O	0.751048	-0.718989	0.640960
O50	O	0.750981	-0.718715	0.537020
O51	O	0.750934	-0.598547	0.581017
O52	O	0.647701	-0.684348	0.571512
O53	O	0.647768	-0.684622	0.675452
O54	O	0.647587	-0.563907	0.511569
Cu55	Cu	0.638247	-0.621127	0.596660
Cu56	Cu	0.760388	-0.661769	0.555869
O57	O	0.647654	-0.564181	0.615509
N58	N	0.846295	-0.690358	0.527176
N59	N	0.114503	-0.154778	0.625499
O60	O	-0.033701	0.043855	0.619632
O61	O	0.130190	0.043858	0.498933
O62	O	0.026233	0.043841	0.499224
O63	O	0.070257	0.043872	0.619341
O64	O	0.060690	-0.059448	0.533654
O65	O	0.164647	-0.059431	0.533363
O66	O	0.000756	-0.059434	0.654062
Cu67	Cu	0.085848	-0.068863	0.596857
Cu68	Cu	0.045099	0.053287	0.556138
O69	O	0.104714	-0.059417	0.653771
N70	N	0.016435	0.139202	0.527497
N71	N	0.114760	-0.592585	1.063190
O72	O	0.108896	-0.740779	1.261808
O73	O	-0.011787	-0.576838	1.261822
O74	O	-0.011509	-0.680779	1.261780
O75	O	0.108618	-0.636838	1.261850
O76	O	0.022916	-0.646341	1.158496
O77	O	0.022638	-0.542399	1.158538
O78	O	0.143321	-0.706341	1.158524
Cu79	Cu	0.086123	-0.621225	1.149100
Cu80	Cu	0.045411	-0.661953	1.271246
O81	O	0.143044	-0.602399	1.158566
N82	N	0.016774	-0.690600	1.357156
C83	C	0.039504	-0.538867	0.499769
C84	C	0.168130	-0.667407	0.499680
C85	C	0.091482	-0.744243	0.653289
C86	C	-0.037145	-0.615703	0.653378
C87	C	0.699429	-0.718429	0.678853
C88	C	0.699348	-0.718091	0.550135
C89	C	0.699202	-0.564465	0.473677
C90	C	0.699287	-0.564805	0.602393
C91	C	0.168023	-0.007659	0.499484
C92	C	0.039327	-0.007807	0.499887
C93	C	-0.037119	-0.007789	0.653468
C94	C	0.091620	-0.007770	0.653109
C95	C	-0.011194	-0.538964	1.210181
C96	C	-0.010843	-0.667676	1.210109
C97	C	0.142729	-0.744214	1.210165
C98	C	0.142386	-0.615494	1.210214
H99	H	0.020147	-0.542732	1.058106
C100	C	0.231473	-0.007265	0.448162
H101	H	0.257547	-0.007173	0.463127
H102	H	0.250201	-0.043205	0.436712
H103	H	0.225814	0.028836	0.412985
C104	C	0.193373	-0.602802	1.210233
H105	H	0.229515	-0.638710	1.210237
H106	H	0.203032	-0.568928	1.174223
H107	H	0.179027	-0.592950	1.246262
H108	H	0.180620	-0.791296	1.210154
H109	H	0.059391	-0.503396	0.940172
C110	C	0.026602	-0.007817	0.448906
H111	H	0.062490	-0.007813	0.412758
H112	H	0.016750	-0.043837	0.463256
H113	H	-0.007280	0.028206	0.439243
H114	H	0.699278	-0.527058	0.611808
C115	C	-0.061808	-0.680346	1.210022
H116	H	-0.097948	-0.644437	1.210012
H117	H	-0.047436	-0.690193	1.173986
H118	H	-0.071489	-0.714221	1.246025
H119	H	-0.084187	-0.007791	0.691362
H120	H	0.101045	-0.007760	0.690842
H121	H	-0.049082	-0.491880	1.210184
H122	H	-0.084239	-0.606419	0.691217
H123	H	0.252044	-0.599714	0.940097
C124	C	0.224874	-0.649688	1.067323
H125	H	0.266034	-0.655924	1.038640
H126	H	0.218618	-0.629816	1.092674
H127	H	0.218665	-0.688669	1.092692
C128	C	0.047211	-0.492688	0.725327
H129	H	0.069276	-0.482037	0.735986
H130	H	0.021834	-0.455923	0.703281
H131	H	0.021865	-0.514750	0.762093
C132	C	0.001684	-0.538190	0.679818
H133	H	-0.005177	-0.556438	0.661547
H134	H	-0.016560	-0.553149	0.723682
H135	H	-0.016584	-0.494319	0.664873
C136	C	0.224607	-0.649685	0.568336
H137	H	0.202542	-0.660357	0.557697
H138	H	0.249977	-0.627660	0.531564
H139	H	0.249960	-0.686445	0.590418
C140	C	0.270134	-0.604137	0.613790
H141	H	0.292183	-0.629498	0.588420
H142	H	0.280777	-0.567374	0.591737
H143	H	0.280817	-0.626205	0.650544
H144	H	0.699366	-0.755841	0.540718
H145	H	0.699142	-0.526565	0.426612
H146	H	0.429307	-0.646943	0.702793
H147	H	0.547237	-0.686258	0.663446
H148	H	0.547206	-0.495421	0.590679
H149	H	0.429268	-0.456103	0.630015
H150	H	0.203661	-0.277820	0.570179
C151	C	0.168782	-0.150579	0.512637
H152	H	0.150506	-0.107204	0.505792
H153	H	0.212642	-0.161227	0.494364
H154	H	0.153816	-0.161232	0.494383
C155	C	0.057420	-0.150622	0.735599
H156	H	0.051195	-0.179300	0.776765
H157	H	0.077265	-0.125256	0.729346
H158	H	0.018439	-0.125265	0.729369
H159	H	0.107441	-0.277854	0.762810
H160	H	0.215222	-0.676694	0.461838
C161	C	0.026877	-0.475215	0.448699
H162	H	-0.014238	-0.449205	0.463811
H163	H	0.055550	-0.456569	0.437378
H164	H	0.031516	-0.480605	0.413404
C165	C	0.104105	-0.807899	0.704354
H166	H	0.145215	-0.833913	0.689239
H167	H	0.099461	-0.802522	0.739656
H168	H	0.075428	-0.826540	0.715663
H169	H	0.699474	-0.756325	0.725922
