data_functionalizedCrystal
_audit_creation_method	'MofGen! by Chris Wilmer'
_symmetry_space_group_name_H-M	'P1'
_symmetry_Int_Tables_number	1
_symmetry_cell_setting	triclinic
loop_
_symmetry_equiv_pos_as_xyz
  x,y,z
_cell_length_a	19.805407
_cell_length_b	16.120297
_cell_length_c	16.120484
_cell_angle_alpha	95.614431
_cell_angle_beta	92.922838
_cell_angle_gamma	92.879222
loop_
_atom_site_label
_atom_site_type_symbol
_atom_site_fract_x
_atom_site_fract_y
_atom_site_fract_z
Zn1	Zn	0.999909	-0.489441	-0.356805
Zn2	Zn	0.999824	-0.356751	-0.489495
Zn3	Zn	0.892766	-0.349688	-0.349735
Zn4	Zn	0.880647	-0.496475	-0.496529
O5	O	0.943287	-0.423089	-0.423141
O6	O	1.094613	-0.471851	-0.374422
O7	O	0.990658	-0.238853	-0.465053
O8	O	0.912086	-0.362327	-0.233708
O9	O	1.094550	-0.374365	-0.471908
O10	O	0.990804	-0.465003	-0.238902
O11	O	0.912003	-0.233663	-0.362372
O12	O	0.796443	-0.369148	-0.369193
O13	O	0.891432	-0.612504	-0.483897
O14	O	0.787539	-0.476992	-0.477042
O15	O	0.979053	-0.607336	-0.381243
O16	O	0.978907	-0.381186	-0.607393
O17	O	0.891349	-0.483841	-0.612561
C18	C	0.767433	-0.423067	-0.423114
C19	C	0.692200	-0.423079	-0.423123
C20	C	0.656881	-0.473926	-0.372461
C21	C	0.586192	-0.473930	-0.372465
C22	C	0.550823	-0.423090	-0.423137
C23	C	0.586147	-0.372237	-0.473802
C24	C	0.656834	-0.372229	-0.473792
C25	C	0.301071	-0.372264	-0.473841
C26	C	0.230378	-0.372277	-0.473848
C27	C	0.230429	-0.473965	-0.372514
C28	C	0.301116	-0.473957	-0.372504
C29	C	0.336434	-0.423101	-0.423165
C30	C	0.413083	-0.423097	-0.423158
C31	C	0.474175	-0.423098	-0.423149
C32	C	0.933900	-0.641095	-0.434143
C33	C	0.929900	-0.733996	-0.438832
C34	C	0.922573	-0.904086	-0.447373
C35	C	0.964144	-0.942931	-0.398658
C36	C	0.960068	-1.037575	-0.403411
C37	C	0.926649	-0.809434	-0.442622
C38	C	1.119827	-0.423111	-0.423169
C39	C	1.195058	-0.423121	-0.423181
C40	C	0.933821	-0.434061	-0.640305
C41	C	0.929833	-0.438783	-0.733211
C42	C	0.952678	-0.205928	-0.412121
C43	C	0.956820	-0.113016	-0.407197
C44	C	0.922554	-0.447421	-0.903310
C45	C	0.964139	-0.398770	-0.942132
C46	C	0.960090	-0.403577	-1.036781
C47	C	0.926603	-0.442616	-0.808653
C48	C	0.952806	-0.412092	-0.205129
C49	C	0.956863	-0.407406	-0.112226
H50	H	0.329910	-0.515359	-0.331245
H51	H	1.002796	-0.905107	-0.353382
O52	O	0.871355	-0.507359	-0.953433
H53	H	0.876163	-0.501760	-1.020984
O54	O	0.871379	-0.954183	-0.507347
H55	H	0.819587	-0.936754	-0.492181
O56	O	0.695030	-0.528756	-0.317802
H57	H	0.658592	-0.564105	-0.282566
O58	O	0.694931	-0.317382	-0.528431
H59	H	0.723690	-0.356863	-0.572891
H60	H	0.557439	-0.515336	-0.331212
H61	H	0.201665	-0.515371	-0.331260
O62	O	0.192226	-0.317430	-0.528493
H63	H	0.228660	-0.282057	-0.563712
H64	H	1.002783	-0.353509	-0.904283
H65	H	0.329818	-0.330855	-0.515093
H66	H	0.557344	-0.330838	-0.515056
