data_functionalizedCrystal
_audit_creation_method	'MofGen! by Chris Wilmer'
_symmetry_space_group_name_H-M	'P1'
_symmetry_Int_Tables_number	1
_symmetry_cell_setting	triclinic
loop_
_symmetry_equiv_pos_as_xyz
  x,y,z
_cell_length_a	16.974897
_cell_length_b	14.044220
_cell_length_c	15.455313
_cell_angle_alpha	92.908275
_cell_angle_beta	83.675220
_cell_angle_gamma	88.284917
loop_
_atom_site_label
_atom_site_type_symbol
_atom_site_fract_x
_atom_site_fract_y
_atom_site_fract_z
O1	O	1.064114	0.112426	-0.146752
O2	O	0.834286	0.128724	-0.130638
O3	O	0.945750	-0.017391	-0.138444
O4	O	0.952650	0.258541	-0.138945
O5	O	0.939374	-0.009070	0.006264
O6	O	0.827910	0.137046	0.014071
O7	O	1.057738	0.120747	-0.002043
Cu8	Cu	0.942242	0.129656	0.019227
Cu9	Cu	0.949782	0.119815	-0.151908
O10	O	0.946274	0.266862	0.005763
C11	C	0.801507	0.132417	-0.056209
C12	C	0.713335	0.131012	-0.050026
C13	C	0.675380	0.125818	-0.125996
C14	C	0.592533	0.124514	-0.120174
C15	C	0.547641	0.128396	-0.038382
C16	C	0.585602	0.133593	0.037594
C17	C	0.668448	0.134904	0.031771
C18	C	0.299495	0.124967	-0.012509
C19	C	0.216644	0.123652	-0.006693
C20	C	0.223580	0.114575	-0.164461
C21	C	0.306428	0.115881	-0.170276
C22	C	0.344381	0.121083	-0.094301
N23	N	0.462958	0.127060	-0.032429
N24	N	0.429063	0.122426	-0.100255
C25	C	0.939542	-0.048529	-0.065878
C26	C	0.930533	-0.153707	-0.065245
C27	C	0.914064	-0.346282	-0.064103
C28	C	0.977956	-0.404252	-0.068585
C29	C	0.968793	-0.511408	-0.067950
C30	C	0.923227	-0.239117	-0.064738
C31	C	1.090517	0.117054	-0.076474
C32	C	1.178689	0.118459	-0.082662
C33	C	0.952482	0.298000	-0.066805
C34	C	0.961491	0.403178	-0.067443
N35	N	0.936943	0.136577	0.139594
N36	N	0.955086	0.112887	-0.272275
C37	C	0.984317	0.074525	0.181670
C38	C	0.980318	0.079767	0.272758
C39	C	0.928949	0.147068	0.321768
C40	C	0.881571	0.209123	0.279685
C41	C	0.885566	0.203875	0.188599
C42	C	0.911703	0.169694	0.594557
C43	C	0.907713	0.174939	0.685649
C44	C	1.006460	0.045582	0.678715
C45	C	1.010454	0.040344	0.587627
C46	C	0.963072	0.102396	0.545553
N47	N	0.924863	0.152430	0.414874
N48	N	0.967155	0.097028	0.452449
H49	H	0.180094	0.126841	0.059916
H50	H	1.045035	-0.004939	0.712980
N51	N	0.832493	-0.387126	-0.058380
H52	H	0.828209	-0.430703	-0.111557
H53	H	0.823543	-0.424495	-0.004238
H54	H	1.052282	-0.014457	0.547725
H55	H	0.549044	0.136760	0.104191
N56	N	0.723796	0.121621	-0.214216
H57	H	0.687177	0.118134	-0.261458
H58	H	0.756053	0.180701	-0.219915
N59	N	1.059527	-0.363392	-0.074289
H60	H	1.086946	-0.382565	-0.022731
H61	H	1.091627	-0.388724	-0.130050
H62	H	1.026150	0.019726	0.141771
H63	H	0.561634	0.120285	-0.182037
H64	H	0.699349	0.139137	0.093634
H65	H	1.018893	0.029239	0.307016
H66	H	0.865880	0.229747	0.725549
H67	H	0.873124	0.220221	0.560307
N68	N	0.826159	0.281705	0.332541
H69	H	0.830817	0.275617	0.396629
H70	H	0.840771	0.347966	0.315629
H71	H	0.342974	0.112713	-0.236881
H72	H	0.192670	0.110343	-0.226316
H73	H	0.330387	0.129196	0.049355
H74	H	0.846988	0.254403	0.154342
