data_functionalizedCrystal
_audit_creation_method	'MofGen! by Chris Wilmer'
_symmetry_space_group_name_H-M	'P1'
_symmetry_Int_Tables_number	1
_symmetry_cell_setting	triclinic
loop_
_symmetry_equiv_pos_as_xyz
  x,y,z
_cell_length_a	12.759401
_cell_length_b	29.839131
_cell_length_c	12.759393
_cell_angle_alpha	89.961905
_cell_angle_beta	89.982620
_cell_angle_gamma	90.041581
loop_
_atom_site_label
_atom_site_type_symbol
_atom_site_fract_x
_atom_site_fract_y
_atom_site_fract_z
Zn1	Zn	1.606049	-0.178824	-0.593935
Zn2	Zn	1.605865	-0.253963	-0.418236
Zn3	Zn	1.430354	-0.178848	-0.418275
Zn4	Zn	1.430257	-0.253928	-0.593877
O5	O	1.518131	-0.216391	-0.506081
O6	O	1.753045	-0.188796	-0.570636
O7	O	1.582546	-0.244023	-0.271220
O8	O	1.453778	-0.115978	-0.441617
O9	O	1.752910	-0.244000	-0.441551
O10	O	1.582860	-0.115960	-0.570674
O11	O	1.453599	-0.188837	-0.271248
O12	O	1.283320	-0.188803	-0.441561
O13	O	1.453613	-0.243941	-0.740906
O14	O	1.283249	-0.243964	-0.570575
O15	O	1.582766	-0.188762	-0.740949
O16	O	1.582452	-0.316825	-0.441495
O17	O	1.453435	-0.316800	-0.570538
C18	C	1.245164	-0.216382	-0.506066
C19	C	1.128387	-0.216390	-0.506085
C20	C	1.073516	-0.245158	-0.573152
C21	C	0.963792	-0.245164	-0.573163
C22	C	0.963820	-0.187631	-0.439032
C23	C	1.073542	-0.187624	-0.439027
C24	C	1.073498	-0.278375	-0.650588
C25	C	0.963774	-0.278381	-0.650600
C26	C	1.517942	-0.333113	-0.506029
C27	C	1.517956	-0.383048	-0.506041
C28	C	1.585433	-0.692692	-0.438986
C29	C	1.585563	-0.880365	-0.439027
O30	O	1.642783	-0.904630	-0.381974
N31	N	1.518349	-0.903833	-0.506160
C32	C	1.451103	-0.880379	-0.573292
O33	O	1.393945	-0.904647	-0.630402
C34	C	1.450980	-0.692707	-0.573256
C35	C	1.518190	-0.669242	-0.506111
C36	C	1.652639	-0.669226	-0.371848
C37	C	1.652602	-0.622311	-0.371834
C38	C	1.585359	-0.598861	-0.438959
C39	C	1.518153	-0.622326	-0.506098
C40	C	1.383740	-0.669255	-0.640393
C41	C	1.383717	-0.622334	-0.640380
C42	C	1.450927	-0.598868	-0.573235
C43	C	1.450873	-0.551961	-0.573209
N44	N	1.518086	-0.528493	-0.506076
C45	C	1.585329	-0.551943	-0.438951
C46	C	1.451171	-0.978910	-0.573305
C47	C	1.451201	-1.025828	-0.573313
C48	C	1.585662	-1.025810	-0.439049
C49	C	1.585626	-0.978891	-0.439036
C50	C	1.518385	-0.955442	-0.506172
C51	C	1.585246	-0.453417	-0.438927
C52	C	1.585199	-0.406498	-0.438916
C53	C	1.450743	-0.406520	-0.573184
C54	C	1.450784	-0.453435	-0.573191
C55	C	1.518044	-0.476883	-0.506059
O56	O	1.393691	-0.527667	-0.630240
O57	O	1.642496	-0.527668	-0.381867
C58	C	1.585470	-0.739607	-0.439000
C59	C	1.518264	-0.763073	-0.506138
C60	C	1.451021	-0.739623	-0.573263
C61	C	1.518294	-0.809991	-0.506146
C62	C	1.585537	-0.833440	-0.439021
C63	C	1.652750	-0.809972	-0.371888
C64	C	1.652713	-0.763057	-0.371875
C65	C	1.383808	-0.763091	-0.640396
C66	C	1.383850	-0.810006	-0.640404
C67	C	1.451093	-0.833456	-0.573279
C68	C	1.792164	-0.216399	-0.506096
C69	C	1.908941	-0.216403	-0.506102
C70	C	1.518199	-0.216345	-0.780114
C71	C	1.518229	-0.216325	-0.896891
C72	C	1.518350	-0.099212	-0.506156
C73	C	1.518444	-0.049278	-0.506188
C74	C	1.451114	-0.187584	-0.951774
C75	C	1.451146	-0.187571	-1.061498
C76	C	1.585415	-0.245041	-1.061447
C77	C	1.585377	-0.245056	-0.951725
C78	C	1.373598	-0.154403	-0.951804
C79	C	1.373630	-0.154390	-1.061528
C80	C	1.518124	-0.216404	-0.233113
C81	C	1.518298	-0.216297	-0.116337
H82	H	1.118215	-0.164195	-0.384422
H83	H	0.919152	-0.164211	-0.384437
H84	H	1.107477	-0.311409	-0.621295
H85	H	0.933941	-0.313167	-0.628659
H86	H	1.640013	-0.268466	-0.907043
H87	H	1.396413	-0.959821	-0.627977
H88	H	1.640086	-0.268432	-1.106106
H89	H	1.640355	-0.959788	-0.384362
H90	H	1.640414	-1.044911	-0.384393
H91	H	1.103315	-0.269096	-0.731998
H92	H	1.395991	-0.387419	-0.627834
H93	H	0.929788	-0.265961	-0.727955
H94	H	1.292199	-0.163720	-0.922024
H95	H	1.639930	-0.387393	-0.384235
H96	H	1.640017	-0.472503	-0.384264
H97	H	1.707333	-0.603208	-0.317162
H98	H	1.395485	-0.119590	-1.091335
H99	H	1.396461	-1.044930	-0.627979
H100	H	1.707402	-0.688314	-0.317186
H101	H	1.329005	-0.688353	-0.695065
H102	H	1.328962	-0.603244	-0.695053
H103	H	1.396060	-0.472542	-0.627869
H104	H	1.707442	-0.743955	-0.317199
H105	H	1.707499	-0.829074	-0.317230
H106	H	1.329110	-0.829108	-0.695080
H107	H	1.329052	-0.744001	-0.695059
H108	H	1.296319	-0.166844	-1.095551
H109	H	1.402799	-0.121358	-0.917797
