data_functionalizedCrystal
_audit_creation_method	'MofGen! by Chris Wilmer'
_symmetry_space_group_name_H-M	'P1'
_symmetry_Int_Tables_number	1
_symmetry_cell_setting	triclinic
loop_
_symmetry_equiv_pos_as_xyz
  x,y,z
_cell_length_a	14.519731
_cell_length_b	14.044209
_cell_length_c	13.596369
_cell_angle_alpha	90.008322
_cell_angle_beta	90.006374
_cell_angle_gamma	91.561597
loop_
_atom_site_label
_atom_site_type_symbol
_atom_site_fract_x
_atom_site_fract_y
_atom_site_fract_z
O1	O	1.233871	-0.124370	-0.081800
O2	O	0.966576	-0.138983	-0.081803
O3	O	1.096212	0.006315	-0.081787
O4	O	1.104234	-0.269668	-0.081815
O5	O	1.096229	0.006323	0.081795
O6	O	0.966592	-0.138975	0.081780
O7	O	1.233888	-0.124362	0.081783
Zn8	Zn	1.100243	-0.131667	0.107754
Zn9	Zn	1.100221	-0.131678	-0.107774
O10	O	1.104251	-0.269661	0.081768
C11	C	0.932169	-0.138295	-0.000011
C12	C	0.829624	-0.136243	-0.000012
C13	C	0.746345	-0.134576	-0.000015
C14	C	0.641868	-0.132492	-0.000015
C15	C	0.558596	-0.130839	-0.000015
C16	C	0.454112	-0.128756	-0.000017
C17	C	1.092709	0.041640	0.000006
C18	C	1.082232	0.146884	0.000010
C19	C	1.063079	0.339580	0.000002
C20	C	1.137388	0.397081	0.000001
C21	C	1.126731	0.504304	-0.000004
C22	C	1.073735	0.232347	0.000006
C23	C	1.268294	-0.125051	-0.000011
C24	C	1.370840	-0.127102	-0.000017
C25	C	1.107757	0.695015	-0.000020
C26	C	1.118239	0.589771	-0.000007
N27	N	1.100206	-0.131678	-0.254866
C28	C	1.100209	-0.131679	-0.343863
C29	C	1.100222	-0.131677	-0.455515
C30	C	1.100237	-0.131670	-0.544505
C31	C	1.100249	-0.131666	-0.656164
N32	N	1.100265	-0.131660	0.254846
H33	H	1.209009	0.365783	-0.000066
H34	H	0.991464	0.370876	-0.000000
