data_functionalizedCrystal
_audit_creation_method	'MofGen! by Chris Wilmer'
_symmetry_space_group_name_H-M	'P1'
_symmetry_Int_Tables_number	1
_symmetry_cell_setting	triclinic
loop_
_symmetry_equiv_pos_as_xyz
  x,y,z
_cell_length_a	19.288864
_cell_length_b	19.288865
_cell_length_c	18.366186
_cell_angle_alpha	89.988521
_cell_angle_beta	89.977106
_cell_angle_gamma	83.136245
loop_
_atom_site_label
_atom_site_type_symbol
_atom_site_fract_x
_atom_site_fract_y
_atom_site_fract_z
O1	O	0.921353	0.086649	-0.060791
O2	O	1.254686	0.419982	0.272542
O3	O	1.588019	0.753315	0.605875
O4	O	0.719092	0.098337	-0.060743
O5	O	1.052425	0.431671	0.272591
O6	O	1.385759	0.765004	0.605924
O7	O	0.826067	-0.008637	-0.060754
O8	O	1.159400	0.324696	0.272579
O9	O	1.492733	0.658029	0.605913
O10	O	0.814378	0.193623	-0.060780
O11	O	1.147711	0.526957	0.272553
O12	O	1.481045	0.860290	0.605887
O13	O	0.826049	-0.008643	0.060345
O14	O	1.159382	0.324691	0.393679
O15	O	1.492715	0.658024	0.727012
O16	O	0.719074	0.098332	0.060357
O17	O	1.052407	0.431665	0.393690
O18	O	1.385741	0.764999	0.727023
O19	O	0.921335	0.086643	0.060308
O20	O	1.254668	0.419977	0.393641
O21	O	1.588001	0.753310	0.726975
Zn22	Zn	0.820201	0.092487	0.079559
Zn23	Zn	1.153535	0.425820	0.412893
Zn24	Zn	1.486868	0.759154	0.746226
Zn25	Zn	0.820225	0.092494	-0.079994
Zn26	Zn	1.153559	0.425827	0.253339
Zn27	Zn	1.486892	0.759161	0.586672
O28	O	0.814360	0.193618	0.060319
O29	O	1.147693	0.526951	0.393653
O30	O	1.481027	0.860285	0.726986
C31	C	0.693207	0.097959	-0.000187
C32	C	1.026540	0.431292	0.333147
C33	C	1.359873	0.764625	0.666480
C34	C	0.616103	0.096830	-0.000167
C35	C	0.949436	0.430163	0.333166
C36	C	1.282770	0.763496	0.666499
C37	C	0.825682	-0.034516	-0.000202
C38	C	1.159015	0.298817	0.333131
C39	C	1.492348	0.632150	0.666465
C40	C	0.824553	-0.111620	-0.000195
C41	C	1.157886	0.221713	0.333138
C42	C	1.491219	0.555047	0.666471
C43	C	0.571407	0.159598	-0.000187
C44	C	0.904740	0.492931	0.333146
C45	C	1.238073	0.826264	0.666480
C46	C	0.498960	0.158537	-0.000195
C47	C	0.832293	0.491870	0.333138
C48	C	1.165626	0.825204	0.666472
C49	C	0.471212	0.094705	-0.000198
C50	C	0.804545	0.428038	0.333135
C51	C	1.137879	0.761371	0.666469
C52	C	0.515918	0.031929	-0.000174
C53	C	0.849252	0.365262	0.333159
C54	C	1.182585	0.698595	0.666492
C55	C	0.588364	0.032991	-0.000159
C56	C	0.921697	0.366324	0.333174
C57	C	1.255030	0.699658	0.666508
C58	C	0.362956	0.044527	-0.042642
C59	C	0.696290	0.377861	0.290691
C60	C	1.029623	0.711194	0.624024
C61	C	0.290512	0.043468	-0.042662
C62	C	0.623845	0.376801	0.290671
C63	C	0.957179	0.710134	0.624005
C64	C	0.247767	0.091425	-0.000241
C65	C	0.581100	0.424758	0.333092
C66	C	0.914433	0.758092	0.666425
C67	C	0.277473	0.140454	0.042189
C68	C	0.610806	0.473788	0.375523
C69	C	0.944140	0.807121	0.708856
C70	C	0.349918	0.141517	0.042205
C71	C	0.683252	0.474850	0.375538
C72	C	1.016585	0.808183	0.708871
C73	C	0.392658	0.093546	-0.000214
C74	C	0.725991	0.426879	0.333119
C75	C	1.059325	0.760212	0.666453
C76	C	0.124514	0.153047	-0.000269
C77	C	0.457848	0.486381	0.333065
C78	C	0.791181	0.819714	0.666398
C79	C	0.052066	0.151984	-0.000272
C80	C	0.385400	0.485317	0.333061
C81	C	0.718733	0.818651	0.666395
C82	C	0.069026	0.025374	-0.000259
C83	C	0.402360	0.358707	0.333075
C84	C	0.735693	0.692040	0.666408
C85	C	0.141473	0.026439	-0.000248
C86	C	0.474806	0.359772	0.333085
C87	C	0.808140	0.693106	0.666419
C88	C	0.169212	0.090278	-0.000256
C89	C	0.502546	0.423611	0.333077
C90	C	0.835879	0.756944	0.666410
C91	C	0.887321	-0.156316	-0.000207
C92	C	1.220654	0.177017	0.333126
C93	C	1.553987	0.510350	0.666460
C94	C	0.886260	-0.228763	-0.000218
C95	C	1.219593	0.104570	0.333115
C96	C	1.552927	0.437903	0.666448
C97	C	0.822428	-0.256511	-0.000203
C98	C	1.155761	0.076822	0.333130
C99	C	1.489094	0.410156	0.666463
C100	C	0.759652	-0.211805	-0.000196
C101	C	1.092985	0.121529	0.333137
C102	C	1.426318	0.454862	0.666471
C103	C	0.760714	-0.139359	-0.000192
C104	C	1.094047	0.193974	0.333141
C105	C	1.427381	0.527307	0.666475
C106	C	0.772242	-0.364800	0.042227
C107	C	1.105575	-0.031467	0.375561
C108	C	1.438908	0.301867	0.708894
C109	C	0.771182	-0.437245	0.042228
C110	C	1.104515	-0.103911	0.375561
C111	C	1.437849	0.229422	0.708894
C112	C	0.819148	-0.479956	-0.000219
C113	C	1.152481	-0.146623	0.333114
C114	C	1.485815	0.186710	0.666448
C115	C	0.868186	-0.450216	-0.042657
C116	C	1.201519	-0.116883	0.290677
C117	C	1.534852	0.216450	0.624010
C118	C	0.869248	-0.377771	-0.042653
C119	C	1.202582	-0.044438	0.290681
C120	C	1.535915	0.288896	0.624014
C121	C	0.821269	-0.335065	-0.000208
C122	C	1.154602	-0.001732	0.333125
C123	C	1.487935	0.331602	0.666459
C124	C	0.880770	-0.603209	-0.000244
C125	C	1.214104	-0.269875	0.333090
C126	C	1.547437	0.063458	0.666423
C127	C	0.879707	-0.675657	-0.000259
C128	C	1.213040	-0.342323	0.333074
C129	C	1.546374	-0.008990	0.666407
C130	C	0.753097	-0.658697	-0.000230
C131	C	1.086430	-0.325363	0.333104
C132	C	1.419763	0.007970	0.666437
C133	C	0.754162	-0.586250	-0.000221
C134	C	1.087495	-0.252917	0.333112
C135	C	1.420829	0.080417	0.666445
C136	C	0.818001	-0.558511	-0.000225
C137	C	1.151334	-0.225177	0.333109
C138	C	1.484667	0.108156	0.666442
C139	C	0.947220	0.087022	-0.000250
C140	C	1.280553	0.420355	0.333084
C141	C	1.613887	0.753689	0.666417
C142	C	1.024324	0.088151	-0.000274
C143	C	1.357657	0.421484	0.333060
C144	C	1.690990	0.754818	0.666393
C145	C	0.814745	0.219497	-0.000234
C146	C	1.148078	0.552831	0.333099
C147	C	1.481412	0.886164	0.666432
C148	C	0.815874	0.296601	-0.000246
C149	C	1.149207	0.629934	0.333088
C150	C	1.482541	0.963267	0.666421
N151	N	0.820190	0.092482	0.188451
N152	N	1.153524	0.425815	0.521784
N153	N	1.486857	0.759148	0.855117
N154	N	0.820242	0.092493	-0.188885
N155	N	1.153575	0.425827	0.144448
N156	N	1.486909	0.759160	0.477781
C157	C	0.867574	0.045137	0.226546
C158	C	1.200907	0.378470	0.559879
C159	C	1.534241	0.711803	0.893213
C160	C	0.867578	0.045134	0.302774
C161	C	1.200912	0.378467	0.636107
C162	C	1.534245	0.711800	0.969440
C163	C	0.820206	0.092488	0.340903
C164	C	1.153539	0.425821	0.674237
C165	C	1.486872	0.759154	1.007570
C166	C	0.772813	0.139836	0.302799
C167	C	1.106146	0.473170	0.636132
C168	C	1.439480	0.806503	0.969465
C169	C	0.772805	0.139834	0.226572
C170	C	1.106139	0.473167	0.559906
C171	C	1.439472	0.806500	0.893239
C172	C	0.810907	0.155775	0.461657
C173	C	1.144241	0.489109	0.794990
C174	C	1.477574	0.822442	1.128324
C175	C	0.810920	0.155779	0.537882
C176	C	1.144253	0.489112	0.871215
C177	C	1.477587	0.822446	1.204548
C178	C	0.820225	0.092496	0.576011
C179	C	1.153559	0.425830	0.909344
C180	C	1.486892	0.759163	1.242677
C181	C	0.829533	0.029207	0.537905
C182	C	1.162866	0.362540	0.871239
C183	C	1.496200	0.695873	1.204572
C184	C	0.829525	0.029204	0.461679
C185	C	1.162859	0.362537	0.795012
C186	C	1.496192	0.695871	1.128346
C187	C	0.820208	0.092496	0.423558
C188	C	1.153542	0.425829	0.756891
C189	C	1.486875	0.759162	1.090225
C190	C	0.867617	0.045144	0.696761
C191	C	1.200950	0.378477	1.030094
C192	C	1.534283	0.711810	1.363428
C193	C	0.867616	0.045140	0.772990
C194	C	1.200949	0.378473	1.106324
C195	C	1.534283	0.711806	1.439657
C196	C	0.772854	0.139849	0.773014
C197	C	1.106187	0.473182	1.106347
C198	C	1.439521	0.806515	1.439681
C199	C	0.772851	0.139847	0.696786
C200	C	1.106184	0.473180	1.030119
C201	C	1.439518	0.806513	1.363453
C202	C	0.820236	0.092495	0.658664
C203	C	1.153569	0.425828	0.991998
C204	C	1.486903	0.759162	1.325331
H205	H	0.593987	0.211580	-0.000195
H206	H	0.927320	0.544913	0.333138
H207	H	1.260654	0.878247	0.666471
H208	H	0.837110	-0.022324	0.568948
H209	H	1.170443	0.311009	0.902282
H210	H	1.503777	0.644342	1.235615
H211	H	0.624756	-0.018124	-0.000144
H212	H	0.958090	0.315210	0.333190
H213	H	1.291423	0.648543	0.666523
Cl214	Cl	0.799224	0.235342	0.585778
Cl215	Cl	1.132558	0.568675	0.919111
Cl216	Cl	1.465891	0.902009	1.252444
Cl217	Cl	0.958623	-0.731848	-0.000279
Cl218	Cl	1.291956	-0.398515	0.333055
Cl219	Cl	1.625289	-0.065182	0.666388
Cl220	Cl	0.681799	-0.083166	-0.000177
Cl221	Cl	1.015132	0.250167	0.333156
Cl222	Cl	1.348466	0.583500	0.666490
Cl223	Cl	0.675249	-0.530057	-0.000203
Cl224	Cl	1.008582	-0.196724	0.333130
Cl225	Cl	1.341916	0.136609	0.666463
H226	H	0.015674	0.203099	-0.000284
H227	H	0.349008	0.536433	0.333050
H228	H	0.682341	0.869766	0.666383
Cl229	Cl	0.159390	0.233300	-0.000272
Cl230	Cl	0.492723	0.566633	0.333061
Cl231	Cl	0.826057	0.899966	0.666395
Cl232	Cl	0.672850	-0.693572	-0.000215
Cl233	Cl	1.006183	-0.360239	0.333118
Cl234	Cl	1.339516	-0.026906	0.666451
Cl235	Cl	0.679405	-0.246686	-0.000183
Cl236	Cl	1.012739	0.086647	0.333150
Cl237	Cl	1.346072	0.419980	0.666484
Cl238	Cl	0.253173	-0.018162	-0.096011
Cl239	Cl	0.586507	0.315172	0.237323
Cl240	Cl	0.919840	0.648505	0.570656
H241	H	0.493322	-0.020044	-0.000187
H242	H	0.826655	0.313289	0.333147
H243	H	1.159988	0.646623	0.666480
Cl244	Cl	0.799273	0.235341	0.413731
Cl245	Cl	1.132607	0.568674	0.747065
Cl246	Cl	1.465940	0.902008	1.080398
H247	H	0.177866	-0.024674	-0.000236
H248	H	0.511199	0.308660	0.333097
H249	H	0.844533	0.641993	0.666431
H250	H	0.397755	0.005473	-0.077191
H251	H	0.731088	0.338806	0.256143
H252	H	1.064421	0.672140	0.589476
Cl253	Cl	0.709538	-0.474625	0.095580
Cl254	Cl	1.042871	-0.141292	0.428913
Cl255	Cl	1.376205	0.192042	0.762247
H256	H	0.906165	0.006578	0.333797
H257	H	1.239499	0.339911	0.667130
H258	H	1.572832	0.673245	1.000463
Cl259	Cl	0.387262	0.203147	0.095547
Cl260	Cl	0.720595	0.536481	0.428880
Cl261	Cl	1.053929	0.869814	0.762214
H262	H	0.939303	-0.133736	-0.000212
H263	H	1.272636	0.199597	0.333121
H264	H	1.605970	0.532931	0.666454
Cl265	Cl	0.223744	0.200749	0.095522
Cl266	Cl	0.557077	0.534082	0.428855
Cl267	Cl	0.890410	0.867415	0.762188
Cl268	Cl	0.034151	-0.054873	-0.000254
Cl269	Cl	0.367484	0.278460	0.333080
Cl270	Cl	0.700817	0.611793	0.666413
Cl271	Cl	0.965174	-0.284963	-0.000233
Cl272	Cl	1.298507	0.048370	0.333100
Cl273	Cl	1.631841	0.381703	0.666433
Cl274	Cl	0.713255	0.199365	0.350731
Cl275	Cl	1.046589	0.532698	0.684065
Cl276	Cl	1.379922	0.866031	1.017398
Cl277	Cl	0.930888	-0.340385	-0.096005
Cl278	Cl	1.264222	-0.007052	0.237328
Cl279	Cl	1.597555	0.326282	0.570662
Cl280	Cl	0.711937	-0.311112	0.095596
Cl281	Cl	1.045270	0.022221	0.428929
Cl282	Cl	1.378604	0.355554	0.762263
H283	H	0.907244	-0.484991	-0.077221
H284	H	1.240578	-0.151658	0.256112
H285	H	1.573911	0.181675	0.589446
Cl286	Cl	0.442760	0.237451	-0.000218
Cl287	Cl	0.776093	0.570784	0.333116
Cl288	Cl	1.109426	0.904118	0.666449
H289	H	0.932751	-0.580622	-0.000250
H290	H	1.266085	-0.247289	0.333083
H291	H	1.599418	0.086044	0.666417
Cl292	Cl	0.927139	-0.014393	0.178622
Cl293	Cl	1.260472	0.318940	0.511955
Cl294	Cl	1.593805	0.652273	0.845289
Cl295	Cl	0.841218	-0.050356	0.413778
Cl296	Cl	1.174551	0.282977	0.747111
Cl297	Cl	1.507884	0.616311	1.080444
H298	H	0.734219	0.178388	0.195554
H299	H	1.067552	0.511722	0.528888
H300	H	1.400885	0.845055	0.862221
Cl301	Cl	0.927182	-0.014387	0.648835
Cl302	Cl	1.260515	0.318946	0.982169
Cl303	Cl	1.593849	0.652279	1.315502
Cl304	Cl	0.713294	0.199374	0.820943
Cl305	Cl	1.046628	0.532708	1.154276
Cl306	Cl	1.379961	0.866041	1.487609
Cl307	Cl	0.927185	-0.014389	0.820885
Cl308	Cl	1.260519	0.318944	1.154218
Cl309	Cl	1.593852	0.652278	1.487551
Cl310	Cl	0.713284	0.199373	0.648890
Cl311	Cl	1.046617	0.532706	0.982223
Cl312	Cl	1.379950	0.866039	1.315557
