data_functionalizedCrystal
_audit_creation_method	'MofGen! by Chris Wilmer'
_symmetry_space_group_name_H-M	'P1'
_symmetry_Int_Tables_number	1
_symmetry_cell_setting	triclinic
loop_
_symmetry_equiv_pos_as_xyz
  x,y,z
_cell_length_a	13.262533
_cell_length_b	14.853559
_cell_length_c	12.376457
_cell_angle_alpha	101.294162
_cell_angle_beta	94.179852
_cell_angle_gamma	84.050009
loop_
_atom_site_label
_atom_site_type_symbol
_atom_site_fract_x
_atom_site_fract_y
_atom_site_fract_z
O1	O	1.325727	0.178840	0.313603
O2	O	1.039025	0.175908	0.225453
O3	O	1.190038	0.046597	0.271885
O4	O	1.174713	0.308151	0.267171
O5	O	1.152298	0.078878	0.448293
O6	O	1.001285	0.208189	0.401861
O7	O	1.287987	0.211121	0.490011
Zn8	Zn	1.138644	0.214781	0.473944
Zn9	Zn	1.188368	0.172248	0.241519
O10	O	1.136973	0.340432	0.443579
C11	C	0.983463	0.189244	0.302376
C12	C	0.874136	0.180875	0.268761
C13	C	0.483662	0.227683	0.558650
C14	C	0.586379	0.235552	0.590237
C15	C	0.658323	0.221883	0.509871
C16	C	0.627540	0.200345	0.397912
C17	C	0.524812	0.192483	0.366321
C18	C	0.699473	0.186682	0.317542
C19	C	0.668690	0.165145	0.205583
C20	C	0.565972	0.157283	0.173998
C21	C	0.494028	0.170952	0.254364
C22	C	0.802201	0.194544	0.349133
C23	C	0.843352	0.159344	0.156804
C24	C	0.740634	0.151476	0.125217
C25	C	1.170476	0.029107	0.359874
C26	C	1.168400	-0.071101	0.359230
C27	C	1.180164	-0.512393	0.260361
C28	C	1.139018	-0.477193	0.452688
C29	C	1.140977	-0.383044	0.453291
C30	C	1.162528	-0.353565	0.357427
C31	C	1.182121	-0.418235	0.260960
C32	C	1.121375	-0.318366	0.549753
C33	C	1.123332	-0.224211	0.550360
C34	C	1.144891	-0.194731	0.454497
C35	C	1.164485	-0.259407	0.358027
C36	C	1.186036	-0.229928	0.262163
C37	C	1.205638	-0.294604	0.165693
C38	C	1.203679	-0.388755	0.165098
C39	C	1.146849	-0.100579	0.455093
C40	C	1.187993	-0.135771	0.262762
C41	C	1.343548	0.197785	0.413086
C42	C	1.452877	0.206153	0.446693
C43	C	1.156536	0.357921	0.355587
C44	C	1.158613	0.458128	0.356225
N45	N	1.104715	0.243808	0.632571
N46	N	1.222304	0.143215	0.082895
C47	C	1.301062	0.075816	1.047926
C48	C	1.324802	0.055500	0.936886
C49	C	1.269782	0.102575	0.860802
C50	C	1.191018	0.169970	0.895769
C51	C	1.167280	0.190294	1.006821
C52	C	1.136001	0.217052	0.819697
C53	C	1.057237	0.284448	0.854664
C54	C	1.033502	0.304767	0.965706
C55	C	1.088522	0.257692	1.041790
C56	C	1.159739	0.196729	0.708644
C57	C	1.025957	0.311206	0.667540
C58	C	1.002217	0.331523	0.778580
H59	H	0.715556	0.133940	0.034058
O60	O	0.913091	0.146073	0.078584
C61	C	0.863898	0.125364	-0.027005
H62	H	0.780603	0.153200	-0.022576
H63	H	0.869532	0.047452	-0.056785
C64	C	1.017372	0.136198	-0.113538
C65	C	0.915070	0.170393	-0.108101
H66	H	1.048939	0.163970	-0.163565
H67	H	1.050516	0.150146	-0.042401
H68	H	1.022053	0.071273	-0.138351
H69	H	0.910390	0.235315	-0.083275
H70	H	0.881926	0.156456	-0.179236
H71	H	1.223869	0.141856	0.680185
H72	H	0.410386	0.164539	0.228652
H73	H	0.969375	0.359652	0.994177
O74	O	1.118204	-0.505718	0.545916
C75	C	1.191411	-0.477103	0.630754
H76	H	1.227096	-0.415442	0.612576
H77	H	1.252836	-0.536090	0.635433
C78	C	1.096367	-0.525192	0.763987
C79	C	1.140190	-0.449453	0.741665
H80	H	1.064774	-0.508139	0.832404
H81	H	1.047048	-0.544473	0.706830
H82	H	1.147562	-0.574341	0.767879
H83	H	1.088993	-0.400310	0.737760
H84	H	1.189500	-0.430162	0.798825
H85	H	1.219636	-0.441422	0.086557
H86	H	1.107375	-0.171559	0.628913
H87	H	1.103824	-0.342376	0.627799
H88	H	1.196127	-0.565056	0.181819
H89	H	0.611434	0.253086	0.681394
H90	H	1.289116	0.086030	0.770389
O91	O	0.413887	0.240863	0.636811
C92	C	0.437489	0.176113	0.706417
H93	H	0.521606	0.151022	0.703154
H94	H	0.390262	0.115077	0.677684
C95	C	0.310127	0.252546	0.829681
C96	C	0.413442	0.221735	0.825681
H97	H	0.295290	0.280685	0.903248
H98	H	0.294222	0.296167	0.782784
H99	H	0.270783	0.201676	0.805731
H100	H	0.452784	0.272605	0.849617
H101	H	0.429353	0.178123	0.872584
H102	H	1.130868	-0.047924	0.533630
O103	O	1.401306	-0.010020	0.903096
C104	C	1.444794	-0.047197	0.994062
H105	H	1.387496	-0.036186	1.060813
H106	H	1.515462	-0.011312	1.028360
C107	C	1.544610	-0.164683	0.874940
C108	C	1.474232	-0.151166	0.956922
H109	H	1.562773	-0.228814	0.852031
H110	H	1.515315	-0.139634	0.813655
H111	H	1.603492	-0.134772	0.903534
H112	H	1.415347	-0.181067	0.928323
H113	H	1.503518	-0.176222	1.018202
H114	H	1.205547	-0.111778	0.184699
H115	H	1.345857	0.037499	1.109881
O116	O	1.226418	-0.265849	0.072595
C117	C	1.143534	-0.207392	0.040977
H118	H	1.097556	-0.176322	0.115828
H119	H	1.093256	-0.248813	-0.025053
C120	C	1.239492	-0.167712	-0.097411
C121	C	1.183027	-0.129546	-0.005475
H122	H	1.263851	-0.119695	-0.126069
H123	H	1.295332	-0.207098	-0.076113
H124	H	1.197586	-0.202229	-0.152424
H125	H	1.224937	-0.095039	0.049542
H126	H	1.127195	-0.090151	-0.026765
H127	H	0.981157	0.349541	0.605592
O128	O	1.065297	0.277512	1.149608
C129	C	0.984003	0.347112	1.164167
H130	H	0.939041	0.347567	1.082153
H131	H	1.015022	0.416926	1.194703
C132	C	0.969260	0.327656	1.350341
C133	C	0.914031	0.328210	1.249612
H134	H	0.926100	0.316000	1.403051
H135	H	1.024032	0.280768	1.340535
H136	H	0.995106	0.385836	1.375773
H137	H	0.888197	0.270027	1.224176
H138	H	0.859253	0.375088	1.259416
H139	H	0.938085	0.386398	0.807064
H140	H	0.827254	0.212082	0.440291
H141	H	0.540912	0.139756	0.082833
O142	O	0.758068	0.229514	0.540743
C143	C	0.769809	0.251475	0.656791
H144	H	0.702994	0.228637	0.694285
H145	H	0.772457	0.329111	0.684252
C146	C	0.951375	0.229490	0.649760
C147	C	0.869316	0.201433	0.695811
H148	H	1.012757	0.198626	0.673831
H149	H	0.943466	0.214698	0.571576
H150	H	0.953568	0.294187	0.672648
H151	H	0.867116	0.136740	0.672911
H152	H	0.877227	0.216213	0.773993
