data_functionalizedCrystal
_audit_creation_method	'MofGen! by Chris Wilmer'
_symmetry_space_group_name_H-M	'P1'
_symmetry_Int_Tables_number	1
_symmetry_cell_setting	triclinic
loop_
_symmetry_equiv_pos_as_xyz
  x,y,z
_cell_length_a	16.625548
_cell_length_b	18.215405
_cell_length_c	18.215399
_cell_angle_alpha	90.030551
_cell_angle_beta	89.980331
_cell_angle_gamma	89.974047
loop_
_atom_site_label
_atom_site_type_symbol
_atom_site_fract_x
_atom_site_fract_y
_atom_site_fract_z
Zn1	Zn	1.232660	0.292971	-0.416099
Zn2	Zn	1.732660	0.792971	0.083901
Zn3	Zn	1.232559	0.416042	-0.293027
Zn4	Zn	1.732559	0.916042	0.206973
Zn5	Zn	1.097824	0.292996	-0.293047
Zn6	Zn	1.597824	0.792996	0.206953
Zn7	Zn	1.097786	0.416002	-0.416053
Zn8	Zn	1.597786	0.916002	0.083947
O9	O	1.165207	0.354503	-0.354557
O10	O	1.665207	0.854503	0.145443
O11	O	1.345479	0.309302	-0.399785
O12	O	1.845479	0.809302	0.100215
O13	O	1.214660	0.399747	-0.190046
O14	O	1.714660	0.899747	0.309954
O15	O	1.115768	0.190009	-0.309398
O16	O	1.615768	0.690009	0.190602
O17	O	1.345405	0.399722	-0.309365
O18	O	1.845405	0.899722	0.190635
O19	O	1.214831	0.189990	-0.399804
O20	O	1.714831	0.689990	0.100196
O21	O	1.115670	0.309346	-0.190060
O22	O	1.615670	0.809346	0.309940
O23	O	0.984986	0.309307	-0.309353
O24	O	1.484986	0.809307	0.190647
O25	O	1.115704	0.399655	-0.519043
O26	O	1.615704	0.899655	-0.019043
O27	O	0.984959	0.399679	-0.399724
O28	O	1.484959	0.899679	0.100276
O29	O	1.214795	0.309264	-0.519077
O30	O	1.714795	0.809264	-0.019077
O31	O	1.214624	0.519021	-0.309319
O32	O	1.714624	1.019021	0.190681
O33	O	1.115607	0.518992	-0.399705
O34	O	1.615607	1.018992	0.100295
C35	C	1.165122	0.545709	-0.354521
C36	C	1.665122	1.045709	0.145479
C37	C	1.165159	0.627508	-0.354531
C38	C	1.665159	1.127508	0.145469
C39	C	0.955716	0.354492	-0.354536
C40	C	1.455716	0.854492	0.145464
C41	C	0.866095	0.354506	-0.354545
C42	C	1.366095	0.854506	0.145455
C43	C	1.165256	0.354452	-0.546510
C44	C	1.665256	0.854452	-0.046510
C45	C	1.165277	0.354431	-0.628309
C46	C	1.665277	0.854431	-0.128309
C47	C	0.537920	0.354510	-0.354576
C48	C	1.037920	0.854510	0.145424
C49	C	0.629228	0.354507	-0.354565
C50	C	1.129228	0.854507	0.145435
C51	C	0.702005	0.354508	-0.354560
C52	C	1.202005	0.854508	0.145440
C53	C	0.793319	0.354504	-0.354550
C54	C	1.293319	0.854504	0.145450
C55	C	1.375516	0.354514	-0.354578
C56	C	1.875516	0.854514	0.145422
C57	C	1.465137	0.354519	-0.354587
C58	C	1.965137	0.854519	0.145413
C59	C	1.165315	0.162550	-0.354608
C60	C	1.665315	0.662550	0.145392
C61	C	1.165361	0.080751	-0.354630
C62	C	1.665361	0.580751	0.145370
C63	C	1.216839	0.815693	-0.307553
C64	C	1.716839	1.315693	0.192447
C65	C	1.216875	0.892551	-0.307571
C66	C	1.716875	1.392551	0.192429
C67	C	1.113679	0.892561	-0.401613
C68	C	1.613679	1.392561	0.098387
C69	C	1.113648	0.815704	-0.401598
C70	C	1.613648	1.315704	0.098402
C71	C	1.165226	0.777272	-0.354564
C72	C	1.665226	1.277272	0.145436
C73	C	1.165294	0.930988	-0.354597
C74	C	1.665294	1.430988	0.145403
C75	C	1.165332	1.014321	-0.354616
C76	C	1.665332	1.514321	0.145384
C77	C	1.165189	0.693933	-0.354545
C78	C	1.665189	1.193933	0.145455
C79	C	1.216893	0.307320	-0.816522
C80	C	1.716893	0.807320	-0.316522
C81	C	1.216902	0.307299	-0.893380
C82	C	1.716902	0.807299	-0.393380
C83	C	1.113719	0.401427	-0.893334
C84	C	1.613719	0.901427	-0.393334
C85	C	1.113706	0.401444	-0.816476
C86	C	1.613706	0.901444	-0.316476
C87	C	1.165297	0.354392	-0.778072
C88	C	1.665297	0.854392	-0.278072
C89	C	1.165320	0.354353	-0.931788
C90	C	1.665320	0.854353	-0.431788
C91	C	1.165330	0.354330	-1.015122
C92	C	1.665330	0.854330	-0.515122
C93	C	1.165286	0.354414	-0.694733
C94	C	1.665286	0.854414	-0.194733
C95	C	1.165205	0.354500	-0.163350
C96	C	1.665205	0.854500	0.336650
C97	C	1.165340	0.354315	-0.081552
C98	C	1.665340	0.854315	0.418448
H99	H	1.258904	0.923831	-0.269291
H100	H	1.758904	1.423831	0.230709
O101	O	1.063461	0.929814	-0.447260
O102	O	1.563461	1.429814	0.052740
C103	C	0.983102	0.911117	-0.431090
C104	C	1.483102	1.411117	0.068910
H105	H	0.981429	0.855335	-0.402787
H106	H	1.481429	1.355335	0.097213
H107	H	0.955986	0.954421	-0.393239
H108	H	1.455986	1.454421	0.106761
C109	C	0.936267	0.976061	-0.537554
C110	C	1.436267	1.476061	-0.037554
C111	C	0.934211	0.907546	-0.502797
C112	C	1.434211	1.407546	-0.002797
H113	H	0.906107	0.973861	-0.581785
H114	H	1.406107	1.473861	-0.081785
H115	H	0.990406	0.988660	-0.548446
H116	H	1.490406	1.488660	-0.048446
H117	H	0.913672	1.012140	-0.506004
H118	H	1.413672	1.512140	-0.006004
H119	H	0.956815	0.871470	-0.534343
H120	H	1.456815	1.371470	-0.034343
H121	H	0.880075	0.894940	-0.491911
H122	H	1.380075	1.394940	0.008089
O123	O	1.063623	0.778344	-0.447346
O124	O	1.563623	1.278344	0.052654
C125	C	1.109481	0.733805	-0.494896
C126	C	1.609481	1.233805	0.005104
H127	H	1.172991	0.756919	-0.499501
H128	H	1.672991	1.256919	0.000499
H129	H	1.112253	0.675571	-0.472131
H130	H	1.612253	1.175571	0.027869
C131	C	0.992035	0.704205	-0.565710
C132	C	1.492035	1.204205	-0.065710
C133	C	1.070037	0.732598	-0.571371
C134	C	1.570037	1.232598	-0.071371
H135	H	0.967703	0.703457	-0.612883
H136	H	1.467703	1.203457	-0.112883
H137	H	0.961138	0.734210	-0.533673
H138	H	1.461138	1.234210	-0.033673
H139	H	0.994356	0.655680	-0.546737
H140	H	1.494356	1.155680	-0.046737
H141	H	1.067714	0.781125	-0.590335
H142	H	1.567714	1.281125	-0.090335
H143	H	1.100932	0.702601	-0.603413
H144	H	1.600932	1.202601	-0.103413
O145	O	1.063610	0.447105	-0.779008
O146	O	1.563610	0.947105	-0.279008
C147	C	1.074676	0.437040	-0.702937
C148	C	1.574676	0.937040	-0.202937
H149	H	1.101112	0.380248	-0.692466
H150	H	1.601112	0.880248	-0.192466
H151	H	1.117588	0.480697	-0.681119
H152	H	1.617588	0.980697	-0.181119
C153	C	0.960616	0.513541	-0.676319
C154	C	1.460616	1.013541	-0.176319
C155	C	0.993078	0.443786	-0.663458
C156	C	1.493078	0.943786	-0.163458
H157	H	0.910284	0.517706	-0.651966
H158	H	1.410284	1.017706	-0.151966
H159	H	0.953162	0.520325	-0.727569
H160	H	1.453162	1.020325	-0.227569
H161	H	0.996384	0.549914	-0.658138
H162	H	1.496384	1.049914	-0.158138
H163	H	0.957315	0.407415	-0.681648
H164	H	1.457315	0.907415	-0.181648
H165	H	1.000524	0.436996	-0.612210
H166	H	1.500524	0.936996	-0.112210
H167	H	1.258899	0.269005	-0.785255
H168	H	1.758899	0.769005	-0.285255
H169	H	1.258915	0.268967	-0.924683
H170	H	1.758915	0.768967	-0.424683
O171	O	1.063536	0.447161	-0.930527
O172	O	1.563536	0.947161	-0.430527
C173	C	1.018008	0.488725	-0.880106
C174	C	1.518008	0.988725	-0.380106
H175	H	1.015219	0.458592	-0.825330
H176	H	1.515219	0.958592	-0.325330
H177	H	1.047507	0.544618	-0.871917
H178	H	1.547507	1.044618	-0.371917
C179	C	0.935619	0.536338	-0.977364
C180	C	1.435619	1.036338	-0.477364
C181	C	0.932188	0.499325	-0.910088
C182	C	1.432188	0.999325	-0.410088
H183	H	0.882682	0.542880	-0.995858
H184	H	1.382682	1.042880	-0.495858
H185	H	0.966294	0.508338	-1.011334
H186	H	1.466294	1.008338	-0.511334
H187	H	0.960205	0.582912	-0.970530
H188	H	1.460205	1.082912	-0.470530
H189	H	0.907612	0.452749	-0.916923
H190	H	1.407612	0.952749	-0.416923
H191	H	0.901507	0.527317	-0.876119
H192	H	1.401507	1.027317	-0.376119
H193	H	1.258839	0.784403	-0.269256
H194	H	1.758839	1.284403	0.230744
