data_functionalizedCrystal
_audit_creation_method	'MofGen! by Chris Wilmer'
_symmetry_space_group_name_H-M	'P1'
_symmetry_Int_Tables_number	1
_symmetry_cell_setting	triclinic
loop_
_symmetry_equiv_pos_as_xyz
  x,y,z
_cell_length_a	18.101398
_cell_length_b	18.101395
_cell_length_c	13.032268
_cell_angle_alpha	97.146252
_cell_angle_beta	97.172052
_cell_angle_gamma	90.026661
loop_
_atom_site_label
_atom_site_type_symbol
_atom_site_fract_x
_atom_site_fract_y
_atom_site_fract_z
Zn1	Zn	1.078937	-0.348041	-0.590614
Zn2	Zn	1.094568	-0.456172	-0.415870
Zn3	Zn	0.970827	-0.332343	-0.415914
Zn4	Zn	0.955049	-0.471833	-0.590589
O5	O	1.024845	-0.402097	-0.503247
O6	O	1.184644	-0.362400	-0.567426
O7	O	1.091299	-0.426622	-0.269643
O8	O	0.985230	-0.230795	-0.439117
O9	O	1.196128	-0.441844	-0.439043
O10	O	1.064657	-0.242328	-0.567469
O11	O	1.000387	-0.335646	-0.269675
O12	O	0.865101	-0.350832	-0.439092
O13	O	0.958338	-0.468536	-0.736825
O14	O	0.853508	-0.453314	-0.567425
O15	O	1.049358	-0.377586	-0.736844
O16	O	1.075999	-0.561880	-0.439018
O17	O	0.973495	-0.573386	-0.567383
C18	C	0.832433	-0.402070	-0.503261
C19	C	0.750117	-0.402078	-0.503292
C20	C	0.451030	-0.402118	-0.503249
C21	C	0.475122	-0.466838	-0.583594
C22	C	0.560710	-0.466687	-0.583924
C23	C	0.599410	-0.402098	-0.503270
C24	C	0.565646	-0.326803	-0.533362
C25	C	0.479949	-0.327199	-0.533933
C26	C	0.492539	-0.411988	-0.392618
C27	C	0.578136	-0.413753	-0.393209
C28	C	0.683269	-0.402083	-0.503281
C29	C	0.367171	-0.402128	-0.503241
C30	C	1.024749	-0.594505	-0.503216
C31	C	1.024772	-0.676821	-0.503238
C32	C	1.024930	-0.975917	-0.503294
C33	C	0.960552	-0.951880	-0.584258
C34	C	0.960303	-0.866240	-0.584005
C35	C	1.024852	-0.827532	-0.503267
C36	C	1.013639	-0.848777	-0.393139
C37	C	1.013228	-0.934465	-0.393623
C38	C	1.100733	-0.946803	-0.531489
C39	C	1.100054	-0.861369	-0.533904
C40	C	1.024809	-0.743671	-0.503245
C41	C	1.024971	-1.059778	-0.503309
C42	C	1.218008	-0.402126	-0.503233
C43	C	1.300323	-0.402138	-0.503227
C44	C	1.000344	-0.426559	-0.775811
C45	C	0.989903	-0.436983	-0.891962
C46	C	1.024960	-0.208940	-0.503300
C47	C	1.025009	-0.126628	-0.503323
C48	C	1.030283	-0.396630	-0.943755
C49	C	1.019493	-0.407403	-1.063802
C50	C	1.049294	-0.377678	-0.231743
C51	C	1.059878	-0.367045	-0.115593
H52	H	0.456186	-0.523192	-0.564945
Cl53	Cl	0.430566	-0.458180	-0.709415
Cl54	Cl	0.595746	-0.553385	-0.554851
Cl55	Cl	0.953775	-0.473057	-1.132545
Cl56	Cl	1.095975	-0.330958	-0.875008
Cl57	Cl	0.462962	-0.494498	-0.350386
Cl58	Cl	1.125603	-0.301397	-1.046853
Cl59	Cl	0.924189	-0.502634	-0.960708
Cl60	Cl	0.455733	-0.251049	-0.447529
Cl61	Cl	0.580974	-0.457821	-0.710480
H62	H	1.059491	-0.822836	-0.331170
H63	H	0.904496	-0.971804	-0.565819
Cl64	Cl	1.176801	-0.820720	-0.449500
Cl65	Cl	1.119500	-0.991033	-0.653361
H66	H	0.452705	-0.317662	-0.614809
H67	H	0.591115	-0.277705	-0.476668
H68	H	0.579907	-0.316883	-0.613359
Cl69	Cl	0.969363	-0.994986	-0.710747
H70	H	0.958111	-0.952356	-0.369738
H71	H	0.600484	-0.469110	-0.370514
H72	H	0.605216	-0.369244	-0.330131
Cl73	Cl	1.174600	-0.969900	-0.440462
Cl74	Cl	0.469583	-0.339022	-0.300190
H75	H	0.966169	-0.852521	-0.665664
Cl76	Cl	0.873244	-0.832102	-0.555177
H77	H	0.959168	-0.825201	-0.368825
H78	H	1.058621	-0.949575	-0.331243
Cl79	Cl	1.113390	-0.841188	-0.659037
