data_functionalizedCrystal
_audit_creation_method	'MofGen! by Chris Wilmer'
_symmetry_space_group_name_H-M	'P1'
_symmetry_Int_Tables_number	1
_symmetry_cell_setting	triclinic
loop_
_symmetry_equiv_pos_as_xyz
  x,y,z
_cell_length_a	15.297475
_cell_length_b	18.101397
_cell_length_c	15.296720
_cell_angle_alpha	99.641375
_cell_angle_beta	91.617114
_cell_angle_gamma	80.322482
loop_
_atom_site_label
_atom_site_type_symbol
_atom_site_fract_x
_atom_site_fract_y
_atom_site_fract_z
Zn1	Zn	1.253431	-0.576362	-0.726551
Zn2	Zn	1.278699	-0.682998	-0.580058
Zn3	Zn	1.132307	-0.534758	-0.554796
Zn4	Zn	1.106925	-0.675719	-0.701187
O5	O	1.192841	-0.617459	-0.640648
O6	O	1.379362	-0.610965	-0.728306
O7	O	1.280477	-0.648969	-0.454134
O8	O	1.148422	-0.436657	-0.577622
O9	O	1.397926	-0.689310	-0.620678
O10	O	1.237411	-0.467223	-0.703810
O11	O	1.172923	-0.540058	-0.435573
O12	O	1.006361	-0.532999	-0.553027
O13	O	1.105162	-0.676903	-0.827125
O14	O	0.987713	-0.636562	-0.660581
O15	O	1.212800	-0.603906	-0.845760
O16	O	1.255866	-0.785653	-0.596084
O17	O	1.129664	-0.780304	-0.685077
C18	C	0.965253	-0.579477	-0.601311
C19	C	0.867887	-0.563248	-0.584503
C20	C	0.554750	-0.733453	-0.760779
C21	C	0.646231	-0.748706	-0.776569
C22	C	0.701649	-0.702343	-0.728554
C23	C	0.665578	-0.640724	-0.664746
C24	C	0.574089	-0.625474	-0.648950
C25	C	0.720988	-0.594363	-0.616725
C26	C	0.684917	-0.532745	-0.552918
C27	C	0.593436	-0.517496	-0.537125
C28	C	0.538018	-0.563860	-0.585140
C29	C	0.812477	-0.609614	-0.632521
C30	C	0.831816	-0.501634	-0.520692
C31	C	0.740335	-0.486381	-0.504903
C32	C	1.192773	-0.809852	-0.640593
C33	C	1.192819	-0.892176	-0.640612
C34	C	1.192917	-1.191295	-0.640711
C35	C	1.272162	-1.163251	-0.584506
C36	C	1.272366	-1.077692	-0.584722
C37	C	1.192869	-1.042898	-0.640662
C38	C	1.201906	-1.088917	-0.737308
C39	C	1.202492	-1.174605	-0.737029
C40	C	1.104316	-1.141563	-0.601039
C41	C	1.105131	-1.055748	-0.599057
C42	C	1.192839	-0.959031	-0.640639
C43	C	1.192948	-1.275163	-0.640741
C44	C	1.421316	-0.655590	-0.680140
C45	C	1.518679	-0.671839	-0.696969
C46	C	1.153331	-0.644233	-0.869113
C47	C	1.136495	-0.655643	-0.966472
C48	C	1.192929	-0.424321	-0.640727
C49	C	1.192967	-0.342017	-0.640761
C50	C	1.313207	-0.535789	-1.279718
C51	C	1.329031	-0.525071	-1.188247
C52	C	1.280898	-0.557713	-1.132798
C53	C	1.216938	-0.601075	-1.168831
C54	C	1.201118	-0.611798	-1.260313
C55	C	1.168809	-0.633722	-1.113393
C56	C	1.104849	-0.677084	-1.149425
C57	C	1.089031	-0.687806	-1.240898
C58	C	1.137164	-0.655164	-1.296346
C59	C	1.184630	-0.622999	-1.021911
C60	C	1.072541	-0.699008	-1.002505
C61	C	1.056717	-0.709726	-1.093977
C62	C	1.232247	-0.590744	-0.413081
C63	C	1.249253	-0.579154	-0.315752
H64	H	0.710953	-0.436211	-0.452950
Cl65	Cl	1.373716	-0.494767	-1.349428
H66	H	0.463526	-0.551443	-0.572289
Cl67	Cl	0.901479	-0.443349	-0.460323
H68	H	1.004640	-0.745032	-1.123328
Cl69	Cl	0.816655	-0.721517	-0.748408
H70	H	1.265376	-1.080978	-0.769262
Cl71	Cl	1.266438	-1.028879	-0.474858
H72	H	1.044206	-1.030900	-0.635713
H73	H	1.145258	-1.066703	-0.781000
H74	H	1.337773	-1.197927	-0.611776
H75	H	1.124283	-0.663888	-1.370831
Cl76	Cl	1.266649	-1.178700	-0.474370
H77	H	1.093006	-1.151661	-0.530951
Cl78	Cl	1.008639	-0.742333	-1.286197
Cl79	Cl	0.691572	-0.826167	-0.856779
Cl80	Cl	1.374193	-1.066491	-0.627210
Cl81	Cl	0.857813	-0.687074	-0.712734
H82	H	1.045469	-1.159242	-0.641781
H83	H	0.564072	-0.467329	-0.485160
Cl84	Cl	1.012032	-0.740051	-0.932806
H85	H	1.266779	-1.208180	-0.768775
H86	H	1.146428	-1.193631	-0.781216
H87	H	1.098027	-1.024367	-0.527855
Cl88	Cl	1.265033	-0.568488	-0.976624
H89	H	0.509622	-0.771199	-0.799861
H90	H	1.293786	-0.548984	-1.058318
H91	H	1.381109	-0.489768	-1.158916
