data_functionalizedCrystal
_audit_creation_method	'MofGen! by Chris Wilmer'
_symmetry_space_group_name_H-M	'P1'
_symmetry_Int_Tables_number	1
_symmetry_cell_setting	triclinic
loop_
_symmetry_equiv_pos_as_xyz
  x,y,z
_cell_length_a	10.654554
_cell_length_b	16.109304
_cell_length_c	9.730223
_cell_angle_alpha	90.001479
_cell_angle_beta	89.999030
_cell_angle_gamma	83.974740
loop_
_atom_site_label
_atom_site_type_symbol
_atom_site_fract_x
_atom_site_fract_y
_atom_site_fract_z
O1	O	1.666248	0.116789	-0.114305
O2	O	1.300619	0.127910	-0.114301
O3	O	1.493476	0.001379	-0.114304
O4	O	1.473391	0.243321	-0.114302
O5	O	1.493474	0.001382	0.114276
O6	O	1.300617	0.127913	0.114279
O7	O	1.666246	0.116792	0.114275
Zn8	Zn	1.483431	0.122353	0.150569
Zn9	Zn	1.483434	0.122349	-0.150595
O10	O	1.473389	0.243324	0.114278
C11	C	1.253832	0.127094	-0.000011
C12	C	1.114422	0.124649	-0.000010
C13	C	1.492661	-0.029600	-0.000017
C14	C	1.490220	-0.121909	-0.000026
C15	C	0.932932	0.045550	-0.000029
C16	C	1.063922	0.047848	-0.000015
C17	C	1.033923	0.199158	-0.000006
C18	C	0.902935	0.196860	-0.000010
C19	C	0.950253	-0.041807	-0.000040
C20	C	1.081243	-0.039510	-0.000026
C21	C	1.484581	-0.334282	-0.124620
C22	C	1.482276	-0.421016	-0.124619
C23	C	1.482280	-0.421009	0.124591
C24	C	1.484576	-0.334276	0.124589
C25	C	1.485733	-0.290915	-0.000021
C26	C	1.481132	-0.464382	-0.000017
C27	C	1.478633	-0.558423	-0.000015
C28	C	1.488230	-0.196869	-0.000024
C29	C	1.713034	0.117608	-0.000018
C30	C	1.852443	0.120053	-0.000028
C31	C	1.474204	0.274302	-0.000012
C32	C	1.476645	0.366612	-0.000012
N33	N	1.483438	0.122356	0.356105
N34	N	1.483437	0.122340	-0.356132
C35	C	1.568857	0.066347	0.428030
C36	C	1.568854	0.066336	0.571913
C37	C	1.398009	0.178352	0.571933
C38	C	1.398007	0.178357	0.428053
C39	C	1.667496	0.001678	0.428019
C40	C	1.667493	0.001668	0.571902
H41	H	0.837405	0.257527	0.000006
O42	O	1.481030	-0.467795	-0.259005
H43	H	1.394429	-0.500382	-0.264952
H44	H	1.481341	-0.456325	0.226044
H45	H	1.485507	-0.298966	0.226058
H46	H	1.646919	-0.062226	0.388965
O47	O	1.787920	0.028482	0.368885
H48	H	1.851768	0.042687	0.453892
O49	O	1.305882	0.238765	0.649526
H50	H	1.244865	0.203395	0.715084
O51	O	1.305861	0.238756	0.350473
H52	H	1.358688	0.279495	0.284913
H53	H	1.637798	-0.058721	0.616518
O54	O	1.088378	0.281998	0.000013
H55	H	1.147338	0.286672	-0.093151
O56	O	1.795061	0.020555	0.623648
H57	H	1.837475	-0.032439	0.686992
O58	O	0.911948	-0.087051	0.126665
H59	H	0.997077	-0.107372	0.188710
H60	H	1.127238	-0.065907	0.098673
O61	O	0.903559	-0.078674	-0.130760
H62	H	0.928227	-0.040490	-0.219797
O63	O	1.137173	-0.083106	-0.126727
H64	H	1.096065	-0.051025	-0.219822
O65	O	1.485805	-0.287508	-0.259013
H66	H	1.484601	-0.332237	-0.345653
