data_functionalizedCrystal
_audit_creation_method	'MofGen! by Chris Wilmer'
_symmetry_space_group_name_H-M	'P1'
_symmetry_Int_Tables_number	1
_symmetry_cell_setting	triclinic
loop_
_symmetry_equiv_pos_as_xyz
  x,y,z
_cell_length_a	18.050591
_cell_length_b	18.050589
_cell_length_c	19.077271
_cell_angle_alpha	87.676607
_cell_angle_beta	92.286692
_cell_angle_gamma	90.027061
loop_
_atom_site_label
_atom_site_type_symbol
_atom_site_fract_x
_atom_site_fract_y
_atom_site_fract_z
Zn1	Zn	1.118444	-0.278823	-0.397897
Zn2	Zn	1.368444	-0.028823	-0.147897
Zn3	Zn	1.618444	0.221177	0.102103
Zn4	Zn	1.868444	0.471177	0.352103
Zn5	Zn	1.123338	-0.408007	-0.280209
Zn6	Zn	1.373338	-0.158007	-0.030209
Zn7	Zn	1.623338	0.091993	0.219791
Zn8	Zn	1.873338	0.341993	0.469791
Zn9	Zn	0.999246	-0.283832	-0.280223
Zn10	Zn	1.249246	-0.033832	-0.030223
Zn11	Zn	1.499246	0.216168	0.219777
Zn12	Zn	1.749246	0.466168	0.469777
Zn13	Zn	0.994212	-0.402974	-0.397876
Zn14	Zn	1.244212	-0.152974	-0.147876
Zn15	Zn	1.494212	0.097026	0.102124
Zn16	Zn	1.744212	0.347026	0.352124
O17	O	1.058810	-0.343409	-0.339051
O18	O	1.308810	-0.093409	-0.089051
O19	O	1.558810	0.156591	0.160949
O20	O	1.808810	0.406591	0.410949
O21	O	1.223018	-0.295969	-0.382289
O22	O	1.473018	-0.045969	-0.132289
O23	O	1.723018	0.204031	0.117711
O24	O	1.973018	0.454031	0.367711
O25	O	1.111032	-0.395737	-0.181720
O26	O	1.361032	-0.145737	0.068280
O27	O	1.611032	0.104263	0.318280
O28	O	1.861032	0.354263	0.568280
O29	O	1.015117	-0.179242	-0.295847
O30	O	1.265117	0.070758	-0.045847
O31	O	1.515117	0.320758	0.204153
O32	O	1.765117	0.570758	0.454153
O33	O	1.226613	-0.390880	-0.295824
O34	O	1.476613	-0.140880	-0.045824
O35	O	1.726613	0.109120	0.204176
O36	O	1.976613	0.359120	0.454176
O37	O	1.102691	-0.175562	-0.382302
O38	O	1.352691	0.074438	-0.132302
O39	O	1.602691	0.324438	0.117698
O40	O	1.852691	0.574438	0.367698
O41	O	1.019862	-0.304507	-0.181730
O42	O	1.269862	-0.054507	0.068270
O43	O	1.519862	0.195493	0.318270
O44	O	1.769862	0.445493	0.568270
O45	O	0.894654	-0.299627	-0.295826
O46	O	1.144654	-0.049627	-0.045826
O47	O	1.394654	0.200373	0.204174
O48	O	1.644654	0.450373	0.454174
O49	O	1.006537	-0.382302	-0.496370
O50	O	1.256537	-0.132302	-0.246370
O51	O	1.506537	0.117698	0.003630
O52	O	1.756537	0.367698	0.253630
O53	O	0.890956	-0.387160	-0.382265
O54	O	1.140956	-0.137160	-0.132265
O55	O	1.390956	0.112840	0.117735
O56	O	1.640956	0.362840	0.367735
O57	O	1.097810	-0.291089	-0.496385
O58	O	1.347810	-0.041089	-0.246385
O59	O	1.597810	0.208911	0.003615
O60	O	1.847810	0.458911	0.253615
O61	O	1.106151	-0.511264	-0.295803
O62	O	1.356151	-0.261264	-0.045803
O63	O	1.606151	-0.011264	0.204197
O64	O	1.856151	0.238736	0.454197
O65	O	1.011283	-0.507567	-0.382252
O66	O	1.261283	-0.257567	-0.132252
O67	O	1.511283	-0.007567	0.117748
O68	O	1.761283	0.242433	0.367748
C69	C	0.865858	-0.343391	-0.339045
C70	C	1.115858	-0.093391	-0.089045
C71	C	1.365858	0.156609	0.160955
C72	C	1.615858	0.406609	0.410955
C73	C	0.783312	-0.343401	-0.339060
C74	C	1.033312	-0.093401	-0.089060
C75	C	1.283312	0.156599	0.160940
C76	C	1.533312	0.406599	0.410940
C77	C	0.532499	-0.391106	-0.386001
C78	C	0.782499	-0.141106	-0.136001
C79	C	1.032499	0.108894	0.113999
C80	C	1.282499	0.358894	0.363999
C81	C	0.584590	-0.411907	-0.321761
C82	C	0.834590	-0.161907	-0.071761
C83	C	1.084590	0.088093	0.178239
C84	C	1.334590	0.338093	0.428239
C85	C	0.486192	-0.343424	-0.339058
C86	C	0.736192	-0.093424	-0.089058
C87	C	0.986192	0.156576	0.160942
C88	C	1.236192	0.406576	0.410942
C89	C	0.581183	-0.322647	-0.403296
C90	C	0.831183	-0.072647	-0.153296
C91	C	1.081183	0.177353	0.096704
C92	C	1.331183	0.427353	0.346704
C93	C	0.632177	-0.343414	-0.339062
C94	C	0.882177	-0.093414	-0.089062
C95	C	1.132177	0.156586	0.160938
C96	C	1.382177	0.406586	0.410938
C97	C	0.537196	-0.364261	-0.274784
C98	C	0.787196	-0.114261	-0.024784
C99	C	1.037196	0.135739	0.225216
C100	C	1.287196	0.385739	0.475216
C101	C	0.533783	-0.274968	-0.356362
C102	C	0.783783	-0.024968	-0.106362
C103	C	1.033783	0.225032	0.143638
C104	C	1.283783	0.475032	0.393638
C105	C	0.585853	-0.295744	-0.292077
C106	C	0.835853	-0.045744	-0.042077
C107	C	1.085853	0.204256	0.207923
C108	C	1.335853	0.454256	0.457923
C109	C	0.402093	-0.343431	-0.339057
C110	C	0.652093	-0.093431	-0.089057
C111	C	0.902093	0.156569	0.160943
C112	C	1.152093	0.406569	0.410943
C113	C	0.716273	-0.343407	-0.339056
C114	C	0.966273	-0.093407	-0.089056
C115	C	1.216273	0.156593	0.160944
C116	C	1.466273	0.406593	0.410944
C117	C	1.058721	-0.536362	-0.339039
C118	C	1.308721	-0.286362	-0.089039
C119	C	1.558721	-0.036362	0.160961
C120	C	1.808721	0.213638	0.410961
C121	C	1.058750	-0.618907	-0.339058
C122	C	1.308750	-0.368907	-0.089058
C123	C	1.558750	-0.118907	0.160942
C124	C	1.808750	0.131093	0.410942
C125	C	1.007210	-0.816374	-0.386053
C126	C	1.257210	-0.566374	-0.136053
C127	C	1.507210	-0.316374	0.113947
C128	C	1.757210	-0.066374	0.363947
C129	C	0.991831	-0.868537	-0.321830
C130	C	1.241831	-0.618537	-0.071830
C131	C	1.491831	-0.368537	0.178170
C132	C	1.741831	-0.118537	0.428170
C133	C	1.058822	-0.770036	-0.339067
C134	C	1.308822	-0.520036	-0.089067
C135	C	1.558822	-0.270036	0.160933
C136	C	1.808822	-0.020036	0.410933
C137	C	1.074237	-0.864955	-0.403297
C138	C	1.324237	-0.614955	-0.153297
C139	C	1.574237	-0.364955	0.096703
C140	C	1.824237	-0.114955	0.346703
C141	C	1.058891	-0.916021	-0.339082
C142	C	1.308891	-0.666021	-0.089082
C143	C	1.558891	-0.416021	0.160918
C144	C	1.808891	-0.166021	0.410918
C145	C	1.043410	-0.821113	-0.274810
C146	C	1.293410	-0.571113	-0.024810
C147	C	1.543410	-0.321113	0.225190
C148	C	1.793410	-0.071113	0.475190
C149	C	1.125845	-0.817526	-0.356321
C150	C	1.375845	-0.567526	-0.106321
C151	C	1.625845	-0.317526	0.143679
C152	C	1.875845	-0.067526	0.393679
C153	C	1.110494	-0.869668	-0.292054
C154	C	1.360494	-0.619668	-0.042054
C155	C	1.610494	-0.369668	0.207946
C156	C	1.860494	-0.119668	0.457946
C157	C	1.058781	-0.685939	-0.339060
C158	C	1.308781	-0.435939	-0.089060
C159	C	1.558781	-0.185939	0.160940
C160	C	1.808781	0.064061	0.410940
C161	C	1.058933	-1.000117	-0.339082
C162	C	1.308933	-0.750117	-0.089082
C163	C	1.558933	-0.500117	0.160918
C164	C	1.808933	-0.250117	0.410918
C165	C	1.252516	-0.343427	-0.339057
C166	C	1.502516	-0.093427	-0.089057
C167	C	1.752516	0.156573	0.160943
C168	C	2.002516	0.406573	0.410943
C169	C	1.335061	-0.343435	-0.339060
C170	C	1.585061	-0.093435	-0.089060
C171	C	1.835061	0.156565	0.160940
C172	C	2.085061	0.406565	0.410940
C173	C	1.051066	-0.335576	-0.522629
C174	C	1.301066	-0.085576	-0.272629
C175	C	1.551066	0.164424	-0.022629
C176	C	1.801066	0.414424	0.227371
C177	C	1.047766	-0.332238	-0.600859
C178	C	1.297766	-0.082238	-0.350859
C179	C	1.547766	0.167762	-0.100859
C180	C	1.797766	0.417762	0.149141
C181	C	1.058919	-0.149702	-0.339078
C182	C	1.308919	0.100298	-0.089078
C183	C	1.558919	0.350298	0.160922
C184	C	1.808919	0.600298	0.410922
C185	C	1.058966	-0.067156	-0.339090
C186	C	1.308966	0.182844	-0.089090
C187	C	1.558966	0.432844	0.160910
C188	C	1.808966	0.682844	0.410910
C189	C	1.024097	-0.308355	-1.041212
C190	C	1.274097	-0.058355	-0.791212
C191	C	1.524097	0.191645	-0.541212
C192	C	1.774097	0.441645	-0.291212
C193	C	1.027201	-0.311489	-0.967707
C194	C	1.277201	-0.061489	-0.717707
C195	C	1.527201	0.188511	-0.467707
C196	C	1.777201	0.438511	-0.217707
C197	C	1.076216	-0.360558	-0.930948
C198	C	1.326216	-0.110558	-0.680948
C199	C	1.576216	0.139442	-0.430948
C200	C	1.826216	0.389442	-0.180948
C201	C	1.122136	-0.406492	-0.967699
C202	C	1.372136	-0.156492	-0.717699
C203	C	1.622136	0.093508	-0.467699
C204	C	1.872136	0.343508	-0.217699
C205	C	1.119035	-0.403354	-1.041203
C206	C	1.369035	-0.153354	-0.791203
C207	C	1.619035	0.096646	-0.541203
C208	C	1.869035	0.346646	-0.291203
C209	C	1.090584	-0.375033	-0.711114
C210	C	1.340584	-0.125033	-0.461114
C211	C	1.590584	0.124967	-0.211114
C212	C	1.840584	0.374967	0.038886
C213	C	1.093680	-0.378169	-0.637605
C214	C	1.343680	-0.128169	-0.387605
C215	C	1.593680	0.121831	-0.137605
C216	C	1.843680	0.371831	0.112395
C217	C	0.998746	-0.283165	-0.637618
C218	C	1.248746	-0.033165	-0.387618
C219	C	1.498746	0.216835	-0.137618
C220	C	1.748746	0.466835	0.112382
C221	C	0.995646	-0.280034	-0.711123
C222	C	1.245646	-0.030034	-0.461123
C223	C	1.495646	0.219966	-0.211123
C224	C	1.745646	0.469966	0.038877
C225	C	1.041568	-0.325965	-0.747867
C226	C	1.291568	-0.075965	-0.497867
C227	C	1.541568	0.174035	-0.247867
C228	C	1.791568	0.424035	0.002133
N229	N	1.079389	-0.363764	-0.855814
N230	N	1.329389	-0.113764	-0.605814
N231	N	1.579389	0.136236	-0.355814
N232	N	1.829389	0.386236	-0.105814
N233	N	1.038399	-0.322755	-0.823000
N234	N	1.288399	-0.072755	-0.573000
N235	N	1.538399	0.177245	-0.323000
N236	N	1.788399	0.427245	-0.073000
C237	C	1.066567	-0.351158	-0.156187
C238	C	1.316567	-0.101158	0.093813
C239	C	1.566567	0.148842	0.343813
C240	C	1.816567	0.398842	0.593813
C241	C	1.070011	-0.354287	-0.077958
C242	C	1.320011	-0.104287	0.172042
C243	C	1.570011	0.145713	0.422042
C244	C	1.820011	0.395713	0.672042
H245	H	0.600595	-0.305078	-0.457619
H246	H	0.850595	-0.055078	-0.207619
H247	H	1.100595	0.194922	0.042381
H248	H	1.350595	0.444922	0.292381
H249	H	1.156424	-0.440755	-1.071120
H250	H	1.406424	-0.190755	-0.821120
H251	H	1.656424	0.059245	-0.571120
H252	H	1.906424	0.309245	-0.321120
H253	H	1.162048	-0.446442	-0.937764
H254	H	1.412048	-0.196442	-0.687764
H255	H	1.662048	0.053558	-0.437764
H256	H	1.912048	0.303558	-0.187764
H257	H	0.961360	-0.245770	-0.607693
H258	H	1.211360	0.004230	-0.357693
H259	H	1.461360	0.254230	-0.107693
H260	H	1.711360	0.504230	0.142307
H261	H	0.609079	-0.255419	-0.252335
H262	H	0.859079	-0.005419	-0.002335
H263	H	1.109079	0.244581	0.247665
H264	H	1.359079	0.494581	0.497665
H265	H	0.509141	-0.431468	-0.425648
H266	H	0.759141	-0.181468	-0.175648
H267	H	1.009141	0.068532	0.074352
H268	H	1.259141	0.318532	0.324352
H269	H	0.606883	-0.469795	-0.307121
H270	H	0.856883	-0.219795	-0.057121
H271	H	1.106883	0.030205	0.192879
H272	H	1.356883	0.280205	0.442879
H273	H	0.517876	-0.381900	-0.220446
H274	H	0.767876	-0.131900	0.029554
H275	H	1.017876	0.118100	0.279554
H276	H	1.267876	0.368100	0.529554
H277	H	0.511473	-0.217095	-0.371020
H278	H	0.761473	0.032905	-0.121020
H279	H	1.011473	0.282905	0.128980
H280	H	1.261473	0.532905	0.378980
H281	H	1.182478	-0.795128	-0.370932
H282	H	1.432478	-0.545128	-0.120932
H283	H	1.682478	-0.295128	0.129068
H284	H	1.932478	-0.045128	0.379068
H285	H	0.963504	-0.793040	-0.425730
H286	H	1.213504	-0.543040	-0.175730
H287	H	1.463504	-0.293040	0.074270
H288	H	1.713504	-0.043040	0.324270
H289	H	0.935185	-0.890935	-0.307249
H290	H	1.185185	-0.640935	-0.057249
H291	H	1.435185	-0.390935	0.192751
H292	H	1.685185	-0.140935	0.442751
H293	H	0.984181	-0.268399	-1.071136
H294	H	1.234181	-0.018399	-0.821136
H295	H	1.484181	0.231601	-0.571136
H296	H	1.734181	0.481601	-0.321136
H297	H	1.030333	-0.801855	-0.220482
H298	H	1.280333	-0.551855	0.029518
H299	H	1.530333	-0.301855	0.279518
H300	H	1.780333	-0.051855	0.529518
H301	H	1.154172	-0.892868	-0.252280
H302	H	1.404172	-0.642868	-0.002280
H303	H	1.654172	-0.392868	0.247720
H304	H	1.904172	-0.142868	0.497720
H305	H	1.087248	-0.884304	-0.457610
H306	H	1.337248	-0.634304	-0.207610
H307	H	1.587248	-0.384304	0.042390
H308	H	1.837248	-0.134304	0.292390
H309	H	0.989812	-0.274087	-0.937792
H310	H	1.239812	-0.024087	-0.687792
H311	H	1.489812	0.225913	-0.437792
H312	H	1.739812	0.475913	-0.187792
H313	H	1.133612	-0.418115	-0.607678
H314	H	1.383612	-0.168115	-0.357678
H315	H	1.633612	0.081885	-0.107678
H316	H	1.883612	0.331885	0.142322
H317	H	0.955729	-0.240080	-0.741047
H318	H	1.205729	0.009920	-0.491047
H319	H	1.455729	0.259920	-0.241047
H320	H	1.705729	0.509920	0.008953
H321	H	1.127975	-0.412435	-0.741022
H322	H	1.377975	-0.162435	-0.491022
H323	H	1.627975	0.087565	-0.241022
H324	H	1.877975	0.337565	0.008978
