data_functionalizedCrystal
_audit_creation_method	'MofGen! by Chris Wilmer'
_symmetry_space_group_name_H-M	'P1'
_symmetry_Int_Tables_number	1
_symmetry_cell_setting	triclinic
loop_
_symmetry_equiv_pos_as_xyz
  x,y,z
_cell_length_a	16.120530
_cell_length_b	29.839131
_cell_length_c	16.120297
_cell_angle_alpha	92.867727
_cell_angle_beta	90.128140
_cell_angle_gamma	87.136742
loop_
_atom_site_label
_atom_site_type_symbol
_atom_site_fract_x
_atom_site_fract_y
_atom_site_fract_z
Zn1	Zn	1.247310	-0.227600	-0.534529
Zn2	Zn	1.254220	-0.299116	-0.395460
Zn3	Zn	1.115305	-0.220008	-0.388448
Zn4	Zn	1.108176	-0.298702	-0.527429
O5	O	1.181253	-0.261356	-0.461466
O6	O	1.364591	-0.240437	-0.521987
O7	O	1.241667	-0.285618	-0.278165
O8	O	1.132907	-0.158152	-0.407863
O9	O	1.369668	-0.292979	-0.419813
O10	O	1.229891	-0.163729	-0.515187
O11	O	1.139607	-0.227498	-0.273013
O12	O	0.997995	-0.227097	-0.400978
O13	O	1.120758	-0.292274	-0.644736
O14	O	0.992758	-0.284913	-0.503087
O15	O	1.222979	-0.240035	-0.649952
O16	O	1.234755	-0.361925	-0.412929
O17	O	1.127458	-0.361621	-0.509886
C18	C	0.965204	-0.255137	-0.450502
C19	C	0.872777	-0.252487	-0.445831
C20	C	0.703550	-0.247640	-0.437311
C21	C	0.659793	-0.275108	-0.485683
C22	C	0.565629	-0.272411	-0.480942
C23	C	0.797722	-0.250336	-0.442050
C24	C	1.181105	-0.378074	-0.461418
C25	C	1.181116	-0.428009	-0.461428
C26	C	1.237215	-0.737807	-0.411063
C27	C	1.237316	-0.925484	-0.411101
O28	O	1.284896	-0.949877	-0.368241
N29	N	1.181422	-0.948805	-0.461538
C30	C	1.125502	-0.925204	-0.511973
O31	O	1.077969	-0.949347	-0.554880
C32	C	1.125406	-0.737528	-0.511940
C33	C	1.181298	-0.714210	-0.461493
C34	C	1.293104	-0.714488	-0.360622
C35	C	1.293075	-0.667572	-0.360609
C36	C	1.237158	-0.643974	-0.411039
C37	C	1.181269	-0.667293	-0.461481
C38	C	1.069491	-0.713929	-0.562379
C39	C	1.069473	-0.667007	-0.562367
C40	C	1.125365	-0.643688	-0.511921
C41	C	1.125323	-0.596779	-0.511898
N42	N	1.181217	-0.573458	-0.461461
C43	C	1.237135	-0.597055	-0.411031
C44	C	1.125556	-1.023737	-0.511986
C45	C	1.125579	-1.070655	-0.511994
C46	C	1.237394	-1.070932	-0.411122
C47	C	1.237366	-1.024012	-0.411111
C48	C	1.181450	-1.000416	-0.461549
C49	C	1.237069	-0.498527	-0.411009
C50	C	1.237033	-0.451606	-0.410999
C51	C	1.125221	-0.451334	-0.511873
C52	C	1.125254	-0.498251	-0.511880
C53	C	1.181185	-0.521846	-0.461446
O54	O	1.077774	-0.572358	-0.554742
O55	O	1.284673	-0.572905	-0.368145
C56	C	1.237244	-0.784724	-0.411076
C57	C	1.181356	-0.808043	-0.461517
C58	C	1.125439	-0.784445	-0.511947
C59	C	1.181379	-0.854961	-0.461525
C60	C	1.237296	-0.878559	-0.411095
C61	C	1.293190	-0.855238	-0.360658
C62	C	1.293161	-0.808322	-0.360646
C63	C	1.069544	-0.807766	-0.562384
C64	C	1.069577	-0.854683	-0.562391
C65	C	1.125494	-0.878280	-0.511962
C66	C	1.398145	-0.267601	-0.472474
C67	C	1.490571	-0.270262	-0.477165
C68	C	1.170302	-0.266955	-0.678360
C69	C	1.165636	-0.269341	-0.770787
C70	C	1.181423	-0.144185	-0.461535
C71	C	1.181496	-0.094253	-0.461564
C72	C	1.157086	-0.273687	-0.940011
C73	C	1.205584	-0.248896	-0.983782
C74	C	1.200826	-0.251314	-1.077944
C75	C	1.161842	-0.271269	-0.845840
C76	C	1.192208	-0.255748	-0.245419
C77	C	1.197036	-0.253240	-0.153001
H78	H	0.670294	-0.222100	-0.392340
H79	H	0.693051	-0.300650	-0.530658
H80	H	1.282547	-0.432622	-0.369916
H81	H	1.338643	-0.733697	-0.319556
H82	H	1.111997	-0.296725	-0.973252
H83	H	1.079744	-0.517238	-0.552961
O84	O	1.291427	-0.521373	-0.361938
C85	C	1.340756	-0.490723	-0.317434
H86	H	1.306818	-0.456245	-0.312802
H87	H	1.402345	-0.488292	-0.351136
C88	C	1.398972	-0.549447	-0.235242
C89	C	1.357286	-0.507101	-0.229546
H90	H	1.409172	-0.559550	-0.181030
H91	H	1.365741	-0.570097	-0.265227
H92	H	1.450291	-0.547415	-0.263330
H93	H	1.305964	-0.509134	-0.201468
H94	H	1.390509	-0.486452	-0.199555
H95	H	1.282924	-1.090153	-0.370061
O96	O	1.291628	-1.001407	-0.361994
C97	C	1.277695	-1.010230	-0.278184
H98	H	1.245829	-1.043347	-0.274821
H99	H	1.236373	-0.981898	-0.247967
C100	C	1.400480	-0.972726	-0.236125
C101	C	1.361348	-1.013404	-0.231994
H102	H	1.452079	-0.974683	-0.207632
H103	H	1.409865	-0.966781	-0.292589
H104	H	1.366036	-0.949121	-0.210945
H105	H	1.395786	-1.037008	-0.257183
H106	H	1.351970	-1.019354	-0.175533
O107	O	1.347457	-0.644995	-0.311592
C108	C	1.396799	-0.675891	-0.267078
H109	H	1.397933	-0.710288	-0.301296
H110	H	1.369599	-0.678405	-0.202353
C111	C	1.484516	-0.617533	-0.217636
C112	C	1.485915	-0.659779	-0.259667
H113	H	1.539486	-0.607594	-0.213060
H114	H	1.451272	-0.596717	-0.247623
H115	H	1.461846	-0.619634	-0.163703
H116	H	1.508575	-0.657677	-0.313602
H117	H	1.519165	-0.680594	-0.229689
O118	O	1.071248	-1.093236	-0.561068
C119	C	1.021881	-1.062340	-0.605558
H120	H	1.055780	-1.029931	-0.610181
H121	H	0.960289	-1.054787	-0.571851
C122	C	0.963730	-1.122379	-0.687767
C123	C	1.005368	-1.082575	-0.693451
H124	H	0.953540	-1.134861	-0.741982
H125	H	0.996987	-1.143195	-0.657791
H126	H	0.912408	-1.116079	-0.659674
H127	H	1.056693	-1.088877	-0.721534
H128	H	0.972119	-1.061761	-0.723434
O129	O	1.071195	-1.000764	-0.560862
C130	C	1.019889	-0.970905	-0.510746
H131	H	1.052448	-0.963085	-0.449246
H132	H	0.958751	-0.987017	-0.498428
C133	C	0.962461	-0.936690	-0.631255
C134	C	1.002453	-0.927083	-0.555722
H135	H	0.951702	-0.909659	-0.658999
H136	H	0.997024	-0.956808	-0.665020
H137	H	0.911517	-0.950117	-0.620979
H138	H	1.053400	-0.913661	-0.565999
H139	H	0.967898	-0.906962	-0.521960
H140	H	1.023973	-0.732907	-0.603454
O141	O	1.347539	-0.785744	-0.311623
C142	C	1.396878	-0.816640	-0.267106
H143	H	1.398019	-0.851037	-0.301327
H144	H	1.369671	-0.819157	-0.202386
C145	C	1.484585	-0.758281	-0.217649
C146	C	1.485991	-0.800526	-0.259683
H147	H	1.539553	-0.748340	-0.213066
H148	H	1.451342	-0.737465	-0.247638
H149	H	1.461908	-0.760383	-0.163719
H150	H	1.508658	-0.798422	-0.313615
H151	H	1.519240	-0.821341	-0.229703
H152	H	1.023940	-0.647797	-0.603443
H153	H	1.079691	-0.432113	-0.552930
O154	O	1.015139	-0.784915	-0.611392
C155	C	0.965832	-0.815565	-0.655920
H156	H	0.964735	-0.848058	-0.621718
H157	H	0.993039	-0.823029	-0.720647
C158	C	0.878050	-0.755165	-0.705336
C159	C	0.876696	-0.795071	-0.663324
H160	H	0.823067	-0.742523	-0.709907
H161	H	0.911270	-0.734514	-0.675339
H162	H	0.900726	-0.761390	-0.759270
H163	H	0.854030	-0.788845	-0.609388
H164	H	0.843469	-0.815720	-0.693312
H165	H	1.338718	-0.874459	-0.319594
H166	H	1.024056	-0.873665	-0.603470
O167	O	1.259351	-0.221443	-0.943999
C168	C	1.252175	-0.225099	-0.857476
H169	H	1.225485	-0.258690	-0.844315
H170	H	1.209140	-0.196561	-0.830589
C171	C	1.371305	-0.181011	-0.833225
C172	C	1.338530	-0.222270	-0.817061
H173	H	1.424572	-0.179264	-0.808294
H174	H	1.376139	-0.178546	-0.891517
H175	H	1.335435	-0.157234	-0.810819
H176	H	1.374396	-0.246046	-0.839476
H177	H	1.333705	-0.224739	-0.758771
