data_functionalizedCrystal
_audit_creation_method	'MofGen! by Chris Wilmer'
_symmetry_space_group_name_H-M	'P1'
_symmetry_Int_Tables_number	1
_symmetry_cell_setting	triclinic
loop_
_symmetry_equiv_pos_as_xyz
  x,y,z
_cell_length_a	15.995350
_cell_length_b	27.732048
_cell_length_c	14.472310
_cell_angle_alpha	89.993924
_cell_angle_beta	89.990621
_cell_angle_gamma	83.067515
loop_
_atom_site_label
_atom_site_type_symbol
_atom_site_fract_x
_atom_site_fract_y
_atom_site_fract_z
O1	O	1.110190	0.062301	-0.076773
O2	O	1.610190	0.562301	0.423227
O3	O	0.866316	0.069995	-0.076793
O4	O	1.366316	0.569995	0.423207
O5	O	0.995827	-0.004216	-0.076765
O6	O	1.495827	0.495784	0.423235
O7	O	0.980679	0.136512	-0.076801
O8	O	1.480679	0.636512	0.423199
O9	O	0.995794	-0.004212	0.076917
O10	O	1.495794	0.495788	0.576917
O11	O	0.866282	0.069999	0.076889
O12	O	1.366282	0.569999	0.576889
O13	O	1.110157	0.062306	0.076909
O14	O	1.610157	0.562306	0.576909
Cu15	Cu	0.988217	0.066153	0.090931
Cu16	Cu	1.488217	0.566153	0.590931
Cu17	Cu	0.988256	0.066148	-0.090815
Cu18	Cu	1.488256	0.566148	0.409185
O19	O	0.980646	0.136517	0.076881
O20	O	1.480646	0.636517	0.576881
C21	C	0.835108	0.069679	0.000045
C22	C	1.335108	0.569679	0.500045
C23	C	0.742170	0.068726	0.000038
C24	C	1.242170	0.568726	0.500038
C25	C	0.404467	0.065301	0.000059
C26	C	0.904467	0.565301	0.500059
C27	C	0.452585	0.012449	0.000415
C28	C	0.952585	0.512449	0.500415
C29	C	0.549263	0.013403	0.000062
C30	C	1.049263	0.513403	0.500062
C31	C	0.572006	0.067000	0.000049
C32	C	1.072006	0.567000	0.500049
C33	C	0.530600	0.093065	-0.087714
C34	C	1.030600	0.593065	0.412286
C35	C	0.433982	0.091738	-0.087781
C36	C	0.933982	0.591738	0.412219
C37	C	0.433591	0.092835	0.086984
C38	C	0.933591	0.592835	0.586984
C39	C	0.530536	0.092822	0.088138
C40	C	1.030536	0.592822	0.588138
C41	C	0.666691	0.067962	0.000041
C42	C	1.166691	0.567962	0.500041
C43	C	0.309782	0.064340	0.000061
C44	C	0.809782	0.564340	0.500061
C45	C	0.995493	-0.022222	0.000079
C46	C	1.495493	0.477778	0.500079
C47	C	0.994535	-0.075881	0.000086
C48	C	1.494535	0.424119	0.500086
C49	C	1.065040	-0.414392	0.000045
C50	C	1.565040	0.085608	0.500045
C51	C	1.061487	-0.616067	0.000031
C52	C	1.561487	-0.116067	0.500031
O53	O	1.125959	-0.647045	-0.000004
O54	O	1.625959	-0.147045	0.499996
N55	N	0.984692	-0.635522	0.000026
N56	N	1.484692	-0.135522	0.500026
C57	C	0.908780	-0.604555	0.000018
C58	C	1.408780	-0.104555	0.500018
O59	O	0.843380	-0.625730	0.000003
O60	O	1.343380	-0.125730	0.500003
C61	C	0.912334	-0.402881	0.000024
C62	C	1.412334	0.097119	0.500024
C63	C	0.989134	-0.383429	0.000039
C64	C	1.489134	0.116571	0.500039
C65	C	1.141834	-0.394940	0.000058
C66	C	1.641834	0.105060	0.500058
C67	C	1.142721	-0.344524	0.000067
C68	C	1.642721	0.155476	0.500067
C69	C	1.066815	-0.313561	0.000061
C70	C	1.566815	0.186439	0.500061
C71	C	0.990021	-0.333013	0.000047
C72	C	1.490021	0.166987	0.500047
C73	C	0.836422	-0.371914	0.000009
C74	C	1.336422	0.128086	0.500009
C75	C	0.837317	-0.321493	0.000009
C76	C	1.337317	0.178507	0.500009
C77	C	0.914117	-0.302041	0.000023
C78	C	1.414117	0.197959	0.500023
C79	C	0.915002	-0.251634	0.000050
C80	C	1.415002	0.248366	0.500050
N81	N	0.991797	-0.232179	0.000056
N82	N	1.491797	0.267821	0.500056
C83	C	1.067703	-0.263142	0.000061
C84	C	1.567703	0.236858	0.500061
C85	C	0.906920	-0.710437	0.000016
C86	C	1.406920	-0.210437	0.500016
C87	C	0.906031	-0.760855	0.000016
C88	C	1.406031	-0.260855	0.500016
C89	C	1.058739	-0.772364	0.000028
C90	C	1.558739	-0.272364	0.500028
C91	C	1.059627	-0.721945	0.000035
C92	C	1.559627	-0.221945	0.500035
C93	C	0.983715	-0.690982	0.000021
C94	C	1.483715	-0.190982	0.500021
C95	C	1.069561	-0.157265	0.000080
C96	C	1.569561	0.342735	0.500080
C97	C	1.070442	-0.106844	0.000092
C98	C	1.570442	0.393156	0.500092
C99	C	0.917734	-0.095340	0.000075
C100	C	1.417734	0.404660	0.500075
C101	C	0.916853	-0.145756	0.000067
C102	C	1.416853	0.354244	0.500067
C103	C	0.992773	-0.176718	0.000067
C104	C	1.492773	0.323282	0.500067
O105	O	0.850565	-0.220628	0.000075
O106	O	1.350565	0.279372	0.500075
O107	O	1.133094	-0.241958	0.000055
O108	O	1.633094	0.258042	0.500055
C109	C	1.064153	-0.464808	0.000036
C110	C	1.564153	0.035192	0.500036
C111	C	0.987359	-0.484260	0.000022
C112	C	1.487359	0.015740	0.500022
C113	C	0.911452	-0.453297	0.000017
C114	C	1.411452	0.046703	0.500017
C115	C	0.986470	-0.534679	0.000022
C116	C	1.486470	-0.034679	0.500022
C117	C	1.062377	-0.565642	0.000028
C118	C	1.562377	-0.065642	0.500028
C119	C	1.139172	-0.546187	0.000033
C120	C	1.639172	-0.046187	0.500033
C121	C	1.140059	-0.495771	0.000042
C122	C	1.640059	0.004229	0.500042
C123	C	0.834657	-0.472752	0.000011
C124	C	1.334657	0.027248	0.500011
C125	C	0.833776	-0.523168	0.000004
C126	C	1.333776	-0.023168	0.500004
C127	C	0.909683	-0.554132	0.000010
C128	C	1.409683	-0.054132	0.500010
C129	C	1.141364	0.062621	0.000068
C130	C	1.641364	0.562621	0.500068
C131	C	1.234302	0.063575	0.000069
C132	C	1.734302	0.563575	0.500069
C133	C	0.980980	0.154523	0.000035
C134	C	1.480980	0.654523	0.500035
C135	C	0.981938	0.208182	0.000022
C136	C	1.481938	0.708182	0.500022
N137	N	0.988195	0.066156	0.218762
N138	N	1.488195	0.566156	0.718762
N139	N	0.988284	0.066141	-0.218646
N140	N	1.488284	0.566141	0.281354
C141	C	0.988255	0.066146	0.592853
C142	C	1.488255	0.566146	1.092853
C143	C	0.918727	0.105721	0.553672
C144	C	1.418727	0.605721	1.053672
C145	C	0.918884	0.105866	0.446584
C146	C	1.418884	0.605866	0.946584
C147	C	0.988225	0.066151	0.407262
C148	C	1.488225	0.566151	0.907262
C149	C	1.075447	0.077167	0.446103
C150	C	1.575447	0.577167	0.946103
C151	C	1.075055	0.077448	0.553225
C152	C	1.575055	0.577448	1.053225
C153	C	0.971342	0.015437	0.553394
C154	C	1.471342	0.515437	1.053394
C155	C	0.969334	0.015775	0.446267
C156	C	1.469334	0.515775	0.946267
C157	C	0.988213	0.066153	0.302374
C158	C	1.488213	0.566153	0.802374
C159	C	0.988272	0.066145	0.697742
C160	C	1.488272	0.566145	1.197742
H161	H	0.545395	0.131907	0.093429
H162	H	1.045395	0.631907	0.593429
O163	O	0.888953	0.001416	0.589218
O164	O	1.388953	0.501416	1.089218
H165	H	0.900899	-0.033198	0.628205
H166	H	1.400899	0.466802	1.128205
O167	O	1.151446	-0.190654	0.000086
O168	O	1.651446	0.309346	0.500086
H169	H	1.154677	-0.213906	0.062721
H170	H	1.654677	0.286094	0.562721
H171	H	0.559223	0.074958	-0.153020
H172	H	1.059223	0.574958	0.346980
H173	H	0.577401	-0.007228	-0.062950
H174	H	1.077401	0.492772	0.437050
H175	H	1.022053	-0.014014	0.578732
H176	H	1.522053	0.485986	1.078732
H177	H	1.016736	-0.015055	0.419504
H178	H	1.516736	0.484945	0.919504
O179	O	1.140609	-0.805768	0.000029
O180	O	1.640609	-0.305768	0.500029
H181	H	1.177383	-0.798862	0.062671
H182	H	1.677383	-0.298862	0.562671
O183	O	0.406688	0.069947	0.175106
O184	O	0.906688	0.569947	0.675106
H185	H	0.372254	0.038688	0.157927
H186	H	0.872254	0.538688	0.657927
H187	H	0.577943	-0.007086	0.062975
H188	H	1.077943	0.492914	0.562975
H189	H	0.401325	0.131802	0.087568
H190	H	0.901325	0.631802	0.587568
H191	H	1.203650	-0.420146	0.000060
H192	H	1.703650	0.079854	0.500060
O193	O	0.567022	0.067623	0.174148
O194	O	1.067022	0.567623	0.674148
H195	H	0.614497	0.036836	0.154253
H196	H	1.114497	0.536836	0.654253
H197	H	0.434323	-0.008675	0.063354
H198	H	0.934323	0.491325	0.563354
H199	H	0.433277	-0.008581	-0.062166
H200	H	0.933277	0.491419	0.437834
O201	O	0.835865	-0.061939	0.000072
O202	O	1.335865	0.438061	0.500072
H203	H	0.832636	-0.038693	-0.062569
H204	H	1.332636	0.461307	0.437431
O205	O	1.221046	-0.579588	0.000045
O206	O	1.721046	-0.079588	0.500045
H207	H	1.224305	-0.602826	-0.062600
H208	H	1.724305	-0.102826	0.437400
H209	H	0.773883	-0.387743	-0.000008
H210	H	1.273883	0.112257	0.499992
O211	O	1.142462	-0.700968	0.000032
O212	O	1.642462	-0.200968	0.500032
H213	H	1.178895	-0.713411	0.062668
H214	H	1.678895	-0.213411	0.562668
H215	H	0.415933	0.072726	-0.153376
H216	H	0.915933	0.572726	0.346624
O217	O	0.832536	0.097174	0.587827
O218	O	1.332536	0.597174	1.087827
H219	H	0.784600	0.125536	0.559258
H220	H	1.284600	0.625536	1.059258
O221	O	0.932736	0.155290	0.589291
O222	O	1.432736	0.655290	1.089291
H223	H	0.989005	0.151862	0.634777
H224	H	1.489005	0.651862	1.134777
H225	H	0.772844	-0.447546	0.000005
H226	H	1.272844	0.052454	0.500005
H227	H	0.843493	-0.776688	0.000020
H228	H	1.343493	-0.276688	0.500020
H229	H	1.132984	-0.091010	0.000106
H230	H	1.632984	0.408990	0.500106
H231	H	1.205260	-0.328691	0.000075
H232	H	1.705260	0.171309	0.500075
O233	O	0.825039	-0.677043	0.000022
O234	O	1.325039	-0.177043	0.500022
H235	H	0.771497	-0.699047	0.000031
H236	H	1.271497	-0.199047	0.500031
H237	H	0.775499	-0.296285	-0.000004
H238	H	1.275499	0.203715	0.499996
O239	O	1.145586	0.040004	0.412362
O240	O	1.645586	0.540004	0.912362
H241	H	1.177593	0.021008	0.472498
H242	H	1.677593	0.521008	0.972498
H243	H	0.929617	0.143496	0.420941
H244	H	1.429617	0.643496	0.920941
H245	H	0.771232	-0.539001	-0.000000
H246	H	1.271232	-0.039001	0.500000
O247	O	1.095825	0.125595	0.410553
O248	O	1.595825	0.625595	0.910553
H249	H	1.103004	0.150174	0.469796
H250	H	1.603004	0.650174	0.969796
H251	H	0.854317	-0.161595	0.000081
H252	H	1.354317	0.338405	0.500081
O253	O	1.222893	-0.474793	0.000039
O254	O	1.722893	0.025207	0.500039
H255	H	1.275519	-0.504800	0.000030
H256	H	1.775519	-0.004800	0.500030
O257	O	0.832975	0.097182	0.411789
O258	O	1.332975	0.597182	0.911789
H259	H	0.790941	0.092844	0.471474
H260	H	1.290941	0.592844	0.971474
H261	H	0.905176	0.007416	0.420881
H262	H	1.405176	0.507416	0.920881
H263	H	1.090059	0.114429	0.578192
H264	H	1.590059	0.614429	1.078192
O265	O	1.145606	0.040725	0.587564
O266	O	1.645606	0.540725	1.087564
H267	H	1.136019	0.004082	0.561884
H268	H	1.636019	0.504082	1.061884
H269	H	0.544216	0.132441	-0.090987
H270	H	1.044216	0.632441	0.409013
O271	O	0.390590	0.143133	-0.093088
O272	O	0.890590	0.643133	0.406912
H273	H	0.438646	0.168824	-0.095602
H274	H	0.938646	0.668824	0.404398
