data_functionalizedCrystal
_audit_creation_method	'MofGen! by Chris Wilmer'
_symmetry_space_group_name_H-M	'P1'
_symmetry_Int_Tables_number	1
_symmetry_cell_setting	triclinic
loop_
_symmetry_equiv_pos_as_xyz
  x,y,z
_cell_length_a	11.169417
_cell_length_b	12.594516
_cell_length_c	11.169409
_cell_angle_alpha	89.968646
_cell_angle_beta	89.980176
_cell_angle_gamma	90.016931
loop_
_atom_site_label
_atom_site_type_symbol
_atom_site_fract_x
_atom_site_fract_y
_atom_site_fract_z
Zn1	Zn	1.834915	-0.423631	-0.678551
Zn2	Zn	1.834784	-0.601657	-0.477871
Zn3	Zn	1.634201	-0.423696	-0.477885
Zn4	Zn	1.634188	-0.601571	-0.678516
O5	O	1.734522	-0.512639	-0.578206
O6	O	2.002847	-0.447256	-0.651939
O7	O	1.808127	-0.578114	-0.309923
O8	O	1.660886	-0.274741	-0.504524
O9	O	2.002751	-0.578051	-0.504501
O10	O	1.808349	-0.274694	-0.651953
O11	O	1.660759	-0.447366	-0.309934
O12	O	1.466249	-0.447282	-0.504491
O13	O	1.660864	-0.577903	-0.846471
O14	O	1.466240	-0.577966	-0.651893
O15	O	1.808337	-0.447172	-0.846496
O16	O	1.808115	-0.750592	-0.504467
O17	O	1.660738	-0.750528	-0.651880
C18	C	1.422697	-0.512623	-0.578190
C19	C	1.289297	-0.512641	-0.578212
C20	C	1.734443	-0.789180	-0.578194
C21	C	1.734519	-0.907485	-0.578229
C22	C	1.654353	-0.976742	-0.658351
C23	C	1.625107	-1.047617	-0.548838
C24	C	1.763875	-1.047410	-0.687761
C25	C	1.705215	-0.976801	-0.468658
C26	C	1.844034	-0.976588	-0.607656
C27	C	1.814829	-1.047430	-0.498067
C28	C	2.047564	-0.512656	-0.578222
C29	C	2.180964	-0.512663	-0.578229
C30	C	1.734614	-0.512520	-0.891249
C31	C	1.734653	-0.512470	-1.024649
C32	C	1.734634	-0.235018	-0.578244
C33	C	1.734681	-0.116712	-0.578260
C34	C	1.734499	-0.512680	-0.266381
C35	C	1.734692	-0.512430	-0.132982
H36	H	1.586438	-0.945703	-0.726008
C37	C	1.969015	-0.934402	-0.641307
H38	H	1.999728	-0.892923	-0.577275
H39	H	1.963222	-0.891793	-0.711267
H40	H	2.021211	-0.992472	-0.656129
C41	C	1.797382	-1.089257	-0.812884
H42	H	1.868246	-1.130686	-0.807526
H43	H	1.810603	-1.031040	-0.865361
H44	H	1.733972	-1.131864	-0.842954
H45	H	1.882693	-1.078273	-0.430246
H46	H	1.680344	-0.945914	-0.376015
C47	C	1.500093	-1.089769	-0.515222
H48	H	1.443167	-1.065573	-0.572215
H49	H	1.478744	-1.064554	-0.437974
H50	H	1.501241	-1.165190	-0.514767
