data_functionalizedCrystal
_audit_creation_method	'MofGen! by Chris Wilmer'
_symmetry_space_group_name_H-M	'P1'
_symmetry_Int_Tables_number	1
_symmetry_cell_setting	triclinic
loop_
_symmetry_equiv_pos_as_xyz
  x,y,z
_cell_length_a	10.540539
_cell_length_b	8.559649
_cell_length_c	7.681481
_cell_angle_alpha	94.930900
_cell_angle_beta	84.216462
_cell_angle_gamma	77.152078
loop_
_atom_site_label
_atom_site_type_symbol
_atom_site_fract_x
_atom_site_fract_y
_atom_site_fract_z
O1	O	-1.648885	-0.239893	-0.146339
O2	O	-1.277251	-0.261088	-0.146359
O3	O	-1.495810	-0.018262	-0.146345
O4	O	-1.430327	-0.482719	-0.146353
O5	O	-1.522717	0.011694	0.146514
O6	O	-1.304159	-0.231132	0.146500
O7	O	-1.675793	-0.209937	0.146521
Zn8	Zn	-1.494248	-0.215778	0.193008
Zn9	Zn	-1.458796	-0.255247	-0.192847
O10	O	-1.457234	-0.452763	0.146507
C11	C	-1.243568	-0.244521	0.000068
C12	C	-1.103117	-0.239767	0.000059
C13	C	-1.514225	0.056189	0.000081
C14	C	-1.528996	0.233400	0.000072
C15	C	-1.709475	-0.226505	0.000090
C16	C	-1.849925	-0.231260	0.000087
C17	C	-0.938829	-0.057495	0.000746
C18	C	-1.084880	-0.062384	0.000068
C19	C	-1.017142	-0.342236	-0.167173
C20	C	-0.871221	-0.336195	-0.167294
C21	C	-0.900953	-0.305738	0.165741
C22	C	-1.047966	-0.307147	0.167934
C23	C	-1.438818	-0.527215	0.000076
C24	C	-1.424047	-0.704427	0.000074
N25	N	-1.518452	-0.188841	0.456344
N26	N	-1.434603	-0.282171	-0.456183
H27	H	-1.145541	0.017045	0.119947
O28	O	-1.290055	0.186506	0.000073
H29	H	-1.215505	0.259921	0.000094
O30	O	-1.631852	-0.062667	0.555962
H31	H	-1.690438	0.002526	0.461029
H32	H	-1.630157	0.315753	0.000092
H33	H	-0.928600	0.024849	0.120678
O34	O	-0.893981	0.018806	-0.157207
H35	H	-0.808649	-0.066496	-0.236185
O36	O	-1.321199	-0.408333	0.444222
H37	H	-1.324327	-0.404808	0.300585
H38	H	-1.122674	-0.007027	-0.120017
H39	H	-1.054504	-0.295668	-0.291629
H40	H	-0.838130	-0.285890	-0.292300
H41	H	-1.025285	-0.473137	-0.173397
O42	O	-0.789046	-0.506196	-0.177388
H43	H	-0.853610	-0.592356	-0.182174
H44	H	-0.887064	-0.235367	0.292502
O45	O	-1.125929	-0.207783	0.331815
H46	H	-1.118355	-0.080603	0.330469
H47	H	-0.840416	-0.433744	0.166869
O48	O	-1.063352	-0.477080	0.181335
H49	H	-1.110747	-0.516348	0.068037
