data_functionalizedCrystal
_audit_creation_method	'MofGen! by Chris Wilmer'
_symmetry_space_group_name_H-M	'P1'
_symmetry_Int_Tables_number	1
_symmetry_cell_setting	triclinic
loop_
_symmetry_equiv_pos_as_xyz
  x,y,z
_cell_length_a	17.699083
_cell_length_b	12.503572
_cell_length_c	17.699083
_cell_angle_alpha	93.515225
_cell_angle_beta	96.716985
_cell_angle_gamma	93.505083
loop_
_atom_site_label
_atom_site_type_symbol
_atom_site_fract_x
_atom_site_fract_y
_atom_site_fract_z
O1	O	1.008441	0.089171	-0.091332
O2	O	1.508441	0.589171	0.408668
O3	O	0.788064	0.089207	-0.103783
O4	O	1.288064	0.589207	0.396217
O5	O	0.904478	0.089179	0.012631
O6	O	1.404478	0.589179	0.512631
O7	O	0.892027	0.089200	-0.207746
O8	O	1.392027	0.589200	0.292254
O9	O	0.895723	-0.089461	0.003862
O10	O	1.395723	0.410539	0.503862
O11	O	0.779309	-0.089433	-0.112552
O12	O	1.279309	0.410567	0.387448
O13	O	0.999686	-0.089468	-0.100101
O14	O	1.499686	0.410532	0.399899
Cu15	Cu	0.888698	-0.105762	-0.107128
Cu16	Cu	1.388698	0.394238	0.392872
Cu17	Cu	0.899052	0.105500	-0.096757
Cu18	Cu	1.399052	0.605500	0.403243
O19	O	0.883272	-0.089440	-0.216516
O20	O	1.383272	0.410560	0.283484
C21	C	0.755490	-0.000109	-0.107721
C22	C	1.255490	0.499891	0.392279
C23	C	0.671473	-0.000095	-0.106382
C24	C	1.171473	0.499905	0.393618
N25	N	0.881421	-0.254352	-0.114421
N26	N	1.381421	0.245648	0.385579
C27	C	0.622852	-0.000089	-0.174715
C28	C	1.122852	0.499911	0.325285
C29	C	0.543908	-0.000103	-0.173453
C30	C	1.043908	0.499897	0.326547
C31	C	0.513587	-0.000116	-0.103857
C32	C	1.013587	0.499884	0.396143
C33	C	0.562213	-0.000125	-0.035519
C34	C	1.062213	0.499875	0.464481
C35	C	0.641155	-0.000119	-0.036782
C36	C	1.141155	0.499881	0.463218
C37	C	0.243849	-0.000152	-0.030425
C38	C	0.743849	0.499848	0.469575
C39	C	0.164901	-0.000155	-0.029168
C40	C	0.664901	0.499845	0.470832
C41	C	0.146602	-0.000137	-0.167097
C42	C	0.646602	0.499863	0.332903
C43	C	0.225544	-0.000130	-0.168359
C44	C	0.725544	0.499870	0.331641
C45	C	0.274163	-0.000145	-0.100022
C46	C	0.774163	0.499855	0.399978
C47	C	0.359763	-0.000132	-0.101391
C48	C	0.859763	0.499868	0.398609
C49	C	0.427989	-0.000121	-0.102487
C50	C	0.927989	0.499879	0.397513
C51	C	0.870717	-0.473465	-0.125157
C52	C	1.370717	0.026535	0.374843
C53	C	0.917037	-0.526803	-0.078723
C54	C	1.417037	-0.026803	0.421277
C55	C	0.911081	-0.648725	-0.084697
C56	C	1.411081	-0.148725	0.415303
C57	C	0.876672	-0.351532	-0.119185
C58	C	1.376672	0.148468	0.380815
C59	C	1.032260	-0.000151	-0.096163
C60	C	1.532260	0.499849	0.403837
C61	C	1.116278	-0.000157	-0.097502
C62	C	1.616278	0.499843	0.402498
C63	C	0.899655	-0.000141	0.036444
C64	C	1.399655	0.499859	0.536444
C65	C	0.898316	-0.000142	0.120462
C66	C	1.398316	0.499858	0.620462
N67	N	0.906335	0.254091	-0.089457
N68	N	1.406335	0.754091	0.410543
C69	C	0.888096	-0.000118	-0.240328
C70	C	1.388096	0.499882	0.259672
C71	C	0.889435	-0.000111	-0.324345
C72	C	1.389435	0.499889	0.175655
C73	C	0.966649	-0.000154	0.169082
C74	C	1.466649	0.499846	0.669082
C75	C	0.965387	-0.000144	0.248026
C76	C	1.465387	0.499856	0.748026
C77	C	0.895791	-0.000130	0.278347
C78	C	1.395791	0.499870	0.778347
C79	C	0.827453	-0.000114	0.229721
C80	C	1.327453	0.499886	0.729721
C81	C	0.828716	-0.000116	0.150779
C82	C	1.328716	0.499884	0.650779
C83	C	0.822359	-0.000105	0.548084
C84	C	1.322359	0.499895	1.048084
C85	C	0.821101	-0.000106	0.627032
C86	C	1.321101	0.499894	1.127032
C87	C	0.959029	-0.000133	0.645331
C88	C	1.459029	0.499867	1.145331
C89	C	0.960292	-0.000135	0.566389
C90	C	1.460292	0.499865	1.066389
C91	C	0.891955	-0.000113	0.517770
C92	C	1.391955	0.499887	1.017770
C93	C	0.893324	-0.000122	0.432171
C94	C	1.393324	0.499878	0.932171
C95	C	0.894421	-0.000129	0.363945
C96	C	1.394421	0.499871	0.863945
H97	H	0.647533	-0.000078	-0.231388
H98	H	1.147533	0.499922	0.268612
C99	C	1.043205	-0.000170	0.135735
C100	C	1.543205	0.499830	0.635735
H101	H	1.083721	-0.000166	0.176002
H102	H	1.583721	0.499834	0.676002
H103	H	1.043514	-0.062466	0.102265
H104	H	1.543514	0.437534	0.602265
H105	H	1.049618	0.062133	0.108377
H106	H	1.549618	0.562133	0.608377
H107	H	1.021031	-0.000157	0.287610
H108	H	1.521031	0.499843	0.787610
H109	H	0.961167	-0.480901	-0.034484
H110	H	1.461167	0.019099	0.465516
H111	H	0.283426	-0.000165	0.025219
H112	H	0.783426	0.499835	0.525219
H113	H	0.766714	-0.000087	0.508508
H114	H	1.266714	0.499913	1.008508
C115	C	0.811090	-0.535462	-0.184904
C116	C	1.311090	-0.035462	0.315096
H117	H	0.782800	-0.485966	-0.213247
H118	H	1.282800	0.014034	0.286753
H119	H	0.836189	-0.579346	-0.218444
H120	H	1.336189	-0.079346	0.281556
H121	H	0.777478	-0.579319	-0.159870
H122	H	1.277478	-0.079319	0.340130
H123	H	0.770788	-0.000095	0.254415
H124	H	1.270788	0.499905	0.754415
H125	H	0.250227	-0.000115	-0.225031
H126	H	0.750227	0.499885	0.274969
C127	C	1.036847	-0.000146	0.533040
C128	C	1.536847	0.499854	1.033040
H129	H	1.077365	-0.000141	0.573304
H130	H	1.577365	0.499859	1.073304
H131	H	1.037157	-0.062440	0.499568
H132	H	1.537157	0.437560	0.999568
H133	H	1.043256	0.062159	0.505683
H134	H	1.543256	0.562159	1.005683
H135	H	1.014673	-0.000145	0.684927
H136	H	1.514673	0.499855	1.184927
C137	C	0.093117	-0.000134	-0.242268
C138	C	0.593117	0.499866	0.257732
H139	H	0.041759	-0.000152	-0.231553
H140	H	0.541759	0.499848	0.268447
H141	H	0.105340	0.062166	-0.267753
H142	H	0.605340	0.562166	0.232247
H143	H	0.099252	-0.062433	-0.273870
H144	H	0.599252	0.437567	0.226130
H145	H	0.504324	-0.000097	-0.229097
H146	H	1.004324	0.499903	0.270903
H147	H	0.773073	-0.000106	0.111192
H148	H	1.273073	0.499894	0.611192
C149	C	0.131548	-0.000180	0.047391
C150	C	0.631548	0.499820	0.547391
H151	H	0.171809	-0.000199	0.087909
H152	H	0.671809	0.499801	0.587909
H153	H	0.104180	0.062113	0.053812
H154	H	0.604180	0.562113	0.553812
H155	H	0.098086	-0.062486	0.047682
H156	H	0.598086	0.437514	0.547682
C157	C	0.528862	-0.000137	0.041035
C158	C	1.028862	0.499863	0.541035
H159	H	0.474884	-0.000128	0.032002
H160	H	0.974884	0.499872	0.532002
H161	H	0.542512	-0.062434	0.066108
H162	H	1.042512	0.437566	0.566108
H163	H	0.548608	0.062165	0.072221
H164	H	1.048608	0.562165	0.572221
H165	H	0.680742	-0.000123	0.018862
H166	H	1.180742	0.499877	0.518862
C167	C	0.744543	-0.000076	0.660385
C168	C	1.244543	0.499924	1.160385
H169	H	0.704024	-0.000051	0.620124
H170	H	1.204024	0.499949	1.120124
H171	H	0.738124	-0.062369	0.687745
H172	H	1.238124	0.437631	1.187745
H173	H	0.744248	0.062231	0.693856
H174	H	1.244248	0.562231	1.193856
