data_functionalizedCrystal
_audit_creation_method	'MofGen! by Chris Wilmer'
_symmetry_space_group_name_H-M	'P1'
_symmetry_Int_Tables_number	1
_symmetry_cell_setting	triclinic
loop_
_symmetry_equiv_pos_as_xyz
  x,y,z
_cell_length_a	10.489741
_cell_length_b	12.837943
_cell_length_c	11.892095
_cell_angle_alpha	94.310562
_cell_angle_beta	93.929268
_cell_angle_gamma	90.315943
loop_
_atom_site_label
_atom_site_type_symbol
_atom_site_fract_x
_atom_site_fract_y
_atom_site_fract_z
O1	O	0.324530	-1.384503	-0.093982
O2	O	0.824530	-0.884503	0.406018
O3	O	0.308135	-1.082575	-0.093989
O4	O	0.808135	-0.582575	0.406011
O5	O	0.131493	-1.240409	-0.093979
O6	O	0.631493	-0.740409	0.406021
O7	O	0.501172	-1.226669	-0.093992
O8	O	1.001172	-0.726669	0.406008
O9	O	0.146196	-1.227249	0.094028
O10	O	0.646196	-0.727249	0.594028
O11	O	0.322838	-1.069415	0.094018
O12	O	0.822838	-0.569415	0.594018
O13	O	0.339233	-1.371343	0.094024
O14	O	0.839233	-0.871343	0.594024
Zn15	Zn	0.333370	-1.218290	0.123871
Zn16	Zn	0.833370	-0.718290	0.623871
Zn17	Zn	0.313998	-1.235629	-0.123836
Zn18	Zn	0.813998	-0.735629	0.376164
O19	O	0.515875	-1.213509	0.094014
O20	O	1.015875	-0.713509	0.594014
C21	C	0.309948	-1.037334	0.000014
C22	C	0.809948	-0.537334	0.500014
C23	C	0.293430	-0.922133	0.000011
C24	C	0.793430	-0.422133	0.500011
C25	C	0.091198	-1.232791	0.000024
C26	C	0.591198	-0.732791	0.500024
C27	C	-0.050774	-1.229687	0.000022
C28	C	0.449226	-0.729687	0.500022
C29	C	0.337420	-1.416585	0.000019
C30	C	0.837420	-0.916585	0.500019
C31	C	0.353937	-1.531786	0.000014
C32	C	0.853937	-1.031786	0.500014
C33	C	-0.129987	-1.129262	0.000011
C34	C	0.370013	-0.629262	0.500011
C35	C	-0.209630	-1.170213	0.092709
C36	C	0.290370	-0.670213	0.592709
C37	C	-0.224098	-1.183212	-0.092650
C38	C	0.275902	-0.683212	0.407350
C39	C	-0.128541	-1.270674	0.092796
C40	C	0.371459	-0.770674	0.592796
C41	C	-0.143007	-1.283664	-0.092647
C42	C	0.356993	-0.783664	0.407353
C43	C	-0.222613	-1.324687	0.000074
C44	C	0.277387	-0.824687	0.500074
C45	C	0.556170	-1.221127	0.000009
C46	C	1.056170	-0.721127	0.500009
C47	C	0.698141	-1.224233	0.000004
C48	C	1.198141	-0.724233	0.500004
N49	N	0.346591	-1.206464	0.292925
N50	N	0.846591	-0.706464	0.792925
C51	C	0.492006	-0.682657	0.000020
C52	C	0.992006	-0.182657	0.500020
C53	C	0.476492	-0.574415	0.000019
C54	C	0.976492	-0.074415	0.500019
C55	C	0.246889	-0.597406	0.000015
C56	C	0.746889	-0.097406	0.500015
C57	C	0.262403	-0.705648	0.000016
C58	C	0.762403	-0.205648	0.500016
C59	C	0.384966	-0.748269	0.000017
C60	C	0.884966	-0.248269	0.500017
C61	C	0.400478	-0.856513	0.000011
C62	C	0.900478	-0.356513	0.500011
C63	C	0.170877	-0.879501	0.000015
C64	C	0.670877	-0.379501	0.500015
C65	C	0.155363	-0.771260	0.000014
C66	C	0.655363	-0.271260	0.500014
N67	N	0.300768	-1.247463	-0.292889
N68	N	0.800768	-0.747463	0.207111
C69	C	0.208698	-1.329751	0.529580
C70	C	0.708698	-0.829751	1.029580
C71	C	0.217950	-1.321493	0.647922
C72	C	0.717950	-0.821493	1.147922
C73	C	0.374338	-1.181684	0.647951
C74	C	0.874338	-0.681684	1.147951
C75	C	0.365086	-1.189943	0.529609
C76	C	0.865086	-0.689943	1.029609
C77	C	0.282265	-1.263980	0.470428
C78	C	0.782265	-0.763980	0.970428
C79	C	0.273021	-1.272243	0.352085
C80	C	0.773021	-0.772243	0.852085
C81	C	0.429402	-1.132429	0.352116
C82	C	0.929402	-0.632429	0.852116
C83	C	0.438653	-1.124171	0.470457
C84	C	0.938653	-0.624171	0.970457
H85	H	-0.089432	-1.046687	0.000103
H86	H	0.410568	-0.546687	0.500103
H87	H	0.506081	-1.063888	0.518656
H88	H	1.006081	-0.563888	1.018656
H89	H	0.141271	-1.390042	0.481394
H90	H	0.641271	-0.890042	0.981394
H91	H	0.489309	-1.078877	0.303941
H92	H	0.989309	-0.578877	0.803941
H93	H	0.055577	-0.736541	0.000026
H94	H	0.555577	-0.236541	0.500026
H95	H	0.563656	-0.520997	0.000024
H96	H	1.063656	-0.020997	0.500024
H97	H	-0.086892	-1.307637	0.171253
H98	H	0.413108	-0.807637	0.671253
H99	H	-0.239197	-1.122235	0.171077
H100	H	0.260803	-0.622235	0.671077
H101	H	-0.262921	-1.407327	0.000127
H102	H	0.237079	-0.907327	0.500127
H103	H	-0.113411	-1.331606	-0.171018
H104	H	0.386589	-0.831606	0.328982
H105	H	0.500275	-0.891213	0.000013
H106	H	1.000275	-0.391213	0.500013
H107	H	0.147112	-0.562678	0.000108
H108	H	0.647112	-0.062678	0.500108
H109	H	-0.265877	-1.146193	-0.171027
H110	H	0.234123	-0.646193	0.328973
H111	H	0.083716	-0.932936	0.000005
H112	H	0.583716	-0.432936	0.500005
H113	H	0.591801	-0.717359	0.000019
H114	H	1.091801	-0.217359	0.500019
H115	H	0.205588	-1.332530	0.303901
H116	H	0.705588	-0.832530	0.803901
H117	H	0.441759	-1.121398	0.696151
H118	H	0.941759	-0.621398	1.196151
H119	H	0.158043	-1.375049	0.696080
H120	H	0.658043	-0.875049	1.196080
