data_functionalizedCrystal
_audit_creation_method	'MofGen! by Chris Wilmer'
_symmetry_space_group_name_H-M	'P1'
_symmetry_Int_Tables_number	1
_symmetry_cell_setting	triclinic
loop_
_symmetry_equiv_pos_as_xyz
  x,y,z
_cell_length_a	6.817900
_cell_length_b	12.095930
_cell_length_c	11.102183
_cell_angle_alpha	86.917854
_cell_angle_beta	108.603876
_cell_angle_gamma	74.549720
loop_
_atom_site_label
_atom_site_type_symbol
_atom_site_fract_x
_atom_site_fract_y
_atom_site_fract_z
V1	V	-4.074845	0.357660	-0.176141
O2	O	-4.034586	0.350854	0.008153
O3	O	-4.051862	0.355212	-0.348959
O4	O	-4.035631	0.513649	-0.173568
O5	O	-4.050930	0.191320	-0.168452
V6	V	-4.553989	0.337765	-0.154081
O7	O	-4.345708	0.401302	-0.224531
O8	O	-4.733322	0.294122	-0.105691
O9	O	-4.353765	0.340213	0.018736
O10	O	-4.711644	0.344571	-0.338375
O11	O	-4.695300	0.504105	-0.161771
O12	O	-4.369996	0.181776	-0.156654
C13	C	-3.902749	0.349569	-0.391084
C14	C	-3.965306	0.348607	-0.532365
C15	C	-3.866495	0.138500	-0.495910
C16	C	-3.846475	0.032999	-0.544056
C17	C	-3.905260	0.032102	-0.676803
C18	C	-3.984078	0.136717	-0.761410
C19	C	-4.004098	0.242218	-0.713264
C20	C	-3.945299	0.243104	-0.580511
C21	C	-4.102922	0.452323	-0.749719
C22	C	-4.044124	0.453222	-0.616972
C23	C	-4.181740	0.556938	-0.834325
C24	C	-4.201746	0.662441	-0.786179
C25	C	-4.142953	0.663334	-0.653423
C26	C	-4.064143	0.558724	-0.568826
C27	C	-4.186926	0.143749	-0.162872
C28	C	-4.116774	0.016226	-0.163826
C29	C	-3.988394	-0.217249	-0.165601
C30	C	-4.059841	-0.087327	-0.164613
C31	C	-3.882043	0.551670	-0.167354
C32	C	-3.931433	0.679191	-0.166394
C33	C	-4.166221	0.345852	0.060855
C34	C	-4.082903	0.346822	0.202135
H35	H	-3.782302	-0.052176	-0.475156
H36	H	-4.031965	0.135977	-0.869499
H37	H	-3.818564	0.139219	-0.387816
F38	F	-3.883964	-0.080183	-0.728046
H39	H	-4.229616	0.556200	-0.942414
H40	H	-4.265933	0.747610	-0.855075
F41	F	-4.164284	0.775626	-0.602195
F42	F	-4.001559	0.559665	-0.427541
