data_functionalizedCrystal
_audit_creation_method	'MofGen! by Chris Wilmer'
_symmetry_space_group_name_H-M	'P1'
_symmetry_Int_Tables_number	1
_symmetry_cell_setting	triclinic
loop_
_symmetry_equiv_pos_as_xyz
  x,y,z
_cell_length_a	31.640172
_cell_length_b	18.760492
_cell_length_c	18.760490
_cell_angle_alpha	90.015487
_cell_angle_beta	60.030999
_cell_angle_gamma	59.996507
loop_
_atom_site_label
_atom_site_type_symbol
_atom_site_fract_x
_atom_site_fract_y
_atom_site_fract_z
Zr1	Zr	0.462755	-0.093454	0.686652
O2	O	0.550894	-0.207282	0.572886
O3	O	0.374597	-0.058561	0.721514
O4	O	0.462763	-0.207266	0.721542
O5	O	0.462727	0.058727	0.572852
O6	O	0.462792	-0.207253	0.838820
O7	O	0.462727	-0.058576	0.572858
O8	O	0.305078	0.058754	0.838770
O9	O	0.620441	-0.207281	0.572902
O10	O	0.410886	-0.043668	0.823922
O11	O	0.410864	0.043864	0.736394
O12	O	0.514670	-0.131218	0.736427
O13	O	0.514648	-0.043686	0.648899
Zr14	Zr	0.462801	0.093652	0.873688
Zr15	Zr	0.462801	-0.093432	0.873698
Zr16	Zr	0.462755	0.093631	0.686642
Zr17	Zr	0.573675	-0.093452	0.686678
Zr18	Zr	0.351880	0.093650	0.873663
O19	O	0.550959	0.058759	0.838827
O20	O	0.550959	-0.207251	0.838841
O21	O	0.550894	0.058728	0.572872
O22	O	0.374662	0.207480	0.987455
O23	O	0.374662	-0.058530	0.987469
O24	O	0.374596	0.207449	0.721500
O25	O	0.462829	-0.058528	0.987489
O26	O	0.462792	0.207465	0.838799
O27	O	0.462763	0.207451	0.721520
O28	O	0.462829	0.058775	0.987483
O29	O	0.620478	-0.207263	0.721578
O30	O	0.305078	0.207462	0.838762
O31	O	0.305114	0.207479	0.987439
O32	O	0.305114	0.058772	0.987446
O33	O	0.620441	-0.058573	0.572894
O34	O	0.620478	-0.058556	0.721570
O35	O	0.410886	0.131416	0.823913
O36	O	0.410907	0.043884	0.911441
O37	O	0.514691	-0.043666	0.823946
O38	O	0.514669	0.043866	0.736418
C39	C	0.324033	0.000096	0.780138
C40	C	0.276945	0.000096	0.780127
C41	C	0.462720	0.000072	0.546205
C42	C	0.462701	0.000063	0.466799
C43	C	0.462777	0.234113	0.780158
C44	C	0.462777	0.313536	0.780154
C45	C	-0.015086	-0.045583	0.825877
C46	C	-0.192082	-0.045583	0.825895
O47	O	-0.214977	-0.084410	0.864783
N48	N	-0.214222	0.000106	0.780205
C49	C	-0.192113	0.045803	0.734512
O50	O	-0.215011	0.084671	0.695657
C51	C	-0.015121	0.045807	0.734499
C52	C	0.007021	0.000108	0.780185
C53	C	0.007056	-0.091278	0.871559
C54	C	0.051305	-0.091282	0.871550
C55	C	0.073411	-0.045591	0.825859
C56	C	0.051269	0.000104	0.780176
C57	C	0.006983	0.091508	0.688812
C58	C	0.051233	0.091507	0.688815
C59	C	0.073375	0.045808	0.734500
C60	C	0.117625	0.045792	0.734476
N61	N	0.139765	0.000103	0.780166
C62	C	0.117658	-0.045588	0.825857
C63	C	-0.285036	0.045796	0.734520
C64	C	-0.329283	0.045794	0.734522
C65	C	-0.329249	-0.045591	0.825906
C66	C	-0.284998	-0.045593	0.825899
C67	C	-0.262895	0.000107	0.780210
C68	C	0.210584	-0.045593	0.825835
C69	C	0.254838	-0.045595	0.825819
C70	C	0.254798	0.045792	0.734438
C71	C	0.210550	0.045791	0.734450
C72	C	0.188442	0.000097	0.780155
O73	O	0.140542	0.084606	0.695616
O74	O	0.140554	-0.084435	0.864722
C75	C	-0.059334	-0.045580	0.825885
C76	C	-0.081476	0.000115	0.780203
C77	C	-0.059370	0.045806	0.734511
C78	C	-0.125723	0.000113	0.780204
C79	C	-0.147830	-0.045578	0.825896
C80	C	-0.125690	-0.091267	0.871586
C81	C	-0.081441	-0.091271	0.871577
C82	C	-0.081510	0.091495	0.688821
C83	C	-0.125758	0.091494	0.688833
C84	C	-0.147865	0.045803	0.734525
C85	C	0.601522	0.000102	0.780202
C86	C	0.648610	0.000103	0.780213
C87	C	0.462778	-0.233915	0.780182
C88	C	0.462778	-0.313337	0.780186
C89	C	0.408602	0.695053	0.825857
C90	C	0.516954	0.603645	0.734511
C91	C	0.516954	0.529023	0.734502
C92	C	0.462778	0.537413	0.780173
C93	C	0.408601	0.620425	0.825852
C94	C	0.571131	0.446006	0.688831
C95	C	0.571134	0.371377	0.688821
C96	C	0.516957	0.379767	0.734487
C97	C	0.462777	0.462785	0.780168
C98	C	0.408601	0.471176	0.825838
C99	C	0.354421	0.554194	0.871514
C100	C	0.354424	0.628815	0.871518
C101	C	0.516954	0.305145	0.734483
C102	C	0.408600	0.396548	0.825833
C103	C	0.462839	-0.064498	0.130814
C104	C	0.462839	0.064754	0.130924
C105	C	0.462809	0.064740	0.205570
C106	C	0.462793	0.000106	0.242843
C107	C	0.462807	-0.064513	0.205469
C108	C	0.462789	0.129363	0.242954
C109	C	0.462759	0.129352	0.317606
C110	C	0.462747	0.064714	0.354876
C111	C	0.462762	0.000092	0.317498
C112	C	0.462746	-0.064542	0.354770
C113	C	0.462765	-0.129169	0.317389
C114	C	0.462796	-0.129151	0.242740
C115	C	0.462716	0.064696	0.429526
C116	C	0.462715	-0.064557	0.429425
C117	C	0.462835	0.000126	1.014136
C118	C	0.462855	0.000135	1.093542
C119	C	0.324091	0.000124	1.014104
C120	C	0.277022	0.000132	1.093499
C121	C	0.324033	0.234111	0.780126
C122	C	0.276945	0.313532	0.780111
C123	C	0.324091	0.234138	1.014092
C124	C	0.277022	0.313568	1.093482
C125	C	0.601465	-0.233940	0.546249
C126	C	0.648534	-0.313370	0.466858
C127	C	0.601465	0.000075	0.546237
C128	C	0.648534	0.000066	0.466842
C129	C	0.601522	-0.233912	0.780214
C130	C	0.648611	-0.313334	0.780229
C131	C	0.254906	-0.045573	1.085099
C132	C	0.210686	-0.045583	1.159692
C133	C	0.188579	0.000118	1.242683
C134	C	0.210699	0.045825	1.251081
C135	C	0.254921	0.045829	1.176489
C136	C	0.254843	0.396538	0.825788
C137	C	0.210604	0.471170	0.825771
C138	C	0.188465	0.462794	0.780081
C139	C	0.210572	0.379779	0.734398
C140	C	0.254813	0.305149	0.734411
C141	C	0.254929	0.305179	1.176462
C142	C	0.210708	0.379805	1.251065
C143	C	0.188579	0.462820	1.242687
C144	C	0.210676	0.471208	1.159699
C145	C	0.254899	0.396582	1.085098
C146	C	0.670632	-0.304981	0.383879
C147	C	0.714866	-0.379607	0.309275
C148	C	0.736998	-0.462622	0.317653
C149	C	0.714898	-0.471009	0.400642
C150	C	0.670668	-0.396384	0.475243
C151	C	0.670654	0.045764	0.475241
C152	C	0.714886	0.045753	0.400648
C153	C	0.736995	0.000049	0.317657
C154	C	0.714873	-0.045654	0.309259
C155	C	0.670644	-0.045648	0.383851
C156	C	0.670735	-0.304930	0.825928
C157	C	0.714974	-0.379547	0.825959
C158	C	0.737091	-0.462568	0.780286
C159	C	0.714962	-0.470971	0.734586
C160	C	0.670721	-0.396354	0.734561
H161	H	0.272866	-0.082812	0.863021
H162	H	0.652712	-0.403209	0.697343
H163	H	0.462797	0.181990	0.212608
H164	H	0.462744	0.181974	0.348036
H165	H	0.192540	0.372972	0.697199
H166	H	0.192528	0.082992	0.697238
H167	H	0.152442	0.523570	0.780077
H168	H	0.773115	-0.523319	0.780314
H169	H	0.462705	-0.117192	0.459765
H170	H	0.192610	0.538757	0.862974
H171	H	0.732976	-0.538576	0.697400
H172	H	0.152570	0.000109	1.303414
H173	H	0.310313	0.696412	0.908706
H174	H	0.732853	-0.372761	0.241710
H175	H	0.272922	0.083052	1.183340
H176	H	0.272807	0.082990	0.697235
H177	H	0.462811	-0.181767	0.212300
H178	H	0.272881	0.403425	1.017535
H179	H	0.272802	0.237565	0.697218
H180	H	0.732987	-0.372689	0.863172
H181	H	0.364489	0.762648	0.863042
H182	H	0.192652	0.538808	1.152890
H183	H	0.732923	-0.538609	0.407453
H184	H	0.364483	0.403391	0.863020
H185	H	0.069329	-0.128491	0.908754
H186	H	0.462749	-0.181791	0.347749
H187	H	0.192588	-0.082800	0.863053
H188	H	0.732881	-0.082865	0.241678
H189	H	0.069227	0.128721	0.651607
H190	H	-0.010941	-0.128484	0.908771
H191	H	0.272906	-0.082799	1.017530
H192	H	0.615238	0.439182	0.651655
H193	H	-0.266973	-0.082805	0.863100
H194	H	-0.347255	-0.082796	0.863109
H195	H	-0.143694	-0.128475	0.908786
H196	H	0.652656	0.082987	0.542810
H197	H	0.272863	0.403375	0.862994
H198	H	0.652615	-0.237393	0.377040
H199	H	0.272940	0.237591	1.183300
H200	H	0.192721	0.372961	1.318631
H201	H	0.652635	-0.082857	0.377000
H202	H	0.462857	-0.117119	0.100375
H203	H	0.152570	0.523578	1.303439
H204	H	-0.347301	0.082995	0.697309
H205	H	0.462847	0.117381	0.100578
H206	H	0.192693	0.083033	1.318663
H207	H	0.773013	-0.523380	0.256901
H208	H	0.773008	0.000051	0.256926
H209	H	0.192682	-0.082802	1.152837
H210	H	0.652676	-0.403225	0.542806
H211	H	-0.063416	-0.128483	0.908779
H212	H	0.732890	0.082973	0.407503
H213	H	-0.267044	0.083013	0.697313
H214	H	-0.011038	0.128722	0.651611
H215	H	0.652735	-0.237337	0.863121
H216	H	-0.063517	0.128705	0.651615
H217	H	-0.143779	0.128704	0.651622
H218	H	0.462697	0.117318	0.459962
H219	H	0.561061	0.596820	0.697334
H220	H	0.310310	0.561015	0.908703
H221	H	0.615250	0.303787	0.651629
H222	H	0.561066	0.237556	0.697299
