data_functionalizedCrystal
_audit_creation_method	'MofGen! by Chris Wilmer'
_symmetry_space_group_name_H-M	'P1'
_symmetry_Int_Tables_number	1
_symmetry_cell_setting	triclinic
loop_
_symmetry_equiv_pos_as_xyz
  x,y,z
_cell_length_a	19.805407
_cell_length_b	12.827892
_cell_length_c	19.805399
_cell_angle_alpha	89.976065
_cell_angle_beta	89.984884
_cell_angle_gamma	90.012518
loop_
_atom_site_label
_atom_site_type_symbol
_atom_site_fract_x
_atom_site_fract_y
_atom_site_fract_z
Zn1	Zn	1.034770	-0.416118	-0.382711
Zn2	Zn	1.534770	0.083882	0.117289
Zn3	Zn	1.034713	-0.590877	-0.269533
Zn4	Zn	1.534713	-0.090877	0.230467
Zn5	Zn	0.921590	-0.416143	-0.269540
Zn6	Zn	1.421590	0.083857	0.230460
Zn7	Zn	0.921571	-0.590809	-0.382683
Zn8	Zn	1.421571	-0.090809	0.117317
O9	O	0.978161	-0.503487	-0.326117
O10	O	1.478161	-0.003487	0.173883
O11	O	1.129479	-0.439318	-0.367707
O12	O	1.629479	0.060682	0.132293
O13	O	1.019691	-0.567737	-0.174817
O14	O	1.519691	-0.067737	0.325183
O15	O	0.936636	-0.269903	-0.284566
O16	O	1.436636	0.230097	0.215434
O17	O	1.129437	-0.567713	-0.284556
O18	O	1.629437	-0.067713	0.215444
O19	O	1.019789	-0.269885	-0.367713
O20	O	1.519789	0.230115	0.132287
O21	O	0.936580	-0.439360	-0.174822
O22	O	1.436580	0.060640	0.325178
O23	O	0.826871	-0.439294	-0.284539
O24	O	1.326871	0.060706	0.215461
O25	O	0.936603	-0.567597	-0.477404
O26	O	1.436603	-0.067597	0.022596
O27	O	0.826857	-0.567621	-0.367666
O28	O	1.326857	-0.067621	0.132334
O29	O	1.019770	-0.439252	-0.477424
O30	O	1.519770	0.060748	0.022576
O31	O	1.019672	-0.737104	-0.284528
O32	O	1.519672	-0.237104	0.215472
O33	O	0.936547	-0.737054	-0.367659
O34	O	1.436547	-0.237054	0.132341
C35	C	0.802305	-0.503454	-0.326100
C36	C	1.302305	-0.003454	0.173900
C37	C	0.727073	-0.503465	-0.326109
C38	C	1.227073	-0.003465	0.173891
C39	C	0.691752	-0.436728	-0.369472
C40	C	1.191752	0.063272	0.130528
C41	C	0.621063	-0.436733	-0.369475
C42	C	1.121063	0.063267	0.130525
C43	C	0.585697	-0.503482	-0.326118
C44	C	1.085697	-0.003482	0.173882
C45	C	0.621024	-0.570222	-0.282750
C46	C	1.121024	-0.070222	0.217250
C47	C	0.691711	-0.570211	-0.282744
C48	C	1.191711	-0.070211	0.217256
C49	C	0.335951	-0.570269	-0.282771
C50	C	0.835951	-0.070269	0.217229
C51	C	0.265258	-0.570278	-0.282781
C52	C	0.765258	-0.070278	0.217219
C53	C	0.265303	-0.436792	-0.369501
C54	C	0.765303	0.063208	0.130499
C55	C	0.335990	-0.436780	-0.369496
C56	C	0.835990	0.063220	0.130504
C57	C	0.371310	-0.503516	-0.326126
C58	C	0.871310	-0.003516	0.173874
C59	C	0.447959	-0.503508	-0.326123
C60	C	0.947959	-0.003508	0.173877
C61	C	0.509050	-0.503496	-0.326124
C62	C	1.009050	-0.003496	0.173876
C63	C	0.978119	-0.774997	-0.326105
C64	C	1.478119	-0.274997	0.173895
C65	C	0.978163	-0.891150	-0.326122
C66	C	1.478163	-0.391150	0.173878
C67	C	1.019336	-1.062886	-0.367320
C68	C	1.519336	-0.562886	0.132680
C69	C	1.019292	-0.942836	-0.367303
C70	C	1.519292	-0.442836	0.132697
C71	C	1.154704	-0.503520	-0.326134
C72	C	1.654704	-0.003520	0.173866
C73	C	1.229936	-0.503535	-0.326141
C74	C	1.729936	-0.003535	0.173859
C75	C	0.978191	-0.503414	-0.502660
C76	C	1.478191	-0.003414	-0.002660
C77	C	0.978203	-0.503383	-0.577892
C78	C	1.478203	-0.003383	-0.077892
C79	C	0.978221	-0.230916	-0.326144
C80	C	1.478221	0.269084	0.173856
C81	C	0.978247	-0.114763	-0.326155
C82	C	1.478247	0.385237	0.173845
C83	C	0.934940	-0.436531	-0.613238
C84	C	1.434940	0.063469	-0.113238
C85	C	0.934949	-0.436511	-0.683926
C86	C	1.434949	0.063489	-0.183926
C87	C	0.978226	-0.503338	-0.719267
C88	C	1.478226	-0.003338	-0.219267
C89	C	1.021491	-0.570197	-0.683916
C90	C	1.521491	-0.070197	-0.183916
C91	C	1.021478	-0.570222	-0.613229
C92	C	1.521478	-0.070222	-0.113229
C93	C	1.021545	-0.570100	-0.968990
C94	C	1.521545	-0.070100	-0.468990
C95	C	1.021556	-0.570068	-1.039682
C96	C	1.521556	-0.070068	-0.539682
C97	C	0.935016	-0.436388	-1.039687
C98	C	1.435016	0.063612	-0.539687
C99	C	0.935003	-0.436413	-0.969000
C100	C	1.435003	0.063587	-0.469000
C101	C	0.978265	-0.503276	-0.933655
C102	C	1.478265	-0.003276	-0.433655
C103	C	0.978254	-0.503299	-0.857006
C104	C	1.478254	-0.003299	-0.357006
C105	C	0.978241	-0.503311	-0.795915
C106	C	1.478241	-0.003311	-0.295915
C107	C	0.978170	-0.503483	-0.150261
C108	C	1.478170	-0.003483	0.349739
C109	C	0.978289	-0.503220	-0.075029
C110	C	1.478289	-0.003220	0.424971
H111	H	0.720541	-0.382376	-0.404781
H112	H	1.220541	0.117624	0.095219
H113	H	1.056799	-0.624490	-1.068455
H114	H	1.556799	-0.124490	-0.568455
O115	O	1.063470	-0.635307	-0.578965
O116	O	1.563470	-0.135307	-0.078965
C117	C	1.048642	-0.739450	-0.596213
C118	C	1.548642	-0.239450	-0.096213
H119	H	1.022636	-0.741590	-0.647536
H120	H	1.522636	-0.241590	-0.147536
H121	H	1.097479	-0.786323	-0.598626
H122	H	1.597479	-0.286323	-0.098626
H123	H	1.013824	-0.774652	-0.556425
H124	H	1.513824	-0.274652	-0.056425
O125	O	0.892890	-0.371495	-1.073947
O126	O	1.392890	0.128505	-0.573947
C127	C	0.825422	-0.394340	-1.056674
C128	C	1.325422	0.105660	-0.556674
H129	H	0.824003	-0.434531	-1.005346
H130	H	1.324003	0.065469	-0.505346
H131	H	0.795090	-0.318914	-1.054259
H132	H	1.295090	0.181086	-0.554259
H133	H	0.802616	-0.448046	-1.096448
H134	H	1.302616	0.051954	-0.596448
H135	H	1.056764	-0.624555	-0.940221
H136	H	1.556764	-0.124555	-0.440221
O137	O	0.892930	-0.371644	-0.934596
O138	O	1.392930	0.128356	-0.434596
C139	C	0.849183	-0.431153	-0.893712
C140	C	1.349183	0.068847	-0.393712
H141	H	0.873038	-0.510354	-0.883115
H142	H	1.373038	-0.010354	-0.383115
H143	H	0.840110	-0.388606	-0.844008
H144	H	1.340110	0.111394	-0.344008
H145	H	0.799027	-0.442618	-0.920949
H146	H	1.299027	0.057382	-0.420949
H147	H	1.054550	-1.107349	-0.402573
H148	H	1.554550	-0.607349	0.097427
O149	O	1.061282	-0.889784	-0.409415
O150	O	1.561282	-0.389784	0.090585
C151	C	1.099543	-0.961159	-0.447695
C152	C	1.599543	-0.461159	0.052305
H153	H	1.071894	-1.039024	-0.450069
H154	H	1.571894	-0.539024	0.049931
H155	H	1.106697	-0.929482	-0.501008
H156	H	1.606697	-0.429482	-0.001008
H157	H	1.150977	-0.972687	-0.422965
H158	H	1.650977	-0.472687	0.077035
O159	O	0.936157	-0.944470	-0.284168
O160	O	1.436157	-0.444470	0.215832
C161	C	0.892464	-1.007598	-0.322712
C162	C	1.392464	-0.507598	0.177288
H163	H	0.916319	-1.023764	-0.374039
H164	H	1.416319	-0.523764	0.125961
H165	H	0.883482	-1.084432	-0.295191
H166	H	1.383482	-0.584432	0.204809
H167	H	0.842261	-0.965648	-0.330073
H168	H	1.342261	-0.465648	0.169927
O169	O	0.892964	-0.371648	-0.578806
O170	O	1.392964	0.128352	-0.078806
C171	C	0.902215	-0.386019	-0.508835
C172	C	1.402215	0.113981	-0.008835
H173	H	0.954441	-0.420255	-0.499179
H174	H	1.454441	0.079745	0.000821
H175	H	0.897634	-0.307752	-0.481980
H176	H	1.397634	0.192248	0.018020
H177	H	0.862052	-0.441670	-0.488766
H178	H	1.362052	0.058330	0.011234
H179	H	0.943039	-1.070302	-0.290897
H180	H	1.443039	-0.570302	0.209103
O181	O	0.726129	-0.634943	-0.240645
O182	O	1.226129	-0.134943	0.259355
C183	C	0.796102	-0.620638	-0.249948
C184	C	1.296102	-0.120638	0.250052
H185	H	0.805770	-0.540034	-0.272204
H186	H	1.305770	-0.040034	0.227796
H187	H	0.822949	-0.627619	-0.199238
H188	H	1.322949	-0.127619	0.300762
H189	H	0.816171	-0.682692	-0.285921
H190	H	1.316171	-0.182692	0.214079
H191	H	0.899718	-0.382077	-0.712702
H192	H	1.399718	0.117923	-0.212702
O193	O	0.231021	-0.372067	-0.411724
O194	O	0.731021	0.127933	0.088276
C195	C	0.248329	-0.395027	-0.479155
C196	C	0.748329	0.104973	0.020845
H197	H	0.267753	-0.478517	-0.482475
H198	H	0.767753	0.021483	0.017525
H199	H	0.201855	-0.386099	-0.512609
H200	H	0.701855	0.113901	-0.012609
H201	H	0.289372	-0.339034	-0.496908
H202	H	0.789372	0.160966	0.003092
O203	O	1.063507	-0.635018	-0.718349
O204	O	1.563507	-0.135018	-0.218349
C205	C	1.054232	-0.620680	-0.788319
C206	C	1.554232	-0.120680	-0.288319
H207	H	1.032086	-0.540024	-0.797982
H208	H	1.532086	-0.040024	-0.297982
H209	H	1.104935	-0.627772	-0.815187
H210	H	1.604935	-0.127772	-0.315187
H211	H	1.018176	-0.682649	-0.808369
H212	H	1.518176	-0.182649	-0.308369
H213	H	0.592308	-0.382391	-0.404787
H214	H	1.092308	0.117609	0.095213
O215	O	0.370448	-0.372039	-0.411591
O216	O	0.870448	0.127961	0.088409
C217	C	0.440412	-0.386322	-0.402275
C218	C	0.940412	0.113678	0.097725
H219	H	0.450052	-0.466924	-0.380019
H220	H	0.950052	0.033076	0.119981
H221	H	0.467297	-0.379329	-0.452979
H222	H	0.967297	0.120671	0.047021
H223	H	0.460464	-0.324263	-0.366296
H224	H	0.960464	0.175737	0.133704
O225	O	0.230978	-0.635262	-0.240691
O226	O	0.730978	-0.135262	0.259309
C227	C	0.248235	-0.739445	-0.255369
C228	C	0.748235	-0.239445	0.244631
H229	H	0.299569	-0.741661	-0.281378
H230	H	0.799569	-0.241661	0.218622
H231	H	0.250628	-0.786199	-0.206465
H232	H	0.750628	-0.286199	0.293535
H233	H	0.208463	-0.774722	-0.290133
H234	H	0.708463	-0.274722	0.209867
O235	O	0.370326	-0.635155	-0.240742
O236	O	0.870326	-0.135155	0.259258
C237	C	0.411210	-0.702740	-0.279198
C238	C	0.911210	-0.202740	0.220802
H239	H	0.421828	-0.665981	-0.330529
H240	H	0.921828	-0.165981	0.169471
H241	H	0.460903	-0.716692	-0.251604
H242	H	0.960903	-0.216692	0.248396
H243	H	0.383960	-0.780197	-0.286558
H244	H	0.883960	-0.280197	0.213442
O245	O	0.586641	-0.635173	-0.240729
O246	O	1.086641	-0.135173	0.259271
C247	C	0.545750	-0.702735	-0.279194
C248	C	1.045750	-0.202735	0.220806
H249	H	0.567072	-0.709293	-0.332493
H250	H	1.067072	-0.209293	0.167507
H251	H	0.544933	-0.783108	-0.254624
H252	H	1.044933	-0.283108	0.245376
H253	H	0.492180	-0.670439	-0.281567
H254	H	0.992180	-0.170439	0.218433
