data_functionalizedCrystal
_audit_creation_method	'MofGen! by Chris Wilmer'
_symmetry_space_group_name_H-M	'P1'
_symmetry_Int_Tables_number	1
_symmetry_cell_setting	triclinic
loop_
_symmetry_equiv_pos_as_xyz
  x,y,z
_cell_length_a	14.971486
_cell_length_b	10.723024
_cell_length_c	13.448316
_cell_angle_alpha	89.994589
_cell_angle_beta	89.998199
_cell_angle_gamma	84.040999
loop_
_atom_site_label
_atom_site_type_symbol
_atom_site_fract_x
_atom_site_fract_y
_atom_site_fract_z
O1	O	1.187821	0.162617	-0.082575
O2	O	1.687821	0.662617	0.417425
O3	O	0.927525	0.182090	-0.082602
O4	O	1.427525	0.682090	0.417398
O5	O	1.063677	-0.009285	-0.082584
O6	O	1.563677	0.490715	0.417416
O7	O	1.051669	0.353992	-0.082593
O8	O	1.551669	0.853992	0.417407
O9	O	1.063660	-0.009297	0.082800
O10	O	1.563660	0.490703	0.582800
O11	O	0.927508	0.182078	0.082782
O12	O	1.427508	0.682078	0.582782
O13	O	1.187803	0.162605	0.082809
O14	O	1.687803	0.662605	0.582809
Cu15	Cu	1.057654	0.172341	0.097896
Cu16	Cu	1.557654	0.672341	0.597896
Cu17	Cu	1.057674	0.172355	-0.097689
Cu18	Cu	1.557674	0.672355	0.402311
O19	O	1.051651	0.353981	0.082791
O20	O	1.551651	0.853981	0.582791
C21	C	0.894187	0.181213	0.000087
C22	C	1.394187	0.681213	0.500087
C23	C	0.794876	0.178604	0.000077
C24	C	1.294876	0.678604	0.500077
C25	C	0.738254	0.291032	0.000075
C26	C	1.238254	0.791032	0.500075
C27	C	0.644941	0.288572	0.000090
C28	C	1.144941	0.788572	0.500090
C29	C	0.608252	0.173683	0.000099
C30	C	1.108252	0.673683	0.500099
C31	C	0.664881	0.061246	0.000104
C32	C	1.164881	0.561246	0.500104
C33	C	0.758192	0.063707	0.000096
C34	C	1.258192	0.563707	0.500096
C35	C	0.470391	0.056125	0.000117
C36	C	0.970391	0.556125	0.500117
C37	C	0.377074	0.053663	0.000123
C38	C	0.877074	0.553663	0.500123
C39	C	0.357141	0.280990	0.000112
C40	C	0.857141	0.780990	0.500112
C41	C	0.450452	0.283451	0.000104
C42	C	0.950452	0.783451	0.500104
C43	C	0.507074	0.171013	0.000106
C44	C	1.007074	0.671013	0.500106
C45	C	1.062794	-0.055782	0.000107
C46	C	1.562794	0.444218	0.500107
C47	C	1.060180	-0.194309	0.000103
C48	C	1.560180	0.305691	0.500103
C49	C	1.136363	-0.270088	0.000109
C50	C	1.636363	0.229912	0.500109
C51	C	1.133663	-0.413263	0.000106
C52	C	1.633663	0.086737	0.500106
C53	C	1.221141	0.163482	0.000118
C54	C	1.721141	0.663482	0.500118
C55	C	1.320452	0.166091	0.000122
C56	C	1.820452	0.666091	0.500122
C57	C	1.052534	0.400477	0.000098
C58	C	1.552534	0.900477	0.500098
C59	C	1.055148	0.539004	0.000096
C60	C	1.555148	1.039004	0.500096
N61	N	1.057646	0.172330	0.235461
N62	N	1.557646	0.672330	0.735461
N63	N	1.057689	0.172355	-0.235253
N64	N	1.557689	0.672355	0.264747
C65	C	1.117953	0.087624	0.287509
C66	C	1.617953	0.587624	0.787509
C67	C	1.117959	0.087623	0.391612
C68	C	1.617959	0.587623	0.891612
C69	C	1.057661	0.172335	0.443665
C70	C	1.557661	0.672335	0.943665
C71	C	0.997347	0.257045	0.391610
C72	C	1.497347	0.757045	0.891610
C73	C	0.997338	0.257039	0.287509
C74	C	1.497338	0.757039	0.787509
C75	C	0.997372	0.257054	0.608590
C76	C	1.497372	0.757054	1.108590
C77	C	0.997382	0.257062	0.712698
C78	C	1.497382	0.757062	1.212698
C79	C	1.117993	0.087637	0.712694
C80	C	1.617993	0.587637	1.212694
C81	C	1.117984	0.087631	0.608592
C82	C	1.617984	0.587631	1.108592
C83	C	1.057671	0.172343	0.556544
C84	C	1.557671	0.672343	1.056544
H85	H	0.311034	0.372540	0.000114
H86	H	0.811034	0.872540	0.500114
H87	H	0.768119	0.384588	0.000067
H88	H	1.268119	0.884588	0.500067
H89	H	1.198882	-0.478377	0.000115
H90	H	1.698882	0.021623	0.500115
F91	F	1.224231	-0.216348	0.000113
F92	F	1.724231	0.283652	0.500113
F93	F	0.969895	-0.375899	0.000096
F94	F	1.469895	0.124101	0.500096
H95	H	0.948280	0.326042	0.755075
H96	H	1.448280	0.826042	1.255075
F97	F	0.489497	0.405728	0.000084
F98	F	0.989497	0.905728	0.500084
F99	F	0.972312	-0.248048	0.000085
F100	F	1.472312	0.251952	0.500085
H101	H	1.167058	0.018646	0.245134
H102	H	1.667058	0.518646	0.745134
F103	F	1.182163	-0.002521	0.553193
F104	F	1.682163	0.497479	1.053193
H105	H	0.948256	0.326031	0.566216
H106	H	1.448256	0.826031	1.066216
H107	H	1.167065	0.018648	0.433989
H108	H	1.667065	0.518648	0.933989
H109	H	1.167101	0.018662	0.755077
H110	H	1.667101	0.518662	1.255077
F111	F	0.933168	0.347198	0.447009
F112	F	1.433168	0.847198	0.947009
H113	H	0.598843	0.380122	0.000088
H114	H	1.098843	0.880122	0.500088
F115	F	0.338029	-0.068614	0.000158
F116	F	0.838029	0.431386	0.500158
F117	F	0.933148	0.347192	0.232116
F118	F	1.433148	0.847192	0.732116
H119	H	0.635002	-0.032298	0.000125
H120	H	1.135002	0.467702	0.500125
F121	F	0.818453	-0.055954	0.000101
F122	F	1.318453	0.444046	0.500101
F123	F	0.530651	-0.063544	0.000123
F124	F	1.030651	0.436456	0.500123
