data_functionalizedCrystal
_audit_creation_method	'MofGen! by Chris Wilmer'
_symmetry_space_group_name_H-M	'P1'
_symmetry_Int_Tables_number	1
_symmetry_cell_setting	triclinic
loop_
_symmetry_equiv_pos_as_xyz
  x,y,z
_cell_length_a	12.759401
_cell_length_b	21.395361
_cell_length_c	21.395364
_cell_angle_alpha	90.015132
_cell_angle_beta	90.004546
_cell_angle_gamma	90.029752
loop_
_atom_site_label
_atom_site_type_symbol
_atom_site_fract_x
_atom_site_fract_y
_atom_site_fract_z
Zn1	Zn	1.605993	-0.249567	0.354196
Zn2	Zn	1.605881	-0.354315	0.249413
Zn3	Zn	1.430338	-0.249553	0.249438
Zn4	Zn	1.430235	-0.354309	0.354159
O5	O	1.518112	-0.301936	0.301802
O6	O	1.752999	-0.263470	0.340301
O7	O	1.582592	-0.340415	0.161739
O8	O	1.453729	-0.161877	0.263361
O9	O	1.752917	-0.340428	0.263318
O10	O	1.582782	-0.161887	0.340326
O11	O	1.453621	-0.263447	0.161757
O12	O	1.283303	-0.263441	0.263325
O13	O	1.453553	-0.340417	0.441842
O14	O	1.283227	-0.340404	0.340263
O15	O	1.582682	-0.263464	0.441869
O16	O	1.582491	-0.441992	0.263282
O17	O	1.453444	-0.441987	0.340238
C18	C	1.245144	-0.301921	0.301793
C19	C	1.128368	-0.301930	0.301804
C20	C	1.517973	-0.464723	0.301767
C21	C	1.518010	-0.534365	0.301773
C22	C	1.585264	-0.567059	0.261743
C23	C	1.585313	-0.632495	0.261757
C24	C	1.518089	-0.665233	0.301794
C25	C	1.450830	-0.632530	0.341832
C26	C	1.450790	-0.567096	0.341821
C27	C	1.423488	-0.768948	0.306707
C28	C	1.423526	-0.834381	0.306714
C29	C	1.518211	-0.867054	0.301831
C30	C	1.612861	-0.834286	0.296929
C31	C	1.612822	-0.768852	0.296918
C32	C	1.518125	-0.736185	0.301811
C33	C	1.585524	-0.970701	0.261814
C34	C	1.585575	-1.036138	0.261832
C35	C	1.451082	-1.036172	0.341904
C36	C	1.451041	-0.970737	0.341889
C37	C	1.518260	-0.938005	0.301841
C38	C	1.073541	-0.261933	0.341951
C39	C	0.963817	-0.261945	0.341955
C40	C	0.963756	-0.341956	0.261663
C41	C	1.073478	-0.341940	0.261656
C42	C	1.073576	-0.215742	0.388310
C43	C	0.963852	-0.215754	0.388314
C44	C	1.792145	-0.301951	0.301811
C45	C	1.908922	-0.301957	0.301815
C46	C	1.518118	-0.301941	0.465225
C47	C	1.518121	-0.301944	0.534866
C48	C	1.518280	-0.138512	0.301850
C49	C	1.518351	-0.068871	0.301871
C50	C	1.585266	-0.342008	1.036653
C51	C	1.585264	-0.342012	0.971218
C52	C	1.518118	-0.301939	0.938504
C53	C	1.450950	-0.261871	0.971232
C54	C	1.450947	-0.261872	1.036666
C55	C	1.509885	-0.245488	0.834852
C56	C	1.509896	-0.245486	0.769419
C57	C	1.518122	-0.301936	0.736684
C58	C	1.526360	-0.358391	0.769389
C59	C	1.526357	-0.358392	0.834823
C60	C	1.518114	-0.301934	0.867552
C61	C	1.585278	-0.342011	0.633011
C62	C	1.585269	-0.342016	0.567575
C63	C	1.450961	-0.261869	0.567590
C64	C	1.450965	-0.261869	0.633026
C65	C	1.518129	-0.301939	0.665732
C66	C	1.518102	-0.301944	1.139014
C67	C	1.518111	-0.301942	1.069373
H68	H	1.640001	-0.540411	0.229134
O69	O	1.658130	-1.071401	0.218659
H70	H	1.646879	-1.122401	0.225400
H71	H	1.503255	-0.199512	0.861501
O72	O	1.657699	-0.385237	0.668292
H73	H	1.740168	-0.374502	0.655735
H74	H	1.639965	-0.374631	0.944572
H75	H	1.103371	-0.167191	0.375403
H76	H	1.346378	-0.742352	0.310686
O77	O	1.378569	-1.071475	0.385085
H78	H	1.425565	-1.101253	0.416989
H79	H	1.107614	-0.233195	0.434369
O80	O	0.918791	-0.154662	0.365414
H81	H	0.869835	-0.163342	0.323411
O82	O	0.924411	-0.233080	0.452559
H83	H	0.837420	-0.233070	0.452523
O84	O	1.657699	-0.385233	0.532278
H85	H	1.711163	-0.357187	0.502471
H86	H	1.396272	-0.944115	0.374483
H87	H	1.639954	-0.374637	1.063279
H88	H	1.503195	-0.199517	0.742796
O89	O	1.714987	-0.869525	0.291657
H90	H	1.754221	-0.856971	0.247091
H91	H	1.640262	-0.944050	0.229206
O92	O	1.321447	-0.869723	0.312000
H93	H	1.255601	-0.836012	0.315406
O94	O	1.378309	-0.667835	0.385010
H95	H	1.389624	-0.718829	0.378286
O96	O	1.378246	-0.531825	0.384995
H97	H	1.324822	-0.502052	0.356915
H98	H	1.533061	-0.404359	0.861449
H99	H	1.533061	-0.404358	0.742737
H100	H	1.118113	-0.374503	0.228958
O101	O	1.378538	-0.218644	0.532318
H102	H	1.389826	-0.225371	0.481319
O103	O	1.657844	-0.667771	0.218575
H104	H	1.704573	-0.634017	0.190722
H105	H	1.396284	-0.229241	0.659666
O106	O	1.378533	-0.218644	0.935954
H107	H	1.389826	-0.225368	0.884956
O108	O	1.378524	-0.218650	1.071963
H109	H	1.331835	-0.190782	1.038225
H110	H	1.689888	-0.742173	0.292928
H111	H	0.919051	-0.374531	0.228976
