data_functionalizedCrystal
_audit_creation_method	'MofGen! by Chris Wilmer'
_symmetry_space_group_name_H-M	'P1'
_symmetry_Int_Tables_number	1
_symmetry_cell_setting	triclinic
loop_
_symmetry_equiv_pos_as_xyz
  x,y,z
_cell_length_a	17.038272
_cell_length_b	17.019234
_cell_length_c	14.472310
_cell_angle_alpha	86.117620
_cell_angle_beta	89.992377
_cell_angle_gamma	87.240293
loop_
_atom_site_label
_atom_site_type_symbol
_atom_site_fract_x
_atom_site_fract_y
_atom_site_fract_z
O1	O	1.037220	0.171283	-0.090360
O2	O	0.809592	0.168563	-0.090171
O3	O	0.929763	0.055516	-0.081152
O4	O	0.917049	0.284330	-0.099379
O5	O	0.929732	0.055521	0.072530
O6	O	0.809561	0.168568	0.063511
O7	O	1.037189	0.171288	0.063321
Cu8	Cu	0.923372	0.169928	0.077448
Cu9	Cu	0.923409	0.169922	-0.104298
O10	O	0.917018	0.284335	0.054302
C11	C	0.780451	0.166092	-0.013137
C12	C	0.693664	0.158711	-0.012559
C13	C	0.643488	0.226472	-0.017956
C14	C	0.561944	0.219533	-0.017391
C15	C	0.530578	0.144832	-0.011435
C16	C	0.580760	0.077066	-0.006034
C17	C	0.662303	0.084006	-0.006593
C18	C	0.284842	0.120314	-0.009457
C19	C	0.203293	0.113379	-0.008901
C20	C	0.184483	0.255846	-0.020256
C21	C	0.266028	0.262780	-0.020820
C22	C	0.316203	0.195014	-0.015415
C23	C	0.447227	0.137737	-0.010859
C24	C	0.399552	0.202109	-0.015983
C25	C	0.929268	0.026097	-0.001969
C26	C	0.927828	-0.061571	0.005008
C27	C	0.919616	-0.557399	0.048632
C28	C	0.920976	-0.475026	0.042081
C29	C	0.921679	-0.433834	-0.044969
C30	C	0.921013	-0.475019	-0.125472
C31	C	0.919648	-0.557390	-0.118920
C32	C	0.925798	-0.185127	-0.068943
C33	C	0.927166	-0.102750	-0.075490
C34	C	0.927126	-0.102763	0.092064
C35	C	0.925765	-0.185136	0.098609
C36	C	0.925096	-0.226313	0.018105
C37	C	0.923071	-0.349636	-0.051668
C38	C	0.923698	-0.310509	0.024805
C39	C	1.066331	0.173759	-0.013715
C40	C	1.153117	0.181139	-0.014298
C41	C	0.917514	0.313754	-0.024882
C42	C	0.918953	0.401422	-0.031865
N43	N	0.923352	0.169932	0.205279
N44	N	0.923435	0.169913	-0.232128
C45	C	0.923408	0.169919	0.579371
C46	C	0.858892	0.230177	0.535398
C47	C	0.859040	0.230422	0.428290
C48	C	0.923380	0.169926	0.393780
C49	C	1.004931	0.193376	0.430759
C50	C	1.004568	0.193811	0.537846
C51	C	0.907101	0.086069	0.546578
C52	C	0.905229	0.086495	0.439416
C53	C	0.923369	0.169928	0.288891
C54	C	0.923424	0.169919	0.684260
H55	H	0.919047	-0.590932	0.119517
H56	H	0.919104	-0.590916	-0.184470
H57	H	0.925197	-0.218669	0.169494
H58	H	0.921527	-0.441503	0.107631
H59	H	0.925259	-0.218644	-0.134495
H60	H	0.869151	0.291932	0.557389
C61	C	0.994671	-0.081781	0.233233
C62	C	0.927845	-0.057503	0.180553
H63	H	0.995110	-0.053836	0.287863
H64	H	0.993754	-0.136727	0.249583
H65	H	1.040470	-0.071232	0.197983
H66	H	0.882045	-0.068057	0.215801
H67	H	0.928755	-0.002544	0.164204
H68	H	0.703156	0.028828	-0.002199
H69	H	0.923121	-0.344051	0.095680
C70	C	0.387444	0.045465	0.075502
C71	C	0.339991	0.045828	-0.003527
H72	H	0.421490	-0.000524	0.079162
H73	H	0.417791	0.090941	0.071872
H74	H	0.355230	0.045719	0.129069
H75	H	0.372204	0.045580	-0.057096
H76	H	0.309640	0.000340	0.000095
H77	H	0.425095	0.262930	-0.020828
C78	C	0.927052	-0.111006	-0.240460
C79	C	0.927932	-0.057470	-0.171182
H80	H	0.927521	-0.083049	-0.299532
H81	H	0.972083	-0.146098	-0.234184
H82	H	0.880946	-0.140169	-0.234656
H83	H	0.974041	-0.028311	-0.176982
H84	H	0.882897	-0.022364	-0.177461
C85	C	1.111443	0.103034	0.504527
C86	C	1.071306	0.137192	0.577344
H87	H	1.152644	0.068083	0.528910
H88	H	1.076016	0.074614	0.470440
H89	H	1.132900	0.143241	0.464855
H90	H	1.049844	0.096985	0.617012
H91	H	1.106739	0.165612	0.611446
C92	C	0.873281	0.314907	0.290197
C93	C	0.873082	0.314267	0.386997
H94	H	0.881947	0.366673	0.264707
H95	H	0.913971	0.279587	0.270939
H96	H	0.824053	0.298905	0.269297
H97	H	0.922313	0.330263	0.407898
H98	H	0.832390	0.349599	0.406264
C99	C	0.728533	0.195052	0.497452
C100	C	0.776787	0.210447	0.571773
H101	H	0.677846	0.182863	0.519916
H102	H	0.724232	0.240212	0.455126
H103	H	0.750791	0.151629	0.466921
H104	H	0.754532	0.253873	0.602301
H105	H	0.781085	0.165282	0.614115
H106	H	0.923648	-0.316089	-0.122544
C107	C	0.808569	-0.011826	0.448081
C108	C	0.824248	0.062634	0.407043
H109	H	0.758573	-0.026552	0.428094
H110	H	0.847838	-0.049378	0.430440
H111	H	0.808652	-0.010041	0.513544
H112	H	0.824170	0.060847	0.341580
H113	H	0.784969	0.100195	0.424679
C114	C	0.988645	-0.454041	-0.269940
C115	C	0.921790	-0.429751	-0.221165
H116	H	0.989123	-0.426101	-0.329021
H117	H	1.034419	-0.443502	-0.236348
H118	H	0.987725	-0.508994	-0.277542
H119	H	0.922712	-0.374799	-0.213557
H120	H	0.876004	-0.440285	-0.254765
C121	C	1.035825	0.325325	0.484806
C122	C	1.023979	0.276590	0.564978
H123	H	1.047802	0.376431	0.501555
H124	H	1.078225	0.303746	0.450511
H125	H	0.989475	0.328859	0.447989
H126	H	1.070331	0.273051	0.601792
H127	H	0.981575	0.298174	0.599288
H128	H	0.291559	0.323609	-0.025681
H129	H	0.555215	0.016243	-0.001171
H130	H	0.177758	0.052546	-0.004051
C131	C	0.842123	-0.012883	0.640134
C132	C	0.828556	0.057474	0.585352
H133	H	0.793630	-0.030524	0.664076
H134	H	0.865724	-0.051796	0.603565
H135	H	0.876208	-0.004037	0.689925
H136	H	0.794476	0.048628	0.535557
H137	H	0.804944	0.096396	0.621923
C138	C	1.018793	0.057093	0.347387
C139	C	0.964559	0.022549	0.408387
H140	H	1.055428	0.017617	0.328240
H141	H	0.991867	0.081551	0.294781
H142	H	1.045873	0.095530	0.377781
H143	H	0.937474	-0.015884	0.377992
H144	H	0.991488	-0.001921	0.461002
H145	H	0.954151	0.041162	0.575487
C146	C	0.459336	0.294368	-0.102359
C147	C	0.506791	0.294018	-0.023334
H148	H	0.425285	0.340353	-0.106024
H149	H	0.491542	0.294106	-0.155922
H150	H	0.428986	0.248884	-0.098715
H151	H	0.537145	0.339499	-0.026981
H152	H	0.474581	0.294287	0.030243
H153	H	0.669020	0.287301	-0.022807
H154	H	0.798418	0.215643	0.403204
H155	H	0.421679	0.076915	-0.005984
H156	H	0.143621	0.311017	-0.024655
H157	H	1.054083	0.150884	0.408666
H158	H	1.019662	0.254030	0.399092
