data_functionalizedCrystal
_audit_creation_method	'MofGen! by Chris Wilmer'
_symmetry_space_group_name_H-M	'P1'
_symmetry_Int_Tables_number	1
_symmetry_cell_setting	triclinic
loop_
_symmetry_equiv_pos_as_xyz
  x,y,z
_cell_length_a	15.944551
_cell_length_b	27.732048
_cell_length_c	15.021413
_cell_angle_alpha	89.999048
_cell_angle_beta	89.997174
_cell_angle_gamma	83.070697
loop_
_atom_site_label
_atom_site_type_symbol
_atom_site_fract_x
_atom_site_fract_y
_atom_site_fract_z
O1	O	1.113714	0.062334	-0.073949
O2	O	0.869064	0.070020	-0.073973
O3	O	0.998987	-0.004187	-0.073943
O4	O	0.983790	0.136541	-0.073979
O5	O	0.998966	-0.004176	0.074121
O6	O	0.869043	0.070030	0.074092
O7	O	1.113693	0.062345	0.074115
Zn8	Zn	0.991365	0.066189	0.097612
Zn9	Zn	0.991392	0.066175	-0.097469
O10	O	0.983770	0.136551	0.074086
C11	C	0.837763	0.069706	0.000057
C12	C	0.744530	0.068749	0.000049
C13	C	0.530305	0.020466	0.000078
C14	C	0.469001	0.042882	-0.072931
C15	C	0.573827	0.067019	0.000060
C16	C	0.469003	0.042904	0.073049
C17	C	0.408936	0.065344	0.000074
C18	C	0.513752	0.089448	-0.073010
C19	C	0.513760	0.089463	0.073036
C20	C	0.452474	0.111912	0.000009
C21	C	0.668816	0.067983	0.000051
C22	C	0.313947	0.064384	0.000077
C23	C	0.998658	-0.022190	0.000091
C24	C	0.997697	-0.075849	0.000099
C25	C	1.068426	-0.414358	0.000060
C26	C	1.064862	-0.616033	0.000047
O27	O	1.129539	-0.647008	0.000014
N28	N	0.987823	-0.635490	0.000040
C29	C	0.911669	-0.604525	0.000031
O30	O	0.846061	-0.625703	0.000016
C31	C	0.915234	-0.402851	0.000038
C32	C	0.992278	-0.383397	0.000053
C33	C	1.145464	-0.394903	0.000074
C34	C	1.146354	-0.344487	0.000082
C35	C	1.070206	-0.313526	0.000076
C36	C	0.993168	-0.332981	0.000061
C37	C	0.839081	-0.371887	0.000022
C38	C	0.839979	-0.321466	0.000021
C39	C	0.917024	-0.302012	0.000037
C40	C	0.917911	-0.251604	0.000063
N41	N	0.994950	-0.232147	0.000069
C42	C	1.071098	-0.263108	0.000076
C43	C	0.909803	-0.710408	0.000030
C44	C	0.908912	-0.760826	0.000030
C45	C	1.062105	-0.772330	0.000044
C46	C	1.062995	-0.721911	0.000050
C47	C	0.986842	-0.690950	0.000036
C48	C	1.072961	-0.157231	0.000093
C49	C	1.073845	-0.106810	0.000105
C50	C	0.920652	-0.095310	0.000086
C51	C	0.919768	-0.145727	0.000079
C52	C	0.995930	-0.176686	0.000080
O53	O	0.853269	-0.220600	0.000085
O54	O	1.136697	-0.241921	0.000071
C55	C	1.067536	-0.464774	0.000052
C56	C	0.990498	-0.484228	0.000037
C57	C	0.914350	-0.453268	0.000031
C58	C	0.989607	-0.534647	0.000037
C59	C	1.065754	-0.565608	0.000044
C60	C	1.142794	-0.546150	0.000050
C61	C	1.143684	-0.495734	0.000058
C62	C	0.837311	-0.472725	0.000024
C63	C	0.836427	-0.523141	0.000017
C64	C	0.912575	-0.554102	0.000023
C65	C	1.144993	0.062658	0.000084
C66	C	1.238227	0.063615	0.000086
C67	C	0.984099	0.154554	0.000049
C68	C	0.985059	0.208213	0.000036
N69	N	0.991352	0.066198	0.230749
N70	N	0.991411	0.066162	-0.230607
C71	C	0.931267	0.100495	0.470419
C72	C	1.007044	0.109879	0.529758
C73	C	0.991374	0.066186	0.412356
C74	C	0.915617	0.056813	0.529759
C75	C	0.991388	0.066176	0.587780
C76	C	1.067190	0.075592	0.470389
C77	C	0.975712	0.022507	0.470385
C78	C	1.051545	0.031872	0.529697
C79	C	0.991365	0.066194	0.311299
C80	C	0.991406	0.066168	0.688836
H81	H	1.136586	-0.090973	0.000120
H82	H	0.773684	-0.538976	0.000012
C83	C	0.539890	0.115710	-0.155440
C84	C	0.468244	0.131132	-0.206584
C85	C	0.492290	0.155330	-0.282519
H86	H	0.578183	0.094292	-0.189661
H87	H	0.566500	0.143088	-0.138033
H88	H	0.441647	0.103758	-0.223993
H89	H	0.429943	0.152556	-0.172390
H90	H	0.518900	0.182708	-0.265111
H91	H	0.530584	0.133909	-0.316732
H92	H	0.443682	0.165801	-0.317225
C93	C	0.575516	-0.031027	-0.000139
C94	C	0.626684	-0.037921	-0.075922
C95	C	0.668358	-0.085346	-0.076150
H96	H	0.535049	-0.053512	-0.000748
H97	H	0.609558	-0.036034	0.051722
H98	H	0.592645	-0.032919	-0.127769
H99	H	0.667166	-0.015447	-0.075329
H100	H	0.702399	-0.090352	-0.024289
H101	H	0.627885	-0.107826	-0.076757
H102	H	0.703086	-0.090028	-0.127563
H103	H	1.020304	0.146814	0.555837
C104	C	0.754540	-0.439195	0.000069
C105	C	0.686891	-0.467032	0.000085
C106	C	0.610625	-0.436163	0.000145
H107	H	0.751580	-0.419272	-0.051545
H108	H	0.751650	-0.419299	0.051728
H109	H	0.689780	-0.486920	-0.051569
H110	H	0.689824	-0.486954	0.051695
H111	H	0.607735	-0.416267	0.051804
H112	H	0.607673	-0.416242	-0.051470
H113	H	0.564716	-0.455046	0.000164
H114	H	0.418809	0.150587	-0.000042
H115	H	1.131275	0.083560	0.444419
H116	H	0.449166	0.023209	0.134770
H117	H	0.449157	0.023188	-0.134645
C118	C	0.830269	0.046173	0.564654
C119	C	0.840885	0.003702	0.615900
C120	C	0.762282	-0.006107	0.648065
H121	H	0.793818	0.041957	0.515988
H122	H	0.806203	0.072545	0.600394
H123	H	0.864939	-0.022664	0.580162
H124	H	0.877322	0.007907	0.664578
H125	H	0.738216	0.020265	0.683805
H126	H	0.725837	-0.010320	0.599395
H127	H	0.769475	-0.034921	0.682846
H128	H	1.209091	-0.328652	0.000091
C129	C	1.119270	-0.006884	0.564241
C130	C	1.081493	-0.040505	0.615495
C131	C	1.143854	-0.076215	0.647322
H132	H	1.158256	0.007874	0.599902
H133	H	1.148203	-0.023065	0.515394
H134	H	1.052573	-0.024325	0.664334
H135	H	1.042512	-0.055275	0.579852
H136	H	1.172787	-0.092396	0.598475
H137	H	1.182837	-0.061453	0.682980
H138	H	1.118231	-0.099033	0.682094
H139	H	0.533625	0.109141	0.134753
C140	C	0.863678	0.139242	0.435577
C141	C	0.901483	0.172303	0.383028
C142	C	0.839252	0.208000	0.350905
H143	H	0.835298	0.155888	0.484263
H144	H	0.824204	0.124382	0.400729
H145	H	0.940942	0.187163	0.417874
H146	H	0.929859	0.155672	0.334329
H147	H	0.799778	0.193139	0.316058
H148	H	0.810875	0.224642	0.399596
H149	H	0.864893	0.230433	0.315241
C150	C	1.155740	-0.190758	0.000144
C151	C	1.223388	-0.162920	0.000182
C152	C	1.299655	-0.193789	0.000247
H153	H	1.158714	-0.210676	-0.051476
H154	H	1.158618	-0.210660	0.051797
H155	H	1.220512	-0.143027	-0.051465
H156	H	1.220442	-0.143004	0.051799
H157	H	1.302533	-0.213690	0.051900
H158	H	1.302620	-0.213705	-0.051374
H159	H	1.345564	-0.174905	0.000281
H160	H	0.962429	-0.014416	0.444285
H161	H	1.207476	-0.420107	0.000076
C162	C	1.144756	-0.805973	-0.000142
C163	C	1.148720	-0.835242	-0.076333
C164	C	1.224846	-0.866237	-0.076549
H165	H	1.147672	-0.825929	0.051428
H166	H	1.190795	-0.787186	-0.000191
H167	H	1.102694	-0.854028	-0.076276
H168	H	1.145819	-0.815299	-0.127915
H169	H	1.270885	-0.847449	-0.076598
H170	H	1.227755	-0.886189	-0.024976
H171	H	1.227549	-0.886096	-0.128247
H172	H	1.125732	-0.706075	0.000062
H173	H	0.777965	-0.296260	0.000009
C174	C	0.825176	-0.781851	-0.000022
C175	C	0.758686	-0.743939	-0.000054
C176	C	0.681534	-0.763286	-0.000119
H177	H	0.821511	-0.801273	0.051595
H178	H	0.821604	-0.801265	-0.051678
H179	H	0.762257	-0.724534	0.051597
H180	H	0.762323	-0.724514	-0.051667
H181	H	0.677962	-0.782700	-0.051775
H182	H	0.677878	-0.782708	0.051499
H183	H	0.636412	-0.737567	-0.000149
C184	C	0.827141	-0.676774	-0.000162
C185	C	0.823163	-0.647501	-0.076349
C186	C	0.747022	-0.616520	-0.076559
H187	H	0.824210	-0.656821	0.051410
H188	H	0.781115	-0.695572	-0.000212
H189	H	0.869177	-0.628705	-0.076291
H190	H	0.826079	-0.667441	-0.127934
H191	H	0.700996	-0.635318	-0.076609
H192	H	0.744098	-0.596570	-0.024983
H193	H	0.744310	-0.596658	-0.128254
C194	C	0.836035	-0.166758	0.000019
C195	C	0.769540	-0.128850	-0.000005
C196	C	0.692392	-0.148201	-0.000084
H197	H	0.832370	-0.186186	0.051629
H198	H	0.832469	-0.186167	-0.051644
H199	H	0.773104	-0.109449	0.051653
H200	H	0.773177	-0.109419	-0.051611
H201	H	0.688826	-0.167610	-0.051747
H202	H	0.688736	-0.167628	0.051527
H203	H	0.647266	-0.122484	-0.000108
H204	H	0.776344	-0.387718	0.000004
C205	C	1.227420	-0.474711	0.000022
C206	C	1.293907	-0.512624	0.000002
C207	C	1.371061	-0.493279	-0.000045
H208	H	1.231073	-0.455290	0.051642
H209	H	1.231009	-0.455296	-0.051631
H210	H	1.290320	-0.532031	0.051650
H211	H	1.290282	-0.532048	-0.051614
H212	H	1.374650	-0.473864	-0.051698
H213	H	1.374705	-0.473859	0.051576
H214	H	1.416181	-0.519000	-0.000066
C215	C	1.225380	-0.579852	0.000009
C216	C	1.208098	-0.628167	-0.000024
C217	C	1.284150	-0.659228	-0.000080
H218	H	1.257059	-0.574022	0.051630
H219	H	1.257009	-0.573981	-0.051644
H220	H	1.176482	-0.634035	0.051623
H221	H	1.176431	-0.634012	-0.051641
H222	H	1.315780	-0.653358	-0.051732
H223	H	1.315823	-0.653394	0.051542
H224	H	1.272435	-0.692014	-0.000111
H225	H	0.858655	-0.070093	0.000084
