data_functionalizedCrystal
_audit_creation_method	'MofGen! by Chris Wilmer'
_symmetry_space_group_name_H-M	'P1'
_symmetry_Int_Tables_number	1
_symmetry_cell_setting	triclinic
loop_
_symmetry_equiv_pos_as_xyz
  x,y,z
_cell_length_a	11.792254
_cell_length_b	15.944493
_cell_length_c	10.268362
_cell_angle_alpha	90.000590
_cell_angle_beta	89.995475
_cell_angle_gamma	83.836821
loop_
_atom_site_label
_atom_site_type_symbol
_atom_site_fract_x
_atom_site_fract_y
_atom_site_fract_z
O1	O	1.505919	0.115182	-0.108281
O2	O	1.839252	0.448515	0.225053
O3	O	2.172586	0.781849	0.558386
O4	O	1.175479	0.127036	-0.108282
O5	O	1.508812	0.460370	0.225052
O6	O	1.842145	0.793703	0.558385
O7	O	1.349757	-0.001128	-0.108292
O8	O	1.683090	0.332205	0.225041
O9	O	2.016423	0.665539	0.558375
O10	O	1.331641	0.243346	-0.108271
O11	O	1.664974	0.576679	0.225063
O12	O	1.998308	0.910013	0.558396
O13	O	1.349742	-0.001133	0.108309
O14	O	1.683075	0.332200	0.441642
O15	O	2.016408	0.665533	0.774975
O16	O	1.175464	0.127031	0.108319
O17	O	1.508797	0.460364	0.441652
O18	O	1.842130	0.793698	0.774985
O19	O	1.505904	0.115177	0.108320
O20	O	1.839237	0.448510	0.441653
O21	O	2.172570	0.781843	0.774986
Cu22	Cu	1.340682	0.121103	0.128097
Cu23	Cu	1.674016	0.454437	0.461430
Cu24	Cu	2.007349	0.787770	0.794763
Cu25	Cu	1.340700	0.121110	-0.128059
Cu26	Cu	1.674034	0.454443	0.205275
Cu27	Cu	2.007367	0.787776	0.538608
O28	O	1.331626	0.243341	0.108330
O29	O	1.664959	0.576674	0.441663
O30	O	1.998292	0.910007	0.774997
C31	C	1.133187	0.126287	0.000018
C32	C	1.466520	0.459620	0.333351
C33	C	1.799853	0.792954	0.666685
C34	C	1.007193	0.124052	0.000017
C35	C	1.340526	0.457385	0.333350
C36	C	1.673860	0.790718	0.666683
C37	C	0.904872	0.122236	0.000011
C38	C	1.238205	0.455569	0.333344
C39	C	1.571538	0.788902	0.666678
C40	C	0.776504	0.119965	0.000010
C41	C	1.109838	0.453298	0.333343
C42	C	1.443171	0.786632	0.666677
C43	C	1.349009	-0.032429	0.000003
C44	C	1.682342	0.300905	0.333336
C45	C	2.015675	0.634238	0.666669
C46	C	1.346789	-0.125687	-0.000014
C47	C	1.680122	0.207646	0.333319
C48	C	2.013455	0.540979	0.666653
C49	C	1.449373	-0.360981	0.000011
C50	C	1.782706	-0.027648	0.333344
C51	C	2.116040	0.305686	0.666678
C52	C	1.394061	-0.411798	-0.106784
C53	C	1.727394	-0.078464	0.226550
C54	C	2.060727	0.254869	0.559883
C55	C	1.342676	-0.296427	0.000002
C56	C	1.676009	0.036906	0.333335
C57	C	2.009342	0.370240	0.666669
C58	C	1.394021	-0.411779	0.106767
C59	C	1.727354	-0.078446	0.440101
C60	C	2.060688	0.254887	0.773434
C61	C	1.338711	-0.461355	0.000023
C62	C	1.672044	-0.128021	0.333356
C63	C	2.005377	0.205312	0.666690
C64	C	1.287392	-0.346016	-0.106881
C65	C	1.620726	-0.012682	0.226452
C66	C	1.954059	0.320651	0.559786
C67	C	1.287368	-0.345994	0.106766
C68	C	1.620701	-0.012660	0.440099
C69	C	1.954035	0.320673	0.773433
C70	C	1.231977	-0.396778	-0.000055
C71	C	1.565311	-0.063445	0.333279
C72	C	1.898644	0.269889	0.666612
C73	C	1.344963	-0.201417	-0.000011
C74	C	1.678296	0.131916	0.333322
C75	C	2.011630	0.465250	0.666655
C76	C	1.336415	-0.556362	0.000027
C77	C	1.669748	-0.223029	0.333360
C78	C	2.003082	0.110304	0.666694
C79	C	1.548196	0.115926	0.000017
C80	C	1.881529	0.449259	0.333350
C81	C	2.214862	0.782593	0.666684
C82	C	1.674190	0.118161	0.000010
C83	C	2.007523	0.451494	0.333343
C84	C	2.340856	0.784828	0.666676
C85	C	1.332374	0.274642	0.000033
C86	C	1.665707	0.607975	0.333366
C87	C	1.999040	0.941308	0.666699
C88	C	1.334594	0.367900	0.000041
C89	C	1.667927	0.701234	0.333374
C90	C	2.001260	1.034567	0.666707
N91	N	1.340678	0.121098	0.308263
N92	N	1.674011	0.454432	0.641596
N93	N	2.007345	0.787765	0.974929
N94	N	1.340713	0.121108	-0.308225
N95	N	1.674047	0.454441	0.025109
N96	N	2.007380	0.787775	0.358442
C97	C	1.340694	0.121108	0.573933
C98	C	1.674028	0.454441	0.907266
C99	C	2.007361	0.787775	1.240600
C100	C	1.340682	0.121105	0.426095
C101	C	1.674015	0.454438	0.759429
C102	C	2.007348	0.787772	1.092762
H103	H	1.541279	-0.344935	-0.000096
H104	H	1.874612	-0.011601	0.333237
H105	H	2.207945	0.321732	0.666571
O106	O	1.110139	-0.417809	-0.000134
O107	O	1.443473	-0.084476	0.333199
O108	O	1.776806	0.248857	0.666533
H109	H	1.109298	-0.487351	0.000715
H110	H	1.442632	-0.154017	0.334049
H111	H	1.775965	0.179316	0.667382
H112	H	1.439127	-0.440536	-0.197072
H113	H	1.772460	-0.107203	0.136261
H114	H	2.105793	0.226130	0.469595
H115	H	1.242365	-0.317398	-0.197264
H116	H	1.575698	0.015935	0.136069
H117	H	1.909031	0.349268	0.469402
O118	O	1.453721	-0.449816	0.226369
O119	O	1.787055	-0.116483	0.559703
O120	O	2.120388	0.216850	0.893036
H121	H	1.410262	-0.422425	0.314918
H122	H	1.743596	-0.089092	0.648252
H123	H	2.076929	0.244241	0.981585
O124	O	1.227727	-0.307891	0.226361
O125	O	1.561060	0.025442	0.559694
O126	O	1.894393	0.358776	0.893027
H127	H	1.272206	-0.334350	0.314887
H128	H	1.605539	-0.001017	0.648220
H129	H	1.938872	0.332317	0.981553
