data_functionalizedCrystal
_audit_creation_method	'MofGen! by Chris Wilmer'
_symmetry_space_group_name_H-M	'P1'
_symmetry_Int_Tables_number	1
_symmetry_cell_setting	triclinic
loop_
_symmetry_equiv_pos_as_xyz
  x,y,z
_cell_length_a	17.038278
_cell_length_b	17.019294
_cell_length_c	11.892095
_cell_angle_alpha	90.016651
_cell_angle_beta	85.819118
_cell_angle_gamma	87.243447
loop_
_atom_site_label
_atom_site_type_symbol
_atom_site_fract_x
_atom_site_fract_y
_atom_site_fract_z
O1	O	1.043084	0.165762	-0.110145
O2	O	0.815442	0.163057	-0.109882
O3	O	0.935023	0.050558	-0.098925
O4	O	0.923503	0.278261	-0.121101
O5	O	0.925052	0.059922	0.088170
O6	O	0.805471	0.172421	0.077214
O7	O	1.033114	0.175126	0.076951
Zn8	Zn	0.917709	0.175261	0.106788
Zn9	Zn	0.930846	0.162922	-0.139719
O10	O	0.913533	0.287625	0.065995
C11	C	0.781318	0.165278	-0.016094
C12	C	0.694493	0.157934	-0.015380
C13	C	0.203886	0.112818	-0.010990
C14	C	0.285466	0.119724	-0.011656
C15	C	0.317221	0.194062	-0.018901
C16	C	0.267391	0.261498	-0.025469
C17	C	0.185813	0.254591	-0.024795
C18	C	0.563084	0.218463	-0.021274
C19	C	0.644669	0.225365	-0.021950
C20	C	0.662738	0.083590	-0.008136
C21	C	0.581158	0.076690	-0.007469
C22	C	0.531335	0.144126	-0.014031
C23	C	0.400609	0.201123	-0.019585
C24	C	0.447948	0.137064	-0.013339
C25	C	0.929404	0.025961	-0.002529
C26	C	0.927507	-0.061281	0.005961
C27	C	0.932053	-0.107368	-0.092036
C28	C	0.930266	-0.189341	-0.084056
C29	C	0.923938	-0.225226	0.021922
C30	C	0.919390	-0.179133	0.119926
C31	C	0.921172	-0.097161	0.111945
C32	C	0.918282	-0.472472	0.051122
C33	C	0.916503	-0.554450	0.059095
C34	C	0.927377	-0.564652	-0.144887
C35	C	0.929163	-0.482678	-0.152859
C36	C	0.924610	-0.436592	-0.054855
C37	C	0.922114	-0.309015	0.030081
C38	C	0.926429	-0.352804	-0.063016
C39	C	1.067238	0.172905	-0.016839
C40	C	1.154063	0.180249	-0.017561
C41	C	0.919151	0.312222	-0.030405
C42	C	0.921048	0.399464	-0.038901
N43	N	0.908750	0.183681	0.275022
N44	N	0.939812	0.154496	-0.307952
C45	C	1.002157	0.095859	0.520223
C46	C	0.995900	0.101750	0.637991
C47	C	0.889975	0.201352	0.628329
C48	C	0.896232	0.195460	0.510561
C49	C	0.952326	0.142713	0.456512
C50	C	0.958586	0.136825	0.338741
C51	C	0.852658	0.236422	0.329082
C52	C	0.846401	0.242314	0.446850
H53	H	0.426474	0.261650	-0.025487
H54	H	1.047835	0.052915	0.476215
C55	C	0.340269	0.045544	-0.004428
N56	N	0.381546	-0.010332	0.001017
H57	H	0.914590	-0.434959	0.130924
H58	H	0.800729	0.285258	0.490870
C59	C	0.912424	-0.218609	0.236503
N60	N	0.907179	-0.248342	0.324311
C61	C	0.916173	-0.046466	0.219749
N62	N	0.912407	-0.008283	0.300951
H63	H	0.812085	0.274576	0.277194
C64	C	1.050716	0.050205	0.708069
N65	N	1.092004	0.011376	0.760853
H66	H	0.931576	-0.323583	-0.149302
C67	C	0.909539	-0.593921	0.175684
N68	N	0.904295	-0.623651	0.263495
H69	H	0.916965	-0.338242	0.116369
H70	H	0.937210	-0.078157	-0.178335
H71	H	0.933971	-0.226861	-0.163856
H72	H	0.178038	0.052283	-0.005098
H73	H	0.931082	-0.602183	-0.224677
H74	H	1.004262	0.093878	0.294736
H75	H	0.934316	-0.453467	-0.239158
H76	H	0.555309	0.016156	-0.001570
C77	C	0.717549	0.009416	-0.000900
N78	N	0.758832	-0.046454	0.004557
C79	C	0.131007	0.328771	-0.032026
N80	N	0.089728	0.384646	-0.037469
H81	H	0.670520	0.285903	-0.027834
C82	C	0.508288	0.292647	-0.028477
N83	N	0.467012	0.348527	-0.033897
C84	C	0.302325	0.343271	-0.033435
N85	N	0.328636	0.404864	-0.039438
H86	H	0.422090	0.076538	-0.007453
C87	C	0.828259	0.259350	0.687805
N88	N	0.781768	0.303029	0.732604
