data_functionalizedCrystal
_audit_creation_method	'MofGen! by Chris Wilmer'
_symmetry_space_group_name_H-M	'P1'
_symmetry_Int_Tables_number	1
_symmetry_cell_setting	triclinic
loop_
_symmetry_equiv_pos_as_xyz
  x,y,z
_cell_length_a	16.625547
_cell_length_b	21.295416
_cell_length_c	16.625548
_cell_angle_alpha	89.986091
_cell_angle_beta	90.012490
_cell_angle_gamma	89.969732
loop_
_atom_site_label
_atom_site_type_symbol
_atom_site_fract_x
_atom_site_fract_y
_atom_site_fract_z
Zn1	Zn	1.232538	0.250715	0.455986
Zn2	Zn	1.482538	0.500715	0.705986
Zn3	Zn	1.732538	0.750715	0.955986
Zn4	Zn	1.982538	1.000715	1.205986
Zn5	Zn	1.232452	0.355957	0.321147
Zn6	Zn	1.482452	0.605957	0.571147
Zn7	Zn	1.732452	0.855957	0.821147
Zn8	Zn	1.982452	1.105957	1.071147
Zn9	Zn	1.097729	0.250705	0.321157
Zn10	Zn	1.347729	0.500705	0.571157
Zn11	Zn	1.597729	0.750705	0.821157
Zn12	Zn	1.847729	1.000705	1.071157
Zn13	Zn	1.097652	0.355950	0.455927
Zn14	Zn	1.347652	0.605950	0.705927
Zn15	Zn	1.597652	0.855950	0.955927
Zn16	Zn	1.847652	1.105950	1.205927
O17	O	1.165093	0.303332	0.388554
O18	O	1.415093	0.553332	0.638554
O19	O	1.665093	0.803332	0.888554
O20	O	1.915093	1.053332	1.138554
O21	O	1.345359	0.264682	0.438120
O22	O	1.595359	0.514682	0.688120
O23	O	1.845359	0.764682	0.938120
O24	O	2.095359	1.014682	1.188120
O25	O	1.214577	0.341994	0.208316
O26	O	1.464577	0.591994	0.458316
O27	O	1.714577	0.841994	0.708316
O28	O	1.964577	1.091994	0.958316
O29	O	1.115680	0.162617	0.339071
O30	O	1.365680	0.412617	0.589071
O31	O	1.615680	0.662617	0.839071
O32	O	1.865680	0.912617	1.089071
O33	O	1.345296	0.342003	0.339055
O34	O	1.595296	0.592003	0.589055
O35	O	1.845296	0.842003	0.839055
O36	O	2.095296	1.092003	1.089055
O37	O	1.214724	0.162624	0.438129
O38	O	1.464724	0.412624	0.688129
O39	O	1.714724	0.662624	0.938129
O40	O	1.964724	0.912624	1.188129
O41	O	1.115597	0.264666	0.208323
O42	O	1.365597	0.514666	0.458323
O43	O	1.615597	0.764666	0.708323
O44	O	1.865597	1.014666	0.958323
O45	O	0.984886	0.264659	0.339013
O46	O	1.234886	0.514659	0.589013
O47	O	1.484886	0.764659	0.839013
O48	O	1.734886	1.014659	1.089013
O49	O	1.115549	0.341991	0.568767
O50	O	1.365549	0.591991	0.818767
O51	O	1.615549	0.841991	1.068767
O52	O	1.865549	1.091991	1.318767
O53	O	0.984830	0.341982	0.438029
O54	O	1.234830	0.591982	0.688029
O55	O	1.484830	0.841982	0.938029
O56	O	1.734830	1.091982	1.188029
O57	O	1.214649	0.264675	0.568811
O58	O	1.464649	0.514675	0.818811
O59	O	1.714649	0.764675	1.068811
O60	O	1.964649	1.014675	1.318811
O61	O	1.214502	0.444045	0.338997
O62	O	1.464502	0.694045	0.588997
O63	O	1.714502	0.944045	0.838997
O64	O	1.964502	1.194045	1.088997
O65	O	1.115465	0.444040	0.438019
O66	O	1.365465	0.694040	0.688019
O67	O	1.615465	0.944040	0.938019
O68	O	1.865465	1.194040	1.188019
C69	C	0.955602	0.303319	0.388516
C70	C	1.205602	0.553319	0.638516
C71	C	1.455602	0.803319	0.888516
C72	C	1.705602	1.053319	1.138516
C73	C	0.865981	0.303329	0.388519
C74	C	1.115981	0.553329	0.638519
C75	C	1.365981	0.803329	0.888519
C76	C	1.615981	1.053329	1.138519
C77	C	0.793198	0.303331	0.388529
C78	C	1.043198	0.553331	0.638529
C79	C	1.293198	0.803331	0.888529
C80	C	1.543198	1.053331	1.138529
C81	C	0.701890	0.303334	0.388549
C82	C	0.951890	0.553334	0.638549
C83	C	1.201890	0.803334	0.888549
C84	C	1.451890	1.053334	1.138549
C85	C	0.629114	0.303340	0.388570
C86	C	0.879114	0.553340	0.638570
C87	C	1.129114	0.803340	0.888570
C88	C	1.379114	1.053340	1.138570
C89	C	0.537799	0.303344	0.388589
C90	C	0.787799	0.553344	0.638589
C91	C	1.037799	0.803344	0.888589
C92	C	1.287799	1.053344	1.138589
C93	C	1.164988	0.466883	0.388519
C94	C	1.414988	0.716883	0.638519
C95	C	1.664988	0.966883	0.888519
C96	C	1.914988	1.216883	1.138519
C97	C	1.165017	0.536851	0.388530
C98	C	1.415017	0.786851	0.638530
C99	C	1.665017	1.036851	0.888530
C100	C	1.915017	1.286851	1.138530
C101	C	1.216631	0.569700	0.337024
C102	C	1.466631	0.819700	0.587024
C103	C	1.716631	1.069700	0.837024
C104	C	1.966631	1.319700	1.087024
C105	C	1.216669	0.635442	0.337046
C106	C	1.466669	0.885442	0.587046
C107	C	1.716669	1.135442	0.837046
C108	C	1.966669	1.385442	1.087046
C109	C	1.165078	0.668334	0.388565
C110	C	1.415078	0.918334	0.638565
C111	C	1.665078	1.168334	0.888565
C112	C	1.915078	1.418334	1.138565
C113	C	1.113460	0.635478	0.440082
C114	C	1.363460	0.885478	0.690082
C115	C	1.613460	1.135478	0.940082
C116	C	1.863460	1.385478	1.190082
C117	C	1.113429	0.569736	0.440064
C118	C	1.363429	0.819736	0.690064
C119	C	1.613429	1.069736	0.940064
C120	C	1.863429	1.319736	1.190064
N121	N	1.094542	0.771601	0.394705
N122	N	1.344542	1.021601	0.644705
N123	N	1.594542	1.271601	0.894705
N124	N	1.844542	1.521601	1.144705
N125	N	1.094574	0.834052	0.394717
N126	N	1.344574	1.084052	0.644717
N127	N	1.594574	1.334052	0.894717
N128	N	1.844574	1.584052	1.144717
C129	C	1.165169	0.866409	0.388623
C130	C	1.415169	1.116409	0.638623
C131	C	1.665169	1.366409	0.888623
C132	C	1.915169	1.616409	1.138623
N133	N	1.235734	0.833954	0.382500
N134	N	1.485734	1.083954	0.632500
N135	N	1.735734	1.333954	0.882500
N136	N	1.985734	1.583954	1.132500
N137	N	1.235701	0.771497	0.382484
N138	N	1.485701	1.021497	0.632484
N139	N	1.735701	1.271497	0.882484
N140	N	1.985701	1.521497	1.132484
C141	C	1.165106	0.739619	0.388590
C142	C	1.415106	0.989619	0.638590
C143	C	1.665106	1.239619	0.888590
C144	C	1.915106	1.489619	1.138590
C145	C	1.216829	0.970543	0.337137
C146	C	1.466829	1.220543	0.587137
C147	C	1.716829	1.470543	0.837137
C148	C	1.966829	1.720543	1.087137
C149	C	1.216869	1.036286	0.337165
C150	C	1.466869	1.286286	0.587165
C151	C	1.716869	1.536286	0.837165
C152	C	1.966869	1.786286	1.087165
C153	C	1.113653	1.036320	0.440196
C154	C	1.363653	1.286320	0.690196
C155	C	1.613653	1.536320	0.940196
C156	C	1.863653	1.786320	1.190196
C157	C	1.113621	0.970578	0.440173
C158	C	1.363621	1.220578	0.690173
C159	C	1.613621	1.470578	0.940173
C160	C	1.863621	1.720578	1.190173
C161	C	1.165208	0.937693	0.388639
C162	C	1.415208	1.187693	0.638639
C163	C	1.665208	1.437693	0.888639
C164	C	1.915208	1.687693	1.138639
C165	C	1.375402	0.303344	0.388593
C166	C	1.625402	0.553344	0.638593
C167	C	1.875402	0.803344	0.888593
C168	C	2.125402	1.053344	1.138593
C169	C	1.465023	0.303350	0.388609
C170	C	1.715023	0.553350	0.638609
C171	C	1.965023	0.803350	0.888609
C172	C	2.215023	1.053350	1.138609
C173	C	1.165100	0.303334	0.598863
C174	C	1.415100	0.553334	0.848863
C175	C	1.665100	0.803334	1.098863
C176	C	1.915100	1.053334	1.348863
C177	C	1.165103	0.303334	0.688484
C178	C	1.415103	0.553334	0.938484
C179	C	1.665103	0.803334	1.188484
C180	C	1.915103	1.053334	1.438484
C181	C	1.165221	1.139141	0.388621
C182	C	1.415221	1.389141	0.638621
C183	C	1.665221	1.639141	0.888621
C184	C	1.915221	1.889141	1.138621
C185	C	1.165278	1.069173	0.388686
C186	C	1.415278	1.319173	0.638686
C187	C	1.665278	1.569173	0.888686
C188	C	1.915278	1.819173	1.138686
C189	C	1.165069	0.303340	1.016660
C190	C	1.415069	0.553340	1.266660
C191	C	1.665069	0.803340	1.516660
C192	C	1.915069	1.053340	1.766660
C193	C	1.165077	0.303340	0.925351
C194	C	1.415077	0.553340	1.175351
C195	C	1.665077	0.803340	1.425351
C196	C	1.915077	1.053340	1.675351
C197	C	1.165087	0.303338	0.852575
C198	C	1.415087	0.553338	1.102575
C199	C	1.665087	0.803338	1.352575
C200	C	1.915087	1.053338	1.602575
C201	C	1.165093	0.303337	0.761261
C202	C	1.415093	0.553337	1.011261
C203	C	1.665093	0.803337	1.261261
C204	C	1.915093	1.053337	1.511261
C205	C	1.165078	0.303343	1.179063
C206	C	1.415078	0.553343	1.429063
C207	C	1.665078	0.803343	1.679063
C208	C	1.915078	1.053343	1.929063
C209	C	1.165070	0.303338	1.089442
C210	C	1.415070	0.553338	1.339442
C211	C	1.665070	0.803338	1.589442
C212	C	1.915070	1.053338	1.839442
H213	H	1.258638	0.542927	0.295064
H214	H	1.508638	0.792927	0.545064
H215	H	1.758638	1.042927	0.795064
H216	H	2.008638	1.292927	1.045064
H217	H	1.258703	0.662193	0.295104
H218	H	1.508703	0.912193	0.545104
H219	H	1.758703	1.162193	0.795104
H220	H	2.008703	1.412193	1.045104
C221	C	1.273588	0.934367	0.280462
C222	C	1.523588	1.184367	0.530462
C223	C	1.773588	1.434367	0.780462
C224	C	2.023588	1.684367	1.030462
N225	N	1.316342	0.907121	0.237776
N226	N	1.566342	1.157121	0.487776
N227	N	1.816342	1.407121	0.737776
N228	N	2.066342	1.657121	0.987776
H229	H	1.071456	0.662262	0.482030
H230	H	1.321456	0.912262	0.732030
H231	H	1.571456	1.162262	0.982030
H232	H	1.821456	1.412262	1.232030
C233	C	1.056856	0.934443	0.496851
C234	C	1.306856	1.184443	0.746851
C235	C	1.556856	1.434443	0.996851
C236	C	1.806856	1.684443	1.246851
N237	N	1.014108	0.907227	0.539553
N238	N	1.264108	1.157227	0.789553
N239	N	1.514108	1.407227	1.039553
N240	N	1.764108	1.657227	1.289553
H241	H	1.071398	0.542991	0.482007
H242	H	1.321398	0.792991	0.732007
H243	H	1.571398	1.042991	0.982007
H244	H	1.821398	1.292991	1.232007
C245	C	1.273651	1.072419	0.280500
C246	C	1.523651	1.322419	0.530500
C247	C	1.773651	1.572419	0.780500
C248	C	2.023651	1.822419	1.030500
N249	N	1.316419	1.099635	0.237817
N250	N	1.566419	1.349635	0.487817
N251	N	1.816419	1.599635	0.737817
N252	N	2.066419	1.849635	0.987817
C253	C	1.056903	1.072497	0.496870
C254	C	1.306903	1.322497	0.746870
C255	C	1.556903	1.572497	0.996870
C256	C	1.806903	1.822497	1.246870
N257	N	1.014160	1.099749	0.539560
N258	N	1.264160	1.349749	0.789560
N259	N	1.514160	1.599749	1.039560
N260	N	1.764160	1.849749	1.289560
