data_functionalizedCrystal
_audit_creation_method	'MofGen! by Chris Wilmer'
_symmetry_space_group_name_H-M	'P1'
_symmetry_Int_Tables_number	1
_symmetry_cell_setting	triclinic
loop_
_symmetry_equiv_pos_as_xyz
  x,y,z
_cell_length_a	14.908571
_cell_length_b	19.121063
_cell_length_c	14.908308
_cell_angle_alpha	95.554627
_cell_angle_beta	90.175053
_cell_angle_gamma	89.303906
loop_
_atom_site_label
_atom_site_type_symbol
_atom_site_fract_x
_atom_site_fract_y
_atom_site_fract_z
Zn1	Zn	1.324072	-0.366417	-0.606393
Zn2	Zn	1.657405	-0.033084	-0.273060
Zn3	Zn	1.990739	0.300250	0.060274
Zn4	Zn	1.326220	-0.477475	-0.461735
Zn5	Zn	1.659553	-0.144142	-0.128402
Zn6	Zn	1.992886	0.189191	0.204932
Zn7	Zn	1.183168	-0.352931	-0.446699
Zn8	Zn	1.516502	-0.019598	-0.113365
Zn9	Zn	1.849835	0.313736	0.219968
Zn10	Zn	1.167296	-0.476641	-0.603344
Zn11	Zn	1.500629	-0.143308	-0.270010
Zn12	Zn	1.833962	0.190026	0.063323
O13	O	1.250189	-0.418366	-0.529543
O14	O	1.583522	-0.085033	-0.196209
O15	O	1.916856	0.248301	0.137124
O16	O	1.449836	-0.387142	-0.594773
O17	O	1.783169	-0.053809	-0.261439
O18	O	2.116502	0.279524	0.071894
O19	O	1.314785	-0.455659	-0.333644
O20	O	1.648118	-0.122326	-0.000310
O21	O	1.981452	0.211007	0.333023
O22	O	1.207604	-0.256469	-0.462866
O23	O	1.540937	0.076865	-0.129532
O24	O	1.874270	0.410198	0.203801
O25	O	1.451414	-0.468736	-0.488493
O26	O	1.784747	-0.135403	-0.155160
O27	O	2.118080	0.197930	0.178174
O28	O	1.311125	-0.266377	-0.580193
O29	O	1.644458	0.066957	-0.246859
O30	O	1.977791	0.400290	0.086474
O31	O	1.209686	-0.364157	-0.322597
O32	O	1.543019	-0.030824	0.010737
O33	O	1.876353	0.302510	0.344070
O34	O	1.055584	-0.363348	-0.459909
O35	O	1.388917	-0.030015	-0.126576
O36	O	1.722251	0.303318	0.206758
O37	O	1.180551	-0.467315	-0.729845
O38	O	1.513884	-0.133981	-0.396511
O39	O	1.847218	0.199352	-0.063178
O40	O	1.043922	-0.454238	-0.574995
O41	O	1.377256	-0.120904	-0.241662
O42	O	1.710589	0.212429	0.091671
O43	O	1.295734	-0.386334	-0.732085
O44	O	1.629067	-0.053000	-0.398752
O45	O	1.962400	0.280333	-0.065418
O46	O	1.299394	-0.575616	-0.485536
O47	O	1.632727	-0.242283	-0.152203
O48	O	1.966061	0.091051	0.181131
O49	O	1.182633	-0.575003	-0.589576
O50	O	1.515967	-0.241670	-0.256242
O51	O	1.849300	0.091663	0.077091
C52	C	1.017218	-0.407239	-0.515490
C53	C	1.350551	-0.073906	-0.182157
C54	C	1.683885	0.259427	0.151177
C55	C	0.917550	-0.402497	-0.509501
C56	C	1.250883	-0.069164	-0.176167
C57	C	1.584216	0.264169	0.157166
C58	C	0.718169	-0.488362	-0.617938
C59	C	1.051502	-0.155029	-0.284605
C60	C	1.384835	0.178305	0.048729
C61	C	0.624521	-0.483909	-0.612314
C62	C	0.957854	-0.150575	-0.278980
C63	C	1.291188	0.182758	0.054353
C64	C	0.636605	-0.389134	-0.492633
C65	C	0.969938	-0.055801	-0.159299
C66	C	1.303272	0.277533	0.174034
C67	C	0.730253	-0.393588	-0.498257
C68	C	1.063586	-0.060254	-0.164924
C69	C	1.396919	0.273079	0.168410
C70	C	0.771031	-0.443204	-0.560911
C71	C	1.104364	-0.109871	-0.227577
C72	C	1.437698	0.223463	0.105756
C73	C	0.864680	-0.447660	-0.566530
C74	C	1.198014	-0.114327	-0.233197
C75	C	1.531347	0.219007	0.100136
C76	C	0.876762	-0.352883	-0.446854
C77	C	1.210096	-0.019549	-0.113521
C78	C	1.543429	0.313784	0.219812
C79	C	0.783115	-0.348429	-0.441230
C80	C	1.116448	-0.015096	-0.107897
C81	C	1.449781	0.318237	0.225437
C82	C	1.239548	-0.600787	-0.538878
C83	C	1.572881	-0.267454	-0.205544
C84	C	1.906214	0.065880	0.127789
C85	C	1.235075	-0.678833	-0.542906
C86	C	1.568409	-0.345499	-0.209573
C87	C	1.901742	-0.012166	0.123760
C88	C	1.293807	-0.715799	-0.490682
C89	C	1.627140	-0.382465	-0.157348
C90	C	1.960474	-0.049132	0.175985
C91	C	1.289606	-0.789131	-0.494476
C92	C	1.622939	-0.455798	-0.161143
C93	C	1.956273	-0.122465	0.172190
C94	C	1.226668	-0.825496	-0.550491
C95	C	1.560002	-0.492163	-0.217158
C96	C	1.893335	-0.158830	0.116175
C97	C	1.167934	-0.788525	-0.602722
C98	C	1.501267	-0.455192	-0.269389
C99	C	1.834600	-0.121859	0.063945
C100	C	1.172140	-0.715194	-0.598932
C101	C	1.505473	-0.381861	-0.265598
C102	C	1.838806	-0.048528	0.067735
C103	C	1.210929	-1.046893	-0.564648
C104	C	1.544263	-0.713560	-0.231314
C105	C	1.877596	-0.380227	0.102019
C106	C	1.206726	-1.120229	-0.568432
C107	C	1.540059	-0.786896	-0.235099
C108	C	1.873392	-0.453563	0.098235
C109	C	1.328400	-1.120830	-0.460187
C110	C	1.661733	-0.787497	-0.126854
C111	C	1.995066	-0.454164	0.206479
C112	C	1.332596	-1.047498	-0.456398
C113	C	1.665930	-0.714164	-0.123065
C114	C	1.999263	-0.380831	0.210269
C115	C	1.273865	-1.010533	-0.508632
C116	C	1.607199	-0.677200	-0.175299
C117	C	1.940532	-0.343867	0.158035
C118	C	1.222371	-0.900454	-0.554369
C119	C	1.555704	-0.567120	-0.221036
C120	C	1.889037	-0.233787	0.112297
C121	C	1.278168	-0.935578	-0.504758
C122	C	1.611501	-0.602244	-0.171425
C123	C	1.944834	-0.268911	0.161908
C124	C	1.484070	-0.429537	-0.543650
C125	C	1.817403	-0.096203	-0.210317
C126	C	2.150736	0.237130	0.123016
C127	C	1.583736	-0.434297	-0.549662
C128	C	1.917069	-0.100964	-0.216329
C129	C	2.250402	0.232370	0.117004
C130	C	1.236132	-0.428235	-0.764574
C131	C	1.569465	-0.094902	-0.431241
C132	C	1.902799	0.238431	-0.097908
C133	C	1.230142	-0.432441	-0.864731
C134	C	1.563475	-0.099108	-0.531398
C135	C	1.896809	0.234226	-0.198064
C136	C	1.260895	-0.235235	-0.520192
C137	C	1.594228	0.098098	-0.186859
C138	C	1.927562	0.431432	0.146475
C139	C	1.265458	-0.157195	-0.516207
C140	C	1.598791	0.176138	-0.182874
C141	C	1.932124	0.509471	0.150459
C142	C	1.338824	-0.356002	-1.055270
C143	C	1.672157	-0.022669	-0.721936
C144	C	2.005491	0.310665	-0.388603
C145	C	1.333199	-0.359951	-1.149376
C146	C	1.666532	-0.026618	-0.816042
C147	C	1.999865	0.306716	-0.482709
C148	C	1.213262	-0.444285	-1.147051
C149	C	1.546596	-0.110951	-0.813717
C150	C	1.879929	0.222382	-0.480384
C151	C	1.218888	-0.440335	-1.052945
C152	C	1.552221	-0.107002	-0.719611
C153	C	1.885554	0.226331	-0.386278
C154	C	1.281672	-0.396193	-1.007057
C155	C	1.615005	-0.062860	-0.673724
C156	C	1.948338	0.270473	-0.340391
C157	C	1.287301	-0.392248	-0.912950
C158	C	1.620634	-0.058915	-0.579617
C159	C	1.953967	0.274418	-0.246283
C160	C	1.167360	-0.476578	-0.910626
C161	C	1.500694	-0.143244	-0.577293
C162	C	1.834027	0.190089	-0.243960
C163	C	1.161735	-0.480527	-1.004732
C164	C	1.495068	-0.147194	-0.671399
C165	C	1.828402	0.186140	-0.338066
C166	C	1.264246	-0.408487	-0.295425
C167	C	1.597579	-0.075154	0.037908
C168	C	1.930912	0.258180	0.371241
C169	C	1.270421	-0.404092	-0.195270
C170	C	1.603754	-0.070759	0.138064
C171	C	1.937088	0.262575	0.471397
H172	H	1.345054	-0.686195	-0.445064
H173	H	1.678387	-0.352861	-0.111731
H174	H	2.011721	-0.019528	0.221602
Cl175	Cl	0.915944	-0.510035	-0.645292
Cl176	Cl	1.249277	-0.176702	-0.311958
Cl177	Cl	1.582610	0.156631	0.021375
H178	H	1.389949	-0.320063	-1.017908
H179	H	1.723283	0.013270	-0.684575
H180	H	2.056616	0.346603	-0.351241
Cl181	Cl	0.943224	-0.296115	-0.375151
Cl182	Cl	1.276557	0.037218	-0.041818
Cl183	Cl	1.609890	0.370552	0.291515
Cl184	Cl	0.585325	-0.326755	-0.413888
Cl185	Cl	0.918658	0.006578	-0.080555
Cl186	Cl	1.251991	0.339912	0.252778
H187	H	0.749900	-0.308032	-0.390222
H188	H	1.083233	0.025302	-0.056888
H189	H	1.416567	0.358635	0.276445
Cl190	Cl	1.363447	-0.835600	-0.428822
Cl191	Cl	1.696780	-0.502267	-0.095489
Cl192	Cl	2.030113	-0.168933	0.237844
H193	H	1.155484	-1.149837	-0.614063
H194	H	1.488817	-0.816503	-0.280729
H195	H	1.822151	-0.483170	0.052604
H196	H	1.338424	-0.356306	-0.875590
H197	H	1.671757	-0.022973	-0.542257
H198	H	2.005090	0.310360	-0.208924
H199	H	0.751371	-0.528765	-0.668948
H200	H	1.084704	-0.195432	-0.335615
H201	H	1.418038	0.137902	-0.002282
Cl202	Cl	1.411733	-1.001788	-0.385990
Cl203	Cl	1.745067	-0.668455	-0.052656
Cl204	Cl	2.078400	-0.335122	0.280677
H205	H	1.376216	-1.150935	-0.417663
H206	H	1.709550	-0.817601	-0.084329
H207	H	2.042883	-0.484268	0.249004
H208	H	0.581483	-0.520680	-0.658753
H209	H	0.914817	-0.187346	-0.325419
H210	H	1.248150	0.145987	0.007914
Cl211	Cl	1.357290	-0.889861	-0.434346
Cl212	Cl	1.690623	-0.556528	-0.101012
Cl213	Cl	2.023956	-0.223194	0.232321
Cl214	Cl	1.137093	-1.000434	-0.630312
Cl215	Cl	1.470427	-0.667100	-0.296979
Cl216	Cl	1.803760	-0.333767	0.036354
Cl217	Cl	1.088816	-0.834242	-0.673147
Cl218	Cl	1.422150	-0.500909	-0.339813
Cl219	Cl	1.755483	-0.167575	-0.006480
Cl220	Cl	1.098305	-0.668723	-0.664591
Cl221	Cl	1.431638	-0.335390	-0.331258
Cl222	Cl	1.764972	-0.002056	0.002075
H223	H	1.171125	-0.930070	-0.599975
H224	H	1.504458	-0.596737	-0.266642
H225	H	1.837791	-0.263403	0.066692
Cl226	Cl	1.134335	-0.499767	-1.204752
Cl227	Cl	1.467668	-0.166434	-0.871419
Cl228	Cl	1.801002	0.166899	-0.538085
H229	H	1.379736	-0.327221	-1.188626
H230	H	1.713069	0.006112	-0.855293
H231	H	2.046403	0.339446	-0.521960
Cl232	Cl	1.082811	-0.536016	-1.062428
Cl233	Cl	1.416144	-0.202683	-0.729094
Cl234	Cl	1.749477	0.130651	-0.395761
Cl235	Cl	1.095516	-0.527115	-0.850012
Cl236	Cl	1.428850	-0.193782	-0.516679
Cl237	Cl	1.762183	0.139552	-0.183346
