data_functionalizedCrystal
_audit_creation_method	'MofGen! by Chris Wilmer'
_symmetry_space_group_name_H-M	'P1'
_symmetry_Int_Tables_number	1
_symmetry_cell_setting	triclinic
loop_
_symmetry_equiv_pos_as_xyz
  x,y,z
_cell_length_a	17.077404
_cell_length_b	16.120444
_cell_length_c	17.077396
_cell_angle_alpha	87.130511
_cell_angle_beta	90.019501
_cell_angle_gamma	92.926816
loop_
_atom_site_label
_atom_site_type_symbol
_atom_site_fract_x
_atom_site_fract_y
_atom_site_fract_z
Zn1	Zn	1.184189	-0.331904	0.459677
Zn2	Zn	1.517522	0.001429	0.793010
Zn3	Zn	1.850855	0.334763	1.126344
Zn4	Zn	1.177431	-0.471328	0.335063
Zn5	Zn	1.510764	-0.137995	0.668396
Zn6	Zn	1.844097	0.195338	1.001729
Zn7	Zn	1.052919	-0.331933	0.328426
Zn8	Zn	1.386252	0.001400	0.661760
Zn9	Zn	1.719586	0.334734	0.995093
Zn10	Zn	1.046226	-0.471279	0.466284
Zn11	Zn	1.379559	-0.137946	0.799617
Zn12	Zn	1.712892	0.195388	1.132951
O13	O	1.115191	-0.401611	0.397363
O14	O	1.448524	-0.068278	0.730696
O15	O	1.781858	0.265056	1.064029
O16	O	1.293139	-0.350407	0.443159
O17	O	1.626472	-0.017074	0.776492
O18	O	1.959805	0.316259	1.109826
O19	O	1.160887	-0.452870	0.224337
O20	O	1.494220	-0.119537	0.557670
O21	O	1.827554	0.213796	0.891004
O22	O	1.075961	-0.215263	0.340295
O23	O	1.409295	0.118070	0.673628
O24	O	1.742628	0.451404	1.006961
O25	O	1.288174	-0.452842	0.351605
O26	O	1.621507	-0.119509	0.684939
O27	O	1.954840	0.213825	1.018272
O28	O	1.172405	-0.215241	0.436724
O29	O	1.505738	0.118092	0.770057
O30	O	1.839071	0.451425	1.103391
O31	O	1.069409	-0.350457	0.219461
O32	O	1.402742	-0.017124	0.552795
O33	O	1.736075	0.316210	0.886128
O34	O	0.942185	-0.350409	0.346701
O35	O	1.275518	-0.017076	0.680035
O36	O	1.608851	0.316257	1.013368
O37	O	1.064554	-0.452758	0.575253
O38	O	1.397887	-0.119424	0.908586
O39	O	1.731221	0.213909	1.241920
O40	O	0.937267	-0.452786	0.447984
O41	O	1.270601	-0.119453	0.781318
O42	O	1.603934	0.213881	1.114651
O43	O	1.165915	-0.350359	0.570399
O44	O	1.499248	-0.017026	0.903732
O45	O	1.832581	0.316307	1.237066
O46	O	1.154397	-0.587988	0.358012
O47	O	1.487730	-0.254655	0.691345
O48	O	1.821064	0.078679	1.024678
O49	O	1.058001	-0.587952	0.454419
O50	O	1.391334	-0.254618	0.787753
O51	O	1.724668	0.078715	1.121086
C52	C	0.911244	-0.401596	0.397340
C53	C	1.244577	-0.068263	0.730673
C54	C	1.577911	0.265071	1.064007
C55	C	0.823993	-0.401610	0.397350
C56	C	1.157327	-0.068276	0.730683
C57	C	1.490660	0.265057	1.064017
C58	C	0.780459	-0.454998	0.450012
C59	C	1.113793	-0.121664	0.783345
C60	C	1.447126	0.211669	1.116678
C61	C	0.698479	-0.454999	0.450024
C62	C	1.031812	-0.121666	0.783358
C63	C	1.365146	0.211667	1.116691
C64	C	0.660034	-0.401617	0.397371
C65	C	0.993367	-0.068283	0.730704
C66	C	1.326700	0.265050	1.064038
C67	C	0.703574	-0.348223	0.344707
C68	C	1.036907	-0.014890	0.678040
C69	C	1.370240	0.318444	1.011374
C70	C	0.785553	-0.348217	0.344699
C71	C	1.118886	-0.014884	0.678032
C72	C	1.452220	0.318449	1.011365
C73	C	0.532703	-0.348239	0.344727
C74	C	0.866036	-0.014906	0.678060
C75	C	1.199370	0.318427	1.011393
C76	C	0.450718	-0.348246	0.344734
C77	C	0.784051	-0.014912	0.678067
C78	C	1.117385	0.318421	1.011400
C79	C	0.445629	-0.455021	0.450052
C80	C	0.778962	-0.121688	0.783386
C81	C	1.112296	0.211646	1.116719
C82	C	0.527608	-0.455016	0.450044
C83	C	0.860941	-0.121682	0.783377
C84	C	1.194275	0.211651	1.116711
C85	C	0.571142	-0.401623	0.397379
C86	C	0.904476	-0.068289	0.730712
C87	C	1.237809	0.265044	1.064045
C88	C	1.104761	-0.618220	0.407670
C89	C	1.438094	-0.284887	0.741003
C90	C	1.771427	0.048446	1.074336
C91	C	1.100370	-0.710886	0.412105
C92	C	1.433704	-0.377553	0.745439
C93	C	1.767037	-0.044220	1.078772
C94	C	1.138158	-0.921827	0.374521
C95	C	1.471492	-0.588494	0.707854
C96	C	1.804825	-0.255161	1.041188
C97	C	1.092369	-0.880544	0.420212
C98	C	1.425703	-0.547210	0.753546
C99	C	1.759036	-0.213877	1.086879
C100	C	1.096822	-0.786138	0.415700
C101	C	1.430156	-0.452804	0.749034
C102	C	1.763489	-0.119471	1.082367
C103	C	1.133706	-1.016242	0.379032
C104	C	1.467039	-0.682909	0.712365
C105	C	1.800373	-0.349575	1.045699
C106	C	1.319935	-0.401627	0.397385
C107	C	1.653268	-0.068293	0.730719
C108	C	1.986601	0.265040	1.064052
C109	C	1.407184	-0.401634	0.397395
C110	C	1.740517	-0.068300	0.730729
C111	C	2.073851	0.265033	1.064062
C112	C	1.115241	-0.401550	0.602104
C113	C	1.448575	-0.068216	0.935437
C114	C	1.781908	0.265117	1.268771
C115	C	1.115263	-0.401523	0.689353
C116	C	1.448596	-0.068190	1.022686
C117	C	1.781930	0.265143	1.356019
C118	C	1.125684	-0.184156	0.387032
C119	C	1.459017	0.149177	0.720366
C120	C	1.792350	0.482511	1.053699
C121	C	1.130155	-0.091490	0.382630
C122	C	1.463488	0.241844	0.715963
C123	C	1.796821	0.575177	1.049297
C124	C	1.115189	-0.401612	0.193415
C125	C	1.448522	-0.068279	0.526748
C126	C	1.781856	0.265055	0.860081
C127	C	1.115331	-0.401403	0.106155
C128	C	1.448664	-0.068070	0.439489
C129	C	1.781997	0.265263	0.772822
C130	C	1.168043	-0.348200	0.727816
C131	C	1.501377	-0.014867	1.061150
C132	C	1.834710	0.318466	1.394483
C133	C	1.168054	-0.348173	0.809795
C134	C	1.501388	-0.014839	1.143129
C135	C	1.834721	0.318494	1.476462
C136	C	1.115288	-0.401473	0.853310
C137	C	1.448621	-0.068139	1.186643
C138	C	1.781954	0.265194	1.519976
C139	C	1.062501	-0.454798	0.814840
C140	C	1.395835	-0.121465	1.148174
C141	C	1.729168	0.211868	1.481507
C142	C	1.062488	-0.454821	0.732862
C143	C	1.395821	-0.121488	1.066196
C144	C	1.729154	0.211845	1.399529
C145	C	1.062535	-0.454748	0.985708
C146	C	1.395869	-0.121415	1.319041
C147	C	1.729202	0.211918	1.652375
C148	C	1.062550	-0.454727	1.067692
C149	C	1.395884	-0.121393	1.401025
C150	C	1.729217	0.211940	1.734358
C151	C	1.168102	-0.348099	1.062641
C152	C	1.501436	-0.014766	1.395974
C153	C	1.834769	0.318567	1.729308
C154	C	1.168088	-0.348122	0.980663
C155	C	1.501422	-0.014789	1.313997
C156	C	1.834755	0.318544	1.647330
C157	C	1.115303	-0.401449	0.942200
C158	C	1.448636	-0.068116	1.275533
C159	C	1.781970	0.265217	1.608866
H160	H	0.672265	-0.304754	0.301839
H161	H	1.005599	0.028579	0.635172
H162	H	1.338932	0.361912	0.968506
Cl163	Cl	1.203840	-0.866933	0.308896
Cl164	Cl	1.537173	-0.533600	0.642229
Cl165	Cl	1.870507	-0.200266	0.975563
Cl166	Cl	0.587431	-0.281115	0.278518
Cl167	Cl	0.920764	0.052218	0.611851
Cl168	Cl	1.254097	0.385551	0.945184
H169	H	0.811755	-0.498471	0.492886
H170	H	1.145089	-0.165137	0.826219
H171	H	1.478422	0.168196	1.159552
Cl172	Cl	1.234429	-0.281120	0.925961
Cl173	Cl	1.567762	0.052213	1.259294
Cl174	Cl	1.901096	0.385546	1.592627
H175	H	1.019540	-0.498160	0.954393
H176	H	1.352874	-0.164826	1.287726
H177	H	1.686207	0.168507	1.621060
Cl178	Cl	0.575938	-0.522132	0.516233
Cl179	Cl	0.909271	-0.188799	0.849566
Cl180	Cl	1.242605	0.144535	1.182899
Cl181	Cl	0.840282	-0.281096	0.278495
Cl182	Cl	1.173615	0.052237	0.611828
Cl183	Cl	1.506949	0.385570	0.945161
Cl184	Cl	1.234386	-0.281194	0.673121
Cl185	Cl	1.567720	0.052139	1.006454
Cl186	Cl	1.901053	0.385472	1.339787
Cl187	Cl	1.234443	-0.281171	0.858148
Cl188	Cl	1.567776	0.052162	1.191481
Cl189	Cl	1.901110	0.385495	1.524815
Cl190	Cl	1.234462	-0.281061	1.110995
Cl191	Cl	1.567795	0.052272	1.444328
Cl192	Cl	1.901129	0.385606	1.777661
Cl193	Cl	0.643754	-0.522119	0.516231
Cl194	Cl	0.977087	-0.188786	0.849564
Cl195	Cl	1.310420	0.144548	1.182897
H196	H	0.410179	-0.498493	0.492936
H197	H	0.743513	-0.165160	0.826270
H198	H	1.076846	0.168173	1.159603
H199	H	1.019581	-0.498127	1.103119
H200	H	1.352915	-0.164793	1.436452
H201	H	1.686248	0.168540	1.769786
H202	H	1.049823	-0.916100	0.462718
H203	H	1.383157	-0.582767	0.796052
H204	H	1.716490	-0.249434	1.129385
Cl205	Cl	0.996163	-0.521802	0.869544
Cl206	Cl	1.329496	-0.188469	1.202877
Cl207	Cl	1.662830	0.144865	1.536211
H208	H	0.419419	-0.304767	0.301868
H209	H	0.752752	0.028567	0.635201
H210	H	1.086085	0.361900	0.968534
H211	H	1.019501	-0.498234	0.701546
H212	H	1.352834	-0.164901	1.034879
H213	H	1.686167	0.168433	1.368213
