data_functionalizedCrystal
_audit_creation_method	'MofGen! by Chris Wilmer'
_symmetry_space_group_name_H-M	'P1'
_symmetry_Int_Tables_number	1
_symmetry_cell_setting	triclinic
loop_
_symmetry_equiv_pos_as_xyz
  x,y,z
_cell_length_a	12.837943
_cell_length_b	10.654554
_cell_length_c	9.730223
_cell_angle_alpha	90.002343
_cell_angle_beta	89.999322
_cell_angle_gamma	90.342158
loop_
_atom_site_label
_atom_site_type_symbol
_atom_site_fract_x
_atom_site_fract_y
_atom_site_fract_z
O1	O	-1.377801	0.326745	-0.114243
O2	O	-1.075879	0.310604	-0.114252
O3	O	-1.233780	0.136693	-0.114251
O4	O	-1.219901	0.500656	-0.114244
O5	O	-1.233778	0.136697	0.114329
O6	O	-1.075878	0.310608	0.114328
O7	O	-1.377799	0.326749	0.114337
Zn8	Zn	-1.226838	0.318680	0.150624
Zn9	Zn	-1.226841	0.318673	-0.150539
O10	O	-1.219899	0.500660	0.114336
C11	C	-1.037219	0.305153	0.000037
C12	C	-0.922024	0.288891	0.000033
C13	C	-1.232759	0.089786	0.000035
C14	C	-1.229707	-0.049990	0.000023
C15	C	-1.416460	0.332200	0.000045
C16	C	-1.531654	0.348462	0.000040
C17	C	-0.682474	0.484395	0.000056
C18	C	-0.574238	0.469121	0.000053
C19	C	-0.597315	0.243070	0.000034
C20	C	-0.705551	0.258344	0.000037
C21	C	-0.748126	0.379010	0.000046
C22	C	-0.856364	0.394283	0.000039
C23	C	-0.879438	0.168233	0.000029
C24	C	-0.771203	0.152959	0.000027
C25	C	-1.220920	0.547567	0.000047
C26	C	-1.223972	0.687343	0.000050
N27	N	-1.226844	0.318684	0.356161
C28	C	-1.133867	0.888019	0.000023
C29	C	-1.130998	0.756685	0.000041
C30	C	-1.319820	0.749343	0.000054
C31	C	-1.322687	0.880675	0.000046
C32	C	-1.024852	0.892257	0.000010
C33	C	-1.021984	0.760922	0.000028
N34	N	-1.226843	0.318660	-0.356076
C35	C	-1.296781	0.241707	0.428087
C36	C	-1.296778	0.241691	0.571970
C37	C	-1.156899	0.395640	0.571988
C38	C	-1.156898	0.395648	0.428107
C39	C	-1.377542	0.152829	0.428079
C40	C	-1.377539	0.152814	0.571962
H41	H	-0.717140	0.582647	0.000061
N42	N	-1.420101	0.674560	0.000086
H43	H	-1.403744	0.581955	0.000097
H44	H	-1.461835	0.695900	-0.084649
N45	N	-0.970439	0.941649	0.126703
H46	H	-0.944094	0.868962	0.183253
H47	H	-1.021034	0.992403	0.183138
H48	H	-0.932905	0.082421	0.000012
H49	H	-0.979346	0.726897	-0.095625
N50	N	-0.975995	0.708722	0.130764
H51	H	-0.902310	0.740845	0.142009
H52	H	-0.975638	0.614037	0.125928
H53	H	-0.991919	0.934298	-0.098690
H54	H	-0.520788	0.554937	0.000065
N55	N	-1.081449	0.478648	0.350526
H56	H	-1.037140	0.527399	0.417940
H57	H	-1.121548	0.539009	0.290829
N58	N	-0.725275	0.022820	0.000000
H59	H	-0.783292	-0.041624	-0.000011
H60	H	-0.680871	0.011548	0.084735
H61	H	-1.452869	0.191638	0.383455
N62	N	-1.426053	0.947548	0.000046
H63	H	-1.431444	1.001882	0.084778
H64	H	-1.484459	0.883623	0.000004
N65	N	-1.344182	0.028332	0.631074
H66	H	-1.328064	-0.031805	0.553809
H67	H	-1.402236	-0.007362	0.689510
N68	N	-1.081457	0.478645	0.649587
H69	H	-1.092066	0.466958	0.751650
H70	H	-1.094075	0.569258	0.624453
H71	H	-1.457267	0.183032	0.611015
N72	N	-0.902281	0.524428	0.000040
H73	H	-0.878401	0.571177	0.084781
H74	H	-0.980803	0.518017	-0.000017
N75	N	-0.551385	0.112932	0.000064
H76	H	-0.472856	0.119253	0.000077
H77	H	-0.575329	0.066228	-0.084670
N78	N	-1.354080	0.022406	0.376331
H79	H	-1.283453	-0.004434	0.410889
H80	H	-1.354133	0.022456	0.272535
