data_functionalizedCrystal
_audit_creation_method	'MofGen! by Chris Wilmer'
_symmetry_space_group_name_H-M	'P1'
_symmetry_Int_Tables_number	1
_symmetry_cell_setting	triclinic
loop_
_symmetry_equiv_pos_as_xyz
  x,y,z
_cell_length_a	12.759401
_cell_length_b	13.897448
_cell_length_c	12.759393
_cell_angle_alpha	90.030963
_cell_angle_beta	89.982549
_cell_angle_gamma	89.981387
loop_
_atom_site_label
_atom_site_type_symbol
_atom_site_fract_x
_atom_site_fract_y
_atom_site_fract_z
Zn1	Zn	1.606208	0.383981	-0.593989
Zn2	Zn	1.939542	0.717314	-0.260656
Zn3	Zn	2.272875	1.050647	0.072677
Zn4	Zn	1.606091	0.545311	-0.418312
Zn5	Zn	1.939424	0.878644	-0.084978
Zn6	Zn	2.272758	1.211977	0.248355
Zn7	Zn	1.430514	0.384029	-0.418328
Zn8	Zn	1.763847	0.717362	-0.084995
Zn9	Zn	2.097180	1.050695	0.248338
Zn10	Zn	1.430484	0.545233	-0.593953
Zn11	Zn	1.763817	0.878566	-0.260620
Zn12	Zn	2.097151	1.211899	0.072714
O13	O	1.518324	0.464638	-0.506146
O14	O	1.851658	0.797971	-0.172812
O15	O	2.184991	1.131305	0.160521
O16	O	1.753214	0.405394	-0.570693
O17	O	2.086547	0.738727	-0.237360
O18	O	2.419880	1.072061	0.095973
O19	O	1.582764	0.523969	-0.271293
O20	O	1.916097	0.857302	0.062040
O21	O	2.249430	1.190636	0.395374
O22	O	1.453881	0.249041	-0.441652
O23	O	1.787215	0.582374	-0.108319
O24	O	2.120548	0.915707	0.225014
O25	O	1.753128	0.523922	-0.441624
O26	O	2.086461	0.857256	-0.108291
O27	O	2.419794	1.190589	0.225043
O28	O	1.582963	0.249005	-0.570709
O29	O	1.916297	0.582339	-0.237376
O30	O	2.249630	0.915672	0.095957
O31	O	1.453768	0.405476	-0.271305
O32	O	1.787101	0.738809	0.062028
O33	O	2.120434	1.072142	0.395362
O34	O	1.283489	0.405400	-0.441617
O35	O	1.616822	0.738733	-0.108284
O36	O	1.950155	1.072067	0.225049
O37	O	1.453831	0.523790	-0.740979
O38	O	1.787164	0.857123	-0.407646
O39	O	2.120497	1.190456	-0.074312
O40	O	1.283467	0.523836	-0.570648
O41	O	1.616800	0.857169	-0.237315
O42	O	1.950134	1.190503	0.096019
O43	O	1.582935	0.405318	-0.741006
O44	O	1.916268	0.738652	-0.407672
O45	O	2.249601	1.071985	-0.074339
O46	O	1.582735	0.680282	-0.441589
O47	O	1.916068	1.013615	-0.108256
O48	O	2.249402	1.346949	0.225078
O49	O	1.453717	0.680225	-0.570632
O50	O	1.787050	1.013558	-0.237298
O51	O	2.120384	1.346891	0.096035
C52	C	1.245357	0.464616	-0.506131
C53	C	1.578690	0.797949	-0.172798
C54	C	1.912024	1.131282	0.160536
C55	C	1.128580	0.464629	-0.506150
C56	C	1.461914	0.797962	-0.172816
C57	C	1.795247	1.131296	0.160517
C58	C	1.073756	0.403028	-0.573460
C59	C	1.407089	0.736361	-0.240127
C60	C	1.740423	1.069694	0.093206
C61	C	0.964032	0.403046	-0.573467
C62	C	1.297365	0.736380	-0.240134
C63	C	1.630699	1.069713	0.093200
C64	C	0.963966	0.526276	-0.438849
C65	C	1.297299	0.859609	-0.105516
C66	C	1.630633	1.192942	0.227817
C67	C	1.073688	0.526252	-0.438838
C68	C	1.407021	0.859585	-0.105505
C69	C	1.740355	1.192918	0.227828
C70	C	1.073793	0.331885	-0.651184
C71	C	1.407127	0.665218	-0.317851
C72	C	1.740460	0.998552	0.015483
C73	C	0.964069	0.331904	-0.651191
C74	C	1.297403	0.665237	-0.317857
C75	C	1.630736	0.998570	0.015476
C76	C	1.518239	0.715253	-0.506128
C77	C	1.851572	1.048586	-0.172794
C78	C	2.184905	1.381919	0.160539
C79	C	1.518298	0.822466	-0.506155
C80	C	1.851631	1.155800	-0.172822
C81	C	2.184965	1.489133	0.160512
C82	C	1.518401	1.018761	-0.506230
C83	C	1.851735	1.352095	-0.172897
C84	C	2.185068	1.685428	0.160436
C85	C	1.518341	0.909529	-0.506192
C86	C	1.851674	1.242862	-0.172858
C87	C	2.185008	1.576196	0.160475
C88	C	1.792357	0.464662	-0.506161
C89	C	2.125691	0.797995	-0.172828
C90	C	2.459024	1.131328	0.160506
C91	C	1.909134	0.464672	-0.506167
C92	C	2.242467	0.798005	-0.172834
C93	C	2.575801	1.131338	0.160499
C94	C	1.518392	0.464540	-0.780179
C95	C	1.851726	0.797873	-0.446846
C96	C	2.185059	1.131207	-0.113512
C97	C	1.518422	0.464498	-0.896956
C98	C	1.851755	0.797831	-0.563622
C99	C	2.185088	1.131165	-0.230289
C100	C	1.518430	1.213045	-0.506199
C101	C	1.851763	1.546379	-0.172866
C102	C	2.185097	1.879712	0.160468
C103	C	1.518452	1.105831	-0.506253
C104	C	1.851785	1.439165	-0.172920
C105	C	2.185119	1.772498	0.160413
C106	C	1.451282	0.402787	-0.951830
C107	C	1.784615	0.736121	-0.618497
C108	C	2.117948	1.069454	-0.285164
C109	C	1.451314	0.402759	-1.061554
C110	C	1.784647	0.736092	-0.728221
C111	C	2.117980	1.069425	-0.394888
C112	C	1.585634	0.526154	-1.061520
C113	C	1.918967	0.859488	-0.728187
C114	C	2.252301	1.192821	-0.394853
C115	C	1.585596	0.526187	-0.951798
C116	C	1.918929	0.859520	-0.618465
C117	C	2.252263	1.192854	-0.285131
C118	C	1.373736	0.331543	-0.951851
C119	C	1.707069	0.664876	-0.618518
C120	C	2.040403	0.998209	-0.285184
C121	C	1.373768	0.331514	-1.061575
C122	C	1.707101	0.664847	-0.728242
C123	C	2.040435	0.998181	-0.394908
C124	C	1.518317	0.464666	-0.233178
C125	C	1.851650	0.798000	0.100155
C126	C	2.184983	1.131333	0.433488
C127	C	1.518491	0.464437	-0.116402
C128	C	1.851825	0.797770	0.216931
C129	C	2.185158	1.131103	0.550265
H130	H	0.919259	0.576447	-0.384047
H131	H	1.252593	0.909780	-0.050714
H132	H	1.585926	1.243113	0.282620
H133	H	0.930035	0.260908	-0.622190
H134	H	1.263368	0.594242	-0.288857
H135	H	1.596702	0.927575	0.044477
H136	H	1.103567	0.257148	-0.629529
H137	H	1.436901	0.590481	-0.296196
H138	H	1.770234	0.923815	0.037138
H139	H	1.640326	0.576378	-1.106186
H140	H	1.973659	0.909712	-0.772852
H141	H	2.306992	1.243045	-0.439519
H142	H	1.292345	0.351546	-0.922074
H143	H	1.625678	0.684880	-0.588740
H144	H	1.959012	1.018213	-0.255407
H145	H	1.395592	0.256797	-1.091371
H146	H	1.728925	0.590130	-0.758038
H147	H	2.062259	0.923463	-0.424705
H148	H	0.934321	0.352005	-0.732527
H149	H	1.267654	0.685339	-0.399193
H150	H	1.600987	1.018672	-0.065860
Cl151	Cl	1.418773	0.222005	-0.899322
Cl152	Cl	1.752106	0.555338	-0.565989
Cl153	Cl	2.085439	0.888671	-0.232656
Cl154	Cl	1.669991	0.603781	-0.882816
Cl155	Cl	2.003324	0.937114	-0.549483
Cl156	Cl	2.336658	1.270448	-0.216149
Cl157	Cl	1.142607	0.603668	-0.354185
Cl158	Cl	1.475940	0.937001	-0.020852
Cl159	Cl	1.809273	1.270335	0.312482
H160	H	1.107855	0.358723	-0.728422
H161	H	1.441188	0.692057	-0.395089
H162	H	1.774521	1.025390	-0.061756
Cl163	Cl	1.254435	0.372815	-1.114118
Cl164	Cl	1.587769	0.706148	-0.780785
Cl165	Cl	1.921102	1.039481	-0.447452
