data_functionalizedCrystal
_audit_creation_method	'MofGen! by Chris Wilmer'
_symmetry_space_group_name_H-M	'P1'
_symmetry_Int_Tables_number	1
_symmetry_cell_setting	triclinic
loop_
_symmetry_equiv_pos_as_xyz
  x,y,z
_cell_length_a	17.699092
_cell_length_b	14.971486
_cell_length_c	13.448316
_cell_angle_alpha	90.001801
_cell_angle_beta	89.995078
_cell_angle_gamma	96.549752
loop_
_atom_site_label
_atom_site_type_symbol
_atom_site_fract_x
_atom_site_fract_y
_atom_site_fract_z
O1	O	0.098633	-1.186612	-0.082574
O2	O	0.110444	-0.926171	-0.082600
O3	O	-0.005632	-1.063746	-0.082584
O4	O	0.214709	-1.049037	-0.082590
O5	O	-0.005639	-1.063729	0.082800
O6	O	0.110437	-0.926154	0.082783
O7	O	0.098626	-1.186595	0.082810
Cu8	Cu	0.104531	-1.056373	0.097898
Cu9	Cu	0.104539	-1.056393	-0.097688
O10	O	0.214702	-1.049020	0.082794
C11	C	0.109913	-0.892840	0.000088
C12	C	0.108330	-0.793548	0.000078
C13	C	-0.033834	-1.063209	0.000106
C14	C	-0.117855	-1.061624	0.000102
C15	C	0.099158	-1.219926	0.000119
C16	C	0.100741	-1.319218	0.000123
C17	C	-0.157321	-1.060891	-0.090050
C18	C	-0.236267	-1.059396	-0.090052
C19	C	-0.275748	-1.058641	0.000100
C20	C	-0.236277	-1.059371	0.090259
C21	C	-0.157331	-1.060860	0.090259
C22	C	-0.554657	-1.053367	0.090260
C23	C	-0.633608	-1.051881	0.090252
C24	C	-0.633593	-1.051904	-0.090051
C25	C	-0.554647	-1.053392	-0.090051
C26	C	-0.515182	-1.054118	0.000107
C27	C	-0.429579	-1.055737	0.000108
C28	C	-0.361350	-1.057028	0.000101
C29	C	0.242904	-1.049557	0.000101
C30	C	0.326926	-1.051142	0.000099
N31	N	0.104524	-1.056365	0.235462
C32	C	0.176521	-0.736091	0.000077
C33	C	0.175030	-0.642797	0.000092
C34	C	0.105345	-0.606961	0.000101
C35	C	0.037148	-0.664426	0.000104
C36	C	0.038641	-0.757719	0.000096
C37	C	0.034042	-0.469974	0.000118
C38	C	0.032549	-0.376675	0.000124
C39	C	0.170431	-0.355052	0.000114
C40	C	0.171923	-0.448345	0.000106
C41	C	0.103726	-0.505803	0.000108
N42	N	0.104540	-1.056408	-0.235252
C43	C	0.053147	-1.117302	0.287510
C44	C	0.053146	-1.117307	0.391613
C45	C	0.104527	-1.056380	0.443667
C46	C	0.155907	-0.995437	0.391612
C47	C	0.155904	-0.995427	0.287510
C48	C	0.155912	-0.995461	0.608592
C49	C	0.155917	-0.995471	0.712700
C50	C	0.053155	-1.117341	0.712694
C51	C	0.053151	-1.117332	0.608593
C52	C	0.104533	-1.056390	0.556545
H53	H	-0.268397	-1.058803	-0.163462
H54	H	-0.665751	-1.051264	0.163669
O55	O	0.205720	-0.936175	0.557988
C56	C	0.221664	-0.814016	0.440424
C57	C	0.165172	-0.881086	0.497688
H58	H	0.188903	-0.769472	0.391642
H59	H	0.258380	-0.770408	0.495464
H60	H	0.259539	-0.852564	0.391719
H61	H	0.127247	-0.842611	0.546394
H62	H	0.128509	-0.924693	0.442594
O63	O	0.241293	-0.587023	-0.000089
C64	C	0.358705	-0.540036	-0.085751
C65	C	0.283677	-0.603234	-0.085683
H66	H	0.393000	-0.553134	-0.154936
H67	H	0.345720	-0.467183	-0.085803
H68	H	0.392962	-0.553050	-0.016514
H69	H	0.249383	-0.590301	-0.154909
H70	H	0.296715	-0.676067	-0.085579
O71	O	-0.516452	-1.054138	0.177924
C72	C	-0.524805	-1.053960	0.356767
C73	C	-0.568171	-1.053091	0.257554
H74	H	-0.566599	-1.053095	0.421173
H75	H	-0.494745	-1.117251	0.361331
H76	H	-0.480950	-0.992108	0.361240
H77	H	-0.612062	-1.114900	0.253013
H78	H	-0.598178	-0.989760	0.253032
O79	O	-0.516409	-1.054083	-0.177713
C80	C	-0.524733	-1.053994	-0.356557
C81	C	-0.568128	-1.053193	-0.257350
H82	H	-0.566531	-1.053294	-0.420969
H83	H	-0.480923	-0.992104	-0.361136
H84	H	-0.494618	-1.117248	-0.361004
H85	H	-0.598289	-0.989981	-0.252836
H86	H	-0.611895	-1.115126	-0.252813
O87	O	0.205845	-0.936189	0.763113
C88	C	0.307777	-0.815315	0.752140
C89	C	0.251267	-0.882396	0.694924
H90	H	0.344525	-0.771819	0.697034
H91	H	0.275060	-0.770663	0.800858
H92	H	0.345616	-0.853854	0.800897
H93	H	0.213414	-0.843930	0.646112
H94	H	0.284031	-0.927048	0.646268
O95	O	-0.274747	-1.058679	0.177744
C96	C	-0.396367	-1.056337	0.257657
C97	C	-0.352898	-1.057134	0.158507
H98	H	-0.459557	-1.055069	0.242138
H99	H	-0.387771	-1.119211	0.302131
H100	H	-0.373938	-0.994069	0.302112
H101	H	-0.375299	-1.119360	0.113972
H102	H	-0.361493	-0.994218	0.114108
H103	H	0.233266	-0.765260	0.000070
O104	O	-0.027550	-0.813627	-0.000040
C105	C	-0.105902	-0.931472	-0.085752
C106	C	-0.030903	-0.868222	-0.085715
H107	H	-0.108645	-0.975615	-0.155024
H108	H	-0.108662	-0.975753	-0.016588
H109	H	-0.155953	-0.889818	-0.085698
H110	H	0.019189	-0.909804	-0.085804
H111	H	-0.028211	-0.823938	-0.154873
H112	H	0.197740	-0.945824	0.434000
O113	O	0.205918	-0.936324	0.236992
C114	C	0.337447	-0.883582	0.205166
C115	C	0.280892	-0.950585	0.262420
H116	H	0.398075	-0.895075	0.225719
H117	H	0.328684	-0.894037	0.121809
H118	H	0.327444	-0.811977	0.225636
H119	H	0.290860	-1.022216	0.242033
H120	H	0.289668	-0.940051	0.345762
H121	H	0.011319	-1.166962	0.755078
H122	H	-0.125198	-1.061444	0.163670
H123	H	0.228666	-0.477518	0.000090
H124	H	0.225959	-0.308265	0.000117
H125	H	-0.125182	-1.061511	-0.163462
O126	O	0.003165	-1.176385	0.442211
C127	C	-0.100149	-1.195685	0.559792
C128	C	-0.043597	-1.128678	0.502539
H129	H	-0.137960	-1.157141	0.608596
H130	H	-0.136921	-1.239219	0.504744
H131	H	-0.067391	-1.240313	0.608473
H132	H	-0.076293	-1.083992	0.453856
H133	H	-0.006825	-1.085207	0.557640
H134	H	0.011317	-1.166948	0.566211
O135	O	-0.035207	-0.342012	0.000178
C136	C	-0.171810	-0.373298	0.000133
C137	C	-0.095130	-0.412674	0.000098
H138	H	-0.220277	-0.430409	0.000047
H139	H	-0.176004	-0.330192	0.069363
H140	H	-0.175911	-0.330131	-0.069063
H141	H	-0.090977	-0.455881	0.069247
H142	H	-0.090968	-0.455729	-0.069178
O143	O	-0.032154	-0.525882	-0.000016
C144	C	-0.110499	-0.643724	-0.085741
C145	C	-0.035501	-0.580473	-0.085694
H146	H	-0.113238	-0.687864	-0.155015
H147	H	-0.113262	-0.688009	-0.016580
H148	H	-0.160551	-0.602072	-0.085690
H149	H	0.014592	-0.622055	-0.085780
H150	H	-0.032805	-0.536186	-0.154849
H151	H	-0.665734	-1.051308	-0.163462
O152	O	-0.030564	-0.629663	0.000286
C153	C	-0.148892	-0.619653	0.085937
C154	C	-0.072226	-0.659060	0.085871
H155	H	-0.182605	-0.643420	0.155114
H156	H	-0.138294	-0.543100	0.086001
H157	H	-0.182558	-0.643314	0.016692
H158	H	-0.038521	-0.635467	0.155104
H159	H	-0.082879	-0.735608	0.085755
H160	H	0.011310	-1.166920	0.245134
