data_functionalizedCrystal
_audit_creation_method	'MofGen! by Chris Wilmer'
_symmetry_space_group_name_H-M	'P1'
_symmetry_Int_Tables_number	1
_symmetry_cell_setting	triclinic
loop_
_symmetry_equiv_pos_as_xyz
  x,y,z
_cell_length_a	14.519709
_cell_length_b	14.519709
_cell_length_c	9.730217
_cell_angle_alpha	89.995799
_cell_angle_beta	90.004205
_cell_angle_gamma	83.680145
loop_
_atom_site_label
_atom_site_type_symbol
_atom_site_fract_x
_atom_site_fract_y
_atom_site_fract_z
O1	O	1.223864	0.120890	-0.114114
O2	O	0.955387	0.135126	-0.114156
O3	O	1.096743	-0.006231	-0.114122
O4	O	1.082507	0.262246	-0.114149
O5	O	1.096739	-0.006232	0.114458
O6	O	0.955382	0.135125	0.114424
O7	O	1.223859	0.120888	0.114466
Zn8	Zn	1.089620	0.128006	0.150737
Zn9	Zn	1.089626	0.128008	-0.150427
O10	O	1.082502	0.262245	0.114431
C11	C	0.921025	0.134462	0.000128
C12	C	0.818643	0.132474	0.000113
C13	C	1.096078	-0.040591	0.000168
C14	C	1.094090	-0.142972	0.000169
C15	C	0.443748	0.125154	0.000176
C16	C	0.548056	0.127187	0.000158
C17	C	0.631192	0.128814	0.000143
C18	C	0.735507	0.130847	0.000127
C19	C	1.086770	-0.517868	0.000132
C20	C	1.088803	-0.413560	0.000143
C21	C	1.090430	-0.330423	0.000152
C22	C	1.092463	-0.226109	0.000160
C23	C	1.258221	0.121553	0.000178
C24	C	1.360602	0.123541	0.000185
C25	C	1.083168	0.296606	0.000138
C26	C	1.085156	0.398987	0.000129
N27	N	1.089623	0.128005	0.356273
N28	N	1.089630	0.128003	-0.355964
C29	C	1.214845	0.002869	0.356295
C30	C	1.277463	-0.059695	0.428245
C31	C	1.277472	-0.059696	0.572125
C32	C	1.214855	0.002873	0.644058
C33	C	1.152238	0.065438	0.572107
C34	C	1.152237	0.065434	0.428224
C35	C	1.027013	0.190567	0.572086
C36	C	1.027006	0.190574	0.428206
C37	C	0.964396	0.253137	0.644018
C38	C	0.901782	0.315708	0.572068
C39	C	0.901776	0.315706	0.428179
C40	C	0.964389	0.253139	0.356255
H41	H	1.328443	-0.110641	0.369665
N42	N	0.837813	0.379605	0.354666
N43	N	0.780527	0.350209	0.274379
H44	H	0.735351	0.395338	0.222462
N45	N	1.214842	0.002876	0.791026
N46	N	1.158930	0.058738	0.855234
H47	H	1.158915	0.058738	0.959033
H48	H	0.964403	0.253130	0.761173
H49	H	1.328457	-0.110645	0.630707
H50	H	1.214852	0.002871	0.239140
N51	N	0.837826	0.379600	0.645564
N52	N	0.837836	0.379582	0.774027
H53	H	0.792666	0.424706	0.825941
N54	N	0.964415	0.253144	0.209287
N55	N	1.020335	0.197286	0.145085
H56	H	1.020361	0.197290	0.041286
