data_functionalizedCrystal
_audit_creation_method	'MofGen! by Chris Wilmer'
_symmetry_space_group_name_H-M	'P1'
_symmetry_Int_Tables_number	1
_symmetry_cell_setting	triclinic
loop_
_symmetry_equiv_pos_as_xyz
  x,y,z
_cell_length_a	6.817900
_cell_length_b	11.102216
_cell_length_c	10.773894
_cell_angle_alpha	95.424658
_cell_angle_beta	96.645922
_cell_angle_gamma	108.604437
loop_
_atom_site_label
_atom_site_type_symbol
_atom_site_fract_x
_atom_site_fract_y
_atom_site_fract_z
V1	V	-3.974355	-0.171169	-0.388949
O2	O	-3.936005	0.013031	-0.381540
O3	O	-3.952065	-0.344022	-0.386295
O4	O	-3.891312	-0.166428	-0.558581
O5	O	-3.997178	-0.165793	-0.208061
V6	V	-4.459089	-0.149386	-0.367313
O7	O	-4.232958	-0.218953	-0.436411
O8	O	-4.650684	-0.101603	-0.319852
O9	O	-4.258172	0.023467	-0.369968
O10	O	-4.614837	-0.333587	-0.374723
O11	O	-4.553663	-0.154763	-0.548202
O12	O	-4.318926	-0.154128	-0.197681
C13	C	-3.804539	-0.386226	-0.380160
C14	C	-3.867370	-0.527522	-0.379120
C15	C	-3.727041	-0.159685	-0.599927
C16	C	-3.740600	-0.156952	-0.738602
C17	C	-3.975809	-0.743452	-0.491880
C18	C	-3.916777	-0.610691	-0.492867
C19	C	-3.877017	-0.577120	-0.264379
C20	C	-3.936063	-0.709879	-0.263393
C21	C	-3.998755	-0.762833	-0.623795
C22	C	-3.939723	-0.630072	-0.624783
C23	C	-3.919391	-0.161689	-0.806465
C24	C	-3.933409	-0.158864	-0.949793
C25	C	-4.069043	0.065664	-0.376099
C26	C	-3.985448	0.206958	-0.377147
C27	C	-4.146541	-0.160875	-0.156329
C28	C	-4.112219	-0.163601	-0.017653
H29	H	-3.943935	-0.750249	-0.169968
Cl30	Cl	-3.815674	-0.827886	-0.678883
Cl31	Cl	-4.252604	-0.837531	-0.708958
Cl32	Cl	-3.814953	-0.472565	-0.121383
Cl33	Cl	-3.520279	-0.147452	-0.812714
H34	H	-4.072552	-0.599976	-0.670965
Cl35	Cl	-3.713074	-0.149364	-1.023899
Cl36	Cl	-3.713087	-0.578346	-0.696009
H37	H	-4.062077	-0.167826	-0.758453
Cl38	Cl	-4.332541	-0.173066	-0.943544
