data_functionalizedCrystal
_audit_creation_method	'MofGen! by Chris Wilmer'
_symmetry_space_group_name_H-M	'P1'
_symmetry_Int_Tables_number	1
_symmetry_cell_setting	triclinic
loop_
_symmetry_equiv_pos_as_xyz
  x,y,z
_cell_length_a	17.699083
_cell_length_b	10.723024
_cell_length_c	16.776229
_cell_angle_alpha	89.994545
_cell_angle_beta	89.998886
_cell_angle_gamma	83.875442
loop_
_atom_site_label
_atom_site_type_symbol
_atom_site_fract_x
_atom_site_fract_y
_atom_site_fract_z
O1	O	1.005074	0.157797	-0.066174
O2	O	0.784825	0.178327	-0.066200
O3	O	0.900030	-0.013601	-0.066184
O4	O	0.889869	0.349725	-0.066191
O5	O	0.900014	-0.013613	0.066393
O6	O	0.784809	0.178315	0.066376
O7	O	1.005058	0.157785	0.066402
Zn8	Zn	0.894931	0.168048	0.087439
Zn9	Zn	0.894952	0.168064	-0.087237
O10	O	0.889854	0.349713	0.066386
C11	C	0.756616	0.177585	0.000085
C12	C	0.672584	0.175378	0.000075
C13	C	0.624673	0.288036	0.000073
C14	C	0.545717	0.285955	0.000083
C15	C	0.514672	0.171215	0.000090
C16	C	0.562589	0.058549	0.000094
C17	C	0.641544	0.060631	0.000090
C18	C	0.244173	0.050148	0.000114
C19	C	0.165212	0.048075	0.000116
C20	C	0.148346	0.275473	0.000108
C21	C	0.227301	0.277555	0.000103
C22	C	0.275210	0.164889	0.000112
C23	C	0.360824	0.167147	0.000102
C24	C	0.429060	0.168956	0.000094
C25	C	0.899283	-0.060094	0.000103
C26	C	0.897070	-0.198610	0.000100
C27	C	0.961533	-0.274698	0.000107
C28	C	0.959248	-0.417863	0.000104
C29	C	1.033268	0.158527	0.000115
C30	C	1.117300	0.160734	0.000120
C31	C	0.890601	0.396206	0.000097
C32	C	0.892813	0.534723	0.000095
N33	N	0.894923	0.168037	0.206650
N34	N	0.894966	0.168065	-0.206448
C35	C	0.945952	0.083086	0.248374
C36	C	0.945956	0.083085	0.331826
C37	C	0.894934	0.168042	0.373553
C38	C	0.843900	0.252997	0.331822
C39	C	0.843893	0.252991	0.248372
C40	C	0.843928	0.253021	0.668370
C41	C	0.843941	0.253023	0.751826
C42	C	0.945991	0.083115	0.751824
C43	C	0.945983	0.083109	0.668374
C44	C	0.894947	0.168059	0.626651
C45	C	0.894942	0.168058	0.536162
C46	C	0.894942	0.168050	0.464040
H47	H	0.109328	0.367210	0.000105
C48	C	1.002127	-0.010344	0.797721
C49	C	1.002139	-0.010356	0.889513
C50	C	1.058276	-0.103809	0.935407
C51	C	1.114401	-0.197252	0.889507
C52	C	1.114391	-0.197244	0.797710
C53	C	1.058254	-0.103790	0.751816
H54	H	0.960590	0.058819	0.923495
H55	H	1.058283	-0.103814	1.003361
H56	H	1.155956	-0.266432	0.923481
H57	H	1.155939	-0.266419	0.763728
H58	H	1.058247	-0.103785	0.683862
H59	H	0.987532	0.013934	0.634403
H60	H	1.018413	-0.233851	0.000118
C61	C	0.818253	-0.376973	0.000087
C62	C	0.761129	-0.382316	0.068923
C63	C	0.686569	-0.294000	0.068916
C64	C	0.669134	-0.200342	0.000072
C65	C	0.726260	-0.194995	-0.068769
C66	C	0.800819	-0.283310	-0.068762
H67	H	0.774034	-0.451651	0.119890
H68	H	0.644281	-0.297959	0.119877
H69	H	0.613941	-0.134966	0.000067
H70	H	0.713354	-0.125660	-0.119736
H71	H	0.843107	-0.279352	-0.119723
C72	C	1.002077	-0.010370	0.202480
C73	C	1.000073	-0.152462	0.213968
C74	C	1.056198	-0.245924	0.168076
C75	C	1.114328	-0.197295	0.110696
C76	C	1.116334	-0.055197	0.099205
C77	C	1.060209	0.038266	0.145097
H78	H	0.957040	-0.188466	0.256446
H79	H	1.054713	-0.351115	0.176583
H80	H	1.155875	-0.266482	0.076724
H81	H	1.159367	-0.019192	0.056727
H82	H	1.061694	0.143457	0.136590
C83	C	0.493019	0.409885	0.000076
C84	C	0.436415	0.439729	-0.068764
C85	C	0.383718	0.563666	-0.068770
C86	C	0.387625	0.657759	0.000064
C87	C	0.444231	0.627917	0.068909
C88	C	0.496928	0.503980	0.068915
H89	H	0.433520	0.370074	-0.119723
H90	H	0.341814	0.585757	-0.119734
H91	H	0.348616	0.749505	0.000059
H92	H	0.447126	0.697573	0.119868
H93	H	0.538832	0.481890	0.119879
C94	C	0.787762	0.346442	0.202472
C95	C	0.731666	0.439937	0.248367
C96	C	0.675530	0.533386	0.202469
C97	C	0.675490	0.533340	0.110676
C98	C	0.731589	0.439841	0.064777
C99	C	0.787724	0.346392	0.110675
H100	H	0.731693	0.439974	0.316322
H101	H	0.634002	0.602600	0.236447
H102	H	0.633935	0.602516	0.076700
H103	H	0.731561	0.439804	-0.003178
H104	H	0.829252	0.277178	0.076696
C105	C	0.787809	0.346474	0.797728
C106	C	0.701616	0.344541	0.786274
C107	C	0.645489	0.437987	0.832176
C108	C	0.675555	0.533366	0.889531
C109	C	0.761753	0.535303	0.900987
C110	C	0.817880	0.441857	0.855086
H111	H	0.679355	0.273932	0.743813
H112	H	0.581680	0.436553	0.823694
H113	H	0.634006	0.602541	0.923510
H114	H	0.784013	0.605912	0.943448
H115	H	0.881689	0.443292	0.863567
H116	H	0.987507	0.013911	0.365798
H117	H	0.802374	0.322193	0.634405
C118	C	0.528441	-0.067667	0.000104
C119	C	0.546254	-0.161185	0.068952
C120	C	0.512108	-0.287404	0.068960
C121	C	0.460148	-0.320104	0.000119
C122	C	0.442331	-0.226584	-0.068734
C123	C	0.476478	-0.100365	-0.068742
H124	H	0.584721	-0.136981	0.119916
H125	H	0.525297	-0.356633	0.119930
H126	H	0.434870	-0.413538	0.000125
H127	H	0.403865	-0.250788	-0.119699
H128	H	0.463289	-0.031136	-0.119712
H129	H	0.649943	0.381471	0.000067
H130	H	0.252572	0.370988	0.000094
H131	H	0.283172	-0.041591	0.000122
H132	H	0.139939	-0.045366	0.000123
H133	H	0.680552	-0.031107	0.000091
H134	H	1.014433	-0.483241	0.000113
H135	H	0.802354	0.322166	0.365801
H136	H	0.840190	-0.239457	0.000089
