data_functionalizedCrystal
_audit_creation_method	'MofGen! by Chris Wilmer'
_symmetry_space_group_name_H-M	'P1'
_symmetry_Int_Tables_number	1
_symmetry_cell_setting	triclinic
loop_
_symmetry_equiv_pos_as_xyz
  x,y,z
_cell_length_a	6.817900
_cell_length_b	11.102237
_cell_length_c	14.125465
_cell_angle_alpha	94.636006
_cell_angle_beta	100.398878
_cell_angle_gamma	108.604801
loop_
_atom_site_label
_atom_site_type_symbol
_atom_site_fract_x
_atom_site_fract_y
_atom_site_fract_z
V1	V	-4.017264	-0.174748	-0.299978
O2	O	-3.978095	0.009521	-0.294266
O3	O	-3.994682	-0.347576	-0.297929
O4	O	-3.952933	-0.171567	-0.430808
O5	O	-4.020132	-0.167707	-0.160466
V6	V	-4.499610	-0.152765	-0.283291
O7	O	-4.281102	-0.222968	-0.336583
O8	O	-4.685969	-0.104545	-0.246687
O9	O	-4.298986	0.020063	-0.285341
O10	O	-4.656176	-0.337034	-0.289004
O11	O	-4.614139	-0.159806	-0.422803
O12	O	-4.340734	-0.155946	-0.152461
C13	C	-3.846479	-0.389723	-0.293197
C14	C	-3.909196	-0.531009	-0.292393
C15	C	-3.971151	-0.615210	-0.380123
C16	C	-4.030073	-0.747963	-0.379367
C17	C	-3.965084	-0.712300	-0.203143
C18	C	-3.906150	-0.579549	-0.203900
C19	C	-4.008681	-0.635801	-0.481865
C20	C	-4.067603	-0.768554	-0.481109
C21	C	-3.793224	-0.165204	-0.462697
C22	C	-3.822081	-0.163747	-0.569651
C23	C	-3.874974	-0.161075	-0.765474
C24	C	-4.061268	-0.166435	-0.817796
C25	C	-4.090701	-0.164948	-0.926758
C26	C	-3.845534	-0.162562	-0.656502
C27	C	-4.110532	0.062203	-0.290070
C28	C	-4.027052	0.203488	-0.290880
C29	C	-4.163787	-0.162313	-0.120568
C30	C	-4.114167	-0.163763	-0.013613
H31	H	-3.866987	-0.602730	-0.517452
H32	H	-4.238114	-0.817440	-0.523650
H33	H	-3.962609	-0.751839	-0.131095
C34	C	-4.181254	-0.174177	-0.667974
C35	C	-4.246756	-0.174163	-0.767804
H36	H	-4.295770	-0.178962	-0.637112
H37	H	-4.066103	-0.097374	-0.640754
H38	H	-4.137501	-0.246221	-0.658354
H39	H	-4.290495	-0.102113	-0.777424
H40	H	-4.361944	-0.250975	-0.795032
C41	C	-3.641495	-0.042511	-0.860015
C42	C	-3.689525	-0.153385	-0.815474
H43	H	-3.527023	-0.037775	-0.890897
H44	H	-3.602614	0.031109	-0.812215
H45	H	-3.762272	-0.045689	-0.907153
H46	H	-3.568752	-0.150204	-0.768331
H47	H	-3.728396	-0.227025	-0.863280
C48	C	-3.847795	-0.557638	-0.029636
C49	C	-3.838016	-0.486993	-0.107464
H50	H	-3.805737	-0.500494	0.029901
H51	H	-3.755396	-0.606033	-0.029946
H52	H	-3.988899	-0.614282	-0.036074
H53	H	-3.696908	-0.430354	-0.101029
H54	H	-3.930416	-0.438575	-0.107152
H55	H	-4.146601	-0.606123	-0.517471
H56	H	-3.952984	-0.811010	-0.508666
