data_functionalizedCrystal
_audit_creation_method	'MofGen! by Chris Wilmer'
_symmetry_space_group_name_H-M	'P1'
_symmetry_Int_Tables_number	1
_symmetry_cell_setting	triclinic
loop_
_symmetry_equiv_pos_as_xyz
  x,y,z
_cell_length_a	15.297475
_cell_length_b	19.121063
_cell_length_c	15.298013
_cell_angle_alpha	97.698875
_cell_angle_beta	91.613322
_cell_angle_gamma	83.156694
loop_
_atom_site_label
_atom_site_type_symbol
_atom_site_fract_x
_atom_site_fract_y
_atom_site_fract_z
Zn1	Zn	1.231708	-0.346017	0.741824
Zn2	Zn	1.248318	-0.484605	0.601412
Zn3	Zn	1.110181	-0.352712	0.570348
Zn4	Zn	1.078970	-0.445645	0.720838
O5	O	1.167294	-0.407245	0.658606
O6	O	1.355643	-0.377904	0.744981
O7	O	1.250007	-0.486216	0.475548
O8	O	1.132412	-0.254931	0.588877
O9	O	1.367847	-0.479724	0.641821
O10	O	1.221697	-0.250012	0.714860
O11	O	1.148519	-0.389314	0.452726
O12	O	0.984309	-0.351536	0.568528
O13	O	1.079217	-0.413323	0.845365
O14	O	0.961378	-0.419814	0.679092
O15	O	1.191433	-0.340126	0.860783
O16	O	1.219743	-0.576330	0.621472
O17	O	1.095324	-0.547706	0.709214
C18	C	0.941280	-0.382175	0.618163
C19	C	0.844585	-0.371463	0.600882
C20	C	0.524401	-0.483807	0.782112
C21	C	0.615250	-0.493877	0.798346
C22	C	0.672588	-0.463274	0.748982
C23	C	0.639068	-0.422600	0.683381
C24	C	0.548211	-0.412534	0.667141
C25	C	0.696398	-0.392001	0.634010
C26	C	0.662878	-0.351327	0.568409
C27	C	0.572029	-0.341263	0.552173
C28	C	0.514691	-0.371866	0.601537
C29	C	0.787256	-0.402067	0.650250
C30	C	0.811066	-0.330794	0.535279
C31	C	0.720216	-0.320725	0.519045
C32	C	1.155969	-0.587141	0.666459
C33	C	1.151199	-0.664105	0.669863
C34	C	1.213773	-0.715140	0.625833
C35	C	1.209291	-0.787455	0.629040
C36	C	1.142232	-0.808734	0.676272
C37	C	1.079655	-0.757693	0.720307
C38	C	1.084141	-0.685379	0.717105
C39	C	1.125447	-1.026330	0.688227
C40	C	1.120964	-1.098651	0.691424
C41	C	1.250601	-1.128408	0.600158
C42	C	1.255078	-1.056092	0.596956
C43	C	1.192505	-1.005057	0.640995
C44	C	1.137647	-0.882651	0.679548
C45	C	1.197093	-0.931141	0.637723
C46	C	1.394191	-0.432413	0.699207
C47	C	1.490881	-0.443138	0.716509
C48	C	1.129991	-0.371632	0.885524
C49	C	1.114094	-0.356456	0.982223
C50	C	1.178684	-0.226646	0.650744
C51	C	1.183537	-0.149686	0.647394
C52	C	1.280647	-0.515490	1.302324
C53	C	1.295578	-0.529753	1.211470
C54	C	1.250208	-0.486430	1.154154
C55	C	1.189905	-0.428842	1.187700
C56	C	1.174968	-0.414581	1.278563
C57	C	1.144530	-0.385521	1.130392
C58	C	1.084226	-0.327933	1.163939
C59	C	1.069292	-0.313675	1.254793
C60	C	1.114662	-0.356998	1.312109
C61	C	1.159467	-0.399781	1.039530
C62	C	1.053788	-0.298872	1.015769
C63	C	1.038857	-0.284610	1.106623
C64	C	1.204445	-0.442733	1.432569
C65	C	1.220341	-0.457907	1.335870
H66	H	1.268376	-0.697822	0.587367
H67	H	0.440713	-0.363667	0.588325
N68	N	0.823400	-0.445927	0.721007
H69	H	0.889655	-0.447664	0.723807
H70	H	0.806652	-0.495742	0.706681
N71	N	0.973801	-0.222510	1.142807
H72	H	0.971221	-0.220057	1.209060
H73	H	0.913609	-0.228900	1.116273
N74	N	1.360622	-0.591853	1.175287
H75	H	1.363195	-0.594310	1.109033
H76	H	1.341355	-0.637311	1.190895
H77	H	1.020181	-0.266788	1.282102
N78	N	0.535865	-0.297393	0.481424
H79	H	0.503033	-0.327638	0.435537
H80	H	0.586010	-0.279534	0.452683
H81	H	1.016844	-0.263596	0.969101
H82	H	1.033189	-0.643825	0.752960
H83	H	1.074496	-0.984783	0.724084
N84	N	0.770576	-0.474134	0.766485
H85	H	0.783111	-0.504543	0.815533
H86	H	0.792738	-0.426528	0.784378
N87	N	0.684061	-0.276867	0.448281
H88	H	0.709415	-0.299056	0.389392
H89	H	0.700749	-0.227036	0.462636
N90	N	0.651404	-0.537746	0.869091
H91	H	0.601297	-0.555605	0.897900
H92	H	0.684249	-0.507464	0.914922
N93	N	1.329560	-0.562214	1.364147
H94	H	1.365448	-0.532634	1.407837
H95	H	1.369982	-0.600854	1.329053
N96	N	1.048635	-1.121600	0.742375
H97	H	1.055287	-1.175155	0.737715
H98	H	0.989533	-1.104249	0.717115
N99	N	1.098553	-0.341619	1.410104
H100	H	1.053463	-0.298567	1.422661
H101	H	1.155474	-0.332112	1.442048
H102	H	0.477709	-0.508724	0.822292
N103	N	1.269421	-0.908189	0.586787
H104	H	1.242587	-0.880636	0.538800
H105	H	1.308361	-0.951522	0.559433
N106	N	0.872898	-0.297787	0.482026
H107	H	0.935538	-0.310334	0.502269
H108	H	0.857884	-0.244453	0.490670
H109	H	1.301546	-1.169968	0.564305
H110	H	1.262368	-0.498046	1.080177
N111	N	1.276776	-0.842501	0.581545
H112	H	1.309390	-0.871376	0.625467
H113	H	1.319877	-0.817996	0.551134
N114	N	1.327417	-1.033142	0.546028
H115	H	1.366383	-1.076446	0.518627
H116	H	1.363674	-1.001999	0.587356
N117	N	1.007328	-0.780639	0.771254
H118	H	1.013977	-0.834194	0.766600
H119	H	0.948228	-0.763288	0.745989
H120	H	1.083046	-0.899985	0.718003
H121	H	1.208572	-0.446667	1.012227
