data_functionalizedCrystal
_audit_creation_method	'MofGen! by Chris Wilmer'
_symmetry_space_group_name_H-M	'P1'
_symmetry_Int_Tables_number	1
_symmetry_cell_setting	triclinic
loop_
_symmetry_equiv_pos_as_xyz
  x,y,z
_cell_length_a	16.109301
_cell_length_b	10.065875
_cell_length_c	16.109302
_cell_angle_alpha	81.213141
_cell_angle_beta	83.461772
_cell_angle_gamma	98.741855
loop_
_atom_site_label
_atom_site_type_symbol
_atom_site_fract_x
_atom_site_fract_y
_atom_site_fract_z
O1	O	1.115291	0.113406	0.094652
O2	O	0.873231	0.113427	0.107949
O3	O	1.000909	0.113407	-0.019729
O4	O	0.987613	0.113426	0.222331
O5	O	0.976563	-0.113578	0.004715
O6	O	0.848885	-0.113558	0.132394
O7	O	1.090944	-0.113579	0.119097
Zn8	Zn	0.966049	-0.149607	0.129626
Zn9	Zn	0.998127	0.149455	0.097420
O10	O	0.963267	-0.113559	0.246775
C11	C	0.830083	-0.000062	0.119632
C12	C	0.737789	-0.000054	0.118016
N13	N	0.944163	-0.353709	0.151606
C14	C	0.515516	-0.000065	0.190025
C15	C	0.428794	-0.000074	0.188502
C16	C	0.448667	-0.000079	0.037014
C17	C	0.535386	-0.000080	0.038539
C18	C	0.568808	-0.000066	0.115046
C19	C	0.395368	-0.000074	0.111998
C20	C	0.301341	-0.000084	0.110346
C21	C	0.662841	-0.000059	0.116699
C22	C	0.990507	-0.421495	0.105062
C23	C	0.973669	-0.578660	0.121984
C24	C	1.134093	-0.000086	0.107413
C25	C	1.226388	-0.000086	0.109028
C26	C	0.988197	-0.000084	-0.038482
C27	C	0.986582	-0.000082	-0.130777
N28	N	1.020019	0.353557	0.075434
C29	C	0.975979	-0.000064	0.265527
C30	C	0.977595	-0.000058	0.357822
C31	C	0.994600	0.123662	0.556839
C32	C	0.996126	0.123660	0.643560
C33	C	0.969578	-0.123812	0.670200
C34	C	0.968058	-0.123807	0.583480
C35	C	0.980565	-0.000066	0.526802
C36	C	0.983612	-0.000074	0.700242
C37	C	0.985266	-0.000078	0.794269
C38	C	0.978912	-0.000062	0.432770
H39	H	0.542724	-0.000063	0.252323
H40	H	0.892018	-0.412027	0.203978
H41	H	1.004783	0.224421	0.510694
N42	N	0.592866	-0.000093	-0.042338
H43	H	0.591145	0.084048	-0.084780
H44	H	0.652843	-0.000151	-0.029689
N45	N	1.011268	0.257109	0.675958
H46	H	1.018961	0.335493	0.626891
H47	H	0.960970	0.262506	0.718115
H48	H	0.421443	-0.000099	-0.025275
N49	N	1.059556	-0.344263	0.035661
H50	H	1.061787	-0.242937	0.033401
H51	H	1.115933	-0.369134	0.047761
H52	H	0.385406	-0.000075	0.249558
H53	H	0.921521	-0.636973	0.174361
N54	N	0.956075	-0.257275	0.731328
H55	H	1.001514	-0.311377	0.715306
H56	H	0.959143	-0.238399	0.790802
H57	H	0.956631	-0.224568	0.559025
H58	H	1.072161	-0.588130	0.023051
