data_functionalizedCrystal
_audit_creation_method	'MofGen! by Chris Wilmer'
_symmetry_space_group_name_H-M	'P1'
_symmetry_Int_Tables_number	1
_symmetry_cell_setting	triclinic
loop_
_symmetry_equiv_pos_as_xyz
  x,y,z
_cell_length_a	18.215407
_cell_length_b	12.645330
_cell_length_c	12.645323
_cell_angle_alpha	89.975130
_cell_angle_beta	89.977371
_cell_angle_gamma	90.018140
loop_
_atom_site_label
_atom_site_type_symbol
_atom_site_fract_x
_atom_site_fract_y
_atom_site_fract_z
Zn1	Zn	1.125129	-0.422018	-0.599445
Zn2	Zn	1.125047	-0.599306	-0.422185
Zn3	Zn	1.002056	-0.422059	-0.422189
Zn4	Zn	1.002043	-0.599242	-0.599401
O5	O	1.063569	-0.510656	-0.510805
O6	O	1.228102	-0.445546	-0.575948
O7	O	1.108703	-0.575838	-0.273838
O8	O	1.018421	-0.273706	-0.445723
O9	O	1.228042	-0.575799	-0.445716
O10	O	1.108843	-0.273676	-0.575952
O11	O	1.018342	-0.445615	-0.273842
O12	O	0.899070	-0.445552	-0.445680
O13	O	1.018400	-0.575689	-0.747754
O14	O	0.899060	-0.575728	-0.575876
O15	O	1.108830	-0.445483	-0.747786
O16	O	1.108690	-0.747645	-0.445673
O17	O	1.018320	-0.747597	-0.575872
C18	C	0.872362	-0.510638	-0.510775
C19	C	0.790563	-0.510656	-0.510787
C20	C	0.602384	-0.578545	-0.578495
C21	C	0.525525	-0.578548	-0.578508
C22	C	0.525505	-0.442787	-0.443138
C23	C	0.602363	-0.442779	-0.443131
C24	C	0.640800	-0.510664	-0.510808
C25	C	0.487084	-0.510675	-0.510828
C26	C	0.403750	-0.510678	-0.510842
C27	C	0.724139	-0.510660	-0.510796
C28	C	1.063515	-0.786086	-0.510790
C29	C	1.063559	-0.903916	-0.510819
C30	C	1.006942	-1.071494	-0.592980
C31	C	1.006652	-0.948935	-0.592716
C32	C	1.042563	-0.948510	-0.399097
C33	C	1.042217	-1.071109	-0.399596
C34	C	1.141520	-1.071004	-0.539474
C35	C	1.141042	-0.948398	-0.541917
C36	C	1.255522	-0.510675	-0.510836
C37	C	1.337320	-0.510683	-0.510849
C38	C	1.063623	-0.510574	-0.787310
C39	C	1.063646	-0.510539	-0.905141
C40	C	1.063643	-0.234151	-0.510843
C41	C	1.063674	-0.116321	-0.510859
C42	C	1.006580	-0.592065	-1.072684
C43	C	1.006730	-0.592469	-0.950124
C44	C	1.141189	-0.540857	-0.949660
C45	C	1.140876	-0.541368	-1.072259
C46	C	1.043902	-0.398240	-1.072338
C47	C	1.042172	-0.398913	-0.949732
C48	C	1.063557	-0.510661	-0.235375
C49	C	1.063676	-0.510398	-0.117546
H50	H	1.019789	-0.918781	-0.675557
Cl51	Cl	1.101695	-0.300001	-0.902473
Cl52	Cl	0.958119	-0.355574	-1.120046
Cl53	Cl	0.650703	-0.663881	-0.663578
Cl54	Cl	1.208743	-0.453460	-1.118085
H55	H	1.156876	-0.919247	-0.624139
Cl56	Cl	1.027032	-1.116907	-0.721305
H57	H	0.985311	-1.099801	-0.375356
Cl58	Cl	1.167514	-0.666117	-0.902284
Cl59	Cl	1.206781	-1.115780	-0.447147
Cl60	Cl	0.477179	-0.357453	-0.358061
Cl61	Cl	0.954063	-0.363614	-0.904820
H62	H	0.633642	-0.387496	-0.388012
H63	H	0.949591	-1.102396	-0.574265
H64	H	0.494250	-0.633822	-0.633627
Cl65	Cl	0.917549	-0.903792	-0.563452
H66	H	1.085488	-0.337394	-1.101352
H67	H	1.081745	-1.100765	-0.336323
Cl68	Cl	1.208633	-0.451927	-0.904682
H69	H	1.019508	-0.674693	-1.103503
Cl70	Cl	1.104334	-0.903495	-0.302043
H71	H	0.986250	-0.917900	-0.374419
Cl72	Cl	1.171091	-1.118621	-0.663117
H73	H	0.949229	-0.573497	-0.920022
Cl74	Cl	1.209743	-0.901069	-0.456303
H75	H	1.019784	-0.675617	-0.920810
Cl76	Cl	1.166752	-0.667954	-1.116436
Cl77	Cl	0.917535	-0.563054	-1.118178
