data_functionalizedCrystal
_audit_creation_method	'MofGen! by Chris Wilmer'
_symmetry_space_group_name_H-M	'P1'
_symmetry_Int_Tables_number	1
_symmetry_cell_setting	triclinic
loop_
_symmetry_equiv_pos_as_xyz
  x,y,z
_cell_length_a	9.065215
_cell_length_b	23.532357
_cell_length_c	8.140239
_cell_angle_alpha	89.990966
_cell_angle_beta	89.997810
_cell_angle_gamma	83.921494
loop_
_atom_site_label
_atom_site_type_symbol
_atom_site_fract_x
_atom_site_fract_y
_atom_site_fract_z
O1	O	1.956247	0.083491	-0.136618
O2	O	2.456247	0.583491	0.363382
O3	O	1.526621	0.090342	-0.136627
O4	O	2.026621	0.590342	0.363373
O5	O	1.754428	0.004078	-0.136588
O6	O	2.254428	0.504078	0.363412
O7	O	1.728441	0.169755	-0.136657
O8	O	2.228441	0.669755	0.363343
O9	O	1.754416	0.004077	0.136639
O10	O	2.254416	0.504077	0.636639
O11	O	1.526609	0.090341	0.136600
O12	O	2.026609	0.590341	0.636600
O13	O	1.956235	0.083490	0.136609
O14	O	2.456235	0.583490	0.636609
Zn15	Zn	1.741420	0.086915	0.179985
Zn16	Zn	2.241420	0.586915	0.679985
Zn17	Zn	1.741436	0.086917	-0.180003
Zn18	Zn	2.241436	0.586917	0.319997
O19	O	1.728428	0.169754	0.136571
O20	O	2.228428	0.669754	0.636571
C21	C	1.471661	0.089683	-0.000014
C22	C	1.971661	0.589683	0.499986
C23	C	1.307916	0.087716	-0.000016
C24	C	1.807916	0.587716	0.499984
C25	C	1.753772	-0.017144	0.000030
C26	C	2.253772	0.482856	0.500030
C27	C	1.751818	-0.080377	0.000046
C28	C	2.251818	0.419623	0.500046
C29	C	1.739555	-0.472477	-0.148979
C30	C	2.239555	0.027523	0.351021
C31	C	1.737697	-0.531890	-0.148989
C32	C	2.237697	-0.031890	0.351011
O33	O	1.736692	-0.562614	-0.275653
O34	O	2.236692	-0.062614	0.224347
N35	N	1.736769	-0.561609	-0.000055
N36	N	2.236769	-0.061609	0.499945
C37	C	1.737684	-0.531911	0.148898
C38	C	2.237684	-0.031911	0.648898
O39	O	1.736723	-0.562644	0.275577
O40	O	2.236723	-0.062644	0.775577
C41	C	1.739531	-0.472498	0.148906
C42	C	2.239531	0.027502	0.648906
C43	C	1.740474	-0.442783	-0.000038
C44	C	2.240474	0.057217	0.499962
C45	C	1.740496	-0.442762	-0.297911
C46	C	2.240496	0.057238	0.202089
C47	C	1.742357	-0.383354	-0.297901
C48	C	2.242357	0.116646	0.202099
C49	C	1.743276	-0.353660	-0.148959
C50	C	2.243276	0.146340	0.351041
C51	C	1.742335	-0.383374	-0.000028
C52	C	2.242335	0.116626	0.499972
C53	C	1.740435	-0.442800	0.297857
C54	C	2.240435	0.057200	0.797857
C55	C	1.742282	-0.383384	0.297852
C56	C	2.242282	0.116616	0.797852
C57	C	1.743225	-0.353669	0.148909
C58	C	2.243225	0.146331	0.648909
C59	C	1.745114	-0.294272	0.148924
C60	C	2.245114	0.205728	0.648924
N61	N	1.746042	-0.264553	-0.000010
N62	N	2.246042	0.235447	0.499990
C63	C	1.745123	-0.294247	-0.148952
C64	C	2.245123	0.205753	0.351048
C65	C	1.733802	-0.656681	0.148871
C66	C	2.233802	-0.156681	0.648871
C67	C	1.731966	-0.716093	0.148865
C68	C	2.231966	-0.216093	0.648865
C69	C	1.731976	-0.716068	-0.149023
C70	C	2.231976	-0.216068	0.350977
C71	C	1.733823	-0.656656	-0.149015
C72	C	2.233823	-0.156656	0.350985
C73	C	1.734730	-0.626962	-0.000063
C74	C	2.234730	-0.126962	0.499937
C75	C	1.749032	-0.169484	-0.148919
C76	C	2.249032	0.330516	0.351081
C77	C	1.750898	-0.110070	-0.148896
C78	C	2.250898	0.389930	0.351104
C79	C	1.750880	-0.110100	0.148991
C80	C	2.250880	0.389900	0.648991
C81	C	1.749021	-0.169509	0.148968
C82	C	2.249021	0.330491	0.648968
C83	C	1.748092	-0.199199	0.000000
C84	C	2.248092	0.300801	0.500000
O85	O	1.746114	-0.263510	0.275524
O86	O	2.246114	0.236490	0.775524
O87	O	1.746065	-0.263506	-0.275609
O88	O	2.246065	0.236494	0.224391
C89	C	2.011195	0.084149	-0.000007
C90	C	2.511195	0.584149	0.499993
C91	C	2.174940	0.086116	-0.000016
C92	C	2.674940	0.586116	0.499984
C93	C	1.729084	0.190976	-0.000052
C94	C	2.229084	0.690976	0.499948
C95	C	1.731039	0.254209	-0.000078
C96	C	2.231039	0.754209	0.499922
N97	N	1.741419	0.086914	0.425668
N98	N	2.241419	0.586914	0.925668
N99	N	1.741448	0.086914	-0.425686
N100	N	2.241448	0.586914	0.074314
H101	H	1.751670	-0.085880	-0.270189
H102	H	2.251670	0.414120	0.229811
Br103	Br	1.747770	-0.209769	-0.351092
Br104	Br	2.247770	0.290231	0.148908
H105	H	1.739743	-0.466933	-0.419204
H106	H	2.239743	0.033067	0.080796
Br107	Br	1.730721	-0.756414	0.351011
Br108	Br	2.230721	-0.256414	0.851011
H109	H	1.734589	-0.632466	-0.270299
H110	H	2.234589	-0.132466	0.229701
Br111	Br	1.747776	-0.209839	0.351107
Br112	Br	2.247776	0.290161	0.851107
Br113	Br	1.730720	-0.756378	-0.351161
Br114	Br	2.230720	-0.256378	0.148839
H115	H	1.742998	-0.359209	0.419150
H116	H	2.242998	0.140791	0.919150
Br117	Br	1.735043	-0.616389	0.351040
Br118	Br	2.235043	-0.116389	0.851040
H119	H	1.743119	-0.359165	-0.419187
H120	H	2.243119	0.140835	0.080813
Br121	Br	1.752131	-0.069790	0.351116
Br122	Br	2.252131	0.430210	0.851116
H123	H	1.739670	-0.466984	0.419144
H124	H	2.239670	0.033016	0.919144
