data_functionalizedCrystal
_audit_creation_method	'MofGen! by Chris Wilmer'
_symmetry_space_group_name_H-M	'P1'
_symmetry_Int_Tables_number	1
_symmetry_cell_setting	triclinic
loop_
_symmetry_equiv_pos_as_xyz
  x,y,z
_cell_length_a	10.540514
_cell_length_b	10.540510
_cell_length_c	9.616153
_cell_angle_alpha	90.000246
_cell_angle_beta	89.992599
_cell_angle_gamma	84.514235
loop_
_atom_site_label
_atom_site_type_symbol
_atom_site_fract_x
_atom_site_fract_y
_atom_site_fract_z
O1	O	1.685892	0.178745	-0.115655
O2	O	1.316473	0.195635	-0.115653
O3	O	1.509630	0.002480	-0.115653
O4	O	1.492734	0.371899	-0.115654
O5	O	1.509603	0.002484	0.115638
O6	O	1.316446	0.195639	0.115638
O7	O	1.685865	0.178749	0.115637
Zn8	Zn	1.501151	0.187194	0.152360
Zn9	Zn	1.501186	0.187189	-0.152376
O10	O	1.492708	0.371903	0.115637
C11	C	1.269156	0.194377	-0.000007
C12	C	1.128207	0.190608	-0.000007
C13	C	1.057486	0.328749	-0.000010
C14	C	0.910874	0.324875	-0.000542
C15	C	0.935892	0.115477	-0.131836
C16	C	1.082431	0.120331	-0.131940
C17	C	1.082804	0.118291	0.131091
C18	C	0.935825	0.116958	0.132816
C19	C	1.508358	-0.044821	-0.000011
C20	C	1.504591	-0.185771	-0.000019
C21	C	1.638776	-0.403239	0.000510
C22	C	1.642794	-0.256643	-0.000018
C23	C	1.433859	-0.230525	-0.132094
C24	C	1.430820	-0.377286	-0.132198
C25	C	1.427911	-0.377090	0.130824
C26	C	1.434466	-0.230749	0.132562
C27	C	1.733182	0.180007	-0.000012
C28	C	1.874131	0.183776	-0.000022
C29	C	1.493980	0.419205	-0.000009
C30	C	1.497747	0.560155	-0.000010
N31	N	1.501137	0.187197	0.360335
N32	N	1.501211	0.187176	-0.360351
C33	C	1.397495	0.290175	0.580705
C34	C	1.397723	0.290561	0.419537
C35	C	1.633858	0.217319	0.418783
C36	C	1.633294	0.218048	0.580001
C37	C	1.473378	0.053759	0.580246
C38	C	1.470332	0.054625	0.419020
H39	H	1.130071	0.016397	0.132363
H40	H	1.483002	-0.199675	-0.230385
H41	H	1.332116	-0.183127	-0.137005
H42	H	1.698482	-0.228245	-0.094859
H43	H	1.549000	-0.022903	0.618362
O44	O	1.340992	0.024385	0.368442
H45	H	1.340865	0.021071	0.253074
O46	O	0.903810	-0.019274	0.143943
H47	H	0.851672	-0.031870	0.242517
O48	O	1.495499	-0.430653	-0.262598
H49	H	1.528586	-0.351594	-0.325028
H50	H	1.485933	-0.202140	0.230271
O51	O	1.119863	0.186394	-0.262949
H52	H	1.071447	0.284617	-0.265642
O53	O	0.855631	0.395824	-0.126395
H54	H	0.896922	0.349911	-0.222198
O55	O	1.266457	0.266559	0.632136
H56	H	1.243654	0.170880	0.597527
O57	O	1.293907	-0.407752	-0.140169
H58	H	1.230160	-0.317693	-0.143943
H59	H	0.868193	0.378594	0.093926
O60	O	1.485757	-0.433292	0.263439
H61	H	1.564936	-0.506590	0.237573
O62	O	1.095272	0.403005	0.125166
H63	H	1.164867	0.342253	0.188720
O64	O	1.563779	-0.051788	0.365685
H65	H	1.633954	-0.011667	0.296211
H66	H	1.712945	0.146050	0.618989
O67	O	1.300823	-0.165720	0.143169
H68	H	1.282206	-0.100046	0.053699
O69	O	1.290468	-0.406428	0.132031
H70	H	1.271924	-0.465411	0.039955
H71	H	1.299107	0.272439	0.380023
O72	O	1.738594	0.120663	0.367991
H73	H	1.809217	0.169925	0.307854
O74	O	1.146052	-0.014075	-0.139403
H75	H	1.072114	-0.082248	-0.142933
H76	H	1.087719	0.383966	-0.094397
O77	O	1.347873	0.015796	0.634172
H78	H	1.330452	-0.078569	0.590797
H79	H	1.692608	-0.445197	0.095228
H80	H	0.913590	0.011844	-0.136365
H81	H	0.893292	0.162290	-0.230307
H82	H	1.698138	-0.227303	0.094657
H83	H	1.692319	-0.446751	-0.093673
O84	O	1.420875	0.420557	0.634328
H85	H	1.506047	0.412320	0.702776
O86	O	1.421425	0.421670	0.368412
H87	H	1.432783	0.485042	0.458841
O88	O	1.665544	0.346976	0.629805
H89	H	1.593487	0.421832	0.589926
O90	O	1.124486	0.179191	0.263490
H91	H	1.082675	0.279838	0.267771
O92	O	1.666832	0.344803	0.365309
H93	H	1.588907	0.386905	0.297121
H94	H	0.894813	0.166872	0.230335
