data_functionalizedCrystal
_audit_creation_method	'MofGen! by Chris Wilmer'
_symmetry_space_group_name_H-M	'P1'
_symmetry_Int_Tables_number	1
_symmetry_cell_setting	triclinic
loop_
_symmetry_equiv_pos_as_xyz
  x,y,z
_cell_length_a	16.625548
_cell_length_b	29.839131
_cell_length_c	16.625539
_cell_angle_alpha	89.967906
_cell_angle_beta	89.979432
_cell_angle_gamma	90.042488
loop_
_atom_site_label
_atom_site_type_symbol
_atom_site_fract_x
_atom_site_fract_y
_atom_site_fract_z
Zn1	Zn	1.232574	-0.178840	-0.455888
Zn2	Zn	1.732574	0.321160	0.044112
Zn3	Zn	1.232433	-0.253971	-0.321046
Zn4	Zn	1.732433	0.246029	0.178954
Zn5	Zn	1.097736	-0.178857	-0.321069
Zn6	Zn	1.597736	0.321143	0.178931
Zn7	Zn	1.097662	-0.253945	-0.455836
Zn8	Zn	1.597662	0.246055	0.044164
O9	O	1.165101	-0.216403	-0.388460
O10	O	1.665101	0.283597	0.111540
O11	O	1.345388	-0.188810	-0.438013
O12	O	1.845388	0.311190	0.061987
O13	O	1.214537	-0.244025	-0.208217
O14	O	1.714537	0.255975	0.291783
O15	O	1.115713	-0.115987	-0.338984
O16	O	1.615713	0.384013	0.161016
O17	O	1.345284	-0.244008	-0.338946
O18	O	1.845284	0.255992	0.161054
O19	O	1.214778	-0.115975	-0.438035
O20	O	1.714778	0.384025	0.061965
O21	O	1.115576	-0.188839	-0.208233
O22	O	1.615576	0.311161	0.291767
O23	O	0.984894	-0.188814	-0.338933
O24	O	1.484894	0.311186	0.161067
O25	O	1.115586	-0.243964	-0.568676
O26	O	1.615586	0.256036	-0.068676
O27	O	0.984839	-0.243981	-0.437947
O28	O	1.484839	0.256019	0.062053
O29	O	1.214706	-0.188785	-0.568714
O30	O	1.714706	0.311215	-0.068714
O31	O	1.214465	-0.316834	-0.338896
O32	O	1.714465	0.183166	0.161104
O33	O	1.115449	-0.316815	-0.437925
O34	O	1.615449	0.183185	0.062075
C35	C	0.955610	-0.216397	-0.388437
C36	C	1.455610	0.283603	0.111563
C37	C	0.865989	-0.216405	-0.388447
C38	C	1.365989	0.283595	0.111553
C39	C	0.537814	-0.216408	-0.388481
C40	C	1.037814	0.283592	0.111519
C41	C	0.629122	-0.216406	-0.388469
C42	C	1.129122	0.283594	0.111531
C43	C	0.701899	-0.216406	-0.388463
C44	C	1.201899	0.283594	0.111537
C45	C	0.793213	-0.216404	-0.388452
C46	C	1.293213	0.283596	0.111548
C47	C	1.164956	-0.333126	-0.388420
C48	C	1.664956	0.166874	0.111580
C49	C	1.164967	-0.383060	-0.388430
C50	C	1.664967	0.116940	0.111570
C51	C	1.216752	-0.692701	-0.336971
C52	C	1.716752	-0.192701	0.163029
C53	C	1.216852	-0.880374	-0.337002
C54	C	1.716852	-0.380374	0.162998
O55	O	1.260766	-0.904636	-0.293219
O56	O	1.760766	-0.404636	0.206781
N57	N	1.165268	-0.903845	-0.388521
N58	N	1.665268	-0.403845	0.111479
C59	C	1.113660	-0.880395	-0.440039
C60	C	1.613660	-0.380395	0.059961
O61	O	1.069793	-0.904665	-0.483866
O62	O	1.569793	-0.404665	0.016134
C63	C	1.113565	-0.692723	-0.440011
C64	C	1.613565	-0.192723	0.059989
C65	C	1.165146	-0.669254	-0.388483
C66	C	1.665146	-0.169254	0.111517
C67	C	1.268330	-0.669232	-0.285447
C68	C	1.768330	-0.169232	0.214553
C69	C	1.268302	-0.622316	-0.285437
C70	C	1.768302	-0.122316	0.214563
C71	C	1.216695	-0.598870	-0.336950
C72	C	1.716695	-0.098870	0.163050
C73	C	1.165118	-0.622339	-0.388473
C74	C	1.665118	-0.122339	0.111527
C75	C	1.061962	-0.669274	-0.491533
C76	C	1.561962	-0.169274	0.008467
C77	C	1.061944	-0.622353	-0.491523
C78	C	1.561944	-0.122353	0.008477
C79	C	1.113525	-0.598884	-0.439995
C80	C	1.613525	-0.098884	0.060005
C81	C	1.113483	-0.551977	-0.439975
C82	C	1.613483	-0.051977	0.060025
N83	N	1.165067	-0.528505	-0.388456
N84	N	1.665067	-0.028505	0.111544
C85	C	1.216673	-0.551952	-0.336944
C86	C	1.716673	-0.051952	0.163056
C87	C	1.113712	-0.978926	-0.440049
C88	C	1.613712	-0.478926	0.059951
C89	C	1.113735	-1.025844	-0.440055
C90	C	1.613735	-0.525844	0.059945
C91	C	1.216928	-1.025819	-0.337019
C92	C	1.716928	-0.525819	0.162981
C93	C	1.216901	-0.978900	-0.337009
C94	C	1.716901	-0.478900	0.162991
C95	C	1.165296	-0.955455	-0.388530
C96	C	1.665296	-0.455455	0.111470
C97	C	1.216609	-0.453426	-0.336925
C98	C	1.716609	0.046574	0.163075
C99	C	1.216573	-0.406506	-0.336917
C100	C	1.716573	0.093494	0.163083
C101	C	1.113383	-0.406535	-0.439956
C102	C	1.613383	0.093465	0.060044
C103	C	1.113416	-0.453451	-0.439962
C104	C	1.613416	0.046549	0.060038
C105	C	1.165035	-0.476895	-0.388443
C106	C	1.665035	0.023105	0.111557
O107	O	1.069599	-0.527685	-0.483742
O108	O	1.569599	-0.027685	0.016258
O109	O	1.260546	-0.527674	-0.293136
O110	O	1.760546	-0.027674	0.206864
C111	C	1.216781	-0.739616	-0.336981
C112	C	1.716781	-0.239616	0.163019
C113	C	1.165203	-0.763085	-0.388504
C114	C	1.665203	-0.263085	0.111496
C115	C	1.113597	-0.739639	-0.440017
C116	C	1.613597	-0.239639	0.059983
C117	C	1.165226	-0.810003	-0.388510
C118	C	1.665226	-0.310003	0.111490
C119	C	1.216832	-0.833449	-0.336997
C120	C	1.716832	-0.333449	0.163003
C121	C	1.268416	-0.809978	-0.285479
C122	C	1.768416	-0.309978	0.214521
C123	C	1.268387	-0.763062	-0.285468
C124	C	1.768387	-0.263062	0.214532
C125	C	1.062014	-0.763110	-0.491536
C126	C	1.562014	-0.263110	0.008464
C127	C	1.062046	-0.810026	-0.491541
C128	C	1.562046	-0.310026	0.008459
C129	C	1.113652	-0.833472	-0.440028
C130	C	1.613652	-0.333472	0.059972
C131	C	1.375410	-0.216410	-0.388483
C132	C	1.875410	0.283590	0.111517
C133	C	1.465031	-0.216413	-0.388493
C134	C	1.965031	0.283587	0.111507
C135	C	1.165154	-0.216370	-0.598769
C136	C	1.665154	0.283630	-0.098769
C137	C	1.165176	-0.216355	-0.688390
C138	C	1.665176	0.283645	-0.188390
C139	C	1.165269	-0.099225	-0.388518
C140	C	1.665269	0.400775	0.111482
C141	C	1.165341	-0.049290	-0.388542
C142	C	1.665341	0.450710	0.111458
C143	C	1.165213	-0.216305	-1.016566
C144	C	1.665213	0.283695	-0.516566
C145	C	1.165201	-0.216320	-0.925257
C146	C	1.665201	0.283680	-0.425257
C147	C	1.165195	-0.216330	-0.852481
C148	C	1.665195	0.283670	-0.352481
C149	C	1.165182	-0.216345	-0.761167
C150	C	1.665182	0.283655	-0.261167
C151	C	1.165095	-0.216404	-0.178969
C152	C	1.665095	0.283596	0.321031
C153	C	1.165229	-0.216292	-0.089348
C154	C	1.665229	0.283708	0.410652
H155	H	1.258577	-0.387399	-0.294954
H156	H	1.758577	0.112601	0.205046
H157	H	1.019991	-0.744024	-0.533485
H158	H	1.519991	-0.244024	-0.033485
H159	H	1.258644	-0.472509	-0.294976
H160	H	1.758644	0.027491	0.205024
H161	H	1.019922	-0.603266	-0.533480
H162	H	1.519922	-0.103266	-0.033480
H163	H	1.310306	-0.603210	-0.243481
H164	H	1.810306	-0.103210	0.256519
C165	C	1.056623	-0.380735	-0.496620
C166	C	1.556623	0.119265	0.003380
N167	N	1.013875	-0.361301	-0.539306
N168	N	1.513875	0.138699	-0.039306
C169	C	1.325128	-0.737253	-0.228780
C170	C	1.825128	-0.237253	0.271220
N171	N	1.367868	-0.717816	-0.186079
N172	N	1.867868	-0.217816	0.313921
H173	H	1.071688	-0.959840	-0.482005
H174	H	1.571688	-0.459840	0.017995
C175	C	1.273700	-1.051619	-0.280358
C176	C	1.773700	-0.551619	0.219642
N177	N	1.316462	-1.071053	-0.237689
N178	N	1.816462	-0.571053	0.262311
C179	C	1.056671	-0.479268	-0.496642
C180	C	1.556671	0.020732	0.003358
N181	N	1.013936	-0.498710	-0.539341
N182	N	1.513936	0.001290	-0.039341
C183	C	1.273646	-0.953089	-0.280327
C184	C	1.773646	-0.453089	0.219673
N185	N	1.316390	-0.933650	-0.237633
N186	N	1.816390	-0.433650	0.262367
H187	H	1.310358	-0.688317	-0.243499
H188	H	1.810358	-0.188317	0.256501
H189	H	1.071725	-1.044948	-0.482007
H190	H	1.571725	-0.544948	0.017993
C191	C	1.325182	-0.835778	-0.228813
C192	C	1.825182	-0.335778	0.271187
N193	N	1.367938	-0.855213	-0.186139
N194	N	1.867938	-0.355213	0.313861
H195	H	1.019955	-0.688375	-0.533489
H196	H	1.519955	-0.188375	-0.033489
H197	H	1.020035	-0.829130	-0.533501
H198	H	1.520035	-0.329130	-0.033501
