data_functionalizedCrystal
_audit_creation_method	'MofGen! by Chris Wilmer'
_symmetry_space_group_name_H-M	'P1'
_symmetry_Int_Tables_number	1
_symmetry_cell_setting	triclinic
loop_
_symmetry_equiv_pos_as_xyz
  x,y,z
_cell_length_a	11.792241
_cell_length_b	19.188930
_cell_length_c	10.268362
_cell_angle_alpha	89.989600
_cell_angle_beta	89.999626
_cell_angle_gamma	83.669099
loop_
_atom_site_label
_atom_site_type_symbol
_atom_site_fract_x
_atom_site_fract_y
_atom_site_fract_z
O1	O	1.505476	0.095695	-0.108190
O2	O	1.174988	0.105558	-0.108222
O3	O	1.349769	-0.000975	-0.108179
O4	O	1.330695	0.202228	-0.108232
O5	O	1.349754	-0.000980	0.108421
O6	O	1.174973	0.105553	0.108379
O7	O	1.505461	0.095691	0.108411
Cu8	Cu	1.340216	0.100622	0.128172
Cu9	Cu	1.340233	0.100627	-0.127983
O10	O	1.330680	0.202224	0.108368
C11	C	1.132699	0.104936	0.000075
C12	C	1.006713	0.103082	0.000064
C13	C	0.776051	0.099672	0.000102
C14	C	0.904408	0.101566	0.000081
C15	C	1.349144	-0.026992	0.000125
C16	C	1.347290	-0.104507	0.000136
C17	C	1.449846	-0.148850	0.000152
C18	C	1.448104	-0.221684	0.000131
C19	C	1.343800	-0.250171	0.000120
C20	C	1.241230	-0.205818	0.000096
C21	C	1.242975	-0.132986	0.000104
N22	N	1.264067	-0.358629	0.073825
N23	N	1.262416	-0.427817	0.073820
C24	C	1.338536	-0.469609	0.000093
N25	N	1.416387	-0.439602	-0.073614
N26	N	1.418041	-0.370407	-0.073603
C27	C	1.341896	-0.329144	0.000110
C28	C	1.439211	-0.592928	0.000084
C29	C	1.437464	-0.665762	0.000055
C30	C	1.230588	-0.649895	0.000034
C31	C	1.232337	-0.577062	0.000050
C32	C	1.336652	-0.548583	0.000081
C33	C	1.547751	0.096313	0.000111
C34	C	1.673737	0.098167	0.000114
C35	C	1.331305	0.228240	0.000062
C36	C	1.333159	0.305755	0.000042
N37	N	1.340211	0.100617	0.308338
N38	N	1.340247	0.100625	-0.308149
C39	C	1.340228	0.100625	0.574009
C40	C	1.340215	0.100623	0.426171
H41	H	1.534787	-0.125667	0.000173
O42	O	1.540563	-0.565289	-0.000137
C43	C	1.717935	-0.556577	-0.112309
C44	C	1.603186	-0.587909	-0.112231
H45	H	1.768609	-0.574865	-0.202913
H46	H	1.701630	-0.496901	-0.112383
H47	H	1.768554	-0.574808	-0.021623
H48	H	1.552508	-0.569732	-0.202901
H49	H	1.619571	-0.647581	-0.112089
H50	H	1.520981	-0.701866	0.000061
H51	H	1.531620	-0.257795	0.000139
O52	O	1.129365	-0.677674	0.000074
C53	C	1.034991	-0.782844	-0.000047
C54	C	1.149708	-0.751474	-0.000052
H55	H	1.051398	-0.842515	-0.000176
H56	H	0.984298	-0.764677	0.090616
H57	H	0.984340	-0.764557	-0.090678
H58	H	1.200451	-0.769747	0.090518
H59	H	1.200314	-0.769638	-0.090774
O60	O	1.132637	-0.534055	-0.000123
C61	C	0.956395	-0.498168	-0.112389
C62	C	1.069256	-0.546924	-0.112335
H63	H	0.905131	-0.508545	-0.203116
H64	H	0.904961	-0.508597	-0.021810
H65	H	0.975584	-0.441226	-0.112317
H66	H	1.050171	-0.603884	-0.112453
H67	H	1.120657	-0.536435	-0.202906
O68	O	1.139981	-0.233570	-0.000086
C69	C	1.017934	-0.306547	-0.112361
C70	C	1.132653	-0.275180	-0.112293
H71	H	1.011962	-0.340184	-0.203085
H72	H	1.011919	-0.340304	-0.021778
H73	H	0.944949	-0.262328	-0.112308
H74	H	1.205704	-0.319353	-0.112392
H75	H	1.138569	-0.241405	-0.202868
H76	H	1.159459	-0.096881	0.000091
