data_functionalizedCrystal
_audit_creation_method	'MofGen! by Chris Wilmer'
_symmetry_space_group_name_H-M	'P1'
_symmetry_Int_Tables_number	1
_symmetry_cell_setting	triclinic
loop_
_symmetry_equiv_pos_as_xyz
  x,y,z
_cell_length_a	27.732048
_cell_length_b	27.732048
_cell_length_c	12.996460
_cell_angle_alpha	90.005247
_cell_angle_beta	90.000676
_cell_angle_gamma	82.642655
loop_
_atom_site_label
_atom_site_type_symbol
_atom_site_fract_x
_atom_site_fract_y
_atom_site_fract_z
O1	O	0.640929	0.057514	0.085445
O2	O	0.890929	0.307514	0.335445
O3	O	1.140929	0.557514	0.585445
O4	O	1.390929	0.807514	0.835445
O5	O	0.500135	0.066259	0.085478
O6	O	0.750135	0.316259	0.335478
O7	O	1.000135	0.566259	0.585478
O8	O	1.250135	0.816259	0.835478
O9	O	0.574905	-0.008510	0.085441
O10	O	0.824905	0.241490	0.335441
O11	O	1.074905	0.491490	0.585441
O12	O	1.324905	0.741490	0.835441
O13	O	0.566159	0.132283	0.085482
O14	O	0.816159	0.382283	0.335482
O15	O	1.066159	0.632283	0.585482
O16	O	1.316159	0.882283	0.835482
O17	O	0.574895	-0.008506	-0.085693
O18	O	0.824895	0.241494	0.164307
O19	O	1.074895	0.491494	0.414307
O20	O	1.324895	0.741494	0.664307
O21	O	0.500126	0.066264	-0.085656
O22	O	0.750126	0.316264	0.164344
O23	O	1.000126	0.566264	0.414344
O24	O	1.250126	0.816264	0.664344
O25	O	0.640919	0.057518	-0.085689
O26	O	0.890919	0.307518	0.164311
O27	O	1.140919	0.557518	0.414311
O28	O	1.390919	0.807518	0.664311
Cu29	Cu	0.570522	0.061891	-0.101298
Cu30	Cu	0.820522	0.311891	0.148702
Cu31	Cu	1.070522	0.561891	0.398702
Cu32	Cu	1.320522	0.811891	0.648702
Cu33	Cu	0.570533	0.061886	0.101087
Cu34	Cu	0.820533	0.311886	0.351087
Cu35	Cu	1.070533	0.561886	0.601087
Cu36	Cu	1.320533	0.811886	0.851087
O37	O	0.566150	0.132288	-0.085652
O38	O	0.816150	0.382288	0.164348
O39	O	1.066150	0.632288	0.414348
O40	O	1.316150	0.882288	0.664348
C41	C	0.482124	0.066078	-0.000085
C42	C	0.732124	0.316078	0.249915
C43	C	0.982124	0.566078	0.499915
C44	C	1.232124	0.816078	0.749915
C45	C	0.428469	0.065525	-0.000073
C46	C	0.678469	0.315525	0.249927
C47	C	0.928469	0.565525	0.499927
C48	C	1.178469	0.815525	0.749927
C49	C	0.089654	0.106229	-0.000106
C50	C	0.339654	0.356229	0.249894
C51	C	0.589654	0.606229	0.499894
C52	C	0.839654	0.856229	0.749894
C53	C	-0.112006	0.104178	-0.000116
C54	C	0.137994	0.354178	0.249884
C55	C	0.387994	0.604178	0.499884
C56	C	0.637994	0.854178	0.749884
O57	O	-0.143262	0.141398	-0.000150
O58	O	0.106738	0.391398	0.249850
O59	O	0.356738	0.641398	0.499850
O60	O	0.606738	0.891398	0.749850
N61	N	-0.131130	0.059843	-0.000127
N62	N	0.118870	0.309843	0.249873
N63	N	0.368870	0.559843	0.499873
N64	N	0.618870	0.809843	0.749873
C65	C	-0.099835	0.016017	-0.000143
C66	C	0.150165	0.266017	0.249857
C67	C	0.400165	0.516017	0.499857
C68	C	0.650165	0.766017	0.749857
O69	O	-0.120728	-0.021740	-0.000163
O70	O	0.129272	0.228260	0.249837
O71	O	0.379272	0.478260	0.499837
O72	O	0.629272	0.728260	0.749837
C73	C	0.101824	0.018068	-0.000140
C74	C	0.351824	0.268068	0.249860
C75	C	0.601824	0.518068	0.499860
C76	C	0.851824	0.768068	0.749860
C77	C	0.120944	0.062407	-0.000119
C78	C	0.370944	0.312407	0.249881
C79	C	0.620944	0.562407	0.499881
C80	C	0.870944	0.812407	0.749881
C81	C	0.108775	0.150563	-0.000086
C82	C	0.358775	0.400563	0.249914
C83	C	0.608775	0.650563	0.499914
C84	C	0.858775	0.900563	0.749914
C85	C	0.159187	0.151075	-0.000078
C86	C	0.409187	0.401075	0.249922
C87	C	0.659187	0.651075	0.499922
C88	C	0.909187	0.901075	0.749922
C89	C	0.190477	0.107253	-0.000090
C90	C	0.440477	0.357253	0.249910
C91	C	0.690477	0.607253	0.499910
C92	C	0.940477	0.857253	0.749910
C93	C	0.171356	0.062919	-0.000110
C94	C	0.421356	0.312919	0.249890
C95	C	0.671356	0.562919	0.499890
C96	C	0.921356	0.812919	0.749890
C97	C	0.133117	-0.025757	-0.000163
C98	C	0.383117	0.224243	0.249837
C99	C	0.633117	0.474243	0.499837
C100	C	0.883117	0.724243	0.749837
C101	C	0.183535	-0.025240	-0.000165
C102	C	0.433535	0.224760	0.249835
C103	C	0.683535	0.474760	0.499835
C104	C	0.933535	0.724760	0.749835
C105	C	0.202655	0.019098	-0.000143
C106	C	0.452655	0.269098	0.249857
C107	C	0.702655	0.519098	0.499857
C108	C	0.952655	0.769098	0.749857
C109	C	0.253059	0.019609	-0.000115
C110	C	0.503059	0.269609	0.249885
C111	C	0.753059	0.519609	0.499885
C112	C	1.003059	0.769609	0.749885
N113	N	0.272183	0.063944	-0.000104
N114	N	0.522183	0.313944	0.249896
N115	N	0.772183	0.563944	0.499896
N116	N	1.022183	0.813944	0.749896
C117	C	0.240892	0.107766	-0.000091
C118	C	0.490892	0.357766	0.249909
C119	C	0.740892	0.607766	0.499909
C120	C	0.990892	0.857766	0.749909
C121	C	-0.205709	0.014943	-0.000142
C122	C	0.044291	0.264943	0.249858
C123	C	0.294291	0.514943	0.499858
C124	C	0.544291	0.764943	0.749858
C125	C	-0.256124	0.014430	-0.000141
C126	C	-0.006124	0.264430	0.249859
C127	C	0.243876	0.514430	0.499859
C128	C	0.493876	0.764430	0.749859
C129	C	-0.268291	0.102591	-0.000116
C130	C	-0.018291	0.352591	0.249884
C131	C	0.231709	0.602591	0.499884
C132	C	0.481709	0.852591	0.749884
C133	C	-0.217876	0.103104	-0.000110
C134	C	0.032124	0.353104	0.249890
C135	C	0.282124	0.603104	0.499890
C136	C	0.532124	0.853104	0.749890
C137	C	-0.186585	0.059278	-0.000131
C138	C	0.063415	0.309278	0.249869
C139	C	0.313415	0.559278	0.499869
C140	C	0.563415	0.809278	0.749869
C141	C	0.346761	0.108839	-0.000073
C142	C	0.596761	0.358839	0.249927
C143	C	0.846761	0.608839	0.499927
C144	C	1.096761	0.858839	0.749927
C145	C	0.397178	0.109347	-0.000061
C146	C	0.647178	0.359347	0.249939
C147	C	0.897178	0.609347	0.499939
C148	C	1.147178	0.859347	0.749939
C149	C	0.409341	0.021186	-0.000091
C150	C	0.659341	0.271186	0.249909
C151	C	0.909341	0.521186	0.499909
C152	C	1.159341	0.771186	0.749909
C153	C	0.358929	0.020678	-0.000098
C154	C	0.608929	0.270678	0.249902
C155	C	0.858929	0.520678	0.499902
C156	C	1.108929	0.770678	0.749902
C157	C	0.327639	0.064508	-0.000093
C158	C	0.577639	0.314508	0.249907
C159	C	0.827639	0.564508	0.499907
C160	C	1.077639	0.814508	0.749907
O161	O	0.284343	-0.017592	-0.000093
O162	O	0.534343	0.232408	0.249907
O163	O	0.784343	0.482408	0.499907
O164	O	1.034343	0.732408	0.749907
O165	O	0.261794	0.145518	-0.000094
O166	O	0.511794	0.395518	0.249906
O167	O	0.761794	0.645518	0.499906
O168	O	1.011794	0.895518	0.749906
C169	C	0.039242	0.105716	-0.000114
C170	C	0.289242	0.355716	0.249886
C171	C	0.539242	0.605716	0.499886
C172	C	0.789242	0.855716	0.749886
C173	C	0.020120	0.061382	-0.000135
C174	C	0.270120	0.311382	0.249865
C175	C	0.520120	0.561382	0.499865
C176	C	0.770120	0.811382	0.749865
C177	C	0.051411	0.017560	-0.000147
C178	C	0.301411	0.267560	0.249853
C179	C	0.551411	0.517560	0.499853
C180	C	0.801411	0.767560	0.749853
C181	C	-0.030294	0.060869	-0.000133
C182	C	0.219706	0.310869	0.249867
C183	C	0.469706	0.560869	0.499867
C184	C	0.719706	0.810869	0.749867
C185	C	-0.061585	0.104691	-0.000121
C186	C	0.188415	0.354691	0.249879
C187	C	0.438415	0.604691	0.499879
C188	C	0.688415	0.854691	0.749879
C189	C	-0.042461	0.149026	-0.000110
C190	C	0.207539	0.399026	0.249890
C191	C	0.457539	0.649026	0.499890
C192	C	0.707539	0.899026	0.749890
C193	C	0.007951	0.149539	-0.000102
C194	C	0.257951	0.399539	0.249898
C195	C	0.507951	0.649539	0.499898
C196	C	0.757951	0.899539	0.749898
C197	C	0.032287	-0.026775	-0.000158
C198	C	0.282287	0.223225	0.249842
C199	C	0.532287	0.473225	0.499842
C200	C	0.782287	0.723225	0.749842
C201	C	-0.018125	-0.027284	-0.000165
C202	C	0.231875	0.222716	0.249835
C203	C	0.481875	0.472716	0.499835
C204	C	0.731875	0.722716	0.749835
C205	C	-0.049416	0.016538	-0.000153
C206	C	0.200584	0.266538	0.249847
C207	C	0.450584	0.516538	0.499847
C208	C	0.700584	0.766538	0.749847
C209	C	0.574716	-0.026515	-0.000129
C210	C	0.824716	0.223485	0.249871
C211	C	1.074716	0.473485	0.499871
C212	C	1.324716	0.723485	0.749871
C213	C	0.574164	-0.080170	-0.000137
C214	C	0.824164	0.169830	0.249863
C215	C	1.074164	0.419830	0.499863
C216	C	1.324164	0.669830	0.749863
C217	C	0.614867	-0.418985	-0.000094
C218	C	0.864867	-0.168985	0.249906
C219	C	1.114867	0.081015	0.499906
C220	C	1.364867	0.331015	0.749906
C221	C	0.612816	-0.620645	-0.000079
C222	C	0.862816	-0.370645	0.249921
C223	C	1.112816	-0.120645	0.499921
C224	C	1.362816	0.129355	0.749921
O225	O	0.650037	-0.651900	-0.000042
O226	O	0.900037	-0.401900	0.249958
O227	O	1.150037	-0.151900	0.499958
O228	O	1.400037	0.098100	0.749958
N229	N	0.568481	-0.639768	-0.000070
N230	N	0.818481	-0.389768	0.249930
N231	N	1.068481	-0.139768	0.499930
N232	N	1.318481	0.110232	0.749930
C233	C	0.524656	-0.608474	-0.000057
C234	C	0.774656	-0.358474	0.249943
C235	C	1.024656	-0.108474	0.499943
C236	C	1.274656	0.141526	0.749943
O237	O	0.486899	-0.629367	-0.000038
O238	O	0.736899	-0.379367	0.249962
O239	O	0.986899	-0.129367	0.499962
O240	O	1.236899	0.120633	0.749962
C241	C	0.526707	-0.406815	-0.000065
C242	C	0.776707	-0.156815	0.249935
C243	C	1.026707	0.093185	0.499935
C244	C	1.276707	0.343185	0.749935
C245	C	0.571045	-0.387694	-0.000084
C246	C	0.821045	-0.137694	0.249916
C247	C	1.071045	0.112306	0.499916
C248	C	1.321045	0.362306	0.749916
C249	C	0.659202	-0.399864	-0.000112
C250	C	0.909202	-0.149864	0.249888
C251	C	1.159202	0.100136	0.499888
C252	C	1.409202	0.350136	0.749888
C253	C	0.659714	-0.349452	-0.000122
C254	C	0.909714	-0.099452	0.249878
C255	C	1.159714	0.150548	0.499878
C256	C	1.409714	0.400548	0.749878
C257	C	0.615892	-0.318161	-0.000112
C258	C	0.865892	-0.068161	0.249888
C259	C	1.115892	0.181839	0.499888
C260	C	1.365892	0.431839	0.749888
C261	C	0.571557	-0.337282	-0.000094
C262	C	0.821557	-0.087282	0.249906
C263	C	1.071557	0.162718	0.499906
C264	C	1.321557	0.412718	0.749906
C265	C	0.482882	-0.375521	-0.000045
C266	C	0.732882	-0.125521	0.249955
C267	C	0.982882	0.124479	0.499955
C268	C	1.232882	0.374479	0.749955
C269	C	0.483399	-0.325104	-0.000044
C270	C	0.733399	-0.075104	0.249956
C271	C	0.983399	0.174896	0.499956
C272	C	1.233399	0.424896	0.749956
C273	C	0.527737	-0.305983	-0.000064
C274	C	0.777737	-0.055983	0.249936
C275	C	1.027737	0.194017	0.499936
C276	C	1.277737	0.444017	0.749936
C277	C	0.528247	-0.255580	-0.000094
C278	C	0.778247	-0.005580	0.249906
C279	C	1.028247	0.244420	0.499906
C280	C	1.278247	0.494420	0.749906
N281	N	0.572583	-0.236456	-0.000103
N282	N	0.822583	0.013544	0.249897
N283	N	1.072583	0.263544	0.499897
N284	N	1.322583	0.513544	0.749897
C285	C	0.616405	-0.267747	-0.000112
C286	C	0.866405	-0.017747	0.249888
C287	C	1.116405	0.232253	0.499888
C288	C	1.366405	0.482253	0.749888
C289	C	0.523582	-0.714348	-0.000055
C290	C	0.773582	-0.464348	0.249945
C291	C	1.023582	-0.214348	0.499945
C292	C	1.273582	0.035652	0.749945
C293	C	0.523069	-0.764762	-0.000055
C294	C	0.773069	-0.514762	0.249945
C295	C	1.023069	-0.264762	0.499945
C296	C	1.273069	-0.014762	0.749945
C297	C	0.611230	-0.776930	-0.000075
C298	C	0.861230	-0.526930	0.249925
C299	C	1.111230	-0.276930	0.499925
C300	C	1.361230	-0.026930	0.749925
C301	C	0.611742	-0.726514	-0.000082
C302	C	0.861742	-0.476514	0.249918
C303	C	1.111742	-0.226514	0.499918
C304	C	1.361742	0.023486	0.749918
C305	C	0.567917	-0.695224	-0.000065
C306	C	0.817917	-0.445224	0.249935
C307	C	1.067917	-0.195224	0.499935
C308	C	1.317917	0.054776	0.749935
C309	C	0.617477	-0.161878	-0.000133
C310	C	0.867477	0.088122	0.249867
C311	C	1.117477	0.338122	0.499867
C312	C	1.367477	0.588122	0.749867
C313	C	0.617986	-0.111461	-0.000146
C314	C	0.867986	0.138539	0.249854
C315	C	1.117986	0.388539	0.499854
C316	C	1.367986	0.638539	0.749854
C317	C	0.529825	-0.099298	-0.000121
C318	C	0.779825	0.150702	0.249879
C319	C	1.029825	0.400702	0.499879
C320	C	1.279825	0.650702	0.749879
C321	C	0.529316	-0.149710	-0.000113
C322	C	0.779316	0.100290	0.249887
C323	C	1.029316	0.350290	0.499887
C324	C	1.279316	0.600290	0.749887
C325	C	0.573147	-0.180999	-0.000115
C326	C	0.823147	0.069001	0.249885
C327	C	1.073147	0.319001	0.499885
C328	C	1.323147	0.569001	0.749885
O329	O	0.491047	-0.224296	-0.000119
O330	O	0.741047	0.025704	0.249881
O331	O	0.991047	0.275704	0.499881
O332	O	1.241047	0.525704	0.749881
O333	O	0.654156	-0.246844	-0.000108
O334	O	0.904156	0.003156	0.249892
O335	O	1.154156	0.253156	0.499892
O336	O	1.404156	0.503156	0.749892
C337	C	0.614355	-0.469397	-0.000084
C338	C	0.864355	-0.219397	0.249916
C339	C	1.114355	0.030603	0.499916
C340	C	1.364355	0.280603	0.749916
C341	C	0.570021	-0.488518	-0.000066
C342	C	0.820021	-0.238518	0.249934
C343	C	1.070021	0.011482	0.499934
C344	C	1.320021	0.261482	0.749934
C345	C	0.526198	-0.457228	-0.000056
C346	C	0.776198	-0.207228	0.249944
C347	C	1.026198	0.042772	0.499944
C348	C	1.276198	0.292772	0.749944
C349	C	0.569508	-0.538933	-0.000066
C350	C	0.819508	-0.288933	0.249934
C351	C	1.069508	-0.038933	0.499934
C352	C	1.319508	0.211067	0.749934
C353	C	0.613330	-0.570223	-0.000075
C354	C	0.863330	-0.320223	0.249925
C355	C	1.113330	-0.070223	0.499925
C356	C	1.363330	0.179777	0.749925
C357	C	0.657665	-0.551100	-0.000084
C358	C	0.907665	-0.301100	0.249916
C359	C	1.157665	-0.051100	0.499916
C360	C	1.407665	0.198900	0.749916
C361	C	0.658177	-0.500688	-0.000094
C362	C	0.908177	-0.250688	0.249906
C363	C	1.158177	-0.000688	0.499906
C364	C	1.408177	0.249312	0.749906
C365	C	0.481863	-0.476351	-0.000047
C366	C	0.731863	-0.226351	0.249953
C367	C	0.981863	0.023649	0.499953
C368	C	1.231863	0.273649	0.749953
C369	C	0.481355	-0.526764	-0.000039
C370	C	0.731355	-0.276764	0.249961
C371	C	0.981355	-0.026764	0.499961
C372	C	1.231355	0.223236	0.749961
C373	C	0.525177	-0.558054	-0.000048
C374	C	0.775177	-0.308054	0.249952
C375	C	1.025177	-0.058054	0.499952
C376	C	1.275177	0.191946	0.749952
C377	C	0.658931	0.057699	-0.000123
C378	C	0.908931	0.307699	0.249877
C379	C	1.158931	0.557699	0.499877
C380	C	1.408931	0.807699	0.749877
C381	C	0.712586	0.058252	-0.000128
C382	C	0.962586	0.308252	0.249872
C383	C	1.212586	0.558252	0.499872
C384	C	1.462586	0.808252	0.749872
C385	C	0.566338	0.150292	-0.000080
C386	C	0.816338	0.400292	0.249920
C387	C	1.066338	0.650292	0.499920
C388	C	1.316338	0.900292	0.749920
C389	C	0.566891	0.203947	-0.000065
C390	C	0.816891	0.453947	0.249935
C391	C	1.066891	0.703947	0.499935
C392	C	1.316891	0.953947	0.749935
N393	N	0.570517	0.061895	-0.243645
N394	N	0.820517	0.311895	0.006355
N395	N	1.070517	0.561895	0.256355
N396	N	1.320517	0.811895	0.506355
C397	C	0.570519	0.061896	-0.336751
C398	C	0.820519	0.311896	-0.086751
C399	C	1.070519	0.561896	0.163249
C400	C	1.320519	0.811896	0.413249
C401	C	0.570524	0.061892	-0.453556
C402	C	0.820524	0.311892	-0.203556
C403	C	1.070524	0.561892	0.046444
C404	C	1.320524	0.811892	0.296444
C405	C	0.570530	0.061887	-0.546655
C406	C	0.820530	0.311887	-0.296655
C407	C	1.070530	0.561887	-0.046655
C408	C	1.320530	0.811887	0.203345
C409	C	0.570535	0.061884	-0.663467
C410	C	0.820535	0.311884	-0.413467
C411	C	1.070535	0.561884	-0.163467
C412	C	1.320535	0.811884	0.086533
N413	N	0.570541	0.061879	0.243435
N414	N	0.820541	0.311879	0.493435
N415	N	1.070541	0.561879	0.743435
N416	N	1.320541	0.811879	0.993435
H417	H	0.117558	-0.061861	-0.000181
H418	H	0.367558	0.188139	0.249819
H419	H	0.617558	0.438139	0.499819
H420	H	0.867558	0.688139	0.749819
F421	F	0.476933	-0.681052	-0.000036
F422	F	0.726933	-0.431052	0.249964
F423	F	0.976933	-0.181052	0.499964
F424	F	1.226933	0.068948	0.749964
F425	F	-0.197531	0.150294	-0.000089
F426	F	0.052469	0.400294	0.249911
F427	F	0.302469	0.650294	0.499911
F428	F	0.552469	0.900294	0.749911
H429	H	0.647846	-0.710950	-0.000098
H430	H	0.897846	-0.460950	0.249902
H431	H	1.147846	-0.210950	0.499902
H432	H	1.397846	0.039050	0.749902
F433	F	-0.075772	0.195665	-0.000091
F434	F	0.174228	0.445665	0.249909
F435	F	0.424228	0.695665	0.499909
F436	F	0.674228	0.945665	0.749909
F437	F	0.216833	-0.071886	-0.000190
F438	F	0.466833	0.178114	0.249810
F439	F	0.716833	0.428114	0.499810
F440	F	0.966833	0.678114	0.749810
F441	F	0.705848	-0.433159	-0.000121
F442	F	0.955848	-0.183159	0.249879
F443	F	1.205848	0.066841	0.499879
F444	F	1.455848	0.316841	0.749879
H445	H	0.646911	-0.802415	-0.000083
H446	H	0.896911	-0.552415	0.249917
H447	H	1.146911	-0.302415	0.499917
H448	H	1.396911	-0.052415	0.749917
H449	H	0.694282	-0.485125	-0.000109
H450	H	0.944282	-0.235125	0.249891
H451	H	1.194282	0.014875	0.499891
H452	H	1.444282	0.264875	0.749891
F453	F	0.435691	-0.395860	-0.000019
F454	F	0.685691	-0.145860	0.249981
F455	F	0.935691	0.104140	0.499981
F456	F	1.185691	0.354140	0.749981
H457	H	0.447710	-0.299629	-0.000028
H458	H	0.697710	-0.049629	0.249972
H459	H	0.947710	0.200371	0.499972
H460	H	1.197710	0.450371	0.749972
H461	H	0.174750	0.187180	-0.000060
H462	H	0.424750	0.437180	0.249940
H463	H	0.674750	0.687180	0.499940
H464	H	0.924750	0.937180	0.749940
F465	F	-0.038469	-0.074478	-0.000175
F466	F	0.211531	0.175522	0.249825
F467	F	0.461531	0.425522	0.499825
F468	F	0.711531	0.675522	0.749825
F469	F	0.065583	-0.073420	-0.000173
F470	F	0.315583	0.176580	0.249827
F471	F	0.565583	0.426580	0.499827
F472	F	0.815583	0.676580	0.749827
H473	H	0.321291	0.144530	-0.000072
H474	H	0.571291	0.394530	0.249928
H475	H	0.821291	0.644530	0.499928
H476	H	1.071291	0.894530	0.749928
H477	H	0.486964	-0.780325	-0.000057
H478	H	0.736964	-0.530325	0.249943
H479	H	0.986964	-0.280325	0.499943
H480	H	1.236964	-0.030325	0.749943
F481	F	0.338578	-0.026511	-0.000122
F482	F	0.588578	0.223489	0.249878
F483	F	0.838578	0.473489	0.499878
F484	F	1.088578	0.723489	0.749878
H485	H	0.083302	0.186251	-0.000079
H486	H	0.333302	0.436251	0.249921
H487	H	0.583302	0.686251	0.499921
H488	H	0.833302	0.936251	0.749921
H489	H	0.493213	-0.165279	-0.000126
H490	H	0.743213	0.084721	0.249874
H491	H	0.993213	0.334721	0.499874
H492	H	1.243213	0.584721	0.749874
F493	F	-0.276468	-0.032761	-0.000140
F494	F	-0.026468	0.217239	0.249860
F495	F	0.223532	0.467239	0.499860
F496	F	0.473532	0.717239	0.749860
H497	H	0.695819	-0.333889	-0.000134
H498	H	0.945819	-0.083889	0.249866
H499	H	1.195819	0.166111	0.499866
H500	H	1.445819	0.416111	0.749866
H501	H	0.494146	-0.073812	-0.000117
H502	H	0.744146	0.176188	0.249883
H503	H	0.994146	0.426188	0.499883
H504	H	1.244146	0.676188	0.749883
F505	F	0.028294	0.196730	-0.000079
F506	F	0.278294	0.446730	0.249921
F507	F	0.528294	0.696730	0.499921
F508	F	0.778294	0.946730	0.749921
F509	F	-0.301601	0.149230	-0.000104
F510	F	-0.051601	0.399230	0.249896
F511	F	0.198399	0.649230	0.499896
F512	F	0.448399	0.899230	0.749896
F513	F	-0.172413	-0.031705	-0.000163
F514	F	0.077587	0.218295	0.249837
F515	F	0.327587	0.468295	0.499837
F516	F	0.577587	0.718295	0.749837
H517	H	0.693347	-0.576585	-0.000096
H518	H	0.943347	-0.326585	0.249904
H519	H	1.193347	-0.076585	0.499904
H520	H	1.443347	0.173415	0.749904
F521	F	0.434160	-0.547107	-0.000025
F522	F	0.684160	-0.297107	0.249975
F523	F	0.934160	-0.047107	0.499975
F524	F	1.184160	0.202893	0.749975
H525	H	0.654093	-0.095896	-0.000165
H526	H	0.904093	0.154104	0.249835
H527	H	1.154093	0.404104	0.499835
H528	H	1.404093	0.654104	0.749835
H529	H	0.434827	-0.014492	-0.000097
H530	H	0.684827	0.235508	0.249903
H531	H	0.934827	0.485508	0.499903
H532	H	1.184827	0.735508	0.749903
F533	F	0.435219	-0.443055	-0.000034
F534	F	0.685219	-0.193055	0.249966
F535	F	0.935219	0.056945	0.499966
F536	F	1.185219	0.306945	0.749966
H537	H	0.412743	0.145454	-0.000043
H538	H	0.662743	0.395454	0.249957
H539	H	0.912743	0.645454	0.499957
H540	H	1.162743	0.895454	0.749957
F541	F	0.664126	-0.195171	-0.000135
F542	F	0.914126	0.054829	0.249865
F543	F	1.164126	0.304829	0.499865
F544	F	1.414126	0.554829	0.749865
