data_functionalizedCrystal
_audit_creation_method	'MofGen! by Chris Wilmer'
_symmetry_space_group_name_H-M	'P1'
_symmetry_Int_Tables_number	1
_symmetry_cell_setting	triclinic
loop_
_symmetry_equiv_pos_as_xyz
  x,y,z
_cell_length_a	10.654550
_cell_length_b	12.837942
_cell_length_c	9.130313
_cell_angle_alpha	89.996012
_cell_angle_beta	89.999724
_cell_angle_gamma	89.656935
loop_
_atom_site_label
_atom_site_type_symbol
_atom_site_fract_x
_atom_site_fract_y
_atom_site_fract_z
O1	O	1.683741	0.145723	-0.121688
O2	O	1.319778	0.159606	-0.121715
O3	O	1.493689	0.001704	-0.121693
O4	O	1.509830	0.303626	-0.121710
O5	O	1.493675	0.001699	0.121906
O6	O	1.319764	0.159602	0.121884
O7	O	1.683728	0.145718	0.121911
Cu8	Cu	1.501745	0.152660	0.144140
Cu9	Cu	1.501761	0.152665	-0.143944
O10	O	1.509816	0.303621	0.121889
C11	C	1.272862	0.158585	0.000081
C12	C	1.133086	0.155535	0.000071
C13	C	1.063746	0.248505	0.000070
C14	C	0.932411	0.245633	0.000096
C15	C	0.939770	0.056812	0.000117
C16	C	1.071101	0.059685	0.000102
C17	C	1.488230	-0.036958	0.000105
C18	C	1.471967	-0.152152	0.000101
C19	C	1.667472	-0.391705	0.000085
C20	C	1.652197	-0.499941	0.000082
C21	C	1.426146	-0.476861	0.000080
C22	C	1.441420	-0.368626	0.000084
C23	C	1.562087	-0.326052	0.000088
C24	C	1.577360	-0.217814	0.000103
C25	C	1.351309	-0.194737	0.000091
C26	C	1.336035	-0.302972	0.000087
C27	C	1.730644	0.146740	0.000111
C28	C	1.870420	0.149790	0.000112
C29	C	1.515276	0.342283	0.000087
C30	C	1.531538	0.457477	0.000081
N31	N	1.501742	0.152655	0.346762
N32	N	1.501772	0.152661	-0.346567
C33	C	1.578782	0.082766	0.423424
C34	C	1.578794	0.082766	0.576761
C35	C	1.424723	0.222554	0.576761
C36	C	1.424706	0.222548	0.423427
H37	H	0.889286	-0.021225	0.000151
C38	C	1.146173	-0.041374	0.000027
C39	C	1.063783	-0.125930	0.000006
C40	C	1.132894	-0.219037	-0.000077
H41	H	1.197575	-0.044323	0.084948
H42	H	1.197528	-0.044234	-0.084960
H43	H	1.012450	-0.123073	0.084984
H44	H	1.012380	-0.123016	-0.084908
H45	H	1.184249	-0.221896	-0.085064
H46	H	1.184293	-0.221975	0.084845
H47	H	1.077003	-0.276419	-0.000104
H48	H	0.875960	0.321340	0.000098
C49	C	1.662578	0.006842	0.659728
C50	C	1.730056	-0.054347	0.559763
C51	C	1.807264	-0.124295	0.636138
H52	H	1.612343	-0.036795	0.719562
H53	H	1.719433	0.044544	0.719500
H54	H	1.673208	-0.092047	0.500017
H55	H	1.780315	-0.010739	0.499927
H56	H	1.864119	-0.086592	0.695910
H57	H	1.757019	-0.167925	0.695969
H58	H	1.853065	-0.165813	0.568324
C59	C	1.766773	-0.571049	0.000156
C60	C	1.875710	-0.510593	0.000196
C61	C	1.981285	-0.576062	0.000282
H62	H	1.765691	-0.613769	-0.084770
H63	H	1.765584	-0.613741	0.085138
H64	H	1.876899	-0.467919	-0.084777
H65	H	1.876834	-0.467875	0.085116
H66	H	1.980096	-0.618754	0.085263
H67	H	1.980190	-0.618778	-0.084646
H68	H	2.055211	-0.535052	0.000322
H69	H	1.114209	0.326552	0.000056
C70	C	1.340878	0.298317	0.659928
C71	C	1.215347	0.280518	0.622686
C72	C	1.138072	0.350282	0.699282
H73	H	1.362635	0.367711	0.634848
H74	H	1.351839	0.288305	0.762242
H75	H	1.204392	0.290538	0.520395
H76	H	1.193551	0.211137	0.647769
H77	H	1.149033	0.340271	0.801596
H78	H	1.159841	0.419672	0.674197
H79	H	1.052890	0.338209	0.674035
C80	C	1.341223	0.298604	0.340263
C81	C	1.373822	0.400719	0.377505
C82	C	1.296957	0.470802	0.300909
H83	H	1.255954	0.286832	0.365344
H84	H	1.352257	0.288658	0.237949
H85	H	1.362777	0.410660	0.479796
H86	H	1.459078	0.412523	0.352419
H87	H	1.307991	0.460857	0.198595
H88	H	1.211693	0.459021	0.325997
H89	H	1.319073	0.540095	0.326157
H90	H	1.675613	-0.183153	0.000112
H91	H	1.765723	-0.357041	0.000103
H92	H	1.327904	-0.511544	0.000061
H93	H	1.237791	-0.337651	0.000078
H94	H	1.641508	0.025853	0.361007
H95	H	1.265497	-0.141269	0.000105
