data_functionalizedCrystal
_audit_creation_method	'MofGen! by Chris Wilmer'
_symmetry_space_group_name_H-M	'P1'
_symmetry_Int_Tables_number	1
_symmetry_cell_setting	triclinic
loop_
_symmetry_equiv_pos_as_xyz
  x,y,z
_cell_length_a	14.519709
_cell_length_b	27.732048
_cell_length_c	13.596369
_cell_angle_alpha	89.989067
_cell_angle_beta	90.000291
_cell_angle_gamma	83.161400
loop_
_atom_site_label
_atom_site_type_symbol
_atom_site_fract_x
_atom_site_fract_y
_atom_site_fract_z
O1	O	1.222766	0.063362	-0.081675
O2	O	1.722766	0.563362	0.418325
O3	O	0.954159	0.070824	-0.081706
O4	O	1.454159	0.570824	0.418294
O5	O	1.096805	-0.003264	-0.081671
O6	O	1.596805	0.496736	0.418329
O7	O	1.080120	0.137450	-0.081710
O8	O	1.580120	0.637450	0.418290
O9	O	1.096791	-0.003268	0.081912
O10	O	1.596791	0.496732	0.581912
O11	O	0.954145	0.070820	0.081877
O12	O	1.454145	0.570820	0.581877
O13	O	1.222752	0.063358	0.081908
O14	O	1.722752	0.563358	0.581908
Zn15	Zn	1.088446	0.067088	0.107865
Zn16	Zn	1.588446	0.567088	0.607865
Zn17	Zn	1.088465	0.067094	-0.107663
Zn18	Zn	1.588465	0.567094	0.392337
O19	O	1.080106	0.137446	0.081873
O20	O	1.580106	0.637446	0.581873
C21	C	0.919799	0.070474	0.000082
C22	C	1.419799	0.570474	0.500082
C23	C	0.817435	0.069432	0.000071
C24	C	1.317435	0.569432	0.500071
C25	C	0.442606	0.065596	0.000116
C26	C	0.942606	0.565596	0.500116
C27	C	0.546896	0.066661	0.000103
C28	C	1.046896	0.566661	0.500103
C29	C	0.630018	0.067514	0.000093
C30	C	1.130018	0.567514	0.500093
C31	C	0.734314	0.068579	0.000081
C32	C	1.234314	0.568579	0.500081
C33	C	1.096448	-0.021274	0.000124
C34	C	1.596448	0.478726	0.500124
C35	C	1.095393	-0.074934	0.000132
C36	C	1.595393	0.425066	0.500132
C37	C	1.173048	-0.413378	0.000090
C38	C	1.673048	0.086622	0.500090
C39	C	1.169135	-0.615057	0.000076
C40	C	1.669135	-0.115057	0.500076
O41	O	1.240145	-0.645973	0.000041
O42	O	1.740145	-0.145973	0.500041
N43	N	1.084552	-0.634585	0.000067
N44	N	1.584552	-0.134585	0.500067
C45	C	1.000941	-0.603690	0.000055
C46	C	1.500941	-0.103690	0.500055
O47	O	0.928909	-0.624927	0.000037
O48	O	1.428909	-0.124927	0.500037
C49	C	1.004855	-0.402012	0.000062
C50	C	1.504855	0.097988	0.500062
C51	C	1.089444	-0.382487	0.000081
C52	C	1.589444	0.117513	0.500081
C53	C	1.257630	-0.393853	0.000108
C54	C	1.757630	0.106147	0.500108
C55	C	1.258607	-0.343436	0.000117
C56	C	1.758607	0.156564	0.500117
C57	C	1.175003	-0.312545	0.000108
C58	C	1.675003	0.187455	0.500108
C59	C	1.090421	-0.332071	0.000090
C60	C	1.590421	0.167929	0.500090
C61	C	0.921246	-0.371118	0.000043
C62	C	1.421246	0.128882	0.500043
C63	C	0.922232	-0.320696	0.000043
C64	C	1.422232	0.179304	0.500043
C65	C	1.006820	-0.301171	0.000062
C66	C	1.506820	0.198829	0.500062
C67	C	1.007794	-0.250763	0.000090
C68	C	1.507794	0.249237	0.500090
N69	N	1.092377	-0.231235	0.000099
N70	N	1.592377	0.268765	0.500099
C71	C	1.175981	-0.262126	0.000108
C72	C	1.675981	0.237874	0.500108
C73	C	0.998893	-0.709574	0.000053
C74	C	1.498893	-0.209574	0.500053
C75	C	0.997914	-0.759993	0.000053
C76	C	1.497914	-0.259993	0.500053
C77	C	1.166108	-0.771356	0.000072
C78	C	1.666108	-0.271356	0.500072
C79	C	1.167086	-0.720936	0.000079
C80	C	1.667086	-0.220936	0.500079
C81	C	1.083476	-0.690045	0.000062
C82	C	1.583476	-0.190045	0.500062
C83	C	1.178028	-0.156247	0.000128
C84	C	1.678028	0.343753	0.500128
C85	C	1.178998	-0.105825	0.000141
C86	C	1.678998	0.394175	0.500141
C87	C	1.010804	-0.094466	0.000116
C88	C	1.510804	0.405534	0.500116
C89	C	1.009833	-0.144883	0.000109
C90	C	1.509833	0.355117	0.500109
C91	C	1.093453	-0.175773	0.000111
C92	C	1.593453	0.324227	0.500111
O93	O	0.936822	-0.219818	0.000114
O94	O	1.436822	0.280182	0.500114
O95	O	1.248004	-0.240879	0.000104
O96	O	1.748004	0.259121	0.500104
C97	C	1.172071	-0.463795	0.000081
C98	C	1.672071	0.036205	0.500081
C99	C	1.087489	-0.483320	0.000063
C100	C	1.587489	0.016680	0.500063
C101	C	1.003885	-0.452429	0.000054
C102	C	1.503885	0.047571	0.500054
C103	C	1.086510	-0.533740	0.000063
C104	C	1.586510	-0.033740	0.500063
C105	C	1.170115	-0.564631	0.000072
C106	C	1.670115	-0.064631	0.500072
C107	C	1.254698	-0.545103	0.000081
C108	C	1.754698	-0.045103	0.500081
C109	C	1.255675	-0.494686	0.000090
C110	C	1.755675	0.005314	0.500090
C111	C	0.919302	-0.471957	0.000046
C112	C	1.419302	0.028043	0.500046
C113	C	0.918331	-0.522375	0.000038
C114	C	1.418331	-0.022375	0.500038
C115	C	1.001936	-0.553266	0.000047
C116	C	1.501936	-0.053266	0.500047
C117	C	1.257113	0.063708	0.000119
C118	C	1.757113	0.563708	0.500119
C119	C	1.359476	0.064750	0.000123
C120	C	1.859476	0.564750	0.500123
C121	C	1.080464	0.155456	0.000077
C122	C	1.580464	0.655456	0.500077
C123	C	1.081518	0.209116	0.000062
C124	C	1.581518	0.709116	0.500062
N125	N	1.088441	0.067085	0.254957
N126	N	1.588441	0.567085	0.754957
N127	N	1.088478	0.067094	-0.254754
N128	N	1.588478	0.567094	0.245246
C129	C	1.088464	0.067094	0.656248
C130	C	1.588464	0.567094	1.156248
C131	C	1.088454	0.067093	0.544596
C132	C	1.588454	0.567093	1.044596
C133	C	1.088453	0.067090	0.455606
C134	C	1.588453	0.567090	0.955606
C135	C	1.088442	0.067088	0.343947
C136	C	1.588442	0.567088	0.843947
H137	H	1.247882	-0.089931	0.000158
H138	H	1.747882	0.410069	0.500158
H139	H	0.930803	-0.684426	0.000040
H140	H	1.430803	-0.184426	0.500040
H141	H	0.942736	-0.069306	0.000113
H142	H	1.442736	0.430694	0.500113
H143	H	1.235965	-0.705043	0.000094
H144	H	1.735965	-0.205043	0.500094
O145	O	0.838994	-0.389996	-0.000023
O146	O	1.338994	0.110004	0.499977
C147	C	0.765425	-0.351911	-0.000013
C148	C	1.265425	0.148089	0.499987
H149	H	0.790797	-0.317636	-0.030971
H150	H	1.290797	0.182364	0.469029
H151	H	0.706330	-0.362491	-0.047523
H152	H	1.206330	0.137509	0.452477
H153	H	0.739658	-0.344807	0.078460
H154	H	1.239658	0.155193	0.578460
O155	O	1.259338	-0.186179	0.000177
O156	O	1.759338	0.313821	0.500177
C157	C	1.334192	-0.158125	0.000171
C158	C	1.834192	0.341875	0.500171
H159	H	1.310219	-0.120523	0.031140
H160	H	1.810219	0.379477	0.531140
H161	H	1.392724	-0.176667	0.047673
H162	H	1.892724	0.323333	0.547673
H163	H	1.360163	-0.154499	-0.078303
H164	H	1.860163	0.345501	0.421697
O165	O	1.337926	-0.475803	0.000058
O166	O	1.837926	0.024197	0.500058
C167	C	1.411497	-0.513888	0.000088
C168	C	1.911497	-0.013888	0.500088
H169	H	1.386136	-0.548156	-0.030886
H170	H	1.886136	-0.048156	0.469114
H171	H	1.470604	-0.503296	-0.047398
H172	H	1.970604	-0.003296	0.452602
H173	H	1.437244	-0.521008	0.078570
H174	H	1.937244	-0.021008	0.578570
O175	O	1.335888	-0.575135	-0.000087
O176	O	1.835888	-0.075135	0.499913
C177	C	1.340336	-0.604636	-0.084801
C178	C	1.840336	-0.104636	0.415199
H179	H	1.292915	-0.586205	-0.144015
H180	H	1.792915	-0.086205	0.355985
H181	H	1.414703	-0.610237	-0.113235
H182	H	1.914703	-0.110237	0.386765
H183	H	1.316989	-0.641321	-0.065655
H184	H	1.816989	-0.141321	0.434345
O185	O	0.838145	-0.441904	0.000171
O186	O	1.338145	0.058096	0.500171
C187	C	0.833657	-0.412420	0.084910
C188	C	1.333657	0.087580	0.584910
H189	H	0.906815	-0.409799	0.113162
H190	H	1.406815	0.090201	0.613162
H191	H	0.798745	-0.374559	0.065861
H192	H	1.298745	0.125441	0.565861
H193	H	0.791783	-0.429058	0.144228
H194	H	1.291783	0.070942	0.644228
H195	H	1.234182	-0.796516	0.000080
H196	H	1.734182	-0.296516	0.500080
O197	O	0.836131	-0.541314	-0.000154
O198	O	1.336131	-0.041314	0.499846
C199	C	0.785221	-0.525510	-0.084872
C200	C	1.285221	-0.025510	0.415128
H201	H	0.834710	-0.514970	-0.144071
H202	H	1.334710	-0.014970	0.355929
H203	H	0.746429	-0.556082	-0.113330
H204	H	1.246429	-0.056082	0.386670
H205	H	0.733357	-0.492700	-0.065722
H206	H	1.233357	0.007300	0.434278
O207	O	1.340858	-0.324553	0.000084
O208	O	1.840858	0.175447	0.500084
C209	C	1.414429	-0.362638	0.000113
C210	C	1.914429	0.137362	0.500113
H211	H	1.389068	-0.396907	-0.030860
H212	H	1.889068	0.103093	0.469140
H213	H	1.473535	-0.352047	-0.047375
H214	H	1.973535	0.147953	0.452625
H215	H	1.440177	-0.369758	0.078594
H216	H	1.940177	0.130242	0.578594
O217	O	0.841034	-0.290669	-0.000145
O218	O	1.341034	0.209331	0.499855
C219	C	0.836586	-0.261146	-0.084850
C220	C	1.336586	0.238854	0.415150
H221	H	0.884022	-0.279557	-0.144060
H222	H	1.384022	0.220443	0.355940
H223	H	0.762222	-0.255547	-0.113301
H224	H	1.262222	0.244453	0.386699
H225	H	0.859912	-0.224463	-0.065686
H226	H	1.359912	0.275537	0.434314
O227	O	0.927585	-0.163773	0.000050
O228	O	1.427585	0.336227	0.500050
C229	C	0.854005	-0.125693	0.000073
C230	C	1.354005	0.374307	0.500073
H231	H	0.879363	-0.091413	-0.030875
H232	H	1.379363	0.408587	0.469125
H233	H	0.794913	-0.136276	-0.047439
H234	H	1.294913	0.363724	0.452561
H235	H	0.828238	-0.118598	0.078549
H236	H	1.328238	0.381402	0.578549
H237	H	0.929034	-0.775885	0.000055
H238	H	1.429034	-0.275885	0.500055
H239	H	1.325714	-0.419000	0.000112
H240	H	1.825714	0.081000	0.500112
