data_functionalizedCrystal
_audit_creation_method	'MofGen! by Chris Wilmer'
_symmetry_space_group_name_H-M	'P1'
_symmetry_Int_Tables_number	1
_symmetry_cell_setting	triclinic
loop_
_symmetry_equiv_pos_as_xyz
  x,y,z
_cell_length_a	19.188930
_cell_length_b	11.026607
_cell_length_c	9.482900
_cell_angle_alpha	78.599815
_cell_angle_beta	99.271188
_cell_angle_gamma	95.865398
loop_
_atom_site_label
_atom_site_type_symbol
_atom_site_fract_x
_atom_site_fract_y
_atom_site_fract_z
O1	O	-0.953962	-0.132280	-0.121373
O2	O	-0.753241	-0.152676	-0.121274
O3	O	-0.836965	0.034085	-0.121310
O4	O	-0.870237	-0.319041	-0.121337
O5	O	-0.819978	-0.004003	0.120490
O6	O	-0.736254	-0.190764	0.120526
O7	O	-0.936975	-0.170367	0.120427
Cu8	Cu	-0.835063	-0.184043	0.142554
Cu9	Cu	-0.855152	-0.139000	-0.143402
O10	O	-0.853250	-0.357128	0.120463
C11	C	-0.718651	-0.171062	-0.000361
C12	C	-0.640892	-0.169087	-0.000323
C13	C	-0.822334	0.060219	-0.000409
C14	C	-0.804037	0.194835	-0.000405
C15	C	-0.971564	-0.151981	-0.000489
C16	C	-1.049325	-0.153954	-0.000537
C17	C	-0.609935	-0.278664	-0.000354
C18	C	-0.536876	-0.276800	-0.000370
C19	C	-0.494776	-0.165348	-0.000384
C20	C	-0.525740	-0.055758	-0.000345
C21	C	-0.598798	-0.057627	-0.000314
N22	N	-0.381724	-0.067188	-0.082731
N23	N	-0.312323	-0.065419	-0.082763
C24	C	-0.274657	-0.159710	-0.000472
N25	N	-0.309016	-0.255852	0.081833
N26	N	-0.378424	-0.257623	0.081859
C27	C	-0.415557	-0.163309	-0.000416
C28	C	-0.164481	-0.267274	-0.000519
C29	C	-0.091419	-0.265407	-0.000526
C30	C	-0.080286	-0.044360	-0.000515
C31	C	-0.153346	-0.046232	-0.000493
C32	C	-0.195440	-0.157691	-0.000502
C33	C	-0.867882	-0.383262	-0.000442
C34	C	-0.886179	-0.517877	-0.000455
N35	N	-0.820938	-0.215723	0.343681
C36	C	-0.854559	0.268913	-0.000432
C37	C	-0.835650	0.408047	-0.000428
N38	N	-0.869282	-0.107311	-0.344528
C39	C	-0.850981	-0.148338	0.415867
C40	C	-0.839235	-0.174705	0.583289
H41	H	-0.511666	-0.366034	-0.000391
H42	H	-0.911812	0.229329	-0.000451
H43	H	-0.903697	-0.030091	0.593333
O44	O	-0.186738	0.071960	-0.000465
H45	H	-0.226706	0.091918	-0.098997
O46	O	-0.058025	-0.383601	-0.000546
H47	H	-0.081652	-0.421422	-0.099109
O48	O	-0.775351	-0.318006	0.425979
H49	H	-0.773285	-0.322673	0.544564
H50	H	-0.644204	-0.369422	-0.000364
H51	H	-0.046016	0.046401	-0.000616
H52	H	-0.804813	-0.251917	0.645429
H53	H	-0.624001	0.031607	-0.000290
O54	O	-0.480339	0.064455	-0.000360
H55	H	-0.424337	0.047349	-0.000401
O56	O	-0.759803	0.460452	-0.000381
H57	H	-0.756851	0.561506	-0.000370
H58	H	-0.198755	-0.358034	-0.000505
O59	O	-0.962027	0.429725	-0.000497
H60	H	-0.965854	0.357278	0.098058
O61	O	-0.728195	0.247253	-0.000355
H62	H	-0.724371	0.319715	-0.098897
O63	O	-0.896546	-0.046024	0.333569
H64	H	-0.898612	-0.041357	0.214983
