data_functionalizedCrystal
_audit_creation_method	'MofGen! by Chris Wilmer'
_symmetry_space_group_name_H-M	'P1'
_symmetry_Int_Tables_number	1
_symmetry_cell_setting	triclinic
loop_
_symmetry_equiv_pos_as_xyz
  x,y,z
_cell_length_a	12.759401
_cell_length_b	16.120484
_cell_length_c	12.759393
_cell_angle_alpha	92.862882
_cell_angle_beta	89.981504
_cell_angle_gamma	92.925560
loop_
_atom_site_label
_atom_site_type_symbol
_atom_site_fract_x
_atom_site_fract_y
_atom_site_fract_z
Zn1	Zn	1.584972	-0.331853	-0.615146
Zn2	Zn	1.575923	-0.471291	-0.448359
Zn3	Zn	1.409271	-0.331897	-0.439488
Zn4	Zn	1.400324	-0.471227	-0.623996
O5	O	1.492622	-0.401567	-0.531747
O6	O	1.730792	-0.350358	-0.593030
O7	O	1.553774	-0.452845	-0.300164
O8	O	1.440109	-0.215226	-0.455373
O9	O	1.724144	-0.452803	-0.470492
O10	O	1.569196	-0.215194	-0.584428
O11	O	1.431335	-0.350433	-0.293646
O12	O	1.261064	-0.350370	-0.463955
O13	O	1.424860	-0.452693	-0.769840
O14	O	1.254490	-0.452736	-0.599512
O15	O	1.560520	-0.350296	-0.763338
O16	O	1.545098	-0.587947	-0.479074
O17	O	1.416086	-0.587900	-0.608114
C18	C	1.219656	-0.401551	-0.531732
C19	C	1.102879	-0.401565	-0.531752
C20	C	1.044616	-0.454952	-0.602231
C21	C	0.934891	-0.454962	-0.602243
C22	C	0.941702	-0.348197	-0.461287
C23	C	1.051425	-0.348183	-0.461281
C24	C	1.040682	-0.516595	-0.683607
C25	C	0.930958	-0.516605	-0.683619
C26	C	1.478668	-0.618174	-0.545540
C27	C	1.472794	-0.710839	-0.551475
C28	C	1.462076	-0.880500	-0.562334
C29	C	1.523357	-0.921793	-0.501178
C30	C	1.517393	-1.016198	-0.507219
C31	C	1.468038	-0.786086	-0.556293
C32	C	1.766655	-0.401583	-0.531763
C33	C	1.883431	-0.401590	-0.531770
C34	C	1.492701	-0.401483	-0.805775
C35	C	1.492735	-0.401447	-0.922550
C36	C	1.506660	-0.184114	-0.517924
C37	C	1.512642	-0.091448	-0.512033
C38	C	1.563383	-0.348123	-0.974027
C39	C	1.563410	-0.348093	-1.083750
C40	C	1.422138	-0.454717	-1.090507
C41	C	1.422106	-0.454742	-0.980787
C42	C	1.644948	-0.286568	-0.970127
C43	C	1.644975	-0.286538	-1.079849
C44	C	1.492608	-0.401590	-0.258781
C45	C	1.492793	-0.401391	-0.141992
H46	H	0.899795	-0.304734	-0.403914
H47	H	1.405137	-0.916046	-0.619223
O48	O	1.076403	-0.589791	-0.653363
C49	C	1.031128	-0.727306	-0.596385
C50	C	0.990531	-0.644464	-0.630646
H51	H	0.961723	-0.771526	-0.577988
H52	H	1.079535	-0.756384	-0.662363
H53	H	1.082198	-0.715312	-0.523361
H54	H	0.939419	-0.656387	-0.703646
H55	H	0.942183	-0.615412	-0.564606
H56	H	1.071595	-0.499376	-0.763915
H57	H	0.897022	-0.581158	-0.665804
H58	H	1.580299	-0.886244	-0.444283
O59	O	1.353425	-0.506606	-0.930947
C60	C	1.213231	-0.612296	-0.949229
C61	C	1.290982	-0.553620	-1.005806
H62	H	1.162710	-0.650310	-1.009726
H63	H	1.258561	-0.655969	-0.900654
H64	H	1.160810	-0.573998	-0.895407
H65	H	1.343422	-0.591851	-1.059681
H66	H	1.245587	-0.509945	-1.054314
O67	O	1.623853	-0.209509	-0.929881
C68	C	1.585587	-0.069050	-0.966784
C69	C	1.609443	-0.156280	-1.012503
H70	H	1.573951	-0.025986	-1.033561
H71	H	1.511170	-0.073216	-0.917447
H72	H	1.654059	-0.043357	-0.915483
H73	H	1.541036	-0.182024	-1.063850
H74	H	1.683896	-0.152062	-1.061779
O75	O	0.892324	-0.489123	-0.774224
C76	C	0.932134	-0.437352	-0.944404
C77	C	0.976027	-0.468482	-0.841865
H78	H	0.999787	-0.420638	-0.999111
H79	H	0.878617	-0.488327	-0.984119
H80	H	0.885494	-0.379984	-0.925854
H81	H	1.022716	-0.525835	-0.860325
H82	H	1.029488	-0.417456	-0.802179
H83	H	1.364632	-0.498106	-1.137937
H84	H	1.720736	-0.309714	-0.937567
O85	O	1.614770	-0.213419	-1.115858
C86	C	1.490361	-0.145335	-1.219760
C87	C	1.524448	-0.228190	-1.179035
H88	H	1.417345	-0.157250	-1.270864
H89	H	1.472086	-0.101058	-1.150450
H90	H	1.556474	-0.116360	-1.268174
H91	H	1.458378	-0.257236	-1.130637
H92	H	1.542758	-0.272409	-1.248390
H93	H	1.725237	-0.303830	-1.110730
H94	H	1.098859	-0.304705	-0.403897
