data_functionalizedCrystal
_audit_creation_method	'MofGen! by Chris Wilmer'
_symmetry_space_group_name_H-M	'P1'
_symmetry_Int_Tables_number	1
_symmetry_cell_setting	triclinic
loop_
_symmetry_equiv_pos_as_xyz
  x,y,z
_cell_length_a	17.638686
_cell_length_b	17.640280
_cell_length_c	17.640968
_cell_angle_alpha	65.682561
_cell_angle_beta	65.692372
_cell_angle_gamma	65.687361
loop_
_atom_site_label
_atom_site_type_symbol
_atom_site_fract_x
_atom_site_fract_y
_atom_site_fract_z
Zn1	Zn	1.434158	-0.475596	-0.640339
Zn2	Zn	1.767491	-0.142263	-0.307006
Zn3	Zn	2.100824	0.191071	0.026327
Zn4	Zn	1.434088	-0.641253	-0.474689
Zn5	Zn	1.767422	-0.307920	-0.141356
Zn6	Zn	2.100755	0.025414	0.191978
Zn7	Zn	1.268478	-0.475556	-0.474741
Zn8	Zn	1.601811	-0.142223	-0.141407
Zn9	Zn	1.935145	0.191111	0.191926
Zn10	Zn	1.316157	-0.593471	-0.592680
Zn11	Zn	1.649491	-0.260138	-0.259347
Zn12	Zn	1.982824	0.073195	0.073986
O13	O	1.363220	-0.546469	-0.545612
O14	O	1.696554	-0.213136	-0.212279
O15	O	2.029887	0.120198	0.121054
O16	O	1.552841	-0.517584	-0.638289
O17	O	1.886174	-0.184251	-0.304956
O18	O	2.219507	0.149082	0.028377
O19	O	1.392137	-0.639253	-0.356012
O20	O	1.725470	-0.305920	-0.022679
O21	O	2.058803	0.027414	0.310654
O22	O	1.270531	-0.356885	-0.516675
O23	O	1.603864	-0.023552	-0.183341
O24	O	1.937198	0.309781	0.149992
O25	O	1.552790	-0.639292	-0.516587
O26	O	1.886123	-0.305958	-0.183253
O27	O	2.219456	0.027375	0.150080
O28	O	1.392255	-0.356915	-0.638339
O29	O	1.725588	-0.023581	-0.305006
O30	O	2.058922	0.309752	0.028327
O31	O	1.270464	-0.517516	-0.356050
O32	O	1.603797	-0.184183	-0.022717
O33	O	1.937130	0.149151	0.310616
O34	O	1.156111	-0.471184	-0.470462
O35	O	1.489444	-0.137851	-0.137128
O36	O	1.822777	0.195483	0.196205
O37	O	1.351793	-0.557855	-0.717686
O38	O	1.685127	-0.224522	-0.384352
O39	O	2.018460	0.108812	-0.051019
O40	O	1.191141	-0.557816	-0.557112
O41	O	1.524474	-0.224483	-0.223778
O42	O	1.857807	0.108851	0.109555
O43	O	1.438488	-0.471252	-0.752701
O44	O	1.771821	-0.137919	-0.419367
O45	O	2.105154	0.195414	-0.086034
O46	O	1.438369	-0.753591	-0.470374
O47	O	1.771703	-0.420257	-0.137040
O48	O	2.105036	-0.086924	0.196293
O49	O	1.351726	-0.718486	-0.557061
O50	O	1.685059	-0.385152	-0.223728
O51	O	2.018393	-0.051819	0.109605
C52	C	1.142850	-0.509311	-0.508621
C53	C	1.476184	-0.175978	-0.175288
C54	C	1.809517	0.157355	0.158046
C55	C	1.048582	-0.493432	-0.492813
C56	C	1.381915	-0.160099	-0.159479
C57	C	1.715249	0.173235	0.173854
C58	C	0.829849	-0.667251	-0.665889
C59	C	1.163182	-0.333917	-0.332556
C60	C	1.496516	-0.000584	0.000778
C61	C	0.741265	-0.652326	-0.651014
C62	C	1.074598	-0.318992	-0.317681
C63	C	1.407931	0.014341	0.015652
C64	C	0.704755	-0.561919	-0.560982
C65	C	1.038088	-0.228586	-0.227649
C66	C	1.371421	0.104747	0.105684
C67	C	0.793338	-0.576840	-0.575846
C68	C	1.126671	-0.243507	-0.242512
C69	C	1.460004	0.089827	0.090821
C70	C	0.855879	-0.629505	-0.628301
C71	C	1.189212	-0.296172	-0.294967
C72	C	1.522545	0.037161	0.038366
C73	C	0.819367	-0.539095	-0.538257
C74	C	1.152700	-0.205762	-0.204924
C75	C	1.486034	0.127572	0.128409
C76	C	0.907943	-0.554011	-0.553124
C77	C	1.241276	-0.220677	-0.219790
C78	C	1.574609	0.112656	0.113543
C79	C	0.970488	-0.606672	-0.605578
C80	C	1.303822	-0.273338	-0.272245
C81	C	1.637155	0.059995	0.061089
C82	C	0.944454	-0.644421	-0.643167
C83	C	1.277787	-0.311088	-0.309833
C84	C	1.611121	0.022245	0.023500
C85	C	0.756825	-0.486425	-0.485808
C86	C	1.090158	-0.153091	-0.152475
C87	C	1.423491	0.180242	0.180859
C88	C	0.782854	-0.448679	-0.448220
C89	C	1.116188	-0.115346	-0.114886
C90	C	1.449521	0.217987	0.218447
C91	C	0.871431	-0.463600	-0.463080
C92	C	1.204764	-0.130267	-0.129747
C93	C	1.538098	0.203066	0.203586
C94	C	0.933977	-0.516261	-0.515535
C95	C	1.267310	-0.182928	-0.182202
C96	C	1.600644	0.150405	0.151132
C97	C	0.897465	-0.425851	-0.425492
C98	C	1.230799	-0.092517	-0.092158
C99	C	1.564132	0.240816	0.241175
C100	C	0.986041	-0.440767	-0.440358
C101	C	1.319374	-0.107433	-0.107025
C102	C	1.652707	0.225900	0.226309
C103	C	1.022552	-0.531177	-0.530401
C104	C	1.355886	-0.197844	-0.197068
C105	C	1.689219	0.135490	0.136266
C106	C	1.400240	-0.766810	-0.508563
C107	C	1.733574	-0.433477	-0.175229
C108	C	2.066907	-0.100144	0.158104
C109	C	1.416160	-0.861081	-0.492754
C110	C	1.749493	-0.527748	-0.159421
C111	C	2.082826	-0.194415	0.173913
C112	C	1.242681	-1.079893	-0.666076
C113	C	1.576014	-0.746560	-0.332742
C114	C	1.909347	-0.413226	0.000591
C115	C	1.257637	-1.168480	-0.651194
C116	C	1.590970	-0.835147	-0.317861
C117	C	1.924303	-0.501813	0.015472
C118	C	1.347944	-1.204962	-0.561047
C119	C	1.681278	-0.871629	-0.227714
C120	C	2.014611	-0.538295	0.105619
C121	C	1.332999	-1.116377	-0.575924
C122	C	1.666333	-0.783043	-0.242591
C123	C	1.999666	-0.449710	0.090742
C124	C	1.280366	-1.053848	-0.628439
C125	C	1.613699	-0.720515	-0.295105
C126	C	1.947033	-0.387181	0.038228
C127	C	1.370684	-1.090332	-0.538287
C128	C	1.704018	-0.756998	-0.204954
C129	C	2.037351	-0.423665	0.128379
C130	C	1.355737	-1.001754	-0.553160
C131	C	1.689070	-0.668420	-0.219827
C132	C	2.022403	-0.335087	0.113507
C133	C	1.303104	-0.939221	-0.605670
C134	C	1.636437	-0.605887	-0.272336
C135	C	1.969770	-0.272554	0.060997
C136	C	1.265418	-0.965270	-0.643311
C137	C	1.598752	-0.631937	-0.309978
C138	C	1.932085	-0.298603	0.023356
C139	C	1.423312	-1.152862	-0.485769
C140	C	1.756646	-0.819528	-0.152435
C141	C	2.089979	-0.486195	0.180898
C142	C	1.460998	-1.126817	-0.448132
C143	C	1.794331	-0.793484	-0.114798
C144	C	2.127664	-0.460150	0.218535
C145	C	1.446055	-1.038237	-0.463009
C146	C	1.779389	-0.704904	-0.129676
C147	C	2.112722	-0.371571	0.203658
C148	C	1.393422	-0.975704	-0.515518
C149	C	1.726756	-0.642371	-0.182185
C150	C	2.060089	-0.309038	0.151148
C151	C	1.483741	-1.012188	-0.425367
C152	C	1.817074	-0.678855	-0.092034
C153	C	2.150407	-0.345521	0.241299
C154	C	1.468793	-0.923610	-0.440240
C155	C	1.802126	-0.590277	-0.106907
C156	C	2.135460	-0.256943	0.226427
C157	C	1.378475	-0.887126	-0.530391
C158	C	1.711808	-0.553793	-0.197058
C159	C	2.045141	-0.220460	0.136276
C160	C	1.584451	-0.583772	-0.582748
C161	C	1.917784	-0.250439	-0.249415
C162	C	2.251118	0.082894	0.083918
C163	C	1.678726	-0.599669	-0.598574
C164	C	2.012060	-0.266335	-0.265240
C165	C	2.345393	0.066998	0.068093
C166	C	1.400467	-0.509228	-0.766827
C167	C	1.733800	-0.175895	-0.433494
C168	C	2.067133	0.157438	-0.100160
C169	C	1.416339	-0.493358	-0.861095
C170	C	1.749672	-0.160025	-0.527762
C171	C	2.083006	0.173308	-0.194429
C172	C	1.326082	-0.325268	-0.582829
C173	C	1.659416	0.008065	-0.249496
C174	C	1.992749	0.341399	0.083838
C175	C	1.310256	-0.231006	-0.598689
C176	C	1.643589	0.102328	-0.265355
C177	C	1.976923	0.435661	0.067978
C178	C	1.242889	-0.666624	-1.079985
C179	C	1.576222	-0.333290	-0.746652
C180	C	1.909555	0.000043	-0.413318
C181	C	1.257819	-0.651704	-1.168569
C182	C	1.591152	-0.318371	-0.835236
C183	C	1.924486	0.014963	-0.501903
C184	C	1.348086	-0.561532	-1.205017
C185	C	1.681420	-0.228199	-0.871684
C186	C	2.014753	0.105134	-0.538350
C187	C	1.333160	-0.576441	-1.116434
C188	C	1.666493	-0.243108	-0.783101
C189	C	1.999827	0.090225	-0.449767
C190	C	1.280561	-0.628989	-1.053924
C191	C	1.613895	-0.295655	-0.720591
C192	C	1.947228	0.037678	-0.387257
C193	C	1.370833	-0.538806	-1.090373
C194	C	1.704166	-0.205473	-0.757040
C195	C	2.037499	0.127861	-0.423706
C196	C	1.355911	-0.553718	-1.001798
C197	C	1.689244	-0.220384	-0.668464
C198	C	2.022578	0.112949	-0.335131
C199	C	1.303317	-0.606265	-0.939283
C200	C	1.636650	-0.272931	-0.605950
C201	C	1.969983	0.060402	-0.272616
C202	C	1.265640	-0.643900	-0.965349
C203	C	1.598973	-0.310567	-0.632015
C204	C	1.932306	0.022767	-0.298682
C205	C	1.423436	-0.486264	-1.152884
C206	C	1.756769	-0.152931	-0.819551
C207	C	2.090103	0.180403	-0.486217
C208	C	1.461109	-0.448629	-1.126823
C209	C	1.794442	-0.115295	-0.793490
C210	C	2.127775	0.218038	-0.460157
C211	C	1.446182	-0.463535	-1.038246
C212	C	1.779516	-0.130202	-0.704913
C213	C	2.112849	0.203132	-0.371580
C214	C	1.393588	-0.516082	-0.975732
C215	C	1.726921	-0.182749	-0.642398
C216	C	2.060255	0.150585	-0.309065
C217	C	1.483859	-0.425900	-1.012181
C218	C	1.817193	-0.092566	-0.678847
C219	C	2.150526	0.240767	-0.345514
C220	C	1.468938	-0.440811	-0.923605
C221	C	1.802271	-0.107478	-0.590272
C222	C	2.135604	0.225856	-0.256939
C223	C	1.378666	-0.530994	-0.887156
C224	C	1.712000	-0.197660	-0.553823
C225	C	2.045333	0.135673	-0.220490
C226	C	1.326157	-0.583512	-0.325277
C227	C	1.659491	-0.250179	0.008057
C228	C	1.992824	0.083155	0.341390
C229	C	1.310409	-0.599171	-0.231076
C230	C	1.643743	-0.265837	0.102257
C231	C	1.977076	0.067496	0.435590
H232	H	0.684702	-0.474277	-0.473711
H233	H	1.018035	-0.140943	-0.140378
H234	H	1.351369	0.192390	0.192956
H235	H	1.335622	-0.836212	-0.573161
H236	H	1.668956	-0.502878	-0.239827
H237	H	2.002289	-0.169545	0.093506
F238	F	0.896415	-0.723313	-0.721708
F239	F	1.229749	-0.389979	-0.388375
F240	F	1.563082	-0.056646	-0.055042
F241	F	1.287373	-0.844947	-0.621677
F242	F	1.620707	-0.511614	-0.288344
F243	F	1.954040	-0.178280	0.044990
H244	H	1.499480	-0.902406	-0.409591
H245	H	1.832813	-0.569072	-0.076257
H246	H	2.166146	-0.235739	0.257076
F247	F	1.217513	-1.196193	-0.691248
F248	F	1.550847	-0.862860	-0.357915
F249	F	1.884180	-0.529527	-0.024581
H250	H	1.291173	-0.618408	-0.867160
H251	H	1.624506	-0.285075	-0.533827
H252	H	1.957839	0.048258	-0.200493
H253	H	1.007233	-0.410023	-0.409757
H254	H	1.340567	-0.076690	-0.076424
H255	H	1.673900	0.256643	0.256910
F256	F	1.209650	-0.699819	-0.898816
F257	F	1.542983	-0.366486	-0.565482
F258	F	1.876317	-0.033153	-0.232149
H259	H	1.390795	-1.255884	-0.518287
H260	H	1.724129	-0.922551	-0.184954
H261	H	2.057462	-0.589217	0.148379
F262	F	1.011020	-0.700483	-0.698986
F263	F	1.344354	-0.367150	-0.365653
F264	F	1.677687	-0.033817	-0.032320
H265	H	1.073478	-0.574068	-0.573110
H266	H	1.406811	-0.240734	-0.239777
H267	H	1.740144	0.092599	0.093557
H268	H	1.222566	-0.914356	-0.686081
H269	H	1.555899	-0.581022	-0.352747
H270	H	1.889233	-0.247689	-0.019414
H271	H	1.042611	-0.618810	-0.617686
H272	H	1.375945	-0.285477	-0.284353
H273	H	1.709278	0.047857	0.048981
H274	H	0.731922	-0.405797	-0.405514
H275	H	1.065255	-0.072463	-0.072180
H276	H	1.398589	0.260870	0.261153
H277	H	0.846532	-0.382964	-0.382790
H278	H	1.179866	-0.049630	-0.049457
H279	H	1.513199	0.283703	0.283876
F280	F	1.539749	-1.078744	-0.369474
F281	F	1.873082	-0.745411	-0.036141
F282	F	2.206415	-0.412078	0.297192
F283	F	0.713567	-0.692501	-0.691028
F284	F	1.046901	-0.359168	-0.357695
F285	F	1.380234	-0.025834	-0.024362
F286	F	1.509036	-0.400758	-0.895867
F287	F	1.842369	-0.067425	-0.562534
F288	F	2.175702	0.265908	-0.229201
F289	F	1.186671	-1.013340	-0.721976
F290	F	1.520004	-0.680007	-0.388643
F291	F	1.853337	-0.346673	-0.055309
H292	H	1.200034	-0.709389	-1.029085
H293	H	1.533367	-0.376056	-0.695752
H294	H	1.866700	-0.042723	-0.362418
H295	H	1.435484	-1.224986	-0.473664
H296	H	1.768817	-0.891653	-0.140330
H297	H	2.102150	-0.558320	0.193003
H298	H	0.653822	-0.519036	-0.518276
H299	H	0.987156	-0.185703	-0.184943
H300	H	1.320489	0.147630	0.148390
H301	H	1.503849	-1.177739	-0.405372
H302	H	1.837182	-0.844405	-0.072038
H303	H	2.170515	-0.511072	0.261295
F304	F	1.322677	-0.586913	-0.820623
F305	F	1.656010	-0.253579	-0.487290
F306	F	1.989343	0.079754	-0.153957
F307	F	1.517089	-0.392709	-1.193358
F308	F	1.850422	-0.059376	-0.860025
F309	F	2.183756	0.273958	-0.526692
F310	F	1.217716	-0.691763	-1.196300
F311	F	1.551049	-0.358429	-0.862967
F312	F	1.884383	-0.025096	-0.529633
H313	H	1.390915	-0.518751	-1.255924
H314	H	1.724248	-0.185418	-0.922590
H315	H	2.057582	0.147915	-0.589257
F316	F	1.439319	-0.470398	-1.247155
F317	F	1.772653	-0.137065	-0.913821
F318	F	2.105986	0.196268	-0.580488
F319	F	1.539846	-0.369987	-1.078717
F320	F	1.873179	-0.036653	-0.745384
F321	F	2.206513	0.296680	-0.412051
