data_functionalizedCrystal
_audit_creation_method	'MofGen! by Chris Wilmer'
_symmetry_space_group_name_H-M	'P1'
_symmetry_Int_Tables_number	1
_symmetry_cell_setting	triclinic
loop_
_symmetry_equiv_pos_as_xyz
  x,y,z
_cell_length_a	14.853577
_cell_length_b	17.699083
_cell_length_c	16.776229
_cell_angle_alpha	90.007545
_cell_angle_beta	89.993064
_cell_angle_gamma	96.539004
loop_
_atom_site_label
_atom_site_type_symbol
_atom_site_fract_x
_atom_site_fract_y
_atom_site_fract_z
O1	O	1.195998	-0.098852	-0.066286
O2	O	0.933497	-0.110616	-0.066289
O3	O	1.072164	0.005436	-0.066280
O4	O	1.057331	-0.214904	-0.066294
O5	O	1.072146	0.005443	0.066296
O6	O	0.933479	-0.110609	0.066288
O7	O	1.195980	-0.098845	0.066290
Zn8	Zn	1.064726	-0.104726	0.087339
Zn9	Zn	1.064751	-0.104735	-0.087337
O10	O	1.057313	-0.214897	0.066282
C11	C	0.899901	-0.110078	-0.000001
C12	C	0.799824	-0.108477	-0.000001
C13	C	1.071623	0.033638	0.000008
C14	C	1.070029	0.117660	0.000008
C15	C	1.229576	-0.099383	0.000001
C16	C	1.329653	-0.100985	-0.000004
C17	C	1.752818	-0.107731	-0.072272
C18	C	1.752793	-0.107723	0.072268
C19	C	1.658763	-0.106226	0.072269
C20	C	1.611757	-0.105480	-0.000002
C21	C	1.658780	-0.106232	-0.072274
C22	C	1.611735	-0.105467	0.144539
C23	C	1.517700	-0.103969	0.144543
C24	C	1.470691	-0.103229	0.072271
C25	C	1.517720	-0.103981	-0.000003
C26	C	1.470714	-0.103235	-0.072274
C27	C	1.517739	-0.103993	-0.144549
C28	C	1.611771	-0.105491	-0.144545
C29	C	1.376659	-0.101730	0.072267
C30	C	1.376676	-0.101736	-0.072275
C31	C	1.057854	-0.243099	-0.000008
C32	C	1.059448	-0.327121	-0.000014
N33	N	1.064716	-0.104719	0.206550
C34	C	1.151424	0.166067	0.000010
C35	C	1.149920	0.245014	0.000003
C36	C	1.067021	0.275553	-0.000000
C37	C	0.985620	0.227139	-0.000004
C38	C	0.987124	0.148194	-0.000003
C39	C	0.979551	0.545518	-0.000011
C40	C	0.978053	0.624470	-0.000010
C41	C	1.142346	0.642339	-0.000005
C42	C	1.143851	0.563393	-0.000003
C43	C	1.062450	0.514987	-0.000012
C44	C	1.064082	0.429383	-0.000006
C45	C	1.065389	0.361155	-0.000000
N46	N	1.064768	-0.104736	-0.206548
C47	C	1.126137	-0.053352	0.248271
C48	C	1.126142	-0.053352	0.331723
C49	C	1.064730	-0.104722	0.373453
C50	C	1.003303	-0.156091	0.331726
C51	C	1.003295	-0.156087	0.248275
C52	C	1.003336	-0.156106	0.668273
C53	C	1.003351	-0.156107	0.751730
C54	C	1.126183	-0.053370	0.751721
C55	C	1.126175	-0.053367	0.668270
C56	C	1.064745	-0.104733	0.626551
C57	C	1.064739	-0.104732	0.536062
C58	C	1.064740	-0.104727	0.463939
H59	H	1.338409	-0.101133	-0.131128
C60	C	1.238267	0.297604	-0.000160
C61	C	1.242230	0.343422	-0.068382
C62	C	1.323612	0.391868	-0.068568
H63	H	1.241179	0.328854	0.046015
H64	H	1.287877	0.268133	-0.000198
H65	H	1.192634	0.372891	-0.068337
H66	H	1.239334	0.312193	-0.114568
H67	H	1.373222	0.362397	-0.068606
H68	H	1.326517	0.423112	-0.022390
H69	H	1.326316	0.422956	-0.114859
H70	H	0.920844	0.108780	-0.000005
H71	H	1.176149	-0.011524	0.214300
H72	H	0.953339	-0.197940	0.785705
H73	H	0.953319	-0.197931	0.634312
H74	H	1.791110	-0.108351	-0.131117
C75	C	1.466492	-0.103105	0.222926
C76	C	1.374084	-0.101614	0.207460
C77	C	1.326883	-0.100807	0.279647
H78	H	1.474825	-0.147434	0.252681
H79	H	1.488817	-0.059227	0.252626
H80	H	1.351765	-0.145488	0.177773
H81	H	1.365723	-0.057288	0.177717
H82	H	1.349209	-0.056929	0.309347
H83	H	1.335223	-0.145136	0.309397
H84	H	1.264181	-0.099788	0.269164
H85	H	0.953296	-0.197915	0.365707
H86	H	1.338374	-0.101120	0.131112
C87	C	1.192941	0.002442	0.376876
C88	C	1.246745	0.047409	0.322469
C89	C	1.308304	0.098807	0.364034
H90	H	1.160706	0.034077	0.409448
H91	H	1.230452	-0.024836	0.409397
H92	H	1.209238	0.074685	0.289962
H93	H	1.279000	0.015795	0.289895
H94	H	1.345815	0.071529	0.396555
H95	H	1.276061	0.130437	0.396605
H96	H	1.344823	0.129319	0.327126
C97	C	1.192825	0.002530	0.796918
C98	C	1.178386	0.076927	0.776615
C99	C	1.239766	0.128439	0.818225
H100	H	1.184099	-0.004719	0.852606
H101	H	1.252990	-0.005738	0.783214
H102	H	1.118237	0.085192	0.790324
H103	H	1.187121	0.084200	0.720933
H104	H	1.299930	0.120171	0.804521
H105	H	1.231034	0.121184	0.873911
H106	H	1.229983	0.178924	0.804450
H107	H	1.208626	0.681762	-0.000002
H108	H	0.953279	-0.197914	0.214307
H109	H	1.218930	0.141209	0.000018
H110	H	1.479455	-0.103382	-0.203392
H111	H	1.650068	-0.106107	-0.203388
C112	C	1.192626	0.002576	0.622940
C113	C	1.144579	0.048959	0.575129
C114	C	1.205727	0.100557	0.533388
H115	H	1.229150	0.033236	0.659712
H116	H	1.230166	-0.024550	0.590272
H117	H	1.107055	0.076082	0.607794
H118	H	1.108059	0.018320	0.538342
H119	H	1.243266	0.073431	0.500720
H120	H	1.242247	0.131212	0.570166
H121	H	1.173136	0.132029	0.500938
C122	C	1.803961	-0.108415	0.150670
C123	C	1.868237	-0.044221	0.154887
C124	C	1.915402	-0.044839	0.227097
H125	H	1.762598	-0.107716	0.193779
H126	H	1.833733	-0.153077	0.153674
H127	H	1.838466	0.000431	0.151890
H128	H	1.909618	-0.044905	0.111794
H129	H	1.945174	-0.089502	0.230102
H130	H	1.874032	-0.044143	0.270201
H131	H	1.959024	-0.001288	0.229965
H132	H	1.650015	-0.106067	0.203378
H133	H	1.211356	0.538534	0.000003
C134	C	0.887950	0.657481	-0.000062
C135	C	0.816984	0.598192	-0.000092
C136	C	0.733975	0.628573	-0.000151
H137	H	0.883809	0.687900	0.046158
H138	H	0.883916	0.687881	-0.046313
H139	H	0.821016	0.567805	0.046154
H140	H	0.821095	0.567769	-0.046309
H141	H	0.729941	0.658973	-0.046402
H142	H	0.729843	0.658992	0.046070
H143	H	0.685814	0.588351	-0.000179
H144	H	0.913269	0.506115	-0.000018
C145	C	0.895705	0.260439	0.000033
C146	C	0.911806	0.339938	0.000056
C147	C	0.828997	0.370637	0.000104
H148	H	0.862135	0.243909	-0.046187
H149	H	0.862184	0.243876	0.046283
H150	H	0.945313	0.356494	-0.046190
H151	H	0.945362	0.356489	0.046273
H152	H	0.795476	0.354073	0.046354
H153	H	0.795433	0.354101	-0.046117
H154	H	0.839910	0.424579	0.000127
