data_functionalizedCrystal
_audit_creation_method	'MofGen! by Chris Wilmer'
_symmetry_space_group_name_H-M	'P1'
_symmetry_Int_Tables_number	1
_symmetry_cell_setting	triclinic
loop_
_symmetry_equiv_pos_as_xyz
  x,y,z
_cell_length_a	11.026607
_cell_length_b	15.995350
_cell_length_c	10.065875
_cell_angle_alpha	98.791555
_cell_angle_beta	79.302338
_cell_angle_gamma	96.039196
loop_
_atom_site_label
_atom_site_type_symbol
_atom_site_fract_x
_atom_site_fract_y
_atom_site_fract_z
O1	O	1.627917	0.340991	-0.113481
O2	O	1.274611	0.301065	-0.113484
O3	O	1.460922	0.200596	-0.113481
O4	O	1.441606	0.441460	-0.113484
O5	O	1.425395	0.219853	0.113507
O6	O	1.239084	0.320322	0.113504
O7	O	1.592390	0.360247	0.113508
Zn8	Zn	1.410096	0.343342	0.149545
Zn9	Zn	1.456905	0.317971	-0.149522
O10	O	1.406079	0.460716	0.113504
C11	C	1.211637	0.303328	0.000010
C12	C	1.076923	0.281371	0.000008
C13	C	1.003118	0.341997	0.000007
C14	C	0.863884	0.319305	0.000005
C15	C	1.442360	0.178909	0.000011
C16	C	1.439967	0.085597	0.000003
C17	C	1.431369	-0.253446	0.000007
C18	C	1.298762	-0.226055	-0.000503
C19	C	1.301076	-0.128960	0.000009
C20	C	1.435634	-0.085243	0.000004
C21	C	1.480793	-0.105459	0.129624
C22	C	1.477442	-0.202588	0.129732
C23	C	1.520584	-0.224432	-0.128396
C24	C	1.520821	-0.127636	-0.130109
C25	C	1.438051	0.009819	0.000007
C26	C	1.428955	-0.348507	0.000014
C27	C	1.655365	0.357984	0.000011
C28	C	1.790080	0.379940	0.000003
C29	C	1.424641	0.482403	0.000010
C30	C	1.427036	0.575714	0.000009
N31	N	1.378160	0.360658	0.353650
N32	N	1.488851	0.300649	-0.353627
C33	C	1.445785	0.323989	0.421430
C34	C	1.421215	0.337324	0.578597
H35	H	1.264174	-0.116175	-0.092908
C36	C	1.207896	-0.252652	0.124400
N37	N	1.139463	-0.272675	0.218488
H38	H	1.302069	0.401920	0.411975
C39	C	1.476515	-0.111501	-0.259656
N40	N	1.443132	-0.099352	-0.357229
H41	H	1.414554	-0.219863	0.226628
C42	C	1.655044	-0.087806	-0.140682
N43	N	1.756146	-0.057806	-0.148633
C44	C	1.652930	-0.247525	-0.129583
N45	N	1.752607	-0.264923	-0.130469
C46	C	1.023038	0.188553	0.000009
N47	N	0.982454	0.118640	0.000008
C48	C	1.607799	-0.225645	0.137695
N49	N	1.705980	-0.243006	0.143701
C50	C	1.318415	0.393072	0.657381
N51	N	1.240986	0.435061	0.716724
C52	C	1.591653	0.244901	0.567592
N53	N	1.669087	0.202915	0.508253
H54	H	1.521868	0.282719	0.363107
H55	H	1.578894	-0.076025	0.134441
H56	H	1.420240	-0.075746	0.226085
C57	C	1.482746	-0.272269	-0.261120
N58	N	1.454231	-0.308301	-0.361081
C59	C	1.057002	0.434816	0.000011
N60	N	1.097586	0.504729	0.000014
C61	C	0.810004	0.226483	0.000006
N62	N	0.769420	0.156570	0.000005
H63	H	0.829963	0.448650	0.000012
H64	H	1.260276	-0.260465	-0.093456
H65	H	1.234718	-0.101006	0.093083
