data_functionalizedCrystal
_audit_creation_method	'MofGen! by Chris Wilmer'
_symmetry_space_group_name_H-M	'P1'
_symmetry_Int_Tables_number	1
_symmetry_cell_setting	triclinic
loop_
_symmetry_equiv_pos_as_xyz
  x,y,z
_cell_length_a	12.827893
_cell_length_b	18.050590
_cell_length_c	12.827885
_cell_angle_alpha	90.034683
_cell_angle_beta	90.019272
_cell_angle_gamma	90.018523
loop_
_atom_site_label
_atom_site_type_symbol
_atom_site_fract_x
_atom_site_fract_y
_atom_site_fract_z
Zn1	Zn	1.597647	-0.295624	0.590813
Zn2	Zn	1.597531	-0.419832	0.416058
Zn3	Zn	1.422888	-0.295660	0.416087
Zn4	Zn	1.422864	-0.419777	0.590758
O5	O	1.510232	-0.357723	0.503429
O6	O	1.743867	-0.312108	0.567643
O7	O	1.574326	-0.403399	0.269826
O8	O	1.446129	-0.191731	0.439299
O9	O	1.743782	-0.403363	0.439251
O10	O	1.574523	-0.191704	0.567670
O11	O	1.446017	-0.312170	0.269847
O12	O	1.276649	-0.312117	0.439246
O13	O	1.446087	-0.403269	0.737002
O14	O	1.276631	-0.403304	0.567577
O15	O	1.574499	-0.312055	0.737042
O16	O	1.574303	-0.523749	0.439198
O17	O	1.445975	-0.523709	0.567549
C18	C	1.238722	-0.357709	0.503409
C19	C	1.122569	-0.357721	0.503426
C20	C	1.070803	-0.402914	0.566830
C21	C	0.950753	-0.402927	0.566848
C22	C	1.510152	-0.550675	0.503388
C23	C	1.510213	-0.633221	0.503405
C24	C	1.580143	-0.832667	0.433705
C25	C	1.605673	-0.881992	0.529080
C26	C	1.510273	-0.784351	0.503446
C27	C	1.484849	-0.882108	0.408114
C28	C	1.510332	-0.930337	0.503478
C29	C	1.535851	-0.832589	0.598872
C30	C	1.414984	-0.832701	0.477842
C31	C	1.440477	-0.882004	0.573282
C32	C	1.510241	-0.700253	0.503427
C33	C	1.510363	-1.014433	0.503509
C34	C	1.782802	-0.357738	0.503450
C35	C	1.898956	-0.357744	0.503459
C36	C	1.510303	-0.357652	0.775999
C37	C	1.510334	-0.357622	0.892153
C38	C	1.510341	-0.164018	0.503494
C39	C	1.510388	-0.081472	0.503521
C40	C	1.510222	-0.357741	0.231919
C41	C	1.510394	-0.357562	0.115767
C42	C	1.446844	-0.402706	1.063962
C43	C	1.446812	-0.402739	0.943912
H44	H	1.639250	-0.811003	0.374787
C45	C	1.583864	-0.305377	1.055620
N46	N	1.639205	-0.266071	1.010320
C47	C	1.306120	-0.803416	0.448513
N48	N	1.224125	-0.781355	0.426409
H49	H	1.078011	-0.319036	0.449161
C50	C	1.373362	-0.454883	1.124108
N51	N	1.318011	-0.494182	1.169409
C52	C	1.714570	-0.911250	0.558361
N53	N	1.796594	-0.933286	0.580408
H54	H	1.115361	-0.441593	0.621102
H55	H	1.392409	-0.441392	0.899361
H56	H	0.906235	-0.441621	0.621127
H57	H	0.943466	-0.319054	0.449169
H58	H	1.463322	-0.903858	0.327480
H59	H	1.564747	-0.318972	0.936697
C60	C	1.565068	-0.803332	0.707835
N61	N	1.587079	-0.781294	0.789904
H62	H	1.381415	-0.903530	0.632343
