data_functionalizedCrystal
_audit_creation_method	'MofGen! by Chris Wilmer'
_symmetry_space_group_name_H-M	'P1'
_symmetry_Int_Tables_number	1
_symmetry_cell_setting	triclinic
loop_
_symmetry_equiv_pos_as_xyz
  x,y,z
_cell_length_a	18.050589
_cell_length_b	19.805407
_cell_length_c	18.050582
_cell_angle_alpha	90.015480
_cell_angle_beta	89.981795
_cell_angle_gamma	89.975629
loop_
_atom_site_label
_atom_site_type_symbol
_atom_site_fract_x
_atom_site_fract_y
_atom_site_fract_z
Zn1	Zn	-0.295783	-1.034702	-0.419946
Zn2	Zn	0.204217	-0.534702	0.080054
Zn3	Zn	-0.419966	-1.034621	-0.295766
Zn4	Zn	0.080034	-0.534621	0.204234
Zn5	Zn	-0.295786	-0.921524	-0.295769
Zn6	Zn	0.204214	-0.421524	0.204231
Zn7	Zn	-0.419927	-0.921477	-0.419913
Zn8	Zn	0.080073	-0.421477	0.080087
O9	O	-0.357866	-0.978081	-0.357848
O10	O	0.142134	-0.478081	0.142152
O11	O	-0.312271	-1.129408	-0.403486
O12	O	0.187729	-0.629408	0.096514
O13	O	-0.403511	-1.019604	-0.191841
O14	O	0.096489	-0.519604	0.308159
O15	O	-0.191861	-0.936591	-0.312257
O16	O	0.308139	-0.436591	0.187743
O17	O	-0.403508	-1.129348	-0.312251
O18	O	0.096492	-0.629348	0.187749
O19	O	-0.191859	-1.019743	-0.403489
O20	O	0.308141	-0.519743	0.096511
O21	O	-0.312277	-0.936513	-0.191844
O22	O	0.187723	-0.436513	0.308156
O23	O	-0.312239	-0.826801	-0.312224
O24	O	0.187761	-0.326801	0.187776
O25	O	-0.403442	-0.936511	-0.523842
O26	O	0.096558	-0.436511	-0.023842
O27	O	-0.403445	-0.826767	-0.403432
O28	O	0.096555	-0.326767	0.096568
O29	O	-0.312233	-1.019697	-0.523866
O30	O	0.187767	-0.519697	-0.023866
O31	O	-0.523886	-1.019558	-0.312219
O32	O	-0.023886	-0.519558	0.187781
O33	O	-0.523857	-0.936432	-0.403429
O34	O	-0.023857	-0.436432	0.096571
C35	C	-0.357838	-0.802225	-0.357826
C36	C	0.142162	-0.302225	0.142174
C37	C	-0.357845	-0.726993	-0.357834
C38	C	0.142155	-0.226993	0.142166
C39	C	-0.310421	-0.691681	-0.405411
C40	C	0.189579	-0.191681	0.094589
C41	C	-0.310423	-0.620992	-0.405412
C42	C	0.189577	-0.120992	0.094588
C43	C	-0.357854	-0.585618	-0.357839
C44	C	0.142146	-0.085618	0.142161
C45	C	-0.405280	-0.620935	-0.310256
C46	C	0.094720	-0.120935	0.189744
C47	C	-0.405273	-0.691622	-0.310252
C48	C	0.094727	-0.191622	0.189748
C49	C	-0.405307	-0.335862	-0.310271
C50	C	0.094693	0.164138	0.189729
C51	C	-0.405311	-0.265169	-0.310281
C52	C	0.094689	0.234831	0.189719
C53	C	-0.310457	-0.265232	-0.405431
C54	C	0.189543	0.234768	0.094569
C55	C	-0.310450	-0.335919	-0.405427
C56	C	0.189550	0.164081	0.094573
C57	C	-0.357873	-0.371230	-0.357842
C58	C	0.142127	0.128770	0.142158
C59	C	-0.357869	-0.447879	-0.357841
C60	C	0.142131	0.052121	0.142159
C61	C	-0.357862	-0.508970	-0.357843
C62	C	0.142138	-0.008970	0.142157
C63	C	-0.550818	-0.977999	-0.357836
C64	C	-0.050818	-0.477999	0.142164
C65	C	-0.633364	-0.978026	-0.357856
C66	C	-0.133364	-0.478026	0.142144
C67	C	-0.832826	-0.932867	-0.407439
C68	C	-0.332826	-0.432867	0.092561
C69	C	-0.882258	-0.916372	-0.339671
C70	C	-0.382258	-0.416372	0.160329
C71	C	-0.784494	-0.978093	-0.357865
C72	C	-0.284494	-0.478093	0.142135
C73	C	-0.882143	-0.994620	-0.425641
C74	C	-0.382143	-0.494620	0.074359
C75	C	-0.930479	-0.978156	-0.357881
C76	C	-0.430479	-0.478156	0.142119
C77	C	-0.832839	-0.961566	-0.290062
C78	C	-0.332839	-0.461566	0.209938
C79	C	-0.832720	-1.039843	-0.376077
C80	C	-0.332720	-0.539843	0.123923
C81	C	-0.882130	-1.023372	-0.308263
C82	C	-0.382130	-0.523372	0.191737
C83	C	-0.700396	-0.978055	-0.357857
C84	C	-0.200396	-0.478055	0.142143
C85	C	-1.014575	-0.978194	-0.357881
C86	C	-0.514575	-0.478194	0.142119
C87	C	-0.164160	-0.978182	-0.357877
C88	C	0.335840	-0.478182	0.142123
C89	C	-0.081614	-0.978224	-0.357889
C90	C	0.418386	-0.478224	0.142111
C91	C	-0.357833	-0.978108	-0.551554
C92	C	0.142167	-0.478108	-0.051554
C93	C	-0.357819	-0.978119	-0.634100
C94	C	0.142181	-0.478119	-0.134100
C95	C	-0.357888	-0.154624	-0.357865
C96	C	0.142112	0.345376	0.142135
C97	C	-0.357883	-0.229856	-0.357855
C98	C	0.142117	0.270144	0.142145
C99	C	-0.407350	-0.932917	-0.833537
C100	C	0.092650	-0.432917	-0.333537
C101	C	-0.425508	-0.994669	-0.882931
C102	C	0.074492	-0.494669	-0.382931
C103	C	-0.357762	-0.978152	-0.785230
C104	C	0.142238	-0.478152	-0.285230
C105	C	-0.339583	-0.916434	-0.882919
C106	C	0.160417	-0.416434	-0.382919
C107	C	-0.357709	-0.978179	-0.931216
C108	C	0.142291	-0.478179	-0.431216
C109	C	-0.375956	-1.039937	-0.833536
C110	C	0.124044	-0.539937	-0.333536
C111	C	-0.289999	-0.961660	-0.833520
C112	C	0.210001	-0.461660	-0.333520
C113	C	-0.308132	-1.023455	-0.882891
C114	C	0.191868	-0.523455	-0.382891
C115	C	-0.357795	-0.978136	-0.701132
C116	C	0.142205	-0.478136	-0.201132
C117	C	-0.357676	-0.978202	-1.015312
C118	C	0.142324	-0.478202	-0.515312
C119	C	-0.357845	-0.978094	-0.164896
C120	C	0.142155	-0.478094	0.335104
C121	C	-0.357650	-0.978214	-0.082351
C122	C	0.142350	-0.478214	0.417649
H123	H	-0.271840	-0.236473	-0.444175
H124	H	0.228160	0.263527	0.055825
H125	H	-0.324230	-0.864229	-0.904611
H126	H	0.175770	-0.364229	-0.404611
H127	H	-0.811176	-0.894564	-0.449302
H128	H	-0.311176	-0.394564	0.050698
H129	H	-0.271807	-0.592244	-0.444156
H130	H	0.228193	-0.092244	0.055844
H131	H	-0.811272	-0.947552	-0.232736
H132	H	-0.311272	-0.447552	0.267264
C133	C	-0.911655	-0.845862	-0.318864
C134	C	-0.411655	-0.345862	0.181136
N135	N	-0.933795	-0.792752	-0.303197
N136	N	-0.433795	-0.292752	0.196803
H137	H	-0.271799	-0.720478	-0.444153
H138	H	0.228201	-0.220478	0.055847
C139	C	-0.457453	-0.582020	-0.257924
C140	C	0.042547	-0.082020	0.242076
N141	N	-0.496752	-0.552710	-0.218508
N142	N	0.003248	-0.052710	0.281492
H143	H	-0.903643	-1.061645	-0.266299
H144	H	-0.403643	-0.561645	0.233701
C145	C	-0.457485	-0.226259	-0.257938
C146	C	0.042515	0.273741	0.242062
N147	N	-0.496779	-0.196951	-0.218514
N148	N	0.003221	0.303049	0.281486
H149	H	-0.232733	-0.947677	-0.811800
H150	H	0.267267	-0.447677	-0.311800
C151	C	-0.457444	-0.730465	-0.257915
C152	C	0.042556	-0.230465	0.242085
N153	N	-0.496740	-0.759721	-0.218491
N154	N	0.003260	-0.259721	0.281509
C155	C	-0.258271	-0.374827	-0.457758
C156	C	0.241729	0.125173	0.042242
N157	N	-0.218964	-0.404132	-0.497172
N158	N	0.281036	0.095868	0.002828
C159	C	-0.803288	-1.110328	-0.396919
C160	C	-0.303288	-0.610328	0.103081
N161	N	-0.781114	-1.163416	-0.412627
N162	N	-0.281114	-0.663416	0.087373
C163	C	-0.457476	-0.374695	-0.257930
C164	C	0.042524	0.125305	0.242070
N165	N	-0.496774	-0.403946	-0.218504
N166	N	0.003226	0.096054	0.281496
H167	H	-0.903800	-1.008574	-0.482951
H168	H	-0.403800	-0.508574	0.017049
H169	H	-0.449340	-0.894699	-0.811868
H170	H	0.050660	-0.394699	-0.311868
H171	H	-0.391374	-1.092157	-0.811936
H172	H	0.108626	-0.592157	-0.311936
H173	H	-0.266174	-1.061765	-0.904425
H174	H	0.233826	-0.561765	-0.404425
H175	H	-0.482791	-1.008634	-0.904634
H176	H	0.017209	-0.508634	-0.404634
