data_functionalizedCrystal
_audit_creation_method	'MofGen! by Chris Wilmer'
_symmetry_space_group_name_H-M	'P1'
_symmetry_Int_Tables_number	1
_symmetry_cell_setting	triclinic
loop_
_symmetry_equiv_pos_as_xyz
  x,y,z
_cell_length_a	18.215407
_cell_length_b	19.805405
_cell_length_c	18.215399
_cell_angle_alpha	89.969390
_cell_angle_beta	89.980167
_cell_angle_gamma	90.026858
loop_
_atom_site_label
_atom_site_type_symbol
_atom_site_fract_x
_atom_site_fract_y
_atom_site_fract_z
Zn1	Zn	1.125064	-0.269462	-0.416102
Zn2	Zn	1.625064	0.230538	0.083898
Zn3	Zn	1.124969	-0.382653	-0.293030
Zn4	Zn	1.624969	0.117347	0.206970
Zn5	Zn	1.001997	-0.269484	-0.293050
Zn6	Zn	1.501997	0.230516	0.206950
Zn7	Zn	1.001959	-0.382615	-0.416055
Zn8	Zn	1.501959	0.117385	0.083945
O9	O	1.063497	-0.326054	-0.354559
O10	O	1.563497	0.173946	0.145441
O11	O	1.228036	-0.284484	-0.399788
O12	O	1.728036	0.215516	0.100212
O13	O	1.108633	-0.367666	-0.190049
O14	O	1.608633	0.132334	0.309951
O15	O	1.018377	-0.174765	-0.309401
O16	O	1.518377	0.325235	0.190599
O17	O	1.227966	-0.367644	-0.309368
O18	O	1.727966	0.132356	0.190632
O19	O	1.108794	-0.174748	-0.399807
O20	O	1.608794	0.325252	0.100193
O21	O	1.018285	-0.284521	-0.190063
O22	O	1.518285	0.215479	0.309937
O23	O	0.899008	-0.284485	-0.309355
O24	O	1.399008	0.215515	0.190645
O25	O	1.018313	-0.367580	-0.519046
O26	O	1.518313	0.132420	-0.019046
O27	O	0.898980	-0.367602	-0.399727
O28	O	1.398980	0.132398	0.100273
O29	O	1.108758	-0.284447	-0.519080
O30	O	1.608758	0.215553	-0.019080
O31	O	1.108596	-0.477365	-0.309322
O32	O	1.608596	0.022635	0.190678
O33	O	1.018221	-0.477337	-0.399708
O34	O	1.518221	0.022663	0.100292
C35	C	0.872291	-0.326042	-0.354538
C36	C	1.372291	0.173958	0.145462
C37	C	0.790492	-0.326053	-0.354547
C38	C	1.290492	0.173947	0.145453
C39	C	0.602303	-0.369400	-0.401544
C40	C	1.102303	0.130600	0.098456
C41	C	0.525444	-0.369403	-0.401553
C42	C	1.025444	0.130597	0.098447
C43	C	0.525444	-0.282719	-0.307591
C44	C	1.025444	0.217281	0.192409
C45	C	0.602301	-0.282714	-0.307586
C46	C	1.102301	0.217286	0.192414
C47	C	0.640729	-0.326059	-0.354561
C48	C	1.140729	0.173941	0.145439
C49	C	0.487013	-0.326066	-0.354575
C50	C	0.987013	0.173934	0.145425
C51	C	0.403679	-0.326068	-0.354585
C52	C	0.903679	0.173932	0.145415
C53	C	0.724068	-0.326056	-0.354553
C54	C	1.224068	0.173944	0.145447
C55	C	1.063415	-0.501910	-0.354524
C56	C	1.563415	-0.001910	0.145476
C57	C	1.063446	-0.577142	-0.354533
C58	C	1.563446	-0.077142	0.145467
C59	C	1.110550	-0.612478	-0.307518
C60	C	1.610550	-0.112478	0.192482
C61	C	1.110582	-0.683166	-0.307535
C62	C	1.610582	-0.183166	0.192465
C63	C	1.063505	-0.718517	-0.354562
C64	C	1.563505	-0.218517	0.145438
C65	C	1.016399	-0.683176	-0.401582
C66	C	1.516399	-0.183176	0.098418
C67	C	1.016372	-0.612489	-0.401569
C68	C	1.516372	-0.112489	0.098431
C69	C	1.016507	-0.968249	-0.401637
C70	C	1.516507	-0.468249	0.098363
C71	C	1.016536	-1.038941	-0.401645
C72	C	1.516536	-0.538941	0.098355
C73	C	1.110717	-1.038927	-0.307602
C74	C	1.610717	-0.538927	0.192398
C75	C	1.110690	-0.968239	-0.307589
C76	C	1.610690	-0.468239	0.192411
C77	C	1.063587	-0.932905	-0.354611
C78	C	1.563587	-0.432905	0.145389
C79	C	1.063555	-0.856256	-0.354594
C80	C	1.563555	-0.356256	0.145406
C81	C	1.063533	-0.795164	-0.354577
C82	C	1.563533	-0.295164	0.145423
C83	C	1.255450	-0.326066	-0.354581
C84	C	1.755450	0.173934	0.145419
C85	C	1.337249	-0.326071	-0.354590
C86	C	1.837249	0.173929	0.145410
C87	C	1.063542	-0.326007	-0.546512
C88	C	1.563542	0.173993	-0.046512
C89	C	1.063561	-0.325987	-0.628311
C90	C	1.563561	0.174013	-0.128311
C91	C	1.063601	-0.149511	-0.354611
C92	C	1.563601	0.350489	0.145389
C93	C	1.063645	-0.074279	-0.354633
C94	C	1.563645	0.425721	0.145367
C95	C	1.110673	-0.282659	-0.816524
C96	C	1.610673	0.217341	-0.316524
C97	C	1.110682	-0.282639	-0.893383
C98	C	1.610682	0.217361	-0.393383
C99	C	1.016502	-0.369210	-0.893336
C100	C	1.516502	0.130790	-0.393336
C101	C	1.016490	-0.369226	-0.816479
C102	C	1.516490	0.130774	-0.316479
C103	C	1.063580	-0.325952	-0.778075
C104	C	1.563580	0.174048	-0.278075
C105	C	1.063600	-0.325916	-0.931791
C106	C	1.563600	0.174084	-0.431791
C107	C	1.063609	-0.325895	-1.015125
C108	C	1.563609	0.174105	-0.515125
C109	C	1.063570	-0.325972	-0.694736
C110	C	1.563570	0.174028	-0.194736
C111	C	1.063495	-0.326051	-0.163353
C112	C	1.563495	0.173949	0.336647
C113	C	1.063619	-0.325880	-0.081555
C114	C	1.563619	0.174120	0.418445
H115	H	0.633588	-0.247416	-0.269327
H116	H	1.133588	0.252584	0.230673
H117	H	1.148938	-0.711934	-0.269250
H118	H	1.648938	-0.211934	0.230750
H119	H	1.149028	-0.247385	-0.924686
H120	H	1.649028	0.252615	-0.424686
H121	H	0.978153	-0.939485	-0.439923
H122	H	1.478153	-0.439485	0.060077
H123	H	1.148883	-0.583700	-0.269220
H124	H	1.648883	-0.083700	0.230780
H125	H	0.978016	-0.583719	-0.439854
H126	H	1.478016	-0.083719	0.060146
H127	H	1.149022	-0.939459	-0.269292
H128	H	1.649022	-0.439459	0.230708
H129	H	1.149073	-1.067705	-0.269317
H130	H	1.649073	-0.567705	0.230683
H131	H	0.978165	-0.404444	-0.924614
H132	H	1.478165	0.095556	-0.424614
H133	H	0.978136	-0.404480	-0.785172
H134	H	1.478136	0.095520	-0.285172
H135	H	1.149014	-0.247420	-0.785258
H136	H	1.649014	0.252580	-0.285258
H137	H	0.633589	-0.404693	-0.439797
H138	H	1.133589	0.095307	0.060203
H139	H	0.494162	-0.404695	-0.439812
H140	H	0.994162	0.095305	0.060188
H141	H	0.494146	-0.247431	-0.269344
H142	H	0.994146	0.252569	0.230656
H143	H	0.978071	-0.711965	-0.439876
H144	H	1.478071	-0.211965	0.060124
H145	H	0.978202	-1.067722	-0.439946
H146	H	1.478202	-0.567722	0.060054
