data_functionalizedCrystal
_audit_creation_method	'MofGen! by Chris Wilmer'
_symmetry_space_group_name_H-M	'P1'
_symmetry_Int_Tables_number	1
_symmetry_cell_setting	triclinic
loop_
_symmetry_equiv_pos_as_xyz
  x,y,z
_cell_length_a	15.995343
_cell_length_b	16.109301
_cell_length_c	15.186229
_cell_angle_alpha	89.998944
_cell_angle_beta	90.001292
_cell_angle_gamma	83.475384
loop_
_atom_site_label
_atom_site_type_symbol
_atom_site_fract_x
_atom_site_fract_y
_atom_site_fract_z
O1	O	1.110962	0.107130	0.073138
O2	O	1.610962	0.607130	0.573138
O3	O	0.867183	0.120370	0.073158
O4	O	1.367183	0.620370	0.573158
O5	O	0.995769	-0.007279	0.073145
O6	O	1.495769	0.492721	0.573145
O7	O	0.982376	0.234779	0.073151
O8	O	1.482376	0.734779	0.573151
O9	O	0.995754	-0.007272	-0.073313
O10	O	1.495754	0.492728	0.426687
O11	O	0.867168	0.120378	-0.073299
O12	O	1.367168	0.620378	0.426701
O13	O	1.110947	0.107137	-0.073320
O14	O	1.610947	0.607137	0.426680
Zn15	Zn	0.989055	0.113759	-0.096563
Zn16	Zn	1.489055	0.613759	0.403437
Zn17	Zn	0.989075	0.113749	0.096401
Zn18	Zn	1.489075	0.613749	0.596401
O19	O	0.982361	0.234787	-0.073306
O20	O	1.482361	0.734787	0.426694
C21	C	0.835980	0.119828	-0.000068
C22	C	1.335980	0.619828	0.499932
C23	C	0.743030	0.118190	-0.000060
C24	C	1.243030	0.618190	0.499940
C25	C	0.572844	0.115218	-0.000071
C26	C	1.072844	0.615218	0.499929
C27	C	0.549524	0.023074	-0.000074
C28	C	1.049524	0.523074	0.499926
C29	C	0.452847	0.021341	-0.000411
C30	C	0.952847	0.521341	0.499589
C31	C	0.405286	0.112290	-0.000082
C32	C	0.905286	0.612290	0.499918
C33	C	0.434356	0.158625	-0.083549
C34	C	0.934356	0.658625	0.416451
C35	C	0.531148	0.159718	-0.083614
C36	C	1.031148	0.659718	0.416386
C37	C	0.531075	0.161059	0.082942
C38	C	1.031075	0.661059	0.582942
C39	C	0.434581	0.157657	0.084033
C40	C	0.934581	0.657657	0.584033
C41	C	0.310588	0.110640	-0.000091
C42	C	0.810588	0.610640	0.499909
C43	C	0.667542	0.116870	-0.000068
C44	C	1.167542	0.616870	0.499932
C45	C	0.995219	-0.038251	-0.000083
C46	C	1.495219	0.461749	0.499917
C47	C	0.993593	-0.130546	-0.000079
C48	C	1.493593	0.369454	0.499921
C49	C	1.142150	0.107680	-0.000092
C50	C	1.642150	0.607680	0.499908
C51	C	1.235100	0.109317	-0.000094
C52	C	1.735100	0.609317	0.499906
C53	C	0.982911	0.265758	-0.000077
C54	C	1.482911	0.765758	0.499923
C55	C	0.984537	0.358054	-0.000074
C56	C	1.484537	0.858054	0.499926
N57	N	0.989048	0.113765	-0.228255
N58	N	1.489048	0.613765	0.271745
C59	C	0.913554	0.667035	-0.000065
C60	C	1.413554	1.167035	0.499935
C61	C	0.912018	0.580314	-0.000066
C62	C	1.412018	1.080314	0.499934
C63	C	1.064582	0.560478	-0.000092
C64	C	1.564582	1.060478	0.499908
C65	C	1.066117	0.647197	-0.000096
C66	C	1.566117	1.147197	0.499904
C67	C	0.990601	0.700474	-0.000078
C68	C	1.490601	1.200474	0.499922
C69	C	0.987529	0.527034	-0.000075
C70	C	1.487529	1.027034	0.499925
C71	C	0.985864	0.433008	-0.000077
C72	C	1.485864	0.933008	0.499923
C73	C	0.992266	0.794506	-0.000079
C74	C	1.492266	1.294506	0.499921
C75	C	1.039829	0.164205	-0.453981
C76	C	1.539829	0.664205	0.046019
C77	C	1.039838	0.164199	-0.546171
C78	C	1.539838	0.664199	-0.046171
C79	C	0.938305	0.063290	-0.546174
C80	C	1.438305	0.563290	-0.046174
C81	C	0.938301	0.063292	-0.453986
C82	C	1.438301	0.563292	0.046014
C83	C	0.989062	0.113754	-0.407892
C84	C	1.489062	0.613754	0.092108
C85	C	0.989075	0.113746	-0.592269
C86	C	1.489075	0.613746	-0.092269
C87	C	0.989084	0.113740	-0.692226
C88	C	1.489084	0.613740	-0.192226
C89	C	0.989054	0.113760	-0.307929
C90	C	1.489054	0.613760	0.192071
N91	N	0.989089	0.113736	0.228094
N92	N	1.489089	0.613736	0.728094
H93	H	0.434413	-0.014754	-0.060596
H94	H	0.934413	0.485246	0.439404
H95	H	0.557936	0.128010	-0.146245
H96	H	1.057936	0.628010	0.353755
Cl97	Cl	0.818620	0.734008	-0.000048
Cl98	Cl	1.318620	1.234008	0.499952
Cl99	Cl	0.815155	0.538281	-0.000050
Cl100	Cl	1.315155	1.038281	0.499950
Cl101	Cl	0.553624	0.264040	-0.089113
Cl102	Cl	1.053624	0.764040	0.410887
H103	H	1.081179	0.205280	-0.583693
H104	H	1.581179	0.705280	-0.083693
Cl105	Cl	0.592790	-0.032078	0.092323
Cl106	Cl	1.092790	0.467922	0.592323
Cl107	Cl	0.423503	-0.034658	0.091946
Cl108	Cl	0.923503	0.465342	0.591946
Cl109	Cl	0.594274	-0.031168	-0.092351
Cl110	Cl	1.094274	0.468832	0.407649
Cl111	Cl	0.385162	0.261970	-0.087982
Cl112	Cl	0.885162	0.761970	0.412018
H113	H	1.126064	0.517090	-0.000105
H114	H	1.626064	1.017090	0.499895
H115	H	0.896977	0.022207	-0.583715
H116	H	1.396977	0.522207	-0.083715
Cl117	Cl	1.162984	0.689237	-0.000115
Cl118	Cl	1.662984	1.189237	0.499885
Cl119	Cl	1.103649	0.227636	-0.396037
Cl120	Cl	1.603649	0.727636	0.103963
Cl121	Cl	0.874472	-0.000135	-0.396040
Cl122	Cl	1.374472	0.499865	0.103960
H123	H	0.414266	0.126839	-0.145902
H124	H	0.914266	0.626839	0.354098
H125	H	0.559360	0.131985	0.146227
H126	H	1.059360	0.631985	0.646227
H127	H	0.416039	0.123914	0.145783
H128	H	0.916039	0.623914	0.645783
H129	H	0.401607	0.224019	0.089334
H130	H	0.901607	0.724019	0.589334
H131	H	0.545070	0.228882	0.083748
H132	H	1.045070	0.728882	0.583748
