data_functionalizedCrystal
_audit_creation_method	'MofGen! by Chris Wilmer'
_symmetry_space_group_name_H-M	'P1'
_symmetry_Int_Tables_number	1
_symmetry_cell_setting	triclinic
loop_
_symmetry_equiv_pos_as_xyz
  x,y,z
_cell_length_a	19.077068
_cell_length_b	11.169417
_cell_length_c	11.169409
_cell_angle_alpha	90.019824
_cell_angle_beta	92.259065
_cell_angle_gamma	87.672208
loop_
_atom_site_label
_atom_site_type_symbol
_atom_site_fract_x
_atom_site_fract_y
_atom_site_fract_z
Zn1	Zn	-0.280126	-1.815630	-0.697665
Zn2	Zn	0.219874	-1.315630	-0.197665
Zn3	Zn	-0.397846	-1.807395	-0.505018
Zn4	Zn	0.102154	-1.307395	-0.005018
Zn5	Zn	-0.280169	-1.614913	-0.497002
Zn6	Zn	0.219831	-1.114913	0.002998
Zn7	Zn	-0.397789	-1.606803	-0.705659
Zn8	Zn	0.102211	-1.106803	-0.205659
O9	O	-0.338983	-1.711185	-0.601336
O10	O	0.161017	-1.211185	-0.101336
O11	O	-0.295748	-1.982486	-0.672119
O12	O	0.204252	-1.482486	-0.172119
O13	O	-0.382278	-1.781809	-0.336008
O14	O	0.117722	-1.281809	0.163992
O15	O	-0.181673	-1.648378	-0.516921
O16	O	0.318327	-1.148378	-0.016921
O17	O	-0.382237	-1.976436	-0.530582
O18	O	0.117763	-1.476436	-0.030582
O19	O	-0.181642	-1.795844	-0.664347
O20	O	0.318358	-1.295844	-0.164347
O21	O	-0.295821	-1.640393	-0.330119
O22	O	0.204179	-1.140393	0.169881
O23	O	-0.295766	-1.445887	-0.524672
O24	O	0.204234	-0.945887	-0.024672
O25	O	-0.382139	-1.634556	-0.872546
O26	O	0.117861	-1.134556	-0.372546
O27	O	-0.382181	-1.439929	-0.677971
O28	O	0.117819	-0.939929	-0.177971
O29	O	-0.295693	-1.787981	-0.866672
O30	O	0.204307	-1.287981	-0.366672
O31	O	-0.496329	-1.773945	-0.538333
O32	O	0.003671	-1.273945	-0.038333
O33	O	-0.496287	-1.626571	-0.685743
O34	O	0.003713	-1.126571	-0.185743
C35	C	-0.338972	-1.399361	-0.601320
C36	C	0.161028	-0.899361	-0.101320
C37	C	-0.338984	-1.265960	-0.601343
C38	C	0.161016	-0.765960	-0.101343
C39	C	-0.521846	-1.698517	-0.613802
C40	C	-0.021846	-1.198517	-0.113802
C41	C	-0.600075	-1.693208	-0.619175
C42	C	-0.100075	-1.193208	-0.119175
C43	C	-0.338905	-1.711282	-0.914373
C44	C	0.161095	-1.211282	-0.414373
C45	C	-0.338871	-1.711324	-1.047771
C46	C	0.161129	-1.211324	-0.547771
C47	C	-0.636826	-1.767503	-0.545014
C48	C	-0.136826	-1.267503	-0.045014
C49	C	-0.710331	-1.762516	-0.550075
C50	C	-0.210331	-1.262516	-0.050075
C51	C	-0.747084	-1.683227	-0.629291
C52	C	-0.247084	-1.183227	-0.129291
C53	C	-0.710328	-1.608929	-0.703460
C54	C	-0.210328	-1.108929	-0.203460
C55	C	-0.636824	-1.613923	-0.698404
C56	C	-0.136824	-1.113923	-0.198404
C57	C	-0.966916	-1.660064	-0.652640
C58	C	-0.466916	-1.160064	-0.152640
C59	C	-1.040425	-1.655073	-0.657687
C60	C	-0.540425	-1.155073	-0.157687
C61	C	-1.040424	-1.808662	-0.504303
C62	C	-0.540424	-1.308662	-0.004303
C63	C	-0.966918	-1.813643	-0.499250
C64	C	-0.466918	-1.313643	0.000750
C65	C	-0.930169	-1.739350	-0.573423
C66	C	-0.430169	-1.239350	-0.073423
N67	N	-0.822218	-1.678125	-0.634463
N68	N	-0.322218	-1.178125	-0.134463
N69	N	-0.855036	-1.744459	-0.568256
N70	N	-0.355036	-1.244459	-0.068256
C71	C	-0.155406	-1.723935	-0.588848
C72	C	0.344594	-1.223935	-0.088848
C73	C	-0.077176	-1.729368	-0.583526
C74	C	0.422824	-1.229368	-0.083526
C75	C	-0.338994	-2.024226	-0.601353
C76	C	0.161006	-1.524226	-0.101353
C77	C	-0.338999	-2.157626	-0.601360
C78	C	0.161001	-1.657626	-0.101360
C79	C	-0.339010	-1.711160	-0.289513
C80	C	0.160990	-1.211160	0.210487
C81	C	-0.338845	-1.711365	-0.156103
C82	C	0.161155	-1.211365	0.343897
H83	H	-0.740251	-1.823014	-0.489685
H84	H	-0.240251	-1.323014	0.010315
C85	C	-0.926501	-1.578323	-0.734206
C86	C	-0.426501	-1.078323	-0.234206
H87	H	-0.958919	-1.530376	-0.782092
H88	H	-0.458919	-1.030376	-0.282092
H89	H	-0.897775	-1.626142	-0.784571
H90	H	-0.397775	-1.126142	-0.284571
H91	H	-0.897880	-1.527996	-0.686264
H92	H	-0.397880	-1.027996	-0.186264
H93	H	-0.606907	-1.832062	-0.480503
H94	H	-0.106907	-1.332062	0.019497
H95	H	-0.936996	-1.878206	-0.434746
H96	H	-0.436996	-1.378206	0.065254
C97	C	-1.080849	-1.890386	-0.422730
C98	C	-0.580849	-1.390386	0.077270
H99	H	-1.129889	-1.876066	-0.437089
H100	H	-0.629889	-1.376066	0.062911
H101	H	-1.068852	-1.873683	-0.341250
H102	H	-0.568852	-1.373683	0.158750
H103	H	-1.068754	-1.971841	-0.439544
H104	H	-0.568754	-1.471841	0.060456
H105	H	-1.070347	-1.590521	-0.722215
H106	H	-0.570347	-1.090521	-0.222215
C107	C	-0.750754	-1.521711	-0.790593
C108	C	-0.250754	-1.021711	-0.290593
H109	H	-0.799794	-1.529366	-0.782974
H110	H	-0.299794	-1.029366	-0.282974
H111	H	-0.738660	-1.540051	-0.870417
H112	H	-0.238660	-1.040051	-0.370417
H113	H	-0.738753	-1.441893	-0.772122
H114	H	-0.238753	-0.941893	-0.272122
H115	H	-0.606902	-1.553426	-0.758795
H116	H	-0.106902	-1.053426	-0.258795
