data_functionalizedCrystal
_audit_creation_method	'MofGen! by Chris Wilmer'
_symmetry_space_group_name_H-M	'P1'
_symmetry_Int_Tables_number	1
_symmetry_cell_setting	triclinic
loop_
_symmetry_equiv_pos_as_xyz
  x,y,z
_cell_length_a	19.851628
_cell_length_b	23.196402
_cell_length_c	23.196401
_cell_angle_alpha	90.011884
_cell_angle_beta	119.989765
_cell_angle_gamma	120.008967
loop_
_atom_site_label
_atom_site_type_symbol
_atom_site_fract_x
_atom_site_fract_y
_atom_site_fract_z
Zr1	Zr	-0.737395	0.555248	-0.075662
O2	O	-0.877941	0.463155	-0.167710
O3	O	-0.596850	0.583492	-0.047444
O4	O	-0.737397	0.583444	-0.167714
O5	O	-0.737393	0.463226	0.047431
O6	O	-0.737396	0.678315	-0.167716
O7	O	-0.737395	0.463203	-0.047441
O8	O	-0.485985	0.678401	0.047424
O9	O	-0.988805	0.463140	-0.167709
O10	O	-0.654658	0.666323	-0.035411
O11	O	-0.654657	0.595539	0.035392
O12	O	-0.820132	0.595483	-0.106210
O13	O	-0.820131	0.524699	-0.035406
Zr14	Zr	-0.737392	0.706592	0.075644
Zr15	Zr	-0.737395	0.706556	-0.075665
Zr16	Zr	-0.737392	0.555284	0.075647
Zr17	Zr	-0.914210	0.555224	-0.075660
Zr18	Zr	-0.560577	0.706616	0.075643
O19	O	-0.877937	0.678347	0.047427
O20	O	-0.877941	0.678296	-0.167715
O21	O	-0.877937	0.463207	0.047432
O22	O	-0.596846	0.798684	0.167692
O23	O	-0.596850	0.798633	-0.047449
O24	O	-0.596846	0.583544	0.167697
O25	O	-0.737394	0.798614	-0.047448
O26	O	-0.737390	0.678395	0.167696
O27	O	-0.737391	0.583525	0.167698
O28	O	-0.737392	0.798636	0.047423
O29	O	-0.988804	0.583410	-0.167712
O30	O	-0.485983	0.678430	0.167694
O31	O	-0.485982	0.798699	0.167692
O32	O	-0.485984	0.798671	0.047421
O33	O	-0.988803	0.463169	-0.047439
O34	O	-0.988802	0.583439	-0.047441
O35	O	-0.654655	0.666357	0.106192
O36	O	-0.654656	0.737141	0.035389
O37	O	-0.820130	0.666301	-0.035410
O38	O	-0.820129	0.595516	0.035393
C39	C	-0.516225	0.630950	-0.000010
C40	C	-0.441163	0.630960	-0.000011
C41	C	-0.259825	0.669535	-0.038625
C42	C	-0.159669	0.697537	0.027944
C43	C	-0.303755	0.630943	-0.000013
C44	C	-0.270161	0.602957	-0.066578
C45	C	-0.171028	0.630927	-0.000021
C46	C	-0.204542	0.658984	0.066595
C47	C	-0.315088	0.564367	-0.027974
C48	C	-0.214938	0.592352	0.038635
C49	C	-0.380215	0.630954	-0.000009
C50	C	-0.094565	0.630917	-0.000017
C51	C	-0.737394	0.441657	-0.000004
C52	C	-0.737394	0.377422	-0.000003
C53	C	0.041440	0.630897	-0.000011
C54	C	-0.033617	0.630908	-0.000022
C55	C	-0.737403	-0.085405	0.052246
C56	C	-0.737397	-0.025047	0.052252
C57	C	-0.737399	0.005122	-0.000014
C58	C	-0.737383	-0.025061	-0.052279
C59	C	-0.737380	-0.085413	-0.052280
C60	C	-0.792916	0.076964	-0.063808
C61	C	-0.792925	0.137313	-0.063809
C62	C	-0.737404	0.191270	-0.000014
C63	C	-0.681886	0.184866	0.063785
C64	C	-0.681883	0.124514	0.063785
C65	C	-0.737402	0.070564	-0.000020
C66	C	-0.737406	0.286896	0.052257
C67	C	-0.737394	0.347257	0.052263
C68	C	-0.737390	0.347238	-0.052274
C69	C	-0.737392	0.286882	-0.052274
C70	C	-0.737405	0.256712	-0.000009
C71	C	-0.737397	0.630875	-0.189273
C72	C	-0.737398	0.630859	-0.253508
C73	C	-0.737393	0.820183	-0.000013
C74	C	-0.737393	0.884417	-0.000015
C75	C	-0.823771	0.593885	-0.320637
C76	C	-0.823772	0.593903	-0.380992
C77	C	-0.737396	0.630885	-0.374214
C78	C	-0.651011	0.667868	-0.307073
C79	C	-0.651012	0.667855	-0.246720
C80	C	-0.671219	0.625645	-0.441532
C81	C	-0.671222	0.625653	-0.501885
C82	C	-0.737388	0.630930	-0.560362
C83	C	-0.803569	0.636185	-0.558484
C84	C	-0.803570	0.636172	-0.498131
C85	C	-0.737385	0.630904	-0.439653
C86	C	-0.823769	0.593973	-0.692938
C87	C	-0.823767	0.593996	-0.753292
C88	C	-0.651003	0.667957	-0.679371
C89	C	-0.651008	0.667939	-0.619018
C90	C	-0.737393	0.630943	-0.625806
C91	C	-0.737390	0.630965	0.189256
C92	C	-0.737389	0.630980	0.253490
C93	C	-0.516225	0.820213	-0.000015
C94	C	-0.441162	0.884458	-0.000017
C95	C	-0.516222	0.630995	0.189254
C96	C	-0.441158	0.631021	0.253488
C97	C	-0.516221	0.820259	0.189250
C98	C	-0.441157	0.884518	0.253482
C99	C	-0.958566	0.441581	-0.189267
C100	C	-1.033630	0.377321	-0.253500
C101	C	-0.958562	0.441626	-0.000003
C102	C	-1.033625	0.377382	-0.000001
C103	C	-0.958565	0.630844	-0.189271
C104	C	-1.033629	0.630819	-0.253506
C105	C	-0.405912	0.877661	-0.036981
C106	C	-0.335393	0.938020	-0.036997
C107	C	-0.300119	1.005174	-0.000044
C108	C	-0.335376	1.011969	0.036921
C109	C	-0.405899	0.951611	0.036932
C110	C	-0.405907	0.667999	0.320616
C111	C	-0.335386	0.668021	0.380977
C112	C	-0.300114	0.631068	0.374207
C113	C	-0.335372	0.594085	0.307072
C114	C	-0.405896	0.594060	0.246713
C115	C	-0.405907	0.951650	0.246688
C116	C	-0.335387	1.012035	0.307036
C117	C	-0.300113	1.005286	0.374177
C118	C	-0.335370	0.938147	0.380969
C119	C	-0.405894	0.877764	0.320623
C120	C	-1.068888	0.310189	-0.246706
C121	C	-1.139431	0.249805	-0.307053
C122	C	-1.174709	0.256553	-0.374194
C123	C	-1.139447	0.323692	-0.380987
C124	C	-1.068910	0.384076	-0.320640
C125	C	-1.068882	0.384178	0.036957
C126	C	-1.139421	0.323820	0.036956
C127	C	-1.174697	0.256665	0.000002
C128	C	-1.139437	0.249870	-0.036961
C129	C	-1.068904	0.310228	-0.036964
C130	C	-1.068879	0.667779	-0.246714
C131	C	-1.139400	0.667769	-0.307063
C132	C	-1.174674	0.630794	-0.374203
C133	C	-1.139417	0.593832	-0.380993
C134	C	-1.068893	0.593847	-0.320645
H135	H	-0.093219	0.753833	0.051594
Br136	Br	-1.187269	0.158697	-0.297818
Br137	Br	-0.581355	0.618549	-0.362148
Br138	Br	-0.941003	0.543783	-0.702145
Br139	Br	-0.868244	0.003752	-0.150397
Br140	Br	-0.425870	0.470553	-0.067416
Br141	Br	-0.204402	0.631109	0.456132
H142	H	-1.232130	0.207524	0.000010
H143	H	-0.617337	0.621370	-0.503409
Br144	Br	-0.453756	0.718160	0.329822
Br145	Br	-1.187320	0.158726	-0.087108
Br146	Br	-1.270438	0.174597	-0.456088
H147	H	-0.297139	0.579296	-0.122867
H148	H	-1.168179	0.329179	-0.435660
H149	H	-1.168148	0.563728	-0.435667
H150	H	-0.306687	0.698139	0.435635
Br151	Br	-0.287488	0.929000	0.472095
H152	H	-0.177426	0.682710	0.122912
Br153	Br	-0.287491	1.103113	0.087070
H154	H	-1.040170	0.697889	-0.192050
Br155	Br	-1.021063	0.475181	-0.329874
Br156	Br	-1.021069	0.543675	-0.329875
Br157	Br	-0.182273	0.537955	0.093125
Br158	Br	-1.187237	0.717931	-0.297830
H159	H	-0.306687	1.066697	0.301492
H160	H	-0.279464	0.702217	-0.071220
Br161	Br	-1.021060	0.300992	-0.087122
H162	H	-0.434590	0.957155	0.067037
Br163	Br	-1.021026	0.475309	0.087114
Br164	Br	-1.187256	0.333058	0.087125
Br165	Br	-0.737419	0.245952	0.123189
H166	H	-0.434586	0.823104	0.326164
H167	H	-0.306643	0.563998	0.301571
H168	H	-1.232100	0.630787	-0.423336
Br169	Br	-0.204400	1.087243	0.456070
H170	H	-0.737389	0.262307	-0.094832
H171	H	-0.737410	-0.109966	0.094805
H172	H	-0.434617	0.957159	0.192024
Br173	Br	-0.737409	0.015917	0.123184
H174	H	-0.737371	-0.109985	-0.094837
Br175	Br	-0.606540	0.115823	0.150364
H176	H	-1.040169	0.304681	-0.192041
Br177	Br	-0.606527	0.258090	0.150370
Br178	Br	-0.287558	0.928782	-0.087166
Br179	Br	-0.453771	0.786531	-0.087139
Br180	Br	-0.737376	0.015885	-0.123209
Br181	Br	-0.737396	0.388221	0.123199
H182	H	-0.737386	0.371803	-0.094828
H183	H	-0.894113	0.563763	-0.326170
Br184	Br	-0.868278	0.145995	-0.150390
H185	H	-0.894110	0.563792	-0.435659
Br186	Br	-0.533784	0.718065	-0.297872
H187	H	-0.857455	0.640453	-0.496605
H188	H	-0.857451	0.640479	-0.606098
H189	H	-0.894105	0.563890	-0.807954
H190	H	-0.434589	0.563950	0.192057
Br191	Br	-0.533774	0.718162	-0.670164
H192	H	-0.580675	0.697965	-0.192058
Br193	Br	-0.533780	0.718107	-0.527908
H194	H	-0.242694	1.054316	-0.000059
