data_functionalizedCrystal
_audit_creation_method	'MofGen! by Chris Wilmer'
_symmetry_space_group_name_H-M	'P1'
_symmetry_Int_Tables_number	1
_symmetry_cell_setting	triclinic
loop_
_symmetry_equiv_pos_as_xyz
  x,y,z
_cell_length_a	21.295419
_cell_length_b	21.295418
_cell_length_c	21.295411
_cell_angle_alpha	89.956262
_cell_angle_beta	90.004176
_cell_angle_gamma	89.982124
loop_
_atom_site_label
_atom_site_type_symbol
_atom_site_fract_x
_atom_site_fract_y
_atom_site_fract_z
Zn1	Zn	-0.250415	-0.962480	0.356310
Zn2	Zn	0.249585	-0.462480	0.856310
Zn3	Zn	-0.355667	-0.962435	0.251068
Zn4	Zn	0.144333	-0.462435	0.751068
Zn5	Zn	-0.250445	-0.857203	0.251020
Zn6	Zn	0.249555	-0.357203	0.751020
Zn7	Zn	-0.355679	-0.857225	0.356264
Zn8	Zn	0.144321	-0.357225	0.856264
O9	O	-0.303052	-0.909836	0.303665
O10	O	0.196948	-0.409836	0.803665
O11	O	-0.264359	-1.050564	0.342389
O12	O	0.235641	-0.550564	0.842389
O13	O	-0.341716	-0.948448	0.162972
O14	O	0.158284	-0.448448	0.662972
O15	O	-0.162351	-0.871178	0.264986
O16	O	0.337649	-0.371178	0.764986
O17	O	-0.341687	-1.050530	0.265067
O18	O	0.158313	-0.550530	0.765067
O19	O	-0.162330	-0.948525	0.342342
O20	O	0.337670	-0.448525	0.842342
O21	O	-0.264410	-0.871135	0.162937
O22	O	0.235590	-0.371135	0.662937
O23	O	-0.264422	-0.769117	0.264942
O24	O	0.235578	-0.269117	0.764942
O25	O	-0.341709	-0.871215	0.444360
O26	O	0.158291	-0.371215	0.944360
O27	O	-0.341737	-0.769133	0.342264
O28	O	0.158263	-0.269133	0.842264
O29	O	-0.264372	-0.948546	0.444393
O30	O	0.235628	-0.448546	0.944393
O31	O	-0.443758	-0.948469	0.265023
O32	O	0.056242	-0.448469	0.765023
O33	O	-0.443767	-0.871171	0.342310
O34	O	0.056233	-0.371171	0.842310
C35	C	-0.303085	-0.746284	0.303593
C36	C	0.196915	-0.246284	0.803593
C37	C	-0.303114	-0.676316	0.303577
C38	C	0.196886	-0.176316	0.803577
C39	C	-0.466603	-0.909835	0.303680
C40	C	0.033397	-0.409835	0.803680
C41	C	-0.536571	-0.909892	0.303708
C42	C	-0.036571	-0.409892	0.803708
C43	C	-0.138861	-0.909854	0.303664
C44	C	0.361139	-0.409854	0.803664
C45	C	-0.068893	-0.909862	0.303664
C46	C	0.431107	-0.409862	0.803664
C47	C	-0.036037	-0.869599	0.263389
C48	C	0.463963	-0.369599	0.763389
C49	C	0.029706	-0.869598	0.263397
C50	C	0.529706	-0.369598	0.763397
C51	C	0.062589	-0.909872	0.303672
C52	C	0.562589	-0.409872	0.803672
C53	C	0.029725	-0.950137	0.343954
C54	C	0.529725	-0.450137	0.843954
C55	C	-0.036016	-0.950133	0.343950
C56	C	0.463984	-0.450133	0.843950
N57	N	0.165822	-0.964983	0.308530
N58	N	0.665822	-0.464983	0.808530
N59	N	0.228274	-0.964986	0.308530
N60	N	0.728274	-0.464986	0.808530
C61	C	0.260664	-0.909888	0.303688
C62	C	0.760664	-0.409888	0.803688
N63	N	0.228244	-0.854786	0.298833
N64	N	0.728244	-0.354786	0.798833
N65	N	0.165786	-0.854783	0.298829
N66	N	0.665786	-0.354783	0.798829
C67	C	0.133875	-0.909881	0.303681
C68	C	0.633875	-0.409881	0.803681
C69	C	0.364806	-0.869621	0.263420
C70	C	0.864806	-0.369621	0.763420
C71	C	0.430550	-0.869619	0.263432
C72	C	0.930550	-0.369619	0.763432
C73	C	0.430568	-0.950163	0.343986
C74	C	0.930568	-0.450163	0.843986
C75	C	0.364825	-0.950159	0.343977
C76	C	0.864825	-0.450159	0.843977
C77	C	0.331948	-0.909889	0.303691
C78	C	0.831948	-0.409889	0.803691
C79	C	-0.303038	-0.909888	0.467856
C80	C	0.196962	-0.409888	0.967856
C81	C	-0.303033	-0.909910	0.537824
C82	C	0.196967	-0.409910	1.037824
C83	C	-0.303019	-1.074026	0.303738
C84	C	0.196981	-0.574026	0.803738
C85	C	-0.303005	-1.143994	0.303770
C86	C	0.196995	-0.643994	0.803770
C87	C	-0.343425	-0.643474	0.343779
C88	C	0.156575	-0.143474	0.843779
C89	C	-0.343410	-0.577732	0.343807
C90	C	0.156590	-0.077732	0.843807
C91	C	-0.303090	-0.544834	0.303622
C92	C	0.196910	-0.044834	0.803622
C93	C	-0.262770	-0.577683	0.263418
C94	C	0.237230	-0.077683	0.763418
C95	C	-0.262782	-0.643425	0.263395
C96	C	0.237218	-0.143425	0.763395
N97	N	-0.298162	-0.441555	0.248563
N98	N	0.201838	0.058445	0.748563
N99	N	-0.298155	-0.379104	0.248586
N100	N	0.201845	0.120896	0.748586
C101	C	-0.303049	-0.346759	0.303689
C102	C	0.196951	0.153241	0.803689
N103	N	-0.307965	-0.379225	0.358769
N104	N	0.192035	0.120775	0.858769
N105	N	-0.307976	-0.441682	0.358744
N106	N	0.192024	0.058318	0.858744
C107	C	-0.303072	-0.473548	0.303643
C108	C	0.196928	0.026452	0.803643
C109	C	-0.343346	-0.242632	0.343925
C110	C	0.156654	0.257368	0.843925
C111	C	-0.343326	-0.176888	0.343954
C112	C	0.156674	0.323112	0.843954
C113	C	-0.262690	-0.176841	0.263559
C114	C	0.237310	0.323159	0.763559
C115	C	-0.262707	-0.242583	0.263536
C116	C	0.237293	0.257417	0.763536
C117	C	-0.303038	-0.275475	0.303717
C118	C	0.196962	0.224525	0.803717
C119	C	-0.303019	-0.909820	0.140114
C120	C	0.196981	-0.409820	0.640114
C121	C	-0.302848	-0.909920	0.070146
C122	C	0.197152	-0.409920	0.570146
C123	C	-0.262761	-0.950175	0.570709
C124	C	0.237239	-0.450175	1.070709
C125	C	-0.262734	-0.950174	0.636452
C126	C	0.237266	-0.450174	1.136452
C127	C	-0.302989	-0.909915	0.669306
C128	C	0.197011	-0.409915	1.169306
C129	C	-0.343263	-0.869643	0.636413
C130	C	0.156737	-0.369643	1.136413
C131	C	-0.343285	-0.869641	0.570672
C132	C	0.156715	-0.369641	1.070672
N133	N	-0.358058	-0.905086	0.772537
N134	N	0.141942	-0.405086	1.272537
N135	N	-0.358036	-0.905092	0.834988
N136	N	0.141964	-0.405092	1.334988
C137	C	-0.302925	-0.909919	0.867381
C138	C	0.197075	-0.409919	1.367381
N139	N	-0.247837	-0.914753	0.834963
N140	N	0.252163	-0.414753	1.334963
N141	N	-0.247860	-0.914750	0.772506
N142	N	0.252140	-0.414750	1.272506
C143	C	-0.302970	-0.909913	0.740592
C144	C	0.197030	-0.409913	1.240592
C145	C	-0.262621	-0.950185	0.971552
C146	C	0.237379	-0.450185	1.471552
C147	C	-0.262593	-0.950179	1.037296
C148	C	0.237407	-0.450179	1.537296
C149	C	-0.343128	-0.869652	1.037256
C150	C	0.156872	-0.369652	1.537256
C151	C	-0.343150	-0.869654	0.971514
C152	C	0.156850	-0.369654	1.471514
C153	C	-0.302898	-0.909924	0.938666
C154	C	0.197102	-0.409924	1.438666
H155	H	0.056462	-0.836810	0.230599
H156	H	0.556462	-0.336810	0.730599
H157	H	-0.229954	-0.670164	0.230658
H158	H	0.270046	-0.170164	0.730658
C159	C	0.065343	-0.993965	0.387647
C160	C	0.565343	-0.493965	0.887647
C161	C	0.049352	-1.056242	0.373982
C162	C	0.549352	-0.556242	0.873982
C163	C	0.082142	-1.096631	0.414230
C164	C	0.582142	-0.596631	0.914230
H165	H	0.109212	-0.988289	0.381923
H166	H	0.609212	-0.488289	0.881923
H167	H	0.054553	-0.984799	0.429948
H168	H	0.554553	-0.484799	0.929948
H169	H	0.060146	-1.065405	0.331692
H170	H	0.560146	-0.565405	0.831692
H171	H	0.005488	-1.061938	0.379711
H172	H	0.505488	-0.561938	0.879711
H173	H	0.071353	-1.087465	0.456530
H174	H	0.571353	-0.587465	0.956530
H175	H	0.126010	-1.090950	0.408502
H176	H	0.626010	-0.590950	0.908502
H177	H	0.071293	-1.138890	0.404967
H178	H	0.571293	-0.638890	0.904967
H179	H	-0.062767	-0.982919	0.376749
H180	H	0.437233	-0.482919	0.876749
C181	C	-0.386910	-0.825848	0.534932
C182	C	0.113090	-0.325848	1.034932
C183	C	-0.351290	-0.785495	0.497159
C184	C	0.148710	-0.285495	0.997159
C185	C	-0.391458	-0.745140	0.464232
C186	C	0.108542	-0.245140	0.964232
H187	H	-0.414355	-0.849853	0.509262
H188	H	0.085645	-0.349853	1.009262
H189	H	-0.410870	-0.801833	0.563893
H190	H	0.089130	-0.301833	1.063893
H191	H	-0.327341	-0.809507	0.468202
H192	H	0.172659	-0.309507	0.968202
H193	H	-0.323847	-0.761476	0.522814
H194	H	0.176153	-0.261476	1.022814
H195	H	-0.415417	-0.721125	0.493194
H196	H	0.084583	-0.221125	0.993194
H197	H	-0.418900	-0.769150	0.438566
H198	H	0.081100	-0.269150	0.938566
H199	H	-0.367295	-0.717752	0.438605
H200	H	0.132705	-0.217752	0.938605
C201	C	-0.218843	-0.141245	0.219906
C202	C	0.281157	0.358755	0.719906
C203	C	-0.183532	-0.184082	0.184701
C204	C	0.316468	0.315918	0.684701
C205	C	-0.143124	-0.151311	0.144488
C206	C	0.356876	0.348689	0.644488
H207	H	-0.242806	-0.115553	0.192394
H208	H	0.257194	0.384447	0.692394
H209	H	-0.191411	-0.115654	0.244025
H210	H	0.308589	0.384346	0.744025
H211	H	-0.210960	-0.209661	0.160584
H212	H	0.289040	0.290339	0.660584
H213	H	-0.159556	-0.209775	0.212196
H214	H	0.340444	0.290225	0.712196
H215	H	-0.115693	-0.125721	0.168607
H216	H	0.384307	0.374279	0.668607
H217	H	-0.167093	-0.125620	0.116981
H218	H	0.332907	0.374380	0.616981
H219	H	-0.119158	-0.180371	0.120601
H220	H	0.380842	0.319629	0.620601
C221	C	-0.218783	-0.993790	1.073032
C222	C	0.281217	-0.493790	1.573032
C223	C	-0.178414	-0.958151	1.110719
C224	C	0.321586	-0.458151	1.610719
C225	C	-0.138040	-0.998302	1.143642
C226	C	0.361960	-0.498302	1.643642
H227	H	-0.242772	-1.021227	1.098760
H228	H	0.257228	-0.521227	1.598760
H229	H	-0.194779	-1.017757	1.044069
H230	H	0.305221	-0.517757	1.544069
H231	H	-0.202415	-0.934194	1.139680
H232	H	0.297585	-0.434194	1.639680
H233	H	-0.154411	-0.930715	1.085007
H234	H	0.345589	-0.430715	1.585007
H235	H	-0.114036	-1.022270	1.114678
H236	H	0.385964	-0.522270	1.614678
H237	H	-0.162034	-1.025738	1.169366
H238	H	0.337966	-0.525738	1.669366
H239	H	-0.110641	-0.974127	1.169211
H240	H	0.389359	-0.474127	1.669211
C241	C	0.329219	-0.825825	0.219665
C242	C	0.829219	-0.325825	0.719665
C243	C	0.372069	-0.790546	0.184411
C244	C	0.872069	-0.290546	0.684411
C245	C	0.339311	-0.750189	0.144105
C246	C	0.839311	-0.250189	0.644105
H247	H	0.303578	-0.849823	0.192188
H248	H	0.803578	-0.349823	0.692188
H249	H	0.303579	-0.798371	0.243719
H250	H	0.803579	-0.298371	0.743719
H251	H	0.397698	-0.817996	0.160360
H252	H	0.897698	-0.317996	0.660360
H253	H	0.397711	-0.766535	0.211871
H254	H	0.897711	-0.266535	0.711871
H255	H	0.313671	-0.722735	0.168159
H256	H	0.813671	-0.222735	0.668159
H257	H	0.313671	-0.774192	0.116633
H258	H	0.813671	-0.274192	0.616633
H259	H	0.368379	-0.726243	0.120185
H260	H	0.868379	-0.226243	0.620185
H261	H	-0.375898	-0.836866	1.064006
H262	H	0.124102	-0.336866	1.564006
C263	C	-0.387149	-0.278234	0.387625
C264	C	0.112851	0.221766	0.887625
C265	C	-0.422433	-0.235397	0.422856
C266	C	0.077567	0.264603	0.922856
C267	C	-0.462784	-0.268169	0.463126
C268	C	0.037216	0.231831	0.963126
H269	H	-0.414605	-0.303841	0.363565
H270	H	0.085395	0.196159	0.863565
H271	H	-0.363126	-0.303910	0.415112
H272	H	0.136874	0.196090	0.915112
H273	H	-0.446455	-0.209733	0.395372
H274	H	0.053545	0.290267	0.895372
H275	H	-0.394995	-0.209789	0.446928
H276	H	0.105005	0.290211	0.946928
H277	H	-0.438761	-0.293845	0.490614
H278	H	0.061239	0.206155	0.990614
H279	H	-0.490235	-0.293775	0.439062
H280	H	0.009765	0.206225	0.939062
H281	H	-0.486725	-0.239110	0.487040
H282	H	0.013275	0.260890	0.987040
H283	H	-0.376152	-0.150149	0.376695
H284	H	0.123848	0.349851	0.876695
H285	H	-0.376266	-0.670250	0.376499
H286	H	0.123734	-0.170250	0.876499
C287	C	-0.218940	-0.993811	0.535089
C288	C	0.281060	-0.493811	1.035089
C289	C	-0.156660	-0.980091	0.551058
C290	C	0.343340	-0.480091	1.051058
C291	C	-0.116270	-1.020269	0.518255
C292	C	0.383730	-0.520269	1.018255
H293	H	-0.228055	-1.036128	0.545872
H294	H	0.271945	-0.536128	1.045872
H295	H	-0.224667	-0.988044	0.491218
H296	H	0.275333	-0.488044	0.991218
H297	H	-0.150936	-0.985863	0.594920
H298	H	0.349064	-0.485863	1.094920
H299	H	-0.147526	-0.937782	0.540274
H300	H	0.352474	-0.437782	1.040274
H301	H	-0.121997	-1.014502	0.474383
H302	H	0.378003	-0.514502	0.974383
H303	H	-0.125391	-1.062583	0.529040
H304	H	0.374609	-0.562583	1.029040
H305	H	-0.074008	-1.010962	0.529080
H306	H	0.425992	-0.510962	1.029080
H307	H	0.338073	-0.982949	0.376769
H308	H	0.838073	-0.482949	0.876769
C309	C	0.466257	-0.825822	0.219807
C310	C	0.966257	-0.325822	0.719807
C311	C	0.503974	-0.785473	0.255432
C312	C	1.003974	-0.285473	0.755432
C313	C	0.536870	-0.745113	0.215267
C314	C	1.036870	-0.245113	0.715267
H315	H	0.491962	-0.849823	0.192382
H316	H	0.991962	-0.349823	0.692382
H317	H	0.437278	-0.801804	0.195826
H318	H	0.937278	-0.301804	0.695826
H319	H	0.532950	-0.809488	0.279402
H320	H	1.032950	-0.309488	0.779402
H321	H	0.478285	-0.761458	0.282856
H322	H	0.978285	-0.261458	0.782856
H323	H	0.507891	-0.721095	0.191286
H324	H	1.007891	-0.221095	0.691286
H325	H	0.562572	-0.769119	0.187844
H326	H	1.062572	-0.269119	0.687844
H327	H	0.562460	-0.717727	0.239433
H328	H	1.062460	-0.217727	0.739433
H329	H	-0.062801	-0.836807	0.230586
H330	H	0.437199	-0.336807	0.730586
C331	C	-0.386813	-0.825968	0.935692
C332	C	0.113187	-0.325968	1.435692
C333	C	-0.378206	-0.834571	0.871087
C334	C	0.121794	-0.334571	1.371087
C335	C	-0.418411	-0.794329	0.838069
C336	C	0.081589	-0.294329	1.338069
H337	H	-0.429128	-0.835137	0.946408
H338	H	0.070872	-0.335137	1.446408
H339	H	-0.377599	-0.783660	0.946395
H340	H	0.122401	-0.283660	1.446395
H341	H	-0.387423	-0.876870	0.860388
H342	H	0.112577	-0.376870	1.360388
H343	H	-0.335899	-0.825398	0.860352
H344	H	0.164101	-0.325398	1.360352
H345	H	-0.409198	-0.752021	0.848773
H346	H	0.090802	-0.252021	1.348773
H347	H	-0.460724	-0.803502	0.848790
H348	H	0.039276	-0.303502	1.348790
H349	H	-0.412573	-0.800157	0.794231
H350	H	0.087427	-0.300157	1.294231
C351	C	-0.218935	-0.993790	0.672200
C352	C	0.281065	-0.493790	1.172200
C353	C	-0.178570	-0.958159	0.709897
C354	C	0.321430	-0.458159	1.209897
C355	C	-0.138211	-0.998317	0.742829
C356	C	0.361789	-0.498317	1.242829
H357	H	-0.242935	-1.021224	0.697921
H358	H	0.257065	-0.521224	1.197921
H359	H	-0.194928	-1.017762	0.643242
H360	H	0.305072	-0.517762	1.143242
H361	H	-0.202574	-0.934198	0.738852
H362	H	0.297426	-0.434198	1.238852
H363	H	-0.154556	-0.930727	0.684192
H364	H	0.345444	-0.430727	1.184192
H365	H	-0.114204	-1.022289	0.713871
H366	H	0.385796	-0.522289	1.213871
H367	H	-0.162216	-1.025749	0.768547
H368	H	0.337784	-0.525749	1.268547
H369	H	-0.110814	-0.974147	0.768406
H370	H	0.389186	-0.474147	1.268406
H371	H	-0.229842	-0.982971	0.944806
H372	H	0.270158	-0.482971	1.444806
C373	C	-0.218868	-0.278279	0.219986
C374	C	0.281132	0.221721	0.719986
C375	C	-0.178569	-0.316069	0.255677
C376	C	0.321431	0.183931	0.755677
C377	C	-0.138168	-0.348954	0.215581
C378	C	0.361832	0.151046	0.715581
H379	H	-0.242840	-0.303933	0.192500
H380	H	0.257160	0.196067	0.692500
H381	H	-0.194814	-0.249292	0.196067
H382	H	0.305186	0.250708	0.696067
H383	H	-0.202620	-0.345052	0.279585
H384	H	0.297380	0.154948	0.779585
H385	H	-0.154582	-0.290431	0.283161
H386	H	0.345418	0.209569	0.783161
H387	H	-0.114115	-0.319968	0.191661
H388	H	0.385885	0.180032	0.691661
H389	H	-0.162146	-0.374605	0.188097
H390	H	0.337854	0.125395	0.688097
H391	H	-0.110817	-0.374595	0.239791
H392	H	0.389183	0.125405	0.739791
H393	H	-0.376037	-0.836862	0.663168
H394	H	0.123963	-0.336862	1.163168
H395	H	0.457341	-0.982952	0.376781
H396	H	0.957341	-0.482952	0.876781
C397	C	-0.387075	-0.542028	0.387531
C398	C	0.112925	-0.042028	0.887531
C399	C	-0.351485	-0.504359	0.427956
C400	C	0.148515	-0.004359	0.927956
C401	C	-0.391685	-0.471467	0.468248
C402	C	0.108315	0.028533	0.968248
H403	H	-0.414470	-0.516291	0.363485
H404	H	0.085530	-0.016291	0.863485
H405	H	-0.411086	-0.571010	0.411498
H406	H	0.088914	-0.071010	0.911498
H407	H	-0.327484	-0.475380	0.403992
H408	H	0.172516	0.024620	0.903992
H409	H	-0.324091	-0.530080	0.452017
H410	H	0.175909	-0.030080	0.952017
H411	H	-0.415696	-0.500449	0.492215
H412	H	0.084304	-0.000449	0.992215
H413	H	-0.419079	-0.445734	0.444197
H414	H	0.080921	0.054266	0.944197
H415	H	-0.367543	-0.445909	0.495685
H416	H	0.132457	0.054091	0.995685
C417	C	-0.219101	-0.541937	0.219705
C418	C	0.280899	-0.041937	0.719705
C419	C	-0.254681	-0.504149	0.179304
C420	C	0.245319	-0.004149	0.679304
C421	C	-0.214472	-0.471219	0.139022
C422	C	0.285528	0.028781	0.639022
H423	H	-0.191691	-0.516277	0.243760
H424	H	0.308309	-0.016277	0.743760
H425	H	-0.195106	-0.570897	0.195721
H426	H	0.304894	-0.070897	0.695721
H427	H	-0.278665	-0.475193	0.203285
H428	H	0.221335	0.024807	0.703285
H429	H	-0.282089	-0.529794	0.155236
H430	H	0.217911	-0.029794	0.655236
H431	H	-0.190477	-0.500179	0.115037
H432	H	0.309523	-0.000179	0.615037
H433	H	-0.187064	-0.445563	0.163081
H434	H	0.312936	0.054437	0.663081
H435	H	-0.238607	-0.445581	0.111601
H436	H	0.261393	0.054419	0.611601
