data_functionalizedCrystal
_audit_creation_method	'MofGen! by Chris Wilmer'
_symmetry_space_group_name_H-M	'P1'
_symmetry_Int_Tables_number	1
_symmetry_cell_setting	triclinic
loop_
_symmetry_equiv_pos_as_xyz
  x,y,z
_cell_length_a	12.594517
_cell_length_b	12.594516
_cell_length_c	13.897441
_cell_angle_alpha	89.973623
_cell_angle_beta	89.977798
_cell_angle_gamma	90.015853
loop_
_atom_site_label
_atom_site_type_symbol
_atom_site_fract_x
_atom_site_fract_y
_atom_site_fract_z
Zn1	Zn	1.627276	-0.423714	-0.545447
Zn2	Zn	1.627164	-0.601725	-0.384161
Zn3	Zn	1.449277	-0.423760	-0.384161
Zn4	Zn	1.449262	-0.601650	-0.545409
O5	O	1.538245	-0.512712	-0.464795
O6	O	1.776207	-0.447339	-0.524068
O7	O	1.603527	-0.578168	-0.249179
O8	O	1.472942	-0.274808	-0.405573
O9	O	1.776125	-0.578123	-0.405571
O10	O	1.603717	-0.274774	-0.524069
O11	O	1.472834	-0.447418	-0.249180
O12	O	1.300330	-0.447346	-0.405536
O13	O	1.472917	-0.577996	-0.680396
O14	O	1.300318	-0.578041	-0.524004
O15	O	1.603703	-0.447267	-0.680424
O16	O	1.603512	-0.750661	-0.405534
O17	O	1.472808	-0.750606	-0.524003
C18	C	1.261704	-0.512691	-0.464766
C19	C	1.143399	-0.512707	-0.464777
C20	C	1.074121	-0.441525	-0.400465
C21	C	1.003309	-0.538614	-0.376743
C22	C	1.003411	-0.415666	-0.488516
C23	C	1.074145	-0.609847	-0.441008
C24	C	1.074253	-0.486834	-0.552822
C25	C	1.003474	-0.583990	-0.529133
C26	C	1.538175	-0.789253	-0.464785
C27	C	1.538243	-0.907559	-0.464813
C28	C	1.467146	-0.976821	-0.529203
C29	C	1.441211	-1.047686	-0.441186
C30	C	1.564275	-1.047492	-0.552846
C31	C	1.512257	-0.976866	-0.376749
C32	C	1.635365	-0.976665	-0.488469
C33	C	1.609467	-1.047499	-0.400391
C34	C	1.815866	-0.512734	-0.464824
C35	C	1.934171	-0.512744	-0.464836
C36	C	1.538321	-0.512618	-0.716388
C37	C	1.538353	-0.512578	-0.823602
C38	C	1.538344	-0.235091	-0.464825
C39	C	1.538386	-0.116786	-0.464838
C40	C	1.538382	-0.512506	-1.019897
C41	C	1.538362	-0.512549	-0.910664
C42	C	1.538231	-0.512729	-0.214180
C43	C	1.538405	-0.512469	-0.106967
H44	H	0.972149	-0.560521	-0.302310
H45	H	1.105141	-0.381388	-0.346012
H46	H	1.105439	-0.464897	-0.627233
H47	H	0.972649	-0.644271	-0.583545
H48	H	1.717414	-0.945449	-0.508499
H49	H	1.359143	-1.078905	-0.421198
C50	C	1.115930	-0.720765	-0.413796
H51	H	1.057686	-0.767076	-0.402493
H52	H	1.157874	-0.715775	-0.357184
H53	H	1.157998	-0.747879	-0.464938
H54	H	0.972284	-0.333595	-0.508536
H55	H	1.490202	-0.945971	-0.302291
H56	H	1.669653	-1.078337	-0.345886
H57	H	1.406914	-0.945786	-0.583576
C58	C	1.593947	-1.089400	-0.653402
H59	H	1.543311	-1.065187	-0.699059
H60	H	1.594424	-1.164817	-0.652552
H61	H	1.662405	-1.064028	-0.670638
