data_functionalizedCrystal
_audit_creation_method	'MofGen! by Chris Wilmer'
_symmetry_space_group_name_H-M	'P1'
_symmetry_Int_Tables_number	1
_symmetry_cell_setting	triclinic
loop_
_symmetry_equiv_pos_as_xyz
  x,y,z
_cell_length_a	15.625020
_cell_length_b	15.538191
_cell_length_c	14.750779
_cell_angle_alpha	82.430615
_cell_angle_beta	85.134135
_cell_angle_gamma	66.738808
loop_
_atom_site_label
_atom_site_type_symbol
_atom_site_fract_x
_atom_site_fract_y
_atom_site_fract_z
O1	O	1.013759	0.233528	-0.432743
O2	O	0.773929	0.226835	-0.349250
O3	O	0.940528	0.097275	-0.407253
O4	O	0.847160	0.363089	-0.374739
O5	O	0.987622	0.060654	-0.263999
O6	O	0.821023	0.190214	-0.205996
O7	O	1.060853	0.196907	-0.289489
Zn8	Zn	0.948415	0.187746	-0.224997
Zn9	Zn	0.886367	0.235996	-0.413741
O10	O	0.894255	0.326468	-0.231485
C11	C	0.767531	0.205197	-0.267198
C12	C	0.678309	0.195271	-0.236137
C13	C	0.578221	0.161319	-0.114276
C14	C	0.662056	0.170649	-0.143471
C15	C	0.610726	0.210568	-0.299644
C16	C	0.526887	0.201237	-0.270463
C17	C	0.510642	0.176613	-0.177777
C18	C	0.459307	0.216532	-0.333964
C19	C	0.375473	0.207206	-0.304783
C20	C	0.359219	0.182586	-0.212101
C21	C	0.426808	0.167288	-0.148596
C22	C	0.475552	0.241162	-0.426648
C23	C	0.407972	0.256457	-0.490149
C24	C	0.324139	0.247125	-0.460970
C25	C	0.307885	0.222504	-0.368288
C26	C	0.256550	0.262423	-0.524475
C27	C	0.172716	0.253097	-0.495294
C28	C	0.224051	0.213179	-0.339107
C29	C	0.973843	0.044753	-0.339030
C30	C	1.002938	-0.057187	-0.349168
C31	C	0.713859	-0.371123	-0.248509
C32	C	0.741222	-0.466915	-0.258033
C33	C	0.895132	-0.475441	-0.311615
C34	C	0.867780	-0.379647	-0.302099
C35	C	0.777143	-0.327495	-0.270545
C36	C	0.931063	-0.336019	-0.324136
C37	C	0.903715	-0.240234	-0.314616
C38	C	0.813082	-0.188077	-0.283061
C39	C	0.749794	-0.231711	-0.261026
C40	C	1.021702	-0.388173	-0.355683
C41	C	1.084986	-0.344545	-0.377720
C42	C	1.057635	-0.248757	-0.368207
C43	C	0.967003	-0.196600	-0.336651
C44	C	1.120924	-0.205123	-0.390242
C45	C	1.093575	-0.109339	-0.380722
C46	C	0.939655	-0.100815	-0.327132
C47	C	1.067250	0.218546	-0.371542
C48	C	1.156471	0.228473	-0.402609
C49	C	0.860939	0.378990	-0.299711
C50	C	0.831841	0.480932	-0.289577
N51	N	0.990768	0.154817	-0.096187
N52	N	0.844023	0.268918	-0.542554
C53	C	0.725751	0.360844	0.347900
C54	C	0.755433	0.337776	0.438065
C55	C	0.902964	0.223098	0.386663
C56	C	0.873293	0.246153	0.296492
C57	C	0.784686	0.315028	0.277118
C58	C	0.932228	0.200337	0.225711
C59	C	0.902560	0.223394	0.135547
C60	C	0.813958	0.292267	0.116165
C61	C	0.755018	0.338085	0.186955
C62	C	1.020838	0.131468	0.245085
C63	C	1.079773	0.085651	0.174304
C64	C	1.050103	0.108703	0.084139
C65	C	0.961500	0.177577	0.064757
C66	C	1.109043	0.062886	0.013349
C67	C	1.079375	0.085943	-0.076814
C68	C	0.931833	0.200634	-0.025406
H69	H	0.623964	0.230621	-0.375109
C70	C	0.628256	0.436570	0.326593
N71	N	0.554820	0.493592	0.310545
H72	H	0.543813	0.248761	-0.450403
H73	H	0.421210	0.276509	-0.565614
H74	H	0.707433	0.375093	0.495695
C75	C	0.736397	0.153817	-0.073607
N76	N	0.792390	0.141140	-0.020987
C77	C	0.274432	0.289513	-0.626426
N78	N	0.287900	0.309916	-0.703217
C79	C	1.000429	0.147335	0.407986
N80	N	1.073839	0.090265	0.424046
H81	H	0.117689	0.265554	-0.547003
C82	C	0.781322	0.317630	0.016982
N83	N	0.756740	0.336731	-0.057722
C84	C	1.177237	0.009888	0.195627
N85	N	1.250647	-0.047182	0.211687
C86	C	0.839948	-0.043443	-0.292422
N87	N	0.764854	-0.000232	-0.266276
H88	H	0.290953	0.174998	-0.188343
C89	C	0.650088	-0.174338	-0.226316
N90	N	0.574993	-0.131127	-0.200170
C91	C	0.614153	-0.313751	-0.213799
N92	N	0.539058	-0.270540	-0.187653
H93	H	0.790818	-0.110084	-0.275306
H94	H	0.689686	-0.502436	-0.240074
H95	H	1.044991	0.112701	0.318503
C96	C	0.994830	-0.532817	-0.346324
N97	N	1.069923	-0.576032	-0.372471
H98	H	1.181191	0.006814	0.029135
H99	H	0.210819	0.193139	-0.263632
C100	C	0.408939	0.140189	-0.046638
N101	N	0.395479	0.119780	0.030153
H102	H	0.682861	0.394162	0.171184
C103	C	1.184684	-0.401922	-0.412429
N104	N	1.259777	-0.445136	-0.438576
H105	H	1.194723	-0.247601	-0.415924
C106	C	1.163189	-0.061344	-0.404968
N107	N	1.215625	-0.025195	-0.423229
C108	C	0.560353	0.134220	-0.012318
N109	N	0.546892	0.113811	0.064474
C110	C	1.144205	0.035540	-0.154677
N111	N	1.193038	-0.002424	-0.213325
H112	H	1.043964	-0.466165	-0.363441
H113	H	0.859676	0.256711	-0.041177
