data_functionalizedCrystal
_audit_creation_method	'MofGen! by Chris Wilmer'
_symmetry_space_group_name_H-M	'P1'
_symmetry_Int_Tables_number	1
_symmetry_cell_setting	triclinic
loop_
_symmetry_equiv_pos_as_xyz
  x,y,z
_cell_length_a	19.188925
_cell_length_b	19.188930
_cell_length_c	15.072220
_cell_angle_alpha	89.993728
_cell_angle_beta	89.986568
_cell_angle_gamma	83.143665
loop_
_atom_site_label
_atom_site_type_symbol
_atom_site_fract_x
_atom_site_fract_y
_atom_site_fract_z
O1	O	0.926156	0.087145	-0.073812
O2	O	1.259489	0.420478	0.259522
O3	O	1.592823	0.753811	0.592855
O4	O	0.722844	0.098883	-0.073810
O5	O	1.056177	0.432216	0.259523
O6	O	1.389511	0.765550	0.592856
O7	O	0.830367	-0.008642	-0.073794
O8	O	1.163700	0.324691	0.259540
O9	O	1.497034	0.658025	0.592873
O10	O	0.818633	0.194670	-0.073828
O11	O	1.151966	0.528003	0.259505
O12	O	1.485299	0.861336	0.592838
O13	O	0.830341	-0.008636	0.073771
O14	O	1.163674	0.324698	0.407105
O15	O	1.497007	0.658031	0.740438
O16	O	0.722818	0.098889	0.073755
O17	O	1.056151	0.432222	0.407088
O18	O	1.389484	0.765556	0.740421
O19	O	0.926129	0.087151	0.073754
O20	O	1.259463	0.420484	0.407087
O21	O	1.592796	0.753817	0.740420
Zn22	Zn	0.824469	0.093021	0.097183
Zn23	Zn	1.157803	0.426354	0.430517
Zn24	Zn	1.491136	0.759688	0.763850
Zn25	Zn	0.824504	0.093013	-0.097240
Zn26	Zn	1.157837	0.426346	0.236093
Zn27	Zn	1.491171	0.759680	0.569427
O28	O	0.818606	0.194676	0.073737
O29	O	1.151940	0.528009	0.407070
O30	O	1.485273	0.861342	0.740404
C31	C	0.696820	0.098507	-0.000027
C32	C	1.030153	0.431840	0.333306
C33	C	1.363486	0.765173	0.666639
C34	C	0.619315	0.097367	-0.000026
C35	C	0.952648	0.430701	0.333307
C36	C	1.285982	0.764034	0.666640
C37	C	0.057545	0.152831	-0.000038
C38	C	0.390878	0.486165	0.333296
C39	C	0.724211	0.819498	0.666629
C40	C	0.130368	0.153908	-0.000043
C41	C	0.463701	0.487241	0.333291
C42	C	0.797035	0.820575	0.666624
C43	C	0.175302	0.090816	-0.000030
C44	C	0.508636	0.424149	0.333303
C45	C	0.841969	0.757482	0.666636
C46	C	0.147408	0.026642	-0.000036
C47	C	0.480742	0.359976	0.333297
C48	C	0.814075	0.693309	0.666631
C49	C	0.074586	0.025568	-0.000040
C50	C	0.407920	0.358901	0.333293
C51	C	0.741253	0.692234	0.666627
N52	N	0.295971	0.045142	0.050210
N53	N	0.629304	0.378475	0.383543
N54	N	0.962637	0.711808	0.716876
N55	N	0.365148	0.046167	0.050215
N56	N	0.698481	0.379500	0.383548
N57	N	1.031814	0.712833	0.716882
C58	C	0.394712	0.094050	-0.000021
C59	C	0.728045	0.427383	0.333313
C60	C	1.061378	0.760716	0.666646
N61	N	0.352483	0.140880	-0.050251
N62	N	0.685817	0.474213	0.283082
N63	N	1.019150	0.807546	0.616416
N64	N	0.283299	0.139856	-0.050253
N65	N	0.616633	0.473190	0.283081
N66	N	0.949966	0.806523	0.616414
C67	C	0.254267	0.091974	-0.000027
C68	C	0.587600	0.425307	0.333307
C69	C	0.920933	0.758641	0.666640
C70	C	0.501561	0.159386	-0.000027
C71	C	0.834894	0.492720	0.333307
C72	C	1.168227	0.826053	0.666640
C73	C	0.574385	0.160460	-0.000037
C74	C	0.907719	0.493794	0.333296
C75	C	1.241052	0.827127	0.666629
C76	C	0.591425	0.033193	-0.000021
C77	C	0.924758	0.366526	0.333312
C78	C	1.258091	0.699859	0.666645
C79	C	0.518601	0.032121	-0.000020
C80	C	0.851934	0.365454	0.333313
C81	C	1.185268	0.698787	0.666647
C82	C	0.473673	0.095220	-0.000018
C83	C	0.807006	0.428553	0.333315
C84	C	1.140340	0.761886	0.666648
C85	C	0.829974	-0.034650	-0.000009
C86	C	1.163307	0.298683	0.333325
C87	C	1.496640	0.632017	0.666658
C88	C	0.828833	-0.112154	-0.000001
C89	C	1.162166	0.221179	0.333332
C90	C	1.495500	0.554512	0.666666
C91	C	0.891924	-0.157079	0.000003
C92	C	1.225257	0.176254	0.333336
C93	C	1.558591	0.509587	0.666670
C94	C	0.890852	-0.229903	-0.000011
C95	C	1.224186	0.103430	0.333322
C96	C	1.557519	0.436763	0.666655
C97	C	0.826686	-0.257799	-0.000012
C98	C	1.160020	0.075535	0.333322
C99	C	1.493353	0.408868	0.666655
C100	C	0.763587	-0.212864	-0.000020
C101	C	1.096920	0.120470	0.333313
C102	C	1.430254	0.453803	0.666646
C103	C	0.764660	-0.140041	-0.000015
C104	C	1.097994	0.193292	0.333318
C105	C	1.431327	0.526625	0.666652
N106	N	0.777630	-0.365801	0.050208
N107	N	1.110963	-0.032467	0.383541
N108	N	1.444296	0.300866	0.716875
N109	N	0.776614	-0.434979	0.050205
N110	N	1.109948	-0.101646	0.383538
N111	N	1.443281	0.231687	0.716871
C112	C	0.823448	-0.477207	-0.000029
C113	C	1.156781	-0.143874	0.333304
C114	C	1.490115	0.189459	0.666637
N115	N	0.871346	-0.447645	-0.050249
N116	N	1.204680	-0.114311	0.283084
N117	N	1.538013	0.219022	0.616417
N118	N	0.872364	-0.378460	-0.050242
N119	N	1.205697	-0.045127	0.283091
N120	N	1.539030	0.288207	0.616424
C121	C	0.825515	-0.336761	-0.000018
C122	C	1.158848	-0.003428	0.333315
C123	C	1.492182	0.329906	0.666649
C124	C	0.885381	-0.601097	-0.000042
C125	C	1.218715	-0.267763	0.333291
C126	C	1.552048	0.065570	0.666624
C127	C	0.884307	-0.673922	-0.000062
C128	C	1.217640	-0.340588	0.333271
C129	C	1.550974	-0.007255	0.666605
C130	C	0.757040	-0.656880	-0.000062
C131	C	1.090373	-0.323547	0.333271
C132	C	1.423706	0.009786	0.666604
C133	C	0.758116	-0.584057	-0.000051
C134	C	1.091449	-0.250724	0.333282
C135	C	1.424783	0.082610	0.666615
C136	C	0.822289	-0.556170	-0.000037
C137	C	1.155622	-0.222837	0.333296
C138	C	1.488955	0.110497	0.666629
C139	C	0.952154	0.087527	-0.000031
C140	C	1.285487	0.420861	0.333302
C141	C	1.618820	0.754194	0.666635
C142	C	1.029658	0.088666	-0.000038
C143	C	1.362992	0.422000	0.333295
C144	C	1.696325	0.755333	0.666628
C145	C	0.819000	0.220684	-0.000050
C146	C	1.152333	0.554017	0.333283
C147	C	1.485666	0.887350	0.666616
C148	C	0.820140	0.298188	-0.000064
C149	C	1.153474	0.631522	0.333270
C150	C	1.486807	0.964855	0.666603
N151	N	0.824450	0.093026	0.229872
N152	N	1.157784	0.426359	0.563205
N153	N	1.491117	0.759693	0.896539
N154	N	0.824528	0.093002	-0.229929
N155	N	1.157862	0.426336	0.103404
N156	N	1.491195	0.759669	0.436738
C157	C	0.824503	0.093010	0.589074
C158	C	1.157836	0.426344	0.922407
C159	C	1.491169	0.759677	1.255740
C160	C	0.766777	0.150353	0.551458
C161	C	1.100111	0.483686	0.884791
C162	C	1.433444	0.817020	1.218124
C163	C	0.766909	0.150561	0.448632
C164	C	1.100242	0.483895	0.781965
C165	C	1.433575	0.817228	1.115299
C166	C	0.824476	0.093018	0.410870
C167	C	1.157810	0.426351	0.744203
C168	C	1.491143	0.759685	1.077536
C169	C	0.897279	0.108706	0.448157
C170	C	1.230612	0.442039	0.781490
C171	C	1.563946	0.775372	1.114824
C172	C	0.896955	0.109113	0.551015
C173	C	1.230288	0.442446	0.884348
C174	C	1.563622	0.775780	1.217682
C175	C	0.810076	0.019808	0.551187
C176	C	1.143409	0.353142	0.884520
C177	C	1.476742	0.686475	1.217853
C178	C	0.808403	0.020302	0.448323
C179	C	1.141736	0.353635	0.781656
C180	C	1.475069	0.686969	1.114990
C181	C	0.824466	0.093021	0.310156
C182	C	1.157799	0.426354	0.643490
C183	C	1.491132	0.759688	0.976823
C184	C	0.824518	0.093009	0.689787
C185	C	1.157851	0.426342	1.023120
C186	C	1.491185	0.759675	1.356454
H187	H	0.944179	-0.134379	0.000011
H188	H	1.277512	0.198954	0.333345
H189	H	1.610845	0.532288	0.666678
H190	H	0.909702	0.162492	0.574987
H191	H	1.243036	0.495825	0.908320
H192	H	1.576369	0.829158	1.241654
H193	H	0.628010	-0.018178	-0.000018
H194	H	0.961343	0.315155	0.333315
H195	H	1.294676	0.648489	0.666648
H196	H	0.935686	-0.710500	-0.000064
H197	H	1.269019	-0.377166	0.333270
H198	H	1.602352	-0.043833	0.666603
H199	H	0.758153	0.004668	0.577180
H200	H	1.091486	0.338001	0.910514
H201	H	1.424820	0.671334	1.243847
H202	H	0.464978	0.210765	-0.000027
H203	H	0.798312	0.544098	0.333306
H204	H	1.131645	0.877432	0.666640
H205	H	0.183999	-0.024728	-0.000028
H206	H	0.517332	0.308606	0.333305
H207	H	0.850665	0.641939	0.666638
H208	H	0.153078	0.206160	-0.000034
H209	H	0.486411	0.539494	0.333299
H210	H	0.819744	0.872827	0.666633
H211	H	0.776098	0.204888	0.424009
H212	H	1.109431	0.538221	0.757342
H213	H	1.442765	0.871554	1.090675
H214	H	0.051883	-0.026685	-0.000040
H215	H	0.385216	0.306649	0.333293
H216	H	0.718549	0.639982	0.666626
H217	H	0.495896	-0.020129	-0.000015
H218	H	0.829230	0.313204	0.333318
H219	H	1.162563	0.646537	0.666652
H220	H	0.704794	-0.679592	-0.000067
H221	H	1.038128	-0.346258	0.333266
H222	H	1.371461	-0.012925	0.666600
H223	H	0.942230	-0.266488	-0.000012
H224	H	1.275564	0.066845	0.333322
H225	H	1.608897	0.400178	0.666655
H226	H	0.941240	0.068982	0.575896
H227	H	1.274573	0.402315	0.909229
H228	H	1.607907	0.735649	1.242563
H229	H	0.597088	0.212713	-0.000044
H230	H	0.930421	0.546046	0.333289
H231	H	1.263755	0.879380	0.666623
H232	H	0.711342	-0.235581	-0.000023
H233	H	1.044676	0.097753	0.333311
H234	H	1.378009	0.431086	0.666644
H235	H	0.706740	-0.547478	-0.000050
H236	H	1.040073	-0.214144	0.333284
H237	H	1.373407	0.119189	0.666617
H238	H	0.941251	0.068042	0.423694
H239	H	1.274584	0.401375	0.757028
H240	H	1.607918	0.734709	1.090361
H241	H	0.713282	-0.103462	-0.000018
H242	H	1.046616	0.229871	0.333315
H243	H	1.379949	0.563204	0.666649
H244	H	0.937635	-0.578390	-0.000035
H245	H	1.270968	-0.245057	0.333299
H246	H	1.604301	0.088277	0.666632
H247	H	0.910336	0.161475	0.422379
H248	H	1.243670	0.494808	0.755712
H249	H	1.577003	0.828141	1.089045
H250	H	0.712786	0.141247	0.423423
H251	H	1.046119	0.474581	0.756757
H252	H	1.379453	0.807914	1.090090
H253	H	0.712479	0.141196	0.576222
H254	H	1.045812	0.474529	0.909555
H255	H	1.379146	0.807862	1.242888
H256	H	0.775839	0.204374	0.577287
H257	H	1.109172	0.537707	0.910620
H258	H	1.442505	0.871041	1.243953
H259	H	0.754849	0.008391	0.423954
H260	H	1.088183	0.341725	0.757287
H261	H	1.421516	0.675058	1.090620
H262	H	0.852175	-0.022862	0.575512
H263	H	1.185508	0.310472	0.908845
H264	H	1.518841	0.643805	1.242178
H265	H	0.020968	0.204211	-0.000041
H266	H	0.354302	0.537545	0.333292
H267	H	0.687635	0.870878	0.666626
H268	H	0.847733	-0.024352	0.422622
H269	H	1.181066	0.308982	0.755955
H270	H	1.514400	0.642315	1.089289
