data_functionalizedCrystal
_audit_creation_method	'MofGen! by Chris Wilmer'
_symmetry_space_group_name_H-M	'P1'
_symmetry_Int_Tables_number	1
_symmetry_cell_setting	triclinic
loop_
_symmetry_equiv_pos_as_xyz
  x,y,z
_cell_length_a	11.026607
_cell_length_b	17.666332
_cell_length_c	19.188930
_cell_angle_alpha	90.010342
_cell_angle_beta	95.865399
_cell_angle_gamma	90.008412
loop_
_atom_site_label
_atom_site_type_symbol
_atom_site_fract_x
_atom_site_fract_y
_atom_site_fract_z
O1	O	1.608621	0.062982	0.292176
O2	O	2.108621	0.562982	0.792176
O3	O	1.255491	0.062979	0.258906
O4	O	1.755491	0.562979	0.758906
O5	O	1.442247	0.062965	0.175184
O6	O	1.942247	0.562965	0.675184
O7	O	1.421866	0.062995	0.375898
O8	O	1.921866	0.562995	0.875898
O9	O	1.442214	-0.062931	0.175177
O10	O	1.942214	0.437069	0.675177
O11	O	1.255459	-0.062918	0.258899
O12	O	1.755459	0.437082	0.758899
O13	O	1.608588	-0.062915	0.292169
O14	O	2.108588	0.437085	0.792169
Cu15	Cu	1.432020	-0.074412	0.275533
Cu16	Cu	1.932020	0.425588	0.775533
Cu17	Cu	1.432059	0.074476	0.275542
Cu18	Cu	1.932059	0.574476	0.775542
O19	O	1.421833	-0.062902	0.375891
O20	O	1.921833	0.437098	0.875891
C21	C	1.210297	0.000030	0.252765
C22	C	1.710297	0.500030	0.752765
C23	C	1.075680	0.000028	0.234468
C24	C	1.575680	0.500028	0.734468
C25	C	1.001606	0.000036	0.284989
C26	C	1.501606	0.500036	0.784989
C27	C	0.862472	0.000034	0.266079
C28	C	1.362472	0.500034	0.766079
N29	N	1.432002	-0.179131	0.275528
N30	N	1.932002	0.320869	0.775528
C31	C	1.505314	-0.218728	0.327117
C32	C	2.005314	0.281272	0.827117
C33	C	1.505334	-0.297975	0.327117
C34	C	2.005334	0.202025	0.827117
C35	C	1.432018	-0.337624	0.275534
C36	C	1.932018	0.162376	0.775534
C37	C	1.358701	-0.298018	0.223936
C38	C	1.858701	0.201982	0.723936
C39	C	1.358693	-0.218772	0.223933
C40	C	1.858693	0.281228	0.723933
N41	N	1.325810	-0.462065	0.260279
N42	N	1.825810	0.037935	0.760279
N43	N	1.325821	-0.537345	0.260286
N44	N	1.825821	-0.037345	0.760286
C45	C	1.432040	-0.576388	0.275539
C46	C	1.932040	-0.076388	0.775539
N47	N	1.538249	-0.537306	0.290799
N48	N	2.038249	-0.037306	0.790799
N49	N	1.538237	-0.462018	0.290795
N50	N	2.038237	0.037982	0.790795
C51	C	1.432019	-0.423553	0.275532
C52	C	1.932019	0.076447	0.775532
C53	C	1.505380	-0.701913	0.327132
C54	C	2.005380	-0.201913	0.827132
C55	C	1.505402	-0.781162	0.327127
C56	C	2.005402	-0.281162	0.827127
C57	C	1.358758	-0.781203	0.223949
C58	C	1.858758	-0.281203	0.723949
C59	C	1.358748	-0.701956	0.223951
C60	C	1.858748	-0.201956	0.723951
C61	C	1.432056	-0.662315	0.275546
C62	C	1.932056	-0.162315	0.775546
C63	C	1.653783	0.000035	0.298310
C64	C	2.153783	0.500035	0.798310
C65	C	1.788400	0.000042	0.316607
C66	C	2.288400	0.500042	0.816607
C67	C	1.441570	0.000015	0.149086
C68	C	1.941570	0.500015	0.649086
C69	C	1.439589	0.000008	0.071329
C70	C	1.939589	0.500008	0.571329
N71	N	1.432087	0.179195	0.275543
N72	N	1.932087	0.679195	0.775543
C73	C	1.549171	0.000006	0.040370
C74	C	2.049171	0.500006	0.540370
C75	C	1.547310	0.000018	-0.032691
C76	C	2.047310	0.500018	0.467309
C77	C	1.435860	0.000017	-0.074791
C78	C	1.935860	0.500017	0.425209
C79	C	1.326264	0.000024	-0.043824
C80	C	1.826264	0.500024	0.456176
C81	C	1.328128	0.000020	0.029235
C82	C	1.828128	0.500020	0.529235
N83	N	1.350659	-0.042828	-0.193655
N84	N	1.850659	0.457172	0.306345
N85	N	1.348895	-0.042826	-0.263059
N86	N	1.848895	0.457174	0.236941
C87	C	1.430236	0.000033	-0.294916
C88	C	1.930236	0.500033	0.205084
N89	N	1.513425	0.042879	-0.254748
N90	N	2.013425	0.542879	0.245252
N91	N	1.515192	0.042873	-0.185338
N92	N	2.015192	0.542873	0.314662
C93	C	1.433826	0.000023	-0.154013
C94	C	1.933826	0.500023	0.345987
C95	C	1.537807	0.000044	-0.405095
C96	C	2.037807	0.500044	0.094905
C97	C	1.535941	0.000061	-0.478158
C98	C	2.035941	0.500061	0.021842
C99	C	1.314892	0.000060	-0.489290
C100	C	1.814892	0.500060	0.010710
C101	C	1.316761	0.000051	-0.416229
C102	C	1.816761	0.500051	0.083771
C103	C	1.428222	0.000039	-0.374136
C104	C	1.928222	0.500039	0.125864
C105	C	1.422509	0.000050	0.401990
C106	C	1.922509	0.500050	0.901990
C107	C	1.424490	0.000062	0.479747
C108	C	1.924490	0.500062	0.979747
H109	H	1.565013	-0.186458	0.369127
H110	H	2.065013	0.313542	0.869127
H111	H	1.625180	0.000063	-0.503362
H112	H	2.125180	0.500063	-0.003362
Cl113	Cl	1.266603	-0.831039	0.159095
Cl114	Cl	1.766603	-0.331039	0.659095
Cl115	Cl	1.178993	0.000051	-0.377308
Cl116	Cl	1.678993	0.500051	0.122692
Cl117	Cl	1.014571	0.000010	0.146074
Cl118	Cl	1.514571	0.500010	0.646074
Cl119	Cl	0.801369	0.000016	0.177681
Cl120	Cl	1.301369	0.500016	0.677681
H121	H	0.827980	0.000045	0.373863
H122	H	1.327980	0.500045	0.873863
H123	H	1.565034	-0.330221	0.369129
H124	H	2.065034	0.169779	0.869129
Cl125	Cl	1.190356	0.000023	0.068156
Cl126	Cl	1.690356	0.500023	0.568156
Cl127	Cl	1.597581	-0.830941	0.391985
Cl128	Cl	2.097581	-0.330941	0.891985
H129	H	1.299009	-0.330304	0.181937
H130	H	1.799009	0.169696	0.681937
H131	H	1.628565	0.000038	-0.370821
H132	H	2.128565	0.500038	0.129179
H133	H	1.299043	-0.669716	0.181944
H134	H	1.799043	-0.169716	0.681944
H135	H	1.298991	-0.186533	0.181923
H136	H	1.798991	0.313467	0.681923
H137	H	1.224148	0.000063	-0.523568
H138	H	1.724148	0.500063	-0.023568
Cl139	Cl	1.062715	0.000047	0.373383
Cl140	Cl	1.562715	0.500047	0.873383
Cl141	Cl	1.597565	-0.652076	0.391980
Cl142	Cl	2.097565	-0.152076	0.891980
Cl143	Cl	1.689293	0.000013	0.093284
Cl144	Cl	2.189293	0.500013	0.593284
H145	H	1.636547	0.000019	-0.057902
H146	H	2.136547	0.500019	0.442098
Cl147	Cl	1.186156	0.000030	-0.096749
Cl148	Cl	1.686156	0.500030	0.403251
