data_functionalizedCrystal
_audit_creation_method	'MofGen! by Chris Wilmer'
_symmetry_space_group_name_H-M	'P1'
_symmetry_Int_Tables_number	1
_symmetry_cell_setting	triclinic
loop_
_symmetry_equiv_pos_as_xyz
  x,y,z
_cell_length_a	16.120484
_cell_length_b	16.120530
_cell_length_c	16.120297
_cell_angle_alpha	89.871860
_cell_angle_beta	95.614431
_cell_angle_gamma	89.832673
loop_
_atom_site_label
_atom_site_type_symbol
_atom_site_fract_x
_atom_site_fract_y
_atom_site_fract_z
Zn1	Zn	-0.422264	-1.224987	-0.554813
Zn2	Zn	-0.088931	-0.891654	-0.221480
Zn3	Zn	0.244402	-0.558320	0.111853
Zn4	Zn	-0.554948	-1.224883	-0.422118
Zn5	Zn	-0.221615	-0.891549	-0.088785
Zn6	Zn	0.111718	-0.558216	0.244548
Zn7	Zn	-0.408180	-1.093726	-0.408056
Zn8	Zn	-0.074847	-0.760393	-0.074723
Zn9	Zn	0.258487	-0.427060	0.258611
Zn10	Zn	-0.554181	-1.078880	-0.554051
Zn11	Zn	-0.220848	-0.745547	-0.220717
Zn12	Zn	0.112486	-0.412213	0.112616
O13	O	-0.484893	-1.155619	-0.484760
O14	O	-0.151560	-0.822286	-0.151426
O15	O	0.181773	-0.488952	0.181907
O16	O	-0.446081	-1.341009	-0.543415
O17	O	-0.112747	-1.007676	-0.210082
O18	O	0.220586	-0.674342	0.123251
O19	O	-0.529906	-1.213654	-0.303620
O20	O	-0.196573	-0.880321	0.029713
O21	O	0.136760	-0.546987	0.363047
O22	O	-0.293418	-1.117395	-0.421958
O23	O	0.039916	-0.784062	-0.088624
O24	O	0.373249	-0.450729	0.244709
O25	O	-0.543563	-1.340932	-0.445925
O26	O	-0.210230	-1.007599	-0.112591
O27	O	0.123104	-0.674266	0.220742
O28	O	-0.303765	-1.213832	-0.529780
O29	O	0.029568	-0.880499	-0.196446
O30	O	0.362901	-0.547166	0.136887
O31	O	-0.422076	-1.117294	-0.293289
O32	O	-0.088743	-0.783961	0.040045
O33	O	0.244591	-0.450627	0.373378
O34	O	-0.421332	-0.975721	-0.421218
O35	O	-0.087998	-0.642388	-0.087885
O36	O	0.245335	-0.309055	0.245448
O37	O	-0.542255	-1.092092	-0.670785
O38	O	-0.208922	-0.758758	-0.337451
O39	O	0.124412	-0.425425	-0.004118
O40	O	-0.528598	-0.964814	-0.528480
O41	O	-0.195265	-0.631480	-0.195147
O42	O	0.138069	-0.298147	0.138187
O43	O	-0.445336	-1.199436	-0.671345
O44	O	-0.112003	-0.866103	-0.338011
O45	O	0.221330	-0.532769	-0.004678
O46	O	-0.671477	-1.199258	-0.445185
O47	O	-0.338144	-0.865925	-0.111852
O48	O	-0.004811	-0.532591	0.221481
O49	O	-0.670913	-1.091990	-0.542116
O50	O	-0.337580	-0.758657	-0.208782
O51	O	-0.004247	-0.425324	0.124551
C52	C	-0.701438	-1.144023	-0.495113
C53	C	-0.368105	-0.810690	-0.161780
C54	C	-0.034772	-0.477357	0.171554
C55	C	-0.794083	-1.139137	-0.499574
C56	C	-0.460749	-0.805804	-0.166241
C57	C	-0.127416	-0.472470	0.167093
C58	C	-0.473354	-0.940181	-0.473241
C59	C	-0.140021	-0.606847	-0.139908
C60	C	0.193313	-0.273514	0.193426
C61	C	-0.468438	-0.848013	-0.468334
C62	C	-0.135105	-0.514680	-0.135001
C63	C	0.198228	-0.181346	0.198333
C64	C	-0.495281	-1.144119	-0.702152
C65	C	-0.161948	-0.810786	-0.368818
C66	C	0.171386	-0.477453	-0.035485
C67	C	-0.499708	-1.139219	-0.794791
C68	C	-0.166374	-0.805886	-0.461458
C69	C	0.166959	-0.472552	-0.128125
C70	C	-0.963706	-1.130220	-0.507736
C71	C	-0.630372	-0.796887	-0.174403
C72	C	-0.297039	-0.463553	0.158930
C73	C	-1.005249	-1.181166	-0.461804
C74	C	-0.671916	-0.847833	-0.128471
C75	C	-0.338583	-0.514499	0.204862
C76	C	-1.099633	-1.176204	-0.466346
C77	C	-0.766300	-0.842871	-0.133012
C78	C	-0.432967	-0.509538	0.200321
C79	C	-0.869313	-1.135180	-0.503196
C80	C	-0.535980	-0.801847	-0.169863
C81	C	-0.202646	-0.468514	0.163471
C82	C	-0.267505	-1.167282	-0.474385
C83	C	0.065828	-0.833948	-0.141052
C84	C	0.399162	-0.500615	0.192282
C85	C	-0.174867	-1.172251	-0.469964
C86	C	0.158466	-0.838918	-0.136631
C87	C	0.491800	-0.505585	0.196703
C88	C	-0.496479	-1.371899	-0.496324
C89	C	-0.163145	-1.038565	-0.162990
C90	C	0.170188	-0.705232	0.170343
C91	C	-0.501416	-1.464064	-0.501252
C92	C	-0.168082	-1.130731	-0.167918
C93	C	0.165251	-0.797398	0.165415
C94	C	-0.459445	-0.679262	-0.459381
C95	C	-0.126111	-0.345928	-0.126048
C96	C	0.207222	-0.012595	0.207285
C97	C	-0.510407	-0.632810	-0.510202
C98	C	-0.177073	-0.299477	-0.176868
C99	C	0.156260	0.033856	0.156465
C100	C	-0.505403	-0.538911	-0.505220
C101	C	-0.172069	-0.205578	-0.171887
C102	C	0.161264	0.127755	0.161446
C103	C	-0.464448	-0.773169	-0.464361
C104	C	-0.131114	-0.439836	-0.131028
C105	C	0.202219	-0.106503	0.202305
C106	C	-0.507770	-1.130243	-0.964403
C107	C	-0.174436	-0.796909	-0.631069
C108	C	0.158897	-0.463576	-0.297736
C109	C	-0.461776	-1.181172	-1.005965
C110	C	-0.128443	-0.847839	-0.672632
C111	C	0.204890	-0.514505	-0.339298
C112	C	-0.466262	-1.176177	-1.100342
C113	C	-0.132929	-0.842844	-0.767009
C114	C	0.200405	-0.509511	-0.433676
C115	C	-0.503285	-1.135236	-0.870017
C116	C	-0.169952	-0.801903	-0.536683
C117	C	0.163382	-0.468569	-0.203350
C118	C	-0.474489	-1.167125	-0.268213
C119	C	-0.141155	-0.833791	0.065121
C120	C	0.192178	-0.500458	0.398454
C121	C	-0.469836	-1.172198	-0.175571
C122	C	-0.136502	-0.838865	0.157763
C123	C	0.196831	-0.505532	0.491096
H124	H	-0.969931	-1.228508	-0.419069
H125	H	-0.636597	-0.895175	-0.085736
H126	H	-0.303264	-0.561841	0.247598
H127	H	-0.557794	-0.663563	-0.557453
H128	H	-0.224461	-0.330230	-0.224119
H129	H	0.108873	0.003104	0.109214
H130	H	-0.412060	-0.648511	-0.412135
H131	H	-0.078727	-0.315178	-0.078801
H132	H	0.254606	0.018156	0.254532
H133	H	-0.550512	-1.082894	-0.999698
H134	H	-0.217178	-0.749561	-0.666364
H135	H	0.116155	-0.416228	-0.333031
H136	H	-0.419031	-1.228524	-0.970668
H137	H	-0.085697	-0.895191	-0.637334
H138	H	0.247636	-0.561857	-0.304001
Br139	Br	-1.022568	-1.051316	-0.578960
Br140	Br	-0.689235	-0.717983	-0.245626
Br141	Br	-0.355902	-0.384649	0.087707
