data_functionalizedCrystal
_audit_creation_method	'MofGen! by Chris Wilmer'
_symmetry_space_group_name_H-M	'P1'
_symmetry_Int_Tables_number	1
_symmetry_cell_setting	triclinic
loop_
_symmetry_equiv_pos_as_xyz
  x,y,z
_cell_length_a	10.489741
_cell_length_b	9.065218
_cell_length_c	8.140239
_cell_angle_alpha	90.002802
_cell_angle_beta	89.996756
_cell_angle_gamma	95.222470
loop_
_atom_site_label
_atom_site_type_symbol
_atom_site_fract_x
_atom_site_fract_y
_atom_site_fract_z
O1	O	0.187043	-1.959494	-0.136617
O2	O	0.202385	-1.530135	-0.136619
O3	O	0.009151	-1.754585	-0.136608
O4	O	0.380276	-1.735045	-0.136628
O5	O	0.009149	-1.754572	0.136619
O6	O	0.202383	-1.530123	0.136608
O7	O	0.187040	-1.959482	0.136610
Zn8	Zn	0.194711	-1.744800	0.179990
Zn9	Zn	0.194714	-1.744817	-0.179999
O10	O	0.380274	-1.735032	0.136599
C11	C	0.200909	-1.475149	-0.000006
C12	C	0.196501	-1.311328	-0.000006
C13	C	-0.038387	-1.753102	0.000004
C14	C	-0.180032	-1.748687	0.000001
C15	C	0.188516	-2.014467	-0.000007
C16	C	0.192925	-2.178289	-0.000017
C17	C	-0.248688	-1.605877	-0.000011
C18	C	-0.340568	-1.673333	0.134704
C19	C	-0.340540	-1.673379	-0.134676
C20	C	-0.270047	-1.816202	0.134828
C21	C	-0.270009	-1.816228	-0.134673
C22	C	-0.361862	-1.883788	0.000075
C23	C	0.427812	-1.736514	-0.000017
C24	C	0.569458	-1.740930	-0.000025
N25	N	0.194708	-1.744800	0.425672
N26	N	0.194707	-1.744829	-0.425681
H27	H	-0.199461	-1.488459	0.000124
O28	O	-0.232487	-1.888282	-0.270420
C29	C	-0.056145	-1.974142	-0.421740
C30	C	-0.098473	-1.892561	-0.267900
H31	H	0.052211	-1.977601	-0.419771
H32	H	-0.104437	-2.092001	-0.422931
H33	H	-0.084877	-1.913123	-0.536481
H34	H	-0.069749	-1.953457	-0.153077
H35	H	-0.050191	-1.774698	-0.266854
O36	O	-0.377586	-1.601081	-0.270504
C37	C	-0.361637	-1.372814	-0.423908
C38	C	-0.319565	-1.454536	-0.270047
H39	H	-0.314768	-1.254309	-0.423572
H40	H	-0.331202	-1.432447	-0.538768
H41	H	-0.470177	-1.371166	-0.423233
H42	H	-0.211032	-1.456208	-0.270562
H43	H	-0.350095	-1.394876	-0.155256
H44	H	-0.371799	-1.612901	0.248596
O45	O	-0.232879	-1.888362	0.270687
C46	C	-0.128703	-2.094578	0.376762
C47	C	-0.170701	-2.012991	0.222768
H48	H	-0.078447	-2.195374	0.338075
H49	H	-0.060212	-2.016796	0.452346
H50	H	-0.216452	-2.132017	0.453884
H51	H	-0.083029	-1.975544	0.145520
H52	H	-0.239235	-2.090825	0.147307
H53	H	-0.410861	-2.001312	0.000150
