data_functionalizedCrystal
_audit_creation_method	'MofGen! by Chris Wilmer'
_symmetry_space_group_name_H-M	'P1'
_symmetry_Int_Tables_number	1
_symmetry_cell_setting	triclinic
loop_
_symmetry_equiv_pos_as_xyz
  x,y,z
_cell_length_a	25.639239
_cell_length_b	21.295420
_cell_length_c	21.295411
_cell_angle_alpha	90.025759
_cell_angle_beta	89.980474
_cell_angle_gamma	89.967272
loop_
_atom_site_label
_atom_site_type_symbol
_atom_site_fract_x
_atom_site_fract_y
_atom_site_fract_z
Zn1	Zn	-0.208293	-0.962319	-0.355941
Zn2	Zn	0.291707	-0.462319	0.144059
Zn3	Zn	-0.295713	-0.962207	-0.250670
Zn4	Zn	0.204287	-0.462207	0.249330
Zn5	Zn	-0.208285	-0.857043	-0.250684
Zn6	Zn	0.291715	-0.357043	0.249316
Zn7	Zn	-0.295691	-0.856997	-0.355900
Zn8	Zn	0.204309	-0.356997	0.144100
O9	O	-0.251996	-0.909642	-0.303298
O10	O	0.248004	-0.409642	0.196702
O11	O	-0.219903	-1.050394	-0.341988
O12	O	0.280097	-0.550394	0.158012
O13	O	-0.284122	-0.948229	-0.162582
O14	O	0.215878	-0.448229	0.337418
O15	O	-0.135121	-0.871074	-0.264669
O16	O	0.364879	-0.371074	0.235331
O17	O	-0.284130	-1.050311	-0.264646
O18	O	0.215870	-0.550311	0.235354
O19	O	-0.135127	-0.948421	-0.342001
O20	O	0.364873	-0.448421	0.157999
O21	O	-0.219888	-0.870965	-0.162592
O22	O	0.280112	-0.370965	0.337408
O23	O	-0.219866	-0.768947	-0.264629
O24	O	0.280134	-0.268947	0.235371
O25	O	-0.284091	-0.870996	-0.443994
O26	O	0.215909	-0.370996	0.056006
O27	O	-0.284083	-0.768914	-0.341931
O28	O	0.215917	-0.268914	0.158069
O29	O	-0.219881	-0.948376	-0.444025
O30	O	0.280119	-0.448376	0.055975
O31	O	-0.368876	-0.948184	-0.264606
O32	O	0.131124	-0.448184	0.235394
O33	O	-0.368859	-0.870887	-0.341918
O34	O	0.131141	-0.370887	0.158082
C35	C	-0.251971	-0.746090	-0.303277
C36	C	0.248029	-0.246090	0.196723
C37	C	-0.251974	-0.676122	-0.303283
C38	C	0.248026	-0.176122	0.196717
C39	C	-0.218613	-0.176706	-0.343630
C40	C	0.281387	0.323294	0.156370
C41	C	-0.218611	-0.242449	-0.343632
C42	C	0.281389	0.257551	0.156368
C43	C	-0.251995	-0.275282	-0.303300
C44	C	0.248005	0.224718	0.196700
C45	C	-0.285395	-0.242368	-0.262976
C46	C	0.214605	0.257632	0.237024
C47	C	-0.285400	-0.176627	-0.262980
C48	C	0.214600	0.323373	0.237020
N49	N	-0.255931	-0.378472	-0.248183
N50	N	0.244069	0.121528	0.251817
N51	N	-0.255924	-0.440923	-0.248180
N52	N	0.244076	0.059077	0.251820
C53	C	-0.251983	-0.473357	-0.303286
C54	C	0.248017	0.026643	0.196714
N55	N	-0.248041	-0.440981	-0.358395
N56	N	0.251959	0.059019	0.141605
N57	N	-0.248046	-0.378523	-0.358396
N58	N	0.251954	0.121477	0.141604
C59	C	-0.251994	-0.346568	-0.303291
C60	C	0.248006	0.153432	0.196709
C61	C	-0.218587	-0.577549	-0.343612
C62	C	0.281413	-0.077549	0.156388
C63	C	-0.218588	-0.643293	-0.343614
C64	C	0.281412	-0.143293	0.156386
C65	C	-0.285369	-0.643211	-0.262953
C66	C	0.214631	-0.143211	0.237047
C67	C	-0.285370	-0.577468	-0.262956
C68	C	0.214630	-0.077468	0.237044
C69	C	-0.251976	-0.544641	-0.303285
C70	C	0.248024	-0.044641	0.196715
C71	C	-0.387838	-0.909536	-0.303270
C72	C	0.112162	-0.409536	0.196730
C73	C	-0.445952	-0.909548	-0.303278
C74	C	0.054048	-0.409548	0.196722
C75	C	-0.806311	-0.949995	-0.263111
C76	C	-0.306311	-0.449995	0.236889
C77	C	-0.860916	-0.950020	-0.263119
C78	C	-0.360916	-0.450020	0.236881
O79	O	-0.889149	-0.984300	-0.228936
O80	O	-0.389149	-0.484300	0.271064
N81	N	-0.888235	-0.909752	-0.303340
N82	N	-0.388235	-0.409752	0.196660
C83	C	-0.860946	-0.869462	-0.343560
C84	C	-0.360946	-0.369462	0.156440
O85	O	-0.889197	-0.835214	-0.377772
O86	O	-0.389197	-0.335214	0.122228
C87	C	-0.806343	-0.869441	-0.343554
C88	C	-0.306343	-0.369441	0.156446
C89	C	-0.779027	-0.909707	-0.303326
C90	C	-0.279027	-0.409707	0.196674
C91	C	-0.778995	-0.990258	-0.222887
C92	C	-0.278995	-0.490258	0.277113
C93	C	-0.724395	-0.990233	-0.222878
C94	C	-0.224395	-0.490233	0.277122
C95	C	-0.697110	-0.949944	-0.263093
C96	C	-0.197110	-0.449944	0.236907
C97	C	-0.724426	-0.909682	-0.303317
C98	C	-0.224426	-0.409682	0.196683
C99	C	-0.779056	-0.829155	-0.383776
C100	C	-0.279056	-0.329155	0.116224
C101	C	-0.724449	-0.829138	-0.383768
C102	C	-0.224449	-0.329138	0.116232
C103	C	-0.697133	-0.869404	-0.343540
C104	C	-0.197133	-0.369404	0.156460
C105	C	-0.642542	-0.869368	-0.343523
C106	C	-0.142542	-0.369368	0.156477
N107	N	-0.615223	-0.909636	-0.303302
N108	N	-0.115223	-0.409636	0.196698
C109	C	-0.642507	-0.949924	-0.263087
C110	C	-0.142507	-0.449924	0.236913
C111	C	-0.975617	-0.869510	-0.343569
C112	C	-0.475617	-0.369510	0.156431
C113	C	-1.030219	-0.869527	-0.343573
C114	C	-0.530219	-0.369527	0.156427
C115	C	-1.030185	-0.950085	-0.263133
C116	C	-0.530185	-0.450085	0.236867
C117	C	-0.975582	-0.950064	-0.263127
C118	C	-0.475582	-0.450064	0.236873
C119	C	-0.948298	-0.909777	-0.303349
C120	C	-0.448298	-0.409777	0.196651
C121	C	-0.527842	-0.949867	-0.263071
C122	C	-0.027842	-0.449867	0.236929
C123	C	-0.473237	-0.949836	-0.263063
C124	C	0.026763	-0.449836	0.236937
C125	C	-0.473276	-0.869280	-0.343505
C126	C	0.026724	-0.369280	0.156495
C127	C	-0.527876	-0.869309	-0.343510
C128	C	-0.027876	-0.369309	0.156490
C129	C	-0.555158	-0.909607	-0.303291
C130	C	-0.055158	-0.409607	0.196709
O131	O	-0.614273	-0.835108	-0.377691
O132	O	-0.114273	-0.335108	0.122309
O133	O	-0.614250	-0.984172	-0.228886
O134	O	-0.114250	-0.484172	0.271114
C135	C	-0.115623	-0.909765	-0.303341
C136	C	0.384377	-0.409765	0.196659
C137	C	-0.057508	-0.909818	-0.303359
C138	C	0.442492	-0.409818	0.196641
C139	C	-0.251985	-0.909694	-0.467489
C140	C	0.248015	-0.409694	0.032511
C141	C	-0.251980	-0.909716	-0.537457
C142	C	0.248020	-0.409716	-0.037457
C143	C	-0.252014	-0.073832	-0.303315
C144	C	0.247986	0.426168	0.196685
C145	C	-0.252005	-0.143800	-0.303309
C146	C	0.247995	0.356200	0.196691
C147	C	-0.218544	-0.950006	-0.570340
C148	C	0.281456	-0.450006	-0.070340
C149	C	-0.218521	-0.950005	-0.636083
C150	C	0.281479	-0.450005	-0.136083
C151	C	-0.251944	-0.909721	-0.668940
C152	C	0.248056	-0.409721	-0.168940
C153	C	-0.285382	-0.869423	-0.636048
C154	C	0.214618	-0.369423	-0.136048
C155	C	-0.285400	-0.869421	-0.570307
C156	C	0.214600	-0.369421	-0.070307
N157	N	-0.297682	-0.904856	-0.772157
N158	N	0.202318	-0.404856	-0.272157
N159	N	-0.297663	-0.904862	-0.834608
N160	N	0.202337	-0.404862	-0.334608
C161	C	-0.251891	-0.909725	-0.867014
C162	C	0.248109	-0.409725	-0.367014
N163	N	-0.206137	-0.914594	-0.834610
N164	N	0.293863	-0.414594	-0.334610
N165	N	-0.206156	-0.914591	-0.772152
N166	N	0.293844	-0.414591	-0.272152
C167	C	-0.251928	-0.909719	-0.740225
C168	C	0.248072	-0.409719	-0.240225
C169	C	-0.218428	-0.950016	-0.971183
C170	C	0.281572	-0.450016	-0.471183
C171	C	-0.218404	-0.950011	-1.036927
C172	C	0.281596	-0.450011	-0.536927
C173	C	-0.285269	-0.869432	-1.036891
C174	C	0.214731	-0.369432	-0.536891
C175	C	-0.285288	-0.869434	-0.971149
C176	C	0.214712	-0.369434	-0.471149
C177	C	-0.251868	-0.909729	-0.938299
C178	C	0.248132	-0.409729	-0.438299
C179	C	-0.251969	-0.909626	-0.139747
C180	C	0.248031	-0.409626	0.360253
C181	C	-0.251826	-0.909726	-0.069779
C182	C	0.248174	-0.409726	0.430221
H183	H	-0.312578	-0.269105	-0.230139
H184	H	0.187422	0.230895	0.269861
C185	C	-0.181883	-0.140601	-0.387999
C186	C	0.318117	0.359399	0.112001
N187	N	-0.154219	-0.113405	-0.421419
N188	N	0.345781	0.386595	0.078581
H189	H	-0.312593	-0.836621	-0.662804
H190	H	0.187407	-0.336621	-0.162804
C191	C	-0.181619	-0.994334	-1.073099
C192	C	0.318381	-0.494334	-0.573099
N193	N	-0.153912	-1.027720	-1.100344
N194	N	0.346088	-0.527720	-0.600344
H195	H	-0.450997	-0.982625	-0.230303
H196	H	0.049003	-0.482625	0.269697
H197	H	-0.702157	-1.023022	-0.190122
H198	H	-0.202157	-0.523022	0.309878
C199	C	-0.181660	-0.994336	-0.935046
C200	C	0.318340	-0.494336	-0.435046
N201	N	-0.153966	-1.027717	-0.907829
N202	N	0.346034	-0.527717	-0.407829
C203	C	-0.322035	-0.825119	-1.073030
C204	C	0.177965	-0.325119	-0.573030
N205	N	-0.349728	-0.791741	-1.100252
N206	N	0.150272	-0.291741	-0.600252
C207	C	-0.322185	-0.825098	-0.534134
C208	C	0.177815	-0.325098	-0.034134
N209	N	-0.349893	-0.791714	-0.506888
N210	N	0.150107	-0.291714	-0.006888
C211	C	-0.322073	-0.825114	-0.934975
C212	C	0.177927	-0.325114	-0.434975
N213	N	-0.349780	-0.791728	-0.907730
N214	N	0.150220	-0.291728	-0.407730
C215	C	-0.809000	-1.034579	-0.178639
C216	C	-0.309000	-0.534579	0.321361
N217	N	-0.831595	-1.067960	-0.145305
N218	N	-0.331595	-0.567960	0.354695
H219	H	-0.801287	-0.796364	-0.416531
H220	H	-0.301287	-0.296364	0.083469
H221	H	-0.550048	-0.982683	-0.230322
H222	H	-0.050048	-0.482683	0.269678
C223	C	-0.322131	-0.140429	-0.218616
C224	C	0.177869	0.359571	0.281384
N225	N	-0.349796	-0.113163	-0.185198
N226	N	0.150204	0.386837	0.314802
C227	C	-0.181858	-0.541437	-0.387980
C228	C	0.318142	-0.041437	0.112020
N229	N	-0.154195	-0.514240	-0.421400
N230	N	0.345805	-0.014240	0.078600
C231	C	-0.181850	-0.679490	-0.387972
C232	C	0.318150	-0.179490	0.112028
N233	N	-0.154178	-0.706754	-0.421382
N234	N	0.345822	-0.206754	0.078618
H235	H	-0.312556	-0.669943	-0.230119
H236	H	0.187444	-0.169943	0.269881
C237	C	-0.181872	-0.278653	-0.387987
C238	C	0.318128	0.221347	0.112013
N239	N	-0.154199	-0.305920	-0.421394
N240	N	0.345801	0.194080	0.078606
H241	H	-0.312560	-0.550676	-0.230119
H242	H	0.187440	-0.050676	0.269881
H243	H	-0.953344	-0.982852	-0.230370
H244	H	-0.453344	-0.482852	0.269630
H245	H	-1.052410	-0.982892	-0.230389
H246	H	-0.552410	-0.482892	0.269611
C247	C	-1.060261	-0.825225	-0.387820
C248	C	-0.560261	-0.325225	0.112180
N249	N	-1.082886	-0.791859	-0.421152
N250	N	-0.582886	-0.291859	0.078848
H251	H	-0.953405	-0.836698	-0.376321
H252	H	-0.453405	-0.336698	0.123679
H253	H	-0.550118	-0.836523	-0.376269
H254	H	-0.050118	-0.336523	0.123731
C255	C	-0.694440	-0.784818	-0.428016
C256	C	-0.194440	-0.284818	0.071984
N257	N	-0.671839	-0.751435	-0.461343
N258	N	-0.171839	-0.251435	0.038657
H259	H	-0.191330	-0.982817	-0.543598
H260	H	0.308670	-0.482817	-0.043598
C261	C	-0.443253	-0.824968	-0.387742
C262	C	0.056747	-0.324968	0.112258
N263	N	-0.420637	-0.791596	-0.421066
N264	N	0.079363	-0.291596	0.078934
C265	C	-0.181741	-0.994333	-0.672262
C266	C	0.318259	-0.494333	-0.172262
N267	N	-0.154039	-1.027722	-0.699510
N268	N	0.345961	-0.527722	-0.199510
