data_functionalizedCrystal
_audit_creation_method	'MofGen! by Chris Wilmer'
_symmetry_space_group_name_H-M	'P1'
_symmetry_Int_Tables_number	1
_symmetry_cell_setting	triclinic
loop_
_symmetry_equiv_pos_as_xyz
  x,y,z
_cell_length_a	19.288865
_cell_length_b	19.288840
_cell_length_c	18.366186
_cell_angle_alpha	89.983729
_cell_angle_beta	89.988521
_cell_angle_gamma	83.131131
loop_
_atom_site_label
_atom_site_type_symbol
_atom_site_fract_x
_atom_site_fract_y
_atom_site_fract_z
O1	O	0.086566	0.921364	-0.060680
O2	O	0.586566	1.421364	0.439320
O3	O	0.098273	0.719101	-0.060655
O4	O	0.598273	1.219101	0.439345
O5	O	-0.008712	0.826077	-0.060654
O6	O	0.491288	1.326077	0.439346
O7	O	0.193550	0.814388	-0.060681
O8	O	0.693550	1.314388	0.439319
O9	O	-0.008717	0.826059	0.060446
O10	O	0.491283	1.326059	0.560446
O11	O	0.098268	0.719083	0.060444
O12	O	0.598268	1.219083	0.560444
O13	O	0.086561	0.921346	0.060420
O14	O	0.586561	1.421346	0.560420
Zn15	Zn	0.092413	0.820211	0.079659
Zn16	Zn	0.592413	1.320211	0.579659
Zn17	Zn	0.092420	0.820235	-0.079895
Zn18	Zn	0.592420	1.320235	0.420105
O19	O	0.193545	0.814370	0.060418
O20	O	0.693545	1.314370	0.560418
C21	C	0.097896	0.693215	-0.000102
C22	C	0.597896	1.193215	0.499898
C23	C	0.096774	0.616110	-0.000093
C24	C	0.596774	1.116110	0.499907
C25	C	-0.034591	0.825692	-0.000102
C26	C	0.465409	1.325692	0.499898
C27	C	-0.111694	0.824563	-0.000095
C28	C	0.388306	1.324563	0.499905
C29	C	0.096238	0.579917	-0.066106
C30	C	0.596238	1.079917	0.433894
C31	C	0.095176	0.507470	-0.066114
C32	C	0.595176	1.007470	0.433886
C33	C	0.094636	0.471221	-0.000106
C34	C	0.594636	0.971221	0.499894
C35	C	0.095176	0.507423	0.065915
C36	C	0.595176	1.007423	0.565915
C37	C	0.096245	0.579868	0.065922
C38	C	0.596245	1.079868	0.565922
C39	C	0.052256	0.361886	0.050461
C40	C	0.552256	0.861886	0.550461
C41	C	0.051183	0.289443	0.050451
C42	C	0.551183	0.789443	0.550451
C43	C	0.091342	0.247778	-0.000125
C44	C	0.591342	0.747778	0.499875
C45	C	0.132566	0.278565	-0.050703
C46	C	0.632566	0.778565	0.449297
C47	C	0.133635	0.351009	-0.050697
C48	C	0.633635	0.851009	0.449303
C49	C	0.093477	0.392667	-0.000107
C50	C	0.593477	0.892667	0.499893
C51	C	0.089655	0.133029	-0.066152
C52	C	0.589655	0.633029	0.433848
C53	C	0.088598	0.060580	-0.066158
C54	C	0.588598	0.560580	0.433842
C55	C	0.088591	0.060535	0.065874
C56	C	0.588591	0.560535	0.565874
C57	C	0.089656	0.132982	0.065878
C58	C	0.589656	0.632982	0.565878
C59	C	0.090185	0.169225	-0.000137
C60	C	0.590185	0.669225	0.499863
C61	C	-0.156396	0.887331	-0.000099
C62	C	0.343604	1.387331	0.499901
C63	C	-0.228843	0.886270	-0.000111
C64	C	0.271157	1.386270	0.499889
C65	C	-0.256585	0.822438	-0.000103
C66	C	0.243415	1.322438	0.499897
C67	C	-0.211873	0.759661	-0.000104
C68	C	0.288127	1.259661	0.499896
C69	C	-0.139428	0.760723	-0.000100
C70	C	0.360572	1.260723	0.499900
C71	C	-0.364870	0.772251	0.042321
C72	C	0.135130	1.272251	0.542321
C73	C	-0.437314	0.771191	0.042321
C74	C	0.062686	1.271191	0.542321
C75	C	-0.480030	0.819158	-0.000119
C76	C	0.019970	1.319158	0.499881
C77	C	-0.450295	0.868196	-0.042551
C78	C	0.049705	1.368196	0.457449
C79	C	-0.377849	0.869259	-0.042547
C80	C	0.122151	1.369259	0.457453
C81	C	-0.335139	0.821278	-0.000108
C82	C	0.164861	1.321278	0.499892
C83	C	-0.603288	0.880781	-0.000137
C84	C	-0.103288	1.380781	0.499863
C85	C	-0.675736	0.879717	-0.000153
C86	C	-0.175736	1.379717	0.499847
C87	C	-0.658764	0.753106	-0.000138
C88	C	-0.158764	1.253106	0.499862
C89	C	-0.586318	0.754171	-0.000130
C90	C	-0.086318	1.254171	0.499870
C91	C	-0.558584	0.818010	-0.000125
C92	C	-0.058584	1.318010	0.499875
C93	C	0.219424	0.814755	-0.000135
C94	C	0.719424	1.314755	0.499865
C95	C	0.296527	0.815884	-0.000147
C96	C	0.796527	1.315884	0.499853
C97	C	0.086937	0.947232	-0.000135
C98	C	0.586937	1.447232	0.499865
C99	C	0.088059	1.024336	-0.000149
C100	C	0.588059	1.524336	0.499851
N101	N	0.092408	0.820200	0.188550
N102	N	0.592408	1.320200	0.688550
N103	N	0.092420	0.820252	-0.188786
N104	N	0.592420	1.320252	0.311214
C105	C	0.045059	0.867584	0.226651
C106	C	0.545059	1.367584	0.726651
C107	C	0.045055	0.867589	0.302879
C108	C	0.545055	1.367589	0.802879
C109	C	0.092414	0.820215	0.341003
C110	C	0.592414	1.320215	0.841003
C111	C	0.139767	0.772822	0.302893
C112	C	0.639767	1.272822	0.802893
C113	C	0.139764	0.772814	0.226666
C114	C	0.639764	1.272814	0.726666
C115	C	0.155702	0.810917	0.461755
C116	C	0.655702	1.310917	0.961755
C117	C	0.155706	0.810930	0.537980
C118	C	0.655706	1.310930	1.037980
C119	C	0.092422	0.820235	0.576110
C120	C	0.592422	1.320235	1.076110
C121	C	0.029132	0.829543	0.538006
C122	C	0.529132	1.329543	1.038006
C123	C	0.029129	0.829535	0.461780
C124	C	0.529129	1.329535	0.961780
C125	C	0.092422	0.820218	0.423658
C126	C	0.592422	1.320218	0.923658
C127	C	0.045066	0.867627	0.696866
C128	C	0.545066	1.367627	1.196866
C129	C	0.045062	0.867627	0.773096
C130	C	0.545062	1.367627	1.273096
C131	C	0.139779	0.772863	0.773108
C132	C	0.639779	1.272863	1.273108
C133	C	0.139777	0.772860	0.696880
C134	C	0.639777	1.272860	1.196880
C135	C	0.092421	0.820246	0.658764
C136	C	0.592421	1.320246	1.158764
H137	H	0.096669	0.609421	-0.119860
H138	H	0.596669	1.109421	0.380140
Br139	Br	-0.565645	0.967417	-0.000124
Br140	Br	-0.065645	1.467417	0.499876
H141	H	-0.022404	0.837112	0.430759
H142	H	0.477596	1.337112	0.930759
Br143	Br	0.189580	0.392790	-0.119333
Br144	Br	0.689580	0.892790	0.380667
Br145	Br	-0.019205	0.931933	0.645136
Br146	Br	0.480795	1.431933	1.145136
H147	H	0.006500	0.906211	0.804118
H148	H	0.506500	1.406211	1.304118
Br149	Br	0.094450	0.458339	-0.155710
Br150	Br	0.594450	0.958339	0.344290
H151	H	-0.681351	0.701132	-0.000136
H152	H	-0.181351	1.201132	0.499864
H153	H	-0.265246	0.937386	-0.000117
H154	H	0.234754	1.437386	0.499883
Br155	Br	-0.002248	0.418425	0.119108
Br156	Br	0.497752	0.918425	0.619108
H157	H	-0.353642	0.909186	-0.077098
H158	H	0.146358	1.409186	0.422902
Br159	Br	0.204044	0.708563	0.824841
Br160	Br	0.704044	1.208563	1.324841
Br161	Br	-0.118760	0.973970	-0.000114
Br162	Br	0.381240	1.473970	0.499886
H163	H	-0.712132	0.930833	-0.000160
H164	H	-0.212132	1.430833	0.499840
H165	H	-0.549920	0.703058	-0.000122
H166	H	-0.049920	1.203058	0.499878
Br167	Br	0.087879	0.011457	-0.155756
Br168	Br	0.587879	0.511457	0.344244
H169	H	-0.461518	0.731258	0.076868
H170	H	0.038482	1.231258	0.576868
Br171	Br	0.087869	0.011347	0.155458
Br172	Br	0.587869	0.511347	0.655458
Br173	Br	-0.306904	0.707148	0.099925
Br174	Br	0.193096	1.207148	0.599925
Br175	Br	0.187073	0.222027	-0.119346
Br176	Br	0.687073	0.722027	0.380654
Br177	Br	0.241599	0.798306	0.589685
Br178	Br	0.741599	1.298306	1.089685
H179	H	0.006496	0.906176	0.333907
H180	H	0.506496	1.406176	0.833907
H181	H	0.090088	0.162452	0.119633
H182	H	0.590088	0.662452	0.619633
Br183	Br	-0.056759	0.842181	0.589744
Br184	Br	0.443241	1.342181	1.089744
Br185	Br	-0.508258	0.933300	-0.100153
Br186	Br	-0.008258	1.433300	0.399847
H187	H	0.207239	0.803327	0.430716
H188	H	0.707239	1.303327	0.930716
Br189	Br	-0.249520	0.673029	-0.000103
Br190	Br	0.250480	1.173029	0.499897
Br191	Br	0.204042	0.708552	0.645165
Br192	Br	0.704042	1.208552	1.145165
H193	H	-0.103030	0.709608	-0.000096
H194	H	0.396970	1.209608	0.499904
Br195	Br	0.204035	0.708524	0.354629
Br196	Br	0.704035	1.208524	0.854629
Br197	Br	0.204028	0.708502	0.174953
Br198	Br	0.704028	1.208502	0.674953
Br199	Br	0.094452	0.458230	0.155499
Br200	Br	0.594452	0.958230	0.655499
H201	H	0.006497	0.906167	0.195619
H202	H	0.506497	1.406167	0.695619
Br203	Br	0.090378	0.182219	-0.155741
Br204	Br	0.590378	0.682219	0.344259
H205	H	0.017613	0.264383	0.091632
H206	H	0.517613	0.764383	0.591632
Br207	Br	0.096975	0.628991	0.155519
Br208	Br	0.596975	1.128991	0.655519
