data_functionalizedCrystal
_audit_creation_method	'MofGen! by Chris Wilmer'
_symmetry_space_group_name_H-M	'P1'
_symmetry_Int_Tables_number	1
_symmetry_cell_setting	triclinic
loop_
_symmetry_equiv_pos_as_xyz
  x,y,z
_cell_length_a	21.295419
_cell_length_b	21.295417
_cell_length_c	21.295411
_cell_angle_alpha	89.978356
_cell_angle_beta	90.024539
_cell_angle_gamma	89.954692
loop_
_atom_site_label
_atom_site_type_symbol
_atom_site_fract_x
_atom_site_fract_y
_atom_site_fract_z
Zn1	Zn	0.962356	0.250432	0.355911
Zn2	Zn	1.295689	0.583766	0.689244
Zn3	Zn	1.629022	0.917099	1.022578
Zn4	Zn	0.962258	0.355684	0.250637
Zn5	Zn	1.295591	0.689018	0.583970
Zn6	Zn	1.628925	1.022351	0.917303
Zn7	Zn	0.857079	0.250460	0.250656
Zn8	Zn	1.190412	0.583793	0.583990
Zn9	Zn	1.523745	0.917127	0.917323
Zn10	Zn	0.857048	0.355695	0.355868
Zn11	Zn	1.190381	0.689028	0.689202
Zn12	Zn	1.523715	1.022361	1.022535
O13	O	0.909685	0.303068	0.303268
O14	O	1.243018	0.636401	0.636601
O15	O	1.576352	0.969734	0.969935
O16	O	1.050432	0.264378	0.341956
O17	O	1.383765	0.597712	0.675289
O18	O	1.717099	0.931045	1.008623
O19	O	0.948278	0.341733	0.162550
O20	O	1.281611	0.675066	0.495883
O21	O	1.614944	1.008400	0.829216
O22	O	0.871098	0.162367	0.264645
O23	O	1.204431	0.495700	0.597978
O24	O	1.537764	0.829034	0.931311
O25	O	1.050360	0.341706	0.264611
O26	O	1.383694	0.675040	0.597944
O27	O	1.717027	1.008373	0.931278
O28	O	0.948444	0.162347	0.341975
O29	O	1.281777	0.495680	0.675308
O30	O	1.615111	0.829013	1.008642
O31	O	0.871003	0.264425	0.162564
O32	O	1.204336	0.597759	0.495898
O33	O	1.537670	0.931092	0.829231
O34	O	0.768985	0.264436	0.264603
O35	O	1.102319	0.597769	0.597936
O36	O	1.435652	0.931102	0.931270
O37	O	0.871045	0.341724	0.443963
O38	O	1.204379	0.675058	0.777297
O39	O	1.537712	1.008391	1.110630
O40	O	0.768963	0.341751	0.341902
O41	O	1.102296	0.675085	0.675235
O42	O	1.435629	1.008418	1.008569
O43	O	0.948414	0.264388	0.443995
O44	O	1.281748	0.597722	0.777328
O45	O	1.615081	0.931055	1.110662
O46	O	0.948248	0.443775	0.264570
O47	O	1.281581	0.777108	0.597903
O48	O	1.614915	1.110442	0.931236
O49	O	0.870951	0.443783	0.341883
O50	O	1.204284	0.777116	0.675216
O51	O	1.537617	1.110449	1.008550
C52	C	0.746133	0.303098	0.303250
C53	C	1.079467	0.636431	0.636584
C54	C	1.412800	0.969765	0.969917
C55	C	0.676165	0.303126	0.303258
C56	C	1.009499	0.636459	0.636591
C57	C	1.342832	0.969793	0.969924
C58	C	0.643358	0.262927	0.343593
C59	C	0.976692	0.596261	0.676927
C60	C	1.310025	0.929594	1.010260
C61	C	0.577616	0.262910	0.343596
C62	C	0.910949	0.596244	0.676929
C63	C	1.244283	0.929577	1.010263
C64	C	0.544683	0.303104	0.303269
C65	C	0.878016	0.636437	0.636603
C66	C	1.211349	0.969770	0.969936
C67	C	0.577498	0.343305	0.262926
C68	C	0.910831	0.676639	0.596259
C69	C	1.244164	1.009972	0.929592
C70	C	0.643239	0.343317	0.262920
C71	C	0.976572	0.676650	0.596253
C72	C	1.309906	1.009983	0.929587
N73	N	0.441407	0.358181	0.298349
N74	N	0.774741	0.691514	0.631683
N75	N	1.108074	1.024847	0.965016
N76	N	0.378956	0.358168	0.298359
N77	N	0.712289	0.691502	0.631692
N78	N	1.045623	1.024835	0.965025
C79	C	0.346608	0.303071	0.303283
C80	C	0.679941	0.636404	0.636616
C81	C	1.013275	0.969738	0.969950
N82	N	0.379071	0.247985	0.308210
N83	N	0.712404	0.581319	0.641544
N84	N	1.045738	0.914652	0.974877
N85	N	0.441528	0.247999	0.308205
N86	N	0.774862	0.581332	0.641538
N87	N	1.108195	0.914665	0.974871
C88	C	0.473397	0.303095	0.303271
C89	C	0.806731	0.636429	0.636604
C90	C	1.140064	0.969762	0.969937
C91	C	0.242516	0.262850	0.343624
C92	C	0.575849	0.596184	0.676957
C93	C	0.909182	0.929517	1.010290
C94	C	0.176772	0.262832	0.343622
C95	C	0.510105	0.596166	0.676955
C96	C	0.843439	0.929499	1.010288
C97	C	0.176655	0.343233	0.262955
C98	C	0.509988	0.676566	0.596288
C99	C	0.843322	1.009900	0.929621
C100	C	0.242397	0.343245	0.262953
C101	C	0.575731	0.676579	0.596287
C102	C	0.909064	1.009912	0.929620
C103	C	0.275324	0.303055	0.303291
C104	C	0.608657	0.636388	0.636625
C105	C	0.941991	0.969722	0.969958
C106	C	0.909603	0.466619	0.303233
C107	C	1.242936	0.799953	0.636567
C108	C	1.576269	1.133286	0.969900
C109	C	0.909625	0.536588	0.303239
C110	C	1.242958	0.869921	0.636573
C111	C	1.576291	1.203254	0.969906
C112	C	0.909737	0.303055	0.467458
C113	C	1.243071	0.636388	0.800792
C114	C	1.576404	0.969721	1.134125
C115	C	0.909760	0.303049	0.537426
C116	C	1.243093	0.636382	0.870760
C117	C	1.576426	0.969716	1.204093
C118	C	1.073875	0.303038	0.303286
C119	C	1.407209	0.636371	0.636619
C120	C	1.740542	0.969705	0.969953
C121	C	1.143843	0.303025	0.303294
C122	C	1.477177	0.636359	0.636627
C123	C	1.810510	0.969692	0.969961
C124	C	0.909785	0.138878	0.303317
C125	C	1.243118	0.472211	0.636650
C126	C	1.576452	0.805544	0.969983
C127	C	0.909828	0.068909	0.303338
C128	C	1.243161	0.402243	0.636671
C129	C	1.576494	0.735576	0.970004
C130	C	0.949909	0.569429	0.263024
C131	C	1.283243	0.902763	0.596357
C132	C	1.616576	1.236096	0.929690
C133	C	0.949939	0.635172	0.263038
C134	C	1.283272	0.968505	0.596371
C135	C	1.616605	1.301838	0.929704
C136	C	0.909673	0.668070	0.303261
C137	C	1.243006	1.001403	0.636594
C138	C	1.576339	1.334737	0.969928
C139	C	0.869385	0.635220	0.343485
C140	C	1.202719	0.968554	0.676818
C141	C	1.536052	1.301887	1.010151
C142	C	0.869361	0.569479	0.343474
C143	C	1.202695	0.902813	0.676807
C144	C	1.536028	1.236146	1.010140
N145	N	0.854606	0.771351	0.308054
N146	N	1.187939	1.104684	0.641387
N147	N	1.521272	1.438018	0.974721
N148	N	0.854630	0.833802	0.308061
N149	N	1.187963	1.167136	0.641394
N150	N	1.521297	1.500469	0.974727
C151	C	0.909743	0.866145	0.303297
C152	C	1.243076	1.199478	0.636630
C153	C	1.576410	1.532811	0.969964
N154	N	0.964832	0.833676	0.298514
N155	N	1.298165	1.167010	0.631848
N156	N	1.631499	1.500343	0.965181
N157	N	0.964807	0.771219	0.298504
N158	N	1.298140	1.104553	0.631838
N159	N	1.631473	1.437886	0.965171
C160	C	0.909694	0.739355	0.303278
C161	C	1.243028	1.072689	0.636611
C162	C	1.576361	1.406022	0.969944
C163	C	0.950063	0.970272	0.263095
C164	C	1.283396	1.303605	0.596428
C165	C	1.616730	1.636939	0.929761
C166	C	0.950093	1.036016	0.263113
C167	C	1.283427	1.369349	0.596446
C168	C	1.616760	1.702682	0.929780
C169	C	0.869534	1.036063	0.343557
C170	C	1.202868	1.369396	0.676890
C171	C	1.536201	1.702730	1.010223
C172	C	0.869510	0.970321	0.343541
C173	C	1.202843	1.303654	0.676875
C174	C	1.536176	1.636987	1.010208
C175	C	0.909773	0.937429	0.303307
C176	C	1.243106	1.270762	0.636640
C177	C	1.576440	1.604096	0.969974
C178	C	0.909669	0.303036	0.139716
C179	C	1.243003	0.636369	0.473050
C180	C	1.576336	0.969702	0.806383
C181	C	0.909769	0.302864	0.069749
C182	C	1.243102	0.636197	0.403082
C183	C	1.576436	0.969531	0.736415
C184	C	0.950044	0.262778	0.570311
C185	C	1.283377	0.596112	0.903644
C186	C	1.616710	0.929445	1.236977
C187	C	0.950043	0.262751	0.636053
C188	C	1.283376	0.596084	0.969386
C189	C	1.616710	0.929418	1.302720
C190	C	0.909764	0.303006	0.668909
C191	C	1.243098	0.636339	1.002242
C192	C	1.576431	0.969672	1.335576
C193	C	0.869472	0.343279	0.636017
C194	C	1.202806	0.676612	0.969350
C195	C	1.536139	1.009946	1.302684
C196	C	0.869470	0.343301	0.570276
C197	C	1.202803	0.676634	0.903609
C198	C	1.536137	1.009967	1.236942
N199	N	0.904908	0.358075	0.772124
N200	N	1.238241	0.691408	1.105458
N201	N	1.571574	1.024741	1.438791
N202	N	0.904914	0.358052	0.834576
N203	N	1.238247	0.691385	1.167909
N204	N	1.571580	1.024719	1.501243
C205	C	0.909768	0.302942	0.866984
C206	C	1.243102	0.636275	1.200317
C207	C	1.576435	0.969608	1.533651
N208	N	0.914629	0.247853	0.834581
N209	N	1.247963	0.581187	1.167914
N210	N	1.581296	0.914520	1.501248
N211	N	0.914626	0.247876	0.772124
N212	N	1.247960	0.581210	1.105457
N213	N	1.581293	0.914543	1.438791
C214	C	0.909762	0.302986	0.740194
C215	C	1.243096	0.636320	1.073528
C216	C	1.576429	0.969653	1.406861
C217	C	0.950054	0.262638	0.971154
C218	C	1.283387	0.595971	1.304487
C219	C	1.616721	0.929305	1.637820
C220	C	0.950049	0.262610	1.036897
C221	C	1.283382	0.595943	1.370231
C222	C	1.616715	0.929276	1.703564
C223	C	0.869481	0.343143	1.036860
C224	C	1.202815	0.676477	1.370193
C225	C	1.536148	1.009810	1.703527
C226	C	0.869483	0.343166	0.971118
C227	C	1.202817	0.676499	1.304451
C228	C	1.536150	1.009833	1.637784
C229	C	0.909773	0.302914	0.938268
C230	C	1.243106	0.636248	1.271602
C231	C	1.576440	0.969581	1.604935
H232	H	0.269109	0.375982	0.230110
H233	H	0.602442	0.709316	0.563444
H234	H	0.935776	1.042649	0.896777
H235	H	0.982696	0.542651	0.230264
H236	H	1.316029	0.875984	0.563597
H237	H	1.649362	1.209317	0.896931
C238	C	0.679327	0.387543	0.218548
C239	C	1.012661	0.720877	0.551882
C240	C	1.345994	1.054210	0.885215
N241	N	0.706510	0.420857	0.185129
N242	N	1.039844	0.754191	0.518462
N243	N	1.373177	1.087524	0.851795
C244	C	0.541270	0.387518	0.218567
C245	C	0.874603	0.720852	0.551900
C246	C	1.207937	1.054185	0.885233
N247	N	0.513983	0.420820	0.185153
N248	N	0.847317	0.754153	0.518486
N249	N	1.180650	1.087486	0.851819
C250	C	0.994364	0.218452	0.672233
C251	C	1.327698	0.551786	1.005566
C252	C	1.661031	0.885119	1.338900
N253	N	1.027749	0.185088	0.699482
N254	N	1.361082	0.518421	1.032815
N255	N	1.694416	0.851755	1.366148
C256	C	0.679574	0.218708	0.387958
C257	C	1.012907	0.552042	0.721292
C258	C	1.346240	0.885375	1.054625
N259	N	0.706852	0.185400	0.421372
N260	N	1.040185	0.518733	0.754705
N261	N	1.373519	0.852066	1.088038
C262	C	0.994362	0.934089	0.218846
C263	C	1.327696	1.267422	0.552179
C264	C	1.661029	1.600756	0.885512
N265	N	1.027731	0.906838	0.185519
N266	N	1.361065	1.240171	0.518852
N267	N	1.694398	1.573504	0.852186
H268	H	0.982745	0.661917	0.230289
H269	H	1.316079	0.995250	0.563623
H270	H	1.649412	1.328583	0.896956
C271	C	0.140432	0.387446	0.218594
C272	C	0.473766	0.720779	0.551927
C273	C	0.807099	1.054112	0.885261
N274	N	0.113146	0.420747	0.185180
N275	N	0.446480	0.754080	0.518513
N276	N	0.779813	1.087414	0.851846
H277	H	0.982902	1.062754	0.230366
H278	H	1.316235	1.396088	0.563699
H279	H	1.649569	1.729421	0.897032
H280	H	0.836752	1.062848	0.376310
H281	H	1.170085	1.396182	0.709644
H282	H	1.503418	1.729515	1.042977
C283	C	0.825090	0.671410	0.387728
C284	C	1.158424	1.004743	0.721062
C285	C	1.491757	1.338077	1.054395
N286	N	0.791726	0.698668	0.421054
N287	N	1.125060	1.032001	0.754388
N288	N	1.458393	1.365334	1.087721
C289	C	0.994367	0.218355	0.935017
C290	C	1.327701	0.551689	1.268350
C291	C	1.661034	0.885022	1.601684
N292	N	1.027743	0.185000	0.907801
N293	N	1.361077	0.518333	1.241134
N294	N	1.694410	0.851667	1.574468
C295	C	0.541521	0.218690	0.387974
C296	C	0.874854	0.552024	0.721307
C297	C	1.208188	0.885357	1.054640
N298	N	0.514336	0.185385	0.421401
N299	N	0.847670	0.518719	0.754734
N300	N	1.181003	0.852052	1.088067
H301	H	0.836703	0.943579	0.376286
H302	H	1.170037	1.276912	0.709620
H303	H	1.503370	1.610246	1.042953
C304	C	0.825051	0.533352	0.387724
C305	C	1.158385	0.866686	0.721058
C306	C	1.491718	1.200019	1.054391
N307	N	0.791679	0.506140	0.421057
N308	N	1.125012	0.839474	0.754390
N309	N	1.458345	1.172807	1.087723
H310	H	0.982850	0.230001	0.543569
H311	H	1.316183	0.563335	0.876902
H312	H	1.649517	0.896668	1.210235
H313	H	0.982852	0.229813	1.063670
H314	H	1.316185	0.563146	1.397004
H315	H	1.649519	0.896480	1.730337
H316	H	0.836675	0.376052	0.662773
H317	H	1.170009	0.709386	0.996106
H318	H	1.503342	1.042719	1.329439
H319	H	0.836679	0.375913	1.063611
H320	H	1.170013	0.709246	1.396944
H321	H	1.503346	1.042580	1.730277
C322	C	0.278737	0.218635	0.387990
C323	C	0.612070	0.551968	0.721323
C324	C	0.945404	0.885301	1.054656
N325	N	0.306017	0.185330	0.421406
N326	N	0.639351	0.518663	0.754739
N327	N	0.972684	0.851997	1.088072
H328	H	0.836683	0.375963	0.944343
H329	H	1.170017	0.709296	1.277676
H330	H	1.503350	1.042629	1.611010
C331	C	0.140685	0.218607	0.387996
C332	C	0.474018	0.551941	0.721329
C333	C	0.807351	0.885274	1.054662
N334	N	0.113503	0.185297	0.421420
N335	N	0.446836	0.518630	0.754754
N336	N	0.780170	0.851963	1.088087
C337	C	0.825154	0.387605	0.534102
C338	C	1.158487	0.720938	0.867436
C339	C	1.491820	1.054272	1.200769
N340	N	0.791775	0.420977	0.506855
N341	N	1.125108	0.754310	0.840189
N342	N	1.458441	1.087643	1.173522
