data_functionalizedCrystal
_audit_creation_method	'MofGen! by Chris Wilmer'
_symmetry_space_group_name_H-M	'P1'
_symmetry_Int_Tables_number	1
_symmetry_cell_setting	triclinic
loop_
_symmetry_equiv_pos_as_xyz
  x,y,z
_cell_length_a	14.519709
_cell_length_b	19.188930
_cell_length_c	12.996460
_cell_angle_alpha	89.988736
_cell_angle_beta	90.000034
_cell_angle_gamma	83.412464
loop_
_atom_site_label
_atom_site_type_symbol
_atom_site_fract_x
_atom_site_fract_y
_atom_site_fract_z
O1	O	1.223300	0.091525	-0.085445
O2	O	1.556634	0.424858	0.247888
O3	O	1.889967	0.758191	0.581222
O4	O	0.954756	0.102303	-0.085478
O5	O	1.288090	0.435636	0.247855
O6	O	1.621423	0.768969	0.581189
O7	O	1.096778	-0.004714	-0.085440
O8	O	1.430111	0.328619	0.247893
O9	O	1.763445	0.661952	0.581226
O10	O	1.081279	0.198542	-0.085482
O11	O	1.414612	0.531875	0.247851
O12	O	1.747945	0.865208	0.581184
O13	O	1.096763	-0.004720	0.085693
O14	O	1.430096	0.328613	0.419027
O15	O	1.763430	0.661946	0.752360
O16	O	0.954742	0.102297	0.085656
O17	O	1.288075	0.435630	0.418989
O18	O	1.621408	0.768963	0.752323
O19	O	1.223285	0.091519	0.085689
O20	O	1.556619	0.424852	0.419022
O21	O	1.889952	0.758185	0.752356
Cu22	Cu	1.089012	0.096907	0.101298
Cu23	Cu	1.422346	0.430240	0.434632
Cu24	Cu	1.755679	0.763574	0.767965
Cu25	Cu	1.089030	0.096914	-0.101087
Cu26	Cu	1.422363	0.430247	0.232246
Cu27	Cu	1.755696	0.763581	0.565579
O28	O	1.081264	0.198536	0.085651
O29	O	1.414597	0.531869	0.418985
O30	O	1.747931	0.865202	0.752318
C31	C	0.920392	0.101797	0.000085
C32	C	1.253726	0.435131	0.333418
C33	C	1.587059	0.768464	0.666752
C34	C	0.818020	0.100292	0.000073
C35	C	1.151354	0.433625	0.333407
C36	C	1.484687	0.766959	0.666740
C37	C	0.443159	0.094751	0.000121
C38	C	0.776492	0.428084	0.333455
C39	C	1.109826	0.761417	0.666788
C40	C	0.547457	0.096290	0.000108
C41	C	0.880791	0.429623	0.333441
C42	C	1.214124	0.762956	0.666774
C43	C	0.630586	0.097521	0.000097
C44	C	0.963920	0.430855	0.333430
C45	C	1.297253	0.764188	0.666763
C46	C	0.734891	0.099060	0.000085
C47	C	1.068225	0.432394	0.333418
C48	C	1.401558	0.765727	0.666751
C49	C	1.096269	-0.030730	0.000129
C50	C	1.429602	0.302603	0.333463
C51	C	1.762935	0.635936	0.666796
C52	C	1.094762	-0.108240	0.000138
C53	C	1.428095	0.225093	0.333471
C54	C	1.761429	0.558427	0.666805
C55	C	1.178095	-0.152867	0.000153
C56	C	1.511429	0.180466	0.333487
C57	C	1.844762	0.513799	0.666820
C58	C	1.176680	-0.225696	0.000137
C59	C	1.510013	0.107637	0.333470
C60	C	1.843347	0.440970	0.666803
C61	C	1.091926	-0.253895	0.000125
C62	C	1.425259	0.079439	0.333459
C63	C	1.758593	0.412772	0.666792
C64	C	1.008582	-0.209257	0.000105
C65	C	1.341915	0.124076	0.333438
C66	C	1.675248	0.457409	0.666771
C67	C	1.009999	-0.136430	0.000111
C68	C	1.343333	0.196903	0.333444
C69	C	1.676666	0.530236	0.666778
N70	N	1.027137	-0.362132	0.058358
N71	N	1.360470	-0.028799	0.391691
N72	N	1.693804	0.304534	0.725024
N73	N	1.025796	-0.431316	0.058354
N74	N	1.359129	-0.097982	0.391687
N75	N	1.692462	0.235351	0.725020
C76	C	1.087649	-0.473318	0.000104
C77	C	1.420982	-0.139985	0.333437
C78	C	1.754316	0.193348	0.666771
N79	N	1.150908	-0.443526	-0.058129
N80	N	1.484242	-0.110192	0.275205
N81	N	1.817575	0.223141	0.608538
N82	N	1.152252	-0.374336	-0.058120
N83	N	1.485586	-0.041003	0.275213
N84	N	1.818919	0.292330	0.608546
C85	C	1.090379	-0.332863	0.000118
C86	C	1.423713	0.000471	0.333451
C87	C	1.757046	0.333804	0.666785
C88	C	1.169454	-0.596916	0.000100
C89	C	1.502787	-0.263582	0.333433
C90	C	1.836120	0.069751	0.666766
C91	C	1.168035	-0.669745	0.000077
C92	C	1.501368	-0.336412	0.333410
C93	C	1.834701	-0.003079	0.666743
C94	C	0.999934	-0.653305	0.000055
C95	C	1.333267	-0.319972	0.333388
C96	C	1.666600	0.013362	0.666722
C97	C	1.001355	-0.580477	0.000068
C98	C	1.334689	-0.247144	0.333401
C99	C	1.668022	0.086190	0.666734
C100	C	1.086118	-0.552287	0.000095
C101	C	1.419451	-0.218953	0.333428
C102	C	1.752784	0.114380	0.666762
C103	C	1.257649	0.092024	0.000124
C104	C	1.590983	0.425357	0.333457
C105	C	1.924316	0.758691	0.666790
C106	C	1.360021	0.093529	0.000128
C107	C	1.693355	0.426862	0.333462
C108	C	2.026688	0.760196	0.666795
C109	C	1.081773	0.224551	0.000079
C110	C	1.415107	0.557885	0.333413
C111	C	1.748440	0.891218	0.666746
C112	C	1.083280	0.302061	0.000064
C113	C	1.416613	0.635395	0.333397
C114	C	1.749947	0.968728	0.666731
N115	N	1.089007	0.096902	0.243645
N116	N	1.422340	0.430235	0.576979
N117	N	1.755673	0.763568	0.910312
N118	N	1.089042	0.096914	-0.243434
N119	N	1.422376	0.430247	0.089899
N120	N	1.755709	0.763581	0.423232
C121	C	1.089028	0.096915	0.663460
C122	C	1.422362	0.430248	0.996793
C123	C	1.755695	0.763581	1.330126
C124	C	1.089020	0.096914	0.546655
C125	C	1.422353	0.430247	0.879988
C126	C	1.755686	0.763580	1.213321
C127	C	1.089018	0.096909	0.453556
C128	C	1.422351	0.430242	0.786890
C129	C	1.755685	0.763575	1.120223
C130	C	1.089008	0.096906	0.336744
C131	C	1.422342	0.430240	0.670077
C132	C	1.755675	0.763573	1.003410
H133	H	1.247116	-0.129920	0.000172
H134	H	1.580449	0.203413	0.333505
H135	H	1.913782	0.536747	0.666839
H136	H	1.235898	-0.706081	0.000083
H137	H	1.569231	-0.372748	0.333417
H138	H	1.902564	-0.039414	0.666750
H139	H	0.939574	-0.232221	0.000093
H140	H	1.272908	0.101112	0.333427
H141	H	1.606241	0.434445	0.666760
H142	H	1.244542	-0.262039	0.000145
H143	H	1.577876	0.071295	0.333478
H144	H	1.911209	0.404628	0.666811
H145	H	0.942137	-0.100094	0.000099
H146	H	1.275470	0.233239	0.333432
H147	H	1.608804	0.566573	0.666766
H148	H	0.930926	-0.676263	0.000041
H149	H	1.264259	-0.342930	0.333374
H150	H	1.597592	-0.009597	0.666708
H151	H	0.933496	-0.544140	0.000061
H152	H	1.266829	-0.210807	0.333394
H153	H	1.600162	0.122527	0.666728
H154	H	1.238472	-0.573962	0.000117
H155	H	1.571805	-0.240629	0.333451
H156	H	1.905139	0.092705	0.666784
