data_functionalizedCrystal
_audit_creation_method	'MofGen! by Chris Wilmer'
_symmetry_space_group_name_H-M	'P1'
_symmetry_Int_Tables_number	1
_symmetry_cell_setting	triclinic
loop_
_symmetry_equiv_pos_as_xyz
  x,y,z
_cell_length_a	10.686285
_cell_length_b	12.759401
_cell_length_c	12.759393
_cell_angle_alpha	90.020566
_cell_angle_beta	85.602987
_cell_angle_gamma	94.370041
loop_
_atom_site_label
_atom_site_type_symbol
_atom_site_fract_x
_atom_site_fract_y
_atom_site_fract_z
Zn1	Zn	-0.502350	-1.638408	-0.561988
Zn2	Zn	-0.713390	-1.651802	-0.372855
Zn3	Zn	-0.502405	-1.462710	-0.386320
Zn4	Zn	-0.713290	-1.476195	-0.548500
O5	O	-0.607859	-1.557278	-0.467416
O6	O	-0.530364	-1.787207	-0.536908
O7	O	-0.685468	-1.626680	-0.227616
O8	O	-0.325821	-1.474768	-0.420903
O9	O	-0.685415	-1.797047	-0.397953
O10	O	-0.325781	-1.603852	-0.549965
O11	O	-0.530458	-1.487755	-0.237509
O12	O	-0.530361	-1.317477	-0.407825
O13	O	-0.685243	-1.497751	-0.697314
O14	O	-0.685297	-1.327384	-0.526977
O15	O	-0.530267	-1.616928	-0.707224
O16	O	-0.889954	-1.639756	-0.384875
O17	O	-0.889880	-1.510738	-0.513920
C18	C	-0.607825	-1.284309	-0.467399
C19	C	-0.607840	-1.167533	-0.467415
C20	C	-0.527249	-1.107557	-0.539862
C21	C	-0.527257	-0.997834	-0.539867
C22	C	-0.688458	-1.008073	-0.394973
C23	C	-0.688443	-1.117794	-0.394964
C24	C	-0.935702	-1.578192	-0.446496
C25	C	-1.075954	-1.587235	-0.437581
C26	C	-0.278736	-1.536312	-0.488441
C27	C	-0.138484	-1.527377	-0.497400
C28	C	-0.607738	-1.557349	-0.741457
C29	C	-0.607686	-1.557380	-0.858237
C30	C	-0.607883	-0.831313	-0.467430
C31	C	-0.607863	-0.948089	-0.467428
C32	C	-0.526977	-1.619439	-0.918261
C33	C	-0.526923	-1.619454	-1.027989
C34	C	-0.688298	-1.495346	-1.017658
C35	C	-0.688345	-1.495327	-0.907932
C36	C	-0.607889	-1.557263	-0.194447
C37	C	-0.607585	-1.557413	-0.077690
H38	H	-0.754071	-1.166628	-0.335963
O39	O	-0.439974	-1.686360	-0.864666
H40	H	-0.496480	-1.743410	-0.811085
O41	O	-1.147160	-1.664303	-0.360712
H42	H	-1.249841	-1.659562	-0.365542
O43	O	-0.439880	-1.686395	-1.092733
H44	H	-0.383813	-1.729544	-1.039738
O45	O	-0.775294	-1.428421	-1.071256
H46	H	-0.761710	-1.438865	-1.157639
H47	H	-1.084722	-1.469213	-0.555435
O48	O	-0.775398	-0.954427	-0.316836
H49	H	-0.761879	-0.868055	-0.329018
H50	H	-0.754067	-1.444783	-0.859059
H51	H	-0.461613	-1.148051	-0.598853
H52	H	-0.461629	-0.949005	-0.598859
