data_functionalizedCrystal
_audit_creation_method	'MofGen! by Chris Wilmer'
_symmetry_space_group_name_H-M	'P1'
_symmetry_Int_Tables_number	1
_symmetry_cell_setting	triclinic
loop_
_symmetry_equiv_pos_as_xyz
  x,y,z
_cell_length_a	27.731994
_cell_length_b	27.732048
_cell_length_c	10.065875
_cell_angle_alpha	98.710990
_cell_angle_beta	81.334547
_cell_angle_gamma	82.631595
loop_
_atom_site_label
_atom_site_type_symbol
_atom_site_fract_x
_atom_site_fract_y
_atom_site_fract_z
O1	O	0.648059	0.050244	-0.113309
O2	O	0.507264	0.059014	-0.113357
O3	O	0.582033	-0.015767	-0.113306
O4	O	0.573290	0.125025	-0.113361
O5	O	0.567775	-0.001450	0.113673
O6	O	0.493007	0.073331	0.113622
O7	O	0.633801	0.064561	0.113670
Zn8	Zn	0.561140	0.071219	0.149684
Zn9	Zn	0.579925	0.052356	-0.149371
O10	O	0.559033	0.139341	0.113618
C11	C	0.482129	0.065992	0.000127
C12	C	0.428473	0.065449	0.000110
C13	C	0.087980	0.069840	0.123890
C14	C	-0.113680	0.067779	0.123907
O15	O	-0.146362	0.074129	0.229131
N16	N	-0.131123	0.059720	0.000181
C17	C	-0.098147	0.052171	-0.123558
O18	O	-0.117609	0.045263	-0.228795
C19	C	0.103512	0.054228	-0.123573
C20	C	0.120951	0.062294	0.000161
C21	C	0.105420	0.077904	0.247614
C22	C	0.155831	0.078422	0.247609
C23	C	0.188803	0.070875	0.123880
C24	C	0.171363	0.062811	0.000156
C25	C	0.136487	0.046676	-0.247311
C26	C	0.186905	0.047190	-0.247303
C27	C	0.204344	0.055256	-0.123569
C28	C	0.254746	0.055783	-0.123579
N29	N	0.272189	0.063842	0.000147
C30	C	0.239217	0.071389	0.123876
C31	C	-0.204021	0.051093	-0.123542
C32	C	-0.254436	0.050579	-0.123538
C33	C	-0.269965	0.066187	0.123927
C34	C	-0.219550	0.066703	0.123922
C35	C	-0.186578	0.059152	0.000184
C36	C	0.345085	0.072476	0.123856
C37	C	0.395502	0.072995	0.123839
C38	C	0.411027	0.057385	-0.123625
C39	C	0.360615	0.056868	-0.123610
C40	C	0.327645	0.064413	0.000142
O41	O	0.287456	0.049431	-0.228748
O42	O	0.258691	0.078285	0.229097
C43	C	0.037568	0.069322	0.123896
C44	C	0.020128	0.061258	0.000172
C45	C	0.053100	0.053712	-0.123558
C46	C	-0.030286	0.060745	0.000175
C47	C	-0.063258	0.068291	0.123904
C48	C	-0.045815	0.076351	0.247630
C49	C	0.004597	0.076869	0.247625
C50	C	0.035657	0.045652	-0.247284
C51	C	-0.014755	0.045135	-0.247268
C52	C	-0.047727	0.052682	-0.123539
C53	C	0.574720	-0.026615	0.000188
C54	C	0.574167	-0.080269	0.000199
C55	C	0.614875	-0.419096	0.000142
C56	C	0.612825	-0.620756	0.000123
O57	O	0.650050	-0.652022	0.000075
N58	N	0.568490	-0.639872	0.000109
C59	C	0.524664	-0.608570	0.000091
O60	O	0.486908	-0.629457	0.000065
C61	C	0.526715	-0.406911	0.000101
C62	C	0.571052	-0.387797	0.000129
C63	C	0.659209	-0.399981	0.000168
C64	C	0.659721	-0.349569	0.000181
C65	C	0.615898	-0.318270	0.000167
C66	C	0.571564	-0.337385	0.000141
C67	C	0.482890	-0.375611	0.000074
C68	C	0.483407	-0.325194	0.000073
C69	C	0.527745	-0.306080	0.000100
C70	C	0.528253	-0.255674	0.000140
N71	N	0.572588	-0.236558	0.000153
C72	C	0.616411	-0.267856	0.000167
C73	C	0.523590	-0.714444	0.000089
C74	C	0.523077	-0.764858	0.000089
C75	C	0.611239	-0.777041	0.000117
C76	C	0.611751	-0.726625	0.000127
C77	C	0.567926	-0.695328	0.000102
C78	C	0.617482	-0.161985	0.000194
C79	C	0.617989	-0.111567	0.000212
C80	C	0.529828	-0.099390	0.000176
C81	C	0.529320	-0.149803	0.000165
C82	C	0.573151	-0.181100	0.000170
O83	O	0.491049	-0.224381	0.000172
O84	O	0.654164	-0.246961	0.000163
C85	C	0.614363	-0.469508	0.000130
C86	C	0.570029	-0.488623	0.000104
C87	C	0.526207	-0.457324	0.000090
C88	C	0.569516	-0.539037	0.000104
C89	C	0.613339	-0.570335	0.000118
C90	C	0.657674	-0.551219	0.000131
C91	C	0.658186	-0.500807	0.000144
C92	C	0.481871	-0.476440	0.000077
C93	C	0.481363	-0.526853	0.000066
C94	C	0.525186	-0.558152	0.000079
C95	C	0.658937	0.057583	0.000183
C96	C	0.712593	0.058126	0.000191
C97	C	0.566346	0.150190	0.000122
C98	C	0.566900	0.203843	0.000102
N99	N	0.548323	0.084092	0.353781
N100	N	0.592746	0.039479	-0.353468
C101	C	0.575463	0.056832	0.421578
C102	C	0.565602	0.066743	0.578738
H103	H	0.437881	0.051243	-0.224362
Br104	Br	0.718691	-0.442449	0.000186
Br105	Br	0.514701	0.117871	0.675900
H106	H	0.623282	0.008800	0.588232
H107	H	0.018790	0.083437	0.348382
H108	H	0.494149	-0.073897	0.000170
Br109	Br	-0.090573	0.086596	0.415547
H110	H	0.605997	0.026155	0.363275
H111	H	0.517786	0.114765	0.412086
Br112	Br	-0.038416	0.034193	-0.415210
H113	H	0.122298	0.040108	-0.348069
H114	H	0.213749	0.041041	-0.348068
Br115	Br	0.717147	-0.593705	0.000160
H116	H	0.654095	-0.096008	0.000238
Br117	Br	0.419165	0.083945	0.291776
H118	H	0.318246	0.078624	0.224626
Br119	Br	-0.159280	0.040844	-0.291489
Br120	Br	0.336945	0.045932	-0.291535
Br121	Br	-0.314721	0.076428	0.291845
Br122	Br	0.060680	0.088149	0.415556
Br123	Br	0.179490	0.089366	0.415543
H124	H	0.446185	-0.450962	0.000063
Br125	Br	-0.278098	0.039645	-0.291470
Br126	Br	-0.195888	0.077649	0.291852
H127	H	0.062498	0.039505	-0.348041
H128	H	0.646921	-0.802533	0.000129
H129	H	0.647854	-0.711067	0.000149
Br130	Br	0.676967	-0.204453	0.000199
Br131	Br	0.462900	-0.790790	0.000084
Br132	Br	0.719899	-0.323639	0.000179
Br133	Br	0.421184	-0.552786	0.000039
H134	H	0.487900	-0.688966	0.000069
H135	H	0.446787	-0.391164	0.000043
H136	H	0.447719	-0.299713	0.000050
H137	H	0.493215	-0.165363	0.000181
H138	H	0.694290	-0.485249	0.000166
