data_functionalizedCrystal
_audit_creation_method	'MofGen! by Chris Wilmer'
_symmetry_space_group_name_H-M	'P1'
_symmetry_Int_Tables_number	1
_symmetry_cell_setting	triclinic
loop_
_symmetry_equiv_pos_as_xyz
  x,y,z
_cell_length_a	14.519731
_cell_length_b	14.519709
_cell_length_c	10.268362
_cell_angle_alpha	90.002293
_cell_angle_beta	90.004709
_cell_angle_gamma	83.684499
loop_
_atom_site_label
_atom_site_type_symbol
_atom_site_fract_x
_atom_site_fract_y
_atom_site_fract_z
O1	O	1.223856	0.120980	0.108306
O2	O	1.473856	0.370980	0.358306
O3	O	1.723856	0.620980	0.608306
O4	O	1.973856	0.870980	0.858306
O5	O	0.955382	0.135196	0.108308
O6	O	1.205382	0.385196	0.358308
O7	O	1.455382	0.635196	0.608308
O8	O	1.705382	0.885196	0.858308
O9	O	1.096737	-0.006150	0.108295
O10	O	1.346737	0.243850	0.358295
O11	O	1.596737	0.493850	0.608295
O12	O	1.846737	0.743850	0.858295
O13	O	1.082501	0.262326	0.108319
O14	O	1.332501	0.512326	0.358319
O15	O	1.582501	0.762326	0.608319
O16	O	1.832501	1.012326	0.858319
O17	O	1.096724	-0.006145	-0.108305
O18	O	1.346724	0.243855	0.141695
O19	O	1.596724	0.493855	0.391695
O20	O	1.846724	0.743855	0.641695
O21	O	0.955368	0.135201	-0.108292
O22	O	1.205368	0.385201	0.141708
O23	O	1.455368	0.635201	0.391708
O24	O	1.705368	0.885201	0.641708
O25	O	1.223842	0.120985	-0.108295
O26	O	1.473842	0.370985	0.141705
O27	O	1.723842	0.620985	0.391705
O28	O	1.973842	0.870985	0.641705
Cu29	Cu	1.089604	0.128093	-0.128071
Cu30	Cu	1.339604	0.378093	0.121929
Cu31	Cu	1.589604	0.628093	0.371929
Cu32	Cu	1.839604	0.878093	0.621929
Cu33	Cu	1.089620	0.128088	0.128084
Cu34	Cu	1.339620	0.378088	0.378084
Cu35	Cu	1.589620	0.628088	0.628084
Cu36	Cu	1.839620	0.878088	0.878084
O37	O	1.082487	0.262331	-0.108282
O38	O	1.332487	0.512331	0.141718
O39	O	1.582487	0.762331	0.391718
O40	O	1.832487	1.012331	0.641718
C41	C	0.921016	0.134532	0.000008
C42	C	1.171016	0.384532	0.250008
C43	C	1.421016	0.634532	0.500008
C44	C	1.671016	0.884532	0.750008
C45	C	0.818635	0.132536	0.000009
C46	C	1.068635	0.382536	0.250009
C47	C	1.318635	0.632536	0.500009
C48	C	1.568635	0.882536	0.750009
C49	C	0.735491	0.130915	0.000014
C50	C	0.985491	0.380915	0.250014
C51	C	1.235491	0.630915	0.500014
C52	C	1.485491	0.880915	0.750014
C53	C	0.631182	0.128888	0.000014
C54	C	0.881182	0.378888	0.250014
C55	C	1.131182	0.628888	0.500014
C56	C	1.381182	0.878888	0.750014
C57	C	0.548043	0.127280	0.000014
C58	C	0.798043	0.377280	0.250014
C59	C	1.048043	0.627280	0.500014
C60	C	1.298043	0.877280	0.750014
C61	C	0.443728	0.125253	0.000017
C62	C	0.693728	0.375253	0.250017
C63	C	0.943728	0.625253	0.500017
C64	C	1.193728	0.875253	0.750017
C65	C	1.096067	-0.040507	-0.000005
C66	C	1.346067	0.209493	0.249995
C67	C	1.596067	0.459493	0.499995
C68	C	1.846067	0.709493	0.749995
C69	C	1.094079	-0.142889	-0.000006
C70	C	1.344079	0.107111	0.249994
C71	C	1.594079	0.357111	0.499994
C72	C	1.844079	0.607111	0.749994
C73	C	1.086759	-0.517785	0.000028
C74	C	1.336759	-0.267785	0.250028
C75	C	1.586759	-0.017785	0.500028
C76	C	1.836759	0.232215	0.750028
C77	C	1.088792	-0.413477	0.000018
C78	C	1.338792	-0.163477	0.250018
C79	C	1.588792	0.086523	0.500018
C80	C	1.838792	0.336523	0.750018
C81	C	1.090419	-0.330340	0.000010
C82	C	1.340419	-0.080340	0.250010
C83	C	1.590419	0.169660	0.500010
C84	C	1.840419	0.419660	0.750010
C85	C	1.092452	-0.226025	0.000002
C86	C	1.342452	0.023975	0.250002
C87	C	1.592452	0.273975	0.500002
C88	C	1.842452	0.523975	0.750002
C89	C	1.258209	0.121649	0.000008
C90	C	1.508209	0.371649	0.250008
C91	C	1.758209	0.621649	0.500008
C92	C	2.008209	0.871649	0.750008
C93	C	1.360589	0.123645	0.000016
C94	C	1.610589	0.373645	0.250016
C95	C	1.860589	0.623645	0.500016
C96	C	2.110589	0.873645	0.750016
C97	C	1.083157	0.296688	0.000022
C98	C	1.333157	0.546688	0.250022
C99	C	1.583157	0.796688	0.500022
C100	C	1.833157	1.046688	0.750022
C101	C	1.085146	0.399070	0.000031
C102	C	1.335146	0.649070	0.250031
C103	C	1.585146	0.899070	0.500031
C104	C	1.835146	1.149070	0.750031
N105	N	1.089600	0.128097	-0.308237
N106	N	1.339600	0.378097	-0.058237
N107	N	1.589600	0.628097	0.191763
N108	N	1.839600	0.878097	0.441763
C109	C	1.089606	0.128097	-0.426079
C110	C	1.339606	0.378097	-0.176079
C111	C	1.589606	0.628097	0.073921
C112	C	1.839606	0.878097	0.323921
C113	C	1.089618	0.128089	-0.573917
C114	C	1.339618	0.378089	-0.323917
C115	C	1.589618	0.628089	-0.073917
C116	C	1.839618	0.878089	0.176083
N117	N	1.089632	0.128077	0.308250
N118	N	1.339632	0.378077	0.558250
N119	N	1.589632	0.628077	0.808250
N120	N	1.839632	0.878077	1.058250
