data_functionalizedCrystal
_audit_creation_method	'MofGen! by Chris Wilmer'
_symmetry_space_group_name_H-M	'P1'
_symmetry_Int_Tables_number	1
_symmetry_cell_setting	triclinic
loop_
_symmetry_equiv_pos_as_xyz
  x,y,z
_cell_length_a	15.944551
_cell_length_b	9.198806
_cell_length_c	10.723024
_cell_angle_alpha	90.005661
_cell_angle_beta	96.016696
_cell_angle_gamma	90.004161
loop_
_atom_site_label
_atom_site_type_symbol
_atom_site_fract_x
_atom_site_fract_y
_atom_site_fract_z
O1	O	-1.115440	0.120737	0.160939
O2	O	-0.782107	0.454070	0.494272
O3	O	-0.448773	0.787404	0.827606
O4	O	-0.871004	0.120773	0.180781
O5	O	-0.537671	0.454106	0.514114
O6	O	-0.204337	0.787439	0.847447
O7	O	-0.998860	0.120749	-0.010788
O8	O	-0.665527	0.454082	0.322546
O9	O	-0.332194	0.787415	0.655879
O10	O	-0.987584	0.120761	0.352507
O11	O	-0.654250	0.454094	0.685841
O12	O	-0.320917	0.787428	1.019174
O13	O	-0.998860	-0.121036	-0.010803
O14	O	-0.665527	0.212297	0.322531
O15	O	-0.332193	0.545630	0.655864
O16	O	-0.871004	-0.121012	0.180766
O17	O	-0.537670	0.212321	0.514099
O18	O	-0.204337	0.545654	0.847432
O19	O	-1.115440	-0.121048	0.160924
O20	O	-0.782106	0.212285	0.494257
O21	O	-0.448773	0.545619	0.827591
Cu22	Cu	-0.993222	-0.143107	0.170843
Cu23	Cu	-0.659888	0.190226	0.504177
Cu24	Cu	-0.326555	0.523560	0.837510
Cu25	Cu	-0.993222	0.142832	0.170861
Cu26	Cu	-0.659889	0.476165	0.504195
Cu27	Cu	-0.326555	0.809498	0.837528
O28	O	-0.987583	-0.121024	0.352492
O29	O	-0.654250	0.212309	0.685825
O30	O	-0.320917	0.545643	1.019159
C31	C	-0.839705	-0.000115	0.179949
C32	C	-0.506372	0.333218	0.513283
C33	C	-0.173038	0.666551	0.846616
C34	C	-0.746445	-0.000102	0.177480
C35	C	-0.413112	0.333232	0.510813
C36	C	-0.079778	0.666565	0.844147
C37	C	-1.146739	-0.000157	0.161755
C38	C	-0.813405	0.333176	0.495089
C39	C	-0.480072	0.666510	0.828422
C40	C	-1.239999	-0.000161	0.164225
C41	C	-0.906665	0.333172	0.497558
C42	C	-0.573332	0.666506	0.830891
N43	N	-0.993227	-0.344221	0.170830
N44	N	-0.659894	-0.010888	0.504163
N45	N	-0.326561	0.322446	0.837497
C46	C	-0.530875	-0.000134	0.052834
C47	C	-0.197541	0.333199	0.386168
C48	C	0.135792	0.666533	0.719501
C49	C	-0.470186	0.119081	0.110723
C50	C	-0.136853	0.452414	0.444056
C51	C	0.196481	0.785747	0.777390
C52	C	-0.575693	-0.000119	0.173012
C53	C	-0.242360	0.333214	0.506346
C54	C	0.090973	0.666548	0.839679
C55	C	-0.470208	-0.119300	0.110737
C56	C	-0.136875	0.214033	0.444070
C57	C	0.196459	0.547366	0.777403
C58	C	-0.410756	-0.000142	0.168688
C59	C	-0.077423	0.333191	0.502022
C60	C	0.255911	0.666525	0.835355
C61	C	-0.516233	0.119194	0.230934
C62	C	-0.182900	0.452528	0.564267
C63	C	0.150433	0.785861	0.897601
C64	C	-0.516262	-0.119294	0.230931
C65	C	-0.182928	0.214039	0.564264
C66	C	0.150405	0.547373	0.897597
C67	C	-0.455591	-0.000050	0.288907
C68	C	-0.122258	0.333283	0.622240
C69	C	0.211076	0.666617	0.955574
C70	C	-0.670710	-0.000104	0.175500
C71	C	-0.337377	0.333229	0.508833
C72	C	-0.004043	0.666562	0.842167
C73	C	-0.315741	-0.000146	0.166210
C74	C	0.017593	0.333187	0.499543
C75	C	0.350926	0.666520	0.832877
C76	C	-0.998039	-0.000142	-0.057284
C77	C	-0.664706	0.333191	0.276049
C78	C	-0.331373	0.666525	0.609382
C79	C	-0.995584	-0.000137	-0.195808
C80	C	-0.662251	0.333197	0.137526
C81	C	-0.328918	0.666530	0.470859
N82	N	-0.993223	0.343946	0.170865
N83	N	-0.659889	0.677279	0.504198
N84	N	-0.326556	1.010612	0.837531
C85	C	-1.047023	0.416133	0.090251
C86	C	-0.713690	0.749466	0.423585
C87	C	-0.380356	1.082799	0.756918
C88	C	-1.047026	0.583545	0.090232
C89	C	-0.713693	0.916878	0.423565
C90	C	-0.380359	1.250211	0.756898
C91	C	-1.067126	-0.000145	-0.271694
C92	C	-0.733793	0.333188	0.061639
C93	C	-0.400459	0.666522	0.394973
C94	C	-1.064590	-0.000139	-0.414865
C95	C	-0.731257	0.333194	-0.081532
C96	C	-0.397923	0.666527	0.251801
C97	C	-0.988404	-0.000130	0.398989
C98	C	-0.655071	0.333203	0.732322
C99	C	-0.321737	0.666537	1.065656
C100	C	-0.990859	-0.000126	0.537512
C101	C	-0.657526	0.333207	0.870846
C102	C	-0.324193	0.666541	1.204179
H103	H	-0.563637	0.000010	-0.046904
H104	H	-0.230303	0.333343	0.286430
H105	H	0.103030	0.666677	0.619763
F106	F	-1.149640	-0.000149	-0.218079
F107	F	-0.816307	0.333185	0.115254
F108	F	-0.482974	0.666518	0.448588
H109	H	-1.093085	0.353998	0.021253
H110	H	-0.759752	0.687331	0.354586
H111	H	-0.426419	1.020664	0.687919
H112	H	-0.947161	0.593711	0.239846
H113	H	-0.613828	0.927044	0.573179
H114	H	-0.280495	1.260377	0.906512
F115	F	-1.144645	-0.000159	-0.500091
F116	F	-0.811312	0.333174	-0.166758
F117	F	-0.477979	0.666507	0.166576
H118	H	-0.947167	0.406083	0.239872
H119	H	-0.613834	0.739416	0.573205
H120	H	-0.280501	1.072749	0.906538
F121	F	-0.443522	0.250816	0.044296
F122	F	-0.110188	0.584149	0.377630
F123	F	0.223145	0.917483	0.710963
H124	H	-0.929611	-0.000129	-0.397289
H125	H	-0.596277	0.333205	-0.063956
H126	H	-0.262944	0.666538	0.269378
F127	F	-1.107229	0.664681	0.000013
F128	F	-0.773895	0.998015	0.333346
F129	F	-0.440562	1.331348	0.666680
H130	H	-0.536512	0.220091	0.281733
H131	H	-0.203179	0.553424	0.615066
H132	H	0.130155	0.886758	0.948399
F133	F	-0.412994	0.000038	0.419404
F134	F	-0.079661	0.333371	0.752737
F135	F	0.253672	0.666704	1.086071
F136	F	-0.542957	-0.251033	0.297307
F137	F	-0.209624	0.082301	0.630641
F138	F	0.123710	0.415634	0.963974
F139	F	-0.443575	-0.251034	0.044264
F140	F	-0.110241	0.082300	0.377597
F141	F	0.223092	0.415633	0.710930
F142	F	-0.913070	-0.000111	-0.249423
F143	F	-0.579736	0.333222	0.083911
F144	F	-0.246403	0.666555	0.417244
