data_functionalizedCrystal
_audit_creation_method	'MofGen! by Chris Wilmer'
_symmetry_space_group_name_H-M	'P1'
_symmetry_Int_Tables_number	1
_symmetry_cell_setting	triclinic
loop_
_symmetry_equiv_pos_as_xyz
  x,y,z
_cell_length_a	14.519709
_cell_length_b	10.489741
_cell_length_c	12.996460
_cell_angle_alpha	89.994152
_cell_angle_beta	90.000034
_cell_angle_gamma	84.109659
loop_
_atom_site_label
_atom_site_type_symbol
_atom_site_fract_x
_atom_site_fract_y
_atom_site_fract_z
O1	O	1.224780	0.167204	-0.085432
O2	O	1.724780	0.667204	0.414568
O3	O	0.956410	0.186894	-0.085464
O4	O	1.456410	0.686894	0.414536
O5	O	1.096702	-0.008613	-0.085441
O6	O	1.596702	0.491387	0.414559
O7	O	1.084488	0.362710	-0.085455
O8	O	1.584488	0.862710	0.414545
O9	O	1.096687	-0.008624	0.085693
O10	O	1.596687	0.491376	0.585693
O11	O	0.956395	0.186883	0.085670
O12	O	1.456395	0.686883	0.585670
O13	O	1.224765	0.167193	0.085702
O14	O	1.724765	0.667193	0.585702
Cu15	Cu	1.090579	0.177037	0.101312
Cu16	Cu	1.590579	0.677037	0.601312
Cu17	Cu	1.090596	0.177050	-0.101074
Cu18	Cu	1.590596	0.677050	0.398926
O19	O	1.084474	0.362699	0.085679
O20	O	1.584474	0.862699	0.585679
C21	C	0.922038	0.185971	0.000099
C22	C	1.422038	0.685971	0.500099
C23	C	0.819642	0.183221	0.000088
C24	C	1.319642	0.683221	0.500088
C25	C	0.444691	0.173098	0.000135
C26	C	0.944691	0.673098	0.500135
C27	C	0.549014	0.175909	0.000121
C28	C	1.049014	0.675909	0.500121
C29	C	0.632163	0.178159	0.000110
C30	C	1.132163	0.678159	0.500110
C31	C	0.736493	0.180971	0.000099
C32	C	1.236493	0.680971	0.500099
C33	C	1.095772	-0.056140	0.000125
C34	C	1.595772	0.443860	0.500125
C35	C	1.093012	-0.197741	0.000123
C36	C	1.593012	0.302259	0.500123
C37	C	1.003749	-0.264951	0.000105
C38	C	1.503749	0.235049	0.500105
C39	C	1.045909	-0.357518	0.084488
C40	C	1.545909	0.142482	0.584488
C41	C	1.045944	-0.357482	-0.084237
C42	C	1.545944	0.142518	0.415763
C43	C	1.135209	-0.288443	0.084575
C44	C	1.635209	0.211557	0.584575
C45	C	1.135232	-0.288398	-0.084225
C46	C	1.635232	0.211602	0.415775
C47	C	1.177457	-0.380938	0.000178
C48	C	1.677457	0.119062	0.500178
C49	C	1.259137	0.168116	0.000136
C50	C	1.759137	0.668116	0.500136
C51	C	1.361533	0.170866	0.000142
C52	C	1.861533	0.670866	0.500142
C53	C	1.085403	0.410227	0.000111
C54	C	1.585403	0.910227	0.500111
C55	C	1.088163	0.551828	0.000106
C56	C	1.588163	1.051828	0.500106
N57	N	1.090573	0.177027	0.243659
N58	N	1.590573	0.677027	0.743659
N59	N	1.090609	0.177049	-0.243421
N60	N	1.590609	0.677049	0.256579
C61	C	1.090595	0.177051	0.663473
C62	C	1.590595	0.677051	1.163473
C63	C	1.090586	0.177049	0.546668
C64	C	1.590586	0.677049	1.046668
C65	C	1.090585	0.177040	0.453570
C66	C	1.590585	0.677040	0.953570
C67	C	1.090575	0.177036	0.336757
C68	C	1.590575	0.677036	0.836757
H69	H	0.930357	-0.214534	0.000181
H70	H	1.430357	0.285466	0.500181
O71	O	1.180368	-0.252235	0.169706
O72	O	1.680368	0.247765	0.669706
C73	C	1.271644	-0.312866	0.169925
C74	C	1.771644	0.187134	0.669925
H75	H	1.293011	-0.341035	0.087961
H76	H	1.793011	0.158965	0.587961
H77	H	1.320544	-0.244232	0.201852
H78	H	1.820544	0.255768	0.701852
H79	H	1.275186	-0.402356	0.220139
H80	H	1.775186	0.097644	0.720139
H81	H	1.172975	-0.257742	-0.155560
H82	H	1.672975	0.242258	0.344440
O83	O	1.000996	-0.394151	0.169658
O84	O	1.500996	0.105849	0.669658
C85	C	1.061547	-0.478943	0.228483
C86	C	1.561547	0.021057	0.728483
H87	H	1.136231	-0.463258	0.209640
H88	H	1.636231	0.036742	0.709640
H89	H	1.048043	-0.460149	0.313825
H90	H	1.548043	0.039851	0.813825
H91	H	1.049330	-0.581985	0.209555
H92	H	1.549330	-0.081985	0.709555
O93	O	1.265152	-0.440605	0.000296
O94	O	1.765152	0.059395	0.500296
C95	C	1.328972	-0.347967	0.001166
C96	C	1.828972	0.152033	0.501166
H97	H	1.294255	-0.254303	0.033964
H98	H	1.794255	0.245697	0.533964
H99	H	1.391022	-0.383376	0.050953
H100	H	1.891022	0.116624	0.550953
H101	H	1.353246	-0.331314	-0.080712
H102	H	1.853246	0.168686	0.419288
O103	O	1.000873	-0.394179	-0.169269
O104	O	1.500873	0.105821	0.330731
C105	C	0.999642	-0.528402	-0.168591
C106	C	1.499642	-0.028402	0.331409
H107	H	1.008539	-0.565418	-0.086348
H108	H	1.508539	-0.065418	0.413652
H109	H	0.930752	-0.553897	-0.200561
H110	H	1.430752	-0.053897	0.299439
H111	H	1.058639	-0.574427	-0.218317
H112	H	1.558639	-0.074427	0.281683
