data_functionalizedCrystal
_audit_creation_method	'MofGen! by Chris Wilmer'
_symmetry_space_group_name_H-M	'P1'
_symmetry_Int_Tables_number	1
_symmetry_cell_setting	triclinic
loop_
_symmetry_equiv_pos_as_xyz
  x,y,z
_cell_length_a	27.732048
_cell_length_b	27.732048
_cell_length_c	26.210047
_cell_angle_alpha	90.000479
_cell_angle_beta	90.003465
_cell_angle_gamma	82.642655
loop_
_atom_site_label
_atom_site_type_symbol
_atom_site_fract_x
_atom_site_fract_y
_atom_site_fract_z
O1	O	0.640931	0.057510	0.042369
O2	O	0.500138	0.066256	0.042385
O3	O	0.574907	-0.008514	0.042367
O4	O	0.566162	0.132279	0.042387
O5	O	0.574893	-0.008502	-0.042491
O6	O	0.500123	0.066267	-0.042473
O7	O	0.640917	0.057522	-0.042489
Cu8	Cu	0.570519	0.061896	-0.050229
Cu9	Cu	0.570536	0.061882	0.050125
O10	O	0.566147	0.132291	-0.042471
C11	C	0.482124	0.066078	-0.000042
C12	C	0.428469	0.065525	-0.000036
C13	C	0.574716	-0.026515	-0.000064
C14	C	0.574164	-0.080170	-0.000068
C15	C	0.089654	0.106229	-0.000053
C16	C	-0.112006	0.104178	-0.000057
O17	O	-0.143262	0.141398	-0.000074
N18	N	-0.131130	0.059843	-0.000063
C19	C	-0.099835	0.016017	-0.000071
O20	O	-0.120728	-0.021740	-0.000081
C21	C	0.101824	0.018068	-0.000069
C22	C	0.120944	0.062407	-0.000059
C23	C	0.108775	0.150563	-0.000043
C24	C	0.159187	0.151076	-0.000039
C25	C	0.190477	0.107253	-0.000045
C26	C	0.171356	0.062919	-0.000055
C27	C	0.133117	-0.025757	-0.000081
C28	C	0.183535	-0.025240	-0.000082
C29	C	0.202655	0.019098	-0.000071
C30	C	0.253059	0.019609	-0.000057
N31	N	0.272183	0.063944	-0.000051
C32	C	0.240892	0.107766	-0.000045
C33	C	-0.205709	0.014943	-0.000070
C34	C	-0.256124	0.014430	-0.000070
C35	C	-0.268291	0.102591	-0.000057
C36	C	-0.217876	0.103104	-0.000054
C37	C	-0.186585	0.059278	-0.000065
C38	C	0.346761	0.108839	-0.000036
C39	C	0.397178	0.109347	-0.000030
C40	C	0.409341	0.021186	-0.000045
C41	C	0.358929	0.020678	-0.000049
C42	C	0.327639	0.064508	-0.000046
O43	O	0.284343	-0.017592	-0.000046
O44	O	0.261794	0.145518	-0.000047
C45	C	0.039242	0.105716	-0.000057
C46	C	0.020120	0.061382	-0.000067
C47	C	0.051411	0.017560	-0.000073
C48	C	-0.030294	0.060869	-0.000066
C49	C	-0.061585	0.104691	-0.000060
C50	C	-0.042461	0.149026	-0.000054
C51	C	0.007951	0.149539	-0.000050
C52	C	0.032287	-0.026775	-0.000078
C53	C	-0.018125	-0.027284	-0.000082
C54	C	-0.049416	0.016538	-0.000076
C55	C	0.614867	-0.418985	-0.000046
C56	C	0.612816	-0.620645	-0.000039
O57	O	0.650037	-0.651900	-0.000021
N58	N	0.568481	-0.639768	-0.000034
C59	C	0.524656	-0.608474	-0.000028
O60	O	0.486899	-0.629367	-0.000019
C61	C	0.526707	-0.406815	-0.000032
C62	C	0.571045	-0.387694	-0.000042
C63	C	0.659202	-0.399864	-0.000056
C64	C	0.659714	-0.349452	-0.000060
C65	C	0.615892	-0.318161	-0.000056
C66	C	0.571557	-0.337282	-0.000046
C67	C	0.482882	-0.375521	-0.000022
C68	C	0.483399	-0.325104	-0.000022
C69	C	0.527737	-0.305983	-0.000032
C70	C	0.528247	-0.255580	-0.000046
N71	N	0.572583	-0.236456	-0.000051
C72	C	0.616405	-0.267747	-0.000056
C73	C	0.523582	-0.714348	-0.000027
C74	C	0.523069	-0.764762	-0.000027
C75	C	0.611230	-0.776930	-0.000037
C76	C	0.611742	-0.726514	-0.000041
C77	C	0.567917	-0.695224	-0.000032
C78	C	0.617477	-0.161878	-0.000066
C79	C	0.617986	-0.111461	-0.000073
C80	C	0.529825	-0.099298	-0.000060
C81	C	0.529316	-0.149710	-0.000056
C82	C	0.573147	-0.180999	-0.000057
O83	O	0.491047	-0.224296	-0.000059
O84	O	0.654156	-0.246844	-0.000054
C85	C	0.614355	-0.469397	-0.000042
C86	C	0.570021	-0.488518	-0.000033
C87	C	0.526198	-0.457228	-0.000028
C88	C	0.569508	-0.538933	-0.000033
C89	C	0.613330	-0.570223	-0.000037
C90	C	0.657665	-0.551100	-0.000042
C91	C	0.658177	-0.500688	-0.000046
C92	C	0.481863	-0.476351	-0.000023
C93	C	0.481355	-0.526764	-0.000019
C94	C	0.525177	-0.558054	-0.000024
C95	C	0.658931	0.057699	-0.000061
C96	C	0.712586	0.058252	-0.000064
C97	C	0.566338	0.150292	-0.000040
C98	C	0.566891	0.203947	-0.000032
N99	N	0.570510	0.061905	-0.120813
C100	C	0.603640	0.028781	-0.473336
C101	C	0.603651	0.028774	-0.686994
O102	O	0.631801	0.000614	-0.714623
N103	N	0.570538	0.061871	-0.713707
C104	C	0.537419	0.094970	-0.687003
O105	O	0.509251	0.123117	-0.714626
C106	C	0.537406	0.094974	-0.473345
C107	C	0.570524	0.061878	-0.446635
C108	C	0.636755	-0.004312	-0.446625
C109	C	0.636754	-0.004308	-0.393214
C110	C	0.603638	0.028789	-0.366513
C111	C	0.570523	0.061882	-0.393223
C112	C	0.504284	0.128070	-0.446641
C113	C	0.504283	0.128067	-0.393223
C114	C	0.537401	0.094971	-0.366513
C115	C	0.537405	0.094983	-0.313111
N116	N	0.570518	0.061886	-0.286397
C117	C	0.603634	0.028789	-0.313098
C118	C	0.537428	0.094966	-0.799176
C119	C	0.537432	0.094965	-0.852590
C120	C	0.603664	0.028769	-0.852578
C121	C	0.603662	0.028773	-0.799163
C122	C	0.570541	0.061869	-0.772463
C123	C	0.603629	0.028800	-0.200931
C124	C	0.603626	0.028808	-0.147514
C125	C	0.537393	0.095002	-0.147531
C126	C	0.537397	0.094996	-0.200943
C127	C	0.570517	0.061891	-0.227641
O128	O	0.509267	0.123125	-0.285449
O129	O	0.631790	0.000639	-0.285466
C130	C	0.603641	0.028777	-0.526747
C131	C	0.570527	0.061871	-0.553457
C132	C	0.537410	0.094968	-0.526756
C133	C	0.570530	0.061870	-0.606872
C134	C	0.603646	0.028773	-0.633573
C135	C	0.636759	-0.004323	-0.606859
C136	C	0.636758	-0.004320	-0.553448
C137	C	0.504298	0.128064	-0.553470
C138	C	0.504302	0.128058	-0.606881
C139	C	0.537418	0.094961	-0.633582
N140	N	0.570548	0.061868	0.120709
H141	H	0.412743	0.145454	-0.000021
C142	C	0.640090	-0.007640	-0.881956
C143	C	0.676514	-0.044053	-0.852583
C144	C	0.712935	-0.080463	-0.881964
C145	C	0.712931	-0.080461	-0.940718
C146	C	0.676505	-0.044047	-0.970094
C147	C	0.640085	-0.007637	-0.940713
H148	H	0.676518	-0.044056	-0.809087
H149	H	0.739899	-0.107419	-0.860218
H150	H	0.739892	-0.107414	-0.962467
H151	H	0.676502	-0.044044	-1.013589
H152	H	0.613120	0.019320	-0.962459
C153	C	0.480543	-0.170743	-0.000043
C154	C	0.468077	-0.203717	0.044034
C155	C	0.419303	-0.224744	0.044055
C156	C	0.382994	-0.212795	-0.000000
C157	C	0.395459	-0.179819	-0.044080
C158	C	0.444234	-0.158793	-0.044102
H159	H	0.494956	-0.212564	0.076649
H160	H	0.410075	-0.249155	0.076686
H161	H	0.346888	-0.228360	0.000016
H162	H	0.368581	-0.170973	-0.076695
H163	H	0.453461	-0.134381	-0.076733
H164	H	-0.180236	-0.020747	-0.000079
C165	C	0.665690	-0.196291	-0.000071
C166	C	0.702113	-0.194374	-0.044145
C167	C	0.750325	-0.228788	-0.044154
C168	C	0.762114	-0.265118	-0.000091
C169	C	0.725690	-0.267036	0.043986
C170	C	0.677478	-0.232622	0.043996
H171	H	0.693387	-0.167479	-0.076766
H172	H	0.777288	-0.227367	-0.076783
H173	H	0.797803	-0.290592	-0.000098
H174	H	0.734416	-0.293930	0.076608
H175	H	0.650515	-0.234042	0.076625
C176	C	0.467851	0.164472	-0.476015
C177	C	0.412817	0.164030	-0.468670
C178	C	0.376380	0.200434	-0.498043
C179	C	0.394978	0.237279	-0.534763
C180	C	0.450015	0.237723	-0.542110
C181	C	0.486452	0.201319	-0.512736
H182	H	0.399047	0.136754	-0.441486
H183	H	0.335638	0.200105	-0.492604
H184	H	0.368005	0.264227	-0.556507
H185	H	0.463785	0.264999	-0.569294
H186	H	0.527194	0.201648	-0.518175
C187	C	0.028978	0.198312	-0.000044
C188	C	0.017017	0.234610	-0.044105
C189	C	0.038040	0.283386	-0.044099
C190	C	0.071023	0.295866	-0.000033
C191	C	0.082986	0.259568	0.044032
C192	C	0.061963	0.210791	0.044026
H193	H	-0.007401	0.225372	-0.076728
H194	H	0.029184	0.310257	-0.076719
H195	H	0.086585	0.331973	-0.000029
H196	H	0.107404	0.268805	0.076655
H197	H	0.070819	0.183921	0.076646
C198	C	0.066702	-0.074984	-0.000081
C199	C	0.064785	-0.111418	-0.044147
C200	C	0.099197	-0.159630	-0.044145
C201	C	0.135526	-0.171409	-0.000077
C202	C	0.137445	-0.134975	0.043992
C203	C	0.103033	-0.086762	0.043990
H204	H	0.037890	-0.102699	-0.076772
H205	H	0.097777	-0.186601	-0.076769
H206	H	0.161001	-0.207099	-0.000076
H207	H	0.164339	-0.143694	0.076617
H208	H	0.104453	-0.059791	0.076614
H209	H	0.477311	0.155018	-0.371487
C210	C	0.337890	-0.028092	-0.000059
C211	C	0.349845	-0.064377	-0.044131
C212	C	0.328810	-0.113148	-0.044148
C213	C	0.295821	-0.125633	-0.000094
C214	C	0.283865	-0.089347	0.043982
C215	C	0.304900	-0.040576	0.043999
H216	H	0.374267	-0.055136	-0.076746
H217	H	0.337661	-0.140009	-0.076776
H218	H	0.280250	-0.161735	-0.000106
H219	H	0.259443	-0.098588	0.076597
H220	H	0.296049	-0.013715	0.076627
C221	C	-0.076887	0.197232	-0.000049
C222	C	-0.113222	0.208993	0.044013
C223	C	-0.147650	0.257195	0.044015
C224	C	-0.145744	0.293636	-0.000045
C225	C	-0.109408	0.281876	-0.044111
C226	C	-0.074980	0.233674	-0.044113
H227	H	-0.114634	0.182016	0.076632
H228	H	-0.174549	0.265900	0.076635
H229	H	-0.171231	0.329318	-0.000044
H230	H	-0.107996	0.308852	-0.076730
H231	H	-0.048082	0.224968	-0.076733
H232	H	0.209009	-0.060929	-0.000091
C233	C	0.501005	0.131375	-0.881968
C234	C	0.501003	0.131380	-0.940722
C235	C	0.464573	0.167788	-0.970098
C236	C	0.428146	0.204191	-0.940721
C237	C	0.428147	0.204187	-0.881964
C238	C	0.464577	0.167778	-0.852588
H239	H	0.527970	0.104432	-0.962472
H240	H	0.464572	0.167791	-1.013594
H241	H	0.401178	0.231143	-0.962467
H242	H	0.401180	0.231135	-0.860215
H243	H	0.464577	0.167775	-0.809092
C244	C	-0.039153	-0.076061	-0.000093
C245	C	-0.027196	-0.112344	-0.044166
C246	C	-0.048222	-0.161119	-0.044182
C247	C	-0.081205	-0.173610	-0.000125
C248	C	-0.093164	-0.137326	0.043952
C249	C	-0.072138	-0.088551	0.043968
H250	H	-0.002778	-0.103098	-0.076783
H251	H	-0.039369	-0.187979	-0.076811
H252	H	-0.096770	-0.209717	-0.000137
H253	H	-0.117582	-0.146573	0.076569
H254	H	-0.080991	-0.061692	0.076596
H255	H	0.117558	-0.061861	-0.000090
H256	H	0.083302	0.186251	-0.000039
C257	C	0.673179	-0.040718	-0.363835
C258	C	0.710007	-0.022092	-0.327110
C259	C	0.746432	-0.058506	-0.297735
C260	C	0.746030	-0.113545	-0.305084
C261	C	0.709201	-0.132175	-0.341811
C262	C	0.672776	-0.095761	-0.371186
H263	H	0.710306	0.018654	-0.321668
H264	H	0.773695	-0.044715	-0.270547
H265	H	0.772994	-0.140501	-0.283339
H266	H	0.708902	-0.172921	-0.347253
H267	H	0.645512	-0.109552	-0.398374
C268	C	0.432579	-0.547794	-0.000011
C269	C	0.420111	-0.580774	0.044060
C270	C	0.371337	-0.601803	0.044074
C271	C	0.335032	-0.589851	0.000016
C272	C	0.347499	-0.556869	-0.044058
C273	C	0.396273	-0.535840	-0.044071
H274	H	0.446987	-0.589623	0.076677
H275	H	0.362109	-0.626219	0.076700
H276	H	0.298927	-0.605418	0.000026
H277	H	0.320623	-0.548020	-0.076675
H278	H	0.405502	-0.511425	-0.076698
C279	C	0.640089	-0.007636	-0.769784
C280	C	0.639692	-0.062676	-0.777135
C281	C	0.676120	-0.099087	-0.747759
C282	C	0.712945	-0.080458	-0.711033
C283	C	0.713343	-0.025414	-0.703681
C284	C	0.676915	0.010996	-0.733057
H285	H	0.612431	-0.076469	-0.804323
H286	H	0.675825	-0.139834	-0.753202
H287	H	0.739911	-0.107411	-0.689288
H288	H	0.740604	-0.011621	-0.676493
H289	H	0.677210	0.051743	-0.727614
H290	H	-0.202311	0.139207	-0.000049
H291	H	0.663722	-0.031266	-0.468360
C292	C	0.707412	-0.434278	-0.000063
C293	C	0.743834	-0.432355	-0.044137
C294	C	0.792048	-0.466765	-0.044149
C295	C	0.803840	-0.503099	-0.000089
C296	C	0.767417	-0.505023	0.043988
C297	C	0.719203	-0.470613	0.044000
H298	H	0.735106	-0.405458	-0.076756
H299	H	0.819011	-0.465341	-0.076778
H300	H	0.839530	-0.528571	-0.000098
H301	H	0.776145	-0.531920	0.076607
H302	H	0.692240	-0.472037	0.076629
C303	C	0.660514	-0.705484	-0.000047
C304	C	0.696801	-0.717438	-0.044116
C305	C	0.745575	-0.696411	-0.044121
C306	C	0.758062	-0.663429	-0.000057
C307	C	0.721775	-0.651473	0.044015
C308	C	0.673001	-0.672500	0.044020
H309	H	0.687558	-0.741855	-0.076738
H310	H	0.772438	-0.705262	-0.076746
H311	H	0.794168	-0.647863	-0.000061
H312	H	0.731018	-0.627057	0.076637
H313	H	0.646138	-0.663650	0.076645
C314	C	0.434107	-0.396542	-0.000008
C315	C	0.397800	-0.384580	-0.044063
C316	C	0.349021	-0.405597	-0.044048
C317	C	0.336547	-0.438576	0.000022
C318	C	0.372854	-0.450539	0.044080
C319	C	0.421634	-0.429522	0.044065
H320	H	0.407033	-0.360165	-0.076689
H321	H	0.322144	-0.396740	-0.076663
H322	H	0.300438	-0.454134	0.000033
H323	H	0.363621	-0.474954	0.076706
H324	H	0.448511	-0.438379	0.076680
H325	H	0.695819	-0.333889	-0.000066
H326	H	0.477330	0.155015	-0.531734
C327	C	0.500970	0.131404	-0.230325
C328	C	0.445935	0.130971	-0.222979
C329	C	0.409503	0.167376	-0.252356
C330	C	0.428106	0.204215	-0.289080
C331	C	0.483145	0.204649	-0.296428
C332	C	0.519577	0.168244	-0.267051
H333	H	0.432160	0.103699	-0.195792
H334	H	0.368760	0.167054	-0.246917
H335	H	0.401137	0.231164	-0.310827
H336	H	0.496919	0.231920	-0.323615
H337	H	0.560320	0.168566	-0.272491
H338	H	0.434827	-0.014492	-0.000048
H339	H	0.510456	0.121918	-0.777440
H340	H	0.646911	-0.802415	-0.000041
H341	H	0.486964	-0.780325	-0.000028
H342	H	0.654093	-0.095896	-0.000082
C343	C	0.673185	-0.040728	-0.524070
C344	C	0.672787	-0.095769	-0.531419
C345	C	0.709216	-0.132180	-0.502046
C346	C	0.746043	-0.113551	-0.465323
C347	C	0.746444	-0.058508	-0.457973
C348	C	0.710015	-0.022096	-0.487346
H349	H	0.645523	-0.109561	-0.558605
H350	H	0.708919	-0.172927	-0.507487
H351	H	0.773010	-0.140505	-0.443579
H352	H	0.773707	-0.044715	-0.430787
H353	H	0.710311	0.018650	-0.481905
H354	H	0.446177	-0.450879	-0.000018
H355	H	0.494146	-0.073812	-0.000058
H356	H	0.663725	-0.031271	-0.628608
C357	C	0.312348	0.157051	-0.000029
C358	C	0.314268	0.193475	0.044045
C359	C	0.279854	0.241687	0.044057
C360	C	0.243521	0.253475	-0.000006
C361	C	0.241600	0.217050	-0.044084
C362	C	0.276013	0.168838	-0.044095
H363	H	0.341165	0.184750	0.076666
H364	H	0.281277	0.268651	0.076687
H365	H	0.218046	0.289165	0.000003
H366	H	0.214702	0.225775	-0.076704
H367	H	0.274590	0.141874	-0.076725
H368	H	0.174750	0.187180	-0.000030
H369	H	0.510432	0.121951	-0.125783
C370	C	0.467869	0.164466	-0.636260
C371	C	0.412834	0.164027	-0.628914
C372	C	0.376400	0.200430	-0.658290
C373	C	0.395000	0.237272	-0.695013
C374	C	0.450037	0.237712	-0.702360
C375	C	0.486472	0.201309	-0.672984
H376	H	0.399063	0.136754	-0.601728
H377	H	0.335657	0.200104	-0.652851
H378	H	0.368028	0.264220	-0.716759
H379	H	0.463809	0.264986	-0.729546
H380	H	0.527215	0.201635	-0.678423
H381	H	-0.293777	0.138273	-0.000053
H382	H	-0.271687	-0.021674	-0.000070
H383	H	0.487892	-0.688875	-0.000020
H384	H	0.447710	-0.299629	-0.000014
H385	H	0.694282	-0.485125	-0.000054
H386	H	0.693347	-0.576585	-0.000048
H387	H	0.630598	0.001842	-0.222662
H388	H	0.630597	0.001858	-0.125768
