data_functionalizedCrystal
_audit_creation_method	'MofGen! by Chris Wilmer'
_symmetry_space_group_name_H-M	'P1'
_symmetry_Int_Tables_number	1
_symmetry_cell_setting	triclinic
loop_
_symmetry_equiv_pos_as_xyz
  x,y,z
_cell_length_a	10.540539
_cell_length_b	10.540539
_cell_length_c	9.016244
_cell_angle_alpha	89.999933
_cell_angle_beta	89.994699
_cell_angle_gamma	84.525492
loop_
_atom_site_label
_atom_site_type_symbol
_atom_site_fract_x
_atom_site_fract_y
_atom_site_fract_z
O1	O	1.685893	0.178895	-0.123263
O2	O	1.316480	0.195751	-0.123280
O3	O	1.509614	0.002617	-0.123269
O4	O	1.492759	0.372030	-0.123274
O5	O	1.509586	0.002621	0.123411
O6	O	1.316452	0.195755	0.123400
O7	O	1.685865	0.178900	0.123418
Cu8	Cu	1.501156	0.187328	0.145933
Cu9	Cu	1.501189	0.187323	-0.145795
O10	O	1.492730	0.372034	0.123407
C11	C	1.269163	0.194489	0.000058
C12	C	1.128215	0.190707	0.000051
C13	C	0.944788	0.045790	0.000628
C14	C	1.091406	0.049624	0.000057
C15	C	1.066558	0.258600	-0.140811
C16	C	0.920014	0.253785	-0.140914
C17	C	0.919493	0.256660	0.139608
C18	C	1.066475	0.257960	0.141455
C19	C	1.508336	-0.044684	0.000068
C20	C	1.504554	-0.185632	0.000060
C21	C	1.359637	-0.369059	-0.000500
C22	C	1.363471	-0.222441	0.000055
C23	C	1.572434	-0.247287	0.140930
C24	C	1.567619	-0.393832	0.141049
C25	C	1.570520	-0.394355	-0.139473
C26	C	1.571820	-0.247373	-0.141336
C27	C	1.733182	0.180161	0.000077
C28	C	1.874130	0.183943	0.000074
C29	C	1.494008	0.419335	0.000066
C30	C	1.497790	0.560283	0.000064
N31	N	1.501141	0.187331	0.351119
N32	N	1.501213	0.187310	-0.350982
C33	C	1.397510	0.290298	0.586146
C34	C	1.397739	0.290684	0.414255
C35	C	1.633864	0.217464	0.413464
C36	C	1.633298	0.218193	0.585409
C37	C	1.473367	0.053892	0.585663
C38	C	1.470322	0.054757	0.413709
H39	H	1.109159	0.211434	-0.245643
Cl40	Cl	1.157187	-0.032858	0.155954
Cl41	Cl	0.876472	0.176305	-0.303478
H42	H	0.916191	-0.009944	0.101649
H43	H	1.378630	0.025213	0.629106
Cl44	Cl	1.672310	0.366048	0.346961
Cl45	Cl	0.898164	-0.039911	-0.154458
Cl46	Cl	1.495781	-0.183545	-0.302258
H47	H	1.133163	-0.004177	-0.101092
Cl48	Cl	1.727850	-0.467270	-0.140934
Cl49	Cl	0.845949	0.410434	-0.150791
Cl50	Cl	1.101107	0.418550	-0.148944
H51	H	1.372684	0.031916	0.372962
Cl52	Cl	0.846580	0.413990	0.141078
H53	H	1.712941	0.146204	0.626995
Cl54	Cl	1.730631	-0.209973	-0.154473
Cl55	Cl	1.129540	0.181256	0.302346
Cl56	Cl	1.280388	-0.157960	0.156212
Cl57	Cl	1.273681	-0.416237	0.154127
Cl58	Cl	1.103864	0.416774	0.154582
Cl59	Cl	1.281005	-0.156661	-0.155851
Cl60	Cl	1.724266	-0.467897	0.150944
H61	H	0.887935	0.211004	0.246381
Cl62	Cl	1.273602	-0.413214	-0.156470
Cl63	Cl	1.579223	-0.069256	0.347387
H64	H	1.548979	-0.022762	0.626319
Cl65	Cl	1.732396	-0.212778	0.149034
Cl66	Cl	1.490122	-0.437372	0.303615
Cl67	Cl	1.499599	-0.181522	0.302779
Cl68	Cl	1.670896	0.368475	0.647310
H69	H	1.712919	0.144501	0.372564
H70	H	1.299123	0.272553	0.372106
H71	H	1.524871	-0.425910	-0.246244
Cl72	Cl	1.424799	0.442265	0.652798
Cl73	Cl	1.244765	0.262720	0.650011
H74	H	1.415639	0.389668	0.373108
