data_functionalizedCrystal
_audit_creation_method	'MofGen! by Chris Wilmer'
_symmetry_space_group_name_H-M	'P1'
_symmetry_Int_Tables_number	1
_symmetry_cell_setting	triclinic
loop_
_symmetry_equiv_pos_as_xyz
  x,y,z
_cell_length_a	15.944551
_cell_length_b	17.038272
_cell_length_c	14.421503
_cell_angle_alpha	90.004327
_cell_angle_beta	89.996859
_cell_angle_gamma	87.305147
loop_
_atom_site_label
_atom_site_type_symbol
_atom_site_fract_x
_atom_site_fract_y
_atom_site_fract_z
O1	O	1.121728	0.100827	-0.077015
O2	O	1.455061	0.434160	0.256318
O3	O	1.788395	0.767493	0.589651
O4	O	0.878066	0.113259	-0.077039
O5	O	1.211399	0.446592	0.256295
O6	O	1.544733	0.779926	0.589628
O7	O	0.998449	-0.006773	-0.077020
O8	O	1.331782	0.326560	0.256314
O9	O	1.665116	0.659894	0.589647
O10	O	1.001345	0.220859	-0.077034
O11	O	1.334679	0.554192	0.256299
O12	O	1.668012	0.887525	0.589633
O13	O	0.998429	-0.006755	0.077204
O14	O	1.331762	0.326578	0.410537
O15	O	1.665096	0.659912	0.743870
O16	O	0.878046	0.113277	0.077185
O17	O	1.211379	0.446610	0.410518
O18	O	1.544713	0.779944	0.743852
O19	O	1.121708	0.100845	0.077208
O20	O	1.455041	0.434178	0.410541
O21	O	1.788375	0.767511	0.743875
Cu22	Cu	0.999875	0.107062	0.091278
Cu23	Cu	1.333209	0.440396	0.424612
Cu24	Cu	1.666542	0.773729	0.757945
Cu25	Cu	0.999899	0.107041	-0.091109
Cu26	Cu	1.333232	0.440375	0.242225
Cu27	Cu	1.666566	0.773708	0.575558
O28	O	1.001325	0.220877	0.077189
O29	O	1.334659	0.554210	0.410523
O30	O	1.667992	0.887543	0.743856
C31	C	0.846725	0.112752	0.000070
C32	C	1.180059	0.446085	0.333404
C33	C	1.513392	0.779419	0.666737
C34	C	0.753369	0.111205	0.000062
C35	C	1.086702	0.444538	0.333395
C36	C	1.420035	0.777871	0.666728
C37	C	0.532936	0.033105	0.000085
C38	C	0.866269	0.366438	0.333418
C39	C	1.199602	0.699771	0.666751
C40	C	0.474515	0.069363	-0.075958
C41	C	0.807848	0.402696	0.257375
C42	C	1.141182	0.736030	0.590709
C43	C	0.582443	0.108405	0.000073
C44	C	0.915776	0.441739	0.333406
C45	C	1.249110	0.775072	0.666739
C46	C	0.474519	0.069398	0.076094
C47	C	0.807852	0.402732	0.409428
C48	C	1.141185	0.736065	0.742761
C49	C	0.417337	0.105696	0.000088
C50	C	0.750670	0.439029	0.333421
C51	C	1.084004	0.772363	0.666754
C52	C	0.525252	0.144684	-0.076033
C53	C	0.858585	0.478017	0.257301
C54	C	1.191919	0.811351	0.590634
C55	C	0.525261	0.144709	0.076088
C56	C	0.858595	0.478042	0.409421
C57	C	1.191928	0.811376	0.742755
C58	C	0.466862	0.181022	0.000027
C59	C	0.800195	0.514355	0.333360
C60	C	1.133529	0.847689	0.666693
C61	C	0.677557	0.109964	0.000063
C62	C	1.010890	0.443297	0.333397
C63	C	1.344223	0.776631	0.666730
C64	C	0.322225	0.104143	0.000090
C65	C	0.655558	0.437476	0.333424
C66	C	0.988892	0.770810	0.666757
C67	C	0.995805	-0.035893	0.000092
C68	C	1.329138	0.297440	0.333425
C69	C	1.662471	0.630774	0.666758
C70	C	0.987945	-0.122688	0.000091
C71	C	1.321279	0.210645	0.333424
C72	C	1.654612	0.543978	0.666757
C73	C	1.060103	-0.172781	0.000098
C74	C	1.393436	0.160552	0.333432
C75	C	1.726770	0.493886	0.666765
C76	C	1.052713	-0.254334	0.000089
C77	C	1.386047	0.079000	0.333422
C78	C	1.719380	0.412333	0.666756
C79	C	0.973165	-0.285792	0.000078
C80	C	1.306499	0.047541	0.333412
C81	C	1.639832	0.380875	0.666745
C82	C	0.901002	-0.235693	0.000068
C83	C	1.234336	0.097640	0.333401
C84	C	1.567669	0.430974	0.666734
C85	C	0.908393	-0.154142	0.000071
C86	C	1.241726	0.179192	0.333404
C87	C	1.575059	0.512525	0.666737
C88	C	0.947056	-0.531558	0.000063
C89	C	1.280390	-0.198224	0.333396
C90	C	1.613723	0.135109	0.666730
C91	C	0.939671	-0.613115	0.000063
C92	C	1.273005	-0.279782	0.333396
C93	C	1.606338	0.053551	0.666730
C94	C	1.091383	-0.631751	0.000083
C95	C	1.424716	-0.298417	0.333416
C96	C	1.758050	0.034916	0.666749
C97	C	1.098766	-0.550197	0.000091
C98	C	1.432100	-0.216864	0.333424
C99	C	1.765433	0.116470	0.666758
C100	C	1.026603	-0.500105	0.000075
C101	C	1.359937	-0.166772	0.333409
C102	C	1.693270	0.166562	0.666742
C103	C	0.965610	-0.369152	0.000071
C104	C	1.298943	-0.035819	0.333405
C105	C	1.632277	0.297515	0.666738
C106	C	1.034159	-0.416747	0.000076
C107	C	1.367493	-0.083413	0.333409
C108	C	1.700826	0.249920	0.666742
C109	C	1.153049	0.101352	0.000097
C110	C	1.486382	0.434685	0.333431
C111	C	1.819716	0.768019	0.666764
C112	C	1.246405	0.102899	0.000100
C113	C	1.579739	0.436232	0.333433
C114	C	1.913072	0.769566	0.666766
C115	C	1.003969	0.249997	0.000076
C116	C	1.337303	0.583330	0.333409
C117	C	1.670636	0.916663	0.666743
C118	C	1.011829	0.336792	0.000071
C119	C	1.345162	0.670125	0.333404
C120	C	1.678495	1.003459	0.666737
N121	N	0.999865	0.107077	0.219560
N122	N	1.333198	0.440410	0.552893
N123	N	1.666531	0.773743	0.886226
N124	N	0.999916	0.107021	-0.219390
N125	N	1.333249	0.440354	0.113943
N126	N	1.666582	0.773687	0.447277
C127	C	0.944187	0.162555	0.469205
C128	C	1.277521	0.495888	0.802538
C129	C	1.610854	0.829221	1.135871
C130	C	1.021171	0.177734	0.531013
C131	C	1.354504	0.511067	0.864347
C132	C	1.687838	0.844400	1.197680
C133	C	0.999884	0.107058	0.408721
C134	C	1.333217	0.440391	0.742054
C135	C	1.666550	0.773725	1.075388
C136	C	0.922921	0.091897	0.531006
C137	C	1.256254	0.425231	0.864339
C138	C	1.589587	0.758564	1.197673
C139	C	0.999895	0.107042	0.591442
C140	C	1.333229	0.440375	0.924776
C141	C	1.666562	0.773709	1.258109
C142	C	1.076908	0.122272	0.469169
C143	C	1.410242	0.455606	0.802502
C144	C	1.743575	0.788939	1.135836
C145	C	0.978606	0.036405	0.469156
C146	C	1.311939	0.369739	0.802490
C147	C	1.645273	0.703072	1.135823
C148	C	1.055642	0.051554	0.530937
C149	C	1.388976	0.384888	0.864271
C150	C	1.722309	0.718221	1.197604
C151	C	0.999876	0.107070	0.303460
C152	C	1.333209	0.440403	0.636793
C153	C	1.666543	0.773736	0.970127
C154	C	0.999912	0.107030	0.696701
C155	C	1.333245	0.440363	1.030035
C156	C	1.666579	0.773697	1.363368
H157	H	0.452149	0.037543	0.140380
H158	H	0.785483	0.370876	0.473713
H159	H	1.118816	0.704209	0.807047
C160	C	0.571907	-0.051333	-0.000011
C161	C	0.905240	0.282001	0.333322
C162	C	1.238574	0.615334	0.666655
N163	N	0.601261	-0.114929	-0.000088
N164	N	0.934595	0.218404	0.333245
N165	N	1.267928	0.551738	0.666578
C166	C	1.121660	-0.382140	0.000092
C167	C	1.454993	-0.048806	0.333425
C168	C	1.788327	0.284527	0.666759
N169	N	1.187566	-0.356067	0.000111
N170	N	1.520899	-0.022733	0.333444
N171	N	1.854232	0.310600	0.666777
H172	H	0.452139	0.037506	-0.140243
H173	H	0.785473	0.370840	0.193091
H174	H	1.118806	0.704173	0.526424
H175	H	1.142019	0.135160	0.442121
H176	H	1.475352	0.468493	0.775454
H177	H	1.808685	0.801827	1.108787
H178	H	0.900842	-0.394774	0.000065
H179	H	1.234175	-0.061441	0.333398
H180	H	1.567508	0.271892	0.666731
C181	C	1.119354	-0.011854	0.567342
C182	C	1.452688	0.321479	0.900675
C183	C	1.786021	0.654812	1.234008
N184	N	1.167345	-0.059608	0.594767
N185	N	1.500679	0.273725	0.928101
N186	N	1.834012	0.607059	1.261434
C187	C	0.954245	-0.044277	0.432415
C188	C	1.287579	0.289056	0.765748
C189	C	1.620912	0.622389	1.099081
N190	N	0.935888	-0.105047	0.404738
N191	N	1.269221	0.228287	0.738071
N192	N	1.602554	0.561620	1.071405
H193	H	0.857830	0.079082	0.558171
H194	H	1.191163	0.412415	0.891504
H195	H	1.524496	0.745748	1.224838
H196	H	0.897141	0.209524	0.442099
H197	H	1.230474	0.542857	0.775433
H198	H	1.563807	0.876190	1.108766
C199	C	0.428092	0.265532	-0.000037
C200	C	0.761425	0.598865	0.333296
C201	C	1.094759	0.932198	0.666630
N202	N	0.398888	0.329183	-0.000090
N203	N	0.732221	0.662517	0.333243
N204	N	1.065554	0.995850	0.666577
C205	C	0.555525	0.187707	0.162939
C206	C	0.888858	0.521040	0.496272
C207	C	1.222191	0.854373	0.829605
N208	N	0.578322	0.220086	0.228362
N209	N	0.911655	0.553419	0.561696
N210	N	1.244989	0.886753	0.895029
C211	C	0.555333	0.187662	-0.162983
C212	C	0.888666	0.520995	0.170350
C213	C	1.222000	0.854328	0.503683
N214	N	0.577992	0.220029	-0.228476
N215	N	0.911326	0.553362	0.104858
N216	N	1.244659	0.886695	0.438191
C217	C	1.147613	-0.138185	0.000110
C218	C	1.480946	0.195148	0.333444
C219	C	1.814279	0.528481	0.666777
N220	N	1.213527	-0.112130	0.000115
N221	N	1.546861	0.221203	0.333448
N222	N	1.880194	0.554536	0.666782
C223	C	1.045494	0.258441	0.567730
C224	C	1.378827	0.591774	0.901063
C225	C	1.712160	0.925108	1.234397
N226	N	1.063807	0.319231	0.595384
N227	N	1.397140	0.652565	0.928718
N228	N	1.730473	0.985898	1.262051
H229	H	1.163543	-0.524590	0.000100
H230	H	1.496876	-0.191257	0.333433
H231	H	1.830209	0.142076	0.666766
C232	C	0.852159	-0.647717	0.000044
C233	C	1.185492	-0.314383	0.333378
C234	C	1.518825	0.018950	0.666711
N235	N	0.786247	-0.673779	0.000030
N236	N	1.119581	-0.340445	0.333363
N237	N	1.452914	-0.007112	0.666696
C238	C	1.170757	-0.686858	0.000091
C239	C	1.504090	-0.353524	0.333424
C240	C	1.837423	-0.020191	0.666758
N241	N	1.230544	-0.728365	0.000093
N242	N	1.563877	-0.395032	0.333426
N243	N	1.897211	-0.061698	0.666760
C244	C	0.867674	-0.476467	0.000041
C245	C	1.201007	-0.143133	0.333374
C246	C	1.534340	0.190200	0.666708
N247	N	0.807879	-0.434969	0.000022
N248	N	1.141212	-0.101636	0.333355
N249	N	1.474545	0.231698	0.666688
H250	H	0.836233	-0.261313	0.000053
H251	H	1.169566	0.072021	0.333386
H252	H	1.502899	0.405354	0.666720
H253	H	1.111472	-0.295117	0.000097
H254	H	1.444805	0.038217	0.333431
H255	H	1.778139	0.371550	0.666764
C256	C	0.829013	-0.099039	0.000064
C257	C	1.162347	0.234294	0.333397
C258	C	1.495680	0.567627	0.666731
N259	N	0.769222	-0.057537	0.000057
N260	N	1.102555	0.275796	0.333390
N261	N	1.435889	0.609130	0.666724
