data_functionalizedCrystal
_audit_creation_method	'MofGen! by Chris Wilmer'
_symmetry_space_group_name_H-M	'P1'
_symmetry_Int_Tables_number	1
_symmetry_cell_setting	triclinic
loop_
_symmetry_equiv_pos_as_xyz
  x,y,z
_cell_length_a	6.817900
_cell_length_b	17.284796
_cell_length_c	17.078481
_cell_angle_alpha	92.841738
_cell_angle_beta	99.306161
_cell_angle_gamma	103.042616
loop_
_atom_site_label
_atom_site_type_symbol
_atom_site_fract_x
_atom_site_fract_y
_atom_site_fract_z
V1	V	-3.974058	-0.108879	-0.240615
V2	V	-3.474058	0.391121	0.259385
O3	O	-3.968323	0.005421	-0.242989
O4	O	-3.468323	0.505421	0.257011
O5	O	-3.920408	-0.216072	-0.232280
O6	O	-3.420408	0.283928	0.267720
O7	O	-3.905194	-0.107122	-0.348607
O8	O	-3.405194	0.392878	0.151393
O9	O	-3.983642	-0.104283	-0.125857
O10	O	-3.483642	0.395717	0.374143
V11	V	-4.461018	-0.095218	-0.227701
V12	V	-3.961018	0.404782	0.272299
O13	O	-4.227777	-0.138848	-0.268941
O14	O	-3.727777	0.361152	0.231059
O15	O	-4.657497	-0.065249	-0.199375
O16	O	-4.157497	0.434751	0.300625
O17	O	-4.291463	0.011975	-0.236035
O18	O	-3.791463	0.511975	0.263965
O19	O	-4.584151	-0.209518	-0.225327
O20	O	-4.084151	0.290482	0.274673
O21	O	-4.568832	-0.099814	-0.342458
O22	O	-4.068832	0.400186	0.157542
O23	O	-4.306676	-0.096975	-0.119709
O24	O	-3.806676	0.403025	0.380291
C25	C	-3.764793	-0.242206	-0.226759
C26	C	-3.264793	0.257794	0.273241
C27	C	-3.802078	-0.329836	-0.220664
C28	C	-3.302078	0.170164	0.279336
C29	C	-3.745386	-0.103228	-0.375143
C30	C	-3.245386	0.396772	0.124857
C31	C	-3.770331	-0.102500	-0.463383
C32	C	-3.270331	0.397500	0.036617
C33	C	-4.009028	-0.821887	-0.178565
C34	C	-3.509028	-0.321887	0.321435
C35	C	-3.974010	-0.739551	-0.184304
C36	C	-3.474010	-0.239551	0.315696
C37	C	-3.982351	-0.709596	-0.259134
C38	C	-3.482351	-0.209596	0.240866
C39	C	-4.025693	-0.761981	-0.328228
C40	C	-3.525693	-0.261981	0.171772
C41	C	-4.060696	-0.844315	-0.322488
C42	C	-3.560696	-0.344315	0.177512
C43	C	-3.880423	-0.464556	-0.284018
C44	C	-3.380423	0.035444	0.215982
C45	C	-3.845422	-0.382215	-0.289754
C46	C	-3.345422	0.117785	0.210246
C47	C	-3.793737	-0.359790	-0.145829
C48	C	-3.293737	0.140210	0.354171
C49	C	-3.828755	-0.442127	-0.140095
C50	C	-3.328755	0.057873	0.359905
C51	C	-3.872083	-0.494505	-0.209189
C52	C	-3.372083	0.005495	0.290811
N53	N	-3.946564	-0.625436	-0.265003
N54	N	-3.446564	-0.125436	0.234997
N55	N	-3.907855	-0.578663	-0.203320
N56	N	-3.407855	-0.078663	0.296680
C57	C	-3.963189	-0.106093	-0.508636
C58	C	-3.463189	0.393907	-0.008636
C59	C	-3.986615	-0.105408	-0.591547
C60	C	-3.486615	0.394592	-0.091547
C61	C	-3.817183	-0.101136	-0.629203
C62	C	-3.317183	0.398864	-0.129203
C63	C	-3.624308	-0.097541	-0.583944
C64	C	-3.124308	0.402459	-0.083944
C65	C	-3.600882	-0.098220	-0.501034
C66	C	-3.100882	0.401780	-0.001034
C67	C	-3.867819	-0.098679	-0.876759
C68	C	-3.367819	0.401321	-0.376759
C69	C	-3.891263	-0.098003	-0.959675
C70	C	-3.391263	0.401997	-0.459675
C71	C	-4.253568	-0.105869	-0.967272
C72	C	-3.753568	0.394131	-0.467272
C73	C	-4.230127	-0.106552	-0.884361
C74	C	-3.730127	0.393448	-0.384361
C75	C	-4.037253	-0.102952	-0.839108
C76	C	-3.537253	0.397048	-0.339108
N77	N	-3.841125	-0.100439	-0.713951
N78	N	-3.341125	0.399561	-0.213951
N79	N	-4.013311	-0.103644	-0.754361
N80	N	-3.513311	0.396356	-0.254361
C81	C	-4.110419	0.038104	-0.241555
C82	C	-3.610419	0.538104	0.258445
C83	C	-4.052372	0.125734	-0.247654
C84	C	-3.552372	0.625734	0.252346
C85	C	-4.129827	-0.100872	-0.093168
C86	C	-3.629827	0.399128	0.406832
C87	C	-4.084121	-0.101596	-0.004928
C88	C	-3.584121	0.398404	0.495072
H89	H	-4.002241	-0.846269	-0.117630
H90	H	-3.502241	-0.346269	0.382370
H91	H	-3.852259	-0.357831	-0.350693
H92	H	-3.352259	0.142169	0.149307
F93	F	-4.191884	-0.109240	-0.639706
F94	F	-3.691884	0.390760	-0.139706
H95	H	-3.486353	-0.094058	-0.614610
H96	H	-2.986353	0.405942	-0.114610
H97	H	-3.821964	-0.466510	-0.079161
H98	H	-3.321964	0.033490	0.420839
F99	F	-3.926394	-0.520287	-0.357553
F100	F	-3.426394	-0.020287	0.142447
F101	F	-3.747641	-0.304041	-0.072300
F102	F	-3.247641	0.195959	0.427700
F103	F	-3.395614	-0.094390	-0.452872
F104	F	-2.895614	0.405610	0.047128
F105	F	-3.662557	-0.094864	-0.828610
F106	F	-3.162557	0.405136	-0.328610
F107	F	-4.034548	-0.730098	-0.407868
F108	F	-3.534548	-0.230098	0.092132
F109	F	-4.106846	-0.900062	-0.396023
F110	F	-3.606846	-0.400062	0.103977
F111	F	-3.927877	-0.683808	-0.110769
F112	F	-3.427877	-0.183808	0.389231
H113	H	-4.101166	-0.109577	-0.477983
H114	H	-3.601166	0.390423	0.022017
H115	H	-4.368100	-0.110030	-0.853707
H116	H	-3.868100	0.389970	-0.353707
H117	H	-4.410599	-0.108799	-1.004125
H118	H	-3.910599	0.391201	-0.504125
H119	H	-3.753279	-0.094522	-0.990331
H120	H	-3.253279	0.405478	-0.490331
