data_functionalizedCrystal
_audit_creation_method	'MofGen! by Chris Wilmer'
_symmetry_space_group_name_H-M	'P1'
_symmetry_Int_Tables_number	1
_symmetry_cell_setting	triclinic
loop_
_symmetry_equiv_pos_as_xyz
  x,y,z
_cell_length_a	10.723022
_cell_length_b	14.044220
_cell_length_c	9.798715
_cell_angle_alpha	90.004373
_cell_angle_beta	90.003403
_cell_angle_gamma	88.828052
loop_
_atom_site_label
_atom_site_type_symbol
_atom_site_fract_x
_atom_site_fract_y
_atom_site_fract_z
O1	O	1.670498	0.133033	0.113486
O2	O	1.308620	0.145769	0.113491
O3	O	1.484127	0.001381	0.113476
O4	O	1.494991	0.277421	0.113502
O5	O	1.484113	0.001380	-0.113507
O6	O	1.308605	0.145768	-0.113491
O7	O	1.670484	0.133032	-0.113496
Zn8	Zn	1.489542	0.139400	-0.149532
Zn9	Zn	1.489561	0.139401	0.149527
O10	O	1.494976	0.277420	-0.113480
C11	C	1.262020	0.144842	0.000001
C12	C	1.123188	0.142070	0.000002
C13	C	0.912806	0.219995	0.000013
C14	C	1.056296	0.222862	0.000011
C15	C	1.479364	-0.033965	-0.000016
C16	C	1.465180	-0.139283	-0.000018
C17	C	1.439248	-0.332113	0.000002
C18	C	1.539850	-0.389092	0.000005
C19	C	1.525421	-0.496389	0.000016
C20	C	1.453675	-0.224805	-0.000009
C21	C	1.717083	0.133959	-0.000002
C22	C	1.855915	0.136731	0.000005
C23	C	1.499739	0.312766	0.000015
C24	C	1.513923	0.418084	0.000025
N25	N	1.489538	0.139398	-0.353631
C26	C	1.567806	0.194401	-0.421404
C27	C	1.567826	0.194400	-0.578567
N28	N	1.489574	0.139395	0.353627
H29	H	1.105240	0.294151	0.000010
H30	H	1.074252	0.070777	0.000032
F31	F	1.312516	-0.373676	0.000011
H32	H	1.422548	0.092305	-0.411960
H33	H	1.634828	0.241495	-0.636851
F34	F	0.837626	0.310399	0.000035
H35	H	1.422557	0.092307	-0.588098
F36	F	1.655381	0.255950	-0.345171
H37	H	1.636814	-0.357291	0.000095
F38	F	0.931095	0.046327	0.000005
