data_functionalizedCrystal
_audit_creation_method	'MofGen! by Chris Wilmer'
_symmetry_space_group_name_H-M	'P1'
_symmetry_Int_Tables_number	1
_symmetry_cell_setting	triclinic
loop_
_symmetry_equiv_pos_as_xyz
  x,y,z
_cell_length_a	17.000371
_cell_length_b	17.038272
_cell_length_c	7.088929
_cell_angle_alpha	96.674532
_cell_angle_beta	84.292666
_cell_angle_gamma	83.355402
loop_
_atom_site_label
_atom_site_type_symbol
_atom_site_fract_x
_atom_site_fract_y
_atom_site_fract_z
O1	O	1.050410	0.036602	0.158997
O2	O	1.383743	0.369935	0.492330
O3	O	1.717076	0.703269	0.825664
O4	O	0.820590	0.064847	0.159000
O5	O	1.153923	0.398180	0.492333
O6	O	1.487256	0.731514	0.825667
O7	O	0.934135	-0.062998	0.158983
O8	O	1.267468	0.270335	0.492317
O9	O	1.600801	0.603669	0.825650
O10	O	0.936865	0.164447	0.159014
O11	O	1.270198	0.497781	0.492347
O12	O	1.603532	0.831114	0.825680
O13	O	0.949306	-0.080119	-0.158994
O14	O	1.282640	0.253214	0.174339
O15	O	1.615973	0.586547	0.507673
O16	O	0.835761	0.047726	-0.158977
O17	O	1.169095	0.381059	0.174356
O18	O	1.502428	0.714392	0.507689
O19	O	1.065582	0.019481	-0.158980
O20	O	1.398915	0.352814	0.174353
O21	O	1.732248	0.686147	0.507686
Cu22	Cu	0.952057	0.032040	-0.188013
Cu23	Cu	1.285390	0.365373	0.145321
Cu24	Cu	1.618723	0.698707	0.478654
Cu25	Cu	0.934114	0.052288	0.188032
Cu26	Cu	1.267448	0.385621	0.521366
Cu27	Cu	1.600781	0.718955	0.854699
O28	O	0.952037	0.147326	-0.158964
O29	O	1.285370	0.480659	0.174370
O30	O	1.618703	0.813993	0.507703
C31	C	0.798624	0.057804	0.000011
C32	C	1.131958	0.391137	0.333345
C33	C	1.465291	0.724470	0.666678
C34	C	0.710571	0.062315	0.000012
C35	C	1.043905	0.395648	0.333345
C36	C	1.377238	0.728981	0.666679
C37	C	0.673845	-0.007108	-0.000001
C38	C	1.007179	0.326226	0.333333
C39	C	1.340512	0.659559	0.666666
C40	C	0.591109	-0.002863	0.000014
C41	C	0.924443	0.330470	0.333347
C42	C	1.257776	0.663803	0.666680
C43	C	0.545101	0.070803	0.000027
C44	C	0.878434	0.404136	0.333360
C45	C	1.211767	0.737470	0.666694
C46	C	0.581832	0.140231	0.000045
C47	C	0.915165	0.473564	0.333379
C48	C	1.248498	0.806898	0.666712
C49	C	0.664566	0.135987	0.000045
C50	C	0.997899	0.469320	0.333378
C51	C	1.331232	0.802654	0.666711
C52	C	0.295064	0.087198	0.000042
C53	C	0.628397	0.420531	0.333375
C54	C	0.961731	0.753864	0.666709
C55	C	0.212325	0.091436	0.000037
C56	C	0.545658	0.424770	0.333370
C57	C	0.878991	0.758103	0.666704
C58	C	0.221608	-0.051659	0.000009
C59	C	0.554941	0.281675	0.333342
C60	C	0.888275	0.615008	0.666676
C61	C	0.304344	-0.055897	-0.000003
C62	C	0.637677	0.277437	0.333330
C63	C	0.971010	0.610770	0.666663
C64	C	0.341067	0.013532	0.000025
C65	C	0.674400	0.346865	0.333359
C66	C	1.007734	0.680198	0.666692
C67	C	0.460531	0.075143	0.000036
C68	C	0.793864	0.408476	0.333369
C69	C	1.127198	0.741809	0.666702
C70	C	0.425635	0.009192	0.000030
C71	C	0.758968	0.342525	0.333364
C72	C	1.092301	0.675859	0.666697
C73	C	0.939236	-0.100517	-0.000005
C74	C	1.272569	0.232817	0.333328
C75	C	1.605902	0.566150	0.666662
C76	C	0.931823	-0.186802	-0.000004
C77	C	1.265156	0.146531	0.333329
C78	C	1.598490	0.479865	0.666662
C79	C	0.999881	-0.241578	-0.000007
C80	C	1.333215	0.091756	0.333326
C81	C	1.666548	0.425089	0.666659
C82	C	0.992911	-0.322650	0.000011
C83	C	1.326244	0.010684	0.333344
C84	C	1.659577	0.344017	0.666678
C85	C	0.917881	-0.348945	0.000018
C86	C	1.251215	-0.015612	0.333352
C87	C	1.584548	0.317721	0.666685
C88	C	0.849817	-0.294163	0.000027
C89	C	1.183151	0.039171	0.333360
C90	C	1.516484	0.372504	0.666694
C91	C	0.856788	-0.213091	0.000022
C92	C	1.190122	0.120242	0.333356
C93	C	1.523455	0.453575	0.666689
C94	C	0.893254	-0.593015	0.000045
C95	C	1.226588	-0.259682	0.333378
C96	C	1.559921	0.073651	0.666712
C97	C	0.886289	-0.674094	0.000044
C98	C	1.219622	-0.340760	0.333377
C99	C	1.552955	-0.007427	0.666710
C100	C	1.029383	-0.702575	0.000031
C101	C	1.362716	-0.369242	0.333365
C102	C	1.696049	-0.035908	0.666698
C103	C	1.036348	-0.621501	0.000015
C104	C	1.369681	-0.288168	0.333349
C105	C	1.703014	0.045165	0.666682
C106	C	0.968283	-0.566725	0.000034
C107	C	1.301616	-0.233392	0.333367
C108	C	1.634950	0.099941	0.666701
C109	C	0.910755	-0.431814	0.000031
C110	C	1.244088	-0.098481	0.333364
C111	C	1.577421	0.234853	0.666698
C112	C	0.975410	-0.483857	0.000035
C113	C	1.308743	-0.150524	0.333368
C114	C	1.642076	0.182809	0.666702
C115	C	1.087546	0.026525	0.000012
C116	C	1.420880	0.359858	0.333346
C117	C	1.754213	0.693191	0.666679
C118	C	1.175599	0.022014	0.000024
C119	C	1.508932	0.355347	0.333358
C120	C	1.842266	0.688681	0.666691
C121	C	0.946935	0.184845	0.000029
C122	C	1.280268	0.518178	0.333362
C123	C	1.613602	0.851512	0.666696
C124	C	0.954347	0.271131	0.000041
C125	C	1.287681	0.604464	0.333374
C126	C	1.621014	0.937797	0.666708
N127	N	0.964682	0.017798	-0.452503
N128	N	1.298015	0.351131	-0.119169
N129	N	1.631349	0.684464	0.214164
N130	N	0.921495	0.066524	0.452522
N131	N	1.254828	0.399857	0.785856
N132	N	1.588162	0.733190	1.119189
H133	H	0.544364	0.200213	0.000069
H134	H	0.877698	0.533546	0.333402
H135	H	1.211031	0.866879	0.666735
Cl136	Cl	0.731677	-0.099723	-0.000030
Cl137	Cl	1.065011	0.233610	0.333304
Cl138	Cl	1.398344	0.566944	0.666637
Cl139	Cl	0.544941	-0.090139	0.000053
Cl140	Cl	0.878274	0.243194	0.333386
Cl141	Cl	1.211607	0.576528	0.666719
H142	H	0.876736	0.117018	-0.465825
H143	H	1.210069	0.450351	-0.132492
H144	H	1.543403	0.783684	0.200842
H145	H	0.837831	-0.548425	0.000059
H146	H	1.171164	-0.215092	0.333393
H147	H	1.504498	0.118241	0.666726
H148	H	0.788726	-0.315578	0.000045
H149	H	1.122059	0.017755	0.333378
H150	H	1.455393	0.351089	0.666712
H151	H	0.694467	0.192518	0.000046
H152	H	1.027800	0.525851	0.333380
H153	H	1.361133	0.859184	0.666713
Cl154	Cl	1.033801	-0.060160	-0.578573
Cl155	Cl	1.367134	0.273174	-0.245239
Cl156	Cl	1.700467	0.606507	0.088094
H157	H	1.048332	-0.367246	0.000005
H158	H	1.381665	-0.033913	0.333338
H159	H	1.714998	0.299421	0.666671
Cl160	Cl	0.362178	-0.148511	-0.000034
Cl161	Cl	0.695511	0.184822	0.333299
Cl162	Cl	1.028845	0.518156	0.666633
H163	H	0.801367	-0.168493	0.000025
H164	H	1.134701	0.164841	0.333358
H165	H	1.468034	0.498174	0.666692
Cl166	Cl	0.154487	0.184052	0.000036
Cl167	Cl	0.487820	0.517385	0.333369
Cl168	Cl	0.821154	0.850719	0.666702
H169	H	0.825189	-0.695501	0.000019
H170	H	1.158523	-0.362167	0.333352
H171	H	1.491856	-0.028834	0.666685
H172	H	1.036496	-0.462442	0.000071
H173	H	1.369830	-0.129108	0.333405
H174	H	1.703163	0.204225	0.666738
H175	H	0.324953	0.143732	0.000078
H176	H	0.658287	0.477065	0.333411
H177	H	0.991620	0.810399	0.666745
Cl178	Cl	0.402685	0.167750	0.000054
Cl179	Cl	0.736018	0.501083	0.333388
Cl180	Cl	1.069352	0.834416	0.666721
Cl181	Cl	0.175436	-0.138934	-0.000015
Cl182	Cl	0.508769	0.194400	0.333318
Cl183	Cl	0.842103	0.527733	0.666651
Cl184	Cl	1.130671	-0.588447	0.000068
Cl185	Cl	1.464004	-0.255114	0.333401
Cl186	Cl	1.797338	0.078219	0.666735
H187	H	0.849665	-0.453233	0.000033
H188	H	1.182999	-0.119900	0.333366
H189	H	1.516332	0.213433	0.666699
H190	H	0.463098	-0.050786	0.000031
H191	H	0.796431	0.282547	0.333364
H192	H	1.129764	0.615880	0.666697
H193	H	1.060979	-0.220176	-0.000025
H194	H	1.394312	0.113158	0.333308
H195	H	1.727646	0.446491	0.666642
H196	H	1.084796	-0.747182	0.000020
H197	H	1.418130	-0.413848	0.333353
H198	H	1.751463	-0.080515	0.666686
