data_functionalizedCrystal
_audit_creation_method	'MofGen! by Chris Wilmer'
_symmetry_space_group_name_H-M	'P1'
_symmetry_Int_Tables_number	1
_symmetry_cell_setting	triclinic
loop_
_symmetry_equiv_pos_as_xyz
  x,y,z
_cell_length_a	18.215405
_cell_length_b	18.215407
_cell_length_c	18.215399
_cell_angle_alpha	89.986109
_cell_angle_beta	89.967040
_cell_angle_gamma	90.022344
loop_
_atom_site_label
_atom_site_type_symbol
_atom_site_fract_x
_atom_site_fract_y
_atom_site_fract_z
Zn1	Zn	-0.293024	1.125050	-0.416045
Zn2	Zn	0.040309	1.458383	-0.082712
Zn3	Zn	0.373642	1.791717	0.250622
Zn4	Zn	-0.416101	1.124965	-0.292973
Zn5	Zn	-0.082767	1.458298	0.040360
Zn6	Zn	0.250566	1.791632	0.373694
Zn7	Zn	-0.293047	1.001989	-0.292999
Zn8	Zn	0.040286	1.335322	0.040335
Zn9	Zn	0.373620	1.668656	0.373668
Zn10	Zn	-0.416048	1.001949	-0.416004
Zn11	Zn	-0.082715	1.335282	-0.082671
Zn12	Zn	0.250619	1.668615	0.250662
O13	O	-0.354555	1.063488	-0.354505
O14	O	-0.021222	1.396821	-0.021172
O15	O	0.312112	1.730155	0.312161
O16	O	-0.309363	1.228023	-0.399726
O17	O	0.023970	1.561356	-0.066392
O18	O	0.357304	1.894690	0.266941
O19	O	-0.399809	1.108633	-0.189992
O20	O	-0.066476	1.441967	0.143341
O21	O	0.266858	1.775300	0.476675
O22	O	-0.190060	1.018366	-0.309349
O23	O	0.143274	1.351699	0.023985
O24	O	0.476607	1.685033	0.357318
O25	O	-0.399787	1.227960	-0.309305
O26	O	-0.066453	1.561294	0.024028
O27	O	0.266880	1.894627	0.357362
O28	O	-0.190043	1.108778	-0.399750
O29	O	0.143290	1.442112	-0.066417
O30	O	0.476624	1.775445	0.266916
O31	O	-0.309402	1.018283	-0.190011
O32	O	0.023931	1.351617	0.143322
O33	O	0.357265	1.684950	0.476656
O34	O	-0.309351	0.898999	-0.309309
O35	O	0.023982	1.232333	0.024024
O36	O	0.357316	1.565666	0.357357
O37	O	-0.399697	1.018297	-0.518994
O38	O	-0.066364	1.351630	-0.185661
O39	O	0.266969	1.684964	0.147673
O40	O	-0.399719	0.898970	-0.399681
O41	O	-0.066386	1.232303	-0.066348
O42	O	0.266947	1.565636	0.266986
O43	O	-0.309312	1.108739	-0.519024
O44	O	0.024021	1.442072	-0.185691
O45	O	0.357355	1.775406	0.147643
O46	O	-0.519078	1.108594	-0.309266
O47	O	-0.185745	1.441927	0.024068
O48	O	0.147589	1.775261	0.357401
O49	O	-0.519039	1.018214	-0.399656
O50	O	-0.185706	1.351548	-0.066323
O51	O	0.147627	1.684881	0.267010
C52	C	-0.354532	0.872282	-0.354494
C53	C	-0.021199	1.205615	-0.021161
C54	C	0.312134	1.538949	0.312173
C55	C	-0.354541	0.790483	-0.354507
C56	C	-0.021207	1.123816	-0.021173
C57	C	0.312126	1.457150	0.312160
C58	C	-0.401687	0.525429	-0.401497
C59	C	-0.068354	0.858762	-0.068164
C60	C	0.264980	1.192096	0.265169
C61	C	-0.401681	0.602288	-0.401494
C62	C	-0.068347	0.935621	-0.068160
C63	C	0.264986	1.268955	0.265173
C64	C	-0.307439	0.602288	-0.307526
C65	C	0.025894	0.935622	0.025807
C66	C	0.359227	1.268955	0.359140
C67	C	-0.307450	0.525431	-0.307527
C68	C	0.025883	0.858764	0.025807
C69	C	0.359217	1.192098	0.359140
C70	C	-0.354573	0.487003	-0.354516
C71	C	-0.021239	0.820337	-0.021183
C72	C	0.312094	1.153670	0.312150
C73	C	-0.354556	0.640720	-0.354512
C74	C	-0.021223	0.974053	-0.021179
C75	C	0.312111	1.307386	0.312154
C76	C	-0.354549	0.724053	-0.354508
C77	C	-0.021215	1.057387	-0.021175
C78	C	0.312118	1.390720	0.312159
C79	C	-0.354581	0.403664	-0.354520
C80	C	-0.021248	0.736998	-0.021186
C81	C	0.312086	1.070331	0.312147
C82	C	-0.545761	1.063410	-0.354470
C83	C	-0.212428	1.396744	-0.021136
C84	C	0.120905	1.730077	0.312197
C85	C	-0.627560	1.063445	-0.354479
C86	C	-0.294227	1.396778	-0.021146
C87	C	0.039106	1.730111	0.312187
C88	C	-0.815750	1.110616	-0.307500
C89	C	-0.482416	1.443949	0.025834
C90	C	-0.149083	1.777282	0.359167
C91	C	-0.892609	1.110649	-0.307517
C92	C	-0.559275	1.443982	0.025816
C93	C	-0.225942	1.777315	0.359149
C94	C	-0.892608	1.016455	-0.401564
C95	C	-0.559275	1.349788	-0.068230
C96	C	-0.225942	1.683121	0.265103
C97	C	-0.815751	1.016426	-0.401549
C98	C	-0.482418	1.349759	-0.068216
C99	C	-0.149084	1.683093	0.265118
C100	C	-0.777324	1.063505	-0.354513
C101	C	-0.443990	1.396839	-0.021180
C102	C	-0.110657	1.730172	0.312154
C103	C	-0.931040	1.063567	-0.354545
C104	C	-0.597706	1.396900	-0.021212
C105	C	-0.264373	1.730234	0.312121
C106	C	-1.014373	1.063602	-0.354565
C107	C	-0.681040	1.396936	-0.021232
C108	C	-0.347707	1.730269	0.312102
C109	C	-0.693985	1.063471	-0.354494
C110	C	-0.360651	1.396805	-0.021161
C111	C	-0.027318	1.730138	0.312173
C112	C	-0.162602	1.063586	-0.354557
C113	C	0.170731	1.396920	-0.021224
C114	C	0.504065	1.730253	0.312110
C115	C	-0.080803	1.063628	-0.354579
C116	C	0.252530	1.396961	-0.021246
C117	C	0.585863	1.730295	0.312088
C118	C	-0.354496	1.063523	-0.546458
C119	C	-0.021163	1.396856	-0.213125
C120	C	0.312170	1.730190	0.120208
C121	C	-0.354471	1.063538	-0.628257
C122	C	-0.021138	1.396871	-0.294924
C123	C	0.312195	1.730204	0.038410
C124	C	-0.354578	1.255441	-0.354517
C125	C	-0.021245	1.588774	-0.021184
C126	C	0.312088	1.922108	0.312150
C127	C	-0.354588	1.337240	-0.354522
C128	C	-0.021255	1.670573	-0.021189
C129	C	0.312079	2.003907	0.312145
C130	C	-0.307365	1.016532	-0.816462
C131	C	0.025969	1.349866	-0.483129
C132	C	0.359302	1.683199	-0.149795
C133	C	-0.307350	1.016545	-0.893321
C134	C	0.025984	1.349878	-0.559987
C135	C	0.359317	1.683212	-0.226654
C136	C	-0.401490	1.110631	-0.893290
C137	C	-0.068157	1.443964	-0.559957
C138	C	0.265177	1.777298	-0.226624
C139	C	-0.401508	1.110614	-0.816433
C140	C	-0.068175	1.443947	-0.483100
C141	C	0.265159	1.777281	-0.149766
C142	C	-0.354441	1.063566	-0.778021
C143	C	-0.021108	1.396899	-0.444687
C144	C	0.312226	1.730232	-0.111354
C145	C	-0.354408	1.063596	-0.931737
C146	C	-0.021075	1.396929	-0.598404
C147	C	0.312258	1.730262	-0.265070
C148	C	-0.354393	1.063610	-1.015071
C149	C	-0.021059	1.396943	-0.681737
C150	C	0.312274	1.730276	-0.348404
C151	C	-0.354458	1.063550	-0.694682
C152	C	-0.021124	1.396884	-0.361348
C153	C	0.312209	1.730217	-0.028015
C154	C	-0.354561	1.063496	-0.163299
C155	C	-0.021227	1.396829	0.170034
C156	C	0.312106	1.730163	0.503368
C157	C	-0.354378	1.063624	-0.081500
C158	C	-0.021045	1.396957	0.251833
C159	C	0.312288	1.730290	0.585166
H160	H	-0.440047	0.633571	-0.439749
H161	H	-0.106714	0.966904	-0.106416
H162	H	0.226620	1.300237	0.226917
H163	H	-0.784464	1.148952	-0.269201
H164	H	-0.451131	1.482285	0.064133
H165	H	-0.117797	1.815618	0.397466
H166	H	-0.923905	0.978123	-0.439858
H167	H	-0.590572	1.311457	-0.106525
H168	H	-0.257238	1.644790	0.226809
F169	F	-0.451619	1.160674	-0.775519
F170	F	-0.118285	1.494007	-0.442185
F171	F	0.215048	1.827340	-0.108852
H172	H	-0.784462	0.978063	-0.439837
H173	H	-0.451129	1.311397	-0.106503
H174	H	-0.117796	1.644730	0.226830
F175	F	-0.451578	1.160702	-0.934178
F176	F	-0.118245	1.494035	-0.600845
F177	F	0.215089	1.827368	-0.267511
F178	F	-0.257274	0.966458	-0.775583
F179	F	0.076060	1.299791	-0.442250
F180	F	0.409393	1.633124	-0.108917
F181	F	-0.257288	0.643192	-0.257522
F182	F	0.076045	0.976526	0.075811
F183	F	0.409379	1.309859	0.409145
F184	F	-0.933501	1.160792	-0.257481
F185	F	-0.600168	1.494125	0.075852
F186	F	-0.266834	1.827458	0.409186
H187	H	-0.269083	0.494144	-0.269266
H188	H	0.064251	0.827477	0.064068
H189	H	0.397584	1.160811	0.397401
F190	F	-0.451841	0.484534	-0.451506
F191	F	-0.118508	0.817867	-0.118172
F192	F	0.214826	1.151201	0.215161
F193	F	-0.257252	0.966478	-0.934229
F194	F	0.076081	1.299811	-0.600896
F195	F	0.409414	1.633144	-0.267563
