data_functionalizedCrystal
_audit_creation_method	'MofGen! by Chris Wilmer'
_symmetry_space_group_name_H-M	'P1'
_symmetry_Int_Tables_number	1
_symmetry_cell_setting	triclinic
loop_
_symmetry_equiv_pos_as_xyz
  x,y,z
_cell_length_a	21.883469
_cell_length_b	21.882911
_cell_length_c	21.879399
_cell_angle_alpha	60.006540
_cell_angle_beta	60.013207
_cell_angle_gamma	59.992231
loop_
_atom_site_label
_atom_site_type_symbol
_atom_site_fract_x
_atom_site_fract_y
_atom_site_fract_z
O1	O	0.084645	-0.892842	0.746620
O2	O	0.031867	-0.695139	0.601571
O3	O	0.157054	-0.820237	0.601476
O4	O	-0.040542	-0.767744	0.746716
O5	O	0.198586	-0.778715	0.642912
O6	O	0.073399	-0.653617	0.643007
O7	O	0.126177	-0.851320	0.788056
Cu8	Cu	0.103580	-0.748677	0.719315
Cu9	Cu	0.054464	-0.797782	0.670313
O10	O	0.000990	-0.726222	0.788151
N11	N	0.138128	-0.714145	0.753785
N12	N	0.019923	-0.832320	0.635843
C13	C	0.190018	-0.547369	0.805644
C14	C	0.190029	-0.662289	0.805630
C15	C	0.218780	-0.633565	0.834353
C16	C	0.344122	-0.611968	0.768360
C17	C	0.422474	-0.638085	0.742222
C18	C	0.422504	-0.764859	0.790561
C19	C	0.344154	-0.738739	0.816702
C20	C	0.208899	-0.508180	0.728617
C21	C	0.182748	-0.429822	0.702522
C22	C	0.118843	-0.429847	0.830485
C23	C	0.144993	-0.508205	0.856580
C24	C	0.112994	-0.643364	0.824587
C25	C	0.086865	-0.669476	0.798467
C26	C	0.214799	-0.733437	0.734451
C27	C	0.240932	-0.707325	0.760562
C28	C	0.113084	-0.643389	0.959747
C29	C	0.087018	-0.669524	1.038102
C30	C	0.214996	-0.733501	1.038048
C31	C	0.241061	-0.707367	0.959690
C32	C	0.190103	-0.662308	0.920542
C33	C	0.304966	-0.662293	0.805598
C34	C	-0.117460	-0.854702	0.612901
C35	C	-0.002405	-0.854864	0.498145
C36	C	-0.002621	-0.969735	0.613108
C37	C	-0.002603	-0.854858	0.613180
C38	C	-0.031272	-0.883541	0.584334
N39	N	0.460550	-0.714150	0.753681
O40	O	0.699805	-0.721060	0.574973
O41	O	0.700047	-0.866553	0.772482
O42	O	0.699952	-0.866219	0.647213
O43	O	0.699900	-0.721394	0.700242
O44	O	0.575478	-0.824800	0.688791
O45	O	0.575573	-0.825134	0.814060
O46	O	0.575331	-0.679641	0.616551
Cu47	Cu	0.564087	-0.748606	0.719102
Cu48	Cu	0.711292	-0.797588	0.669931
O49	O	0.575426	-0.679975	0.741820
N50	N	0.814828	-0.832044	0.635345
N51	N	0.138106	-0.391772	0.753815
O52	O	-0.040520	-0.152377	0.746758
O53	O	0.156993	-0.152371	0.601281
O54	O	0.031698	-0.152390	0.601639
O55	O	0.084775	-0.152358	0.746401
O56	O	0.073234	-0.276876	0.643130
O57	O	0.198529	-0.276856	0.642772
O58	O	0.001015	-0.276863	0.788249
Cu59	Cu	0.103564	-0.288226	0.719299
Cu60	Cu	0.054444	-0.141007	0.670231
O61	O	0.126310	-0.276844	0.787892
N62	N	0.019892	-0.037461	0.635717
N63	N	0.138332	-0.714192	1.076133
O64	O	0.131293	-0.892804	1.315506
O65	O	-0.014162	-0.695219	1.315533
O66	O	-0.013826	-0.820490	1.315480
O67	O	0.130957	-0.767533	1.315559
O68	O	0.027651	-0.778981	1.191001
O69	O	0.027314	-0.653710	1.191054
O70	O	0.172770	-0.851295	1.191026
Cu71	Cu	0.103829	-0.748713	1.179674
Cu72	Cu	0.054778	-0.797802	1.326885
O73	O	0.172434	-0.726024	1.191079
N74	N	0.020275	-0.832331	1.430426
C75	C	0.047687	-0.649466	0.602306
C76	C	0.202716	-0.804385	0.602188
C77	C	0.110357	-0.896993	0.787321
C78	C	-0.044672	-0.742074	0.787439
C79	C	0.637839	-0.865879	0.818154
C80	C	0.637724	-0.865466	0.663023
C81	C	0.637536	-0.680313	0.570880
C82	C	0.637655	-0.680728	0.726010
C83	C	0.202592	-0.214459	0.601942
C84	C	0.047481	-0.214636	0.602435
C85	C	-0.044635	-0.214620	0.787537
C86	C	0.110528	-0.214598	0.787096
C87	C	-0.013455	-0.649572	1.253296
C88	C	-0.013030	-0.804697	1.253206
C89	C	0.172063	-0.896942	1.253263
C90	C	0.171648	-0.741808	1.253325
H91	H	0.024299	-0.654107	1.070013
H92	H	-0.101359	-0.214623	0.833209
O93	O	0.638021	-0.920466	0.885761
C94	C	0.702661	-1.045266	0.952541
C95	C	0.702537	-0.983518	0.875928
H96	H	0.754824	-1.096253	0.944618
H97	H	0.650633	-1.061687	0.979451
H98	H	0.702638	-1.023543	0.990282
H99	H	0.702586	-1.005189	0.838128
H100	H	0.754560	-0.967106	0.849077
H101	H	0.259199	-0.214112	0.556156
H102	H	0.637745	-0.910963	0.651673
O103	O	-0.067867	-0.581845	1.253337
C104	C	-0.102647	-0.458529	1.253329
C105	C	-0.040967	-0.535201	1.253300
H106	H	-0.080916	-0.420791	1.253283
H107	H	-0.153691	-0.466340	1.305427
H108	H	-0.118984	-0.431677	1.201238
H109	H	-0.024566	-0.562095	1.305356
H110	H	0.010037	-0.527341	1.201168
O111	O	-0.112410	-0.728810	0.841832
C112	C	-0.222314	-0.765126	0.923680
C113	C	-0.145624	-0.780219	0.862071
H114	H	-0.249184	-0.806691	0.940073
H115	H	-0.260050	-0.705696	0.901919
H116	H	-0.214456	-0.771850	0.974699
H117	H	-0.153411	-0.773537	0.811031
H118	H	-0.107915	-0.839644	0.883892
O119	O	0.637476	-0.625907	0.503161
C120	C	0.637300	-0.591083	0.379901
C121	C	0.637388	-0.652770	0.456551
H122	H	0.637213	-0.612774	0.342200
H123	H	0.689374	-0.574725	0.352944
H124	H	0.585189	-0.540057	0.387835
H125	H	0.689463	-0.703836	0.448681
H126	H	0.585279	-0.669065	0.483482
O127	O	-0.067180	-0.818295	1.253082
C128	C	-0.101390	-0.907185	1.252982
C129	C	-0.039994	-0.891879	1.253106
H130	H	-0.079439	-0.966681	1.253018
H131	H	-0.117711	-0.865773	1.200854
H132	H	-0.152499	-0.900442	1.305043
H133	H	0.011155	-0.898631	1.201080
H134	H	-0.023737	-0.933288	1.305268
H135	H	0.637644	-0.635235	0.737357
O136	O	0.124021	-0.214694	0.841451
C137	C	0.131130	-0.279207	0.966061
C138	C	0.115816	-0.279182	0.904573
H139	H	0.124517	-0.331348	1.017104
H140	H	0.089680	-0.227147	0.982487
H141	H	0.190591	-0.279167	0.944085
H142	H	0.056376	-0.279249	0.926497
H143	H	0.157313	-0.331238	0.888155
H144	H	0.036114	-0.214639	0.556956
H145	H	0.303780	-0.722782	0.927774
O146	O	0.126612	-0.546163	0.931434
C147	C	0.060426	-0.537923	1.055606
C148	C	0.081203	-0.494845	0.970857
H149	H	0.023697	-0.496451	1.087504
H150	H	0.113589	-0.574587	1.071053
H151	H	0.028568	-0.574630	1.070999
H152	H	0.113042	-0.458097	0.955403
H153	H	0.028014	-0.458228	0.955455
H154	H	0.217732	-0.953686	1.253245
H155	H	0.217133	-0.730478	1.253340
H156	H	0.071582	-0.606692	0.927876
H157	H	0.024137	-0.654049	0.813885
O158	O	0.264528	-0.777363	1.076036
C159	C	0.365983	-0.892661	1.099913
C160	C	0.309915	-0.843068	1.056858
H161	H	0.402704	-0.945786	1.084411
H162	H	0.334169	-0.908155	1.162659
H163	H	0.402621	-0.860722	1.084502
H164	H	0.273263	-0.874961	1.072206
H165	H	0.341776	-0.827570	0.994123
O166	O	0.063517	-0.599507	0.868249
C167	C	-0.037903	-0.484203	0.878321
C168	C	0.018103	-0.533789	0.828786
H169	H	-0.074644	-0.431067	0.846441
H170	H	-0.006036	-0.468727	0.893721
H171	H	-0.074525	-0.516139	0.931502
H172	H	0.054740	-0.501899	0.775573
H173	H	-0.013810	-0.549268	0.813446
O174	O	0.264349	-0.777154	0.690659
C175	C	0.394006	-0.837880	0.629963
C176	C	0.337971	-0.788351	0.679551
H177	H	0.453541	-0.846961	0.620980
H178	H	0.384999	-0.809171	0.573580
H179	H	0.384954	-0.894224	0.658665
H180	H	0.346989	-0.731998	0.650915
H181	H	0.346991	-0.817119	0.735932
H182	H	0.303660	-0.722726	0.745118
H183	H	0.312274	-0.779724	0.847024
H184	H	0.454413	-0.827107	0.799589
H185	H	0.312222	-0.549720	0.759316
O186	O	0.460476	-0.589152	0.705934
C187	C	0.484352	-0.480510	0.600352
C188	C	0.441281	-0.535887	0.641364
H189	H	0.468836	-0.437422	0.548148
H190	H	0.547093	-0.512263	0.583517
H191	H	0.468975	-0.450818	0.639069
H192	H	0.456595	-0.565595	0.602690
H193	H	0.378551	-0.504093	0.658212
O194	O	0.252521	-0.546194	0.679114
C195	C	0.262481	-0.570119	0.577723
C196	C	0.212995	-0.527036	0.633757
H197	H	0.230551	-0.554634	0.541027
H198	H	0.277913	-0.632864	0.609568
H199	H	0.315644	-0.554714	0.541054
H200	H	0.159801	-0.542378	0.670441
H201	H	0.197624	-0.464301	0.601866
O202	O	0.034107	-0.581687	0.548025
C203	C	-0.054690	-0.458449	0.513604
C204	C	-0.039417	-0.535180	0.575137
H205	H	-0.114128	-0.420822	0.535506
H206	H	-0.048036	-0.466189	0.462546
H207	H	-0.013185	-0.431514	0.497218
H208	H	-0.080909	-0.562158	0.591586
H209	H	-0.046046	-0.527391	0.626153
H210	H	0.198119	-0.397913	0.639797
O211	O	0.270472	-0.817842	0.547865
C212	C	0.393705	-0.906550	0.513249
C213	C	0.317012	-0.891405	0.574840
H214	H	0.431349	-0.966030	0.535030
H215	H	0.420685	-0.865090	0.496889
H216	H	0.385835	-0.899754	0.462204
H217	H	0.324816	-0.898211	0.625925
H218	H	0.290058	-0.932862	0.591137
H219	H	0.121632	-0.953785	0.832877
H220	H	0.082193	-0.397958	0.871963
