data_functionalizedCrystal
_audit_creation_method	'MofGen! by Chris Wilmer'
_symmetry_space_group_name_H-M	'P1'
_symmetry_Int_Tables_number	1
_symmetry_cell_setting	triclinic
loop_
_symmetry_equiv_pos_as_xyz
  x,y,z
_cell_length_a	23.532407
_cell_length_b	16.109301
_cell_length_c	14.586319
_cell_angle_alpha	89.998225
_cell_angle_beta	89.991006
_cell_angle_gamma	83.155131
loop_
_atom_site_label
_atom_site_type_symbol
_atom_site_fract_x
_atom_site_fract_y
_atom_site_fract_z
O1	O	0.073203	1.102556	-0.076200
O2	O	0.082313	0.860422	-0.076214
O3	O	-0.005147	0.988791	-0.076189
O4	O	0.160663	0.974187	-0.076224
O5	O	-0.005149	0.988780	0.076291
O6	O	0.082311	0.860412	0.076267
O7	O	0.073201	1.102546	0.076281
Cu8	Cu	0.077756	0.981478	0.090197
Cu9	Cu	0.077758	0.981490	-0.090129
O10	O	0.160661	0.974177	0.076257
C11	C	0.081943	0.829445	0.000025
C12	C	0.080836	0.737158	0.000021
C13	C	0.129116	0.427781	0.000027
C14	C	0.130161	0.514493	0.000021
C15	C	0.026393	0.535182	0.000030
C16	C	0.025349	0.448471	0.000029
C17	C	0.076712	0.394773	0.000032
C18	C	0.078801	0.568195	0.000028
C19	C	0.079934	0.662212	0.000022
C20	C	0.075580	0.300749	0.000036
C21	C	-0.026365	0.988414	0.000053
C22	C	-0.089586	0.987296	0.000060
C23	C	-0.488435	1.056249	0.000014
C24	C	-0.547839	1.055210	0.000007
O25	O	-0.584348	1.119130	-0.000023
N26	N	-0.570747	0.978895	0.000003
C27	C	-0.534247	0.903614	-0.000003
O28	O	-0.559187	0.838607	-0.000007
C29	C	-0.474844	0.904653	-0.000002
C30	C	-0.451940	0.980973	0.000011
C31	C	-0.465530	1.132562	0.000026
C32	C	-0.406130	1.133601	0.000035
C33	C	-0.369635	1.058325	0.000032
C34	C	-0.392540	0.982011	0.000020
C35	C	-0.438346	0.829373	-0.000015
C36	C	-0.378939	0.830419	-0.000015
C37	C	-0.356035	0.906739	-0.000002
C38	C	-0.296645	0.907774	0.000025
N39	N	-0.273737	0.984089	0.000029
C40	C	-0.310232	1.059365	0.000032
C41	C	-0.658998	0.901437	-0.000005
C42	C	-0.718399	0.900396	0.000001
C43	C	-0.731987	1.051993	0.000009
C44	C	-0.672585	1.053032	0.000009
C45	C	-0.636090	0.977752	-0.000002
C46	C	-0.185487	1.061539	0.000051
C47	C	-0.126082	1.062571	0.000064
C48	C	-0.112499	0.910975	0.000051
C49	C	-0.171899	0.909943	0.000043
C50	C	-0.208393	0.985232	0.000040
O51	O	-0.260101	0.843888	0.000051
O52	O	-0.285284	1.124361	0.000025
C53	C	0.181879	0.974554	0.000012
C54	C	0.245100	0.975672	-0.000001
C55	C	0.073571	1.133523	0.000040
C56	C	0.074677	1.225809	0.000039
N57	N	0.077754	0.981475	0.217029
N58	N	0.077756	0.981499	-0.216961
C59	C	0.039039	1.038339	0.548033
C60	C	0.039039	1.038337	0.452052
C61	C	0.116474	0.924633	0.452041
C62	C	0.116476	0.924639	0.548021
C63	C	0.077755	0.981492	0.596014
C64	C	0.077754	0.981483	0.404053
C65	C	0.077754	0.981480	0.299986
C66	C	0.077755	0.981495	0.700088
H67	H	-0.017327	0.421597	0.000031
F68	F	-0.002167	1.098843	0.400990
H69	H	0.147999	0.878344	0.412955
F70	F	-0.381762	1.214831	0.000029
F71	F	-0.462709	0.748142	-0.000033
F72	F	-0.504363	1.212688	0.000029
H73	H	-0.015425	0.578914	0.000030
H74	H	-0.653940	1.115179	0.000019
F75	F	0.185937	0.549618	0.000012
H76	H	-0.107437	1.124722	0.000077
H77	H	0.170940	0.384061	0.000028
H78	H	-0.082774	0.849688	0.000051
H79	H	0.007511	1.084632	0.587107
F80	F	-0.620162	0.821307	-0.000009
F81	F	-0.224318	1.141671	0.000048
F82	F	-0.770839	1.132108	0.000008
H83	H	-0.737042	0.838249	0.000006
H84	H	0.148006	0.878347	0.587089
F85	F	-0.340102	0.750292	-0.000029
F86	F	-0.196277	0.828715	0.000046
