data_functionalizedCrystal
_audit_creation_method	'MofGen! by Chris Wilmer'
_symmetry_space_group_name_H-M	'P1'
_symmetry_Int_Tables_number	1
_symmetry_cell_setting	triclinic
loop_
_symmetry_equiv_pos_as_xyz
  x,y,z
_cell_length_a	13.034570
_cell_length_b	13.897449
_cell_length_c	13.032268
_cell_angle_alpha	97.163294
_cell_angle_beta	105.145796
_cell_angle_gamma	82.841508
loop_
_atom_site_label
_atom_site_type_symbol
_atom_site_fract_x
_atom_site_fract_y
_atom_site_fract_z
Zn1	Zn	-0.498952	1.456439	-0.654292
Zn2	Zn	-0.654007	1.492694	-0.499273
Zn3	Zn	-0.476455	1.313323	-0.476708
Zn4	Zn	-0.676481	1.313278	-0.676822
O5	O	-0.576474	1.393934	-0.576774
O6	O	-0.519530	1.596230	-0.633743
O7	O	-0.611634	1.484092	-0.347655
O8	O	-0.330837	1.317153	-0.481393
O9	O	-0.633448	1.622866	-0.519851
O10	O	-0.347366	1.422300	-0.611863
O11	O	-0.481187	1.352309	-0.331077
O12	O	-0.502979	1.178336	-0.503239
O13	O	-0.671752	1.317077	-0.822457
O14	O	-0.649937	1.178303	-0.650262
O15	O	-0.541323	1.422257	-0.805905
O16	O	-0.805591	1.484049	-0.541697
O17	O	-0.822102	1.352232	-0.672142
C18	C	-0.576457	1.143320	-0.576748
C19	C	-0.576478	1.036107	-0.576765
C20	C	-0.576485	0.839809	-0.576793
C21	C	-0.576478	0.949043	-0.576774
C22	C	-0.852380	1.422093	-0.611836
C23	C	-0.970419	1.434225	-0.626871
C24	C	-1.136937	1.400204	-0.584503
C25	C	-1.014938	1.387665	-0.568968
C26	C	-0.299493	1.365688	-0.541598
C27	C	-0.181460	1.353651	-0.526608
C28	C	-0.611554	1.365618	-0.853795
C29	C	-0.626503	1.353551	-0.971845
C30	C	-0.576492	1.645526	-0.576801
C31	C	-0.576500	1.752739	-0.576812
C32	C	-0.568634	1.400212	-1.016285
C33	C	-0.584083	1.387742	-1.138296
C34	C	-0.541454	1.422187	-0.300820
C35	C	-0.526206	1.434410	-0.182733
H36	H	-0.962742	1.338526	-0.507894
H37	H	-0.687477	1.304364	-1.024125
H38	H	-1.189137	1.449348	-0.645564
C39	C	-1.110952	1.287264	-0.444108
C40	C	-1.024115	1.329856	-0.351121
C41	C	-0.953609	1.263467	-0.268619
C42	C	-0.969941	1.154487	-0.279104
C43	C	-1.056782	1.111889	-0.372095
C44	C	-1.127288	1.178278	-0.454597
H45	H	-1.012022	1.410535	-0.343356
H46	H	-0.889324	1.295001	-0.199781
H47	H	-0.917749	1.105342	-0.218031
H48	H	-1.068875	1.031210	-0.379860
H49	H	-1.191573	1.146744	-0.523435
C50	C	-0.443816	1.500856	-1.112120
C51	C	-0.454394	1.609858	-1.128377
C52	C	-0.372006	1.676303	-1.057764
C53	C	-0.279041	1.633746	-0.970892
C54	C	-0.268459	1.524738	-0.954630
C55	C	-0.350847	1.458294	-1.025244
H56	H	-0.523215	1.641366	-1.192689
H57	H	-0.379840	1.756997	-1.069802
H58	H	-0.218053	1.682932	-0.918619
H59	H	-0.199637	1.493230	-0.890319
H60	H	-0.343013	1.377599	-1.013205
C61	C	-0.486251	1.466656	-0.945667
C62	C	-0.393287	1.424101	-0.858793
C63	C	-0.310902	1.490547	-0.788176
C64	C	-0.321482	1.599549	-0.804433
C65	C	-0.414450	1.642111	-0.891311
C66	C	-0.496835	1.575664	-0.961928
H67	H	-0.385451	1.343406	-0.846755
H68	H	-0.242081	1.459040	-0.723863
H69	H	-0.260497	1.648737	-0.752158
H70	H	-0.422286	1.722806	-0.903349
H71	H	-0.565656	1.607172	-1.026240
C72	C	-0.666473	1.321296	-1.208910
C73	C	-0.759438	1.363853	-1.295781
C74	C	-0.841825	1.297409	-1.366395
C75	C	-0.831248	1.188407	-1.350138
C76	C	-0.738279	1.145844	-1.263262
C77	C	-0.655891	1.212289	-1.192648
H78	H	-0.767271	1.444548	-1.307820
H79	H	-0.910647	1.328918	-1.430707
H80	H	-0.892236	1.139221	-1.402411
H81	H	-0.730446	1.065149	-1.251224
H82	H	-0.587070	1.180780	-1.128337
H83	H	-1.022614	1.483372	-0.687938
