data_functionalizedCrystal
_audit_creation_method	'MofGen! by Chris Wilmer'
_symmetry_space_group_name_H-M	'P1'
_symmetry_Int_Tables_number	1
_symmetry_cell_setting	triclinic
loop_
_symmetry_equiv_pos_as_xyz
  x,y,z
_cell_length_a	29.019771
_cell_length_b	29.019011
_cell_length_c	29.015668
_cell_angle_alpha	60.004890
_cell_angle_beta	60.009825
_cell_angle_gamma	59.993818
loop_
_atom_site_label
_atom_site_type_symbol
_atom_site_fract_x
_atom_site_fract_y
_atom_site_fract_z
O1	O	0.063866	-0.673289	0.563007
O2	O	0.024059	-0.524205	0.453633
O3	O	0.118464	-0.618532	0.453552
O4	O	-0.030540	-0.578962	0.563088
O5	O	0.149785	-0.587215	0.484789
O6	O	0.055379	-0.492888	0.484869
O7	O	0.095186	-0.641972	0.594244
Cu8	Cu	0.078143	-0.564571	0.542409
Cu9	Cu	0.041102	-0.601606	0.505468
O10	O	0.000781	-0.547645	0.594325
N11	N	0.104196	-0.538525	0.568394
N12	N	0.015054	-0.627656	0.479483
C13	C	0.143783	-0.499167	0.850823
C14	C	0.386758	-0.499111	0.607645
C15	C	0.143618	-0.499136	0.607763
C16	C	0.143598	-0.256029	0.607770
C17	C	0.182748	-0.373362	0.646852
C18	C	0.182758	-0.460025	0.646847
C19	C	0.204440	-0.438361	0.668500
C20	C	0.298958	-0.422064	0.618723
C21	C	0.358043	-0.441753	0.599006
C22	C	0.358069	-0.537354	0.635461
C23	C	0.298985	-0.517664	0.655180
C24	C	0.196983	-0.343808	0.588767
C25	C	0.177262	-0.284720	0.569090
C26	C	0.129075	-0.284743	0.665586
C27	C	0.148797	-0.343831	0.685263
C28	C	0.124666	-0.445760	0.661149
C29	C	0.104961	-0.465454	0.641458
C30	C	0.201435	-0.513678	0.593176
C31	C	0.221143	-0.493984	0.612860
C32	C	0.124738	-0.445777	0.763064
C33	C	0.105085	-0.465488	0.822151
C34	C	0.201594	-0.513722	0.822097
C35	C	0.221247	-0.494012	0.763009
C36	C	0.182817	-0.460038	0.733494
C37	C	0.269432	-0.460018	0.646809
C38	C	0.121399	-0.520450	0.915812
C39	C	0.451745	-0.520012	0.585655
C40	C	0.121177	-0.520429	0.586502
C41	C	0.121544	-0.191035	0.586883
C42	C	-0.110592	-0.666601	0.440035
C43	C	-0.023978	-0.666709	0.440231
C44	C	-0.045598	-0.688342	0.418486
C45	C	-0.061967	-0.782825	0.468184
C46	C	-0.042323	-0.841914	0.487907
C47	C	0.053280	-0.842025	0.451623
C48	C	0.033634	-0.782937	0.431899
C49	C	-0.140218	-0.680832	0.498102
C50	C	-0.199302	-0.661065	0.517690
C51	C	-0.199129	-0.612843	0.421140
C52	C	-0.140045	-0.632610	0.401552
C53	C	-0.038209	-0.608622	0.425941
C54	C	-0.018555	-0.588961	0.445716
C55	C	0.029562	-0.685470	0.494059
C56	C	0.009908	-0.705133	0.474291
C57	C	-0.038037	-0.608631	0.323917
C58	C	-0.018247	-0.588973	0.264830
C59	C	0.029955	-0.685489	0.264893
C60	C	0.010165	-0.705145	0.323981
C61	C	-0.023833	-0.666715	0.353492
C62	C	-0.023990	-0.753339	0.440182
N63	N	0.504925	-0.538487	0.568205
O64	O	0.685342	-0.543679	0.433426
O65	O	0.685533	-0.653395	0.582361
O66	O	0.685457	-0.653145	0.487904
O67	O	0.685418	-0.543929	0.527882
O68	O	0.591592	-0.621921	0.519268
O69	O	0.591667	-0.622171	0.613725
O70	O	0.591477	-0.512455	0.464790
Cu71	Cu	0.583001	-0.564462	0.542121
Cu72	Cu	0.694008	-0.601388	0.505029
O73	O	0.591553	-0.512705	0.559246
N74	N	0.772084	-0.627363	0.478939
N75	N	0.104168	-0.137853	0.568408
O76	O	-0.030538	0.042663	0.563097
O77	O	0.118403	0.042683	0.453379
O78	O	0.023918	0.042657	0.453664
O79	O	0.063947	0.042689	0.562813
O80	O	0.055242	-0.051215	0.484950
O81	O	0.149727	-0.051189	0.484666
O82	O	0.000787	-0.051210	0.594384
Cu83	Cu	0.078117	-0.059771	0.542381
Cu84	Cu	0.041072	0.051244	0.505382
O85	O	0.095272	-0.051184	0.594099
N86	N	0.015015	0.129326	0.479356
N87	N	0.104469	-0.538576	0.968995
O88	O	0.099171	-0.673268	1.149499
O89	O	-0.010519	-0.524279	1.149527
O90	O	-0.010265	-0.618748	1.149494
O91	O	0.098916	-0.578799	1.149533
O92	O	0.021008	-0.587443	1.055625
O93	O	0.020753	-0.492974	1.055659
O94	O	0.130444	-0.641963	1.055630
Cu95	Cu	0.078454	-0.564610	1.047074
Cu96	Cu	0.041470	-0.601632	1.158084
O97	O	0.130189	-0.547494	1.055664
N98	N	0.015455	-0.627672	1.236163
C99	C	0.035988	-0.489761	0.454182
C100	C	0.152897	-0.606574	0.454082
C101	C	0.083257	-0.676417	0.593694
C102	C	-0.033653	-0.559604	0.593794
C103	C	0.638623	-0.652892	0.616806
C104	C	0.638531	-0.652583	0.499833
C105	C	0.638384	-0.512957	0.430345
C106	C	0.638480	-0.513267	0.547317
C107	C	0.152789	-0.004135	0.453875
C108	C	0.035820	-0.004282	0.454266
C109	C	-0.033639	-0.004275	0.593849
C110	C	0.083370	-0.004245	0.593498
C111	C	-0.009989	-0.489856	1.102597
C112	C	-0.009667	-0.606839	1.102536
C113	C	0.129914	-0.676386	1.102561
C114	C	0.129599	-0.559396	1.102601
H115	H	0.093440	-0.418108	0.739036
H116	H	0.027485	-0.446933	0.419832
H117	H	0.163899	-0.550848	1.102605
O118	O	0.209585	-0.617736	0.408515
H119	H	0.237229	-0.661388	0.424541
H120	H	-0.043953	-0.615372	1.102487
H121	H	0.164353	-0.719173	1.102545
H122	H	0.027247	-0.004286	0.419974
O123	O	0.094514	-0.733141	0.639203
H124	H	0.138173	-0.760732	0.623117
H125	H	0.638471	-0.478960	0.555871
H126	H	-0.076413	-0.004282	0.628294
O127	O	0.233607	-0.375664	0.547343
H128	H	0.212506	-0.402596	0.554020
O129	O	-0.090338	-0.548439	0.639363
H130	H	-0.117979	-0.504784	0.623341
O131	O	0.638305	-0.467323	0.373691
H132	H	0.676539	-0.455333	0.353976
O133	O	0.209342	-0.003858	0.408129
H134	H	0.203333	0.034455	0.370760
H135	H	0.091941	-0.004235	0.627787
O136	O	0.638691	-0.698518	0.673466
H137	H	0.600450	-0.710498	0.693183
O138	O	0.042438	-0.450090	0.854041
H139	H	0.019022	-0.423148	0.823588
O140	O	0.243064	-0.550392	0.853904
H141	H	0.269996	-0.526959	0.842552
O142	O	0.283893	-0.509393	0.731114
H143	H	0.307311	-0.536321	0.761567
O144	O	0.083268	-0.409142	0.697813
H145	H	0.039563	-0.402530	0.704446
O146	O	0.042307	-0.450075	0.656872
H147	H	0.022978	-0.465984	0.703457
O148	O	0.242835	-0.550305	0.556522
H149	H	0.286540	-0.556911	0.549885
H150	H	0.638547	-0.686893	0.491276
O151	O	-0.055612	-0.433180	1.102611
H152	H	-0.039658	-0.405503	1.102629
H153	H	0.268446	-0.505593	0.601208
H154	H	0.382132	-0.584293	0.642268
O155	O	0.267135	-0.558599	0.685467
H156	H	0.297614	-0.601990	0.687965
H157	H	0.274901	-0.375125	0.611905
O158	O	0.389894	-0.400819	0.568713
H159	H	0.359417	-0.357426	0.566201
H160	H	0.101438	-0.260698	0.696864
O161	O	0.192616	-0.252837	0.506438
H162	H	0.219543	-0.283299	0.483035
H163	H	-0.029822	-0.541673	0.240758
O164	O	0.133416	-0.375701	0.747918
H165	H	0.149309	-0.364370	0.767282
O166	O	-0.074704	-0.567181	0.355748
H167	H	-0.081254	-0.523488	0.325256
H168	H	0.057627	-0.716785	0.240872
H169	H	0.021738	-0.752445	0.348058
O170	O	-0.230905	-0.576181	0.379638
H171	H	-0.219534	-0.599641	0.352715
O172	O	-0.033802	-0.526310	0.430210
H173	H	-0.060626	-0.502893	0.403165
H174	H	-0.065797	-0.577331	0.398207
H175	H	0.057158	-0.716762	0.521784
H176	H	0.021495	-0.752433	0.485928
H177	H	0.064563	-0.758931	0.409098
H178	H	0.100203	-0.866125	0.444882
H179	H	-0.108889	-0.758731	0.474933
O180	O	-0.083282	-0.873721	0.518114
H181	H	-0.126653	-0.843212	0.520566
H182	H	-0.116238	-0.708516	0.529438
H183	H	-0.115923	-0.621016	0.354266
O184	O	-0.231263	-0.676412	0.580324
H185	H	-0.200855	-0.703374	0.603792
