data_functionalizedCrystal
_audit_creation_method	'MofGen! by Chris Wilmer'
_symmetry_space_group_name_H-M	'P1'
_symmetry_Int_Tables_number	1
_symmetry_cell_setting	triclinic
loop_
_symmetry_equiv_pos_as_xyz
  x,y,z
_cell_length_a	17.917603
_cell_length_b	14.560438
_cell_length_c	14.560438
_cell_angle_alpha	60.000069
_cell_angle_beta	89.999714
_cell_angle_gamma	57.011185
loop_
_atom_site_label
_atom_site_type_symbol
_atom_site_fract_x
_atom_site_fract_y
_atom_site_fract_z
Zr1	Zr	0.754908	0.920723	-0.078228
O2	O	0.629784	1.126341	-0.231881
O3	O	0.793265	0.724825	-0.031128
O4	O	0.793265	0.916429	-0.222729
O5	O	0.629784	0.934734	0.110861
O6	O	0.922222	0.901985	-0.215507
O7	O	0.629783	0.934737	-0.040280
O8	O	0.922222	0.559241	0.127232
O9	O	0.629784	1.277479	-0.231878
O10	O	0.905863	0.791021	-0.005647
O11	O	0.809624	0.801799	0.101757
O12	O	0.809624	1.027388	-0.123828
O13	O	0.713385	1.038165	-0.016423
Zr14	Zr	0.960580	0.897682	0.174343
Zr15	Zr	0.960580	0.897686	-0.066710
Zr16	Zr	0.754908	0.920719	0.162824
Zr17	Zr	0.754908	1.161770	-0.078224
Zr18	Zr	0.960579	0.656635	0.174338
O19	O	0.922223	1.093580	0.127242
O20	O	0.922222	1.093586	-0.215503
O21	O	0.629784	1.126335	0.110864
O22	O	1.085704	0.692064	0.327995
O23	O	1.085704	0.692070	-0.014750
O24	O	0.793265	0.724819	0.311617
O25	O	1.085704	0.883671	-0.014746
O26	O	0.922223	0.901976	0.318843
O27	O	0.793266	0.916420	0.311621
O28	O	1.085704	0.883668	0.136395
O29	O	0.793265	1.259168	-0.222722
O30	O	0.922222	0.559237	0.318837
O31	O	1.085704	0.540926	0.327992
O32	O	1.085704	0.540930	0.136388
O33	O	0.629784	1.277475	-0.040274
O34	O	0.793266	1.259164	-0.031118
O35	O	0.905863	0.791017	0.219942
O36	O	1.002103	0.780240	0.112537
O37	O	0.905864	1.016606	-0.005643
O38	O	0.809624	1.027384	0.101762
C39	C	0.857743	0.607689	0.048051
C40	C	0.857743	0.505358	0.048049
C41	C	0.600480	0.938018	0.033649
C42	C	0.513167	0.947797	0.028759
C43	C	0.907977	0.451656	-0.008015
C44	C	0.907981	0.355497	-0.008004
C45	C	0.807509	0.366753	0.104136
C46	C	0.807511	0.462904	0.104132
C47	C	0.353322	0.965661	0.019829
C48	C	0.362158	0.852750	0.076283
C49	C	0.273215	0.862689	0.071314
C50	C	0.442272	0.955724	0.024796
C51	C	1.115008	0.880387	0.062465
C52	C	1.202321	0.870608	0.067355
C53	C	0.857743	0.909208	-0.253463
C54	C	0.857743	0.909210	-0.355796
C55	C	0.857744	1.210716	0.048063
C56	C	0.857744	1.313047	0.048065
C57	C	0.928787	0.901254	-0.399893
C58	C	0.928789	0.901242	-0.496038
C59	C	0.786697	0.917148	-0.503985
C60	C	0.786699	0.917150	-0.407836
C61	C	0.857744	0.909197	0.349577
C62	C	0.857744	0.909195	0.451910
C63	C	1.115007	0.578874	0.062460
C64	C	1.202320	0.466763	0.067348
C65	C	0.857744	0.607683	0.349571
C66	C	0.857744	0.505351	0.451902
C67	C	1.115008	0.578868	0.363979
C68	C	1.202321	0.466756	0.471200
C69	C	0.600480	1.239537	-0.267865
C70	C	0.513167	1.351649	-0.375086
C71	C	0.600480	1.239531	0.033655
C72	C	0.513167	1.351642	0.028767
C73	C	0.857744	1.210722	-0.253457
C74	C	0.857744	1.313055	-0.355788
C75	C	1.193087	0.419743	0.007942
C76	C	1.275119	0.314417	0.012512
C77	C	1.366383	0.256107	0.076495
C78	C	1.375614	0.303138	0.135902
C79	C	1.293583	0.408468	0.131325
C80	C	1.293568	0.408480	0.465489
C81	C	1.375616	0.303151	0.566225
C82	C	1.366414	0.256093	0.672673
C83	C	1.275157	0.314380	0.678382
C84	C	1.193111	0.419713	0.577646
C85	C	0.421919	1.409937	-0.369374
C86	C	0.339871	1.515295	-0.470111
C87	C	0.349073	1.562358	-0.576558
C88	C	0.440331	1.504066	-0.582267
C89	C	0.522376	1.398715	-0.481532
C90	C	0.522400	1.398673	0.088162
C91	C	0.440368	1.504025	0.083566
C92	C	0.349104	1.562338	0.019580
C93	C	0.339873	1.515303	-0.039823
C94	C	0.421904	1.409959	-0.035233
C95	C	0.907979	0.451645	0.561669
C96	C	0.907968	0.355502	0.657815
C97	C	0.807485	0.366777	0.534415
C98	C	0.807491	0.462924	0.438270
H99	H	0.948880	0.486218	-0.053679
C100	C	1.303756	0.460165	0.196694
N101	N	1.311425	0.499097	0.245935
H102	H	0.278966	1.069783	-0.032232
C103	C	0.752262	0.521960	0.165829
N104	N	0.710657	0.566432	0.212305
H105	H	0.265555	1.562798	-0.091920
C106	C	0.752248	0.320056	0.165813
N107	N	0.710621	0.284889	0.212264
H108	H	1.433229	0.170323	0.754689
H109	H	0.986640	0.894760	-0.531938
C110	C	1.475990	0.239043	0.559920
N111	N	1.551589	0.190757	0.555167
H112	H	0.447903	1.542302	0.131944
H113	H	0.948887	0.311773	-0.053655
H114	H	0.986636	0.894785	-0.357522
C115	C	0.462617	0.712073	0.146611
N116	N	0.538284	0.606119	0.199575
C117	C	0.708505	0.925994	-0.359372
N118	N	0.649599	0.932684	-0.322883
H119	H	1.118783	0.467217	-0.044174
H120	H	1.267679	0.276050	0.765064
H121	H	1.118816	0.467149	0.582312
H122	H	1.433170	0.170340	0.080213
C123	C	1.476014	0.238972	0.206289
N124	N	1.551637	0.190632	0.259311
H125	H	0.414408	1.371625	-0.282709
H126	H	0.728853	0.923616	-0.546367
C127	C	0.239498	1.579396	-0.463806
N128	N	0.163899	1.627674	-0.459053
H129	H	1.267584	0.276139	-0.035866
C130	C	0.258811	1.678238	-0.687361
N131	N	0.190821	1.765514	-0.770814
C132	C	0.450437	1.555839	-0.699371
N133	N	0.458046	1.594830	-0.787577
H134	H	0.414373	1.371671	-0.083598
C135	C	0.963250	0.498320	0.576668
N136	N	1.004878	0.533478	0.587970
H137	H	1.301079	0.446778	0.378824
H138	H	0.596672	1.351258	-0.486196
H139	H	0.948873	0.311781	0.747189
H140	H	0.596704	1.351202	0.140274
C141	C	0.752218	0.320089	0.519433
N142	N	0.710592	0.284922	0.508146
H143	H	0.282317	1.648115	0.015851
H144	H	0.766579	0.506656	0.348887
