data_functionalizedCrystal
_audit_creation_method	'MofGen! by Chris Wilmer'
_symmetry_space_group_name_H-M	'P1'
_symmetry_Int_Tables_number	1
_symmetry_cell_setting	triclinic
loop_
_symmetry_equiv_pos_as_xyz
  x,y,z
_cell_length_a	12.827893
_cell_length_b	15.297327
_cell_length_c	12.827885
_cell_angle_alpha	99.642715
_cell_angle_beta	89.980728
_cell_angle_gamma	99.706564
loop_
_atom_site_label
_atom_site_type_symbol
_atom_site_fract_x
_atom_site_fract_y
_atom_site_fract_z
Zn1	Zn	1.525601	-0.359117	-0.662774
Zn2	Zn	1.495216	-0.510002	-0.518254
Zn3	Zn	1.350834	-0.359161	-0.488057
Zn4	Zn	1.320562	-0.509935	-0.692941
O5	O	1.423053	-0.434554	-0.590506
O6	O	1.667805	-0.379142	-0.643616
O7	O	1.476016	-0.490040	-0.368022
O8	O	1.399403	-0.232910	-0.485971
O9	O	1.645481	-0.489997	-0.537438
O10	O	1.527804	-0.232878	-0.614335
O11	O	1.369939	-0.379217	-0.345836
O12	O	1.200584	-0.379152	-0.515222
O13	O	1.347808	-0.489883	-0.835166
O14	O	1.178343	-0.489925	-0.665749
O15	O	1.498450	-0.379077	-0.813003
O16	O	1.446662	-0.636239	-0.566689
O17	O	1.318345	-0.636189	-0.695031
C18	C	1.151547	-0.434537	-0.590483
C19	C	1.035391	-0.434551	-0.590502
C20	C	1.375950	-0.668948	-0.637433
C21	C	1.355894	-0.769223	-0.657544
C22	C	0.972611	-0.489451	-0.664907
C23	C	0.852558	-0.489467	-0.664929
C24	C	1.566825	-1.051858	-0.447130
C25	C	1.585667	-0.957645	-0.428230
C26	C	1.528226	-0.910535	-0.485557
C27	C	1.451938	-0.957647	-0.561787
C28	C	1.433088	-1.051869	-0.580683
C29	C	1.394489	-0.910546	-0.619110
C30	C	1.318201	-0.957658	-0.695340
C31	C	1.299355	-1.051871	-0.714233
C32	C	1.356796	-1.098981	-0.656906
C33	C	1.413339	-0.816324	-0.600214
C34	C	1.279602	-0.816335	-0.733767
C35	C	1.260760	-0.910548	-0.752667
C36	C	1.695620	-0.434572	-0.590531
C37	C	1.811771	-0.434580	-0.590541
C38	C	1.423142	-0.434468	-0.863059
C39	C	1.423180	-0.434431	-0.979205
C40	C	1.470370	-0.199245	-0.543419
C41	C	1.490533	-0.098970	-0.523353
C42	C	1.497731	-0.379590	-1.020021
C43	C	1.497772	-0.379551	-1.140063
C44	C	1.423038	-0.434575	-0.319001
C45	C	1.423254	-0.434358	-0.202805
H46	H	1.007743	-0.536437	-0.728595
H47	H	0.798610	-0.536471	-0.728627
H48	H	1.232826	-0.777979	-0.780445
O49	O	1.346939	-0.490316	-1.043467
C50	C	1.246710	-0.470641	-1.012910
H51	H	1.255880	-0.398604	-0.968419
H52	H	1.193623	-0.478329	-1.086274
H53	H	1.209581	-0.519080	-0.959331
H54	H	0.865711	-0.387579	-0.526834
O55	O	0.993669	-0.378405	-0.514471
C56	C	1.075347	-0.327373	-0.445268
H57	H	1.153834	-0.324222	-0.487363
H58	H	1.057995	-0.256311	-0.420060
H59	H	1.080261	-0.360320	-0.372424
O60	O	1.487372	-0.770664	-0.526048
C61	C	1.459949	-0.793755	-0.426506
H62	H	1.406084	-0.862191	-0.438033
H63	H	1.534751	-0.796960	-0.380355
H64	H	1.416839	-0.740788	-0.380639
O65	O	1.573894	-0.323408	-1.181837
C66	C	1.569135	-0.233479	-1.137263
H67	H	1.529395	-0.231572	-1.057605
H68	H	1.652690	-0.193028	-1.125547
H69	H	1.521475	-0.203118	-1.192592
H70	H	1.341461	-1.175698	-0.672293
O71	O	1.347241	-0.490421	-1.160788
C72	C	1.395069	-0.548678	-1.109337
H73	H	1.480673	-0.516857	-1.086735
H74	H	1.350134	-0.560730	-1.034947
H75	H	1.393075	-0.615554	-1.164721
O76	O	1.546697	-0.819017	-0.467106
C77	C	1.626329	-0.787536	-0.387515
H78	H	1.676533	-0.841800	-0.383809
H79	H	1.678591	-0.724458	-0.406433
H80	H	1.588258	-0.770893	-0.307946
O81	O	1.659844	-0.912023	-0.354188
C82	C	1.706486	-0.973803	-0.307626
H83	H	1.696649	-1.040934	-0.363895
H84	H	1.794285	-0.946530	-0.291085
H85	H	1.666244	-0.983900	-0.230249
H86	H	1.561524	-0.332665	-0.966093
H87	H	1.613579	-1.090224	-0.400457
O88	O	1.225363	-1.097595	-0.788418
C89	C	1.252757	-1.074472	-0.887952
H90	H	1.341432	-1.048511	-0.888093
H91	H	1.231336	-1.136405	-0.951993
H92	H	1.207654	-1.019803	-0.904255
O93	O	1.186771	-0.956278	-0.826852
C94	C	1.214162	-0.933158	-0.926387
H95	H	1.302836	-0.907190	-0.926528
H96	H	1.192750	-0.995094	-0.990425
H97	H	1.169051	-0.878496	-0.942696
