data_functionalizedCrystal
_audit_creation_method	'MofGen! by Chris Wilmer'
_symmetry_space_group_name_H-M	'P1'
_symmetry_Int_Tables_number	1
_symmetry_cell_setting	triclinic
loop_
_symmetry_equiv_pos_as_xyz
  x,y,z
_cell_length_a	16.959455
_cell_length_b	21.295416
_cell_length_c	16.959447
_cell_angle_alpha	90.032720
_cell_angle_beta	89.979626
_cell_angle_gamma	89.972649
loop_
_atom_site_label
_atom_site_type_symbol
_atom_site_fract_x
_atom_site_fract_y
_atom_site_fract_z
Zn1	Zn	1.208327	0.250647	-0.447023
Zn2	Zn	1.208226	0.355924	-0.314839
Zn3	Zn	1.076156	0.250667	-0.314847
Zn4	Zn	1.076097	0.355877	-0.446964
O5	O	1.142202	0.303278	-0.380918
O6	O	1.318925	0.264623	-0.429510
O7	O	1.190689	0.341989	-0.204229
O8	O	1.093756	0.162575	-0.332408
O9	O	1.318851	0.341970	-0.332395
O10	O	1.190862	0.162560	-0.429518
O11	O	1.093658	0.264657	-0.204235
O12	O	0.965537	0.264612	-0.332351
O13	O	1.093655	0.341890	-0.557582
O14	O	0.965494	0.341909	-0.429416
O15	O	1.190804	0.264578	-0.557626
O16	O	1.190632	0.444007	-0.332338
O17	O	1.093557	0.443972	-0.429409
C18	C	0.936835	0.303258	-0.380878
C19	C	0.848979	0.303264	-0.380880
C20	C	0.477454	0.343513	-0.330325
C21	C	0.477553	0.263096	-0.431608
C22	C	0.560098	0.263086	-0.431589
C23	C	0.601326	0.303290	-0.380937
C24	C	0.560007	0.343505	-0.330305
C25	C	0.601423	0.222877	-0.482225
C26	C	0.683974	0.222865	-0.482209
C27	C	0.725203	0.263067	-0.431553
C28	C	0.683879	0.303282	-0.380918
C29	C	0.725107	0.343487	-0.330267
C30	C	0.683785	0.383700	-0.279628
C31	C	0.601236	0.383707	-0.279650
C32	C	0.807751	0.263060	-0.431531
C33	C	0.807660	0.343479	-0.330248
C34	C	1.142099	0.466830	-0.380883
C35	C	1.142127	0.536798	-0.380895
C36	C	1.192719	0.569662	-0.330403
C37	C	1.192756	0.635404	-0.330425
C38	C	1.142187	0.668281	-0.380929
C39	C	1.091592	0.635409	-0.431430
C40	C	1.091562	0.569668	-0.431413
N41	N	1.073041	0.771543	-0.386947
N42	N	1.073072	0.833995	-0.386959
C43	C	1.142277	0.866355	-0.380985
N44	N	1.211451	0.833905	-0.374984
N45	N	1.211419	0.771448	-0.374968
C46	C	1.142215	0.739566	-0.380954
C47	C	1.192913	0.970505	-0.330514
C48	C	1.192952	1.036248	-0.330541
C49	C	1.091781	1.036252	-0.431543
C50	C	1.091749	0.970509	-0.431520
C51	C	1.142314	0.937640	-0.381001
C52	C	1.348370	0.303299	-0.380959
C53	C	1.436226	0.303308	-0.380976
C54	C	1.142235	0.303226	-0.587086
C55	C	1.142249	0.303204	-0.674943
C56	C	1.142328	1.139088	-0.380984
C57	C	1.142384	1.069120	-0.381047
C58	C	1.091762	0.343390	-1.046399
C59	C	1.192924	0.262885	-1.046439
C60	C	1.192903	0.262898	-0.963893
C61	C	1.142312	0.303159	-0.922596
C62	C	1.091741	0.343406	-0.963845
C63	C	1.243479	0.222656	-0.922638
C64	C	1.243460	0.222668	-0.840087
C65	C	1.192864	0.262926	-0.798789
C66	C	1.142291	0.303175	-0.840043
C67	C	1.091699	0.343436	-0.798746
C68	C	1.041121	0.383681	-0.839998
C69	C	1.041145	0.383664	-0.922546
C70	C	1.192840	0.262943	-0.716240
C71	C	1.091678	0.343451	-0.716192
C72	C	1.142214	0.303285	-0.175552
C73	C	1.142354	0.303130	-0.087696
H74	H	0.841222	0.376217	-0.288998
H75	H	1.284672	0.189882	-0.956268
Cl76	Cl	0.425723	0.212563	-0.495288
H77	H	0.841392	0.230320	-0.472763
H78	H	1.234118	0.230110	-1.080068
Cl79	Cl	0.425509	0.394061	-0.266664
H80	H	0.567850	0.190148	-0.523468
H81	H	0.717611	0.190121	-0.523442
H82	H	1.050580	0.376156	-1.079990
Cl83	Cl	1.027954	0.528351	-0.494893
Cl84	Cl	1.307039	0.172073	-0.788235
H85	H	1.233894	0.542901	-0.289270
H86	H	1.234022	0.230178	-0.682656
Cl87	Cl	1.256361	0.676727	-0.266943
Cl88	Cl	1.028023	0.676738	-0.494926
Cl89	Cl	0.549284	0.434257	-0.215997
Cl90	Cl	0.735623	0.434245	-0.215960
Cl91	Cl	1.256479	0.929180	-0.267006
H92	H	1.234155	1.063005	-0.289426
Cl93	Cl	1.028213	1.077576	-0.495041
Cl94	Cl	1.028140	0.929192	-0.494995
Cl95	Cl	0.977527	0.434296	-0.788072
H96	H	1.050472	0.376231	-0.682574
Cl97	Cl	0.977572	0.434257	-0.974411
