data_functionalizedCrystal
_audit_creation_method	'MofGen! by Chris Wilmer'
_symmetry_space_group_name_H-M	'P1'
_symmetry_Int_Tables_number	1
_symmetry_cell_setting	triclinic
loop_
_symmetry_equiv_pos_as_xyz
  x,y,z
_cell_length_a	17.699083
_cell_length_b	16.176319
_cell_length_c	17.699083
_cell_angle_alpha	90.008460
_cell_angle_beta	96.716985
_cell_angle_gamma	90.005199
loop_
_atom_site_label
_atom_site_type_symbol
_atom_site_fract_x
_atom_site_fract_y
_atom_site_fract_z
O1	O	-1.004072	0.068624	0.095715
O2	O	-0.783693	0.068653	0.108167
O3	O	-0.900109	0.068630	-0.008248
O4	O	-0.887656	0.068647	0.212130
O5	O	-0.900107	-0.068863	-0.008259
O6	O	-0.783691	-0.068840	0.108157
O7	O	-1.004070	-0.068869	0.095704
Cu8	Cu	-0.893880	-0.081409	0.101929
Cu9	Cu	-0.893883	0.081193	0.101942
O10	O	-0.887654	-0.068846	0.212119
C11	C	-0.755495	-0.000090	0.107716
C12	C	-0.671477	-0.000079	0.106377
C13	C	-0.899662	-0.000116	-0.036451
C14	C	-0.898323	-0.000116	-0.120469
C15	C	-0.622856	-0.000074	0.174710
C16	C	-0.543913	-0.000084	0.173448
C17	C	-0.513592	-0.000093	0.103852
C18	C	-0.562219	-0.000101	0.035513
C19	C	-0.641161	-0.000097	0.036776
C20	C	-0.243856	-0.000119	0.030418
C21	C	-0.164908	-0.000121	0.029160
C22	C	-0.146608	-0.000106	0.167090
C23	C	-0.225550	-0.000102	0.168353
C24	C	-0.274170	-0.000114	0.100015
C25	C	-0.359769	-0.000105	0.101384
C26	C	-0.427995	-0.000097	0.102481
C27	C	-0.032268	-0.000122	0.096156
C28	C	-0.116286	-0.000122	0.097494
N29	N	-0.893885	0.195558	0.101945
N30	N	-0.893884	-0.195774	0.101920
C31	C	-0.945529	0.238812	0.050498
C32	C	-0.945532	0.325359	0.050496
C33	C	-0.893887	0.368651	0.101939
C34	C	-0.842240	0.325390	0.153392
C35	C	-0.842241	0.238845	0.153397
C36	C	-0.842234	0.674419	0.153375
C37	C	-0.842236	0.760970	0.153364
C38	C	-0.945525	0.760933	0.050474
C39	C	-0.945527	0.674388	0.050479
C40	C	-0.893883	0.631135	0.101934
C41	C	-0.893881	0.537291	0.101936
C42	C	-0.893884	0.462493	0.101934
C43	C	-0.966656	-0.000127	-0.169090
C44	C	-0.965394	-0.000119	-0.248033
C45	C	-0.895798	-0.000107	-0.278354
C46	C	-0.827459	-0.000095	-0.229727
C47	C	-0.828722	-0.000096	-0.150785
C48	C	-0.822364	-0.000087	-0.548090
C49	C	-0.821106	-0.000088	-0.627038
C50	C	-0.959036	-0.000110	-0.645338
C51	C	-0.960299	-0.000112	-0.566396
C52	C	-0.891961	-0.000095	-0.517776
C53	C	-0.893330	-0.000101	-0.432177
C54	C	-0.894427	-0.000107	-0.363951
C55	C	-0.888102	-0.000098	0.240322
C56	C	-0.889440	-0.000092	0.324340
H57	H	-0.647537	-0.000066	0.231384
H58	H	-0.140225	-0.000130	-0.027517
O59	O	-0.792136	0.632282	0.203320
C60	C	-0.803194	0.546611	0.192287
H61	H	-0.863459	0.534774	0.164038
H62	H	-0.794552	0.513736	0.249616
H63	H	-0.760512	0.522047	0.154289
H64	H	-0.504328	-0.000079	0.229092
H65	H	-0.800188	0.203628	0.195291
H66	H	-0.283434	-0.000130	-0.025228
H67	H	-1.014680	-0.000120	-0.684934
O68	O	-0.792146	0.367405	0.203468
C69	C	-0.804151	0.346260	0.278418
H70	H	-0.864730	0.322466	0.278829
H71	H	-0.795303	0.403187	0.316402
H72	H	-0.762129	0.296033	0.300631
H73	H	-1.023330	-0.000141	-0.144409
H74	H	-0.987579	0.639142	0.008587
H75	H	-0.987582	0.203570	0.008604
O76	O	-0.532642	-0.000075	-0.032027
C77	C	-0.452540	-0.000096	-0.018491
H78	H	-0.433889	0.025940	0.040608
H79	H	-0.428379	0.039817	-0.063015
H80	H	-0.430579	-0.066059	-0.022123
H81	H	-0.250232	-0.000091	0.225025
O82	O	-0.688286	-0.000060	-0.029673
C83	C	-0.644599	-0.000088	-0.091372
H84	H	-0.585640	0.025941	-0.072053
H85	H	-0.673804	0.039827	-0.139239
H86	H	-0.639026	-0.066053	-0.112717
H87	H	-0.800178	0.796217	0.195258
O88	O	-0.995726	0.367248	0.000445
C89	C	-1.041318	0.310480	-0.044949
H90	H	-1.010297	0.248791	-0.045819
H91	H	-1.053087	0.335471	-0.105402
H92	H	-1.097437	0.301274	-0.020336
H93	H	-0.987579	0.796159	0.008579
O94	O	-1.027924	0.000025	-0.536980
C95	C	-1.069579	0.071219	-0.561844
H96	H	-1.028878	0.120994	-0.578183
H97	H	-1.101691	0.095118	-0.514076
H98	H	-1.111849	0.055115	-0.613374
O99	O	-1.031843	-0.000171	-0.295155
C100	C	-1.093541	-0.000169	-0.251465
H101	H	-1.074218	-0.026196	-0.192514
H102	H	-1.141407	-0.040098	-0.280681
H103	H	-1.114889	0.065788	-0.245874
O104	O	-0.099454	-0.000213	0.233526
C105	C	-0.113176	-0.071424	0.275781
H106	H	-0.173098	-0.095163	0.257084
H107	H	-0.107505	-0.055398	0.338916
H108	H	-0.070021	-0.121292	0.265512
H109	H	-0.764429	-0.000080	-0.651721
H110	H	-0.766718	-0.000074	-0.508512
O111	O	-0.759918	-0.000120	-0.259304
C112	C	-0.773455	-0.000103	-0.339406
H113	H	-0.832552	-0.026141	-0.358057
H114	H	-0.728928	-0.040015	-0.363567
H115	H	-0.769828	0.065860	-0.361366
H116	H	-0.773078	-0.000088	-0.111198
