data_functionalizedCrystal
_audit_creation_method	'MofGen! by Chris Wilmer'
_symmetry_space_group_name_H-M	'P1'
_symmetry_Int_Tables_number	1
_symmetry_cell_setting	triclinic
loop_
_symmetry_equiv_pos_as_xyz
  x,y,z
_cell_length_a	10.723024
_cell_length_b	16.109301
_cell_length_c	15.186229
_cell_angle_alpha	89.997109
_cell_angle_beta	89.999093
_cell_angle_gamma	96.035325
loop_
_atom_site_label
_atom_site_type_symbol
_atom_site_fract_x
_atom_site_fract_y
_atom_site_fract_z
O1	O	0.160384	-1.104078	0.073171
O2	O	0.180344	-0.862133	0.073184
O3	O	-0.011286	-0.988686	0.073174
O4	O	0.352014	-0.977524	0.073181
O5	O	-0.011275	-0.988671	-0.073283
O6	O	0.180355	-0.862118	-0.073273
O7	O	0.160395	-1.104063	-0.073287
Zn8	Zn	0.170377	-0.983088	-0.096533
Zn9	Zn	0.170362	-0.983108	0.096431
O10	O	0.352025	-0.977510	-0.073276
C11	C	0.179541	-0.831146	-0.000043
C12	C	0.177117	-0.738836	-0.000037
C13	C	-0.057770	-0.987866	-0.000054
C14	C	-0.196292	-0.985436	-0.000050
N15	N	0.170386	-0.983081	-0.228226
C16	C	-0.272213	-1.056249	-0.000053
C17	C	-0.415383	-1.053739	-0.000050
C18	C	0.398508	-0.978329	-0.000047
C19	C	0.537031	-0.980759	-0.000044
C20	C	0.161198	-1.135050	-0.000058
C21	C	0.163622	-1.227359	-0.000057
C22	C	0.285190	-0.517200	-0.000045
C23	C	0.282903	-0.430466	-0.000051
C24	C	0.055540	-0.449003	-0.000052
C25	C	0.057829	-0.535735	-0.000052
C26	C	0.172658	-0.569831	-0.000045
C27	C	0.168081	-0.396365	-0.000050
C28	C	0.165600	-0.302324	-0.000056
C29	C	0.175139	-0.663877	-0.000040
C30	C	0.246071	-1.033950	-0.453950
C31	C	0.246062	-1.033959	-0.546140
C32	C	0.094649	-0.932250	-0.546146
C33	C	0.094652	-0.932246	-0.453958
C34	C	0.170371	-0.983095	-0.407862
C35	C	0.170358	-0.983108	-0.592240
C36	C	0.170348	-0.983117	-0.692196
C37	C	0.170379	-0.983087	-0.307900
N38	N	0.170343	-0.983122	0.228123
H39	H	-0.231219	-1.118732	-0.000062
H40	H	-0.237286	-0.922953	-0.000041
O41	O	0.319413	-1.083454	-0.590947
C42	C	0.243351	-1.139742	-0.644277
H43	H	0.144061	-1.148102	-0.616491
H44	H	0.241229	-1.114048	-0.714149
C45	C	0.419203	-1.214376	-0.679806
C46	C	0.297256	-1.224649	-0.645675
H47	H	0.452456	-1.266750	-0.680673
H48	H	0.470449	-1.176452	-0.643880
H49	H	0.417419	-1.192962	-0.738030
H50	H	0.299044	-1.246053	-0.587449
H51	H	0.246011	-1.262579	-0.681592
O52	O	0.020982	-0.882960	-0.409139
C53	C	-0.064117	-0.933161	-0.355784
H54	H	-0.077508	-0.999238	-0.383563
H55	H	-0.025540	-0.934788	-0.285922
C56	C	-0.174650	-0.815381	-0.320233
C57	C	-0.191105	-0.896537	-0.354356
H58	H	-0.252980	-0.792789	-0.319348
H59	H	-0.117314	-0.781559	-0.356176
H60	H	-0.142499	-0.816748	-0.262018
H61	H	-0.223240	-0.895168	-0.412573
H62	H	-0.248449	-0.930359	-0.318422
H63	H	-0.480619	-1.114359	-0.000056
O64	O	0.392136	-0.379257	0.000071
C65	C	0.397624	-0.328550	0.075933
H66	H	0.298578	-0.323601	0.101216
H67	H	0.454596	-0.357406	0.129050
C68	C	0.582101	-0.246943	0.021839
C69	C	0.460451	-0.240859	0.052889
H70	H	0.620861	-0.192853	0.007627
H71	H	0.578408	-0.281107	-0.029269
H72	H	0.629562	-0.270994	0.066109
H73	H	0.412988	-0.216819	0.008615
H74	H	0.464138	-0.206689	0.103989
O75	O	-0.385287	-0.908376	0.000077
C76	C	-0.407909	-0.861786	0.075944
H77	H	-0.506671	-0.881562	0.101234
H78	H	-0.336754	-0.873627	0.129055
C79	C	-0.274026	-0.743893	0.021850
C80	C	-0.395332	-0.768178	0.052907
H81	H	-0.266263	-0.686151	0.007642
H82	H	-0.258781	-0.775282	-0.029262
H83	H	-0.214744	-0.753768	0.066115
H84	H	-0.454611	-0.758313	0.008639
H85	H	-0.410587	-0.736785	0.104012
O86	O	0.319579	-1.083269	-0.409036
C87	C	0.303331	-1.072378	-0.317784
H88	H	0.267735	-1.009206	-0.305197
H89	H	0.232263	-1.124114	-0.291616
C90	C	0.473390	-1.153517	-0.285919
C91	C	0.429680	-1.075925	-0.270458
H92	H	0.551326	-1.155708	-0.256724
H93	H	0.484334	-1.160858	-0.347396
H94	H	0.414155	-1.196622	-0.264111
H95	H	0.488907	-1.032822	-0.292276
H96	H	0.418749	-1.068577	-0.208983
H97	H	0.378691	-0.544958	-0.000046
O98	O	-0.055966	-0.415839	0.000105
C99	C	-0.064078	-0.366213	0.075947
H100	H	0.001121	-0.387097	0.128961
H101	H	-0.035270	-0.297989	0.058801
C102	C	-0.280007	-0.350305	0.045231
C103	C	-0.199936	-0.375959	0.110346
H104	H	-0.363810	-0.356313	0.066448
H105	H	-0.274541	-0.383736	-0.005868
H106	H	-0.255984	-0.293454	0.030948
H107	H	-0.223949	-0.432812	0.124620
H108	H	-0.205408	-0.342538	0.161448
O109	O	0.021224	-0.882875	-0.591059
C110	C	0.037498	-0.893746	-0.682311
H111	H	0.132045	-0.917954	-0.694886
H112	H	-0.040707	-0.940668	-0.708514
C113	C	-0.082926	-0.779800	-0.714160
C114	C	0.033204	-0.809527	-0.729606
H115	H	-0.085581	-0.727851	-0.743336
H116	H	-0.093895	-0.772478	-0.652682
H117	H	-0.148084	-0.818910	-0.735996
H118	H	0.098358	-0.770422	-0.707760
H119	H	0.044183	-0.816840	-0.791082
H120	H	-0.033815	-0.578589	-0.000054
