data_functionalizedCrystal
_audit_creation_method	'MofGen! by Chris Wilmer'
_symmetry_space_group_name_H-M	'P1'
_symmetry_Int_Tables_number	1
_symmetry_cell_setting	triclinic
loop_
_symmetry_equiv_pos_as_xyz
  x,y,z
_cell_length_a	16.974939
_cell_length_b	16.992694
_cell_length_c	15.455313
_cell_angle_alpha	87.142206
_cell_angle_beta	83.693782
_cell_angle_gamma	92.970755
loop_
_atom_site_label
_atom_site_type_symbol
_atom_site_fract_x
_atom_site_fract_y
_atom_site_fract_z
O1	O	-0.164928	1.043109	-0.060465
O2	O	0.335072	1.543109	0.439535
O3	O	-0.163082	0.814832	-0.060619
O4	O	0.336918	1.314832	0.439381
O5	O	-0.048945	0.935709	-0.068599
O6	O	0.451055	1.435709	0.431401
O7	O	-0.279065	0.922232	-0.052485
O8	O	0.220935	1.422232	0.447515
O9	O	-0.055443	0.928797	0.076118
O10	O	0.444557	1.428797	0.576118
O11	O	-0.169580	0.807920	0.084097
O12	O	0.330420	1.307920	0.584097
O13	O	-0.171426	1.036196	0.084252
O14	O	0.328574	1.536196	0.584252
Cu15	Cu	-0.171096	0.921427	0.097388
Cu16	Cu	0.328904	1.421427	0.597388
Cu17	Cu	-0.163411	0.929602	-0.073756
Cu18	Cu	0.336589	1.429602	0.426244
O19	O	-0.285563	0.915320	0.092231
O20	O	0.214437	1.415320	0.592231
C21	C	-0.163957	0.782174	0.011569
C22	C	0.336043	1.282174	0.511569
C23	C	-0.156875	0.695161	0.011063
C24	C	0.343125	1.195161	0.511063
C25	C	-0.022612	0.931865	0.001686
C26	C	0.477388	1.431865	0.501686
C27	C	0.065532	0.930700	-0.004492
C28	C	0.565532	1.430700	0.495508
C29	C	-0.225204	0.644625	0.015848
C30	C	0.274796	1.144625	0.515848
C31	C	-0.218545	0.562867	0.015394
C32	C	0.281455	1.062867	0.515394
C33	C	-0.143557	0.531646	0.010149
C34	C	0.356443	1.031646	0.510149
C35	C	-0.075224	0.582189	0.005366
C36	C	0.424776	1.082189	0.505366
C37	C	-0.081883	0.663945	0.005826
C38	C	0.418117	1.163945	0.505826
C39	C	-0.115958	0.288167	0.008239
C40	C	0.384042	0.788167	0.508239
C41	C	-0.109303	0.206404	0.007776
C42	C	0.390697	0.706404	0.507776
C43	C	-0.252626	0.187087	0.017807
C44	C	0.247374	0.687087	0.517807
C45	C	-0.259278	0.268846	0.018261
C46	C	0.240722	0.768846	0.518261
C47	C	-0.190945	0.319382	0.013483
C48	C	0.309055	0.819382	0.513483
N49	N	-0.136750	0.448077	0.009681
N50	N	0.363250	0.948077	0.509681
N51	N	-0.197753	0.402950	0.013957
N52	N	0.302247	0.902950	0.513957
C53	C	0.562075	0.924623	-0.047831
C54	C	1.062075	1.424623	0.452169
C55	C	0.479254	0.925709	-0.042008
C56	C	0.979254	1.425709	0.457992
C57	C	0.434317	0.922478	0.039788
C58	C	0.934317	1.422478	0.539788
C59	C	0.472206	0.918168	0.115767
C60	C	0.972206	1.418168	0.615767
C61	C	0.555027	0.917088	0.109943
C62	C	1.055027	1.417088	0.609943
C63	C	0.186242	0.925310	0.065663
C64	C	0.686242	1.425310	0.565663
C65	C	0.103415	0.926389	0.071481
C66	C	0.603415	1.426389	0.571481
C67	C	0.110469	0.933930	-0.086295
C68	C	0.610469	1.433930	0.413705
C69	C	0.193290	0.932845	-0.092111
C70	C	0.693290	1.432845	0.407889
C71	C	0.231173	0.928540	-0.016132
C72	C	0.731173	1.428540	0.483868
N73	N	0.349659	0.923586	0.045742
N74	N	0.849659	1.423586	0.545742
N75	N	0.315829	0.927438	-0.022087
N76	N	0.815829	1.427438	0.477913
C77	C	0.688104	0.919159	0.021951
C78	C	1.188104	1.419159	0.521951
C79	C	0.599959	0.920311	0.028142
C80	C	1.099959	1.420311	0.528142
C81	C	-0.170550	1.068855	0.012061
C82	C	0.329450	1.568855	0.512061
C83	C	-0.177632	1.155868	0.012562
C84	C	0.322368	1.655868	0.512562
N85	N	-0.176501	0.915683	0.217762
N86	N	0.323499	1.415683	0.717762
N87	N	-0.158000	0.935352	-0.194130
N88	N	0.342000	1.435352	0.305870
C89	C	-0.128032	0.967054	0.259767
C90	C	0.371968	1.467054	0.759767
C91	C	-0.132127	0.962717	0.350861
C92	C	0.367873	1.462717	0.850861
C93	C	-0.184696	0.907014	0.399949
C94	C	0.315304	1.407014	0.899949
C95	C	-0.233168	0.855638	0.357937
C96	C	0.266832	1.355638	0.857937
C97	C	-0.229068	0.859971	0.266844
C98	C	0.270932	1.359971	0.766844
C99	C	-0.202372	0.888309	0.672766
C100	C	0.297628	1.388309	1.172766
C101	C	-0.206470	0.883981	0.763865
C102	C	0.293530	1.383981	1.263865
C103	C	-0.105428	0.991060	0.756783
C104	C	0.394572	1.491060	1.256783
C105	C	-0.101336	0.995392	0.665689
C106	C	0.398664	1.495392	1.165689
C107	C	-0.149804	0.944013	0.623685
C108	C	0.350196	1.444013	1.123685
N109	N	-0.188885	0.902581	0.493062
N110	N	0.311115	1.402581	0.993062
N111	N	-0.145610	0.948442	0.530573
N112	N	0.354390	1.448442	1.030573
H113	H	-0.286267	0.670037	0.020119
H114	H	0.213733	1.170037	0.520119
O115	O	0.595883	0.912441	0.191892
O116	O	1.095883	1.412441	0.691892
H117	H	0.637111	0.965200	0.192765
H118	H	1.137111	1.465200	0.692765
H119	H	-0.274186	0.521723	0.019290
H120	H	0.225814	1.021723	0.519290
O121	O	-0.340159	0.302519	0.023941
O122	O	0.159841	0.802519	0.523941
H123	H	-0.386556	0.253641	0.027206
H124	H	0.113444	0.753641	0.527206
H125	H	-0.308259	0.145933	0.021698
H126	H	0.191741	0.645933	0.521698
O127	O	0.610541	0.928104	-0.136056
O128	O	1.110541	1.428104	0.363944
H129	H	0.644760	0.874362	-0.142233
H130	H	1.144760	1.374362	0.357767
H131	H	0.066828	0.923734	0.138093
H132	H	0.566828	1.423734	0.638093
H133	H	0.217075	0.921806	0.127531
H134	H	0.717075	1.421806	0.627531
H135	H	0.079616	0.937436	-0.148152
H136	H	0.579616	1.437436	0.351848
H137	H	-0.275968	0.810279	0.397908
H138	H	0.224032	1.310279	0.897908
O139	O	-0.079853	1.018123	0.396175
O140	O	0.420147	1.518123	0.896175
H141	H	-0.117552	1.054087	0.440183
H142	H	0.382448	1.554087	0.940183
O143	O	-0.044636	1.055481	0.612760
O144	O	0.455364	1.555481	1.112760
H145	H	-0.078600	1.095410	0.573770
H146	H	0.421400	1.595410	1.073770
O147	O	-0.263165	0.823895	0.816819
O148	O	0.236835	1.323895	1.316819
H149	H	-0.248351	0.763666	0.798376
H150	H	0.251649	1.263666	1.298376
O151	O	-0.008182	0.718452	0.000664
O152	O	0.491818	1.218452	0.500664
H153	H	-0.010437	0.753345	0.059625
H154	H	0.489563	1.253345	0.559625
H155	H	-0.268535	0.818139	0.232644
H156	H	0.231465	1.318139	0.732644
O157	O	0.438401	0.930353	-0.123957
O158	O	0.938401	1.430353	0.376043
H159	H	0.404520	0.984455	-0.125340
H160	H	0.904520	1.484455	0.374660
H161	H	-0.048236	0.180989	0.003504
H162	H	0.451764	0.680989	0.503504
H163	H	-0.060315	0.329304	0.004349
H164	H	0.439685	0.829304	0.504349
H165	H	-0.065966	1.032889	0.790991
H166	H	0.434034	1.532889	1.290991
H167	H	-0.241838	0.846476	0.638573
H168	H	0.258162	1.346476	1.138573
O169	O	-0.071329	1.027131	0.206824
O170	O	0.428671	1.527131	0.706824
H171	H	-0.038307	1.062117	0.251340
H172	H	0.461693	1.562117	0.751340
O173	O	0.005659	0.548521	-0.000285
O174	O	0.505659	1.048521	0.499715
H175	H	0.014777	0.514550	-0.059723
H176	H	0.514777	1.014550	0.440277
O177	O	0.241756	0.936284	-0.180334
O178	O	0.741756	1.436284	0.319666
H179	H	0.201497	0.939452	-0.232186
H180	H	0.701497	1.439452	0.267814
H181	H	0.435612	0.915543	0.182367
H182	H	0.935612	1.415543	0.682367
