data_functionalizedCrystal
_audit_creation_method	'MofGen! by Chris Wilmer'
_symmetry_space_group_name_H-M	'P1'
_symmetry_Int_Tables_number	1
_symmetry_cell_setting	triclinic
loop_
_symmetry_equiv_pos_as_xyz
  x,y,z
_cell_length_a	12.645330
_cell_length_b	16.625548
_cell_length_c	16.625539
_cell_angle_alpha	90.022345
_cell_angle_beta	89.975749
_cell_angle_gamma	89.982449
loop_
_atom_site_label
_atom_site_type_symbol
_atom_site_fract_x
_atom_site_fract_y
_atom_site_fract_z
Zn1	Zn	-0.422041	-1.232707	-0.455970
Zn2	Zn	-0.599327	-1.232622	-0.321147
Zn3	Zn	-0.422078	-1.097869	-0.321147
Zn4	Zn	-0.599263	-1.097851	-0.455933
O5	O	-0.510677	-1.165262	-0.388549
O6	O	-0.445570	-1.345528	-0.438102
O7	O	-0.575857	-1.214718	-0.208315
O8	O	-0.273726	-1.115799	-0.339047
O9	O	-0.575822	-1.345465	-0.339048
O10	O	-0.273699	-1.214864	-0.438101
O11	O	-0.445633	-1.115716	-0.208314
O12	O	-0.445570	-0.985034	-0.339010
O13	O	-0.575712	-1.115768	-0.568770
O14	O	-0.575747	-0.985021	-0.438037
O15	O	-0.445508	-1.214846	-0.568798
O16	O	-0.747666	-1.214701	-0.339011
O17	O	-0.747619	-1.115685	-0.438038
C18	C	-0.510656	-0.955771	-0.388520
C19	C	-0.510673	-0.866150	-0.388527
C20	C	-0.510671	-0.537975	-0.388551
C21	C	-0.510669	-0.629283	-0.388542
C22	C	-0.510673	-0.702059	-0.388538
C23	C	-0.510669	-0.793374	-0.388530
C24	C	-0.786107	-1.165203	-0.388538
C25	C	-0.903937	-1.165252	-0.388560
C26	C	-1.071515	-1.103218	-0.451050
C27	C	-0.948956	-1.102901	-0.450849
C28	C	-0.948530	-1.142250	-0.303584
C29	C	-1.071128	-1.141872	-0.303963
C30	C	-1.071027	-1.250667	-0.410357
C31	C	-0.948420	-1.250144	-0.412215
C32	C	-0.234172	-1.165343	-0.388578
C33	C	-0.116342	-1.165378	-0.388590
C34	C	-0.510598	-1.165315	-0.598858
C35	C	-0.510565	-1.165337	-0.688479
C36	C	-0.510692	-0.375571	-0.388571
C37	C	-0.510681	-0.465192	-0.388560
C38	C	-0.510446	-1.165374	-1.016655
C39	C	-0.510483	-1.165362	-0.925347
C40	C	-0.510506	-1.165356	-0.852570
C41	C	-0.510541	-1.165343	-0.761256
C42	C	-0.510680	-1.165256	-0.179058
C43	C	-0.510415	-1.165390	-0.089438
H44	H	-0.918803	-1.117292	-0.513858
H45	H	-0.917769	-1.298894	-0.370036
H46	H	-1.100015	-1.296977	-0.364866
H47	H	-1.102416	-1.040384	-0.436813
Cl48	Cl	-1.116930	-1.125226	-0.548653
Cl49	Cl	-0.903514	-1.209931	-0.229767
H50	H	-0.919721	-1.039671	-0.436428
Cl51	Cl	-1.115430	-1.045613	-0.275496
Cl52	Cl	-0.901278	-1.046992	-0.274600
H53	H	-1.100785	-1.185181	-0.255839
H54	H	-1.101872	-1.271650	-0.471269
H55	H	-0.919271	-1.267490	-0.474753
