data_functionalizedCrystal
_audit_creation_method	'MofGen! by Chris Wilmer'
_symmetry_space_group_name_H-M	'P1'
_symmetry_Int_Tables_number	1
_symmetry_cell_setting	triclinic
loop_
_symmetry_equiv_pos_as_xyz
  x,y,z
_cell_length_a	10.489741
_cell_length_b	10.540539
_cell_length_c	9.616153
_cell_angle_alpha	90.004826
_cell_angle_beta	89.998052
_cell_angle_gamma	95.467667
loop_
_atom_site_label
_atom_site_type_symbol
_atom_site_fract_x
_atom_site_fract_y
_atom_site_fract_z
O1	O	0.179760	-1.685914	-0.115579
O2	O	0.196697	-1.316503	-0.115596
O3	O	0.002629	-1.509614	-0.115579
O4	O	0.373827	-1.492802	-0.115596
O5	O	0.002633	-1.509587	0.115712
O6	O	0.196701	-1.316476	0.115695
O7	O	0.179764	-1.685887	0.115712
Zn8	Zn	0.188233	-1.501177	0.152426
Zn9	Zn	0.188228	-1.501212	-0.152310
O10	O	0.373831	-1.492776	0.115695
C11	C	0.195429	-1.269186	0.000047
C12	C	0.191629	-1.128238	0.000041
C13	C	-0.044900	-1.508331	0.000066
C14	C	-0.186529	-1.504532	0.000063
C15	C	0.181032	-1.733203	0.000066
C16	C	0.184832	-1.874152	0.000063
C17	C	-0.254654	-1.381661	0.000047
C18	C	-0.346782	-1.439691	0.114088
C19	C	-0.346760	-1.439746	-0.113947
C20	C	-0.276791	-1.562613	0.114199
C21	C	-0.276760	-1.562651	-0.113939
C22	C	-0.368860	-1.620770	0.000130
C23	C	0.421361	-1.494059	0.000047
C24	C	0.562990	-1.497858	0.000041
N25	N	0.188236	-1.501163	0.360401
C26	C	0.046011	-0.944793	0.000588
C27	C	0.049864	-1.091412	0.000052
C28	C	0.259850	-1.066588	-0.132036
C29	C	0.255011	-0.920043	-0.132132
C30	C	0.257900	-0.919525	0.130890
C31	C	0.259206	-1.066507	0.132621
N32	N	0.188215	-1.501237	-0.360285
C33	C	0.291701	-1.397545	0.580761
C34	C	0.292088	-1.397773	0.419594
C35	C	0.218515	-1.633890	0.418855
C36	C	0.219248	-1.633325	0.580073
C37	C	0.054153	-1.473374	0.580317
C38	C	0.055022	-1.470328	0.419090
H39	H	-0.204991	-1.280637	0.000157
Br40	Br	-0.046956	-0.894446	-0.156385
Br41	Br	0.379691	-1.675415	0.351532
Br42	Br	-0.225421	-1.649179	0.275072
Br43	Br	-0.451262	-1.789299	0.000233
H44	H	0.212023	-0.887962	0.231003
H45	H	-0.245724	-1.614607	-0.210353
Br46	Br	-0.398401	-1.353077	-0.274631
Br47	Br	-0.047335	-0.897115	0.158464
Br48	Br	-0.039606	-1.162417	0.157855
H49	H	0.025335	-1.378634	0.621051
Br50	Br	0.424937	-0.840105	-0.142131
H51	H	0.212456	-1.109182	-0.230326
Br52	Br	0.016763	-1.307584	0.355421
H53	H	-0.004197	-1.133162	-0.094786
H54	H	0.209368	-1.107452	0.230331
Br55	Br	0.170968	-0.873025	-0.296678
H56	H	0.363958	-1.088954	-0.136955
H57	H	-0.377785	-1.387690	0.210498
H58	H	0.362562	-1.090745	0.140590
H59	H	0.360296	-0.872310	0.131777
H60	H	0.273870	-1.299154	0.380075
Br61	Br	0.261782	-1.232646	0.645401
H62	H	0.390600	-1.415224	0.621256
H63	H	0.391551	-1.415684	0.381010
H64	H	0.317055	-1.657691	0.617657
Br65	Br	-0.079504	-1.587873	0.351963
H66	H	0.145199	-1.712936	0.380509
H67	H	-0.022872	-1.548977	0.618440
Br68	Br	0.098362	-1.765764	0.645077
