data_functionalizedCrystal
_audit_creation_method	'MofGen! by Chris Wilmer'
_symmetry_space_group_name_H-M	'P1'
_symmetry_Int_Tables_number	1
_symmetry_cell_setting	triclinic
loop_
_symmetry_equiv_pos_as_xyz
  x,y,z
_cell_length_a	14.560438
_cell_length_b	17.917603
_cell_length_c	14.560438
_cell_angle_alpha	89.998971
_cell_angle_beta	60.005846
_cell_angle_gamma	57.010693
loop_
_atom_site_label
_atom_site_type_symbol
_atom_site_fract_x
_atom_site_fract_y
_atom_site_fract_z
Zr1	Zr	0.920642	0.754939	-0.078108
O2	O	1.126239	0.629824	-0.231733
O3	O	0.724762	0.793289	-0.031034
O4	O	0.916346	0.793299	-0.222608
O5	O	0.934655	0.629812	0.110981
O6	O	0.901903	0.922255	-0.215388
O7	O	0.934655	0.629815	-0.040159
O8	O	0.559194	0.922238	0.127304
O9	O	1.277364	0.629829	-0.231711
O10	O	0.790953	0.905889	-0.005545
O11	O	0.801731	0.809648	0.101860
O12	O	1.027297	0.809660	-0.123694
O13	O	1.038075	0.713419	-0.016288
Zr14	Zr	0.897608	0.960606	0.174457
Zr15	Zr	0.897608	0.960610	-0.066593
Zr16	Zr	0.920642	0.754935	0.162942
Zr17	Zr	1.161669	0.754947	-0.078073
Zr18	Zr	0.656581	0.960598	0.174422
O19	O	1.093488	0.922256	0.127383
O20	O	1.093488	0.922262	-0.215359
O21	O	1.126239	0.629818	0.111009
O22	O	0.692010	1.085720	0.328082
O23	O	0.692010	1.085726	-0.014660
O24	O	0.724762	0.793283	0.311708
O25	O	0.883594	1.085733	-0.014632
O26	O	0.901903	0.922246	0.318957
O27	O	0.916346	0.793290	0.311737
O28	O	0.883594	1.085730	0.136508
O29	O	1.259055	0.793310	-0.222557
O30	O	0.559194	0.922234	0.318906
O31	O	0.540885	1.085715	0.328060
O32	O	0.540885	1.085719	0.136457
O33	O	1.277364	0.629826	-0.040108
O34	O	1.259055	0.793307	-0.030954
O35	O	0.790953	0.905885	0.220043
O36	O	0.780174	1.002126	0.112637
O37	O	1.016518	0.905897	-0.005511
O38	O	1.027297	0.809656	0.101894
C39	C	0.607637	0.857762	0.048130
C40	C	0.505315	0.857759	0.048115
C41	C	0.548397	0.786723	-0.039084
C42	C	0.452207	0.786738	-0.039027
C43	C	0.269852	0.928829	0.135438
C44	C	0.366041	0.928817	0.135375
C45	C	0.687671	0.715664	-0.126344
C46	C	0.730761	0.644621	-0.213549
C47	C	0.634570	0.644637	-0.213492
C48	C	0.495290	0.715695	-0.126230
C49	C	0.937937	0.600510	0.033770
C50	C	0.947716	0.513197	0.028882
C51	C	0.965578	0.353353	0.019954
C52	C	0.852678	0.362184	0.076393
C53	C	0.862616	0.273242	0.071425
C54	C	0.955642	0.442302	0.024920
C55	C	1.210612	0.857783	0.048219
C56	C	1.312935	0.857786	0.048235
C57	C	0.909125	0.857778	-0.253342
C58	C	0.909125	0.857779	-0.355675
C59	C	0.880312	1.115035	0.062579
C60	C	0.870534	1.202348	0.067468
C61	C	0.901174	0.928818	-0.399781
C62	C	0.901169	0.928814	-0.495930
C63	C	0.917072	0.786723	-0.503861
C64	C	0.917067	0.786732	-0.407709
C65	C	0.893232	0.999865	-0.347747
C66	C	0.885282	1.070909	-0.391854
C67	C	0.885277	1.070905	-0.488003
C68	C	0.893222	0.999856	-0.540045
C69	C	0.909125	0.857767	0.349691
C70	C	0.909125	0.857765	0.452024
C71	C	0.578825	1.115025	0.062534
C72	C	0.466724	1.202334	0.067408
C73	C	0.607637	0.857757	0.349647
C74	C	0.505315	0.857752	0.451964
C75	C	0.578825	1.115020	0.364051
C76	C	0.466724	1.202327	0.471257
C77	C	1.239425	0.600525	-0.267702
C78	C	1.351526	0.513218	-0.374907
C79	C	1.239425	0.600520	0.033815
C80	C	1.351525	0.513211	0.028942
C81	C	1.210612	0.857788	-0.253298
C82	C	1.312935	0.857793	-0.355615
C83	C	0.419706	1.193101	0.007996
C84	C	0.314390	1.275129	0.012552
C85	C	0.256086	1.366390	0.076527
C86	C	0.303114	1.375621	0.135940
C87	C	0.408435	1.293594	0.131377
C88	C	0.408453	1.293573	0.465538
C89	C	0.303135	1.375615	0.566260
C90	C	0.256083	1.366410	0.672700
C91	C	0.314365	1.275155	0.678416
C92	C	0.419687	1.193114	0.577695
C93	C	1.409808	0.421972	-0.369188
C94	C	1.515156	0.339929	-0.469911
C95	C	1.562213	0.349135	-0.576351
C96	C	1.503925	0.440390	-0.582067
C97	C	1.398586	0.522431	-0.481346
C98	C	1.398553	0.522444	0.088343
C99	C	1.503896	0.440416	0.083760
C100	C	1.562203	0.349155	0.019782
C101	C	1.515171	0.339923	-0.039627
C102	C	1.409837	0.421951	-0.035050
C103	C	0.451612	0.907985	0.561722
C104	C	0.355476	0.907973	0.657856
C105	C	0.366749	0.807492	0.534458
C106	C	0.462891	0.807499	0.438327
C107	C	0.494037	0.958238	0.575359
C108	C	0.440333	1.008477	0.685123
C109	C	0.344196	1.008464	0.781257
C110	C	0.301763	0.958213	0.767626
H111	H	0.844166	0.586773	-0.284600
C112	C	0.320059	0.752226	0.519473
N113	N	0.284889	0.710603	0.508186
C114	C	1.555600	0.450592	0.149128
N115	N	1.594538	0.458259	0.198366
C116	C	1.678068	0.258931	0.014765
N117	N	1.765333	0.190977	0.010994
C118	C	0.712014	0.462637	0.146702
N119	N	0.606070	0.538300	0.199652
C120	C	0.521963	0.752242	0.317586
N121	N	0.566458	0.710620	0.226642
H122	H	0.467119	1.118821	0.582368
C123	C	1.334441	0.622824	0.158722
N124	N	1.286164	0.698428	0.211728
H125	H	0.878791	1.128756	-0.523907
C126	C	0.140222	1.456614	0.081544
N127	N	0.052948	1.524567	0.085323
C128	C	1.579251	0.239558	-0.463597
N129	N	1.627525	0.163960	-0.458838
C130	C	0.318649	1.006958	0.231301
N131	N	0.282950	1.065816	0.303554
H132	H	1.069690	0.279001	-0.032093
C133	C	1.579306	0.239527	-0.109981
N134	N	1.627605	0.163906	-0.162960
C135	C	1.678081	0.258878	-0.687137
N136	N	1.765347	0.190893	-0.770578
C137	C	0.460129	1.303767	0.196752
N138	N	0.499058	1.311437	0.245997
H139	H	0.893239	0.999874	-0.269459
H140	H	1.371551	0.414419	-0.083419
H141	H	0.255628	1.449937	0.188027
C142	C	0.893216	0.999855	-0.645813
N143	N	0.893221	0.999852	-0.725481
H144	H	0.878803	1.128759	-0.349470
C145	C	0.925813	0.708574	-0.561113
N146	N	0.932399	0.649710	-0.604236
H147	H	0.923539	0.728887	-0.371796
C148	C	0.599782	0.958261	0.469617
N149	N	0.679427	0.958280	0.389971
H150	H	0.223492	0.958198	0.845909
H151	H	0.474896	1.049382	0.696212
C152	C	0.681973	0.566487	-0.309414
N153	N	0.717682	0.507616	-0.381661
C154	C	0.116647	1.006982	0.231426
N155	N	0.001252	1.065844	0.303729
H156	H	0.467176	1.118799	-0.044113
C157	C	0.262669	1.264953	-0.052799
N158	N	0.223712	1.257285	-0.102018
C159	C	0.239032	1.475987	0.559946
N160	N	0.190750	1.551585	0.555187
H161	H	0.416970	0.715716	-0.126207
C162	C	0.140214	1.456667	0.783486
N163	N	0.052936	1.524652	0.866927
H164	H	0.446746	1.301087	0.378878
H165	H	0.276039	1.267674	0.765093
H166	H	1.371502	0.414458	-0.282529
H167	H	0.300482	1.049363	0.870626
H168	H	0.766005	0.715641	-0.126399
H169	H	1.542253	0.447874	-0.668743
H170	H	1.351133	0.596725	-0.486016
