data_functionalizedCrystal
_audit_creation_method	'MofGen! by Chris Wilmer'
_symmetry_space_group_name_H-M	'P1'
_symmetry_Int_Tables_number	1
_symmetry_cell_setting	triclinic
loop_
_symmetry_equiv_pos_as_xyz
  x,y,z
_cell_length_a	19.188925
_cell_length_b	16.956984
_cell_length_c	16.053810
_cell_angle_alpha	92.385492
_cell_angle_beta	87.439781
_cell_angle_gamma	79.597984
loop_
_atom_site_label
_atom_site_type_symbol
_atom_site_fract_x
_atom_site_fract_y
_atom_site_fract_z
O1	O	0.923797	0.096169	-0.069447
O2	O	1.423797	0.596169	0.430553
O3	O	0.719747	0.109578	-0.069445
O4	O	1.219747	0.609578	0.430555
O5	O	0.834031	-0.013248	-0.069441
O6	O	1.334031	0.486752	0.430559
O7	O	0.809513	0.218995	-0.069452
O8	O	1.309513	0.718995	0.430548
O9	O	0.827764	-0.006490	0.069418
O10	O	1.327764	0.493510	0.569418
O11	O	0.713481	0.116336	0.069413
O12	O	1.213481	0.616336	0.569413
O13	O	0.917531	0.102928	0.069411
O14	O	1.417531	0.602928	0.569411
Zn15	Zn	0.814511	0.110705	0.091459
Zn16	Zn	1.314511	0.610705	0.591459
Zn17	Zn	0.822767	0.101801	-0.091493
Zn18	Zn	1.322767	0.601801	0.408507
O19	O	0.803247	0.225754	0.069406
O20	O	1.303247	0.725754	0.569406
C21	C	0.690627	0.112524	-0.000016
C22	C	1.190627	0.612524	0.499984
C23	C	0.613193	0.111223	-0.000015
C24	C	1.113193	0.611223	0.499985
C25	C	0.047936	0.174579	-0.000020
C26	C	0.547936	0.674579	0.499980
C27	C	0.120692	0.175809	-0.000024
C28	C	0.620692	0.675809	0.499976
C29	C	0.169593	0.103738	-0.000019
C30	C	0.669593	0.603738	0.499981
C31	C	0.145735	0.030432	-0.000031
C32	C	0.645735	0.530432	0.499969
C33	C	0.072980	0.029204	-0.000035
C34	C	0.572980	0.529204	0.499965
N35	N	0.291009	0.053863	0.047252
N36	N	0.791009	0.553863	0.547252
N37	N	0.360122	0.055034	0.047257
N38	N	0.860122	0.555034	0.547257
C39	C	0.388798	0.107433	-0.000010
C40	C	0.888798	0.607433	0.499990
N41	N	0.345749	0.158629	-0.047271
N42	N	0.845749	0.658629	0.452729
N43	N	0.276630	0.157460	-0.047273
N44	N	0.776630	0.657460	0.452727
C45	C	0.248484	0.105062	-0.000016
C46	C	0.748484	0.605062	0.499984
C47	C	0.491539	0.182067	-0.000009
C48	C	0.991539	0.682067	0.499991
C49	C	0.564297	0.183294	-0.000018
C50	C	1.064297	0.683294	0.499982
C51	C	0.589338	0.037915	-0.000017
C52	C	1.089338	0.537915	0.499983
C53	C	0.516582	0.036691	-0.000015
C54	C	1.016582	0.536691	0.499985
C55	C	0.467686	0.108769	-0.000007
C56	C	0.967686	0.608769	0.499993
C57	C	0.832153	-0.039581	-0.000012
C58	C	1.332153	0.460419	0.499988
C59	C	0.835886	-0.128115	-0.000013
C60	C	1.335886	0.371885	0.499987
C61	C	0.946651	0.099982	-0.000020
C62	C	1.446651	0.599982	0.499980
C63	C	1.024084	0.101283	-0.000027
C64	C	1.524084	0.601283	0.499973
C65	C	0.773476	-0.159980	-0.000015
C66	C	1.273476	0.340020	0.499985
C67	C	0.776988	-0.243168	-0.000013
C68	C	1.276988	0.256832	0.499987
C69	C	0.842909	-0.294489	-0.000014
C70	C	1.342909	0.205511	0.499986
C71	C	0.905323	-0.262618	-0.000009
C72	C	1.405323	0.237382	0.499991
C73	C	0.901811	-0.179432	-0.000005
C74	C	1.401811	0.320568	0.499995
C75	C	0.860294	-0.544323	-0.000020
C76	C	1.360294	-0.044323	0.499980
C77	C	0.863802	-0.627514	-0.000026
C78	C	1.363802	-0.127514	0.499974
C79	C	0.735465	-0.608058	-0.000029
C80	C	1.235465	-0.108058	0.499971
C81	C	0.731959	-0.524871	-0.000030
C82	C	1.231959	-0.024871	0.499970
C83	C	0.794373	-0.493008	-0.000021
C84	C	1.294373	0.006992	0.499979
N85	N	0.846500	-0.379520	-0.000014
N86	N	1.346500	0.120480	0.499986
N87	N	0.790781	-0.407977	-0.000014
N88	N	1.290781	0.092023	0.499986
C89	C	0.805125	0.252087	-0.000024
C90	C	1.305125	0.752087	0.499976
C91	C	0.801392	0.340620	-0.000029
C92	C	1.301392	0.840620	0.499971
N93	N	0.808881	0.116782	0.216319
N94	N	1.308881	0.616782	0.716319
N95	N	0.828402	0.095718	-0.216353
N96	N	1.328402	0.595718	0.283647
C97	C	0.779764	0.147968	0.739950
C98	C	1.279764	0.647968	1.239950
C99	C	0.783716	0.143732	0.652543
C100	C	1.283716	0.643732	1.152543
C101	C	0.836310	0.087250	0.608836
C102	C	1.336310	0.587250	1.108836
C103	C	0.884951	0.034994	0.652539
C104	C	1.384951	0.534994	1.152539
C105	C	0.880995	0.039226	0.739944
C106	C	1.380995	0.539226	1.239944
C107	C	0.853566	0.068758	0.347427
C108	C	1.353566	0.568758	0.847427
C109	C	0.857519	0.064532	0.260016
C110	C	1.357519	0.564532	0.760016
C111	C	0.756284	0.173269	0.260027
C112	C	1.256284	0.673269	0.760027
C113	C	0.752335	0.177500	0.347433
C114	C	1.252335	0.677500	0.847433
C115	C	0.800973	0.125241	0.391129
C116	C	1.300973	0.625241	0.891129
N117	N	0.840353	0.082921	0.519492
N118	N	1.340353	0.582921	1.019492
N119	N	0.796927	0.129567	0.480471
N120	N	1.296927	0.629567	0.980471
H121	H	0.583714	0.242982	-0.000019
H122	H	1.083714	0.742982	0.499981
H123	H	0.958998	-0.304410	-0.000004
H124	H	1.458998	0.195590	0.499996
H125	H	0.684652	-0.634011	-0.000036
H126	H	1.184652	-0.134011	0.499964
C127	C	0.700962	-0.103534	-0.000014
C128	C	1.200962	0.396466	0.499986
H129	H	0.664296	-0.134429	-0.000008
H130	H	1.164296	0.365571	0.499992
H131	H	0.699107	-0.073030	-0.048435
H132	H	1.199107	0.426970	0.451565
H133	H	0.694740	-0.068328	0.048417
H134	H	1.194740	0.431672	0.548417
C135	C	0.046739	-0.051423	-0.000041
C136	C	0.546739	0.448577	0.499959
H137	H	-0.003594	-0.041831	-0.000048
H138	H	0.496406	0.458169	0.499952
H139	H	0.061621	-0.078737	0.048379
H140	H	0.561621	0.421263	0.548379
H141	H	0.065992	-0.083437	-0.048473
H142	H	0.565992	0.416563	0.451527
H143	H	0.709509	0.223492	0.383018
H144	H	1.209509	0.723492	0.883018
C145	C	0.437753	0.261347	-0.000018
C146	C	0.937753	0.761347	0.499982
H147	H	0.462381	0.305177	-0.000029
H148	H	0.962381	0.805177	0.499971
H149	H	0.406662	0.266252	0.048403
H150	H	0.906662	0.766252	0.548403
H151	H	0.411041	0.261528	-0.048449
H152	H	0.911041	0.761528	0.451551
C153	C	0.942803	-0.027137	0.604467
C154	C	1.442803	0.472863	1.104467
H155	H	0.971200	-0.057654	0.643012
H156	H	1.471200	0.442346	1.143012
H157	H	0.971755	-0.000178	0.570384
H158	H	1.471755	0.499822	1.070384
H159	H	0.921144	-0.061923	0.570357
H160	H	1.421144	0.438077	1.070357
C161	C	0.936318	-0.683966	-0.000024
C162	C	1.436318	-0.183966	0.499976
H163	H	0.972987	-0.653076	-0.000011
H164	H	1.472987	-0.153076	0.499989
H165	H	0.942541	-0.719173	-0.048450
H166	H	1.442541	-0.219173	0.451550
H167	H	0.938165	-0.714470	0.048402
H168	H	1.438165	-0.214470	0.548402
H169	H	0.900351	0.018534	0.224433
H170	H	1.400351	0.518534	0.724433
C171	C	0.721912	0.210099	0.788025
C172	C	1.221912	0.710099	1.288025
H173	H	0.726525	0.205143	0.846339
H174	H	1.226525	0.705143	1.346339
H175	H	0.676460	0.200873	0.773688
H176	H	1.176460	0.700873	1.273688
H177	H	0.727070	0.262617	0.773714
H178	H	1.227070	0.762617	1.273714
H179	H	0.629154	-0.020766	-0.000019
H180	H	1.129154	0.479234	0.499981
H181	H	0.497163	-0.022995	-0.000016
H182	H	0.997163	0.477005	0.499984
H183	H	0.726168	-0.269108	-0.000022
H184	H	1.226168	0.230892	0.499978
H185	H	0.678279	-0.483090	-0.000032
H186	H	1.178279	0.016910	0.499968
C187	C	0.928944	-0.509279	-0.000009
C188	C	1.428944	-0.009279	0.499991
H189	H	0.917415	-0.452385	0.000005
H190	H	1.417415	0.047615	0.500005
H191	H	0.958073	-0.529259	-0.048431
H192	H	1.458073	-0.029259	0.451569
H193	H	0.953693	-0.524560	0.048422
H194	H	1.453693	-0.024560	0.548422
H195	H	0.920600	-0.003322	0.775521
H196	H	1.420600	0.496678	1.275521
C197	C	0.907066	0.011280	0.395485
C198	C	1.407066	0.511280	0.895485
H199	H	0.897176	0.021880	0.453801
H200	H	1.397176	0.521880	0.953801
H201	H	0.953816	0.019118	0.381175
H202	H	1.453816	0.519118	0.881175
H203	H	0.903202	-0.042624	0.381140
H204	H	1.403202	0.457376	0.881140
H205	H	0.952631	-0.153489	-0.000001
H206	H	1.452631	0.346511	0.499999
H207	H	0.716684	0.215815	0.224442
H208	H	1.216684	0.715815	0.724442
H209	H	0.744111	0.186278	0.616965
H210	H	1.244111	0.686278	1.116965
C211	C	-0.005847	0.253859	-0.000025
C212	C	0.494153	0.753859	0.499975
H213	H	-0.052595	0.242633	-0.000024
H214	H	0.447405	0.742633	0.499976
H215	H	0.003122	0.281570	-0.048447
H216	H	0.503122	0.781570	0.451553
H217	H	-0.001258	0.286280	0.048405
H218	H	0.498742	0.786280	0.548405
H219	H	0.185555	-0.028248	-0.000029
H220	H	0.685555	0.471752	0.499971
C221	C	0.146936	0.256438	-0.000013
C222	C	0.646936	0.756438	0.499987
H223	H	0.107395	0.299188	-0.000004
H224	H	0.607395	0.799188	0.499996
H225	H	0.176986	0.257587	-0.048432
H226	H	0.676986	0.757587	0.451568
H227	H	0.172609	0.262285	0.048420
H228	H	0.672609	0.762285	0.548420
