data_functionalizedCrystal
_audit_creation_method	'MofGen! by Chris Wilmer'
_symmetry_space_group_name_H-M	'P1'
_symmetry_Int_Tables_number	1
_symmetry_cell_setting	triclinic
loop_
_symmetry_equiv_pos_as_xyz
  x,y,z
_cell_length_a	16.109302
_cell_length_b	23.532357
_cell_length_c	14.586319
_cell_angle_alpha	89.990687
_cell_angle_beta	89.994552
_cell_angle_gamma	83.145036
loop_
_atom_site_label
_atom_site_type_symbol
_atom_site_fract_x
_atom_site_fract_y
_atom_site_fract_z
O1	O	1.102536	0.073206	-0.076293
O2	O	0.860400	0.082315	-0.076287
O3	O	0.988791	-0.005146	-0.076271
O4	O	0.974144	0.160667	-0.076309
O5	O	0.988782	-0.005147	0.076210
O6	O	0.860391	0.082314	0.076194
O7	O	1.102527	0.073204	0.076188
Cu8	Cu	0.981458	0.077759	0.090114
Cu9	Cu	0.981469	0.077761	-0.090213
O10	O	0.974136	0.160666	0.076172
C11	C	0.829423	0.081946	-0.000046
C12	C	0.737137	0.080839	-0.000043
C13	C	0.524812	0.078280	0.083066
C14	C	0.438101	0.077234	0.083063
C15	C	0.438121	0.077238	-0.083180
C16	C	0.524832	0.078280	-0.083176
C17	C	0.568174	0.078804	-0.000050
C18	C	0.394752	0.076716	-0.000057
C19	C	0.300736	0.075582	-0.000061
C20	C	0.662197	0.079937	-0.000046
C21	C	0.988420	-0.026365	-0.000028
C22	C	0.987319	-0.089587	-0.000019
C23	C	0.980409	-0.481624	-0.083186
C24	C	0.979362	-0.541027	-0.083191
O25	O	0.978796	-0.571745	-0.153879
N26	N	0.978838	-0.570741	-0.000075
C27	C	0.979352	-0.541047	0.083052
O28	O	0.978809	-0.571776	0.153748
C29	C	0.980393	-0.481645	0.083056
C30	C	0.980926	-0.451935	-0.000066
C31	C	0.980940	-0.451913	-0.166301
C32	C	0.981989	-0.392514	-0.166295
C33	C	0.982506	-0.362825	-0.083175
C34	C	0.981974	-0.392535	-0.000060
C35	C	0.980902	-0.451952	0.166182
C36	C	0.981942	-0.392545	0.166179
C37	C	0.982475	-0.362835	0.083057
C38	C	0.983540	-0.303447	0.083066
N39	N	0.984064	-0.273734	-0.000050
C40	C	0.983547	-0.303423	-0.083171
C41	C	0.977164	-0.665797	0.083037
C42	C	0.976129	-0.725199	0.083033
C43	C	0.976137	-0.725174	-0.083210
C44	C	0.977178	-0.665772	-0.083206
C45	C	0.977688	-0.636083	-0.000080
C46	C	0.985750	-0.178680	-0.083153
C47	C	0.986802	-0.119276	-0.083140
C48	C	0.986789	-0.119306	0.083103
C49	C	0.985742	-0.178705	0.083091
C50	C	0.985219	-0.208391	-0.000045
O51	O	0.984103	-0.272692	0.153718
O52	O	0.984079	-0.272686	-0.153855
C53	C	1.133503	0.073574	-0.000055
C54	C	1.225789	0.074681	-0.000065
C55	C	0.974506	0.181884	-0.000073
C56	C	0.975608	0.245107	-0.000088
N57	N	0.981457	0.077758	0.216945
N58	N	0.981476	0.077758	-0.217044
C59	C	1.038327	0.039043	0.451959
C60	C	1.038329	0.039041	0.547940
C61	C	0.924600	0.116474	0.547935
C62	C	0.924594	0.116473	0.451956
C63	C	0.981463	0.077757	0.403970
C64	C	0.981471	0.077758	0.595931
C65	C	0.981473	0.077757	0.699998
C66	C	0.981460	0.077758	0.299896
H67	H	0.560099	0.078706	0.150753
C68	C	0.390405	0.076664	0.174498
N69	N	0.354480	0.076237	0.243371
H70	H	0.878285	0.147999	0.412881
C71	C	0.975552	-0.757874	0.174473
N72	N	0.975111	-0.782482	0.243350
C73	C	0.390435	0.076667	-0.174613
N74	N	0.354518	0.076239	-0.243483
H75	H	0.560138	0.078705	-0.150863
C76	C	0.987385	-0.086599	-0.174584
N77	N	0.987821	-0.061988	-0.243458
H78	H	0.878301	0.147996	0.587015
C79	C	0.985189	-0.211327	-0.174606
N80	N	0.984776	-0.235917	-0.243488
H81	H	0.982419	-0.368329	-0.233981
C82	C	0.977757	-0.633096	-0.174645
N83	N	0.978189	-0.608487	-0.243521
C84	C	0.980407	-0.484565	-0.257748
N85	N	0.980025	-0.509156	-0.326632
H86	H	0.977582	-0.641628	0.150732
C87	C	0.975560	-0.757843	-0.174645
N88	N	0.975124	-0.782450	-0.243509
H89	H	0.980470	-0.476132	0.233869
H90	H	0.982345	-0.368374	0.233872
C91	C	0.985164	-0.211388	0.174528
N92	N	0.984721	-0.236000	0.243401
H93	H	1.084631	0.007518	0.412891
H94	H	1.084632	0.007516	0.587010
C95	C	0.987350	-0.086636	0.174531
N96	N	0.987763	-0.062026	0.243395
