data_functionalizedCrystal
_audit_creation_method	'MofGen! by Chris Wilmer'
_symmetry_space_group_name_H-M	'P1'
_symmetry_Int_Tables_number	1
_symmetry_cell_setting	triclinic
loop_
_symmetry_equiv_pos_as_xyz
  x,y,z
_cell_length_a	19.288864
_cell_length_b	9.130307
_cell_length_c	19.288865
_cell_angle_alpha	90.008511
_cell_angle_beta	83.136245
_cell_angle_gamma	90.015361
loop_
_atom_site_label
_atom_site_type_symbol
_atom_site_fract_x
_atom_site_fract_y
_atom_site_fract_z
O1	O	0.921345	0.122286	0.086647
O2	O	0.719085	0.122188	0.098335
O3	O	0.826059	0.122211	-0.008639
O4	O	0.814371	0.122263	0.193621
O5	O	0.826056	-0.121388	-0.008640
O6	O	0.719081	-0.121411	0.098334
O7	O	0.921342	-0.121313	0.086646
Cu8	Cu	0.820211	-0.143605	0.092490
Cu9	Cu	0.820215	0.144479	0.092491
O10	O	0.814367	-0.121336	0.193620
C11	C	0.693207	0.000375	0.097959
C12	C	0.616103	0.000337	0.096830
N13	N	0.820214	-0.346227	0.092489
C14	C	0.571407	0.000376	0.159598
C15	C	0.498960	0.000392	0.158537
C16	C	0.471212	0.000398	0.094705
C17	C	0.515918	0.000350	0.031929
C18	C	0.588364	0.000320	0.032991
C19	C	0.362951	0.085778	0.044526
C20	C	0.290507	0.085817	0.043466
C21	C	0.247767	0.000486	0.091425
C22	C	0.277478	-0.084867	0.140456
C23	C	0.349923	-0.084897	0.141518
C24	C	0.392658	0.000430	0.093546
C25	C	0.124514	0.000540	0.153047
C26	C	0.052066	0.000547	0.151984
C27	C	0.069026	0.000520	0.025374
C28	C	0.141473	0.000499	0.026439
C29	C	0.169212	0.000516	0.090278
C30	C	0.914978	-0.346197	-0.002211
C31	C	0.962365	-0.422849	-0.049558
C32	C	0.962372	-0.576182	-0.049559
C33	C	0.914985	-0.652868	-0.002208
C34	C	0.867599	-0.576216	0.045140
C35	C	0.867598	-0.422879	0.045137
C36	C	0.772832	-0.576246	0.139834
C37	C	0.772827	-0.422913	0.139839
C38	C	0.725446	-0.652932	0.187185
C39	C	0.678061	-0.576280	0.234537
C40	C	0.678057	-0.422937	0.234536
C41	C	0.725440	-0.346261	0.187187
C42	C	0.947220	0.000502	0.087022
C43	C	1.024324	0.000551	0.088151
C44	C	0.825682	0.000407	-0.034516
C45	C	0.824553	0.000393	-0.111620
N46	N	0.820219	0.347102	0.092487
C47	C	0.887321	0.000416	-0.156316
C48	C	0.886260	0.000439	-0.228763
C49	C	0.822428	0.000409	-0.256511
C50	C	0.759652	0.000394	-0.211805
C51	C	0.760714	0.000386	-0.139359
C52	C	0.772247	-0.084943	-0.364799
C53	C	0.771187	-0.084944	-0.437243
C54	C	0.819148	0.000440	-0.479956
C55	C	0.868181	0.085806	-0.450218
C56	C	0.869243	0.085798	-0.377773
C57	C	0.821269	0.000419	-0.335065
C58	C	0.880770	0.000490	-0.603209
C59	C	0.879707	0.000522	-0.675657
C60	C	0.753097	0.000462	-0.658697
C61	C	0.754162	0.000445	-0.586250
C62	C	0.818000	0.000452	-0.558511
C63	C	0.814745	0.000471	0.219497
C64	C	0.815874	0.000494	0.296601
H65	H	0.593987	0.000393	0.211580
N66	N	0.953963	0.000433	-0.276981
H67	H	0.943601	0.000430	-0.327084
H68	H	0.981804	0.090739	-0.268020
H69	H	0.147101	0.000533	0.205028
H70	H	0.639466	-0.360535	0.273090
H71	H	0.701123	0.000445	-0.681288
H72	H	0.462561	0.000420	0.209652
H73	H	0.725443	-0.221409	0.187184
N74	N	0.690807	0.000351	-0.241735
H75	H	0.663316	-0.089964	-0.225426
H76	H	0.663372	0.090700	-0.225408
N77	N	1.013478	-0.340163	-0.100631
H78	H	1.005638	-0.366884	-0.149908
H79	H	1.006269	-0.231418	-0.093396
H80	H	0.939303	0.000427	-0.133736
H81	H	0.909166	0.155309	-0.353562
N82	N	0.485989	0.000345	-0.036916
H83	H	0.456330	0.090660	-0.040181
H84	H	0.525336	0.000257	-0.076482
N85	N	0.919917	0.177903	-0.496276
H86	H	0.911804	0.164965	-0.546682
H87	H	0.913611	0.284349	-0.482729
N88	N	0.636577	0.000270	-0.034711
H89	H	0.608010	0.000270	-0.075312
H90	H	0.667024	0.090563	-0.037030
N91	N	0.189679	0.000479	-0.041266
H92	H	0.220135	0.090768	-0.043647
H93	H	0.220050	-0.089896	-0.043610
N94	N	0.949620	0.000504	-0.573283
H95	H	0.989224	0.000534	-0.612594
H96	H	0.952819	0.090802	-0.543582
H97	H	0.397745	0.155274	0.005470
H98	H	0.733190	-0.154481	-0.330026
H99	H	0.703049	0.000418	-0.549857
N100	N	0.381972	-0.176953	0.194393
H101	H	0.343908	-0.231010	0.224616
H102	H	0.415437	-0.249864	0.169270
H103	H	0.914983	-0.221345	-0.002209
N104	N	1.013479	-0.658868	-0.100625
H105	H	1.043496	-0.587028	-0.130622
H106	H	1.044096	-0.722451	-0.074102
N107	N	0.039110	0.000510	-0.043476
H108	H	-0.013567	0.000530	-0.034626
H109	H	0.055494	0.090802	-0.070935
H110	H	0.930822	0.000549	-0.712049
N111	N	0.914984	-0.818248	-0.002208
H112	H	0.905034	-0.855202	-0.049377
H113	H	0.962149	-0.855035	0.007809
H114	H	0.266321	0.155322	0.003545
H115	H	0.639480	-0.638727	0.273084
N116	N	0.693012	0.000362	-0.091146
H117	H	0.652411	0.000352	-0.119713
H118	H	0.690693	-0.089951	-0.060729
H119	H	0.725450	-0.777784	0.187180
H120	H	0.242680	-0.154353	0.179508
N121	N	0.003854	0.000473	0.219687
H122	H	0.032423	0.000447	0.260286
H123	H	-0.026581	0.090753	0.222035
H124	H	0.731259	-0.154445	-0.461450
