data_functionalizedCrystal
_audit_creation_method	'MofGen! by Chris Wilmer'
_symmetry_space_group_name_H-M	'P1'
_symmetry_Int_Tables_number	1
_symmetry_cell_setting	triclinic
loop_
_symmetry_equiv_pos_as_xyz
  x,y,z
_cell_length_a	30.700619
_cell_length_b	30.711499
_cell_length_c	30.700862
_cell_angle_alpha	59.999422
_cell_angle_beta	90.000764
_cell_angle_gamma	60.000156
loop_
_atom_site_label
_atom_site_type_symbol
_atom_site_fract_x
_atom_site_fract_y
_atom_site_fract_z
O1	O	-0.371240	-0.311664	0.012939
O2	O	-0.307903	-0.222498	-0.012912
O3	O	-0.307897	-0.311662	0.076281
O4	O	-0.371246	-0.222501	-0.076254
O5	O	-0.235450	-0.384080	0.076280
O6	O	-0.235456	-0.294917	-0.012912
O7	O	-0.298793	-0.384083	0.012938
Zn8	Zn	-0.255622	-0.350998	0.000013
Zn9	Zn	-0.351074	-0.255583	0.000014
O10	O	-0.298798	-0.294919	-0.076254
C11	C	-0.234782	-0.215957	-0.018790
C12	C	-0.261665	-0.246518	-0.015094
C13	C	-0.261113	-0.163186	-0.019157
C14	C	-0.155900	-0.215967	-0.018785
C15	C	-0.098443	-0.246538	-0.015084
C16	C	-0.182352	-0.163196	-0.019152
C17	C	-0.234774	-0.137115	-0.018785
C18	C	-0.261648	-0.083377	-0.015085
C19	C	-0.182360	-0.241919	-0.019156
C20	C	-0.574937	-0.535532	0.039256
C21	C	-0.548480	-0.588304	0.039624
C22	C	-0.496062	-0.535528	0.039254
C23	C	-0.469726	-0.588300	0.039623
C24	C	-0.496059	-0.614379	0.039255
C25	C	-0.548483	-0.509573	0.039623
C26	C	-0.765148	-0.393543	0.024977
C27	C	-0.819013	-0.364516	0.020941
C28	C	-0.846033	-0.389435	0.018915
C29	C	-0.904441	-0.357958	0.014528
C30	C	-0.819183	-0.443385	0.020931
C31	C	-0.765320	-0.472412	0.024974
C32	C	-0.738302	-0.447489	0.026998
C33	C	-0.447888	-0.790249	0.024977
C34	C	-0.423061	-0.840060	0.020940
C35	C	-0.371116	-0.865043	0.018910
C36	C	-0.344195	-0.919044	0.014525
C37	C	-0.343997	-0.840217	0.020924
C38	C	-0.368821	-0.790415	0.024971
C39	C	-0.420772	-0.765432	0.026994
C40	C	-0.447904	-0.393526	0.024970
C41	C	-0.423082	-0.364491	0.020924
C42	C	-0.371135	-0.389405	0.018896
C43	C	-0.344219	-0.357924	0.014507
C44	C	-0.344015	-0.443351	0.020910
C45	C	-0.368840	-0.472382	0.024953
C46	C	-0.420784	-0.447468	0.026988
C47	C	-0.679897	-0.478965	0.031378
C48	C	-0.633342	-0.504056	0.034871
C49	C	-0.469149	-0.504047	0.034867
C50	C	-0.447696	-0.478953	0.031372
C51	C	-0.469142	-0.668380	0.034870
C52	C	-0.447686	-0.711426	0.031377
C53	C	-0.496424	-0.071073	-0.503895
C54	C	-0.548847	-0.018303	-0.530231
C55	C	-0.496425	-0.071073	-0.425019
C56	C	-0.548848	-0.018302	-0.451475
C57	C	-0.575303	0.007774	-0.503896
C58	C	-0.470089	-0.097030	-0.451473
C59	C	-0.368655	-0.213067	-0.552056
C60	C	-0.343652	-0.242096	-0.576882
C61	C	-0.370605	-0.217180	-0.628829
C62	C	-0.343501	-0.248659	-0.655746
C63	C	-0.422560	-0.163231	-0.655950
C64	C	-0.447556	-0.134202	-0.631127
C65	C	-0.420601	-0.159123	-0.579178
C66	C	-0.765517	0.183638	-0.631663
C67	C	-0.819384	0.233448	-0.656666
C68	C	-0.846408	0.258434	-0.629716
C69	C	-0.904815	0.312433	-0.656817
C70	C	-0.819559	0.233610	-0.577762
C71	C	-0.765692	0.183809	-0.552765
C72	C	-0.738675	0.158824	-0.579721
C73	C	-0.368657	-0.213065	-0.234808
C74	C	-0.343657	-0.242098	-0.180940
C75	C	-0.370610	-0.217182	-0.153919
C76	C	-0.343507	-0.248660	-0.095511
C77	C	-0.422563	-0.163237	-0.180766
C78	C	-0.447561	-0.134208	-0.234632
C79	C	-0.420601	-0.159125	-0.261650
C80	C	-0.447711	-0.127644	-0.552263
C81	C	-0.469319	-0.102552	-0.530809
C82	C	-0.469320	-0.102551	-0.366614
C83	C	-0.447713	-0.127642	-0.320058
C84	C	-0.633710	0.061774	-0.531001
C85	C	-0.680266	0.104819	-0.552609
O86	O	0.076296	-0.384111	0.012951
O87	O	-0.076239	-0.294939	-0.012901
O88	O	0.012951	-0.384107	0.076292
O89	O	-0.012895	-0.294943	-0.076242
O90	O	0.012959	-0.311693	0.076296
O91	O	-0.076231	-0.222525	-0.012897
O92	O	0.076304	-0.311697	0.012955
Zn93	Zn	0.000037	-0.255614	0.000030
Zn94	Zn	0.000027	-0.351022	0.000024
O95	O	-0.012887	-0.222529	-0.076238
O96	O	-0.298768	0.063273	0.012952
O97	O	-0.235434	-0.063365	-0.012898
O98	O	-0.235430	-0.063371	0.076294
O99	O	-0.298771	0.063279	-0.076240
O100	O	-0.307881	-0.063362	0.076289
O101	O	-0.307884	-0.063356	-0.012903
O102	O	-0.371218	0.063282	0.012948
Zn103	Zn	-0.351054	-0.000036	0.000022
Zn104	Zn	-0.255598	-0.000047	0.000028
O105	O	-0.371221	0.063287	-0.076245
O106	O	-1.076612	0.456751	-0.692425
O107	O	-0.924076	0.330112	-0.629078
O108	O	-1.013264	0.330107	-0.629078
O109	O	-0.987424	0.456756	-0.692425
O110	O	-1.013262	0.330105	-0.701522
O111	O	-0.924074	0.330110	-0.701522
O112	O	-1.076611	0.456749	-0.764869
Zn113	Zn	-1.000342	0.393429	-0.744698
Zn114	Zn	-1.000344	0.393431	-0.649249
O115	O	-0.987423	0.456754	-0.764869
O116	O	-0.307897	-0.311662	-0.764512
O117	O	-0.371242	-0.222504	-0.701170
O118	O	-0.371238	-0.311666	-0.701168
O119	O	-0.307901	-0.222500	-0.764514
O120	O	-0.298790	-0.384085	-0.628722
O121	O	-0.298794	-0.294924	-0.628724
O122	O	-0.235449	-0.384081	-0.692066
Zn123	Zn	-0.255619	-0.351001	-0.648892
Zn124	Zn	-0.351072	-0.255585	-0.744343
O125	O	-0.235453	-0.294919	-0.692068
C126	C	-0.155902	-0.469477	0.234822
C127	C	-0.098445	-0.523214	0.261701
C128	C	-0.182358	-0.443400	0.261156
C129	C	-0.234781	-0.390629	0.155945
C130	C	-0.261661	-0.360062	0.098488
C131	C	-0.261117	-0.364672	0.182399
C132	C	-0.234781	-0.390629	0.234821
C133	C	-0.261660	-0.360063	0.261699
C134	C	-0.182358	-0.443400	0.182400
C135	C	0.018840	-0.390663	0.234836
C136	C	0.015146	-0.360099	0.261716
C137	C	0.019204	-0.443432	0.261169
C138	C	0.018837	-0.390660	0.155958
C139	C	0.015138	-0.360092	0.098502
C140	C	0.019201	-0.443428	0.182411
C141	C	0.018832	-0.469506	0.234832
C142	C	0.015128	-0.523241	0.261709
C143	C	0.019209	-0.364705	0.182414
C144	C	-0.234765	-0.215985	0.234825
C145	C	-0.261646	-0.246550	0.261699
C146	C	-0.182341	-0.241951	0.261161
C147	C	-0.234763	-0.137132	0.155954
C148	C	-0.261643	-0.083386	0.098499
C149	C	-0.182339	-0.163217	0.182410
C150	C	-0.155884	-0.215995	0.234830
C151	C	-0.098425	-0.246570	0.261709
C152	C	-0.261100	-0.163208	0.182405
C153	C	-0.039190	0.007413	-0.503879
C154	C	-0.039563	-0.018662	-0.530215
C155	C	-0.039195	-0.071433	-0.425004
C156	C	-0.039568	-0.097388	-0.451460
C157	C	-0.039199	-0.071430	-0.503881
C158	C	-0.039559	-0.018665	-0.451458
C159	C	-0.024893	0.183268	-0.552039
C160	C	-0.020851	0.233076	-0.576864
C161	C	-0.018824	0.258062	-0.628810
C162	C	-0.014431	0.312059	-0.655727
C163	C	-0.020843	0.233240	-0.655932
C164	C	-0.024892	0.183442	-0.631109
C165	C	-0.026917	0.158456	-0.579160
C166	C	-0.024930	-0.133846	-0.631649
C167	C	-0.020897	-0.162698	-0.656651
C168	C	-0.018872	-0.216650	-0.629703
C169	C	-0.014491	-0.247942	-0.656803
C170	C	-0.020888	-0.241747	-0.577749
C171	C	-0.024931	-0.212891	-0.552751
C172	C	-0.026948	-0.158938	-0.579707
C173	C	-0.024913	-0.133861	-0.234793
C174	C	-0.020869	-0.162720	-0.180925
C175	C	-0.018846	-0.216672	-0.153905
C176	C	-0.014459	-0.247967	-0.095498
C177	C	-0.020863	-0.241766	-0.180753
C178	C	-0.024905	-0.212907	-0.234618
C179	C	-0.026934	-0.158950	-0.261636
C180	C	-0.031302	0.104454	-0.552246
C181	C	-0.034800	0.061410	-0.530793
C182	C	-0.034810	-0.102724	-0.366599
C183	C	-0.031317	-0.127664	-0.320044
C184	C	-0.034818	-0.102718	-0.530987
C185	C	-0.031327	-0.127655	-0.552594
O186	O	-0.012891	-0.294956	0.371290
O187	O	0.012961	-0.384118	0.307950
O188	O	-0.076232	-0.294954	0.307942
O189	O	0.076302	-0.384120	0.371299
O190	O	-0.076227	-0.222536	0.235498
O191	O	0.012966	-0.311700	0.235507
O192	O	-0.012886	-0.222538	0.298846
Zn193	Zn	0.000041	-0.255621	0.255674
Zn194	Zn	0.000034	-0.351035	0.351122
O195	O	0.076307	-0.311702	0.298855
C196	C	-0.574940	0.464532	-0.503873
C197	C	-0.548484	0.490489	-0.530205
C198	C	-0.496061	0.385670	-0.424997
C199	C	-0.469724	0.411747	-0.451448
C200	C	-0.496060	0.464525	-0.503868
C201	C	-0.548484	0.411754	-0.451454
C202	C	-0.765157	0.526974	-0.552046
C203	C	-0.819024	0.555834	-0.576874
C204	C	-0.846046	0.609795	-0.628819
C205	C	-0.904456	0.641096	-0.655738
C206	C	-0.819196	0.634891	-0.655936
C207	C	-0.765331	0.606027	-0.631110
C208	C	-0.738311	0.552066	-0.579163
C209	C	-0.447889	0.606523	-0.631617
C210	C	-0.423061	0.635550	-0.656614
C211	C	-0.371114	0.610631	-0.629662
C212	C	-0.344192	0.642104	-0.656757
C213	C	-0.343993	0.556675	-0.577710
C214	C	-0.368817	0.527642	-0.552718
C215	C	-0.420771	0.552575	-0.579677
C216	C	-0.447894	0.209782	-0.234795
C217	C	-0.423069	0.159969	-0.180929
C218	C	-0.371119	0.134976	-0.153905
C219	C	-0.344200	0.080968	-0.095499
C220	C	-0.344000	0.159801	-0.180748
C221	C	-0.368827	0.209614	-0.234612
C222	C	-0.420774	0.234597	-0.261634
C223	C	-0.679904	0.520774	-0.552246
C224	C	-0.633347	0.495829	-0.530790
C225	C	-0.469144	0.331662	-0.366593
C226	C	-0.447689	0.288610	-0.320040
C227	C	-0.469142	0.496002	-0.530967
C228	C	-0.447686	0.521093	-0.552570
H229	H	-0.426655	-0.610119	0.040212
H230	H	-0.445147	0.679481	-0.698911
H231	H	0.019804	-0.322243	0.161178
H232	H	-0.304187	-0.141357	-0.019756
H233	H	0.019789	-0.465250	0.304238
H234	H	-0.346731	0.483711	-0.510420
H235	H	-0.161108	-0.141375	-0.019747
H236	H	-0.026536	0.163236	-0.653195
H237	H	-0.161105	-0.284416	0.304233
H238	H	-0.301717	-0.463637	0.019257
H239	H	-0.161125	-0.284382	-0.019749
H240	H	-0.040164	-0.139850	-0.430220
H241	H	-0.304187	-0.322204	0.161155
H242	H	-0.743462	-0.516339	0.026617
H243	H	-0.489856	-0.090275	-0.653213
H244	H	-0.040157	0.003166	-0.573287
H245	H	-0.569721	-0.610128	0.040218
H246	H	-0.161098	-0.141395	0.161170
H247	H	0.019798	-0.465254	0.161171
H248	H	-0.569727	-0.467106	0.040212
H249	H	-0.019213	-0.142293	-0.159066
H250	H	-0.026562	-0.089928	-0.256788
H251	H	-0.304174	-0.141380	0.161166
H252	H	-0.445169	-0.320564	0.019281
H253	H	-0.490202	-0.373233	0.026621
H254	H	-0.040107	0.003132	-0.430205
H255	H	-0.026542	0.162930	-0.509740
H256	H	-0.019205	0.253280	-0.554777
H257	H	-0.019195	0.253590	-0.698228
H258	H	-0.346741	0.229821	-0.256465
H259	H	-0.026577	-0.089915	-0.653602
H260	H	-0.490186	-0.769913	0.026628
H261	H	-0.743162	0.483037	-0.509750
H262	H	-0.743154	-0.373245	0.026626
H263	H	-0.445145	-0.860267	0.019298
H264	H	-0.840871	-0.320589	0.019296
H265	H	-0.841240	0.253655	-0.698965
H266	H	-0.019253	-0.142263	-0.698950
H267	H	-0.346701	-0.233363	-0.509758
H268	H	-0.841186	-0.463671	0.019284
H269	H	-0.346737	-0.770206	0.026612
H270	H	-0.301692	0.536379	-0.555768
H271	H	-0.026574	-0.233325	-0.510452
H272	H	-0.301701	-0.860563	0.019276
H273	H	-0.019247	-0.285672	-0.555809
H274	H	-0.570086	0.003520	-0.430234
H275	H	-0.026548	-0.233342	-0.256475
H276	H	-0.490190	0.626826	-0.653571
H277	H	-0.489862	-0.090284	-0.256488
H278	H	-0.019216	-0.285698	-0.158750
H279	H	-0.426651	0.389916	-0.430205
H280	H	-0.346755	-0.516306	0.026593
H281	H	-0.301699	0.139450	-0.158742
H282	H	-0.743522	0.163301	-0.653616
H283	H	-0.841201	0.678824	-0.698230
H284	H	-0.161111	-0.465215	0.161158
H285	H	-0.569724	0.532955	-0.573276
H286	H	-0.445157	0.139766	-0.159075
H287	H	-0.570081	0.003526	-0.573306
H288	H	-0.569732	0.389941	-0.430215
H289	H	-0.490193	0.230123	-0.256793
H290	H	-0.743835	0.163604	-0.510466
H291	H	-0.301351	-0.286021	-0.554796
H292	H	-0.161116	-0.465228	0.304229
H293	H	-0.427015	-0.139492	-0.430236
H294	H	-0.840882	0.535399	-0.554792
H295	H	-0.743473	0.626461	-0.653193
H296	H	-0.346698	-0.233352	-0.256806
H297	H	-0.301356	-0.286023	-0.159083
H298	H	-0.841562	0.253960	-0.555822
H299	H	-0.444499	-0.142946	-0.698246
H300	H	-0.444510	-0.142949	-0.158763
