data_functionalizedCrystal
_audit_creation_method	'MofGen! by Chris Wilmer'
_symmetry_space_group_name_H-M	'P1'
_symmetry_Int_Tables_number	1
_symmetry_cell_setting	triclinic
loop_
_symmetry_equiv_pos_as_xyz
  x,y,z
_cell_length_a	18.050591
_cell_length_b	18.050583
_cell_length_c	19.077068
_cell_angle_alpha	92.259717
_cell_angle_beta	92.323298
_cell_angle_gamma	89.977979
loop_
_atom_site_label
_atom_site_type_symbol
_atom_site_fract_x
_atom_site_fract_y
_atom_site_fract_z
Zn1	Zn	1.123424	-0.431891	-0.280224
Zn2	Zn	1.456758	-0.098558	0.053110
Zn3	Zn	1.790091	0.234775	0.386443
Zn4	Zn	1.118344	-0.312684	-0.397941
Zn5	Zn	1.451677	0.020650	-0.064608
Zn6	Zn	1.785010	0.353983	0.268725
Zn7	Zn	0.999240	-0.307704	-0.280254
Zn8	Zn	1.332573	0.025630	0.053079
Zn9	Zn	1.665907	0.358963	0.386412
Zn10	Zn	0.994205	-0.436816	-0.397876
Zn11	Zn	1.327539	-0.103483	-0.064543
Zn12	Zn	1.660872	0.229850	0.268791
O13	O	1.058803	-0.372274	-0.339074
O14	O	1.392137	-0.038940	-0.005740
O15	O	1.725470	0.294393	0.327593
O16	O	1.226674	-0.416101	-0.295853
O17	O	1.560008	-0.082768	0.037480
O18	O	1.893341	0.250565	0.370813
O19	O	1.102525	-0.208100	-0.382370
O20	O	1.435858	0.125233	-0.049037
O21	O	1.769192	0.458567	0.284296
O22	O	1.019947	-0.320032	-0.181760
O23	O	1.353280	0.013301	0.151573
O24	O	1.686613	0.346634	0.484907
O25	O	1.222942	-0.328520	-0.382340
O26	O	1.556275	0.004814	-0.049007
O27	O	1.889608	0.338147	0.284327
O28	O	1.111184	-0.411273	-0.181737
O29	O	1.444518	-0.077939	0.151596
O30	O	1.777851	0.255394	0.484929
O31	O	1.015020	-0.204441	-0.295906
O32	O	1.348353	0.128892	0.037427
O33	O	1.681687	0.462225	0.370760
O34	O	0.894648	-0.324808	-0.295843
O35	O	1.227982	0.008525	0.037490
O36	O	1.561315	0.341859	0.370824
O37	O	1.011366	-0.540086	-0.382229
O38	O	1.344699	-0.206753	-0.048895
O39	O	1.678033	0.126581	0.284438
O40	O	0.890949	-0.419666	-0.382259
O41	O	1.224283	-0.086333	-0.048925
O42	O	1.557616	0.247000	0.284408
O43	O	1.106303	-0.536468	-0.295790
O44	O	1.439636	-0.203134	0.037543
O45	O	1.772969	0.130199	0.370877
O46	O	1.097643	-0.333295	-0.496423
O47	O	1.430977	0.000038	-0.163090
O48	O	1.764310	0.333371	0.170244
O49	O	1.006439	-0.424495	-0.496375
O50	O	1.339773	-0.091162	-0.163042
O51	O	1.673106	0.242172	0.170292
C52	C	0.865852	-0.372232	-0.339048
C53	C	1.199186	-0.038898	-0.005714
C54	C	1.532519	0.294435	0.327619
C55	C	0.783306	-0.372232	-0.339053
C56	C	1.116640	-0.038899	-0.005720
C57	C	1.449973	0.294435	0.327613
C58	C	1.058839	-0.565976	-0.338999
C59	C	1.392173	-0.232643	-0.005665
C60	C	1.725506	0.100690	0.327668
C61	C	1.058855	-0.648521	-0.338967
C62	C	1.392188	-0.315187	-0.005633
C63	C	1.725521	0.018146	0.327700
C64	C	1.050964	-0.379986	-0.521936
C65	C	1.384297	-0.046653	-0.188603
C66	C	1.717631	0.286681	0.144730
C67	C	1.047678	-0.383310	-0.600166
C68	C	1.381011	-0.049977	-0.266832
C69	C	1.714345	0.283356	0.066501
C70	C	0.585848	-0.320760	-0.292006
C71	C	0.919181	0.012574	0.041328
C72	C	1.252515	0.345907	0.374661
C73	C	0.533707	-0.305201	-0.356204
C74	C	0.867040	0.028133	-0.022871
C75	C	1.200374	0.361466	0.310463
C76	C	0.632175	-0.372266	-0.339075
C77	C	0.965508	-0.038933	-0.005741
C78	C	1.298842	0.294400	0.327592
C79	C	0.537233	-0.387824	-0.274899
C80	C	0.870567	-0.054491	0.058434
C81	C	1.203900	0.278842	0.391768
C82	C	0.486189	-0.372298	-0.339090
C83	C	0.819523	-0.038965	-0.005756
C84	C	1.152856	0.294369	0.327577
C85	C	0.581120	-0.356673	-0.403306
C86	C	0.914453	-0.023340	-0.069973
C87	C	1.247787	0.309993	0.263360
C88	C	0.584652	-0.439327	-0.321958
C89	C	0.917986	-0.105993	0.011375
C90	C	1.251319	0.227340	0.344708
C91	C	0.532532	-0.423795	-0.386201
C92	C	0.865865	-0.090462	-0.052867
C93	C	1.199199	0.242871	0.280466
C94	C	0.716274	-0.372246	-0.339065
C95	C	1.049607	-0.038913	-0.005732
C96	C	1.382940	0.294420	0.327602
C97	C	0.402092	-0.372319	-0.339106
C98	C	0.735425	-0.038985	-0.005773
C99	C	1.068759	0.294348	0.327560
C100	C	1.252508	-0.372317	-0.339101
C101	C	1.585841	-0.038983	-0.005767
C102	C	1.919175	0.294350	0.327566
C103	C	1.335053	-0.372335	-0.339112
C104	C	1.668386	-0.039001	-0.005779
C105	C	2.001720	0.294332	0.327555
C106	C	1.110532	-0.846003	-0.291939
C107	C	1.443865	-0.512670	0.041395
C108	C	1.777199	-0.179336	0.374728
C109	C	1.043529	-0.894661	-0.274708
C110	C	1.376862	-0.561328	0.058625
C111	C	1.710195	-0.227995	0.391958
C112	C	1.058885	-0.799651	-0.338955
C113	C	1.392218	-0.466317	-0.005621
C114	C	1.725552	-0.132984	0.327712
C115	C	1.125918	-0.898072	-0.356140
C116	C	1.459251	-0.564739	-0.022807
C117	C	1.792584	-0.231405	0.310526
C118	C	1.058920	-0.945635	-0.338942
C119	C	1.392254	-0.612302	-0.005608
C120	C	1.725587	-0.278969	0.327725
C121	C	0.991847	-0.847221	-0.321691
C122	C	1.325180	-0.513887	0.011642
C123	C	1.658514	-0.180554	0.344975
C124	C	1.074281	-0.850628	-0.403153
C125	C	1.407614	-0.517295	-0.069820
C126	C	1.740947	-0.183962	0.263514
C127	C	1.007229	-0.899265	-0.385947
C128	C	1.340563	-0.565932	-0.052614
C129	C	1.673896	-0.232599	0.280720
C130	C	1.058866	-0.715553	-0.338960
C131	C	1.392199	-0.382219	-0.005627
C132	C	1.725532	-0.048886	0.327706
C133	C	1.058932	-1.029732	-0.338936
C134	C	1.392265	-0.696398	-0.005603
C135	C	1.725599	-0.363065	0.327731
C136	C	1.058812	-0.179323	-0.339098
C137	C	1.392146	0.154011	-0.005765
C138	C	1.725479	0.487344	0.327569
C139	C	1.058949	-0.096770	-0.338932
C140	C	1.392283	0.236563	-0.005598
C141	C	1.725616	0.569896	0.327735
C142	C	1.093656	-0.337429	-0.636920
C143	C	1.426990	-0.004095	-0.303586
C144	C	1.760323	0.329238	0.029747
C145	C	1.090570	-0.340560	-0.710424
C146	C	1.423903	-0.007226	-0.377091
C147	C	1.757237	0.326107	-0.043758
C148	C	1.041502	-0.389569	-0.747174
C149	C	1.374835	-0.056236	-0.413840
C150	C	1.708168	0.277098	-0.080507
C151	C	0.995522	-0.435456	-0.710415
C152	C	1.328855	-0.102122	-0.377081
C153	C	1.662188	0.231211	-0.043748
C154	C	0.998612	-0.432328	-0.636911
C155	C	1.331945	-0.098995	-0.303578
C156	C	1.665279	0.234339	0.029755
C157	C	1.027167	-0.404014	-0.967005
C158	C	1.360500	-0.070681	-0.633672
C159	C	1.693833	0.262652	-0.300339
C160	C	1.024078	-0.407137	-1.040514
C161	C	1.357411	-0.073804	-0.707181
C162	C	1.690745	0.259530	-0.373847
C163	C	1.119128	-0.312241	-1.040518
C164	C	1.452461	0.021092	-0.707185
C165	C	1.785795	0.354425	-0.373852
C166	C	1.122211	-0.309115	-0.967014
C167	C	1.455544	0.024219	-0.633680
C168	C	1.788877	0.357552	-0.300347
C169	C	1.076234	-0.355004	-0.930261
C170	C	1.409567	-0.021671	-0.596928
C171	C	1.742900	0.311662	-0.263594
N172	N	1.038344	-0.392769	-0.822307
N173	N	1.371678	-0.059435	-0.488974
N174	N	1.705011	0.273898	-0.155641
N175	N	1.079395	-0.351808	-0.855129
N176	N	1.412729	-0.018474	-0.521795
N177	N	1.746062	0.314859	-0.188462
C178	C	1.066694	-0.364548	-0.155497
C179	C	1.400027	-0.031214	0.177836
C180	C	1.733360	0.302119	0.511169
C181	C	1.070056	-0.361255	-0.077268
C182	C	1.403390	-0.027922	0.256065
C183	C	1.736723	0.305411	0.589399
H184	H	0.511354	-0.248503	-0.370692
H185	H	0.844688	0.084830	-0.037359
H186	H	1.178021	0.418164	0.295974
H187	H	0.989729	-0.441378	-0.937087
H188	H	1.323062	-0.108045	-0.603754
H189	H	1.656395	0.225289	-0.270420
O190	O	1.091543	-0.824848	-0.475049
O191	O	1.424876	-0.491515	-0.141715
O192	O	1.758210	-0.158182	0.191618
H193	H	1.147229	-0.845190	-0.489201
H194	H	1.480562	-0.511856	-0.155868
H195	H	1.813896	-0.178523	0.177465
O196	O	0.942587	-0.488310	-0.750046
O197	O	1.275920	-0.154976	-0.416713
O198	O	1.609254	0.178357	-0.083380
H199	H	0.948153	-0.482769	-0.807333
H200	H	1.281486	-0.149435	-0.474000
H201	H	1.614819	0.183898	-0.140666
O202	O	0.614332	-0.514390	-0.302743
O203	O	0.947665	-0.181056	0.030590
O204	O	1.280999	0.152277	0.363924
H205	H	0.592099	-0.557256	-0.341290
H206	H	0.925432	-0.223923	-0.007957
H207	H	1.258765	0.109411	0.325376
H208	H	0.600397	-0.343464	-0.457601
H209	H	0.933731	-0.010131	-0.124268
H210	H	1.267064	0.323202	0.209065
O211	O	0.501768	-0.481507	-0.438990
O212	O	0.835101	-0.148174	-0.105657
O213	O	1.168435	0.185159	0.227677
H214	H	0.519373	-0.468426	-0.492193
H215	H	0.852706	-0.135093	-0.158860
H216	H	1.186039	0.198241	0.174474
O217	O	0.511547	-0.405242	-0.203012
O218	O	0.844880	-0.071908	0.130321
O219	O	1.178214	0.261425	0.463654
H220	H	0.532821	-0.460490	-0.188459
H221	H	0.866154	-0.127157	0.144874
H222	H	1.199488	0.206177	0.478207
O223	O	1.026285	-0.920401	-0.202789
O224	O	1.359619	-0.587068	0.130544
O225	O	1.692952	-0.253735	0.463878
H226	H	1.025927	-0.981918	-0.203576
H227	H	1.359261	-0.648585	0.129757
H228	H	1.692594	-0.315252	0.463091
H229	H	1.154140	-0.822676	-0.252154
H230	H	1.487474	-0.489343	0.081180
H231	H	1.820807	-0.156010	0.414513
H232	H	1.182591	-0.920387	-0.370680
H233	H	1.515924	-0.587053	-0.037347
H234	H	1.849258	-0.253720	0.295987
H235	H	1.133610	-0.297517	-0.607003
H236	H	1.466943	0.035817	-0.273670
H237	H	1.800276	0.369150	0.059664
O238	O	1.140156	-0.291069	-0.750069
O239	O	1.473489	0.042264	-0.416736
O240	O	1.806822	0.375598	-0.083402
H241	H	1.174787	-0.256457	-0.712166
H242	H	1.508120	0.076877	-0.378833
H243	H	1.841454	0.410210	-0.045499
H244	H	0.935160	-0.824997	-0.307087
H245	H	1.268493	-0.491664	0.026246
H246	H	1.601826	-0.158330	0.359580
H247	H	0.963520	-0.922451	-0.425701
H248	H	1.296853	-0.589118	-0.092368
H249	H	1.630187	-0.255785	0.240965
H250	H	1.162166	-0.269207	-0.937094
H251	H	1.495500	0.064126	-0.603760
H252	H	1.828833	0.397459	-0.270427
O253	O	1.168738	-0.262769	-1.080157
O254	O	1.502071	0.070564	-0.746823
O255	O	1.835405	0.403898	-0.413490
H256	H	1.158358	-0.273185	-1.137442
H257	H	1.491692	0.060148	-0.804109
H258	H	1.825025	0.393482	-0.470776
O259	O	0.971158	-0.460005	-1.080156
O260	O	1.304491	-0.126672	-0.746822
O261	O	1.637824	0.206662	-0.413489
H262	H	0.939711	-0.491396	-1.042251
H263	H	1.273045	-0.158062	-0.708918
H264	H	1.606378	0.175271	-0.375585
O265	O	0.949014	-0.481805	-0.597264
O266	O	1.282347	-0.148472	-0.263930
O267	O	1.615680	0.184861	0.069403
H268	H	0.914366	-0.516403	-0.635165
H269	H	1.247700	-0.183070	-0.301832
H270	H	1.581033	0.150263	0.031501
H271	H	0.609190	-0.277159	-0.252244
H272	H	0.942523	0.056174	0.081089
H273	H	1.275857	0.389508	0.414423
