data_functionalizedCrystal
_audit_creation_method	'MofGen! by Chris Wilmer'
_symmetry_space_group_name_H-M	'P1'
_symmetry_Int_Tables_number	1
_symmetry_cell_setting	triclinic
loop_
_symmetry_equiv_pos_as_xyz
  x,y,z
_cell_length_a	14.044191
_cell_length_b	15.186229
_cell_length_c	16.109301
_cell_angle_alpha	89.994833
_cell_angle_beta	88.326629
_cell_angle_gamma	89.999039
loop_
_atom_site_label
_atom_site_type_symbol
_atom_site_fract_x
_atom_site_fract_y
_atom_site_fract_z
O1	O	1.257645	-0.073191	0.200463
O2	O	0.981678	-0.073202	0.193224
O3	O	1.127242	-0.073187	0.076377
O4	O	1.112080	-0.073206	0.317311
O5	O	1.127233	0.073270	0.076375
O6	O	0.981668	0.073255	0.193222
O7	O	1.257635	0.073266	0.200461
Zn8	Zn	1.119650	0.096514	0.196841
Zn9	Zn	1.119663	-0.096450	0.196844
O10	O	1.112071	0.073251	0.317308
C11	C	0.946359	0.000025	0.190056
C12	C	0.841136	0.000021	0.180610
C13	C	0.590834	0.000026	0.230335
C14	C	0.648484	0.000030	0.163354
C15	C	0.755686	0.000025	0.172958
C16	C	0.483623	0.000031	0.220733
C17	C	1.126623	0.000042	0.045355
C18	C	1.124782	0.000043	-0.047077
C19	C	1.292954	0.000037	0.203629
C20	C	1.398177	0.000035	0.213075
N21	N	1.119648	0.228207	0.196839
N22	N	1.119672	-0.228143	0.196841
C23	C	1.184126	0.453936	0.145119
C24	C	1.184129	0.546126	0.145118
C25	C	1.055187	0.546122	0.248562
C26	C	1.055181	0.453934	0.248559
C27	C	1.119655	0.407843	0.196839
C28	C	1.119665	0.592221	0.196840
C29	C	1.119668	0.692177	0.196839
C30	C	1.119652	0.307881	0.196839
C31	C	1.206876	0.000032	-0.263240
C32	C	1.205138	0.000025	-0.350089
C33	C	1.032431	0.000021	-0.343068
C34	C	1.034169	0.000022	-0.256220
C35	C	1.121395	0.000032	-0.216308
C36	C	1.117918	0.000024	-0.390006
C37	C	1.116034	0.000016	-0.484173
C38	C	1.123280	0.000039	-0.122136
C39	C	1.112690	0.000020	0.348330
C40	C	1.114531	0.000013	0.440762
H41	H	1.236624	0.416411	0.103005
C42	C	0.606407	0.000032	0.076141
H43	H	0.656678	0.000038	0.035379
H44	H	0.568295	-0.051039	0.069624
H45	H	0.568299	0.051113	0.069616
C46	C	0.984280	0.596824	0.305457
H47	H	0.993523	0.658330	0.298060
H48	H	0.921023	0.581725	0.291708
H49	H	0.994563	0.581704	0.361715
C50	C	1.255045	0.596828	0.088228
H51	H	1.245811	0.658334	0.095628
H52	H	1.318299	0.581716	0.101979
H53	H	1.244763	0.581724	0.031969
C54	C	0.984261	0.403228	0.305455
H55	H	0.945873	0.443880	0.336267
H56	H	0.944816	0.367272	0.272600
H57	H	1.018351	0.367259	0.342611
H58	H	1.277900	0.000038	-0.230746
C59	C	1.299168	0.000030	-0.401711
H60	H	1.351361	0.000043	-0.365499
H61	H	1.302087	-0.051043	-0.435731
H62	H	1.302074	0.051109	-0.435740
H63	H	0.961415	0.000015	-0.375576
C64	C	0.940135	0.000025	-0.204592
H65	H	0.887938	0.000032	-0.240800
H66	H	0.937226	-0.051047	-0.170561
H67	H	0.937226	0.051105	-0.170573
H68	H	0.621988	0.000019	0.294886
