data_functionalizedCrystal
_audit_creation_method	'MofGen! by Chris Wilmer'
_symmetry_space_group_name_H-M	'P1'
_symmetry_Int_Tables_number	1
_symmetry_cell_setting	triclinic
loop_
_symmetry_equiv_pos_as_xyz
  x,y,z
_cell_length_a	15.944486
_cell_length_b	13.930277
_cell_length_c	14.853559
_cell_angle_alpha	89.993167
_cell_angle_beta	96.448066
_cell_angle_gamma	89.989905
loop_
_atom_site_label
_atom_site_type_symbol
_atom_site_fract_x
_atom_site_fract_y
_atom_site_fract_z
O1	O	-1.114688	0.079904	0.115984
O2	O	-0.870146	0.079888	0.130380
O3	O	-0.998953	0.079896	-0.008058
O4	O	-0.985881	0.079897	0.254423
O5	O	-0.998934	-0.079766	-0.008037
O6	O	-0.870127	-0.079774	0.130402
O7	O	-1.114669	-0.079758	0.116006
Zn8	Zn	-0.992395	-0.105116	0.123207
Zn9	Zn	-0.992420	0.105246	0.123179
O10	O	-0.985862	-0.079765	0.254444
C11	C	-0.838841	0.000055	0.129804
C12	C	-0.745591	0.000050	0.128043
N13	N	-0.992384	-0.248682	0.123225
C14	C	-0.454140	0.000059	0.208482
C15	C	-0.515134	0.078783	0.166662
C16	C	-0.409945	0.000066	0.121645
C17	C	-0.515101	-0.078631	0.166659
C18	C	-0.574858	0.000056	0.124793
C19	C	-0.469710	0.078855	0.079800
C20	C	-0.469671	-0.078630	0.079810
C21	C	-0.530647	0.000113	0.037926
C22	C	-0.314942	0.000072	0.119834
C23	C	-0.669860	0.000057	0.126597
C24	C	-1.043436	-0.700937	0.177864
C25	C	-0.941430	-0.700934	0.068457
C26	C	-0.941417	-0.600438	0.068472
C27	C	-0.992416	-0.550187	0.123182
C28	C	-1.043427	-0.600432	0.177878
C29	C	-0.890413	-0.550186	0.013770
C30	C	-0.890399	-0.449684	0.013781
C31	C	-0.941394	-0.399431	0.068498
C32	C	-0.992406	-0.449682	0.123197
C33	C	-1.043405	-0.399431	0.177907
C34	C	-1.094413	-0.449680	0.232612
C35	C	-1.094421	-0.550179	0.232594
C36	C	-0.941386	-0.298933	0.068515
C37	C	-1.043395	-0.298926	0.177921
C38	C	-0.145972	0.000073	0.116595
C39	C	-0.239219	0.000071	0.118392
C40	C	-0.998352	0.000066	-0.041635
C41	C	-0.996581	0.000072	-0.141717
N42	N	-0.992438	0.248812	0.123153
C43	C	-0.989078	0.087103	-0.564892
C44	C	-0.989058	-0.086967	-0.564863
C45	C	-0.990729	-0.086967	-0.470833
C46	C	-0.991573	0.000068	-0.423827
C47	C	-0.990747	0.087105	-0.470852
C48	C	-0.991547	-0.174002	-0.423799
C49	C	-0.993217	-0.174006	-0.329763
C50	C	-0.994067	-0.086970	-0.282756
C51	C	-0.993242	0.000070	-0.329787
C52	C	-0.994086	0.087106	-0.282781
C53	C	-0.993267	0.174147	-0.329812
C54	C	-0.991598	0.174142	-0.423845
C55	C	-0.995737	-0.086964	-0.188722
C56	C	-0.995755	0.087108	-0.188742
C57	C	-0.986463	0.000066	0.288021
C58	C	-0.988234	0.000067	0.388103
H59	H	-0.535280	0.145334	0.203385
H60	H	-1.084921	-0.258019	0.222479
H61	H	-0.993887	-0.244880	-0.291479
H62	H	-0.420888	0.000135	0.280552
H63	H	-0.449699	0.145483	0.043097
C64	C	-0.994137	0.268742	-0.278928
C65	C	-0.993044	0.344969	-0.340230
C66	C	-0.993833	0.432120	-0.293384
H67	H	-1.043718	0.272494	-0.249120
H68	H	-0.945821	0.272406	-0.235379
H69	H	-1.041356	0.341307	-0.383762
H70	H	-0.943467	0.341249	-0.370040
H71	H	-0.945516	0.435784	-0.249835
H72	H	-1.043414	0.435862	-0.263578
H73	H	-0.993083	0.483851	-0.334969
C74	C	-0.574751	0.000366	-0.058270
C75	C	-0.551739	0.082935	-0.103313
C76	C	-0.592359	0.083211	-0.191925
H77	H	-0.558528	-0.054961	-0.089447
H78	H	-0.634145	-0.000112	-0.056645
H79	H	-0.492357	0.083405	-0.104943
H80	H	-0.567963	0.138276	-0.072164
H81	H	-0.651754	0.082733	-0.190300
H82	H	-0.576133	0.027880	-0.223093
H83	H	-0.576757	0.139237	-0.222495
H84	H	-0.899915	-0.741854	0.023908
C85	C	-0.996817	0.181569	-0.137667
C86	C	-1.069980	0.186687	-0.093836
C87	C	-1.070979	0.273690	-0.046779
H88	H	-0.948571	0.185248	-0.094045
H89	H	-0.996127	0.233441	-0.179110
H90	H	-1.070662	0.134829	-0.052397
H91	H	-1.118238	0.183024	-0.137437
H92	H	-1.070290	0.325562	-0.088221
H93	H	-1.022730	0.277361	-0.003161
H94	H	-1.120623	0.277178	-0.017040
H95	H	-0.996385	-0.157832	-0.150432
C96	C	-0.990654	0.268536	-0.475062
C97	C	-0.988984	0.249902	-0.567469
C98	C	-0.988100	0.336833	-0.614679
H99	H	-1.039861	0.304375	-0.466655
H100	H	-0.941966	0.304300	-0.452817
H101	H	-1.037668	0.214153	-0.589708
H102	H	-0.939781	0.214077	-0.575903
H103	H	-0.939411	0.372597	-0.592434
H104	H	-1.037308	0.372666	-0.606265
H105	H	-0.986959	0.324202	-0.677381
H106	H	-0.449507	-0.145187	0.043120
H107	H	-1.084963	-0.741854	0.222406
H108	H	-0.535208	-0.145182	0.203411
C109	C	-1.149944	-0.604615	0.291913
C110	C	-1.234552	-0.580115	0.267097
C111	C	-1.285725	-0.630237	0.321724
H112	H	-1.142759	-0.671679	0.284113
H113	H	-1.134457	-0.588153	0.353609
H114	H	-1.250035	-0.596583	0.205415
H115	H	-1.241764	-0.513059	0.274901
H116	H	-1.270237	-0.613775	0.383420
H117	H	-1.278532	-0.697298	0.313920
H118	H	-1.343136	-0.613614	0.304900
C119	C	-0.988015	-0.181384	-0.615997
C120	C	-0.914859	-0.186470	-0.659844
C121	C	-0.913880	-0.273430	-0.706973
H122	H	-0.988704	-0.233303	-0.574624
H123	H	-1.036284	-0.184995	-0.659614
H124	H	-0.866603	-0.182869	-0.616232
H125	H	-0.914154	-0.134571	-0.701232
H126	H	-0.962149	-0.277041	-0.750590
H127	H	-0.914572	-0.325343	-0.665593
H128	H	-0.864249	-0.276889	-0.736735
H129	H	-1.135940	-0.408753	0.277153
H130	H	-0.848901	-0.591108	-0.030780
C131	C	-0.990515	-0.268415	-0.474944
C132	C	-0.917370	-0.273500	-0.518808
C133	C	-0.916408	-0.360453	-0.565952
H134	H	-0.991202	-0.320340	-0.433577
H135	H	-1.038792	-0.272014	-0.518551
H136	H	-0.869106	-0.269910	-0.475205
H137	H	-0.916668	-0.221595	-0.560190
H138	H	-0.964684	-0.364053	-0.609559
H139	H	-0.917096	-0.412372	-0.524578
H140	H	-0.866784	-0.363911	-0.595726
H141	H	-0.848865	-0.408780	-0.030762
H142	H	-0.899858	-0.258024	0.023973
H143	H	-0.988415	0.157970	-0.603188
