data_functionalizedCrystal
_audit_creation_method	'MofGen! by Chris Wilmer'
_symmetry_space_group_name_H-M	'P1'
_symmetry_Int_Tables_number	1
_symmetry_cell_setting	triclinic
loop_
_symmetry_equiv_pos_as_xyz
  x,y,z
_cell_length_a	23.532409
_cell_length_b	10.489741
_cell_length_c	8.965430
_cell_angle_alpha	90.001157
_cell_angle_beta	90.003489
_cell_angle_gamma	96.305633
loop_
_atom_site_label
_atom_site_type_symbol
_atom_site_fract_x
_atom_site_fract_y
_atom_site_fract_z
O1	O	0.080340	-1.691384	-0.123936
O2	O	0.087881	-1.319938	-0.123958
O3	O	0.001253	-1.516860	-0.123948
O4	O	0.166968	-1.494461	-0.123946
O5	O	0.001259	-1.516844	0.124131
O6	O	0.087887	-1.319921	0.124121
O7	O	0.080345	-1.691367	0.124143
Cu8	Cu	0.084117	-1.505643	0.146783
Cu9	Cu	0.084110	-1.505662	-0.146599
O10	O	0.166974	-1.494445	0.124133
C11	C	0.087315	-1.272417	0.000078
C12	C	0.085610	-1.130844	0.000069
C13	C	-0.019964	-1.516281	0.000088
C14	C	-0.083192	-1.514565	0.000077
C15	C	0.080912	-1.738888	0.000103
C16	C	0.082616	-1.880461	0.000102
C17	C	-0.356489	-1.507276	-0.135158
C18	C	-0.297078	-1.508869	-0.135158
O19	O	-0.266350	-1.509746	-0.250160
N20	N	-0.267367	-1.509649	0.000072
C21	C	-0.297071	-1.508848	0.135311
O22	O	-0.266345	-1.509659	0.250334
C23	C	-0.356482	-1.507264	0.135309
C24	C	-0.386188	-1.506471	0.000070
C25	C	-0.386196	-1.506484	-0.270386
C26	C	-0.445602	-1.504888	-0.270385
C27	C	-0.475302	-1.504084	-0.135157
C28	C	-0.445595	-1.504875	0.000071
C29	C	-0.386185	-1.506472	0.270547
C30	C	-0.445599	-1.504888	0.270534
C31	C	-0.475306	-1.504095	0.135295
C32	C	-0.534701	-1.502474	0.135301
N33	N	-0.564412	-1.501694	0.000071
C34	C	-0.534712	-1.502499	-0.135158
C35	C	-0.172306	-1.512178	0.135303
C36	C	-0.112897	-1.513753	0.135306
C37	C	-0.112907	-1.513777	-0.135164
C38	C	-0.172317	-1.512192	-0.135165
C39	C	-0.202017	-1.511398	0.000073
C40	C	-0.659470	-1.499146	-0.135146
C41	C	-0.718881	-1.497545	-0.135133
C42	C	-0.718866	-1.497528	0.135335
C43	C	-0.659459	-1.499123	0.135324
C44	C	-0.629763	-1.499936	0.000071
O45	O	-0.565467	-1.501602	0.250244
O46	O	-0.565446	-1.501705	-0.250162
C47	C	0.188191	-1.495024	0.000094
C48	C	0.251419	-1.496740	0.000095
N49	N	0.084121	-1.505638	0.353133
C50	C	0.030491	-1.064535	0.000083
C51	C	0.056526	-0.971551	-0.122230
C52	C	0.056545	-0.971569	0.122357
C53	C	0.111668	-1.039725	-0.122344
C54	C	0.111679	-1.039752	0.122352
C55	C	0.137754	-0.946794	0.000010
N56	N	0.084101	-1.505677	-0.352948
C57	C	0.124171	-1.414540	0.450434
C58	C	0.135693	-1.529654	0.549855
C59	C	0.072603	-1.390573	0.549839
C60	C	0.095670	-1.620810	0.450365
C61	C	0.032557	-1.481653	0.450340
C62	C	0.044059	-1.596850	0.549716
H63	H	-0.743066	-1.496895	-0.245266
C64	C	-0.478265	-1.504009	0.419311
N65	N	-0.502866	-1.503341	0.531369
C66	C	0.108893	-1.752318	0.391588
N67	N	0.118854	-1.851366	0.347314
C68	C	0.025029	-0.930759	0.262056
N69	N	0.001287	-0.900027	0.367272
C70	C	-0.626812	-1.500031	-0.283931
N71	N	-0.602214	-1.500687	-0.395996
C72	C	0.059451	-1.259091	0.608863
N73	N	0.049549	-1.160056	0.653313
C74	C	-0.026322	-1.454158	0.391231
N75	N	-0.070669	-1.433433	0.346705
H76	H	0.033202	-0.941319	-0.225638
H77	H	0.158070	-1.337572	0.406841
H78	H	-0.362009	-1.507131	0.380673
C79	C	-0.030731	-1.133650	-0.000083
N80	N	-0.076842	-1.185709	-0.000216
H81	H	-0.196501	-1.511544	-0.245289
C82	C	-0.204969	-1.511280	0.284086
N83	N	-0.229567	-1.510602	0.396149
C84	C	-0.626781	-1.499988	0.284092
N85	N	-0.602172	-1.500654	0.396148
H86	H	0.179291	-1.549968	0.593566
C87	C	-0.751547	-1.496638	0.284080
N88	N	-0.776164	-1.495975	0.396115
C89	C	0.143142	-1.080332	-0.262207
N90	N	0.166846	-1.110922	-0.367554
C91	C	0.199030	-0.877976	-0.000081
N92	N	0.245182	-0.826139	-0.000157
C93	C	-0.353535	-1.507364	-0.419162
N94	N	-0.328938	-1.508016	-0.531230
H95	H	0.134984	-1.070016	0.225766
H96	H	-0.469785	-1.504252	-0.380511
H97	H	-0.088715	-1.514428	-0.245274
C98	C	-0.001705	-1.701061	0.608264
N99	N	-0.036170	-1.779556	0.652373
H100	H	-0.088713	-1.514375	0.245431
