data_functionalizedCrystal
_audit_creation_method	'MofGen! by Chris Wilmer'
_symmetry_space_group_name_H-M	'P1'
_symmetry_Int_Tables_number	1
_symmetry_cell_setting	triclinic
loop_
_symmetry_equiv_pos_as_xyz
  x,y,z
_cell_length_a	21.295420
_cell_length_b	21.295417
_cell_length_c	18.101389
_cell_angle_alpha	89.978482
_cell_angle_beta	89.980845
_cell_angle_gamma	90.027953
loop_
_atom_site_label
_atom_site_type_symbol
_atom_site_fract_x
_atom_site_fract_y
_atom_site_fract_z
Zn1	Zn	0.962324	-0.250705	-0.418721
Zn2	Zn	1.462324	0.249295	0.081279
Zn3	Zn	0.962239	-0.355958	-0.294872
Zn4	Zn	1.462239	0.144042	0.205128
Zn5	Zn	0.857058	-0.250704	-0.294893
Zn6	Zn	1.357058	0.249296	0.205107
Zn7	Zn	0.857019	-0.355937	-0.418672
Zn8	Zn	1.357019	0.144063	0.081328
O9	O	0.909660	-0.303326	-0.356789
O10	O	1.409660	0.196674	0.143211
O11	O	1.050402	-0.264676	-0.402304
O12	O	1.550402	0.235324	0.097696
O13	O	0.948267	-0.342004	-0.191242
O14	O	1.448267	0.157996	0.308758
O15	O	0.871074	-0.162614	-0.311348
O16	O	1.371074	0.337386	0.188652
O17	O	1.050339	-0.342005	-0.311313
O18	O	1.550339	0.157995	0.188687
O19	O	0.948413	-0.162615	-0.402323
O20	O	1.448413	0.337385	0.097677
O21	O	0.870991	-0.264674	-0.191257
O22	O	1.370991	0.235326	0.308743
O23	O	0.768963	-0.264654	-0.311301
O24	O	1.268963	0.235346	0.188699
O25	O	0.871007	-0.341969	-0.522311
O26	O	1.371007	0.158031	-0.022311
O27	O	0.768934	-0.341968	-0.402241
O28	O	1.268934	0.158032	0.097759
O29	O	0.948375	-0.264655	-0.522347
O30	O	1.448375	0.235345	-0.022347
O31	O	0.948228	-0.444045	-0.311266
O32	O	1.448228	0.055955	0.188734
O33	O	0.870924	-0.444029	-0.402221
O34	O	1.370924	0.055971	0.097779
C35	C	0.746108	-0.303309	-0.356768
C36	C	1.246108	0.196691	0.143232
C37	C	0.676140	-0.303317	-0.356777
C38	C	1.176140	0.196683	0.143223
C39	C	0.176684	-0.343657	-0.404096
C40	C	0.676684	0.156343	0.095904
C41	C	0.242426	-0.343658	-0.404088
C42	C	0.742426	0.156342	0.095912
C43	C	0.275301	-0.303340	-0.356813
C44	C	0.775301	0.196660	0.143187
C45	C	0.242427	-0.263031	-0.309528
C46	C	0.742427	0.236969	0.190472
C47	C	0.176686	-0.263036	-0.309532
C48	C	0.676686	0.236964	0.190468
N49	N	0.378541	-0.248223	-0.351244
N50	N	0.878541	0.251777	0.148756
N51	N	0.440993	-0.248219	-0.351245
N52	N	0.940993	0.251781	0.148755
C53	C	0.473375	-0.303322	-0.356797
C54	C	0.973375	0.196678	0.143203
N55	N	0.440948	-0.358430	-0.362363
N56	N	0.940948	0.141570	0.137637
N57	N	0.378490	-0.358433	-0.362367
N58	N	0.878490	0.141567	0.137633
C59	C	0.346586	-0.303330	-0.356803
C60	C	0.846586	0.196670	0.143197
C61	C	0.577526	-0.343633	-0.404067
C62	C	1.077526	0.156367	0.095933
C63	C	0.643270	-0.343634	-0.404054
C64	C	1.143270	0.156366	0.095946
C65	C	0.643270	-0.263001	-0.309497
C66	C	1.143270	0.236999	0.190503
C67	C	0.577528	-0.263006	-0.309506
C68	C	1.077528	0.236994	0.190494
C69	C	0.544660	-0.303320	-0.356795
C70	C	1.044660	0.196680	0.143205
C71	C	0.909580	-0.466877	-0.356752
C72	C	1.409580	0.033123	0.143248
C73	C	0.909603	-0.536845	-0.356761
C74	C	1.409603	-0.036845	0.143239
C75	C	0.949850	-0.569655	-0.404166
C76	C	1.449850	-0.069655	0.095834
C77	C	0.949872	-0.635398	-0.404184
C78	C	1.449872	-0.135398	0.095816
C79	C	0.909654	-0.668328	-0.356784
C80	C	1.409654	-0.168328	0.143216
C81	C	0.869399	-0.635510	-0.309376
C82	C	1.369399	-0.135510	0.190624
C83	C	0.869373	-0.569769	-0.309364
C84	C	1.369373	-0.069769	0.190636
N85	N	0.904900	-0.771581	-0.291972
N86	N	1.404900	-0.271581	0.208028
N87	N	0.904928	-0.834032	-0.291985
N88	N	1.404928	-0.334032	0.208015
C89	C	0.909727	-0.866403	-0.356817
C90	C	1.409727	-0.366403	0.143183
N91	N	0.914511	-0.833962	-0.421637
N92	N	1.414511	-0.333962	0.078363
N93	N	0.914486	-0.771505	-0.421623
N94	N	1.414486	-0.271505	0.078377
C95	C	0.909677	-0.739613	-0.356792
C96	C	1.409677	-0.239613	0.143208
C97	C	0.950001	-0.970498	-0.404246
C98	C	1.450001	-0.470498	0.095754
C99	C	0.950019	-1.036242	-0.404266
C100	C	1.450019	-0.536242	0.095734
C101	C	0.869548	-1.036353	-0.309451
C102	C	1.369548	-0.536353	0.190549
C103	C	0.869527	-0.970610	-0.309438
C104	C	1.369527	-0.470610	0.190562
C105	C	0.909757	-0.937687	-0.356835
C106	C	1.409757	-0.437687	0.143165
C107	C	1.073850	-0.303343	-0.356811
C108	C	1.573850	0.196657	0.143189
C109	C	1.143818	-0.303351	-0.356821
C110	C	1.643818	0.196649	0.143179
C111	C	0.909696	-0.303310	-0.549951
C112	C	1.409696	0.196690	-0.049951
C113	C	0.909712	-0.303303	-0.632266
C114	C	1.409712	0.196697	-0.132266
C115	C	0.909758	-0.139135	-0.356843
C116	C	1.409758	0.360865	0.143157
C117	C	0.909799	-0.069167	-0.356866
C118	C	1.409799	0.430833	0.143134
C119	C	0.909748	-0.303185	-0.931357
C120	C	1.409748	0.196815	-0.431357
C121	C	0.860903	-0.351674	-0.900009
C122	C	1.360903	0.148326	-0.400009
C123	C	0.861035	-0.351899	-0.814391
C124	C	1.361035	0.148101	-0.314391
C125	C	0.909730	-0.303244	-0.782974
C126	C	1.409730	0.196756	-0.282974
C127	C	0.976053	-0.321252	-0.814072
C128	C	1.476053	0.178748	-0.314072
C129	C	0.975781	-0.321571	-0.899717
C130	C	1.475781	0.178429	-0.399717
C131	C	0.892847	-0.236580	-0.899787
C132	C	1.392847	0.263420	-0.399787
C133	C	0.891372	-0.236964	-0.814136
C134	C	1.391372	0.263036	-0.314136
C135	C	0.909723	-0.303276	-0.699115
C136	C	1.409723	0.196724	-0.199115
C137	C	0.909759	-0.303155	-1.015216
C138	C	1.409759	0.196845	-0.515216
C139	C	0.909660	-0.303296	-0.164379
C140	C	1.409660	0.196704	0.335621
C141	C	0.909766	-0.303126	-0.082065
C142	C	1.409766	0.196874	0.417935
H143	H	0.550764	-0.376460	-0.442571
H144	H	1.050764	0.123540	0.057429
H145	H	0.990628	-0.369424	-0.792625
H146	H	1.490628	0.130576	-0.292625
O147	O	0.830190	-0.537963	-0.263346
O148	O	1.330190	-0.037963	0.236654
C149	C	0.767447	-0.554059	-0.279479
C150	C	1.267447	-0.054059	0.220521
H151	H	0.766144	-0.601780	-0.307956
H152	H	1.266144	-0.101780	0.192044
H153	H	0.739248	-0.556356	-0.226002
H154	H	1.239248	-0.056356	0.273998
H155	H	0.746214	-0.517059	-0.317523
H156	H	1.246214	-0.017059	0.182477
H157	H	0.149927	-0.376487	-0.442600
H158	H	0.649927	0.123513	0.057400
H159	H	0.670036	-0.230176	-0.271002
H160	H	1.170036	0.269824	0.228998
H161	H	1.013424	-0.287045	-0.793724
H162	H	1.513424	0.212955	-0.293724
O163	O	0.545696	-0.223786	-0.263565
O164	O	1.045696	0.276214	0.236435
C165	C	0.588806	-0.188211	-0.221822
C166	C	1.088806	0.311789	0.278178
H167	H	0.635680	-0.186065	-0.252156
H168	H	1.135680	0.313935	0.247844
H169	H	0.569829	-0.138606	-0.214029
H170	H	1.069829	0.361394	0.285971
H171	H	0.595769	-0.211194	-0.165528
H172	H	1.095769	0.288806	0.334472
H173	H	0.845325	-0.220172	-0.921379
H174	H	1.345325	0.279828	-0.421379
O175	O	0.989089	-0.938609	-0.450365
O176	O	1.489089	-0.438609	0.049635
C177	C	1.024623	-0.981669	-0.492206
C178	C	1.524623	-0.481669	0.007794
H179	H	0.998856	-1.028554	-0.494746
H180	H	1.498856	-0.528554	0.005254
H181	H	1.031294	-0.962643	-0.550560
H182	H	1.531294	-0.462643	-0.050560
H183	H	1.072452	-0.988631	-0.465148
H184	H	1.572452	-0.488631	0.034852
O185	O	0.935247	-0.193402	-0.923881
O186	O	1.435247	0.306598	-0.423881
C187	C	0.919631	-0.133854	-0.895255
C188	C	1.419631	0.366146	-0.395255
H189	H	0.890126	-0.139867	-0.843168
H190	H	1.390126	0.360133	-0.343168
H191	H	0.964460	-0.107113	-0.881258
H192	H	1.464460	0.392887	-0.381258
H193	H	0.891679	-0.106431	-0.938191
H194	H	1.391679	0.393569	-0.438191
H195	H	0.269190	-0.376480	-0.442588
H196	H	0.769190	0.123520	0.057412
O197	O	0.274429	-0.223953	-0.263569
O198	O	0.774429	0.276047	0.236431
C199	C	0.312416	-0.259734	-0.215651
C200	C	0.812416	0.240266	0.284349
H201	H	0.322253	-0.307469	-0.241672
H202	H	0.822253	0.192531	0.258328
H203	H	0.358653	-0.234078	-0.205779
H204	H	0.858653	0.265922	0.294221
H205	H	0.287061	-0.266588	-0.160756
H206	H	0.787061	0.233412	0.339244
O207	O	0.830417	-0.938833	-0.263311
O208	O	1.330417	-0.438833	0.236689
C209	C	0.794911	-0.981992	-0.221490
C210	C	1.294911	-0.481992	0.278510
H211	H	0.820713	-1.028834	-0.218964
H212	H	1.320713	-0.528834	0.281036
H213	H	0.788221	-0.963030	-0.163130
H214	H	1.288221	-0.463030	0.336870
H215	H	0.747091	-0.989012	-0.248557
H216	H	1.247091	-0.489012	0.251443
O217	O	0.675100	-0.382811	-0.450048
O218	O	1.175100	0.117189	0.049952
C219	C	0.631990	-0.418403	-0.491771
C220	C	1.131990	0.081597	0.008229
H221	H	0.585139	-0.392624	-0.494392
H222	H	1.085139	0.107376	0.005608
H223	H	0.651003	-0.425183	-0.550104
H224	H	1.151003	0.074817	-0.050104
H225	H	0.624966	-0.466181	-0.464556
H226	H	1.124966	0.033819	0.035444
O227	O	0.802036	-0.338480	-0.924601
O228	O	1.302036	0.161520	-0.424601
C229	C	0.778693	-0.390086	-0.964924
C230	C	1.278693	0.109914	-0.464924
H231	H	0.804389	-0.434572	-0.947259
H232	H	1.304389	0.065428	-0.447259
H233	H	0.726314	-0.395669	-0.953657
H234	H	1.226314	0.104331	-0.453657
H235	H	0.786498	-0.381747	-1.026463
H236	H	1.286498	0.118253	-0.526463
O237	O	0.989148	-1.068186	-0.450214
O238	O	1.489148	-0.568186	0.049786
C239	C	1.029845	-1.106188	-0.408097
C240	C	1.529845	-0.606188	0.091903
H241	H	1.007670	-1.116080	-0.351955
H242	H	1.507670	-0.616080	0.148045
H243	H	1.038284	-1.152397	-0.438278
H244	H	1.538284	-0.652397	0.061722
H245	H	1.076490	-1.080818	-0.400000
H246	H	1.576490	-0.580818	0.100000
H247	H	0.982641	-0.662117	-0.442795
H248	H	1.482641	-0.162117	0.057205
H249	H	0.836651	-0.662326	-0.270784
H250	H	1.336651	-0.162326	0.229216
H251	H	0.149927	-0.230212	-0.271034
H252	H	0.649927	0.269788	0.228966
H253	H	0.982606	-0.542851	-0.442760
H254	H	1.482606	-0.042851	0.057240
O255	O	0.830445	-1.068400	-0.263512
O256	O	1.330445	-0.568400	0.236488
C257	C	0.789769	-1.106428	-0.305643
C258	C	1.289769	-0.606428	0.194357
H259	H	0.811950	-1.116234	-0.361789
H260	H	1.311950	-0.616234	0.138211
H261	H	0.781359	-1.152678	-0.275478
H262	H	1.281359	-0.652678	0.224522
H263	H	0.743109	-1.081124	-0.313729
H264	H	1.243109	-0.581124	0.186271
O265	O	0.802328	-0.338558	-0.789340
O266	O	1.302328	0.161442	-0.289340
C267	C	0.759855	-0.384225	-0.815503
C268	C	1.259855	0.115775	-0.315503
H269	H	0.786492	-0.429123	-0.829366
H270	H	1.286492	0.070877	-0.329366
H271	H	0.723324	-0.394553	-0.771074
H272	H	1.223324	0.105447	-0.271074
H273	H	0.735402	-0.365926	-0.867221
H274	H	1.235402	0.134074	-0.367221
H275	H	0.871951	-0.400743	-0.921530
H276	H	1.371951	0.099257	-0.421530
O277	O	0.874267	-0.410805	-0.789914
O278	O	1.374267	0.089195	-0.289914
C279	C	0.823899	-0.433110	-0.746656
C280	C	1.323899	0.066890	-0.246656
H281	H	0.779176	-0.406849	-0.762202
H282	H	1.279176	0.093151	-0.262202
H283	H	0.817117	-0.485466	-0.757084
H284	H	1.317117	0.014534	-0.257084
H285	H	0.834675	-0.425053	-0.685704
H286	H	1.334675	0.074947	-0.185704
H287	H	1.013408	-0.287787	-0.920455
H288	H	1.513408	0.212213	-0.420455
O289	O	0.992959	-0.379657	-0.923464
O290	O	1.492959	0.120343	-0.423464
C291	C	1.053661	-0.393717	-0.897169
C292	C	1.553661	0.106283	-0.397169
H293	H	1.063956	-0.364205	-0.846055
H294	H	1.563956	0.135795	-0.346055
H295	H	1.056412	-0.445663	-0.882278
H296	H	1.556412	0.054337	-0.382278
H297	H	1.089701	-0.382655	-0.941910
H298	H	1.589701	0.117345	-0.441910
H299	H	0.842564	-0.223384	-0.793810
H300	H	1.342564	0.276616	-0.293810
O301	O	0.930792	-0.191655	-0.788590
O302	O	1.430792	0.308345	-0.288590
C303	C	0.976029	-0.219017	-0.741725
C304	C	1.476029	0.280983	-0.241725
H305	H	0.980955	-0.271022	-0.755457
H306	H	1.480955	0.228978	-0.255457
H307	H	1.023144	-0.194578	-0.750057
H308	H	1.523144	0.305422	-0.250057
H309	H	0.960568	-0.213577	-0.681765
H310	H	1.460568	0.286423	-0.181765
