data_functionalizedCrystal
_audit_creation_method	'MofGen! by Chris Wilmer'
_symmetry_space_group_name_H-M	'P1'
_symmetry_Int_Tables_number	1
_symmetry_cell_setting	triclinic
loop_
_symmetry_equiv_pos_as_xyz
  x,y,z
_cell_length_a	14.519731
_cell_length_b	13.596369
_cell_length_c	14.853567
_cell_angle_alpha	90.003405
_cell_angle_beta	96.338108
_cell_angle_gamma	90.006024
loop_
_atom_site_label
_atom_site_type_symbol
_atom_site_fract_x
_atom_site_fract_y
_atom_site_fract_z
O1	O	1.223810	0.081785	-0.118265
O2	O	0.955330	0.081785	-0.132162
O3	O	1.096742	0.081788	0.006013
O4	O	1.082399	0.081782	-0.256440
O5	O	1.096724	-0.081795	0.006006
O6	O	0.955313	-0.081797	-0.132169
O7	O	1.223793	-0.081798	-0.118272
Zn8	Zn	1.089550	-0.107770	-0.125222
Zn9	Zn	1.089573	0.107758	-0.125212
O10	O	1.082381	-0.081801	-0.256447
C11	C	0.920962	-0.000006	-0.131514
C12	C	0.818583	-0.000005	-0.129563
N13	N	1.089541	-0.254862	-0.125228
C14	C	0.735439	-0.000001	-0.127978
C15	C	0.631131	-0.000001	-0.125996
C16	C	0.547993	-0.000001	-0.124424
C17	C	0.443678	0.000001	-0.122443
C18	C	1.089546	-0.343860	-0.125230
C19	C	1.089555	-0.455511	-0.125224
C20	C	1.089567	-0.544502	-0.125214
C21	C	1.089577	-0.656160	-0.125209
C22	C	1.258160	-0.000005	-0.118920
C23	C	1.360540	0.000001	-0.120871
C24	C	1.096083	-0.000000	0.039598
C25	C	1.094135	0.000008	0.139683
N26	N	1.089589	0.254849	-0.125199
C27	C	1.083040	-0.000010	-0.290032
C28	C	1.084987	-0.000012	-0.390117
C29	C	1.001901	-0.000010	0.552260
C30	C	1.169902	-0.000011	0.573463
C31	C	1.171733	-0.000005	0.479428
C32	C	1.088647	-0.000003	0.421805
C33	C	1.003730	-0.000008	0.458216
C34	C	1.256648	-0.000011	0.443010
C35	C	1.258483	-0.000006	0.348970
C36	C	1.175396	0.000003	0.291345
C37	C	1.090476	-0.000000	0.327761
C38	C	1.007390	0.000001	0.270138
C39	C	0.922469	0.000005	0.306552
C40	C	0.920643	0.000001	0.400591
C41	C	1.177221	0.000007	0.197306
C42	C	1.009219	0.000004	0.176094
H43	H	0.941559	0.000009	0.129182
H44	H	1.246363	-0.000003	0.167662
H45	H	0.851505	0.000003	0.430248
F46	F	0.834046	-0.000001	0.245215
F47	F	0.911527	0.000002	0.591014
F48	F	1.258322	-0.000026	0.634791
H49	H	1.324292	-0.000021	0.489933
F50	F	1.348862	0.000002	0.310223
