data_functionalizedCrystal
_audit_creation_method	'MofGen! by Chris Wilmer'
_symmetry_space_group_name_H-M	'P1'
_symmetry_Int_Tables_number	1
_symmetry_cell_setting	triclinic
loop_
_symmetry_equiv_pos_as_xyz
  x,y,z
_cell_length_a	14.044220
_cell_length_b	14.853558
_cell_length_c	13.330367
_cell_angle_alpha	89.992972
_cell_angle_beta	90.003147
_cell_angle_gamma	91.589994
loop_
_atom_site_label
_atom_site_type_symbol
_atom_site_fract_x
_atom_site_fract_y
_atom_site_fract_z
O1	O	-0.123725	1.206176	-0.083409
O2	O	-0.138477	0.944885	-0.083414
O3	O	0.006889	1.071609	-0.083407
O4	O	-0.269091	1.079453	-0.083416
O5	O	0.006892	1.071588	0.083440
O6	O	-0.138474	0.944864	0.083434
O7	O	-0.123721	1.206156	0.083438
Cu8	Cu	-0.131097	1.075508	0.098670
Cu9	Cu	-0.131101	1.075532	-0.098646
O10	O	-0.269087	1.079432	0.083431
C11	C	-0.137809	0.911233	0.000009
C12	C	-0.135810	0.810990	0.000008
C13	C	-0.134875	0.763907	-0.090944
C14	C	-0.134860	0.763882	0.090959
C15	C	-0.132978	0.669700	0.090960
C16	C	-0.132042	0.622616	0.000008
C17	C	-0.132989	0.669716	-0.090946
C18	C	-0.132021	0.622593	0.181913
C19	C	-0.130137	0.528405	0.181918
C20	C	-0.129208	0.481320	0.090965
C21	C	-0.130156	0.528425	0.000007
C22	C	-0.129221	0.481341	-0.090945
C23	C	-0.130176	0.528445	-0.181904
C24	C	-0.132061	0.622630	-0.181899
C25	C	-0.127324	0.387134	0.090960
C26	C	-0.127335	0.387150	-0.090946
C27	C	-0.304408	1.082876	0.000007
C28	C	-0.409647	1.093118	0.000003
C29	C	-0.602332	1.111842	0.000008
C30	C	-0.659872	1.039203	0.000008
C31	C	-0.767089	1.049621	0.000010
C32	C	-0.495105	1.101425	0.000005
C33	C	0.042209	1.068165	0.000016
C34	C	0.147448	1.057923	0.000012
C35	C	-0.124390	1.239808	0.000013
C36	C	-0.126388	1.340050	0.000008
N37	N	-0.131094	1.075498	0.237452
N38	N	-0.131097	1.075549	-0.237427
C39	C	-0.195444	1.019414	0.710072
C40	C	-0.066751	1.131674	0.710046
C41	C	-0.066748	1.131664	0.605027
C42	C	-0.131095	1.075529	0.552526
C43	C	-0.195445	1.019404	0.605044
C44	C	-0.002406	1.187794	0.552502
C45	C	-0.002401	1.187786	0.447477
C46	C	-0.066744	1.131646	0.394974
C47	C	-0.131096	1.075519	0.447498
C48	C	-0.195443	1.019384	0.394997
C49	C	-0.259791	0.963251	0.447519
C50	C	-0.259788	0.963264	0.552541
C51	C	-0.066747	1.131633	0.289953
C52	C	-0.195444	1.019373	0.289969
H53	H	-0.135614	0.802224	0.165008
F54	F	-0.643190	1.203348	0.000013
H55	H	-0.247840	0.973658	0.247229
F56	F	-0.328277	0.903515	0.391633
H57	H	-0.312179	0.917563	0.595311
H58	H	0.049979	1.233502	0.595252
H59	H	-0.129409	0.490097	-0.255957
F60	F	-0.133068	0.672767	-0.278694
H61	H	-0.247833	0.973709	0.752838
F62	F	0.066084	1.247524	0.391587
F63	F	0.001723	1.191420	0.765920
H64	H	-0.628611	0.969190	0.000007
F65	F	-0.133018	0.672707	0.278703
H66	H	-0.126579	0.348821	-0.165011
F67	F	-0.135893	0.814037	-0.187744
H68	H	-0.014360	1.177340	0.247194
H69	H	-0.126555	0.348786	0.165017
F70	F	-0.129130	0.478282	0.278723
