data_functionalizedCrystal
_audit_creation_method	'MofGen! by Chris Wilmer'
_symmetry_space_group_name_H-M	'P1'
_symmetry_Int_Tables_number	1
_symmetry_cell_setting	triclinic
loop_
_symmetry_equiv_pos_as_xyz
  x,y,z
_cell_length_a	17.699083
_cell_length_b	17.699092
_cell_length_c	15.500346
_cell_angle_alpha	93.173239
_cell_angle_beta	93.180637
_cell_angle_gamma	83.284691
loop_
_atom_site_label
_atom_site_type_symbol
_atom_site_fract_x
_atom_site_fract_y
_atom_site_fract_z
O1	O	-1.007206	-0.098823	-0.071810
O2	O	-0.673873	0.234510	0.261524
O3	O	-0.340540	0.567844	0.594857
O4	O	-0.786829	-0.111277	-0.071839
O5	O	-0.453496	0.222057	0.261494
O6	O	-0.120163	0.555390	0.594827
O7	O	-0.903241	0.005139	-0.071822
O8	O	-0.569907	0.338472	0.261512
O9	O	-0.236574	0.671806	0.594845
O10	O	-0.890795	-0.215239	-0.071827
O11	O	-0.557462	0.118095	0.261506
O12	O	-0.224128	0.451428	0.594839
O13	O	-0.896964	0.011378	0.072064
O14	O	-0.563631	0.344712	0.405397
O15	O	-0.230297	0.678045	0.738730
O16	O	-0.780553	-0.105037	0.072046
O17	O	-0.447219	0.228296	0.405379
O18	O	-0.113886	0.561629	0.738713
O19	O	-1.000929	-0.092584	0.072076
O20	O	-0.667596	0.240750	0.405409
O21	O	-0.334263	0.574083	0.738743
Cu22	Cu	-0.890168	-0.098241	0.085199
Cu23	Cu	-0.556835	0.235093	0.418532
Cu24	Cu	-0.223501	0.568426	0.751866
Cu25	Cu	-0.897591	-0.105620	-0.084962
Cu26	Cu	-0.564258	0.227714	0.248371
Cu27	Cu	-0.230924	0.561047	0.581704
O28	O	-0.884518	-0.208999	0.072058
O29	O	-0.551185	0.124334	0.405392
O30	O	-0.217852	0.457667	0.738725
C31	C	-0.755494	-0.107711	0.000100
C32	C	-0.422161	0.225622	0.333433
C33	C	-0.088828	0.558956	0.666766
C34	C	-0.671477	-0.106373	0.000088
C35	C	-0.338143	0.226960	0.333421
C36	C	-0.004810	0.560294	0.666755
C37	C	-0.622858	-0.174706	0.000086
C38	C	-0.289524	0.158627	0.333420
C39	C	0.043809	0.491961	0.666753
C40	C	-0.543914	-0.173443	0.000097
C41	C	-0.210581	0.159890	0.333430
C42	C	0.122753	0.493223	0.666763
C43	C	-0.513591	-0.103847	0.000103
C44	C	-0.180257	0.229486	0.333436
C45	C	0.153076	0.562820	0.666770
C46	C	-0.562216	-0.035508	0.000107
C47	C	-0.228882	0.297825	0.333441
C48	C	0.104451	0.631158	0.666774
C49	C	-0.641158	-0.036772	0.000103
C50	C	-0.307824	0.296562	0.333436
C51	C	0.025509	0.629895	0.666770
C52	C	-0.243852	-0.030412	0.000126
C53	C	0.089482	0.302921	0.333460
C54	C	0.422815	0.636254	0.666793
C55	C	-0.164904	-0.029154	0.000128
C56	C	0.168430	0.304179	0.333461
C57	C	0.501763	0.637512	0.666795
C58	C	-0.146608	-0.167084	0.000120
C59	C	0.186725	0.166249	0.333453
C60	C	0.520059	0.499583	0.666787
C61	C	-0.225550	-0.168347	0.000116
C62	C	0.107783	0.164986	0.333449
C63	C	0.441117	0.498319	0.666782
C64	C	-0.274168	-0.100009	0.000125
C65	C	0.059166	0.233324	0.333458
C66	C	0.392499	0.566658	0.666791
C67	C	-0.359767	-0.101379	0.000115
C68	C	-0.026434	0.231954	0.333448
C69	C	0.306899	0.565288	0.666781
C70	C	-0.427993	-0.102476	0.000107
C71	C	-0.094660	0.230857	0.333440
C72	C	0.238674	0.564190	0.666773
C73	C	-0.899655	0.036456	0.000120
C74	C	-0.566322	0.369789	0.333453
C75	C	-0.232989	0.703122	0.666786
C76	C	-0.898314	0.120473	0.000116
C77	C	-0.564981	0.453806	0.333449
C78	C	-0.231648	0.787140	0.666782
C79	C	-0.032265	-0.096149	0.000133
C80	C	0.301069	0.237184	0.333466
C81	C	0.634402	0.570517	0.666800
C82	C	-0.116283	-0.097488	0.000132
C83	C	0.217050	0.235845	0.333466
C84	C	0.550384	0.569179	0.666799
C85	C	-0.888104	-0.240316	0.000115
C86	C	-0.554770	0.093017	0.333448
C87	C	-0.221437	0.426351	0.666782
C88	C	-0.889445	-0.324334	0.000113
C89	C	-0.556111	0.009000	0.333447
C90	C	-0.222778	0.342333	0.666780
C91	C	-0.901108	0.156539	-0.078318
C92	C	-0.567774	0.489873	0.255016
C93	C	-0.234441	0.823206	0.588349
C94	C	-0.899843	0.235482	-0.078319
C95	C	-0.566509	0.568816	0.255015
C96	C	-0.233176	0.902149	0.588348
C97	C	-0.895790	0.278358	0.000114
C98	C	-0.562457	0.611692	0.333447
C99	C	-0.229123	0.945025	0.666781
C100	C	-0.892994	0.242286	0.078553
C101	C	-0.559661	0.575620	0.411886
C102	C	-0.226328	0.908953	0.745220
C103	C	-0.894254	0.163344	0.078553
C104	C	-0.560921	0.496678	0.411887
C105	C	-0.227587	0.830011	0.745220
C106	C	-0.887914	0.560651	0.078554
C107	C	-0.554581	0.893985	0.411887
C108	C	-0.221247	1.227318	0.745220
C109	C	-0.886657	0.639599	0.078547
C110	C	-0.553324	0.972933	0.411881
C111	C	-0.219990	1.306266	0.745214
C112	C	-0.893503	0.632790	-0.078318
C113	C	-0.560170	0.966123	0.255015
C114	C	-0.226836	1.299456	0.588348
C115	C	-0.894762	0.553847	-0.078318
C116	C	-0.561429	0.887181	0.255015
C117	C	-0.228096	1.220514	0.588349
C118	C	-0.891963	0.517782	0.000120
C119	C	-0.558629	0.851115	0.333454
C120	C	-0.225296	1.184449	0.666787
C121	C	-0.893333	0.432183	0.000121
C122	C	-0.559999	0.765516	0.333454
C123	C	-0.226666	1.098849	0.666787
C124	C	-0.894425	0.363957	0.000115
C125	C	-0.561092	0.697290	0.333448
C126	C	-0.227759	1.030623	0.666781
N127	N	-0.884953	-0.093050	0.204881
N128	N	-0.551619	0.240283	0.538214
N129	N	-0.218286	0.573616	0.871548
N130	N	-0.902812	-0.110804	-0.204645
N131	N	-0.569479	0.222529	0.128689
N132	N	-0.236146	0.555863	0.462022
C133	C	-0.858968	-0.066935	0.750056
C134	C	-0.525634	0.266399	1.083390
C135	C	-0.192301	0.599732	1.416723
C136	C	-0.862907	-0.070889	0.659485
C137	C	-0.529574	0.262444	0.992819
C138	C	-0.196240	0.595777	1.326152
C139	C	-0.910687	-0.118718	0.614215
C140	C	-0.577354	0.214616	0.947549
C141	C	-0.244021	0.547949	1.280882
C142	C	-0.954537	-0.162588	0.659521
C143	C	-0.621204	0.170745	0.992854
C144	C	-0.287870	0.504078	1.326188
C145	C	-0.950601	-0.158629	0.750090
C146	C	-0.617268	0.174704	1.083423
C147	C	-0.283935	0.508037	1.416757
C148	C	-0.924867	-0.132962	0.340756
C149	C	-0.591533	0.200371	0.674089
C150	C	-0.258200	0.533705	1.007422
C151	C	-0.928797	-0.136920	0.250180
C152	C	-0.595464	0.196414	0.583514
C153	C	-0.262131	0.529747	0.916847
C154	C	-0.837168	-0.045219	0.250151
C155	C	-0.503834	0.288114	0.583484
C156	C	-0.170501	0.621448	0.916818
C157	C	-0.833233	-0.041267	0.340722
C158	C	-0.499899	0.292066	0.674055
C159	C	-0.166566	0.625399	1.007389
C160	C	-0.877085	-0.085135	0.386020
C161	C	-0.543752	0.248198	0.719353
C162	C	-0.210419	0.581532	1.052686
C163	C	-0.914713	-0.122763	0.521637
C164	C	-0.581380	0.210570	0.854971
C165	C	-0.248047	0.543904	1.188304
C166	C	-0.873063	-0.081085	0.478596
C167	C	-0.539730	0.252248	0.811929
C168	C	-0.206396	0.585581	1.145262
H169	H	-0.680743	0.018872	0.000104
H170	H	-0.347410	0.352206	0.333437
H171	H	-0.014077	0.685539	0.666771
H172	H	-0.953616	-0.161706	0.484769
H173	H	-0.620282	0.171628	0.818102
H174	H	-0.286949	0.504961	1.151435
H175	H	-0.140218	0.027523	0.000134
H176	H	0.193115	0.360856	0.333468
H177	H	0.526448	0.694189	0.666801
H178	H	-0.283427	0.025233	0.000134
H179	H	0.049906	0.358567	0.333468
H180	H	0.383239	0.691900	0.666801
H181	H	-0.250234	-0.225020	0.000107
H182	H	0.083099	0.108313	0.333440
H183	H	0.416432	0.441647	0.666773
H184	H	-0.902120	0.264844	-0.142187
H185	H	-0.568787	0.598177	0.191147
H186	H	-0.235454	0.931511	0.524480
H187	H	-0.537520	0.021159	0.000125
H188	H	-0.204187	0.354492	0.333458
H189	H	0.129147	0.687826	0.666792
H190	H	-0.904412	0.121636	-0.142187
H191	H	-0.571079	0.454969	0.191147
H192	H	-0.237745	0.788302	0.524480
H193	H	-0.107013	-0.222728	0.000117
H194	H	0.226320	0.110605	0.333451
H195	H	0.559654	0.443938	0.666784
H196	H	-0.967704	-0.175872	0.213324
H197	H	-0.634371	0.157461	0.546657
H198	H	-0.301038	0.490794	0.879991
H199	H	-0.898066	0.518942	-0.142186
H200	H	-0.564733	0.852275	0.191147
H201	H	-0.231399	1.185609	0.524480
H202	H	-0.895779	0.662163	-0.142187
H203	H	-0.562445	0.995496	0.191146
H204	H	-0.229112	1.328830	0.524480
H205	H	-0.960574	-0.168683	0.377626
H206	H	-0.627241	0.164650	0.710959
H207	H	-0.293907	0.497984	1.044293
H208	H	-0.504331	-0.229087	0.000094
H209	H	-0.170998	0.104246	0.333428
H210	H	0.162336	0.437579	0.666761
H211	H	-0.794326	-0.002319	0.377575
H212	H	-0.460993	0.331014	0.710908
H213	H	-0.127659	0.664347	1.044241
H214	H	-0.883355	0.674507	0.142421
H215	H	-0.550021	1.007840	0.475754
H216	H	-0.216688	1.341174	0.809087
H217	H	-0.885649	0.531299	0.142423
H218	H	-0.552316	0.864632	0.475757
H219	H	-0.218983	1.197965	0.809090
H220	H	-0.993445	-0.201528	0.622655
H221	H	-0.660111	0.131806	0.955988
H222	H	-0.326778	0.465139	1.289321
H223	H	-0.889690	0.277202	0.142414
H224	H	-0.556357	0.610535	0.475748
H225	H	-0.223023	0.943868	0.809081
H226	H	-0.647540	-0.231380	0.000080
H227	H	-0.314207	0.101954	0.333414
H228	H	0.019127	0.435287	0.666747
H229	H	-0.891969	0.133979	0.142422
H230	H	-0.558635	0.467312	0.475755
H231	H	-0.225302	0.800646	0.809088
H232	H	-0.820056	-0.027992	0.786909
H233	H	-0.486722	0.305341	1.120242
H234	H	-0.153389	0.638675	1.453575
H235	H	-0.827206	-0.035164	0.622607
H236	H	-0.493873	0.298169	0.955940
H237	H	-0.160539	0.631503	1.289274
H238	H	-0.801466	-0.009504	0.213260
H239	H	-0.468133	0.323830	0.546593
H240	H	-0.134800	0.657163	0.879927
H241	H	-0.986305	-0.194352	0.786971
H242	H	-0.652972	0.138981	1.120305
H243	H	-0.319638	0.472315	1.453638
H244	H	-0.834163	-0.042141	0.515459
H245	H	-0.500830	0.291192	0.848792
H246	H	-0.167496	0.624525	1.182125
