data_functionalizedCrystal
_audit_creation_method	'MofGen! by Chris Wilmer'
_symmetry_space_group_name_H-M	'P1'
_symmetry_Int_Tables_number	1
_symmetry_cell_setting	triclinic
loop_
_symmetry_equiv_pos_as_xyz
  x,y,z
_cell_length_a	19.805407
_cell_length_b	16.625545
_cell_length_c	19.805399
_cell_angle_alpha	89.974296
_cell_angle_beta	90.019573
_cell_angle_gamma	89.975963
loop_
_atom_site_label
_atom_site_type_symbol
_atom_site_fract_x
_atom_site_fract_y
_atom_site_fract_z
Zn1	Zn	1.034747	0.321020	0.382728
Zn2	Zn	1.284747	0.571020	0.632728
Zn3	Zn	1.534747	0.821020	0.882728
Zn4	Zn	1.784747	1.071020	1.132728
Zn5	Zn	1.034666	0.455857	0.269544
Zn6	Zn	1.284666	0.705857	0.519544
Zn7	Zn	1.534666	0.955857	0.769544
Zn8	Zn	1.784666	1.205857	1.019544
Zn9	Zn	0.921561	0.321043	0.269553
Zn10	Zn	1.171561	0.571043	0.519553
Zn11	Zn	1.421561	0.821043	0.769553
Zn12	Zn	1.671561	1.071043	1.019553
Zn13	Zn	0.921530	0.455815	0.382691
Zn14	Zn	1.171530	0.705815	0.632691
Zn15	Zn	1.421530	0.955815	0.882691
Zn16	Zn	1.671530	1.205815	1.132691
O17	O	0.978126	0.388434	0.326129
O18	O	1.228126	0.638434	0.576129
O19	O	1.478126	0.888434	0.826129
O20	O	1.728126	1.138434	1.076129
O21	O	1.129453	0.338915	0.367726
O22	O	1.379453	0.588915	0.617726
O23	O	1.629453	0.838915	0.867726
O24	O	1.879453	1.088915	1.117726
O25	O	1.019642	0.438001	0.174829
O26	O	1.269642	0.688001	0.424829
O27	O	1.519642	0.938001	0.674829
O28	O	1.769642	1.188001	0.924829
O29	O	0.936623	0.208207	0.284586
O30	O	1.186623	0.458207	0.534586
O31	O	1.436623	0.708207	0.784586
O32	O	1.686623	0.958207	1.034586
O33	O	1.129394	0.437980	0.284570
O34	O	1.379394	0.687980	0.534570
O35	O	1.629394	0.937980	0.784570
O36	O	1.879394	1.187980	1.034570
O37	O	1.019780	0.208191	0.367735
O38	O	1.269780	0.458191	0.617735
O39	O	1.519780	0.708191	0.867735
O40	O	1.769780	0.958191	1.117735
O41	O	0.936545	0.338953	0.174835
O42	O	1.186545	0.588953	0.424835
O43	O	1.436545	0.838953	0.674835
O44	O	1.686545	1.088953	0.924835
O45	O	0.826841	0.338912	0.284549
O46	O	1.076841	0.588912	0.534549
O47	O	1.326841	0.838912	0.784549
O48	O	1.576841	1.088912	1.034549
O49	O	0.936569	0.437907	0.477412
O50	O	1.186569	0.687907	0.727412
O51	O	1.436569	0.937907	0.977412
O52	O	1.686569	1.187907	1.227412
O53	O	0.826817	0.437928	0.367671
O54	O	1.076817	0.687928	0.617671
O55	O	1.326817	0.937928	0.867671
O56	O	1.576817	1.187928	1.117671
O57	O	1.019749	0.338874	0.477440
O58	O	1.269749	0.588874	0.727440
O59	O	1.519749	0.838874	0.977440
O60	O	1.769749	1.088874	1.227440
O61	O	1.019612	0.568684	0.284533
O62	O	1.269612	0.818684	0.534533
O63	O	1.519612	1.068684	0.784533
O64	O	1.769612	1.318684	1.034533
O65	O	0.936491	0.568653	0.367662
O66	O	1.186491	0.818653	0.617662
O67	O	1.436491	1.068653	0.867662
O68	O	1.686491	1.318653	1.117662
C69	C	0.802270	0.388418	0.326107
C70	C	1.052270	0.638418	0.576107
C71	C	1.302270	0.888418	0.826107
C72	C	1.552270	1.138418	1.076107
C73	C	0.727038	0.388431	0.326114
C74	C	0.977038	0.638431	0.576114
C75	C	1.227038	0.888431	0.826114
C76	C	1.477038	1.138431	1.076114
C77	C	0.978057	0.597925	0.326107
C78	C	1.228057	0.847925	0.576107
C79	C	1.478057	1.097925	0.826107
C80	C	1.728057	1.347925	1.076107
C81	C	0.978090	0.687546	0.326121
C82	C	1.228090	0.937546	0.576121
C83	C	1.478090	1.187546	0.826121
C84	C	1.728090	1.437546	1.076121
C85	C	0.691699	0.440067	0.369325
C86	C	0.941699	0.690067	0.619325
C87	C	1.191699	0.940067	0.869325
C88	C	1.441699	1.190067	1.119325
C89	C	0.621011	0.440068	0.369335
C90	C	0.871011	0.690068	0.619335
C91	C	1.121011	0.940068	0.869335
C92	C	1.371011	1.190068	1.119335
C93	C	0.585663	0.388437	0.326129
C94	C	0.835663	0.638437	0.576129
C95	C	1.085663	0.888437	0.826129
C96	C	1.335663	1.138437	1.076129
C97	C	0.621006	0.336796	0.282916
C98	C	0.871006	0.586796	0.532916
C99	C	1.121006	0.836796	0.782916
C100	C	1.371006	1.086796	1.032916
C101	C	0.691693	0.336791	0.282910
C102	C	0.941693	0.586791	0.532910
C103	C	1.191693	0.836791	0.782910
C104	C	1.441693	1.086791	1.032910
C105	C	0.335933	0.336814	0.282938
C106	C	0.585933	0.586814	0.532938
C107	C	0.835933	0.836814	0.782938
C108	C	1.085933	1.086814	1.032938
C109	C	0.265241	0.336825	0.282946
C110	C	0.515241	0.586825	0.532946
C111	C	0.765241	0.836825	0.782946
C112	C	1.015241	1.086825	1.032946
C113	C	0.265251	0.440091	0.369363
C114	C	0.515251	0.690091	0.619363
C115	C	0.765251	0.940091	0.869363
C116	C	1.015251	1.190091	1.119363
C117	C	0.335938	0.440086	0.369357
C118	C	0.585938	0.690086	0.619357
C119	C	0.835938	0.940086	0.869357
C120	C	1.085938	1.190086	1.119357
C121	C	0.371275	0.388442	0.326147
C122	C	0.621275	0.638442	0.576147
C123	C	0.871275	0.888442	0.826147
C124	C	1.121275	1.138442	1.076147
C125	C	0.447924	0.388440	0.326138
C126	C	0.697924	0.638440	0.576138
C127	C	0.947924	0.888440	0.826138
C128	C	1.197924	1.138440	1.076138
C129	C	0.509015	0.388443	0.326134
C130	C	0.759015	0.638443	0.576134
C131	C	1.009015	0.888443	0.826134
C132	C	1.259015	1.138443	1.076134
C133	C	0.978200	1.015721	0.326202
C134	C	1.228200	1.265721	0.576202
C135	C	1.478200	1.515721	0.826202
C136	C	1.728200	1.765721	1.076202
C137	C	0.978167	0.924413	0.326181
C138	C	1.228167	1.174413	0.576181
C139	C	1.478167	1.424413	0.826181
C140	C	1.728167	1.674413	1.076181
C141	C	0.978144	0.851636	0.326161
C142	C	1.228144	1.101636	0.576161
C143	C	1.478144	1.351636	0.826161
C144	C	1.728144	1.601636	1.076161
C145	C	0.978113	0.760322	0.326141
C146	C	1.228113	1.010322	0.576141
C147	C	1.478113	1.260322	0.826141
C148	C	1.728113	1.510322	1.076141
C149	C	1.154669	0.388450	0.326151
C150	C	1.404669	0.638450	0.576151
C151	C	1.654669	0.888450	0.826151
C152	C	1.904669	1.138450	1.076151
C153	C	1.229901	0.388457	0.326161
C154	C	1.479901	0.638457	0.576161
C155	C	1.729901	0.888457	0.826161
C156	C	1.979901	1.138457	1.076161
C157	C	0.978164	0.388383	0.502672
C158	C	1.228164	0.638383	0.752672
C159	C	1.478164	0.888383	1.002672
C160	C	1.728164	1.138383	1.252672
C161	C	0.978180	0.388361	0.577904
C162	C	1.228180	0.638361	0.827904
C163	C	1.478180	0.888361	1.077904
C164	C	1.728180	1.138361	1.327904
C165	C	0.978208	1.178125	0.326174
C166	C	1.228208	1.428125	0.576174
C167	C	1.478208	1.678125	0.826174
C168	C	1.728208	1.928125	1.076174
C169	C	0.978228	1.088504	0.326213
C170	C	1.228228	1.338504	0.576213
C171	C	1.478228	1.588504	0.826213
C172	C	1.728228	1.838504	1.076213
C173	C	0.978127	0.388426	0.150273
C174	C	1.228127	0.638426	0.400273
C175	C	1.478127	0.888426	0.650273
C176	C	1.728127	1.138426	0.900273
C177	C	0.978242	0.388221	0.075041
C178	C	1.228242	0.638221	0.325041
C179	C	1.478242	0.888221	0.575041
C180	C	1.728242	1.138221	0.825041
C181	C	1.021493	0.336792	0.613264
C182	C	1.271493	0.586792	0.863264
C183	C	1.521493	0.836792	1.113264
C184	C	1.771493	1.086792	1.363264
C185	C	1.021500	0.336769	0.683952
C186	C	1.271500	0.586769	0.933952
C187	C	1.521500	0.836769	1.183952
C188	C	1.771500	1.086769	1.433952
C189	C	0.978197	0.388319	0.719280
C190	C	1.228197	0.638319	0.969280
C191	C	1.478197	0.888319	1.219280
C192	C	1.728197	1.138319	1.469280
C193	C	0.934879	0.439890	0.683915
C194	C	1.184879	0.689890	0.933915
C195	C	1.434879	0.939890	1.183915
C196	C	1.684879	1.189890	1.433915
C197	C	0.934870	0.439909	0.613228
C198	C	1.184870	0.689909	0.863228
C199	C	1.434870	0.939909	1.113228
C200	C	1.684870	1.189909	1.363228
C201	C	0.934918	0.439815	0.968988
C202	C	1.184918	0.689815	1.218988
C203	C	1.434918	0.939815	1.468988
C204	C	1.684918	1.189815	1.718988
C205	C	0.934932	0.439794	1.039680
C206	C	1.184932	0.689794	1.289680
C207	C	1.434932	0.939794	1.539680
C208	C	1.684932	1.189794	1.789680
C209	C	1.021548	0.336675	1.039713
C210	C	1.271548	0.586675	1.289713
C211	C	1.521548	0.836675	1.539713
C212	C	1.771548	1.086675	1.789713
C213	C	1.021538	0.336694	0.969025
C214	C	1.271538	0.586694	1.219025
C215	C	1.521538	0.836694	1.469025
C216	C	1.771538	1.086694	1.719025
C217	C	0.978218	0.388262	0.933667
C218	C	1.228218	0.638262	1.183667
C219	C	1.478218	0.888262	1.433667
C220	C	1.728218	1.138262	1.683667
C221	C	0.978210	0.388285	0.857019
C222	C	1.228210	0.638285	1.107019
C223	C	1.478210	0.888285	1.357019
C224	C	1.728210	1.138285	1.607019
C225	C	0.978208	0.388300	0.795927
C226	C	1.228208	0.638300	1.045927
C227	C	1.478208	0.888300	1.295927
C228	C	1.728208	1.138300	1.545927
H229	H	0.720475	0.482113	0.404506
H230	H	0.970475	0.732113	0.654506
H231	H	1.220475	0.982113	0.904506
H232	H	1.470475	1.232113	1.154506
H233	H	0.899667	0.481774	1.068442
H234	H	1.149667	0.731774	1.318442
H235	H	1.399667	0.981774	1.568442
H236	H	1.649667	1.231774	1.818442
H237	H	1.056819	0.294683	1.068510
H238	H	1.306819	0.544683	1.318510
H239	H	1.556819	0.794683	1.568510
H240	H	1.806819	1.044683	1.818510
F241	F	0.729303	0.281832	0.236920
F242	F	0.979303	0.531832	0.486920
F243	F	1.229303	0.781832	0.736920
F244	F	1.479303	1.031832	0.986920
H245	H	0.364696	0.294769	0.247748
H246	H	0.614696	0.544769	0.497748
H247	H	0.864696	0.794769	0.747748
H248	H	1.114696	1.044769	0.997748
F249	F	0.888813	0.494698	0.931366
F250	F	1.138813	0.744698	1.181366
F251	F	1.388813	0.994698	1.431366
F252	F	1.638813	1.244698	1.681366
F253	F	1.067629	0.281830	0.931431
F254	F	1.317629	0.531830	1.181431
F255	F	1.567629	0.781830	1.431431
F256	F	1.817629	1.031830	1.681431
F257	F	0.583384	0.281842	0.236937
F258	F	0.833384	0.531842	0.486937
F259	F	1.083384	0.781842	0.736937
F260	F	1.333384	1.031842	0.986937
H261	H	1.056758	0.294817	0.584505
H262	H	1.306758	0.544817	0.834505
H263	H	1.556758	0.794817	1.084505
H264	H	1.806758	1.044817	1.334505
H265	H	0.236470	0.482139	0.404549
H266	H	0.486470	0.732139	0.654549
H267	H	0.736470	0.982139	0.904549
H268	H	0.986470	1.232139	1.154549
H269	H	0.899619	0.481861	0.712684
H270	H	1.149619	0.731861	0.962684
H271	H	1.399619	0.981861	1.212684
H272	H	1.649619	1.231861	1.462684
F273	F	0.888768	0.494794	0.575596
F274	F	1.138768	0.744794	0.825596
F275	F	1.388768	0.994794	1.075596
F276	F	1.638768	1.244794	1.325596
H277	H	0.236462	0.294776	0.247762
H278	H	0.486462	0.544776	0.497762
H279	H	0.736462	0.794776	0.747762
H280	H	0.986462	1.044776	0.997762
H281	H	0.592241	0.482116	0.404521
H282	H	0.842241	0.732116	0.654521
H283	H	1.092241	0.982116	0.904521
H284	H	1.342241	1.232116	1.154521
F285	F	0.373555	0.495041	0.415340
F286	F	0.623555	0.745041	0.665340
F287	F	0.873555	0.995041	0.915340
F288	F	1.123555	1.245041	1.165340
H289	H	1.056771	0.294778	0.712739
H290	H	1.306771	0.544778	0.962739
H291	H	1.556771	0.794778	1.212739
H292	H	1.806771	1.044778	1.462739
