data_functionalizedCrystal
_audit_creation_method	'MofGen! by Chris Wilmer'
_symmetry_space_group_name_H-M	'P1'
_symmetry_Int_Tables_number	1
_symmetry_cell_setting	triclinic
loop_
_symmetry_equiv_pos_as_xyz
  x,y,z
_cell_length_a	16.992694
_cell_length_b	19.188930
_cell_length_c	15.455313
_cell_angle_alpha	92.650876
_cell_angle_beta	87.142206
_cell_angle_gamma	86.906503
loop_
_atom_site_label
_atom_site_type_symbol
_atom_site_fract_x
_atom_site_fract_y
_atom_site_fract_z
O1	O	1.043326	0.145160	-0.072038
O2	O	1.543326	0.645160	0.427962
O3	O	0.815047	0.143535	-0.072064
O4	O	1.315047	0.643535	0.427936
O5	O	0.935773	0.043078	-0.072033
O6	O	1.435773	0.543078	0.427967
O7	O	0.922600	0.245617	-0.072069
O8	O	1.422600	0.745617	0.427931
O9	O	0.928870	0.048798	0.072227
O10	O	1.428870	0.548798	0.572227
O11	O	0.808144	0.149255	0.072197
O12	O	1.308144	0.649255	0.572197
O13	O	1.036422	0.150879	0.072222
O14	O	1.536422	0.650879	0.572222
Cu15	Cu	0.921653	0.150589	0.085382
Cu16	Cu	1.421653	0.650589	0.585382
Cu17	Cu	0.929817	0.143825	-0.085223
Cu18	Cu	1.429817	0.643825	0.414777
O19	O	0.915696	0.251336	0.072192
O20	O	1.415696	0.751336	0.572192
C21	C	0.782390	0.144306	0.000064
C22	C	1.282390	0.644306	0.500064
C23	C	0.695368	0.138072	0.000055
C24	C	1.195368	0.638072	0.500055
C25	C	0.644922	0.198212	0.000045
C26	C	1.144922	0.698212	0.500045
C27	C	0.563155	0.192351	0.000058
C28	C	1.063155	0.692351	0.500058
C29	C	0.531836	0.126351	0.000075
C30	C	1.031836	0.626351	0.500075
C31	C	0.582288	0.066208	0.000087
C32	C	1.082288	0.566208	0.500087
C33	C	0.664053	0.072069	0.000080
C34	C	1.164053	0.572069	0.500080
C35	C	0.288320	0.102059	0.000102
C36	C	0.788320	0.602059	0.500102
C37	C	0.206548	0.096203	0.000106
C38	C	0.706548	0.596203	0.500106
C39	C	0.187420	0.222347	0.000079
C40	C	0.687420	0.722347	0.500079
C41	C	0.269188	0.228202	0.000067
C42	C	0.769188	0.728202	0.500067
C43	C	0.319633	0.168059	0.000084
C44	C	0.819633	0.668059	0.500084
N45	N	0.448257	0.120360	0.000085
N46	N	0.948257	0.620360	0.500085
N47	N	0.403210	0.174051	0.000079
N48	N	0.903210	0.674051	0.500079
C49	C	0.931895	0.019902	0.000099
C50	C	1.431895	0.519902	0.500099
C51	C	0.930614	-0.057677	0.000107
C52	C	1.430614	0.442323	0.500107
C53	C	1.001452	-0.098455	0.000119
C54	C	1.501452	0.401545	0.500119
C55	C	1.000250	-0.171350	0.000105
C56	C	1.500250	0.328650	0.500105
C57	C	0.928204	-0.203463	0.000096
C58	C	1.428204	0.296537	0.500096
C59	C	0.857356	-0.162676	0.000079
C60	C	1.357356	0.337324	0.500079
C61	C	0.858561	-0.089783	0.000085
C62	C	1.358561	0.410217	0.500085
N63	N	0.870784	-0.312744	0.049185
N64	N	1.370784	0.187256	0.549185
N65	N	0.869644	-0.381990	0.049181
N66	N	1.369644	0.118010	0.549181
C67	C	0.924569	-0.423085	0.000078
C68	C	1.424569	0.076915	0.500078
N69	N	0.980688	-0.392319	-0.049011
N70	N	1.480688	0.107681	0.450989
N71	N	0.981830	-0.323067	-0.049004
N72	N	1.481830	0.176933	0.450996
C73	C	0.926889	-0.282503	0.000090
C74	C	1.426889	0.217497	0.500090
C75	C	0.994108	-0.542904	0.000074
C76	C	1.494108	-0.042904	0.500074
C77	C	0.992903	-0.615801	0.000054
C78	C	1.492903	-0.115801	0.500054
C79	C	0.850007	-0.607124	0.000038
C80	C	1.350007	-0.107124	0.500038
C81	C	0.851215	-0.534230	0.000048
C82	C	1.351215	-0.034230	0.500048
C83	C	0.923267	-0.502124	0.000070
C84	C	1.423267	-0.002124	0.500070
C85	C	1.069079	0.150109	0.000093
C86	C	1.569079	0.650109	0.500093
C87	C	1.156102	0.156342	0.000096
C88	C	1.656102	0.656342	0.500096
C89	C	0.919575	0.274513	0.000057
C90	C	1.419575	0.774513	0.500057
C91	C	0.920856	0.352092	0.000044
C92	C	1.420856	0.852092	0.500044
N93	N	0.915916	0.155346	0.205376
N94	N	1.415916	0.655346	0.705376
N95	N	0.935560	0.139063	-0.205217
N96	N	1.435560	0.639063	0.294783
C97	C	0.967222	0.112686	0.250783
C98	C	1.467222	0.612686	0.750783
C99	C	0.962891	0.116291	0.341590
C100	C	1.462891	0.616291	0.841590
C101	C	0.907257	0.162559	0.386988
C102	C	1.407257	0.662559	0.886988
C103	C	0.855945	0.205221	0.341574
C104	C	1.355945	0.705221	0.841574
C105	C	0.860273	0.201613	0.250769
C106	C	1.360273	0.701613	0.750769
C107	C	0.888576	0.178116	0.658564
C108	C	1.388576	0.678116	1.158564
C109	C	0.884253	0.181723	0.749376
C110	C	1.384253	0.681723	1.249376
C111	C	0.991199	0.092792	0.749385
C112	C	1.491199	0.592792	1.249385
C113	C	0.995525	0.089190	0.658578
C114	C	1.495525	0.589190	1.158578
C115	C	0.944211	0.131849	0.613173
C116	C	1.444211	0.631849	1.113173
N117	N	0.902830	0.166246	0.479807
N118	N	1.402830	0.666246	0.979807
N119	N	0.948634	0.128158	0.520355
N120	N	1.448634	0.628158	1.020355
H121	H	0.705127	0.023097	0.000088
H122	H	1.205127	0.523097	0.500088
H123	H	1.060123	-0.072320	0.000134
H124	H	1.560123	0.427680	0.500134
H125	H	0.294682	0.281946	0.000043
H126	H	0.794682	0.781946	0.500043
O127	O	0.514109	0.250754	0.000193
O128	O	1.014109	0.750754	0.500193
C129	C	0.462662	0.254100	0.074898
C130	C	0.962662	0.754100	0.574898
H131	H	0.490240	0.222154	0.127131
H132	H	0.990240	0.722154	0.627131
H133	H	0.452073	0.310813	0.099955
H134	H	0.952073	0.810813	0.599955
H135	H	0.404071	0.232039	0.058017
H136	H	0.904071	0.732039	0.558017
H137	H	1.012529	0.075013	0.213826
H138	H	1.512529	0.575013	0.713826
O139	O	0.782448	-0.494534	0.000161
O140	O	1.282448	0.005466	0.500161
C141	C	0.775285	-0.449172	0.074888
C142	C	1.275285	0.050828	0.574888
H143	H	0.836305	-0.441036	0.099807
H144	H	1.336305	0.058964	0.599807
H145	H	0.746701	-0.396741	0.058084
H146	H	1.246701	0.103259	0.558084
H147	H	0.737057	-0.473057	0.127199
H148	H	1.237057	0.026943	0.627199
O149	O	0.780008	-0.638282	-0.000126
O150	O	1.280008	-0.138282	0.499874
C151	C	0.740406	-0.620765	-0.074832
C152	C	1.240406	-0.120765	0.425168
H153	H	0.785041	-0.605327	-0.127045
H154	H	1.285041	-0.105327	0.372955
H155	H	0.708405	-0.667724	-0.099921
H156	H	1.208405	-0.167724	0.400079
H157	H	0.695750	-0.575082	-0.057941
H158	H	1.195750	-0.075082	0.442059
H159	H	0.798696	-0.188827	0.000070
H160	H	1.298696	0.311173	0.500070
H161	H	1.004668	0.081553	0.378560
H162	H	1.504668	0.581553	0.878560
H163	H	0.846795	0.212852	0.621602
H164	H	1.346795	0.712852	1.121602
O165	O	1.069135	-0.210867	0.000158
O166	O	1.569135	0.289133	0.500158
C167	C	1.132989	-0.166900	0.000153
C168	C	1.632989	0.333100	0.500153
H169	H	1.111597	-0.112587	0.027461
H170	H	1.611597	0.387413	0.527461
H171	H	1.180599	-0.189342	0.042046
H172	H	1.680599	0.310658	0.542046
H173	H	1.158404	-0.163217	-0.069051
H174	H	1.658404	0.336783	0.430949
H175	H	0.800874	-0.056581	0.000075
H176	H	1.300874	0.443419	0.500075
O177	O	0.810512	0.243156	0.206697
O178	O	1.310512	0.743156	0.706697
C179	C	0.821942	0.313859	0.228875
C180	C	1.321942	0.813859	0.728875
H181	H	0.883513	0.318728	0.253828
H182	H	1.383513	0.818728	0.753828
H183	H	0.815648	0.346010	0.169148
H184	H	1.315648	0.846010	0.669148
H185	H	0.775908	0.334010	0.281584
H186	H	1.275908	0.834010	0.781584
O187	O	0.830129	0.226680	0.793343
O188	O	1.330129	0.726680	1.293343
C189	C	0.785774	0.263568	0.733796
C190	C	1.285774	0.763568	1.233796
H191	H	0.788078	0.232329	0.669074
H192	H	1.288078	0.732329	1.169074
H193	H	0.721883	0.271721	0.760042
H194	H	1.221883	0.771721	1.260042
H195	H	0.811494	0.316480	0.724122
H196	H	1.311494	0.816480	1.224122
O197	O	1.049590	0.044182	0.614615
O198	O	1.549590	0.544182	1.114615
C199	C	1.093960	0.007313	0.674166
C200	C	1.593960	0.507313	1.174166
H201	H	1.058739	0.007285	0.738901
H202	H	1.558739	0.507285	1.238901
H203	H	1.107364	-0.048803	0.647944
H204	H	1.607364	0.451197	1.147944
H205	H	1.151655	0.033643	0.683807
H206	H	1.651655	0.533643	1.183807
H207	H	0.181052	0.042455	0.000119
H208	H	0.681052	0.542455	0.500119
H209	H	1.052778	-0.516763	0.000088
H210	H	1.552778	-0.016763	0.500088
O211	O	0.801971	0.250150	0.385806
O212	O	1.301971	0.750150	0.885806
C213	C	0.809140	0.244178	0.475690
C214	C	1.309140	0.744178	0.975690
H215	H	0.870963	0.222090	0.488091
H216	H	1.370963	0.722090	0.988091
H217	H	0.798590	0.297923	0.510183
H218	H	1.298590	0.797923	1.010183
H219	H	0.763663	0.207692	0.501479
H220	H	1.263663	0.707692	1.001479
H221	H	0.329383	0.053086	0.000117
H222	H	0.829383	0.553086	0.500117
O223	O	1.061777	-0.655345	-0.000051
O224	O	1.561777	-0.155345	0.499949
C225	C	1.109109	-0.643130	-0.074763
C226	C	1.609109	-0.143130	0.425237
H227	H	1.090861	-0.589955	-0.099669
H228	H	1.590861	-0.089955	0.400331
H229	H	1.173704	-0.643938	-0.057944
H230	H	1.673704	-0.143938	0.442056
H231	H	1.101037	-0.685618	-0.127089
H232	H	1.601037	-0.185618	0.372911
O233	O	0.675209	0.262380	0.000066
O234	O	1.175209	0.762380	0.500066
C235	C	0.613147	0.314202	0.000040
C236	C	1.113147	0.814202	0.500040
H237	H	0.556364	0.292616	0.027360
H238	H	1.056364	0.792616	0.527360
H239	H	0.628081	0.361668	0.041913
H240	H	1.128081	0.861668	0.541913
H241	H	0.604810	0.330227	-0.069172
H242	H	1.104810	0.830227	0.430828
O243	O	0.138304	0.280697	0.000108
O244	O	0.638304	0.780697	0.500108
C245	C	0.059421	0.261375	0.000096
C246	C	0.559421	0.761375	0.500096
H247	H	0.055170	0.207453	0.027416
H248	H	0.555170	0.707453	0.527416
H249	H	0.020240	0.301089	0.041975
H250	H	0.520240	0.801089	0.541975
H251	H	0.039065	0.259959	-0.069112
H252	H	0.539065	0.759959	0.430888
H253	H	0.556781	0.012469	0.000113
H254	H	1.056781	0.512469	0.500113
H255	H	1.032976	0.058060	0.786362
H256	H	1.532976	0.558060	1.286362
