data_functionalizedCrystal
_audit_creation_method	'MofGen! by Chris Wilmer'
_symmetry_space_group_name_H-M	'P1'
_symmetry_Int_Tables_number	1
_symmetry_cell_setting	triclinic
loop_
_symmetry_equiv_pos_as_xyz
  x,y,z
_cell_length_a	10.685980
_cell_length_b	18.050590
_cell_length_c	10.686551
_cell_angle_alpha	85.590282
_cell_angle_beta	81.591741
_cell_angle_gamma	94.384981
loop_
_atom_site_label
_atom_site_type_symbol
_atom_site_fract_x
_atom_site_fract_y
_atom_site_fract_z
Zn1	Zn	1.995769	-0.166459	-0.866682
Zn2	Zn	2.495769	0.333541	-0.366682
Zn3	Zn	1.979330	-0.300999	-0.654401
Zn4	Zn	2.479330	0.199001	-0.154401
Zn5	Zn	1.767193	-0.187129	-0.638144
Zn6	Zn	2.267193	0.312871	-0.138144
Zn7	Zn	1.783454	-0.300927	-0.850311
Zn8	Zn	2.283454	0.199073	-0.350311
O9	O	1.881436	-0.238878	-0.752384
O10	O	2.381436	0.261122	-0.252384
O11	O	2.171223	-0.175686	-0.852177
O12	O	2.671223	0.324314	-0.352177
O13	O	1.937505	-0.294574	-0.474611
O14	O	2.437505	0.205426	0.025389
O15	O	1.797589	-0.080457	-0.668507
O16	O	2.297589	0.419543	-0.168507
O17	O	2.159145	-0.274532	-0.696215
O18	O	2.659145	0.225468	-0.196215
O19	O	1.965522	-0.065271	-0.836413
O20	O	2.465522	0.434729	-0.336413
O21	O	1.781649	-0.210915	-0.462667
O22	O	2.281649	0.289085	0.037333
O23	O	1.591716	-0.210845	-0.652633
O24	O	2.091716	0.289155	-0.152633
O25	O	1.825303	-0.274409	-1.030116
O26	O	2.325303	0.225591	-0.530116
O27	O	1.603662	-0.294451	-0.808512
O28	O	2.103662	0.205549	-0.308512
O29	O	1.981289	-0.175616	-1.042143
O30	O	2.481289	0.324384	-0.542143
O31	O	1.953272	-0.404919	-0.680341
O32	O	2.453272	0.095081	-0.180341
O33	O	1.809363	-0.404866	-0.824276
O34	O	2.309363	0.095134	-0.324276
C35	C	1.551630	-0.254884	-0.727033
C36	C	2.051630	0.245116	-0.227033
C37	C	1.410540	-0.261747	-0.716217
C38	C	1.910540	0.238253	-0.216217
C39	C	1.881335	-0.431838	-0.752326
C40	C	2.381335	0.068162	-0.252326
C41	C	1.881411	-0.514379	-0.752353
C42	C	2.381411	-0.014379	-0.252353
C43	C	1.959854	-0.713817	-0.674213
C44	C	2.459854	-0.213817	-0.174213
C45	C	1.999760	-0.756001	-0.792444
C46	C	2.499760	-0.256001	-0.292444
C47	C	1.881487	-0.665503	-0.752409
C48	C	2.381487	-0.165503	-0.252409
C49	C	1.841714	-0.770392	-0.634240
C50	C	2.341714	-0.270392	-0.134240
C51	C	1.881562	-0.811483	-0.752453
C52	C	2.381562	-0.311483	-0.252453
C53	C	1.921457	-0.706594	-0.870706
C54	C	2.421457	-0.206594	-0.370706
C55	C	1.763351	-0.720987	-0.712419
C56	C	2.263351	-0.220987	-0.212419
C57	C	1.803219	-0.763147	-0.830726
C58	C	2.303219	-0.263147	-0.330726
C59	C	1.881447	-0.581408	-0.752382
C60	C	2.381447	-0.081408	-0.252382
C61	C	1.881603	-0.895576	-0.752493
C62	C	2.381603	-0.395576	-0.252493
C63	C	2.212530	-0.222811	-0.777836
C64	C	2.712530	0.277189	-0.277836
C65	C	2.353623	-0.215964	-0.788682
C66	C	2.853623	0.284036	-0.288682
C67	C	1.906943	-0.222698	-1.083476
C68	C	2.406943	0.277302	-0.583476
C69	C	1.917813	-0.215803	-1.224567
C70	C	2.417813	0.284197	-0.724567
C71	C	1.881575	-0.045162	-0.752473
C72	C	2.381575	0.454838	-0.252473
C73	C	1.881634	0.037388	-0.752511
C74	C	2.381634	0.537388	-0.252511
C75	C	1.856102	-0.254938	-0.422587
C76	C	2.356102	0.245062	0.077413
C77	C	1.845478	-0.261612	-0.281515
C78	C	2.345478	0.238388	0.218485
H79	H	1.351324	-0.306198	-0.645892
H80	H	1.851324	0.193802	-0.145892
H81	H	2.026157	-0.692147	-0.608161
H82	H	2.526157	-0.192147	-0.108161
H83	H	2.099698	-0.771618	-0.826295
H84	H	2.599698	-0.271618	-0.326295
H85	H	1.955036	-0.678902	-0.970735
H86	H	2.455036	-0.178902	-0.470735
H87	H	1.736985	-0.784669	-0.896956
H88	H	2.236985	-0.284669	-0.396956
Cl89	Cl	1.789729	-0.813291	-0.479923
Cl90	Cl	2.289729	-0.313291	0.020077
Cl91	Cl	1.609088	-0.696854	-0.660111
Cl92	Cl	2.109088	-0.196854	-0.160111
Cl93	Cl	1.445033	-0.147332	-0.897244
Cl94	Cl	1.945033	0.352668	-0.397244
H95	H	1.775237	-0.306107	-1.222331
H96	H	2.275237	0.193893	-0.722331
H97	H	1.988067	-0.171310	-1.283758
H98	H	2.488067	0.328690	-0.783758
