data_functionalizedCrystal
_audit_creation_method	'MofGen! by Chris Wilmer'
_symmetry_space_group_name_H-M	'P1'
_symmetry_Int_Tables_number	1
_symmetry_cell_setting	triclinic
loop_
_symmetry_equiv_pos_as_xyz
  x,y,z
_cell_length_a	19.288864
_cell_length_b	18.366186
_cell_length_c	19.288857
_cell_angle_alpha	90.009717
_cell_angle_beta	83.134677
_cell_angle_gamma	90.012929
loop_
_atom_site_label
_atom_site_type_symbol
_atom_site_fract_x
_atom_site_fract_y
_atom_site_fract_z
O1	O	0.921340	0.060787	0.086652
O2	O	1.254673	0.394120	0.419985
O3	O	1.588007	0.727453	0.753318
O4	O	0.719079	0.060737	0.098340
O5	O	1.052412	0.394071	0.431674
O6	O	1.385746	0.727404	0.765007
O7	O	0.826057	0.060755	-0.008635
O8	O	1.159390	0.394088	0.324699
O9	O	1.492723	0.727421	0.658032
O10	O	0.814362	0.060769	0.193627
O11	O	1.147696	0.394103	0.526960
O12	O	1.481029	0.727436	0.860293
O13	O	0.826059	-0.060345	-0.008645
O14	O	1.159393	0.272989	0.324688
O15	O	1.492726	0.606322	0.658022
O16	O	0.719082	-0.060362	0.098330
O17	O	1.052415	0.272971	0.431663
O18	O	1.385748	0.606304	0.764997
O19	O	0.921343	-0.060313	0.086641
O20	O	1.254676	0.273020	0.419975
O21	O	1.588009	0.606354	0.753308
Zn22	Zn	0.820212	-0.079565	0.092484
Zn23	Zn	1.153546	0.253769	0.425817
Zn24	Zn	1.486879	0.587102	0.759151
Zn25	Zn	0.820209	0.079989	0.092498
Zn26	Zn	1.153542	0.413322	0.425831
Zn27	Zn	1.486876	0.746656	0.759164
O28	O	0.814365	-0.060330	0.193616
O29	O	1.147698	0.273003	0.526950
O30	O	1.481032	0.606336	0.860283
C31	C	0.693204	0.000181	0.097959
C32	C	1.026537	0.333514	0.431292
C33	C	1.359871	0.666848	0.764626
C34	C	0.616100	0.000162	0.096830
C35	C	0.949434	0.333495	0.430163
C36	C	1.282767	0.666829	0.763497
N37	N	0.820207	0.188880	0.092502
N38	N	1.153541	0.522213	0.425835
N39	N	1.486874	0.855547	0.759168
C40	C	0.825683	0.000204	-0.034516
C41	C	1.159016	0.333537	0.298817
C42	C	1.492349	0.666871	0.632150
C43	C	0.824556	0.000202	-0.111620
C44	C	1.157889	0.333535	0.221713
C45	C	1.491222	0.666868	0.555046
C46	C	0.571402	0.000178	0.159598
C47	C	0.904736	0.333511	0.492931
C48	C	1.238069	0.666845	0.826265
C49	C	0.498955	0.000186	0.158537
C50	C	0.832289	0.333519	0.491871
C51	C	1.165622	0.666853	0.825204
C52	C	0.471209	0.000193	0.094705
C53	C	0.804543	0.333526	0.428038
C54	C	1.137876	0.666859	0.761372
C55	C	0.515917	0.000172	0.031929
C56	C	0.849251	0.333506	0.365262
C57	C	1.182584	0.666839	0.698595
C58	C	0.588363	0.000157	0.032991
C59	C	0.921696	0.333490	0.366325
C60	C	1.255029	0.666824	0.699658
C61	C	0.362948	0.042640	0.044529
C62	C	0.696281	0.375973	0.377863
C63	C	1.029615	0.709307	0.711196
C64	C	0.290504	0.042660	0.043470
C65	C	0.623837	0.375993	0.376803
C66	C	0.957170	0.709326	0.710136
C67	C	0.247764	0.000236	0.091425
C68	C	0.581097	0.333570	0.424759
C69	C	0.914431	0.666903	0.758092
C70	C	0.277476	-0.042197	0.140453
C71	C	0.610810	0.291136	0.473786
C72	C	0.944143	0.624469	0.807120
C73	C	0.349922	-0.042213	0.141516
C74	C	0.683255	0.291121	0.474849
C75	C	1.016588	0.624454	0.808182
C76	C	0.392656	0.000209	0.093546
C77	C	0.725989	0.333542	0.426879
C78	C	1.059322	0.666875	0.760213
C79	C	0.124510	0.000260	0.153048
C80	C	0.457843	0.333593	0.486381
C81	C	0.791177	0.666927	0.819714
C82	C	0.052062	0.000263	0.151984
C83	C	0.385395	0.333597	0.485318
C84	C	0.718729	0.666930	0.818651
C85	C	0.069026	0.000257	0.025374
C86	C	0.402359	0.333591	0.358707
C87	C	0.735692	0.666924	0.692041
C88	C	0.141472	0.000246	0.026439
C89	C	0.474805	0.333580	0.359772
C90	C	0.808139	0.666913	0.693106
C91	C	0.169210	0.000251	0.090278
C92	C	0.502543	0.333585	0.423611
C93	C	0.835876	0.666918	0.756945
C94	C	0.947218	0.000245	0.087022
C95	C	1.280551	0.333578	0.420356
C96	C	1.613884	0.666912	0.753689
C97	C	1.024321	0.000269	0.088151
C98	C	1.357655	0.333602	0.421485
C99	C	1.690988	0.666935	0.754818
N100	N	0.820220	-0.188456	0.092474
N101	N	1.153553	0.144878	0.425808
N102	N	1.486887	0.478211	0.759141
C103	C	0.867661	0.226988	0.045225
C104	C	1.200994	0.560322	0.378559
C105	C	1.534328	0.893655	0.711892
C106	C	0.867667	0.303216	0.045224
C107	C	1.201001	0.636549	0.378557
C108	C	1.534334	0.969883	0.711891
C109	C	0.820207	0.341333	0.092492
C110	C	1.153541	0.674666	0.425826
C111	C	1.486874	1.008000	0.759159
C112	C	0.772750	0.303216	0.139778
C113	C	1.106083	0.636549	0.473111
C114	C	1.439417	0.969882	0.806444
C115	C	0.772750	0.226989	0.139782
C116	C	1.106083	0.560323	0.473116
C117	C	1.439417	0.893656	0.806449
C118	C	0.756920	0.462085	0.101637
C119	C	1.090253	0.795418	0.434971
C120	C	1.423587	1.128752	0.768304
C121	C	0.756919	0.538310	0.101628
C122	C	1.090252	0.871643	0.434961
C123	C	1.423586	1.204977	0.768294
C124	C	0.820208	0.576440	0.092482
C125	C	1.153541	0.909774	0.425815
C126	C	1.486875	1.243107	0.759148
C127	C	0.883500	0.538336	0.083331
C128	C	1.216834	0.871670	0.416664
C129	C	1.550167	1.205003	0.749997
C130	C	0.883500	0.462110	0.083335
C131	C	1.216834	0.795443	0.416669
C132	C	1.550167	1.128777	0.750002
C133	C	0.820203	0.423988	0.092493
C134	C	1.153536	0.757321	0.425826
C135	C	1.486869	1.090654	0.759159
C136	C	0.867672	0.697203	0.045201
C137	C	1.201006	1.030537	0.378534
C138	C	1.534339	1.363870	0.711868
C139	C	0.867679	0.773433	0.045205
C140	C	1.201013	1.106766	0.378538
C141	C	1.534346	1.440099	0.711871
C142	C	0.772756	0.773431	0.139755
C143	C	1.106089	1.106764	0.473088
C144	C	1.439423	1.440097	0.806422
C145	C	0.772755	0.697203	0.139755
C146	C	1.106088	1.030536	0.473088
C147	C	1.439422	1.363870	0.806422
C148	C	0.820212	0.659094	0.092474
C149	C	1.153546	0.992427	0.425808
C150	C	1.486879	1.325761	0.759141
C151	C	0.824028	0.066213	-0.147825
C152	C	1.157362	0.399546	0.185508
C153	C	1.490695	0.732880	0.518841
C154	C	0.822960	0.066218	-0.220271
C155	C	1.156293	0.399551	0.113062
C156	C	1.489626	0.732885	0.446395
C157	C	0.822432	0.000208	-0.256511
C158	C	1.155766	0.333542	0.076822
C159	C	1.489099	0.666875	0.410155
C160	C	0.822956	-0.065812	-0.220297
C161	C	1.156289	0.267522	0.113036
C162	C	1.489622	0.600855	0.446369
C163	C	0.824017	-0.065815	-0.147852
C164	C	1.157351	0.267518	0.185482
C165	C	1.490684	0.600852	0.518815
C166	C	0.861435	-0.050350	-0.376747
C167	C	1.194768	0.282984	-0.043414
C168	C	1.528102	0.616317	0.289919
C169	C	0.860378	-0.050344	-0.449192
C170	C	1.193711	0.282990	-0.115859
C171	C	1.527044	0.616323	0.217475
C172	C	0.819155	0.000216	-0.479957
C173	C	1.152488	0.333549	-0.146624
C174	C	1.485821	0.666882	0.186709
C175	C	0.778998	0.050781	-0.438270
C176	C	1.112331	0.384115	-0.104937
C177	C	1.445665	0.717448	0.228397
C178	C	0.780060	0.050778	-0.365824
C179	C	1.113393	0.384111	-0.032491
C180	C	1.446726	0.717445	0.300842
C181	C	0.821281	0.000205	-0.335066
C182	C	1.154614	0.333538	-0.001733
C183	C	1.487947	0.666871	0.331600
C184	C	0.817467	0.066237	-0.594716
C185	C	1.150801	0.399570	-0.261383
C186	C	1.484134	0.732904	0.071950
C187	C	0.816394	0.066240	-0.667163
C188	C	1.149728	0.399573	-0.333830
C189	C	1.483061	0.732906	-0.000496
C190	C	0.816398	-0.065792	-0.667189
C191	C	1.149731	0.267541	-0.333855
C192	C	1.483064	0.600874	-0.000522
C193	C	0.817464	-0.065793	-0.594742
C194	C	1.150797	0.267541	-0.261409
C195	C	1.484130	0.600874	0.071924
C196	C	0.818002	0.000224	-0.558511
C197	C	1.151335	0.333557	-0.225178
C198	C	1.484668	0.666891	0.108156
C199	C	0.814739	0.000222	0.219498
C200	C	1.148072	0.333555	0.552831
C201	C	1.481406	0.666889	0.886165
C202	C	0.815866	0.000229	0.296602
C203	C	1.149199	0.333562	0.629935
C204	C	1.482533	0.666896	0.963269
H205	H	0.593981	0.000183	0.211581
H206	H	0.927314	0.333517	0.544914
H207	H	1.260648	0.666850	0.878247
Br208	Br	0.932075	0.354944	-0.018942
Br209	Br	1.265409	0.688277	0.314392
Br210	Br	1.598742	1.021610	0.647725
H211	H	0.822524	-0.119557	-0.249808
H212	H	1.155858	0.213776	0.083525
H213	H	1.489191	0.547109	0.416858
Br214	Br	0.818176	-0.155385	-0.545603
Br215	Br	1.151509	0.177949	-0.212270
Br216	Br	1.484843	0.511282	0.121064
H217	H	0.935035	0.431089	0.075886
H218	H	1.268368	0.764422	0.409220
H219	H	1.601702	1.097756	0.742553
Br220	Br	0.815671	0.155834	-0.716299
Br221	Br	1.149004	0.489168	-0.382966
Br222	Br	1.482338	0.822501	-0.049633
H223	H	0.906305	0.195962	0.006728
H224	H	1.239639	0.529295	0.340062
H225	H	1.572972	0.862629	0.673395
H226	H	0.734109	0.334254	0.178265
H227	H	1.067442	0.667587	0.511599
H228	H	1.400775	1.000921	0.844932
Br229	Br	0.914879	-0.118963	-0.505761
Br230	Br	1.248213	0.214371	-0.172427
Br231	Br	1.581546	0.547704	0.160906
H232	H	0.015669	0.000272	0.203100
H233	H	0.349002	0.333606	0.536433
H234	H	0.682335	0.666939	0.869767
H235	H	0.493322	0.000188	-0.020044
H236	H	0.826655	0.333521	0.313289
H237	H	1.159989	0.666854	0.646623
Br238	Br	0.815675	-0.155379	-0.716363
Br239	Br	1.149008	0.177954	-0.383029
Br240	Br	1.482341	0.511288	-0.049696
H241	H	0.895003	-0.091527	-0.351705
H242	H	1.228336	0.241807	-0.018371
H243	H	1.561670	0.575140	0.314962
H244	H	0.397741	0.077190	0.005476
H245	H	0.731075	0.410524	0.338810
H246	H	1.064408	0.743857	0.672143
H247	H	0.824444	-0.119571	-0.118374
H248	H	1.157777	0.213762	0.214960
H249	H	1.491111	0.547096	0.548293
Br250	Br	0.250186	0.100257	-0.023058
Br251	Br	0.583519	0.433591	0.310275
Br252	Br	0.916852	0.766924	0.643609
H253	H	0.624757	0.000145	-0.018124
H254	H	0.958090	0.333478	0.315209
H255	H	1.291423	0.666811	0.648543
H256	H	0.822526	0.119974	-0.249755
H257	H	1.155859	0.453307	0.083579
H258	H	1.489193	0.786641	0.416912
H259	H	0.705383	0.569328	0.109071
H260	H	1.038716	0.902662	0.442404
H261	H	1.372049	1.235995	0.775738
H262	H	0.824465	0.119969	-0.118330
H263	H	1.157798	0.453302	0.215003
H264	H	1.491131	0.786636	0.548337
H265	H	0.705379	0.431046	0.109089
H266	H	1.038712	0.764379	0.442422
H267	H	1.372045	1.097712	0.775755
H268	H	0.935036	0.569380	0.075888
H269	H	1.268370	0.902714	0.409222
H270	H	1.601703	1.236047	0.742555
H271	H	0.177867	0.000237	-0.024674
H272	H	0.511200	0.333571	0.308660
H273	H	0.844533	0.666904	0.641993
H274	H	0.374110	-0.076766	0.181433
H275	H	0.707444	0.256568	0.514767
H276	H	1.040777	0.589901	0.848100
Br277	Br	0.932080	0.645482	-0.018962
Br278	Br	1.265413	0.978815	0.314371
Br279	Br	1.598747	1.312149	0.647705
Br280	Br	0.708353	0.825154	0.203913
Br281	Br	1.041687	1.158488	0.537246
Br282	Br	1.375020	1.491821	0.870580
H283	H	0.147095	0.000253	0.205029
H284	H	0.480428	0.333587	0.538363
H285	H	0.813762	0.666920	0.871696
H286	H	0.462555	0.000197	0.209652
H287	H	0.795888	0.333530	0.542986
H288	H	1.129222	0.666864	0.876319
H289	H	0.817902	0.119992	-0.565215
H290	H	1.151235	0.453325	-0.231881
H291	H	1.484568	0.786658	0.101452
Br292	Br	0.031379	0.000254	-0.061258
Br293	Br	0.364712	0.333587	0.272076
Br294	Br	0.698046	0.666921	0.605409
H295	H	0.242679	-0.076743	0.179503
H296	H	0.576012	0.256590	0.512836
H297	H	0.909345	0.589924	0.846170
H298	H	0.906326	0.804461	0.006708
H299	H	1.239659	1.137794	0.340042
H300	H	1.572992	1.471128	0.673375
Br301	Br	0.708344	0.175266	0.203949
Br302	Br	1.041677	0.508600	0.537282
Br303	Br	1.375011	0.841933	0.870615
H304	H	0.734111	0.666173	0.178249
H305	H	1.067444	0.999507	0.511582
H306	H	1.400778	1.332840	0.844916
Br307	Br	0.725563	0.119397	-0.309251
Br308	Br	1.058896	0.452730	0.024083
Br309	Br	1.392229	0.786063	0.357416
H310	H	0.745430	0.091952	-0.463317
H311	H	1.078764	0.425285	-0.129984
H312	H	1.412097	0.758618	0.203350
