data_functionalizedCrystal
_audit_creation_method	'MofGen! by Chris Wilmer'
_symmetry_space_group_name_H-M	'P1'
_symmetry_Int_Tables_number	1
_symmetry_cell_setting	triclinic
loop_
_symmetry_equiv_pos_as_xyz
  x,y,z
_cell_length_a	17.077404
_cell_length_b	18.101395
_cell_length_c	18.101398
_cell_angle_alpha	90.017121
_cell_angle_beta	90.007689
_cell_angle_gamma	90.031329
loop_
_atom_site_label
_atom_site_type_symbol
_atom_site_fract_x
_atom_site_fract_y
_atom_site_fract_z
Zn1	Zn	1.199918	-0.294901	0.418740
Zn2	Zn	1.533252	0.038433	0.752073
Zn3	Zn	1.866585	0.371766	1.085406
Zn4	Zn	1.199834	-0.418727	0.294901
Zn5	Zn	1.533167	-0.085394	0.628235
Zn6	Zn	1.866500	0.247940	0.961568
Zn7	Zn	1.068677	-0.294904	0.294912
Zn8	Zn	1.402010	0.038429	0.628246
Zn9	Zn	1.735344	0.371762	0.961579
Zn10	Zn	1.068599	-0.418706	0.418702
Zn11	Zn	1.401933	-0.085372	0.752035
Zn12	Zn	1.735266	0.247961	1.085368
O13	O	1.134257	-0.356809	0.356814
O14	O	1.467590	-0.023476	0.690147
O15	O	1.800924	0.309857	1.023480
O16	O	1.309754	-0.311334	0.402323
O17	O	1.643087	0.021999	0.735657
O18	O	1.976421	0.355332	1.068990
O19	O	1.182433	-0.402312	0.191270
O20	O	1.515766	-0.068979	0.524603
O21	O	1.849099	0.264354	0.857937
O22	O	1.086155	-0.191271	0.311359
O23	O	1.419488	0.142062	0.644692
O24	O	1.752821	0.475396	0.978025
O25	O	1.309692	-0.402309	0.311340
O26	O	1.643025	-0.068975	0.644673
O27	O	1.976358	0.264358	0.978007
O28	O	1.182577	-0.191268	0.402334
O29	O	1.515910	0.142065	0.735667
O30	O	1.849244	0.475398	1.069001
O31	O	1.086072	-0.311340	0.191278
O32	O	1.419406	0.021993	0.524611
O33	O	1.752739	0.355326	0.857945
O34	O	0.958820	-0.311319	0.311322
O35	O	1.292153	0.022014	0.644655
O36	O	1.625487	0.355347	0.977989
O37	O	1.086022	-0.402272	0.522340
O38	O	1.419355	-0.068939	0.855673
O39	O	1.752688	0.264395	1.189006
O40	O	0.958763	-0.402276	0.402270
O41	O	1.292096	-0.068942	0.735603
O42	O	1.625429	0.264391	1.068936
O43	O	1.182501	-0.311313	0.522367
O44	O	1.515835	0.022020	0.855701
O45	O	1.849168	0.355353	1.189034
O46	O	1.182357	-0.522357	0.311303
O47	O	1.515690	-0.189024	0.644637
O48	O	1.849024	0.144310	0.977970
O49	O	1.085940	-0.522341	0.402259
O50	O	1.419273	-0.189008	0.735592
O51	O	1.752606	0.144325	1.068926
C52	C	0.930309	-0.356796	0.356793
C53	C	1.263643	-0.023463	0.690127
C54	C	1.596976	0.309871	1.023460
C55	C	0.843059	-0.356808	0.356802
C56	C	1.176393	-0.023475	0.690136
C57	C	1.509726	0.309859	1.023469
C58	C	1.134152	-0.549220	0.356792
C59	C	1.467485	-0.215887	0.690125
C60	C	1.800819	0.117447	1.023459
C61	C	1.134179	-0.631534	0.356807
C62	C	1.467512	-0.298201	0.690141
C63	C	1.800846	0.035133	1.023474
C64	C	0.802060	-0.404240	0.404083
C65	C	1.135393	-0.070907	0.737416
C66	C	1.468727	0.262426	1.070749
C67	C	0.720080	-0.404242	0.404094
C68	C	1.053413	-0.070909	0.737428
C69	C	1.386746	0.262425	1.070761
C70	C	0.679100	-0.356815	0.356822
C71	C	1.012433	-0.023481	0.690155
C72	C	1.345767	0.309852	1.023488
C73	C	0.720105	-0.309377	0.309539
C74	C	1.053438	0.023956	0.642872
C75	C	1.386772	0.357290	0.976206
C76	C	0.802084	-0.309372	0.309532
C77	C	1.135417	0.023961	0.642865
C78	C	1.468751	0.357294	0.976198
C79	C	0.549235	-0.309392	0.309557
C80	C	0.882568	0.023942	0.642890
C81	C	1.215902	0.357275	0.976224
C82	C	0.467250	-0.309397	0.309563
C83	C	0.800584	0.023936	0.642897
C84	C	1.133917	0.357269	0.976230
C85	C	0.467231	-0.404261	0.404120
C86	C	0.800564	-0.070928	0.737453
C87	C	1.133897	0.262405	1.070786
C88	C	0.549209	-0.404257	0.404112
C89	C	0.882543	-0.070923	0.737446
C90	C	1.215876	0.262410	1.070779
C91	C	0.590209	-0.356820	0.356829
C92	C	0.923542	-0.023487	0.690162
C93	C	1.256876	0.309847	1.023495
C94	C	1.134351	-0.930625	0.356847
C95	C	1.467684	-0.597292	0.690181
C96	C	1.801018	-0.263958	1.023514
C97	C	1.073829	-0.899321	0.414216
C98	C	1.407162	-0.565987	0.747549
C99	C	1.740495	-0.232654	1.080883
C100	C	1.073541	-0.813703	0.414037
C101	C	1.406874	-0.480369	0.747370
C102	C	1.740208	-0.147036	1.080703
C103	C	1.134266	-0.782243	0.356828
C104	C	1.467599	-0.448909	0.690162
C105	C	1.800932	-0.115576	1.023495
C106	C	1.111886	-0.813380	0.278779
C107	C	1.445219	-0.480047	0.612112
C108	C	1.778552	-0.146713	0.945445
C109	C	1.111496	-0.899025	0.279122
C110	C	1.444829	-0.565692	0.612455
C111	C	1.778162	-0.232359	0.945789
C112	C	1.217386	-0.898972	0.376841
C113	C	1.550720	-0.565639	0.710174
C114	C	1.884053	-0.232305	1.043508
C115	C	1.216898	-0.813321	0.378553
C116	C	1.550231	-0.479988	0.711886
C117	C	1.883564	-0.146655	1.045219
C118	C	1.134219	-0.698383	0.356813
C119	C	1.467552	-0.365050	0.690146
C120	C	1.800885	-0.031716	1.023479
C121	C	1.134396	-1.014484	0.356858
C122	C	1.467730	-0.681151	0.690191
C123	C	1.801063	-0.347818	1.023524
C124	C	1.339001	-0.356823	0.356835
C125	C	1.672335	-0.023490	0.690168
C126	C	2.005668	0.309843	1.023501
C127	C	1.426251	-0.356829	0.356844
C128	C	1.759584	-0.023496	0.690177
C129	C	2.092918	0.309837	1.023510
C130	C	1.134262	-0.356790	0.549976
C131	C	1.467596	-0.023456	0.883309
C132	C	1.800929	0.309877	1.216642
C133	C	1.134265	-0.356781	0.632290
C134	C	1.467598	-0.023448	0.965623
C135	C	1.800931	0.309885	1.298956
C136	C	1.134384	-0.163648	0.356852
C137	C	1.467717	0.169686	0.690185
C138	C	1.801051	0.503019	1.023519
C139	C	1.134438	-0.081333	0.356868
C140	C	1.467771	0.252000	0.690201
C141	C	1.801105	0.585333	1.023535
C142	C	1.134266	-0.356795	0.782998
C143	C	1.467599	-0.023462	1.116332
C144	C	1.800932	0.309871	1.449665
C145	C	1.194965	-0.299569	0.814369
C146	C	1.528298	0.033764	1.147703
C147	C	1.861631	0.367098	1.481036
C148	C	1.195203	-0.299745	0.899988
C149	C	1.528536	0.033588	1.233321
C150	C	1.861870	0.366921	1.566654
C151	C	1.134267	-0.356808	0.931381
C152	C	1.467600	-0.023475	1.264714
C153	C	1.800933	0.309859	1.598047
C154	C	1.156400	-0.434912	0.900272
C155	C	1.489733	-0.101578	1.233606
C156	C	1.823066	0.231755	1.566939
C157	C	1.156840	-0.434573	0.814628
C158	C	1.490173	-0.101240	1.147961
C159	C	1.823506	0.232093	1.481294
C160	C	1.051281	-0.336603	0.814555
C161	C	1.384614	-0.003270	1.147888
C162	C	1.717947	0.330063	1.481222
C163	C	1.051727	-0.334889	0.900206
C164	C	1.385060	-0.001556	1.233540
C165	C	1.718393	0.331778	1.566873
C166	C	1.134266	-0.356820	1.015240
C167	C	1.467599	-0.023487	1.348574
C168	C	1.800933	0.309847	1.681907
C169	C	1.134268	-0.356789	0.699139
C170	C	1.467602	-0.023455	1.032472
C171	C	1.800935	0.309878	1.365805
C172	C	1.134252	-0.356838	1.164403
C173	C	1.467585	-0.023504	1.497737
C174	C	1.800919	0.309829	1.831070
C175	C	1.134268	-0.356822	1.082089
C176	C	1.467601	-0.023489	1.415422
C177	C	1.800935	0.309845	1.748756
H178	H	0.835420	-0.442864	0.442575
H179	H	1.168753	-0.109531	0.775909
H180	H	1.502086	0.223803	1.109242
H181	H	0.686733	-0.270758	0.271052
H182	H	1.020066	0.062576	0.604385
H183	H	1.353400	0.395909	0.937719
Cl184	Cl	0.668541	-0.463874	0.463535
Cl185	Cl	1.001874	-0.130541	0.796869
Cl186	Cl	1.335207	0.202793	1.130202
H187	H	1.256106	-0.312792	0.792856
H188	H	1.589439	0.020541	1.126189
H189	H	1.922773	0.353875	1.459522
Cl190	Cl	0.978515	-0.782162	0.393593
Cl191	Cl	1.311848	-0.448829	0.726926
Cl192	Cl	1.645181	-0.115495	1.060259
Cl193	Cl	1.173589	-0.210403	0.932468
Cl194	Cl	1.506922	0.122931	1.265802
Cl195	Cl	1.840255	0.456264	1.599135
Cl196	Cl	1.250480	-0.460945	0.783792
Cl197	Cl	1.583814	-0.127612	1.117126
Cl198	Cl	1.917147	0.205722	1.450459
H199	H	1.113544	-0.478719	0.920604
H200	H	1.446877	-0.145386	1.253937
H201	H	1.780211	0.187948	1.587270
Cl202	Cl	0.979383	-0.932661	0.394043
Cl203	Cl	1.312716	-0.599327	0.727376
Cl204	Cl	1.646049	-0.265994	1.060710
Cl205	Cl	1.017783	-0.929969	0.252975
Cl206	Cl	1.351117	-0.596636	0.586308
Cl207	Cl	1.684450	-0.263303	0.919641
Cl208	Cl	1.173884	-0.209874	0.782610
Cl209	Cl	1.507217	0.123459	1.115943
Cl210	Cl	1.840550	0.456793	1.449277
H211	H	0.582614	-0.270757	0.271060
H212	H	0.915948	0.062576	0.604394
H213	H	1.249281	0.395910	0.937727
H214	H	1.153666	-0.919735	0.234920
H215	H	1.487000	-0.586401	0.568254
H216	H	1.820333	-0.253068	0.901587
Cl217	Cl	0.853626	-0.249739	0.250093
Cl218	Cl	1.186960	0.083595	0.583426
Cl219	Cl	1.520293	0.416928	0.916759
H220	H	1.262477	-0.919214	0.335057
H221	H	1.595811	-0.585881	0.668390
H222	H	1.929144	-0.252548	1.001724
H223	H	1.087541	-0.792649	0.471910
H224	H	1.420874	-0.459316	0.805243
H225	H	1.754208	-0.125982	1.138576
Cl226	Cl	1.248894	-0.932253	0.463215
Cl227	Cl	1.582227	-0.598920	0.796548
Cl228	Cl	1.915560	-0.265587	1.129881
H229	H	1.233775	-0.792968	0.435993
H230	H	1.567108	-0.459635	0.769326
H231	H	1.900441	-0.126302	1.102659
H232	H	0.582573	-0.442880	0.442602
H233	H	0.915906	-0.109547	0.775935
H234	H	1.249240	0.223786	1.109268
H235	H	1.154581	-0.793002	0.234869
H236	H	1.487915	-0.459668	0.568202
H237	H	1.821248	-0.126335	0.901536
Cl238	Cl	1.091529	-0.502670	0.782579
Cl239	Cl	1.424863	-0.169336	1.115912
Cl240	Cl	1.758196	0.163997	1.449245
H241	H	1.031069	-0.280619	0.792960
H242	H	1.364402	0.052715	1.126294
H243	H	1.697736	0.386048	1.459627
H244	H	1.216374	-0.452302	0.921746
H245	H	1.549708	-0.118969	1.255079
H246	H	1.883041	0.214365	1.588412
Cl247	Cl	1.290203	-0.780247	0.318748
Cl248	Cl	1.623536	-0.446914	0.652081
Cl249	Cl	1.956869	-0.113580	0.985414
Cl250	Cl	1.290136	-0.320437	0.931638
Cl251	Cl	1.623469	0.012896	1.264972
Cl252	Cl	1.956802	0.346230	1.598305
Cl253	Cl	1.095223	-0.931063	0.503860
Cl254	Cl	1.428556	-0.597730	0.837193
Cl255	Cl	1.761889	-0.264397	1.170527
H256	H	1.035030	-0.277410	0.920541
H257	H	1.368364	0.055923	1.253875
H258	H	1.701697	0.389257	1.587208
Cl259	Cl	0.978201	-0.394522	0.933194
Cl260	Cl	1.311535	-0.061189	1.266527
Cl261	Cl	1.644868	0.272145	1.599861
Cl262	Cl	1.019163	-0.780366	0.252160
Cl263	Cl	1.352497	-0.447033	0.585493
Cl264	Cl	1.685830	-0.113699	0.918827
H265	H	1.006060	-0.378282	0.794264
H266	H	1.339393	-0.044948	1.127597
H267	H	1.672727	0.288385	1.460931
H268	H	0.433845	-0.442884	0.442622
H269	H	0.767178	-0.109551	0.775955
H270	H	1.100512	0.223783	1.109289
H271	H	0.433887	-0.270769	0.271078
H272	H	0.767220	0.062565	0.604412
H273	H	1.100554	0.395898	0.937745
