data_functionalizedCrystal
_audit_creation_method	'MofGen! by Chris Wilmer'
_symmetry_space_group_name_H-M	'P1'
_symmetry_Int_Tables_number	1
_symmetry_cell_setting	triclinic
loop_
_symmetry_equiv_pos_as_xyz
  x,y,z
_cell_length_a	14.519709
_cell_length_b	9.016244
_cell_length_c	14.519709
_cell_angle_alpha	90.003180
_cell_angle_beta	83.680145
_cell_angle_gamma	90.001728
loop_
_atom_site_label
_atom_site_type_symbol
_atom_site_fract_x
_atom_site_fract_y
_atom_site_fract_z
O1	O	1.223872	0.123150	0.120887
O2	O	0.955395	0.123196	0.135124
O3	O	1.096752	0.123159	-0.006233
O4	O	1.082515	0.123188	0.262244
O5	O	1.096731	-0.123522	-0.006230
O6	O	0.955374	-0.123485	0.135127
O7	O	1.223851	-0.123530	0.120891
Cu8	Cu	1.089611	-0.146031	0.128009
Cu9	Cu	1.089635	0.145697	0.128005
O10	O	1.082494	-0.123493	0.262247
C11	C	0.921025	-0.000139	0.134462
C12	C	0.818643	-0.000122	0.132474
N13	N	1.089600	-0.351218	0.128011
C14	C	0.443748	-0.000190	0.125154
C15	C	0.548056	-0.000170	0.127187
C16	C	0.631192	-0.000154	0.128814
C17	C	0.735507	-0.000138	0.130847
C18	C	1.013755	-0.586230	0.203378
C19	C	1.013920	-0.414339	0.203657
C20	C	1.185864	-0.413570	0.149189
C21	C	1.185449	-0.585515	0.149722
C22	C	1.070141	-0.585768	0.031215
C23	C	1.067924	-0.413813	0.031860
C24	C	1.258221	-0.000192	0.121553
C25	C	1.360602	-0.000200	0.123541
C26	C	1.096078	-0.000182	-0.040591
C27	C	1.094090	-0.000182	-0.142972
N28	N	1.089653	0.350883	0.127996
C29	C	1.086770	-0.000143	-0.517868
C30	C	1.088803	-0.000154	-0.413560
C31	C	1.090430	-0.000164	-0.330423
C32	C	1.092463	-0.000173	-0.226109
C33	C	1.083168	-0.000149	0.296606
C34	C	1.085156	-0.000139	0.398987
H35	H	0.941980	-0.627613	0.190940
C36	C	1.208567	-0.794919	0.246715
C37	C	1.208636	-0.639642	0.245005
H38	H	1.222890	-0.828326	0.305538
H39	H	1.149098	-0.830459	0.235980
H40	H	1.253680	-0.831278	0.199794
H41	H	1.163518	-0.603283	0.291922
H42	H	1.268113	-0.604088	0.255750
C43	C	0.962326	-0.587737	0.366303
C44	C	1.030358	-0.644524	0.299785
H45	H	0.972576	-0.623736	0.425818
H46	H	0.965370	-0.482504	0.366014
H47	H	0.902892	-0.618482	0.352195
H48	H	1.089792	-0.613770	0.313889
H49	H	1.027323	-0.749780	0.300077
C50	C	0.955306	-0.272582	0.337401
C51	C	1.030756	-0.358778	0.300608
H52	H	0.965702	-0.238293	0.397259
H53	H	0.948541	-0.190105	0.298011
H54	H	0.900507	-0.330905	0.341899
H55	H	1.085554	-0.300452	0.296103
H56	H	1.037531	-0.441267	0.340007
C57	C	1.311196	-0.520438	0.035423
C58	C	1.263978	-0.641682	0.078424
H59	H	1.359676	-0.555113	-0.008590
H60	H	1.269316	-0.462094	0.004908
H61	H	1.336631	-0.461895	0.080789
H62	H	1.238537	-0.700220	0.033059
H63	H	1.305865	-0.700051	0.108939
H64	H	1.203434	-0.370488	0.218973
C65	C	1.191491	-0.518772	-0.087351
C66	C	1.144848	-0.640672	-0.044521
H67	H	1.237616	-0.552678	-0.134098
H68	H	1.148589	-0.457552	-0.114496
H69	H	1.219914	-0.463430	-0.042506
H70	H	1.116419	-0.696008	-0.089365
H71	H	1.187758	-0.701916	-0.017376
H72	H	0.942371	-0.372184	0.191015
H73	H	1.001467	-0.629206	0.010890
C74	C	0.972180	-0.203582	0.007121
C75	C	0.972328	-0.358805	0.010165
H76	H	0.913163	-0.169621	-0.006274
H77	H	0.984898	-0.165372	0.065359
H78	H	1.018371	-0.170486	-0.039799
H79	H	0.926142	-0.391902	0.057091
H80	H	0.959599	-0.397030	-0.048080
H81	H	1.243692	-0.372680	0.095753
H82	H	1.119596	-0.370851	-0.026875
