data_functionalizedCrystal
_audit_creation_method	'MofGen! by Chris Wilmer'
_symmetry_space_group_name_H-M	'P1'
_symmetry_Int_Tables_number	1
_symmetry_cell_setting	triclinic
loop_
_symmetry_equiv_pos_as_xyz
  x,y,z
_cell_length_a	16.120530
_cell_length_b	25.639239
_cell_length_c	25.639233
_cell_angle_alpha	89.981253
_cell_angle_beta	87.090206
_cell_angle_gamma	87.134054
loop_
_atom_site_label
_atom_site_type_symbol
_atom_site_fract_x
_atom_site_fract_y
_atom_site_fract_z
Zn1	Zn	1.274382	-0.248803	-0.336095
Zn2	Zn	1.274260	-0.336218	-0.248655
Zn3	Zn	1.134983	-0.244363	-0.244245
Zn4	Zn	1.134896	-0.331767	-0.331632
O5	O	1.204630	-0.290288	-0.290157
O6	O	1.391030	-0.264120	-0.328209
O7	O	1.255770	-0.324038	-0.174904
O8	O	1.153562	-0.171789	-0.256451
O9	O	1.390940	-0.328344	-0.263968
O10	O	1.255978	-0.175052	-0.323932
O11	O	1.153444	-0.256552	-0.171664
O12	O	1.018308	-0.252236	-0.252124
O13	O	1.153413	-0.320757	-0.405390
O14	O	1.018244	-0.316451	-0.316327
O15	O	1.255893	-0.259804	-0.408668
O16	O	1.255686	-0.408790	-0.259640
O17	O	1.153295	-0.405520	-0.320603
C18	C	0.988026	-0.283379	-0.283263
C19	C	0.895362	-0.280436	-0.280326
C20	C	0.725704	-0.275051	-0.274968
C21	C	0.684397	-0.305564	-0.305383
C22	C	0.589994	-0.302567	-0.302402
C23	C	0.820116	-0.278046	-0.277949
C24	C	1.204490	-0.426126	-0.290128
C25	C	1.204506	-0.484240	-0.290136
C26	C	1.258084	-0.846302	-0.258475
C27	C	1.258116	-0.900907	-0.258483
O28	O	1.303525	-0.930584	-0.231532
N29	N	1.204777	-0.926531	-0.290196
C30	C	1.151407	-0.897547	-0.321907
O31	O	1.106041	-0.924357	-0.348883
C32	C	1.151380	-0.842943	-0.321902
C33	C	1.204717	-0.817322	-0.290182
C34	C	1.311418	-0.820681	-0.226759
C35	C	1.311384	-0.766079	-0.226750
C36	C	1.258017	-0.737099	-0.258458
C37	C	1.204683	-0.762720	-0.290174
C38	C	1.098015	-0.813960	-0.353615
C39	C	1.097993	-0.759353	-0.353607
C40	C	1.151330	-0.733731	-0.321888
C41	C	1.151283	-0.679139	-0.321873
N42	N	1.204622	-0.653515	-0.290160
C43	C	1.257989	-0.682495	-0.258452
C44	C	1.151470	-1.012220	-0.321917
C45	C	1.151493	-1.066823	-0.321921
C46	C	1.258203	-1.070179	-0.258497
C47	C	1.258176	-1.015575	-0.258491
C48	C	1.204810	-0.986596	-0.290204
C49	C	1.257914	-0.567827	-0.258436
C50	C	1.257874	-0.513221	-0.258428
C51	C	1.151167	-0.509869	-0.321854
C52	C	1.151204	-0.564471	-0.321860
C53	C	1.204585	-0.593449	-0.290149
O54	O	1.105900	-0.649428	-0.348811
O55	O	1.303356	-0.655679	-0.231486
C56	C	1.422080	-0.297224	-0.297078
C57	C	1.514744	-0.300180	-0.300027
C58	C	1.204657	-0.290279	-0.426531
C59	C	1.204669	-0.290276	-0.484645
C60	C	1.204794	-0.153920	-0.290197
C61	C	1.204863	-0.095808	-0.290215
C62	C	1.258098	-0.258441	-0.846723
C63	C	1.258108	-0.258426	-0.901328
O64	O	1.303468	-0.231418	-0.931021
N65	N	1.204761	-0.290156	-0.926931
C66	C	1.151393	-0.321898	-0.897926
O67	O	1.106018	-0.348886	-0.924717
C68	C	1.151380	-0.321909	-0.843322
C69	C	1.204736	-0.290181	-0.817722
C70	C	1.311450	-0.226715	-0.821123
C71	C	1.311440	-0.226730	-0.766522
C72	C	1.258079	-0.258470	-0.737521
C73	C	1.204727	-0.290196	-0.763121
C74	C	1.098009	-0.353648	-0.814318
C75	C	1.097999	-0.353656	-0.759710
C76	C	1.151356	-0.321928	-0.734111
C77	C	1.151356	-0.321952	-0.679519
N78	N	1.204704	-0.290222	-0.653917
C79	C	1.258065	-0.258481	-0.682918
C80	C	1.151426	-0.321872	-1.012597
C81	C	1.151443	-0.321864	-1.067200
C82	C	1.258157	-0.258391	-1.070599
C83	C	1.258143	-0.258402	-1.015995
C84	C	1.204773	-0.290142	-0.986995
C85	C	1.258042	-0.258516	-0.568252
C86	C	1.258030	-0.258535	-0.513646
C87	C	1.151314	-0.322006	-0.510252
C88	C	1.151328	-0.321989	-0.564853
C89	C	1.204695	-0.290239	-0.593852
O90	O	1.106017	-0.348945	-0.649793
O91	O	1.303426	-0.231494	-0.656119
C92	C	1.204652	-0.290260	-0.154315
C93	C	1.204802	-0.290121	-0.096206
H94	H	1.301307	-0.492362	-0.232597
N95	N	1.315584	-0.224315	-0.486035
H96	H	1.349387	-0.204205	-0.512696
H97	H	1.281677	-0.199042	-0.462301
H98	H	0.719933	-0.333936	-0.333662
H99	H	0.690170	-0.246680	-0.246692
N100	N	1.315488	-0.599077	-0.224235
H101	H	1.349264	-0.574554	-0.204144
H102	H	1.281594	-0.620686	-0.198944
H103	H	1.354903	-0.200864	-0.844730
N104	N	1.368925	-0.738449	-0.192547
H105	H	1.402737	-0.765100	-0.172467
H106	H	1.407469	-0.716992	-0.215079
H107	H	1.301495	-0.232661	-0.591856
H108	H	1.354880	-0.844271	-0.200938
N109	N	1.315705	-0.987943	-0.224282
H110	H	1.349514	-1.014592	-0.204198
H111	H	1.354255	-0.966485	-0.246809
H112	H	1.301661	-1.093785	-0.232680
H113	H	1.108053	-1.087679	-0.347744
H114	H	1.108006	-0.988627	-0.347740
N115	N	1.368987	-0.192507	-0.738915
H116	H	1.402786	-0.172399	-0.765579
H117	H	1.335077	-0.167233	-0.715184
N118	N	1.093853	-0.356104	-0.981320
H119	H	1.060062	-0.376199	-1.005828
H120	H	1.127742	-0.381390	-0.959737
H121	H	1.054578	-0.834811	-0.379442
H122	H	1.054537	-0.735760	-0.379434
H123	H	1.054560	-0.379485	-0.835151
N124	N	1.093669	-0.592109	-0.356064
H125	H	1.059854	-0.565462	-0.376147
H126	H	1.127594	-0.615808	-0.381362
H127	H	1.107713	-0.486265	-0.347669
N128	N	1.315691	-0.224182	-0.988386
H129	H	1.349496	-0.204076	-1.015048
H130	H	1.281782	-0.198907	-0.964656
N131	N	1.315713	-0.224155	-1.101884
H132	H	1.307619	-0.228964	-1.140358
H133	H	1.302779	-0.186403	-1.091933
N134	N	1.093906	-0.356093	-1.094809
H135	H	1.060104	-0.376201	-1.068146
H136	H	1.055351	-0.333577	-1.116238
N137	N	1.093762	-0.356205	-0.592456
H138	H	1.055156	-0.333712	-0.613875
H139	H	1.127651	-0.381510	-0.616166
N140	N	1.093764	-0.356241	-0.478968
H141	H	1.101856	-0.351431	-0.440493
H142	H	1.034235	-0.346199	-0.486616
N143	N	1.040427	-0.387886	-0.728431
H144	H	1.006630	-0.407980	-0.752938
H145	H	1.074320	-0.413173	-0.706852
