data_functionalizedCrystal
_audit_creation_method	'MofGen! by Chris Wilmer'
_symmetry_space_group_name_H-M	'P1'
_symmetry_Int_Tables_number	1
_symmetry_cell_setting	triclinic
loop_
_symmetry_equiv_pos_as_xyz
  x,y,z
_cell_length_a	12.645330
_cell_length_b	12.645331
_cell_length_c	12.645323
_cell_angle_alpha	90.026382
_cell_angle_beta	89.972994
_cell_angle_gamma	89.993100
loop_
_atom_site_label
_atom_site_type_symbol
_atom_site_fract_x
_atom_site_fract_y
_atom_site_fract_z
Zn1	Zn	-0.422193	-1.620768	-0.599535
Zn2	Zn	-0.599481	-1.620666	-0.422269
Zn3	Zn	-0.422215	-1.443483	-0.422268
Zn4	Zn	-0.599398	-1.443480	-0.599473
O5	O	-0.510822	-1.532099	-0.510886
O6	O	-0.445737	-1.769102	-0.576047
O7	O	-0.576011	-1.597120	-0.273921
O8	O	-0.273865	-1.467044	-0.445809
O9	O	-0.575990	-1.769027	-0.445810
O10	O	-0.273849	-1.597295	-0.576046
O11	O	-0.445773	-1.466945	-0.273921
O12	O	-0.445692	-1.295135	-0.445748
O13	O	-0.575847	-1.467040	-0.747828
O14	O	-0.575868	-1.295134	-0.575940
O15	O	-0.445656	-1.597293	-0.747874
O16	O	-0.747818	-1.597118	-0.445749
O17	O	-0.747756	-1.466940	-0.575940
C18	C	-0.510774	-1.256670	-0.510838
C19	C	-0.510779	-1.138840	-0.510842
C20	C	-0.428495	-0.971241	-0.429380
C21	C	-0.428718	-1.093801	-0.429029
C22	C	-0.622449	-1.094329	-0.480320
C23	C	-0.621990	-0.971731	-0.479757
C24	C	-0.482424	-0.971688	-0.623116
C25	C	-0.479939	-1.094293	-0.622501
C26	C	-0.786251	-1.532046	-0.510861
C27	C	-0.904081	-1.532121	-0.510886
C28	C	-1.071640	-1.613884	-0.428817
C29	C	-0.949080	-1.614150	-0.429018
C30	C	-0.948467	-1.562421	-0.622633
C31	C	-1.071065	-1.563069	-0.622197
C32	C	-1.071398	-1.420025	-0.482310
C33	C	-0.948793	-1.420563	-0.479804
C34	C	-0.234316	-1.532182	-0.510935
C35	C	-0.116486	-1.532217	-0.510955
C36	C	-0.510740	-1.532177	-0.787392
C37	C	-0.510705	-1.532211	-0.905222
C38	C	-0.510850	-0.808605	-0.510919
C39	C	-0.510809	-0.926435	-0.510892
C40	C	-0.592222	-1.450016	-1.072757
C41	C	-0.592626	-1.450231	-0.950197
C42	C	-0.541035	-1.643913	-0.949748
C43	C	-0.541546	-1.643462	-1.072346
C44	C	-0.398402	-1.503760	-1.072422
C45	C	-0.399075	-1.501267	-0.949815
C46	C	-0.510827	-1.532083	-0.235457
C47	C	-0.510563	-1.532255	-0.117627
H48	H	-0.345910	-1.123895	-0.448160
N49	N	-0.318467	-0.932194	-0.454423
H50	H	-0.320906	-0.885079	-0.518849
H51	H	-0.290173	-0.890841	-0.392224
H52	H	-0.335017	-1.556790	-0.919200
H53	H	-1.100727	-1.506193	-0.685506
H54	H	-0.919315	-1.504749	-0.685472
N55	N	-0.317800	-1.583082	-1.110867
H56	H	-0.284508	-1.619731	-1.048225
H57	H	-0.353771	-1.637159	-1.157354
N58	N	-0.376416	-0.930820	-0.659889
H59	H	-0.385632	-0.890263	-0.728054
H60	H	-0.345750	-0.882574	-0.604109
H61	H	-1.102404	-1.392472	-0.402243
N62	N	-0.910131	-1.724218	-0.454121
H63	H	-0.865888	-1.722376	-0.520614
H64	H	-0.865853	-1.751210	-0.393409
N65	N	-0.368764	-1.392385	-0.911264
H66	H	-0.427090	-1.363215	-0.865104
H67	H	-0.301155	-1.397018	-0.869030
H68	H	-1.102379	-1.696534	-0.447552
N69	N	-0.907719	-1.669829	-0.655307
H70	H	-0.866025	-1.663092	-0.723114
H71	H	-0.860563	-1.698950	-0.597832
H72	H	-0.447048	-0.940395	-0.346706
N73	N	-0.464759	-1.727263	-0.911153
H74	H	-0.485772	-1.798420	-0.940742
H75	H	-0.390903	-1.709053	-0.935516
N76	N	-0.908247	-1.335611	-0.553243
H77	H	-0.938280	-1.264896	-0.531347
H78	H	-0.828511	-1.333031	-0.549488
H79	H	-0.674852	-1.468644	-1.103574
H80	H	-0.447484	-1.123081	-0.345870
H81	H	-0.573645	-1.367400	-0.920090
H82	H	-0.646062	-0.943087	-0.397715
N83	N	-0.650153	-1.675435	-1.110259
H84	H	-0.644469	-1.741533	-1.154769
H85	H	-0.697191	-1.689635	-1.047280
N86	N	-0.567339	-1.339962	-1.111777
H87	H	-0.552951	-1.292156	-1.049417
H88	H	-0.502907	-1.342425	-1.158940
H89	H	-0.622168	-1.668479	-0.919058
N90	N	-0.910378	-1.390489	-0.370822
H91	H	-0.935507	-1.444718	-0.317856
H92	H	-0.830551	-1.387960	-0.370578
N93	N	-0.361777	-1.397744	-1.113345
H94	H	-0.417527	-1.367112	-1.161610
H95	H	-0.349674	-1.348235	-1.051837
H96	H	-0.685397	-0.942092	-0.536538
H97	H	-0.542378	-0.942714	-0.683850
N98	N	-0.371082	-1.132817	-0.652991
H99	H	-0.341857	-1.178936	-0.594727
H100	H	-0.375769	-1.175087	-0.720611
N101	N	-1.109809	-1.339418	-0.561547
H102	H	-1.156190	-1.375338	-0.615741
H103	H	-1.151780	-1.282905	-0.523763
N104	N	-0.702764	-1.475143	-0.911352
H105	H	-0.751239	-1.486039	-0.973870
H106	H	-0.700966	-1.541617	-0.867147
H107	H	-0.685424	-1.123504	-0.537830
H108	H	-0.484652	-1.706815	-1.102031
H109	H	-0.646940	-1.124987	-0.399163
H110	H	-0.919075	-1.595192	-0.346159
N111	N	-0.553566	-1.134898	-0.707264
H112	H	-0.608203	-1.182957	-0.674338
H113	H	-0.590091	-1.073231	-0.742470
N114	N	-1.110765	-1.589086	-0.318732
H115	H	-1.157947	-1.524678	-0.321033
H116	H	-1.152061	-1.651360	-0.290546
H117	H	-1.099586	-1.645076	-0.646461
