data_functionalizedCrystal
_audit_creation_method	'MofGen! by Chris Wilmer'
_symmetry_space_group_name_H-M	'P1'
_symmetry_Int_Tables_number	1
_symmetry_cell_setting	triclinic
loop_
_symmetry_equiv_pos_as_xyz
  x,y,z
_cell_length_a	19.077236
_cell_length_b	12.594516
_cell_length_c	19.076919
_cell_angle_alpha	92.275735
_cell_angle_beta	89.887323
_cell_angle_gamma	92.304758
loop_
_atom_site_label
_atom_site_type_symbol
_atom_site_fract_x
_atom_site_fract_y
_atom_site_fract_z
Zn1	Zn	1.058347	-0.386368	-0.440560
Zn2	Zn	1.063012	-0.556940	-0.323062
Zn3	Zn	0.945562	-0.385810	-0.318340
Zn4	Zn	0.940833	-0.571140	-0.435801
O5	O	1.001938	-0.475065	-0.379441
O6	O	1.157299	-0.403286	-0.428942
O7	O	1.051363	-0.528063	-0.224104
O8	O	0.960551	-0.236938	-0.334569
O9	O	1.160726	-0.528605	-0.342616
O10	O	1.043413	-0.237348	-0.424364
O11	O	0.965074	-0.402335	-0.220636
O12	O	0.846602	-0.416104	-0.329954
O13	O	0.952490	-0.552806	-0.534763
O14	O	0.843127	-0.552265	-0.416251
O15	O	1.038827	-0.417055	-0.538260
O16	O	1.046777	-0.707771	-0.338001
O17	O	0.957013	-0.718203	-0.420830
C18	C	0.819368	-0.485665	-0.372074
C19	C	0.741263	-0.490227	-0.368939
C20	C	0.702783	-0.427236	-0.412480
C21	C	0.629395	-0.431517	-0.409529
C22	C	0.594489	-0.498795	-0.363039
C23	C	0.632974	-0.561788	-0.319494
C24	C	0.706361	-0.557501	-0.322442
C25	C	0.375198	-0.518595	-0.349391
C26	C	0.301806	-0.522880	-0.346447
C27	C	0.298232	-0.392606	-0.436482
C28	C	0.371620	-0.388330	-0.439429
C29	C	0.410099	-0.451319	-0.395881
N30	N	0.519475	-0.503174	-0.360023
N31	N	0.485112	-0.446933	-0.398894
C32	C	1.001906	-0.751607	-0.379427
C33	C	1.001956	-0.869910	-0.379448
C34	C	1.050831	-0.933451	-0.334449
C35	C	1.065423	-1.007210	-0.399276
C36	C	0.987451	-1.006947	-0.314666
C37	C	1.016579	-0.942112	-0.444309
C38	C	0.938579	-0.941842	-0.359654
C39	C	0.953144	-1.015574	-0.424524
C40	C	1.185222	-0.464423	-0.386837
C41	C	1.263326	-0.459889	-0.389988
C42	C	0.994611	-0.486577	-0.562721
C43	C	0.991488	-0.491482	-0.640824
C44	C	1.001989	-0.197443	-0.379471
C45	C	1.002011	-0.079137	-0.379483
C46	C	1.034970	-0.423112	-0.679338
C47	C	1.032027	-0.427718	-0.752724
C48	C	0.985605	-0.500700	-0.787594
C49	C	0.942119	-0.569073	-0.749074
C50	C	0.945059	-0.564462	-0.675689
C51	C	0.971990	-0.522067	-1.006874
C52	C	0.969055	-0.526676	-1.080264
C53	C	1.058963	-0.385318	-1.083909
C54	C	1.061901	-0.380717	-1.010523
C55	C	1.018412	-0.449086	-0.972009
N56	N	0.982598	-0.505412	-0.862606
N57	N	1.021417	-0.444369	-0.896999
C58	C	1.009278	-0.463518	-0.196876
C59	C	1.012537	-0.458305	-0.118779
H60	H	1.092168	-0.897578	-0.296432
H61	H	0.904319	-0.628494	-0.777471
O62	O	1.106915	-0.309654	-0.976695
C63	C	1.090855	-0.205605	-0.994051
H64	H	1.033908	-0.204780	-1.011947
H65	H	1.098853	-0.149613	-0.946053
H66	H	1.126817	-0.178284	-1.038185
H67	H	0.266894	-0.341322	-0.471936
H68	H	1.119042	-1.036014	-0.416036
H69	H	1.028815	-0.913671	-0.499154
O70	O	1.074339	-0.361262	-0.790031
C71	C	1.115933	-0.295846	-0.743517
H72	H	1.120451	-0.336017	-0.691300
H73	H	1.170451	-0.282616	-0.766960
H74	H	1.090533	-0.216008	-0.734680
H75	H	0.406519	-0.569887	-0.313931
H76	H	0.598067	-0.380224	-0.444986
O77	O	0.903936	-1.058100	-0.470089
C78	C	0.919514	-1.024928	-0.538303
H79	H	0.977752	-1.001807	-0.542036
H80	H	0.906098	-1.092714	-0.577997
H81	H	0.887288	-0.953442	-0.550036
O82	O	0.923896	-0.597604	-1.114026
C83	C	0.886153	-0.656979	-1.064299
H84	H	0.885819	-0.610237	-1.011894
H85	H	0.829939	-0.672875	-1.083268
H86	H	0.912180	-0.735834	-1.057522
H87	H	0.884976	-0.913013	-0.342875
O88	O	0.929679	-0.588326	-0.969427
C89	C	0.886019	-0.527685	-0.925142
H90	H	0.880809	-0.445500	-0.947097
H91	H	0.831967	-0.569265	-0.922113
H92	H	0.909976	-0.519253	-0.870405
O93	O	0.598958	-0.627119	-0.274394
C94	C	0.525933	-0.617379	-0.281116
H95	H	0.513751	-0.586643	-0.334982
H96	H	0.498234	-0.698420	-0.275139
H97	H	0.506765	-0.559203	-0.238664
O98	O	0.267824	-0.588089	-0.301243
C99	C	0.227191	-0.527009	-0.254216
H100	H	0.215210	-0.448614	-0.278653
H101	H	0.175960	-0.572762	-0.242677
H102	H	0.257544	-0.510263	-0.203291
H103	H	0.400036	-0.333549	-0.477288
O104	O	0.743635	-0.618801	-0.280122
C105	C	0.697092	-0.679085	-0.238446
H106	H	0.643634	-0.687702	-0.265121
H107	H	0.718595	-0.761213	-0.231708
H108	H	0.691411	-0.637090	-0.184808
H109	H	0.909644	-0.620126	-0.644331
O110	O	0.736717	-0.362037	-0.457717
C111	C	0.777373	-0.423105	-0.504729
H112	H	0.755086	-0.508504	-0.508087
H113	H	0.776053	-0.388085	-0.558883
H114	H	0.833857	-0.422107	-0.485234
O115	O	0.972866	-1.040906	-0.249241
C116	C	1.024511	-0.998887	-0.201962
H117	H	1.050407	-0.924074	-0.223870
H118	H	0.999059	-0.978232	-0.149315
H119	H	1.065826	-1.060374	-0.194469
H120	H	1.072773	-0.363685	-0.650953
O121	O	1.101130	-0.318946	-1.121427
C122	C	1.088596	-0.338679	-1.193676
H123	H	1.033961	-0.377320	-1.201504
H124	H	1.092258	-0.260426	-1.221766
H125	H	1.129434	-0.394245	-1.216180
