data_functionalizedCrystal
_audit_creation_method	'MofGen! by Chris Wilmer'
_symmetry_space_group_name_H-M	'P1'
_symmetry_Int_Tables_number	1
_symmetry_cell_setting	triclinic
loop_
_symmetry_equiv_pos_as_xyz
  x,y,z
_cell_length_a	17.077402
_cell_length_b	17.077404
_cell_length_c	17.077396
_cell_angle_alpha	90.016105
_cell_angle_beta	90.029873
_cell_angle_gamma	90.023198
loop_
_atom_site_label
_atom_site_type_symbol
_atom_site_fract_x
_atom_site_fract_y
_atom_site_fract_z
Zn1	Zn	-0.312544	1.200024	0.443816
Zn2	Zn	0.187456	1.700024	0.943816
Zn3	Zn	-0.443821	1.199931	0.312549
Zn4	Zn	0.056179	1.699931	0.812549
Zn5	Zn	-0.312569	1.068761	0.312566
Zn6	Zn	0.187431	1.568761	0.812566
Zn7	Zn	-0.443767	1.068719	0.443775
Zn8	Zn	0.056233	1.568719	0.943775
O9	O	-0.378175	1.134359	0.378176
O10	O	0.121825	1.634359	0.878176
O11	O	-0.329971	1.309859	0.426413
O12	O	0.170029	1.809859	0.926413
O13	O	-0.426443	1.182510	0.202704
O14	O	0.073557	1.682510	0.702704
O15	O	-0.202718	1.086230	0.330002
O16	O	0.297282	1.586230	0.830002
O17	O	-0.426419	1.309790	0.329971
O18	O	0.073581	1.809790	0.829971
O19	O	-0.202700	1.182669	0.426430
O20	O	0.297300	1.682669	0.926430
O21	O	-0.330012	1.086140	0.202717
O22	O	0.169988	1.586140	0.702717
O23	O	-0.329960	0.958909	0.329962
O24	O	0.170040	1.458909	0.829962
O25	O	-0.426328	1.086158	0.553627
O26	O	0.073672	1.586158	1.053627
O27	O	-0.426351	0.958878	0.426360
O28	O	0.073649	1.458878	0.926360
O29	O	-0.329919	1.182628	0.553657
O30	O	0.170081	1.682628	1.053657
O31	O	-0.553661	1.182469	0.329931
O32	O	-0.053661	1.682469	0.829931
O33	O	-0.553621	1.086068	0.426343
O34	O	-0.053621	1.586068	0.926343
C35	C	-0.378153	0.930411	0.378159
C36	C	0.121847	1.430411	0.878159
C37	C	-0.378162	0.843161	0.378170
C38	C	0.121838	1.343161	0.878170
C39	C	-0.328031	0.802207	0.428464
C40	C	0.171969	1.302207	0.928464
C41	C	-0.328036	0.720227	0.428467
C42	C	0.171964	1.220227	0.928467
C43	C	-0.378177	0.679202	0.378180
C44	C	0.121823	1.179202	0.878180
C45	C	-0.428311	0.720161	0.327881
C46	C	0.071689	1.220161	0.827881
C47	C	-0.428301	0.802140	0.327874
C48	C	0.071699	1.302140	0.827874
C49	C	-0.428329	0.549291	0.327901
C50	C	0.071671	1.049291	0.827901
C51	C	-0.428339	0.467307	0.327908
C52	C	0.071661	0.967307	0.827908
C53	C	-0.328063	0.467378	0.428494
C54	C	0.171937	0.967378	0.928494
C55	C	-0.328054	0.549357	0.428487
C56	C	0.171946	1.049357	0.928487
C57	C	-0.378189	0.590311	0.378188
C58	C	0.121811	1.090311	0.878188
C59	C	-0.582123	1.134275	0.378148
C60	C	-0.082123	1.634275	0.878148
C61	C	-0.669373	1.134311	0.378162
C62	C	-0.169373	1.634311	0.878162
C63	C	-1.045114	1.184660	0.428478
C64	C	-0.545114	1.684660	0.928478
C65	C	-0.963134	1.184625	0.428460
C66	C	-0.463134	1.684625	0.928460
C67	C	-0.922222	1.134435	0.378208
C68	C	-0.422222	1.634435	0.878208
C69	C	-0.963294	1.084282	0.327966
C70	C	-0.463294	1.584282	0.827966
C71	C	-1.045273	1.084322	0.327981
C72	C	-0.545273	1.584322	0.827981
C73	C	-0.792424	1.084201	0.327940
C74	C	-0.292424	1.584201	0.827940
C75	C	-0.710440	1.084160	0.327925
C76	C	-0.210440	1.584160	0.827925
C77	C	-0.710285	1.184505	0.428418
C78	C	-0.210285	1.684505	0.928418
C79	C	-0.792264	1.184544	0.428433
C80	C	-0.292264	1.684544	0.928433
C81	C	-0.833331	1.134390	0.378192
C82	C	-0.333331	1.634390	0.878192
C83	C	-0.173431	1.134465	0.378222
C84	C	0.326569	1.634465	0.878222
C85	C	-0.086181	1.134510	0.378242
C86	C	0.413819	1.634510	0.878242
C87	C	-0.378114	1.134398	0.582921
C88	C	0.121886	1.634398	1.082921
C89	C	-0.378089	1.134415	0.670171
C90	C	0.121911	1.634415	1.170171
C91	C	-0.378198	1.339103	0.378194
C92	C	0.121802	1.839103	0.878194
C93	C	-0.378208	1.426353	0.378202
C94	C	0.121792	1.926353	0.878202
C95	C	-0.378179	1.134365	0.174229
C96	C	0.121821	1.634365	0.674229
C97	C	-0.377984	1.134500	0.086979
C98	C	0.122016	1.634500	0.586979
C99	C	-0.327871	1.084251	0.711167
C100	C	0.172129	1.584251	1.211167
C101	C	-0.327853	1.084263	0.793147
C102	C	0.172147	1.584263	1.293147
C103	C	-0.378050	1.134445	0.834130
C104	C	0.121950	1.634445	1.334130
C105	C	-0.428272	1.184612	0.793128
C106	C	0.071728	1.684612	1.293128
C107	C	-0.428294	1.184595	0.711149
C108	C	0.071706	1.684595	1.211149
C109	C	-0.428223	1.184646	0.963998
C110	C	0.071777	1.684646	1.463998
C111	C	-0.428201	1.184665	1.045983
C112	C	0.071799	1.684665	1.545983
C113	C	-0.327783	1.084315	1.045997
C114	C	0.172217	1.584315	1.545997
C115	C	-0.327804	1.084297	0.964018
C116	C	0.172196	1.584297	1.464018
C117	C	-0.378026	1.134465	0.923021
C118	C	0.121974	1.634465	1.423021
H119	H	-0.469123	0.835484	0.286919
H120	H	0.030877	1.335484	0.786919
H121	H	-0.469180	1.225450	0.677771
H122	H	0.030820	1.725450	1.177771
F123	F	-0.274681	0.676645	0.481998
F124	F	0.225319	1.176645	0.981998
F125	F	-0.481671	0.676497	0.274358
F126	F	0.018329	1.176497	0.774358
F127	F	-0.481720	0.423646	0.274403
F128	F	0.018280	0.923646	0.774403
H129	H	-0.469152	0.582633	0.286940
H130	H	0.030848	1.082633	0.786940
F131	F	-0.835804	1.237954	0.481925
F132	F	-0.335804	1.737954	0.981925
H133	H	-1.078419	1.225524	0.469407
H134	H	-0.578419	1.725524	0.969407
H135	H	-0.287202	0.835604	0.469415
H136	H	0.212798	1.335604	0.969415
H137	H	-0.286926	1.043438	0.930652
H138	H	0.213074	1.543438	1.430652
F139	F	-0.274694	0.593017	0.482013
F140	F	0.225306	1.093017	0.982013
F141	F	-0.274331	1.030923	1.089629
F142	F	0.225669	1.530923	1.589629
H143	H	-0.676844	1.225342	0.469325
H144	H	-0.176844	1.725342	0.969325
H145	H	-0.287240	0.434029	0.469447
H146	H	0.212760	0.934029	0.969447
F147	F	-0.481679	1.238038	0.920368
F148	F	0.018321	1.738038	1.420368
F149	F	-0.919431	1.238002	0.481929
F150	F	-0.419431	1.738002	0.981929
F151	F	-0.666899	1.030751	0.274433
F152	F	-0.166899	1.530751	0.774433
F153	F	-0.836129	1.030824	0.274464
F154	F	-0.336129	1.530824	0.774464
H155	H	-0.929979	1.043419	0.287046
H156	H	-0.429979	1.543419	0.787046
F157	F	-1.088979	1.030947	0.274510
F158	F	-0.588979	1.530947	0.774510
F159	F	-0.274441	1.030843	0.667557
F160	F	0.225559	1.530843	1.167557
F161	F	-0.274434	1.030842	0.836775
F162	F	0.225566	1.530842	1.336775
F163	F	-0.481622	1.238078	1.089598
F164	F	0.018378	1.738078	1.589598
H165	H	-0.469147	1.225467	0.826503
H166	H	0.030853	1.725467	1.326503
