data_functionalizedCrystal
_audit_creation_method	'MofGen! by Chris Wilmer'
_symmetry_space_group_name_H-M	'P1'
_symmetry_Int_Tables_number	1
_symmetry_cell_setting	triclinic
loop_
_symmetry_equiv_pos_as_xyz
  x,y,z
_cell_length_a	25.639242
_cell_length_b	16.625546
_cell_length_c	16.625539
_cell_angle_alpha	89.969603
_cell_angle_beta	90.029355
_cell_angle_gamma	89.982005
loop_
_atom_site_label
_atom_site_type_symbol
_atom_site_fract_x
_atom_site_fract_y
_atom_site_fract_z
Zn1	Zn	0.799321	0.321096	0.456087
Zn2	Zn	0.799258	0.455939	0.321249
Zn3	Zn	0.711886	0.321114	0.321246
Zn4	Zn	0.711867	0.455880	0.456018
O5	O	0.755583	0.388507	0.388650
O6	O	0.872478	0.339001	0.438230
O7	O	0.787650	0.438087	0.208416
O8	O	0.723519	0.208279	0.339161
O9	O	0.872432	0.438070	0.339165
O10	O	0.787757	0.208266	0.438227
O11	O	0.723458	0.339031	0.208414
O12	O	0.638719	0.338974	0.339095
O13	O	0.723486	0.437969	0.568860
O14	O	0.638705	0.437986	0.438111
O15	O	0.787738	0.338943	0.568910
O16	O	0.787631	0.568764	0.339099
O17	O	0.723426	0.568720	0.438113
C18	C	0.755534	0.597998	0.388616
C19	C	0.755560	0.687619	0.388629
C20	C	0.619741	0.388476	0.388595
C21	C	0.561627	0.388482	0.388591
C22	C	0.755617	0.388447	0.598959
C23	C	0.755632	0.388422	0.688580
C24	C	0.201265	0.440149	0.440159
C25	C	0.146661	0.440154	0.440172
O26	O	0.118425	0.484044	0.483970
N27	N	0.119344	0.388530	0.388703
C28	C	0.146635	0.336891	0.337223
O29	O	0.118386	0.292980	0.293447
C30	C	0.201238	0.336883	0.337215
C31	C	0.228552	0.388516	0.388682
C32	C	0.228579	0.491778	0.491622
C33	C	0.283180	0.491774	0.491608
C34	C	0.310466	0.440141	0.440131
C35	C	0.283152	0.388512	0.388668
C36	C	0.228528	0.285241	0.285741
C37	C	0.283135	0.285236	0.285738
C38	C	0.310448	0.336870	0.337204
C39	C	0.365040	0.336875	0.337177
N40	N	0.392356	0.388500	0.388646
C41	C	0.365070	0.440133	0.440123
C42	C	0.031964	0.336912	0.337245
C43	C	-0.022638	0.336923	0.337249
C44	C	-0.022608	0.440186	0.440198
C45	C	0.031995	0.440177	0.440190
C46	C	0.059281	0.388536	0.388714
C47	C	0.479735	0.440121	0.440089
C48	C	0.534340	0.440114	0.440068
C49	C	0.534305	0.336850	0.337122
C50	C	0.479705	0.336858	0.337140
C51	C	0.452421	0.388497	0.388630
O52	O	0.393310	0.293005	0.293403
O53	O	0.393325	0.484029	0.483900
C54	C	0.891956	0.388540	0.388705
C55	C	0.950070	0.388554	0.388729
C56	C	0.755647	0.178199	0.388702
C57	C	0.755674	0.088577	0.388724
C58	C	0.755652	1.015795	0.388713
C59	C	0.755625	0.924487	0.388692
C60	C	0.755606	0.851710	0.388670
C61	C	0.755579	0.760396	0.388650
C62	C	0.755580	0.388509	0.179159
C63	C	0.755666	0.388308	0.089539
C64	C	0.755656	0.388332	1.016756
C65	C	0.755648	0.388359	0.925448
C66	C	0.755644	0.388377	0.852671
C67	C	0.755635	0.388404	0.761357
H68	H	0.556577	0.482164	0.481979
H69	H	0.054230	0.482221	0.482100
H70	H	0.556532	0.294814	0.295208
H71	H	0.054177	0.294860	0.295322
H72	H	0.206368	0.533824	0.533545
H73	H	0.457527	0.482168	0.482019
H74	H	0.305414	0.533818	0.533519
H75	H	-0.044873	0.294886	0.295331
H76	H	0.206298	0.243197	0.243829
H77	H	-0.044835	0.482226	0.482116
H78	H	0.305348	0.243178	0.243824
H79	H	0.457465	0.294816	0.295230
