data_functionalizedCrystal
_audit_creation_method	'MofGen! by Chris Wilmer'
_symmetry_space_group_name_H-M	'P1'
_symmetry_Int_Tables_number	1
_symmetry_cell_setting	triclinic
loop_
_symmetry_equiv_pos_as_xyz
  x,y,z
_cell_length_a	13.897449
_cell_length_b	21.295417
_cell_length_c	21.295411
_cell_angle_alpha	89.971282
_cell_angle_beta	89.984730
_cell_angle_gamma	90.031786
loop_
_atom_site_label
_atom_site_type_symbol
_atom_site_fract_x
_atom_site_fract_y
_atom_site_fract_z
Zn1	Zn	1.474565	-0.250616	-0.355892
Zn2	Zn	1.974565	0.249384	0.144108
Zn3	Zn	1.474438	-0.355880	-0.250617
Zn4	Zn	1.974438	0.144120	0.249383
Zn5	Zn	1.313269	-0.250631	-0.250639
Zn6	Zn	1.813269	0.249369	0.249361
Zn7	Zn	1.313199	-0.355853	-0.355851
Zn8	Zn	1.813199	0.144147	0.144149
O9	O	1.393868	-0.303245	-0.303250
O10	O	1.893868	0.196755	0.196750
O11	O	1.609529	-0.264584	-0.341935
O12	O	2.109529	0.235416	0.158065
O13	O	1.453035	-0.341937	-0.162531
O14	O	1.953035	0.158063	0.337469
O15	O	1.334748	-0.162540	-0.264627
O16	O	1.834748	0.337460	0.235373
O17	O	1.609436	-0.341922	-0.264590
O18	O	2.109436	0.158078	0.235410
O19	O	1.453251	-0.162528	-0.341956
O20	O	1.953251	0.337472	0.158044
O21	O	1.334625	-0.264611	-0.162547
O22	O	1.834625	0.235389	0.337453
O23	O	1.178278	-0.264584	-0.264588
O24	O	1.678278	0.235416	0.235412
O25	O	1.334629	-0.341875	-0.443946
O26	O	1.834629	0.158125	0.056054
O27	O	1.178227	-0.341890	-0.341886
O28	O	1.678227	0.158110	0.158114
O29	O	1.453183	-0.264558	-0.443976
O30	O	1.953183	0.235442	0.056024
O31	O	1.452967	-0.443966	-0.264550
O32	O	1.952967	0.056034	0.235450
O33	O	1.334506	-0.443946	-0.341865
O34	O	1.834506	0.056054	0.158135
C35	C	1.143254	-0.303237	-0.303235
C36	C	1.643254	0.196763	0.196765
C37	C	1.036040	-0.303248	-0.303244
C38	C	1.536040	0.196752	0.196756
C39	C	0.839744	-0.303250	-0.303261
C40	C	1.339744	0.196750	0.196739
C41	C	0.948977	-0.303247	-0.303250
C42	C	1.448977	0.196753	0.196750
C43	C	1.393741	-0.466797	-0.303215
C44	C	1.893741	0.033203	0.196785
C45	C	1.393776	-0.536765	-0.303221
C46	C	1.893776	-0.036765	0.196779
C47	C	1.455513	-0.569621	-0.263004
C48	C	1.955513	-0.069621	0.236996
C49	C	1.455558	-0.635363	-0.263018
C50	C	1.955558	-0.135363	0.236982
C51	C	1.393849	-0.668247	-0.303243
C52	C	1.893849	-0.168247	0.196757
C53	C	1.332107	-0.635383	-0.343467
C54	C	1.832107	-0.135383	0.156533
C55	C	1.332070	-0.569642	-0.343456
C56	C	1.832070	-0.069642	0.156544
N57	N	1.309467	-0.771515	-0.308037
N58	N	1.809467	-0.271515	0.191963
N59	N	1.309505	-0.833966	-0.308043
N60	N	1.809505	-0.333966	0.191957
C61	C	1.393957	-0.866322	-0.303279
C62	C	1.893957	-0.366322	0.196721
N63	N	1.478372	-0.833867	-0.298495
N64	N	1.978372	-0.333867	0.201505
N65	N	1.478333	-0.771410	-0.298485
N66	N	1.978333	-0.271410	0.201515
C67	C	1.393882	-0.739533	-0.303259
C68	C	1.893882	-0.239533	0.196741
C69	C	1.455749	-0.970464	-0.263075
C70	C	1.955749	-0.470464	0.236925
C71	C	1.455795	-1.036207	-0.263094
C72	C	1.955795	-0.536207	0.236906
C73	C	1.332335	-1.036226	-0.343539
C74	C	1.832335	-0.536226	0.156461
C75	C	1.332297	-0.970483	-0.343524
C76	C	1.832297	-0.470483	0.156476
C77	C	1.394002	-0.937606	-0.303289
C78	C	1.894002	-0.437606	0.196711
C79	C	1.645461	-0.303254	-0.303264
C80	C	2.145461	0.196746	0.196736
C81	C	1.752675	-0.303258	-0.303271
C82	C	2.252675	0.196742	0.196729
C83	C	1.393912	-0.303212	-0.467440
C84	C	1.893912	0.196788	0.032560
C85	C	1.393931	-0.303197	-0.537408
C86	C	1.893931	0.196803	-0.037408
C87	C	1.394021	-0.139055	-0.303298
C88	C	1.894021	0.360945	0.196702
C89	C	1.394086	-0.069087	-0.303319
C90	C	1.894086	0.430913	0.196681
C91	C	1.455695	-0.343330	-1.036859
C92	C	1.955695	0.156670	-0.536859
C93	C	1.455678	-0.343351	-0.971116
C94	C	1.955678	0.156649	-0.471116
C95	C	1.394022	-0.303099	-0.938248
C96	C	1.894022	0.196901	-0.438248
C97	C	1.332363	-0.262836	-0.971128
C98	C	1.832363	0.237164	-0.471128
C99	C	1.332375	-0.262821	-1.036869
C100	C	1.832375	0.237179	-0.536869
N101	N	1.386655	-0.248020	-0.835043
N102	N	1.886655	0.251980	-0.335043
N103	N	1.386648	-0.248035	-0.772591
N104	N	1.886648	0.251965	-0.272591
C105	C	1.393980	-0.303142	-0.740173
C106	C	1.893980	0.196858	-0.240173
N107	N	1.401337	-0.358233	-0.772566
N108	N	1.901337	0.141767	-0.272566
N109	N	1.401348	-0.358216	-0.835023
N110	N	1.901348	0.141784	-0.335023
C111	C	1.394002	-0.303111	-0.866962
C112	C	1.894002	0.196889	-0.366962
C113	C	1.455612	-0.343427	-0.636016
C114	C	1.955612	0.156573	-0.136016
C115	C	1.455588	-0.343448	-0.570272
C116	C	1.955588	0.156552	-0.070272
C117	C	1.332278	-0.262928	-0.570285
C118	C	1.832278	0.237072	-0.070285
C119	C	1.332297	-0.262913	-0.636027
C120	C	1.832297	0.237087	-0.136027
C121	C	1.393969	-0.303161	-0.668889
C122	C	1.893969	0.196839	-0.168889
C123	C	1.393879	-0.303233	-0.139698
C124	C	1.893879	0.196767	0.360302
C125	C	1.394047	-0.303070	-0.069730
C126	C	1.894047	0.196930	0.430270
H127	H	1.505759	-0.542854	-0.230244
H128	H	2.005759	-0.042854	0.269756
Cl129	Cl	1.254763	-1.077559	-0.394112
Cl130	Cl	1.754763	-0.577559	0.105888
Cl131	Cl	1.533215	-0.393936	-1.078167
Cl132	Cl	2.033215	0.106064	-0.578167
Cl133	Cl	1.254743	-0.212342	-0.528971
Cl134	Cl	1.754743	0.287658	-0.028971
Cl135	Cl	1.254856	-0.212233	-0.929808
Cl136	Cl	1.754856	0.287767	-0.429808
Cl137	Cl	1.533423	-1.077513	-0.212536
Cl138	Cl	2.033423	-0.577513	0.287464
Cl139	Cl	1.533183	-0.393968	-0.929783
Cl140	Cl	2.033183	0.106032	-0.429783
H141	H	1.282020	-0.943730	-0.376269
H142	H	1.782020	-0.443730	0.123731
H143	H	1.282173	-0.230035	-1.063633
H144	H	1.782173	0.269965	-0.563633
H145	H	1.505827	-0.376201	-0.662773
H146	H	2.005827	0.123799	-0.162773
Cl147	Cl	1.533091	-0.394069	-0.528946
Cl148	Cl	2.033091	0.105931	-0.028946
H149	H	1.505836	-0.662120	-0.230269
H150	H	2.005836	-0.162120	0.269731
Cl151	Cl	1.254533	-0.676722	-0.394038
Cl152	Cl	1.754533	-0.176722	0.105962
Cl153	Cl	1.254779	-0.212305	-0.677354
Cl154	Cl	1.754779	0.287695	-0.177354
H155	H	1.281795	-0.542890	-0.376206
H156	H	1.781795	-0.042890	0.123794
H157	H	1.505996	-0.943694	-0.230315
H158	H	2.005996	-0.443694	0.269685
