data_functionalizedCrystal
_audit_creation_method	'MofGen! by Chris Wilmer'
_symmetry_space_group_name_H-M	'P1'
_symmetry_Int_Tables_number	1
_symmetry_cell_setting	triclinic
loop_
_symmetry_equiv_pos_as_xyz
  x,y,z
_cell_length_a	29.839125
_cell_length_b	10.686220
_cell_length_c	10.685594
_cell_angle_alpha	98.404471
_cell_angle_beta	85.638309
_cell_angle_gamma	85.642483
loop_
_atom_site_label
_atom_site_type_symbol
_atom_site_fract_x
_atom_site_fract_y
_atom_site_fract_z
Zn1	Zn	-0.211878	-1.901713	0.356424
Zn2	Zn	-0.142996	-1.885357	0.568659
Zn3	Zn	-0.142995	-1.689482	0.372723
Zn4	Zn	-0.224330	-1.673171	0.584939
O5	O	-0.180550	-1.787431	0.470686
O6	O	-0.197529	-2.077163	0.370943
O7	O	-0.080129	-1.859355	0.542675
O8	O	-0.146920	-1.731306	0.192927
O9	O	-0.146922	-2.065146	0.526871
O10	O	-0.197528	-1.887231	0.180952
O11	O	-0.080129	-1.715446	0.398722
O12	O	-0.158995	-1.509698	0.414508
O13	O	-0.285545	-1.703506	0.554619
O14	O	-0.218752	-1.497715	0.570423
O15	O	-0.276396	-1.871415	0.386730
O16	O	-0.158997	-1.843539	0.748453
O17	O	-0.218753	-1.687647	0.760414
C18	C	-0.190225	-1.457652	0.496002
C19	C	-0.194376	-1.316568	0.506862
C20	C	-0.297727	-1.787466	0.470672
C21	C	-0.347661	-1.787481	0.470666
C22	C	-0.190235	-1.762082	0.800489
C23	C	-0.194391	-1.751354	0.941571
C24	C	-0.652534	-1.875013	0.383027
C25	C	-0.840203	-1.875084	0.382914
O26	O	-0.860418	-1.949403	0.308528
N27	N	-0.868431	-1.787675	0.470313
C28	C	-0.849740	-1.700237	0.557742
O29	O	-0.878056	-1.625884	0.632069
C30	C	-0.662072	-1.700161	0.557848
C31	C	-0.633846	-1.787584	0.470451
C32	C	-0.624309	-1.962427	0.295637
C33	C	-0.577394	-1.962413	0.295671
C34	C	-0.558706	-1.874984	0.383095
C35	C	-0.586932	-1.787570	0.470485
C36	C	-0.643382	-1.612718	0.645269
C37	C	-0.596462	-1.612704	0.645286
C38	C	-0.568236	-1.700127	0.557889
C39	C	-0.521330	-1.700126	0.557942
N40	N	-0.493101	-1.787535	0.470543
C41	C	-0.511790	-1.874964	0.383119
C42	C	-0.948267	-1.700285	0.557681
C43	C	-0.995184	-1.700305	0.557656
C44	C	-0.985644	-1.875151	0.382827
C45	C	-0.938726	-1.875135	0.382859
C46	C	-0.920039	-1.787693	0.470282
C47	C	-0.413267	-1.874928	0.383197
C48	C	-0.366349	-1.874910	0.383242
C49	C	-0.375893	-1.700060	0.558067
C50	C	-0.422807	-1.700083	0.558027
C51	C	-0.441492	-1.787522	0.470581
O52	O	-0.501083	-1.625837	0.632281
O53	O	-0.483466	-1.949288	0.308785
C54	C	-0.699449	-1.875027	0.382994
C55	C	-0.727675	-1.787612	0.470384
C56	C	-0.708986	-1.700183	0.557808
C57	C	-0.774591	-1.787632	0.470359
C58	C	-0.793279	-1.875061	0.382935
C59	C	-0.765051	-1.962470	0.295536
C60	C	-0.718137	-1.962456	0.295570
C61	C	-0.737215	-1.612774	0.645207
C62	C	-0.784128	-1.612797	0.645167
C63	C	-0.802817	-1.700226	0.557743
C64	C	-0.063824	-1.787476	0.470603
C65	C	-0.013872	-1.787734	0.470233
C66	C	-0.170837	-2.118497	0.445273
C67	C	-0.166698	-2.259578	0.434443
C68	C	-0.170835	-1.812913	0.139593
C69	C	-0.166695	-1.823771	-0.001499
H70	H	-0.343368	-1.946105	0.312072
H71	H	-0.221247	-1.257420	0.577183
H72	H	-0.445790	-1.628907	0.629203
H73	H	-0.139807	-1.893985	0.939309
Br74	Br	-0.571104	-1.494022	0.763934
H75	H	-0.221284	-1.681147	1.000770
H76	H	-0.722004	-1.541579	0.716401
H77	H	-0.428474	-1.946126	0.311987
Br78	Br	-0.350521	-1.581411	0.676706
H79	H	-0.554416	-2.033600	0.224501
H80	H	-0.639519	-2.033623	0.224439
Br81	Br	-0.681678	-1.494072	0.763893
Br82	Br	-0.900424	-1.993784	0.264246
Br83	Br	-0.121907	-1.358146	0.317256
Br84	Br	-1.011015	-1.993804	0.264181
Br85	Br	-0.679837	-2.081108	0.176954
H86	H	-0.933057	-1.629079	0.628880
Br87	Br	-0.790423	-2.081129	0.176896
H88	H	-0.807107	-1.541608	0.716348
Br89	Br	-1.033486	-1.581677	0.676293
