data_functionalizedCrystal
_audit_creation_method	'MofGen! by Chris Wilmer'
_symmetry_space_group_name_H-M	'P1'
_symmetry_Int_Tables_number	1
_symmetry_cell_setting	triclinic
loop_
_symmetry_equiv_pos_as_xyz
  x,y,z
_cell_length_a	15.298114
_cell_length_b	19.121117
_cell_length_c	15.296720
_cell_angle_alpha	78.389849
_cell_angle_beta	110.778933
_cell_angle_gamma	97.625729
loop_
_atom_site_label
_atom_site_type_symbol
_atom_site_fract_x
_atom_site_fract_y
_atom_site_fract_z
Zn1	Zn	1.297631	0.496306	-0.312158
Zn2	Zn	1.317791	0.596421	-0.163277
Zn3	Zn	1.171345	0.461711	-0.181331
Zn4	Zn	1.135432	0.596409	-0.345698
O5	O	1.230550	0.537712	-0.250616
O6	O	1.429474	0.524070	-0.270816
O7	O	1.321832	0.564078	-0.034576
O8	O	1.194690	0.368030	-0.192205
O9	O	1.444285	0.597624	-0.161433
O10	O	1.287472	0.393447	-0.288323
O11	O	1.214239	0.465107	-0.047841
O12	O	1.037413	0.465096	-0.224727
O13	O	1.133481	0.597603	-0.472344
O14	O	1.011027	0.564058	-0.345487
O15	O	1.252648	0.524058	-0.447702
O16	O	1.287008	0.694690	-0.193956
O17	O	1.153030	0.694681	-0.327980
C18	C	0.990728	0.510822	-0.290706
C19	C	0.888126	0.499338	-0.307881
C20	C	1.218331	0.720171	-0.262664
C21	C	1.213182	0.798240	-0.267836
C22	C	0.629837	0.619822	-0.128100
C23	C	0.726238	0.630610	-0.111957
C24	C	0.766715	0.597793	-0.160936
C25	C	0.710781	0.554186	-0.226062
C26	C	0.614372	0.543392	-0.242201
C27	C	0.751250	0.521363	-0.275038
C28	C	0.695316	0.477755	-0.340163
C29	C	0.598916	0.466964	-0.356300
C30	C	0.558439	0.499781	-0.307320
C31	C	0.847659	0.532157	-0.258898
C32	C	0.832193	0.455727	-0.373000
C33	C	0.735792	0.444939	-0.389143
C34	C	1.180579	1.239798	-0.300654
C35	C	1.185418	1.166443	-0.295784
C36	C	1.257630	1.129758	-0.223605
C37	C	1.325012	1.166435	-0.156298
C38	C	1.320175	1.239790	-0.161172
C39	C	1.275728	0.908272	-0.205403
C40	C	1.280557	0.834911	-0.200532
C41	C	1.140964	0.834925	-0.340019
C42	C	1.136131	0.908281	-0.344884
C43	C	1.203516	0.944952	-0.277580
C44	C	1.262577	1.054776	-0.218624
C45	C	1.198572	1.019933	-0.282565
C46	C	1.471308	0.564707	-0.210369
C47	C	1.573905	0.576211	-0.193219
C48	C	1.186810	0.564688	-0.494965
C49	C	1.168170	0.576184	-0.599092
C50	C	1.242808	1.354540	-0.238527
C51	C	1.247954	1.276469	-0.233349
C52	C	1.363811	0.455430	-0.841289
C53	C	1.381330	0.444631	-0.743456
C54	C	1.328041	0.477518	-0.707360
C55	C	1.257232	0.521207	-0.769107
C56	C	1.239716	0.532011	-0.866950
C57	C	1.203946	0.554099	-0.733020
C58	C	1.133137	0.597788	-0.794768
C59	C	1.115624	0.608590	-0.892600
C60	C	1.168913	0.575703	-0.928696
C61	C	1.221462	0.543295	-0.635178
C62	C	1.097367	0.619876	-0.660838
C63	C	1.079848	0.630675	-0.758672
C64	C	1.274176	0.510795	-0.007205
C65	C	1.293008	0.499122	0.096964
H66	H	0.893191	0.567663	-0.205873
H67	H	1.154653	0.584493	-1.008359
O68	O	1.421260	0.419942	-0.880220
H69	H	1.397172	0.434785	-0.958627
H70	H	1.321371	1.024901	-0.159854
H71	H	1.279115	0.507723	-0.584912
O72	O	1.402900	1.126868	-0.078451
H73	H	1.448944	1.164695	-0.032475
O74	O	0.454463	0.488139	-0.324719
H75	H	0.422139	0.540363	-0.351281
H76	H	0.553378	0.431450	-0.409322
O77	O	1.346923	0.465867	-0.601841
H78	H	1.405106	0.429957	-0.564969
O79	O	1.039252	0.655709	-0.959204
H80	H	1.005132	0.676756	-0.917673
H81	H	0.596873	0.646531	-0.088221
O82	O	1.039864	0.655344	-0.621935
H83	H	1.086743	0.690782	-0.572801
H84	H	1.330594	0.938120	-0.150596
O85	O	1.058249	0.947846	-0.422741
H86	H	1.016619	0.971418	-0.390843
O87	O	0.675460	0.397895	-0.459369
H88	H	0.620917	0.429720	-0.516386
O89	O	0.875844	0.420325	-0.425826
H90	H	0.820759	0.388178	-0.473809
H91	H	1.121777	1.269662	-0.359430
H92	H	1.022194	0.666246	-0.808960
H93	H	1.130557	1.136586	-0.350589
O94	O	0.870689	0.609426	-0.143535
H95	H	0.889201	0.667341	-0.161597
O96	O	0.786564	0.677635	-0.041713
H97	H	0.761534	0.732464	-0.064390
O98	O	1.068288	0.795378	-0.412615
H99	H	1.103230	0.771807	-0.451195
O100	O	1.358451	0.795341	-0.122685
H101	H	1.404502	0.833165	-0.076708
H102	H	1.375041	1.269647	-0.106368
O103	O	1.120682	1.059498	-0.360403
H104	H	1.151217	1.102769	-0.403411
H105	H	1.438985	0.409062	-0.693188
