data_functionalizedCrystal
_audit_creation_method	'MofGen! by Chris Wilmer'
_symmetry_space_group_name_H-M	'P1'
_symmetry_Int_Tables_number	1
_symmetry_cell_setting	triclinic
loop_
_symmetry_equiv_pos_as_xyz
  x,y,z
_cell_length_a	16.625545
_cell_length_b	16.625548
_cell_length_c	13.897441
_cell_angle_alpha	89.976353
_cell_angle_beta	90.031157
_cell_angle_gamma	89.974583
loop_
_atom_site_label
_atom_site_type_symbol
_atom_site_fract_x
_atom_site_fract_y
_atom_site_fract_z
Zn1	Zn	-0.320979	-1.232674	0.545452
Zn2	Zn	-0.455829	-1.232566	0.384152
Zn3	Zn	-0.321014	-1.097832	0.384163
Zn4	Zn	-0.455773	-1.097798	0.545397
O5	O	-0.388399	-1.165218	0.464791
O6	O	-0.338876	-1.345492	0.524075
O7	O	-0.437984	-1.214663	0.249172
O8	O	-0.208177	-1.115778	0.405586
O9	O	-0.437950	-1.345413	0.405568
O10	O	-0.208151	-1.214846	0.524085
O11	O	-0.338936	-1.115674	0.249179
O12	O	-0.338881	-0.984995	0.405532
O13	O	-0.437854	-1.115721	0.680386
O14	O	-0.437888	-0.984971	0.523990
O15	O	-0.338821	-1.214813	0.680427
O16	O	-0.568654	-1.214630	0.405514
O17	O	-0.568613	-1.115617	0.523980
C18	C	-0.388383	-0.955727	0.464756
C19	C	-0.388395	-0.866106	0.464764
C20	C	-0.388394	-0.537930	0.464793
C21	C	-0.388392	-0.629239	0.464782
C22	C	-0.388395	-0.702015	0.464778
C23	C	-0.388392	-0.793329	0.464768
C24	C	-0.597890	-1.165130	0.464761
C25	C	-0.687511	-1.165166	0.464780
C26	C	-0.760293	-1.165198	0.464799
C27	C	-0.851602	-1.165245	0.464820
C28	C	-0.924378	-1.165286	0.464833
C29	C	-1.015692	-1.165333	0.464852
C30	C	-0.178090	-1.165328	0.464843
C31	C	-0.088469	-1.165374	0.464865
C32	C	-0.388327	-1.165275	0.716384
C33	C	-0.388297	-1.165299	0.823598
C34	C	-0.388410	-0.375527	0.464817
C35	C	-0.388401	-0.465148	0.464804
C36	C	-0.388412	-1.165207	0.214177
C37	C	-0.388215	-1.165339	0.106963
C38	C	-0.388243	-1.165321	1.019893
C39	C	-0.388275	-1.165307	0.910661
