data_functionalizedCrystal
_audit_creation_method	'MofGen! by Chris Wilmer'
_symmetry_space_group_name_H-M	'P1'
_symmetry_Int_Tables_number	1
_symmetry_cell_setting	triclinic
loop_
_symmetry_equiv_pos_as_xyz
  x,y,z
_cell_length_a	17.038278
_cell_length_b	17.038272
_cell_length_c	16.098538
_cell_angle_alpha	92.920305
_cell_angle_beta	87.064023
_cell_angle_gamma	91.111028
loop_
_atom_site_label
_atom_site_type_symbol
_atom_site_fract_x
_atom_site_fract_y
_atom_site_fract_z
O1	O	1.052037	0.167251	-0.069264
O2	O	0.824226	0.164545	-0.069265
O3	O	0.936777	0.051993	-0.069258
O4	O	0.939486	0.279803	-0.069271
O5	O	0.930201	0.058540	0.069255
O6	O	0.817649	0.171092	0.069248
O7	O	1.045461	0.173798	0.069248
Zn8	Zn	0.930511	0.173485	0.091240
Zn9	Zn	0.939176	0.164859	-0.091256
O10	O	0.932909	0.286351	0.069241
C11	C	0.791645	0.165356	-0.000008
C12	C	0.704361	0.158009	-0.000008
C13	C	0.931026	0.025973	-0.000002
C14	C	0.923678	-0.061310	-0.000002
C15	C	0.210936	0.112871	-0.000009
C16	C	0.292947	0.119781	-0.000004
C17	C	0.329347	0.194154	-0.000012
C18	C	0.283731	0.261622	-0.000016
C19	C	0.201721	0.254712	-0.000015
C20	C	0.576735	0.218567	-0.000011
C21	C	0.658751	0.225472	-0.000015
C22	C	0.667962	0.083630	-0.000001
C23	C	0.585950	0.076726	-0.000005
C24	C	0.540340	0.144194	-0.000005
C25	C	0.413176	0.201219	-0.000010
C26	C	0.456513	0.137129	-0.000001
C27	C	0.991142	-0.106920	-0.000001
C28	C	0.984233	-0.188932	-0.000009
C29	C	0.909860	-0.225333	-0.000012
C30	C	0.842392	-0.179717	-0.000015
C31	C	0.849301	-0.097706	-0.000013
C32	C	0.885450	-0.472721	-0.000023
C33	C	0.878545	-0.554737	-0.000023
C34	C	1.020388	-0.563947	-0.000018
C35	C	1.027291	-0.481934	-0.000011
C36	C	0.959822	-0.436326	-0.000019
C37	C	0.902796	-0.309162	-0.000017
C38	C	0.966887	-0.352498	-0.000019
C39	C	1.078042	0.172987	-0.000010
C40	C	1.165326	0.180334	-0.000015
C41	C	0.938661	0.312370	-0.000017
C42	C	0.946009	0.399653	-0.000022
N43	N	0.924603	0.179372	0.215789
N44	N	0.945089	0.158966	-0.215805
C45	C	0.972394	0.131619	0.259377
C46	C	0.968269	0.135745	0.346565
C47	C	0.916356	0.187629	0.390165
C48	C	0.868560	0.235383	0.346571
C49	C	0.872681	0.231252	0.259383
C50	C	0.901414	0.202589	0.653414
C51	C	0.897298	0.206718	0.740607
C52	C	0.997007	0.107079	0.740596
C53	C	1.001127	0.102956	0.653407
C54	C	0.953328	0.150708	0.609821
C55	C	0.912141	0.191849	0.479286
C56	C	0.957540	0.146483	0.520701
H57	H	0.330080	0.064845	0.000005
O58	O	0.762171	-0.218971	-0.000010
H59	H	0.768698	-0.283660	0.000001
H60	H	0.164586	0.309648	-0.000018
O61	O	0.417259	0.056913	0.000013
H62	H	0.382798	0.047702	-0.056444
H63	H	0.442823	0.261774	-0.000019
O64	O	1.028379	0.075644	0.212365
H65	H	0.994651	0.033381	0.172663
O66	O	0.322992	0.341839	-0.000019
H67	H	0.277495	0.387590	-0.000014
H68	H	0.556319	0.016164	0.000002
O69	O	1.056996	-0.238128	0.000006
H70	H	1.109872	-0.199038	0.000023
O71	O	1.019830	0.084257	0.393581
H72	H	1.056633	0.047498	0.348617
O73	O	1.013513	0.090511	0.473674
H74	H	1.055757	0.124242	0.433930
H75	H	1.051704	-0.077289	0.000006
H76	H	0.705105	0.028701	-0.000000
H77	H	0.869873	0.234095	0.514791
O78	O	1.048554	0.055570	0.787604
H79	H	1.036964	0.067151	0.855556
H80	H	0.826287	0.277625	0.382074
H81	H	0.855022	0.248971	0.776101
H82	H	1.075316	-0.601090	-0.000013
H83	H	0.862496	0.241472	0.617933
H84	H	1.043399	0.060709	0.617910
O85	O	0.821137	0.282750	0.212356
H86	H	0.834420	0.345438	0.229061
O87	O	0.171676	0.032654	0.000007
H88	H	0.217172	-0.013095	0.000022
H89	H	0.794365	-0.060572	-0.000014
H90	H	0.688385	0.286039	-0.000009
O91	O	1.107512	-0.442683	-0.000026
H92	H	1.137521	-0.457974	0.056422
O93	O	0.812684	-0.423532	-0.000010
H94	H	0.759808	-0.462623	0.000002
H95	H	0.817978	-0.584371	-0.000012
H96	H	0.539610	0.273504	-0.000015
O97	O	1.047104	-0.313246	-0.000020
H98	H	1.050961	-0.273441	0.056439
O99	O	0.822581	-0.348427	-0.000002
H100	H	0.818722	-0.388242	-0.056454
