data_functionalizedCrystal
_audit_creation_method	'MofGen! by Chris Wilmer'
_symmetry_space_group_name_H-M	'P1'
_symmetry_Int_Tables_number	1
_symmetry_cell_setting	triclinic
loop_
_symmetry_equiv_pos_as_xyz
  x,y,z
_cell_length_a	12.759401
_cell_length_b	16.625545
_cell_length_c	12.759393
_cell_angle_alpha	89.966096
_cell_angle_beta	89.981504
_cell_angle_gamma	90.025719
loop_
_atom_site_label
_atom_site_type_symbol
_atom_site_fract_x
_atom_site_fract_y
_atom_site_fract_z
Zn1	Zn	1.606176	-0.320951	-0.593964
Zn2	Zn	2.106176	0.179049	-0.093964
Zn3	Zn	1.606037	-0.455807	-0.418277
Zn4	Zn	2.106037	0.044193	0.081723
Zn5	Zn	1.430478	-0.320993	-0.418304
Zn6	Zn	1.930478	0.179007	0.081696
Zn7	Zn	1.430433	-0.455745	-0.593919
Zn8	Zn	1.930433	0.044255	-0.093919
O9	O	1.518281	-0.388374	-0.506116
O10	O	2.018281	0.111626	-0.006116
O11	O	1.753179	-0.338848	-0.570667
O12	O	2.253179	0.161152	-0.070667
O13	O	1.582709	-0.437968	-0.271260
O14	O	2.082709	0.062032	0.228740
O15	O	1.453862	-0.208155	-0.441636
O16	O	1.953862	0.291845	0.058364
O17	O	1.753077	-0.437927	-0.441590
O18	O	2.253077	0.062073	0.058410
O19	O	1.582946	-0.208124	-0.570693
O20	O	2.082946	0.291876	-0.070693
O21	O	1.453727	-0.338920	-0.271279
O22	O	1.953727	0.161080	0.228721
O23	O	1.283451	-0.338860	-0.441591
O24	O	1.783451	0.161140	0.058409
O25	O	1.453786	-0.437821	-0.740946
O26	O	1.953786	0.062179	-0.240946
O27	O	1.283418	-0.437862	-0.570615
O28	O	1.783418	0.062138	-0.070615
O29	O	1.582903	-0.338788	-0.740979
O30	O	2.082903	0.161212	-0.240979
O31	O	1.582666	-0.568632	-0.441546
O32	O	2.082666	-0.068632	0.058454
O33	O	1.453651	-0.568586	-0.570589
O34	O	1.953651	-0.068586	-0.070589
C35	C	1.245314	-0.388359	-0.506102
C36	C	1.745314	0.111641	-0.006102
C37	C	1.128537	-0.388372	-0.506120
C38	C	1.628537	0.111628	-0.006120
C39	C	1.073686	-0.440005	-0.573192
C40	C	1.573686	0.059995	-0.073192
C41	C	0.963962	-0.440015	-0.573203
C42	C	1.463962	0.059985	-0.073203
C43	C	0.963950	-0.336758	-0.439063
C44	C	1.463950	0.163242	0.060937
C45	C	1.073672	-0.336744	-0.439058
C46	C	1.573672	0.163256	0.060942
C47	C	1.128550	-0.491634	-0.640255
C48	C	1.628550	0.008366	-0.140255
C49	C	1.073699	-0.543271	-0.707331
C50	C	1.573699	-0.043271	-0.207331
C51	C	0.963975	-0.543282	-0.707342
C52	C	1.463975	-0.043282	-0.207342
C53	C	0.909102	-0.491654	-0.640278
C54	C	1.409102	0.008346	-0.140278
C55	C	1.518167	-0.597865	-0.506083
C56	C	2.018167	-0.097865	-0.006083
C57	C	1.518214	-0.687486	-0.506104
C58	C	2.018214	-0.187486	-0.006104
C59	C	1.518255	-0.760268	-0.506125
C60	C	2.018255	-0.260268	-0.006125
C61	C	1.518316	-0.851577	-0.506148
C62	C	2.018316	-0.351577	-0.006148
C63	C	1.518371	-0.924353	-0.506161
C64	C	2.018371	-0.424353	-0.006161
C65	C	1.518431	-1.015668	-0.506183
C66	C	2.018431	-0.515668	-0.006183
C67	C	1.792314	-0.388390	-0.506131
C68	C	2.292314	0.111610	-0.006131
C69	C	1.909091	-0.388396	-0.506137
C70	C	2.409091	0.111604	-0.006137
C71	C	1.518355	-0.388293	-0.780149
C72	C	2.018355	0.111707	-0.280149
C73	C	1.518386	-0.388258	-0.896926
C74	C	2.018386	0.111742	-0.396926
C75	C	1.518424	-0.178065	-0.506172
C76	C	2.018424	0.321935	-0.006172
C77	C	1.518485	-0.088444	-0.506196
C78	C	2.018485	0.411556	-0.006196
C79	C	1.585627	-0.336687	-0.951807
C80	C	2.085627	0.163313	-0.451807
C81	C	1.585652	-0.336657	-1.061531
C82	C	2.085652	0.163343	-0.561531
C83	C	1.451192	-0.439778	-1.061484
C84	C	1.951192	0.060222	-0.561484
C85	C	1.451163	-0.439803	-0.951761
C86	C	1.951163	0.060197	-0.451761
C87	C	1.652850	-0.285142	-0.896972
C88	C	2.152850	0.214858	-0.396972
C89	C	1.720097	-0.233567	-0.951853
C90	C	2.220097	0.266433	-0.451853
C91	C	1.720122	-0.233538	-1.061577
C92	C	2.220122	0.266462	-0.561577
C93	C	1.652900	-0.285084	-1.116420
C94	C	2.152900	0.214916	-0.616420
C95	C	1.518268	-0.388397	-0.233149
C96	C	2.018268	0.111603	0.266851
C97	C	1.518441	-0.388204	-0.116372
C98	C	2.018441	0.111796	0.383628
H99	H	0.919265	-0.294726	-0.384461
H100	H	1.419265	0.205274	0.115539
H101	H	1.396463	-0.481744	-1.106145
H102	H	1.896463	0.018256	-0.606145
F103	F	1.652832	-0.285171	-0.780194
F104	F	2.152832	0.214829	-0.280194
H105	H	0.819757	-0.491660	-0.640301
H106	H	1.319757	0.008340	-0.140301
H107	H	1.396394	-0.481784	-0.907076
H108	H	1.896394	0.018216	-0.407076
F109	F	1.652917	-0.285040	-1.233200
F110	F	2.152917	0.214960	-0.733200
H111	H	1.217893	-0.491633	-0.640251
H112	H	1.717893	0.008367	-0.140251
H113	H	1.118383	-0.585299	-0.761939
H114	H	1.618383	-0.085299	-0.261939
F115	F	1.791621	-0.178701	-0.893485
F116	F	2.291621	0.321299	-0.393485
H117	H	1.774870	-0.191537	-1.106259
H118	H	2.274870	0.308463	-0.606259
F119	F	0.905600	-0.598232	-0.778737
F120	F	1.405600	-0.098232	-0.278737
F121	F	1.132053	-0.281790	-0.367672
F122	F	1.632053	0.218210	0.132328
