data_functionalizedCrystal
_audit_creation_method	'MofGen! by Chris Wilmer'
_symmetry_space_group_name_H-M	'P1'
_symmetry_Int_Tables_number	1
_symmetry_cell_setting	triclinic
loop_
_symmetry_equiv_pos_as_xyz
  x,y,z
_cell_length_a	21.395362
_cell_length_b	16.625545
_cell_length_c	21.395355
_cell_angle_alpha	90.016186
_cell_angle_beta	90.043940
_cell_angle_gamma	90.041436
loop_
_atom_site_label
_atom_site_type_symbol
_atom_site_fract_x
_atom_site_fract_y
_atom_site_fract_z
Zn1	Zn	0.957882	-0.320753	0.354596
Zn2	Zn	0.957794	-0.455568	0.249823
Zn3	Zn	0.853097	-0.320791	0.249797
Zn4	Zn	0.853075	-0.455585	0.354527
O5	O	0.905462	-0.388174	0.302186
O6	O	1.045548	-0.338614	0.340737
O7	O	0.943878	-0.437699	0.162141
O8	O	0.867043	-0.207953	0.263717
O9	O	1.045483	-0.437662	0.263760
O10	O	0.944028	-0.207926	0.340712
O11	O	0.866957	-0.338678	0.162122
O12	O	0.765416	-0.338694	0.263650
O13	O	0.867006	-0.437691	0.442214
O14	O	0.765400	-0.437727	0.340595
O15	O	0.944007	-0.338630	0.442265
O16	O	0.943857	-0.568403	0.263694
O17	O	0.866921	-0.568415	0.340620
C18	C	0.742674	-0.388217	0.302113
C19	C	0.673033	-0.388255	0.302097
C20	C	0.640328	-0.439889	0.342102
C21	C	0.574893	-0.439870	0.342130
C22	C	0.542165	-0.388224	0.302141
C23	C	0.574878	-0.336579	0.262133
C24	C	0.640312	-0.336594	0.262111
C25	C	0.438440	-0.381728	0.245736
C26	C	0.373007	-0.381718	0.245757
C27	C	0.340344	-0.388171	0.302211
C28	C	0.373123	-0.394651	0.358644
C29	C	0.438557	-0.394666	0.358622
C30	C	0.471212	-0.388201	0.302161
C31	C	0.236687	-0.439787	0.342249
C32	C	0.171250	-0.439762	0.342278
C33	C	0.171236	-0.336475	0.262276
C34	C	0.236671	-0.336496	0.262253
C35	C	0.269393	-0.388157	0.302239
C36	C	0.905394	-0.597665	0.302166
C37	C	0.905422	-0.687286	0.302178
C38	C	0.905446	-0.760069	0.302191
C39	C	0.905483	-0.851377	0.302205
C40	C	0.905515	-0.924154	0.302213
C41	C	0.905551	-1.015468	0.302226
C42	C	1.068885	-0.388132	0.302259
C43	C	1.138527	-0.388114	0.302290
C44	C	0.905514	-0.388158	0.465609
C45	C	0.905536	-0.388151	0.535250
C46	C	0.905547	-0.177865	0.302219
C47	C	0.905584	-0.088244	0.302233
C48	C	0.905446	-0.388132	0.139398
C49	C	0.905545	-0.387912	0.069757
C50	C	0.945629	-0.336568	0.567991
C51	C	0.945628	-0.336534	0.633426
C52	C	0.905541	-0.388096	0.666119
C53	C	0.865441	-0.439683	0.633370
C54	C	0.865438	-0.439710	0.567936
C55	C	0.900570	-0.460699	0.769785
C56	C	0.900577	-0.460672	0.835218
C57	C	0.905545	-0.388011	0.867940
C58	C	0.910519	-0.315373	0.835220
C59	C	0.910517	-0.315401	0.769786
C60	C	0.905539	-0.388072	0.737071
C61	C	0.945639	-0.336386	0.971632
C62	C	0.945634	-0.336350	1.037069
C63	C	0.865450	-0.439506	1.037012
C64	C	0.865451	-0.439535	0.971577
C65	C	0.905549	-0.387976	0.938891
H66	H	0.548226	-0.294527	0.229576
H67	H	0.346530	-0.399904	0.404614
H68	H	0.666966	-0.481954	0.374662
H69	H	0.978279	-0.294584	0.541382
H70	H	0.832804	-0.481481	1.063630
H71	H	0.263300	-0.294454	0.229673
H72	H	0.978281	-0.294340	1.063725
C73	C	0.538907	-0.496676	0.386134
C74	C	0.574899	-0.553500	0.430114
C75	C	0.538915	-0.610308	0.474116
C76	C	0.466940	-0.610293	0.474137
C77	C	0.430945	-0.553467	0.430155
C78	C	0.466928	-0.496659	0.386153
H79	H	0.628182	-0.553514	0.430100
H80	H	0.565562	-0.652375	0.506675
H81	H	0.440303	-0.652346	0.506710
H82	H	0.377661	-0.553453	0.430169
H83	H	0.440281	-0.454592	0.353594
C84	C	0.135244	-0.279661	0.218289
C85	C	0.063269	-0.279639	0.218312
C86	C	0.027273	-0.222820	0.174325
C87	C	0.063252	-0.166024	0.130316
C88	C	0.135231	-0.166044	0.130291
C89	C	0.171227	-0.222863	0.174278
H90	H	0.036631	-0.321685	0.250891
H91	H	-0.026011	-0.222806	0.174343
H92	H	0.036605	-0.123963	0.097754
H93	H	0.161868	-0.123998	0.097711
H94	H	0.224511	-0.222877	0.174259
C95	C	0.895106	-0.540633	0.733795
C96	C	0.889645	-0.620530	0.769780
C97	C	0.884181	-0.700461	0.733791
C98	C	0.884177	-0.700495	0.661816
C99	C	0.889639	-0.620595	0.625826
C100	C	0.895103	-0.540664	0.661815
H101	H	0.889648	-0.620508	0.823064
H102	H	0.880138	-0.759608	0.760433
H103	H	0.880132	-0.759664	0.635174
H104	H	0.889636	-0.620617	0.572542
H105	H	0.899146	-0.481517	0.635173
C106	C	0.676290	-0.279799	0.218097
C107	C	0.667368	-0.188143	0.223335
C108	C	0.703347	-0.131349	0.179319
C109	C	0.748249	-0.166210	0.130065
C110	C	0.757173	-0.257871	0.124825
C111	C	0.721194	-0.314665	0.168841
H112	H	0.634127	-0.162333	0.259798
H113	H	0.696741	-0.063496	0.183199
H114	H	0.774883	-0.124168	0.097481
H115	H	0.790414	-0.283681	0.088362
H116	H	0.727801	-0.382518	0.164961
H117	H	0.144623	-0.481807	0.374859
C118	C	0.915981	-0.235503	0.733796
C119	C	0.863573	-0.209504	0.688772
C120	C	0.869035	-0.129605	0.652784
C121	C	0.926906	-0.075705	0.661819
C122	C	0.979318	-0.101703	0.706845
C123	C	0.973856	-0.181602	0.742834
H124	H	0.820730	-0.249405	0.682082
H125	H	0.830235	-0.110360	0.619453
H126	H	0.930949	-0.016558	0.635178
H127	H	1.022162	-0.061801	0.713535
H128	H	1.012656	-0.200847	0.776165
C129	C	0.474613	-0.401782	0.420695
C130	C	0.438695	-0.408879	0.482796
C131	C	0.474752	-0.415991	0.544870
C132	C	0.546727	-0.416005	0.544843
C133	C	0.582649	-0.408908	0.482739
C134	C	0.546592	-0.401797	0.420665
H135	H	0.385412	-0.408869	0.482819
H136	H	0.448160	-0.421245	0.590843
H137	H	0.573419	-0.421270	0.590794
H138	H	0.635933	-0.408919	0.482717
H139	H	0.573185	-0.396543	0.374692
C140	C	0.336954	-0.374589	0.183683
C141	C	0.264979	-0.374575	0.183703
C142	C	0.228927	-0.367445	0.121628
C143	C	0.264851	-0.360329	0.059531
C144	C	0.336830	-0.360342	0.059508
C145	C	0.372881	-0.367473	0.121584
H146	H	0.238382	-0.379844	0.229673
H147	H	0.175644	-0.367435	0.121645
H148	H	0.238164	-0.355050	0.013579
H149	H	0.363427	-0.355074	0.013538
H150	H	0.426165	-0.367483	0.121566
C151	C	0.916000	-0.235439	0.871205
C152	C	0.916010	-0.235403	0.943180
C153	C	0.921501	-0.155474	0.979167
C154	C	0.926984	-0.075581	0.943179
C155	C	0.926974	-0.075614	0.871200
C156	C	0.921483	-0.155543	0.835213
H157	H	0.911951	-0.294547	0.969823
H158	H	0.921508	-0.155449	1.032451
H159	H	0.931049	-0.016412	0.969819
H160	H	0.931033	-0.016470	0.844556
H161	H	0.921476	-0.155568	0.781929
C162	C	0.474368	-0.374626	0.183634
C163	C	0.465378	-0.300098	0.141872
C164	C	0.501306	-0.292993	0.079773
C165	C	0.546224	-0.360417	0.059437
C166	C	0.555216	-0.434951	0.101200
C167	C	0.519288	-0.442056	0.163298
H168	H	0.432125	-0.250181	0.156925
H169	H	0.494650	-0.237818	0.048858
H170	H	0.572821	-0.355158	0.013468
H171	H	0.588469	-0.484867	0.086146
H172	H	0.525944	-0.497231	0.194214
C173	C	0.821355	-0.496286	0.935558
C174	C	0.777259	-0.553006	0.971514
C175	C	0.733158	-0.609758	0.935496
C176	C	0.733154	-0.609791	0.863521
C177	C	0.777251	-0.553069	0.827560
C178	C	0.821352	-0.496317	0.863579
H179	H	0.777260	-0.552984	1.024798
H180	H	0.700514	-0.651747	0.962116
H181	H	0.700508	-0.651802	0.836857
H182	H	0.777249	-0.553091	0.774276
H183	H	0.853996	-0.454328	0.836958
H184	H	0.978275	-0.294524	0.660088
H185	H	0.978285	-0.294399	0.945018
C186	C	0.272687	-0.496601	0.386238
C187	C	0.317594	-0.559867	0.358988
C188	C	0.353592	-0.616679	0.402977
C189	C	0.344684	-0.610225	0.474216
C190	C	0.299775	-0.546957	0.501470
C191	C	0.263777	-0.490144	0.457481
H192	H	0.324190	-0.564647	0.306249
H193	H	0.386837	-0.663515	0.382801
H194	H	0.371333	-0.652281	0.506780
H195	H	0.293179	-0.542177	0.554209
H196	H	0.230532	-0.443309	0.477657
H197	H	0.832787	-0.481714	0.541279
H198	H	0.896531	-0.519819	0.861853
H199	H	0.832800	-0.481663	0.659993
