data_functionalizedCrystal
_audit_creation_method	'MofGen! by Chris Wilmer'
_symmetry_space_group_name_H-M	'P1'
_symmetry_Int_Tables_number	1
_symmetry_cell_setting	triclinic
loop_
_symmetry_equiv_pos_as_xyz
  x,y,z
_cell_length_a	16.992694
_cell_length_b	16.974959
_cell_length_c	8.140239
_cell_angle_alpha	93.648320
_cell_angle_beta	90.003650
_cell_angle_gamma	87.028296
loop_
_atom_site_label
_atom_site_type_symbol
_atom_site_fract_x
_atom_site_fract_y
_atom_site_fract_z
O1	O	1.040220	0.167642	-0.114150
O2	O	0.811936	0.165803	-0.114443
O3	O	0.932434	0.052024	-0.129513
O4	O	0.919722	0.281421	-0.099080
O5	O	0.932429	0.052026	0.143714
O6	O	0.811931	0.165804	0.158785
O7	O	1.040215	0.167644	0.159077
Zn8	Zn	0.926072	0.166724	0.202312
Zn9	Zn	0.926079	0.166723	-0.157677
O10	O	0.919717	0.281423	0.174147
C11	C	0.782724	0.163438	0.021851
C12	C	0.695687	0.156378	0.020895
C13	C	0.931945	0.022537	0.003185
C14	C	0.930487	-0.065330	-0.008484
C15	C	0.922349	-0.559929	-0.090333
C16	C	0.923712	-0.477368	-0.079336
C17	C	0.924384	-0.436104	0.075100
C18	C	0.923702	-0.477404	0.218547
C19	C	0.922345	-0.559963	0.207548
C20	C	0.928447	-0.189190	0.123965
C21	C	0.929802	-0.106624	0.134953
C22	C	0.929814	-0.106595	-0.162931
C23	C	0.928452	-0.189155	-0.173916
C24	C	0.927774	-0.230449	-0.030469
N25	N	0.925775	-0.351713	0.086344
N26	N	0.926389	-0.314838	-0.041715
C27	C	0.645378	0.224492	0.029933
C28	C	0.563598	0.217855	0.029075
C29	C	0.532128	0.143102	0.019168
C30	C	0.582444	0.074983	0.010134
C31	C	0.664222	0.081621	0.011004
C32	C	0.288558	0.115588	0.015561
C33	C	0.206774	0.108954	0.014687
C34	C	0.187933	0.251827	0.033631
C35	C	0.269714	0.258459	0.034490
C36	C	0.320022	0.190340	0.025465
N37	N	0.448536	0.136315	0.018285
N38	N	0.403612	0.197127	0.026360
C39	C	1.069427	0.170009	0.022780
C40	C	1.156465	0.177069	0.023725
C41	C	0.920206	0.310910	0.041446
C42	C	0.921664	0.398777	0.053104
N43	N	0.926073	0.166725	0.447994
N44	N	0.926079	0.166724	0.596641
H45	H	0.924271	-0.443750	-0.196137
C46	C	0.922460	-0.551705	0.503095
C47	C	0.921587	-0.605357	0.365218
H48	H	0.921990	-0.579730	0.600435
H49	H	0.968685	-0.522638	0.500790
H50	H	0.877287	-0.516367	0.501579
H51	H	0.966764	-0.640691	0.366728
H52	H	0.875357	-0.634437	0.367525
H53	H	0.921794	-0.593520	-0.216091
C54	C	0.618532	0.365047	0.048588
C55	C	0.679964	0.306664	0.040828
H56	H	0.639884	0.415776	0.055329
H57	H	0.587024	0.359486	-0.047420
H58	H	0.587032	0.359478	0.143140
H59	H	0.711461	0.312228	-0.053732
H60	H	0.711485	0.312227	0.136846
C61	C	0.931895	0.019976	-0.278344
C62	C	0.930562	-0.061203	-0.320601
H63	H	0.932362	0.047996	-0.375691
H64	H	0.886419	0.036628	-0.214955
H65	H	0.977818	0.030359	-0.215751
H66	H	0.884637	-0.071587	-0.383185
H67	H	0.976043	-0.077860	-0.384018
H68	H	0.927910	-0.222748	-0.299674
C69	C	0.460693	0.293266	-0.101384
C70	C	0.508299	0.292729	0.038992
H71	H	0.426553	0.339491	-0.095254
H72	H	0.492983	0.292879	-0.196701
H73	H	0.430249	0.247795	-0.107380
H74	H	0.538748	0.338197	0.044981
H75	H	0.476005	0.293123	0.134334
C76	C	0.422278	0.062317	0.008479
C77	C	0.343851	0.040713	0.005617
H78	H	0.456414	0.016089	0.002345
H79	H	0.431800	0.092752	-0.082755
H80	H	0.431809	0.092753	0.107806
H81	H	0.334318	0.010282	-0.093717
H82	H	0.334325	0.010265	0.096859
C83	C	0.929624	-0.114940	0.428309
C84	C	0.930515	-0.061262	0.304721
H85	H	0.930058	-0.086933	0.533108
H86	H	0.883409	-0.144019	0.418194
H87	H	0.974808	-0.150263	0.417452
H88	H	0.885328	-0.025942	0.315570
H89	H	0.976735	-0.032170	0.314840
C90	C	0.859500	-0.277387	0.284989
C91	C	0.927659	-0.234554	0.281661
H92	H	0.859006	-0.305393	0.382352
H93	H	0.814349	-0.242035	0.283421
H94	H	0.858927	-0.313792	0.191458
H95	H	0.928229	-0.198145	0.375185
H96	H	0.972821	-0.269910	0.283244
H97	H	0.556815	0.014118	0.002091
C98	C	0.767120	0.006205	-0.139464
C99	C	0.719529	0.006751	0.001064
H100	H	0.801266	-0.040016	-0.145586
H101	H	0.734821	0.006578	-0.234674
H102	H	0.797559	0.051680	-0.133418
H103	H	0.689085	-0.038721	-0.004987
H104	H	0.751831	0.006371	0.096298
H105	H	0.295329	0.319330	0.042539
C106	C	0.054207	0.305092	0.040725
C107	C	0.132633	0.326700	0.043573
H108	H	0.020069	0.351319	0.046877
H109	H	0.044672	0.274661	-0.058587
H110	H	0.044691	0.274652	0.131973
H111	H	0.142151	0.357135	-0.047683
H112	H	0.142171	0.357144	0.142896
C113	C	0.197646	-0.014877	-0.142173
C114	C	0.172180	0.026781	0.003800
H115	H	0.176290	-0.065605	-0.148889
H116	H	0.180369	0.013384	-0.233689
H117	H	0.253550	-0.020673	-0.142921
H118	H	0.116275	0.032582	0.004543
H119	H	0.189452	-0.001487	0.095341
H120	H	0.924254	-0.443800	0.344291
