data_functionalizedCrystal
_audit_creation_method	'MofGen! by Chris Wilmer'
_symmetry_space_group_name_H-M	'P1'
_symmetry_Int_Tables_number	1
_symmetry_cell_setting	triclinic
loop_
_symmetry_equiv_pos_as_xyz
  x,y,z
_cell_length_a	8.597340
_cell_length_b	12.837942
_cell_length_c	7.088929
_cell_angle_alpha	83.116986
_cell_angle_beta	103.954719
_cell_angle_gamma	90.035652
loop_
_atom_site_label
_atom_site_type_symbol
_atom_site_fract_x
_atom_site_fract_y
_atom_site_fract_z
O1	O	2.123016	0.142346	0.190738
O2	O	1.660907	0.159266	0.114611
O3	O	1.881716	-0.000088	0.150999
O4	O	1.902207	0.301701	0.154351
O5	O	1.911217	-0.021432	0.473835
O6	O	1.690408	0.137922	0.437448
O7	O	2.152518	0.121002	0.513575
Cu8	Cu	1.924157	0.127513	0.504989
Cu9	Cu	1.889268	0.152755	0.123197
O10	O	1.931709	0.280356	0.477187
C11	C	1.616099	0.147966	0.266218
C12	C	1.438631	0.146083	0.236982
C13	C	1.889544	-0.049374	0.311275
C14	C	1.868896	-0.164432	0.307871
C15	C	2.117116	-0.405614	0.348722
C16	C	2.097722	-0.513722	0.345524
C17	C	1.810716	-0.488757	0.298263
C18	C	1.830109	-0.380649	0.301461
C19	C	1.983314	-0.339082	0.326694
C20	C	2.002707	-0.230973	0.329906
C21	C	1.715701	-0.206010	0.282631
C22	C	1.696308	-0.314118	0.279433
C23	C	2.197325	0.132303	0.361964
C24	C	2.374792	0.134187	0.391187
C25	C	1.923881	0.329643	0.316906
C26	C	1.944528	0.444702	0.320298
N27	N	1.948707	0.109759	0.773523
N28	N	1.864729	0.170502	-0.145335
H29	H	1.455906	0.125437	0.545582
H30	H	1.357508	0.154826	0.082577
C31	C	2.284447	-0.266509	0.376262
C32	C	2.171104	-0.185277	0.357622
H33	H	2.388407	-0.238297	0.393354
H34	H	2.281217	-0.315598	0.486612
H35	H	2.260594	-0.300710	0.261443
H36	H	2.194950	-0.151080	0.472449
H37	H	2.174339	-0.136169	0.247262
C38	C	2.383362	-0.527534	0.392575
C39	C	2.244802	-0.586855	0.369749
H40	H	2.474165	-0.572687	0.407541
H41	H	2.374665	-0.477406	0.280264
H42	H	2.395237	-0.492292	0.505425
H43	H	2.232920	-0.622091	0.256891
H44	H	2.253500	-0.637002	0.482072
C45	C	1.653568	-0.643402	0.272372
C46	C	1.642324	-0.534462	0.270529
H47	H	1.549608	-0.671616	0.255264
H48	H	1.699050	-0.658787	0.168978
H49	H	1.719653	-0.673684	0.394144
H50	H	1.576248	-0.504179	0.148751
H51	H	1.596819	-0.519068	0.373931
H52	H	1.571571	-0.347977	0.258881
H53	H	2.241863	-0.371770	0.369287
C54	C	1.617979	-0.029204	0.266535
C55	C	1.568611	-0.132874	0.258402
H56	H	1.527171	0.015945	0.251568
H57	H	1.690395	-0.024068	0.389343
H58	H	1.669829	-0.009177	0.164183
H59	H	1.516771	-0.152903	0.360763
H60	H	1.496167	-0.138014	0.135577
H61	H	1.777693	0.233449	0.758676
H62	H	2.035761	0.046815	0.869524
