data_functionalizedCrystal
_audit_creation_method	'MofGen! by Chris Wilmer'
_symmetry_space_group_name_H-M	'P1'
_symmetry_Int_Tables_number	1
_symmetry_cell_setting	triclinic
loop_
_symmetry_equiv_pos_as_xyz
  x,y,z
_cell_length_a	13.032831
_cell_length_b	15.297327
_cell_length_c	13.033454
_cell_angle_alpha	91.279958
_cell_angle_beta	89.091650
_cell_angle_gamma	93.742008
loop_
_atom_site_label
_atom_site_type_symbol
_atom_site_fract_x
_atom_site_fract_y
_atom_site_fract_z
Zn1	Zn	1.405143	-0.419826	-0.853127
Zn2	Zn	1.390160	-0.584814	-0.709531
Zn3	Zn	1.253958	-0.424435	-0.660151
Zn4	Zn	1.204484	-0.548580	-0.853429
O5	O	1.313436	-0.494414	-0.769060
O6	O	1.544133	-0.454947	-0.854619
O7	O	1.386527	-0.580633	-0.561998
O8	O	1.300988	-0.302820	-0.664957
O9	O	1.533125	-0.576164	-0.749119
O10	O	1.412062	-0.299434	-0.806736
O11	O	1.286460	-0.462803	-0.525718
O12	O	1.106417	-0.427668	-0.665250
O13	O	1.216667	-0.514407	-0.994372
O14	O	1.070069	-0.518876	-0.807251
O15	O	1.364090	-0.419812	-0.994150
O16	O	1.338555	-0.701011	-0.749412
O17	O	1.202140	-0.674389	-0.855133
C18	C	1.051689	-0.469841	-0.730925
C19	C	0.939706	-0.459346	-0.714639
C20	C	0.871814	-0.499891	-0.777560
C21	C	0.756073	-0.489045	-0.760728
C22	C	1.263378	-0.719075	-0.807690
C23	C	1.242052	-0.815191	-0.824263
C24	C	1.466239	-1.141441	-0.651013
C25	C	1.486276	-1.051136	-0.635437
C26	C	1.425222	-0.992145	-0.682642
C27	C	1.344127	-1.023468	-0.745426
C28	C	1.324083	-1.113782	-0.760998
C29	C	1.283066	-0.964486	-0.792627
C30	C	1.201970	-0.995809	-0.855411
C31	C	1.181930	-1.086114	-0.870980
C32	C	1.242984	-1.145105	-0.823775
C33	C	1.303110	-0.874173	-0.777055
C34	C	1.160954	-0.846514	-0.887040
C35	C	1.140916	-0.936818	-0.902616
C36	C	1.576205	-0.519083	-0.807344
C37	C	1.688181	-0.529596	-0.823658
C38	C	1.286531	-0.462553	-1.031839
C39	C	1.275066	-0.448976	-1.143819
C40	C	1.363715	-0.268875	-0.730305
C41	C	1.385141	-0.172764	-0.713790
C42	C	1.319466	-0.501223	-1.211694
C43	C	1.307617	-0.487191	-1.327433
C44	C	1.340308	-0.526094	-0.507301
C45	C	1.352023	-0.539445	-0.395307
H46	H	0.715737	-0.572334	-0.889998
H47	H	1.228287	-0.393854	-1.171393
H48	H	1.226677	-1.218640	-0.836456
Cl49	Cl	1.391710	-0.586317	-1.169132
Cl50	Cl	1.542980	-1.215602	-0.591675
H51	H	1.260834	-0.432066	-1.355002
H52	H	1.398816	-0.594565	-1.367740
H53	H	0.912144	-0.416601	-0.648313
H54	H	1.552302	-1.025636	-0.584317
H55	H	1.111236	-0.798483	-0.925476
H56	H	1.115887	-1.111614	-0.922090
Cl57	Cl	0.914357	-0.565887	-0.879967
H58	H	1.441540	-0.918616	-0.669955
H59	H	0.728516	-0.446297	-0.694398
Cl60	Cl	1.405055	-0.834806	-0.698130
H61	H	1.074887	-0.962335	-0.953735
