data_functionalizedCrystal
_audit_creation_method	'MofGen! by Chris Wilmer'
_symmetry_space_group_name_H-M	'P1'
_symmetry_Int_Tables_number	1
_symmetry_cell_setting	triclinic
loop_
_symmetry_equiv_pos_as_xyz
  x,y,z
_cell_length_a	16.992694
_cell_length_b	10.654550
_cell_length_c	16.053802
_cell_angle_alpha	92.591674
_cell_angle_beta	87.249047
_cell_angle_gamma	87.576563
loop_
_atom_site_label
_atom_site_type_symbol
_atom_site_fract_x
_atom_site_fract_y
_atom_site_fract_z
O1	O	1.045116	0.261481	-0.069321
O2	O	1.545116	0.761481	0.430679
O3	O	0.816816	0.258556	-0.069346
O4	O	1.316816	0.758556	0.430654
O5	O	0.936215	0.077733	-0.069330
O6	O	1.436215	0.577733	0.430670
O7	O	0.925717	0.442304	-0.069337
O8	O	1.425717	0.942304	0.430663
O9	O	0.929643	0.087643	0.069528
O10	O	1.429643	0.587643	0.569528
O11	O	0.810244	0.268466	0.069512
O12	O	1.310244	0.768466	0.569512
O13	O	1.038544	0.271390	0.069537
O14	O	1.538544	0.771390	0.569537
Zn15	Zn	0.923350	0.271501	0.091571
Zn16	Zn	1.423350	0.771501	0.591571
Zn17	Zn	0.932009	0.258446	-0.091380
Zn18	Zn	1.432009	0.758446	0.408620
O19	O	0.919145	0.452213	0.069521
O20	O	1.419145	0.952213	0.569521
C21	C	0.784297	0.259751	0.000080
C22	C	1.284297	0.759751	0.500080
C23	C	0.697192	0.248531	0.000071
C24	C	1.197192	0.748531	0.500071
C25	C	0.932158	0.035823	0.000098
C26	C	1.432158	0.535823	0.500098
C27	C	0.929852	-0.103819	0.000095
C28	C	1.429852	0.396181	0.500095
C29	C	0.647540	0.356781	0.000069
C30	C	1.147540	0.856781	0.500069
C31	C	0.565696	0.346233	0.000081
C32	C	1.065696	0.846233	0.500081
C33	C	0.533505	0.227432	0.000088
C34	C	1.033505	0.727432	0.500088
C35	C	0.583163	0.119174	0.000092
C36	C	1.083163	0.619174	0.500092
C37	C	0.665006	0.129724	0.000087
C38	C	1.165006	0.629724	0.500087
C39	C	0.289668	0.183707	0.000112
C40	C	0.789668	0.683707	0.500112
C41	C	0.207819	0.173165	0.000115
C42	C	0.707819	0.673165	0.500115
C43	C	0.190358	0.400225	0.000105
C44	C	0.690358	0.900225	0.500105
C45	C	0.272203	0.410765	0.000094
C46	C	0.772203	0.910765	0.500094
C47	C	0.321854	0.302506	0.000103
C48	C	0.821854	0.802506	0.500103
N49	N	0.449847	0.216647	0.000098
N50	N	0.949847	0.716647	0.500098
N51	N	0.405510	0.313293	0.000099
N52	N	0.905510	0.813293	0.500099
C53	C	1.000152	-0.177229	0.000105
C54	C	1.500152	0.322771	0.500105
C55	C	0.997981	-0.308438	0.000099
C56	C	1.497981	0.191562	0.500099
C57	C	0.855203	-0.292815	0.000076
C58	C	1.355203	0.207185	0.500076
C59	C	0.857375	-0.161609	0.000077
C60	C	1.357375	0.338391	0.500077
C61	C	1.072629	-0.119440	0.000124
C62	C	1.572629	0.380560	0.500124
C63	C	1.142935	-0.192850	0.000135
C64	C	1.642935	0.307150	0.500135
C65	C	1.140763	-0.324059	0.000129
C66	C	1.640763	0.175941	0.500129
C67	C	1.068286	-0.381858	0.000112
C68	C	1.568286	0.118142	0.500112
C69	C	1.071063	0.270196	0.000109
C70	C	1.571063	0.770196	0.500109
C71	C	1.158168	0.281416	0.000113
C72	C	1.658168	0.781416	0.500113
C73	C	0.923202	0.494123	0.000091
C74	C	1.423202	0.994123	0.500091
C75	C	0.925508	0.633766	0.000089
C76	C	1.425508	1.133766	0.500089
N77	N	0.917446	0.280411	0.216431
N78	N	1.417446	0.780411	0.716431
N79	N	0.937920	0.249526	-0.216239
N80	N	1.437920	0.749526	0.283761
C81	C	0.968269	0.203502	0.260132
C82	C	1.468269	0.703502	0.760132
C83	C	0.964147	0.209747	0.347538
C84	C	1.464147	0.709747	0.847538
C85	C	0.909204	0.292909	0.391242
C86	C	1.409204	0.792909	0.891242
C87	C	0.858376	0.369822	0.347535
C88	C	1.358376	0.869822	0.847535
C89	C	0.862495	0.363569	0.260130
C90	C	1.362495	0.863569	0.760130
C91	C	0.891210	0.320186	0.652649
C92	C	1.391210	0.820186	1.152649
C93	C	0.887096	0.326435	0.740060
C94	C	1.387096	0.826435	1.240060
C95	C	0.992867	0.166359	0.740057
C96	C	1.492867	0.666359	1.240057
C97	C	0.996985	0.160119	0.652650
C98	C	1.496985	0.660119	1.152650
C99	C	0.946153	0.237026	0.608951
C100	C	1.446153	0.737026	1.108951
N101	N	0.904991	0.299298	0.480585
N102	N	1.404991	0.799298	0.980585
N103	N	0.950364	0.230631	0.519610
N104	N	1.450364	0.730631	1.019610
H105	H	0.673743	0.453521	0.000063
H106	H	1.173743	0.953521	0.500063
C107	C	0.547750	-0.011509	0.000102
C108	C	1.047750	0.488491	0.500102
N109	N	0.521078	-0.109941	0.000106
N110	N	1.021078	0.390059	0.500106
C111	C	1.028711	0.112016	0.212066
C112	C	1.528711	0.612016	0.712066
N113	N	1.074234	0.043102	0.175864
N114	N	1.574234	0.543102	0.675864
C115	C	0.172412	0.042470	0.000122
C116	C	0.672412	0.542470	0.500122
N117	N	0.145743	-0.055965	0.000125
N118	N	0.645743	0.444035	0.500125
C119	C	1.020038	0.125108	0.395605
C120	C	1.520038	0.625108	0.895605
N121	N	1.062131	0.061342	0.431808
N122	N	1.562131	0.561342	0.931808
C123	C	0.826650	0.417920	0.788132
C124	C	1.326650	0.917920	1.288132
N125	N	0.781125	0.486823	0.824341
N126	N	1.281125	0.986823	1.324341
H127	H	0.800130	-0.101836	0.000069
H128	H	1.300130	0.398164	0.500069
C129	C	1.057422	0.068627	0.604583
C130	C	1.557422	0.568627	1.104583
N131	N	1.102944	-0.000285	0.568378
N132	N	1.602944	0.499715	1.068378
C133	C	0.511081	0.465320	0.000094
C134	C	1.011081	0.965320	0.500094
N135	N	0.469945	0.555022	0.000110
N136	N	0.969945	1.055022	0.500110
H137	H	1.034251	0.103743	0.775645
H138	H	1.534251	0.603743	1.275645
H139	H	0.298407	0.507504	0.000079
H140	H	0.798407	1.007504	0.500079
C141	C	1.075024	0.024892	0.000131
C142	C	1.575024	0.524892	0.500131
N143	N	1.076827	0.133603	0.000137
N144	N	1.576827	0.633603	0.500137
H145	H	0.813636	0.437530	0.383124
H146	H	1.313636	0.937530	0.883124
H147	H	0.705432	0.041574	0.000087
H148	H	1.205432	0.541574	0.500087
H149	H	0.796195	-0.339885	0.000064
H150	H	1.296195	0.160115	0.500064
C151	C	1.065902	-0.526193	0.000100
C152	C	1.565902	-0.026193	0.500100
N153	N	1.064107	-0.634905	0.000096
N154	N	1.564107	-0.134905	0.500096
H155	H	1.201944	-0.145783	0.000128
H156	H	1.701944	0.354217	0.500128
C157	C	0.344274	0.064618	0.000115
C158	C	0.844274	0.564618	0.500115
N159	N	0.385406	-0.025087	0.000117
N160	N	0.885406	0.474913	0.500117
H161	H	0.849823	0.382810	0.617076
H162	H	1.349823	0.882810	1.117076
H163	H	0.149924	0.488363	0.000100
H164	H	0.649924	0.988363	0.500100
C165	C	0.806591	0.448187	0.212060
C166	C	1.306591	0.948187	0.712060
N167	N	0.764483	0.511924	0.175855
N168	N	1.264483	1.011924	0.675855
H169	H	1.198010	-0.383827	0.000129
H170	H	1.698010	0.116173	0.500129
