data_functionalizedCrystal
_audit_creation_method	'MofGen! by Chris Wilmer'
_symmetry_space_group_name_H-M	'P1'
_symmetry_Int_Tables_number	1
_symmetry_cell_setting	triclinic
loop_
_symmetry_equiv_pos_as_xyz
  x,y,z
_cell_length_a	14.971482
_cell_length_b	10.723023
_cell_length_c	13.448316
_cell_angle_alpha	89.994428
_cell_angle_beta	89.993798
_cell_angle_gamma	84.040078
loop_
_atom_site_label
_atom_site_type_symbol
_atom_site_fract_x
_atom_site_fract_y
_atom_site_fract_z
O1	O	1.187822	0.162595	-0.082677
O2	O	0.927526	0.182073	-0.082681
O3	O	1.063679	-0.009305	-0.082675
O4	O	1.051670	0.353973	-0.082683
O5	O	1.063661	-0.009317	0.082709
O6	O	0.927509	0.182061	0.082702
O7	O	1.187805	0.162583	0.082707
Cu8	Cu	1.057655	0.172321	0.097806
Cu9	Cu	1.057676	0.172335	-0.097780
O10	O	1.051652	0.353961	0.082701
C11	C	0.894188	0.181197	0.000010
C12	C	0.794877	0.178589	0.000008
C13	C	0.748216	0.177354	0.090160
C14	C	0.654904	0.174884	0.090161
C15	C	0.608254	0.173657	0.000009
C16	C	0.654922	0.174888	-0.090149
C17	C	0.748233	0.177350	-0.090149
C18	C	0.460432	0.169761	-0.090143
C19	C	0.367115	0.167302	-0.090143
C20	C	0.367104	0.167295	0.090168
C21	C	0.460415	0.169756	0.090168
C22	C	0.507076	0.170990	0.000009
C23	C	1.062796	-0.055802	0.000016
C24	C	1.060182	-0.194329	0.000013
C25	C	1.059025	-0.256076	-0.085662
C26	C	1.056323	-0.399251	-0.085668
C27	C	1.221143	0.163459	0.000014
C28	C	1.320454	0.166067	0.000009
C29	C	1.052535	0.400458	0.000008
C30	C	1.055149	0.538984	0.000004
N31	N	1.057647	0.172310	0.235370
N32	N	1.057691	0.172336	-0.235344
C33	C	1.117955	0.087603	0.287413
C34	C	1.117960	0.087602	0.391516
C35	C	1.057662	0.172315	0.443575
C36	C	0.997348	0.257027	0.391524
C37	C	0.997339	0.257021	0.287423
C38	C	0.997373	0.257035	0.608504
C39	C	0.997383	0.257043	0.712613
C40	C	1.117994	0.087616	0.712598
C41	C	1.117985	0.087610	0.608496
C42	C	1.057672	0.172324	0.556453
H43	H	0.616919	0.173858	0.163572
C44	C	0.315776	0.165929	0.189344
N45	N	0.277112	0.164904	0.264041
C46	C	0.931011	0.350201	0.448792
N47	N	0.881044	0.420381	0.491925
C48	C	1.184316	-0.005578	0.551235
N49	N	1.234275	-0.075773	0.508105
H50	H	1.055333	-0.452353	-0.159017
H51	H	1.167103	0.018640	0.754978
H52	H	1.056148	-0.407923	0.073358
H53	H	1.059166	-0.247460	0.073358
C54	C	1.184288	-0.005591	0.230159
N55	N	1.234250	-0.075791	0.187038
C56	C	0.511756	0.171124	-0.189323
N57	N	0.550413	0.172160	-0.264024
C58	C	0.799523	0.178703	0.189336
N59	N	0.838165	0.179712	0.264038
H60	H	0.948281	0.326024	0.754993
C61	C	0.931003	0.350216	0.230176
N62	N	0.881038	0.420414	0.187059
H63	H	0.329135	0.166304	-0.163553
H64	H	0.498394	0.170763	0.163577
H65	H	0.616933	0.173881	-0.163552
H66	H	1.167066	0.018626	0.433890
H67	H	0.786222	0.178357	-0.163560
H68	H	1.060032	-0.202943	-0.159008
H69	H	0.948257	0.326014	0.566134
