data_functionalizedCrystal
_audit_creation_method	'MofGen! by Chris Wilmer'
_symmetry_space_group_name_H-M	'P1'
_symmetry_Int_Tables_number	1
_symmetry_cell_setting	triclinic
loop_
_symmetry_equiv_pos_as_xyz
  x,y,z
_cell_length_a	19.121224
_cell_length_b	13.897448
_cell_length_c	19.120904
_cell_angle_alpha	87.585296
_cell_angle_beta	90.128641
_cell_angle_gamma	92.450040
loop_
_atom_site_label
_atom_site_type_symbol
_atom_site_fract_x
_atom_site_fract_y
_atom_site_fract_z
Zn1	Zn	-1.054900	0.348323	-0.442279
Zn2	Zn	-1.059834	0.502473	-0.325046
Zn3	Zn	-0.942667	0.347745	-0.320041
Zn4	Zn	-0.937644	0.516132	-0.437224
O5	O	-0.998761	0.428668	-0.381147
O6	O	-1.153662	0.363297	-0.430938
O7	O	-1.048458	0.475989	-0.226278
O8	O	-0.957592	0.212839	-0.336277
O9	O	-1.157287	0.476550	-0.344808
O10	O	-1.040049	0.213264	-0.426085
O11	O	-0.962376	0.362312	-0.222600
O12	O	-0.843894	0.375556	-0.331375
O13	O	-0.949032	0.499830	-0.535999
O14	O	-0.840204	0.499269	-0.417469
O15	O	-1.035179	0.376542	-0.539713
O16	O	-1.043588	0.639267	-0.339906
O17	O	-0.953816	0.649302	-0.422323
C18	C	-0.816611	0.438833	-0.373331
C19	C	-0.738685	0.443205	-0.370003
C20	C	-0.298047	0.470890	-0.348954
C21	C	-0.371266	0.466776	-0.352075
C22	C	-0.405988	0.405859	-0.398552
C23	C	-0.367486	0.349046	-0.441906
C24	C	-0.294268	0.353156	-0.438781
C25	C	-0.626965	0.390502	-0.410232
C26	C	-0.700188	0.386398	-0.413355
C27	C	-0.703964	0.504127	-0.323523
C28	C	-0.630744	0.508236	-0.320405
C29	C	-0.592248	0.451419	-0.363756
C30	C	-0.480830	0.401655	-0.401745
C31	C	-0.517408	0.455619	-0.360559
C32	C	-0.998711	0.679284	-0.381125
C33	C	-0.998753	0.786497	-0.381142
C34	C	-0.990995	0.439774	-0.564004
C35	C	-0.987685	0.444506	-0.641927
C36	C	-0.181624	0.418456	-0.388987
C37	C	-0.259550	0.414083	-0.392306
C38	C	-0.998830	0.177073	-0.381186
C39	C	-0.998860	0.069859	-0.381203
C40	C	-0.998824	0.982790	-0.381189
C41	C	-0.998782	0.873559	-0.381165
C42	C	-1.030980	0.382543	-0.680470
C43	C	-1.027862	0.386987	-0.753686
C44	C	-0.981452	0.453399	-0.788358
C45	C	-0.938152	0.515365	-0.749810
C46	C	-0.941267	0.510916	-0.676595
C47	C	-0.969799	0.470039	-1.009324
C48	C	-0.966688	0.474485	-1.082544
C49	C	-1.056398	0.346105	-1.086415
C50	C	-1.059512	0.341666	-1.013199
C51	C	-1.016210	0.403628	-0.974657
C52	C	-0.978265	0.457945	-0.863197
C53	C	-1.019393	0.399077	-0.899819
C54	C	-1.006538	0.417534	-0.199004
C55	C	-1.009983	0.412522	-0.121087
H56	H	-0.595630	0.344242	-0.445535
F57	F	-0.593797	0.573049	-0.270922
H58	H	-0.735314	0.550384	-0.288228
F59	F	-1.080381	0.311862	-0.643576
F60	F	-0.737140	0.321558	-0.462824
F61	F	-1.068779	0.328391	-0.862917
H62	H	-0.395762	0.299442	-0.479746
H63	H	-0.940481	0.512022	-0.891436
H64	H	-0.269782	0.520500	-0.311111
H65	H	-0.402607	0.513032	-0.316772
F66	F	-0.923712	0.535985	-0.968314
F67	F	-0.888755	0.586042	-0.786713
H68	H	-0.262924	0.306894	-0.474081
F69	F	-0.480453	0.520444	-0.311093
F70	F	-1.108909	0.270982	-0.976303
F71	F	-0.895185	0.576863	-0.635575
F72	F	-1.102479	0.280163	-1.127439
H73	H	-1.063119	0.336532	-0.785065
F74	F	-0.517789	0.336830	-0.451212
F75	F	-0.917287	0.545169	-1.119443
