data_functionalizedCrystal
_audit_creation_method	'MofGen! by Chris Wilmer'
_symmetry_space_group_name_H-M	'P1'
_symmetry_Int_Tables_number	1
_symmetry_cell_setting	triclinic
loop_
_symmetry_equiv_pos_as_xyz
  x,y,z
_cell_length_a	12.759401
_cell_length_b	15.297327
_cell_length_c	12.759393
_cell_angle_alpha	99.643865
_cell_angle_beta	89.980186
_cell_angle_gamma	99.708126
loop_
_atom_site_label
_atom_site_type_symbol
_atom_site_fract_x
_atom_site_fract_y
_atom_site_fract_z
Zn1	Zn	1.533800	-0.359093	-0.666332
Zn2	Zn	1.503251	-0.509976	-0.521036
Zn3	Zn	1.358093	-0.359138	-0.490676
Zn4	Zn	1.327659	-0.509916	-0.696661
O5	O	1.430701	-0.434531	-0.593676
O6	O	1.676767	-0.379114	-0.647071
O7	O	1.483947	-0.490011	-0.369996
O8	O	1.406923	-0.232886	-0.488579
O9	O	1.654323	-0.489967	-0.540322
O10	O	1.536014	-0.232852	-0.617632
O11	O	1.377300	-0.379191	-0.347691
O12	O	1.207036	-0.379133	-0.517987
O13	O	1.355052	-0.489865	-0.839650
O14	O	1.184676	-0.489909	-0.669324
O15	O	1.506503	-0.379056	-0.817367
O16	O	1.454436	-0.636214	-0.569731
O17	O	1.325430	-0.636170	-0.698762
C18	C	1.157736	-0.434520	-0.593653
C19	C	1.040956	-0.434537	-0.593672
C20	C	0.974461	-0.492305	-0.672385
C21	C	0.864736	-0.492309	-0.672407
C22	C	0.888011	-0.376772	-0.514993
C23	C	0.997735	-0.376765	-0.514977
C24	C	0.708305	-0.524682	-0.802786
C25	C	0.641804	-0.582465	-0.881492
C26	C	0.659637	-0.670508	-0.915170
C27	C	0.743966	-0.700786	-0.870129
C28	C	0.810461	-0.643008	-0.791416
C29	C	0.792632	-0.554953	-0.757756
C30	C	1.154165	-0.344401	-0.384598
C31	C	1.220661	-0.286626	-0.305879
C32	C	1.202831	-0.198582	-0.272191
C33	C	1.118498	-0.168307	-0.317214
C34	C	1.052002	-0.226081	-0.395932
C35	C	1.069840	-0.314125	-0.429622
C36	C	1.383344	-0.668926	-0.640855
C37	C	1.363181	-0.769202	-0.661074
C38	C	1.575244	-1.051829	-0.449529
C39	C	1.594188	-0.957615	-0.430528
C40	C	1.536438	-0.910507	-0.488163
C41	C	1.459740	-0.957622	-0.564802
C42	C	1.440789	-1.051845	-0.583800
C43	C	1.401983	-0.910524	-0.622433
C44	C	1.325285	-0.957639	-0.699073
C45	C	1.306338	-1.051853	-0.718068
C46	C	1.364088	-1.098961	-0.660433
C47	C	1.420935	-0.816301	-0.603436
C48	C	1.286479	-0.816317	-0.737706
C49	C	1.267536	-0.910531	-0.756708
C50	C	1.704732	-0.434542	-0.593700
C51	C	1.821507	-0.434547	-0.593710
C52	C	1.430791	-0.434449	-0.867693
C53	C	1.430829	-0.434414	-0.984463
C54	C	1.478271	-0.199220	-0.546336
C55	C	1.498543	-0.098944	-0.526162
C56	C	1.486368	-0.492092	-1.050938
C57	C	1.486408	-0.492047	-1.160653
C58	C	1.375360	-0.376643	-1.137408
C59	C	1.375327	-0.376684	-1.027694
C60	C	1.603840	-0.524233	-1.317096
C61	C	1.659367	-0.581925	-1.383578
C62	C	1.657689	-0.669968	-1.365690
C63	C	1.600465	-0.700336	-1.281326
C64	C	1.544928	-0.642648	-1.214851
C65	C	1.546629	-0.554593	-1.232735
C66	C	1.257892	-0.344508	-0.871250
C67	C	1.202349	-0.286824	-0.804774
C68	C	1.204017	-0.198780	-0.822659
C69	C	1.261222	-0.168415	-0.907027
C70	C	1.316765	-0.226099	-0.973503
C71	C	1.315100	-0.314142	-0.955610
C72	C	1.430685	-0.434547	-0.320712
C73	C	1.430901	-0.434328	-0.203892
H74	H	1.256977	-0.151546	-0.208084
H75	H	0.573145	-0.557804	-0.918164
H76	H	1.289328	-0.311284	-0.269220
H77	H	1.705963	-0.557190	-1.452264
F78	F	1.185910	-0.960686	-0.838271
H79	H	1.103968	-0.096619	-0.289767
H80	H	1.348670	-1.175677	-0.675902
F81	F	1.225008	-0.766187	-0.799044
H82	H	1.158779	-0.151817	-0.768530
F83	F	0.962242	-0.193859	-0.443845
F84	F	1.605646	-0.430522	-1.336130
F85	F	0.842002	-0.315292	-0.431244
F86	F	1.545441	-0.553530	-1.004931
H87	H	1.551866	-0.833794	-0.472686
F88	F	1.316292	-0.315210	-1.183428
H89	H	1.622249	-1.090192	-0.402605
F90	F	0.588862	-0.732002	-0.998940
F91	F	1.173066	-0.438146	-0.420354
F92	F	1.377653	-0.193778	-1.063294
F93	F	1.484038	-0.674960	-1.125063
H94	H	1.256534	-0.416200	-0.856676
H95	H	1.155758	-0.311559	-0.736086
F96	F	1.598669	-0.794049	-1.262305
F97	F	1.502559	-0.766168	-0.521872
F98	F	1.262998	-0.074708	-0.926066
H99	H	1.009648	-0.539345	-0.736466
F100	F	1.224704	-1.101994	-0.799630
F101	F	0.900203	-0.675228	-0.743479
F102	F	0.689331	-0.430971	-0.766962
F103	F	0.762927	-0.794500	-0.905965
F104	F	1.675819	-0.907478	-0.348973
H105	H	1.702895	-0.716944	-1.419833
