data_functionalizedCrystal
_audit_creation_method	'MofGen! by Chris Wilmer'
_symmetry_space_group_name_H-M	'P1'
_symmetry_Int_Tables_number	1
_symmetry_cell_setting	triclinic
loop_
_symmetry_equiv_pos_as_xyz
  x,y,z
_cell_length_a	14.044220
_cell_length_b	10.654550
_cell_length_c	9.730223
_cell_angle_alpha	90.004253
_cell_angle_beta	90.001660
_cell_angle_gamma	91.163096
loop_
_atom_site_label
_atom_site_type_symbol
_atom_site_fract_x
_atom_site_fract_y
_atom_site_fract_z
O1	O	1.259697	-0.302986	-0.114143
O2	O	0.983656	-0.292052	-0.114178
O3	O	1.128023	-0.115418	-0.114151
O4	O	1.115330	-0.479621	-0.114170
O5	O	1.128014	-0.115411	0.114429
O6	O	0.983646	-0.292046	0.114402
O7	O	1.259688	-0.302980	0.114437
Zn8	Zn	1.121665	-0.297512	0.150711
Zn9	Zn	1.121678	-0.297520	-0.150453
O10	O	1.115320	-0.479614	0.114410
C11	C	0.948305	-0.287263	0.000108
C12	C	0.842986	-0.272988	0.000095
C13	C	1.127086	-0.068523	0.000138
C14	C	1.124298	0.071201	0.000136
N15	N	1.121664	-0.297506	0.356248
C16	C	0.650153	-0.246889	0.000123
C17	C	0.593185	-0.348137	0.000124
C18	C	0.485886	-0.333615	0.000140
C19	C	0.757462	-0.261409	0.000107
C20	C	1.295038	-0.307769	0.000148
C21	C	1.400358	-0.322044	0.000152
C22	C	1.116257	-0.526509	0.000118
C23	C	1.119045	-0.666233	0.000111
C24	C	1.209299	0.142144	0.000146
C25	C	1.206673	0.273429	0.000129
C26	C	1.034038	0.262814	0.000097
C27	C	1.036665	0.131532	0.000104
N28	N	1.121687	-0.297517	-0.355989
C29	C	1.185612	-0.219331	0.428186
C30	C	1.185621	-0.219332	0.572069
C31	C	1.057732	-0.375696	0.572063
C32	C	1.057719	-0.375687	0.428183
H33	H	0.624998	-0.445725	0.000112
H34	H	0.618342	-0.149310	0.000136
F35	F	1.253666	-0.136121	0.351632
F36	F	1.302566	0.077940	0.000178
F37	F	1.253681	-0.136125	0.648625
H38	H	1.005671	-0.439350	0.630647
H39	H	1.275890	0.331186	0.000134
H40	H	0.962690	0.311952	0.000074
H41	H	0.967442	0.073767	0.000092
H42	H	1.005640	-0.439347	0.369607
