data_functionalizedCrystal
_audit_creation_method	'MofGen! by Chris Wilmer'
_symmetry_space_group_name_H-M	'P1'
_symmetry_Int_Tables_number	1
_symmetry_cell_setting	triclinic
loop_
_symmetry_equiv_pos_as_xyz
  x,y,z
_cell_length_a	13.033293
_cell_length_b	17.640280
_cell_length_c	13.032268
_cell_angle_alpha	92.705783
_cell_angle_beta	90.920818
_cell_angle_gamma	84.521797
loop_
_atom_site_label
_atom_site_type_symbol
_atom_site_fract_x
_atom_site_fract_y
_atom_site_fract_z
Zn1	Zn	1.567883	-0.234088	0.727817
Zn2	Zn	2.067883	0.265912	1.227817
Zn3	Zn	1.621692	-0.342215	0.531055
Zn4	Zn	2.121692	0.157785	1.031055
Zn5	Zn	1.416565	-0.230115	0.534903
Zn6	Zn	1.916565	0.269885	1.034903
Zn7	Zn	1.437244	-0.373581	0.673904
Zn8	Zn	1.937244	0.126419	1.173904
O9	O	1.510846	-0.295000	0.616920
O10	O	2.010846	0.205000	1.116920
O11	O	1.715540	-0.236967	0.722668
O12	O	2.215540	0.263033	1.222668
O13	O	1.608346	-0.312555	0.391048
O14	O	2.108346	0.187445	0.891048
O15	O	1.405464	-0.125349	0.584667
O16	O	1.905464	0.374651	1.084667
O17	O	1.755073	-0.316408	0.578108
O18	O	2.255073	0.183592	1.078108
O19	O	1.516637	-0.128268	0.726399
O20	O	2.016637	0.371732	1.226399
O21	O	1.457640	-0.230196	0.393875
O22	O	1.957640	0.269804	0.893875
O23	O	1.278789	-0.260610	0.532390
O24	O	1.778789	0.239390	1.032390
O25	O	1.440709	-0.369866	0.821574
O26	O	1.940709	0.130134	1.321574
O27	O	1.293982	-0.366014	0.634514
O28	O	1.793982	0.133986	1.134514
O29	O	1.536689	-0.267382	0.861183
O30	O	2.036689	0.232618	1.361183
O31	O	1.628398	-0.451668	0.525831
O32	O	2.128398	0.048332	1.025831
O33	O	1.492885	-0.474713	0.630782
O34	O	1.992885	0.025287	1.130782
C35	C	1.249951	-0.316285	0.578020
C36	C	1.749951	0.183715	1.078020
C37	C	1.138341	-0.325411	0.561398
C38	C	1.638341	0.174589	1.061398
C39	C	1.069034	-0.290255	0.625591
C40	C	1.569034	0.209745	1.125591
C41	C	0.953680	-0.299687	0.608412
C42	C	1.453680	0.200313	1.108412
C43	C	1.568750	-0.490492	0.572065
C44	C	2.068750	0.009508	1.072065
C45	C	1.593609	-0.574120	0.552923
C46	C	2.093609	-0.074120	1.052923
C47	C	1.322363	-0.909274	0.762765
C48	C	1.822363	-0.409274	1.262765
C49	C	1.345728	-0.987852	0.744747
C50	C	1.845728	-0.487852	1.244747
C51	C	1.486904	-0.963798	0.635603
C52	C	1.986904	-0.463798	1.135603
C53	C	1.463555	-0.885216	0.653616
C54	C	1.963555	-0.385216	1.153616
C55	C	1.381282	-0.857961	0.717197
C56	C	1.881282	-0.357961	1.217197
C57	C	1.522473	-0.833903	0.608049
C58	C	2.022473	-0.333903	1.108049
C59	C	1.499122	-0.755328	0.626056
C60	C	1.999122	-0.255328	1.126056
C61	C	1.416851	-0.728066	0.689632
C62	C	1.916851	-0.228066	1.189632
C63	C	1.357930	-0.779386	0.735205
C64	C	1.857930	-0.279386	1.235205
C65	C	1.604741	-0.861159	0.544462
C66	C	2.104741	-0.361159	1.044462
C67	C	1.663660	-0.809846	0.498894
C68	C	2.163660	-0.309846	0.998894
C69	C	1.640313	-0.731270	0.516908
C70	C	2.140313	-0.231270	1.016908
C71	C	1.558042	-0.704008	0.580483
C72	C	2.058042	-0.204008	1.080483
C73	C	1.699234	-0.679950	0.471335
C74	C	2.199234	-0.179950	0.971335
C75	C	1.675882	-0.601376	0.489342
C76	C	2.175882	-0.101376	0.989342
C77	C	1.534691	-0.625433	0.598491
C78	C	2.034691	-0.125433	1.098491
C79	C	1.772760	-0.273632	0.655972
C80	C	2.272760	0.226368	1.155972
C81	C	1.884372	-0.264527	0.672614
C82	C	2.384372	0.235473	1.172614
C83	C	1.485003	-0.322566	0.878832
C84	C	1.985003	0.177434	1.378832
C85	C	1.473991	-0.334313	0.990443
C86	C	1.973991	0.165687	1.490443
C87	C	1.452741	-0.098744	0.661976
C88	C	1.952741	0.401256	1.161976
C89	C	1.427981	-0.015112	0.681176
C90	C	1.927981	0.484888	1.181176
C91	C	1.536630	-0.267482	0.356048
C92	C	2.036630	0.232518	0.856048
C93	C	1.547774	-0.255507	0.244515
C94	C	2.047774	0.244493	0.744515
C95	C	1.516570	-0.288843	1.059801
C96	C	2.016570	0.211157	1.559801
C97	C	1.505189	-0.300983	1.175157
C98	C	2.005189	0.199017	1.675157
H99	H	1.112278	-0.362490	0.493721
H100	H	1.612278	0.137510	0.993721
H101	H	1.592650	-0.207583	1.218500
H102	H	2.092650	0.292417	1.718500
Cl103	Cl	1.254509	-0.745116	0.815148
Cl104	Cl	1.754509	-0.245116	1.315148
Cl105	Cl	1.404691	-0.408291	1.030610
Cl106	Cl	1.904691	0.091709	1.530610
Cl107	Cl	0.924593	-0.207265	0.777103
Cl108	Cl	1.424593	0.292735	1.277103
H109	H	1.467703	-0.603242	0.650274
H110	H	1.967703	-0.103242	1.150274
Cl111	Cl	1.634130	-0.959942	0.521866
Cl112	Cl	2.134130	-0.459942	1.021866
Cl113	Cl	1.387701	-0.629291	0.712538
Cl114	Cl	1.887701	-0.129291	1.212538
H115	H	1.255375	-0.887083	0.814548
H116	H	1.755375	-0.387083	1.314548
H117	H	1.095097	-0.253172	0.693263
H118	H	1.595097	0.246828	1.193263
H119	H	0.927621	-0.336769	0.540731
H120	H	1.427621	0.163231	1.040731
Cl121	Cl	1.767086	-0.844118	0.418970
Cl122	Cl	2.267086	-0.344118	0.918970
Cl123	Cl	1.271638	-1.052359	0.802026
Cl124	Cl	1.771638	-0.552359	1.302026
H125	H	1.553888	-0.986000	0.583832
H126	H	2.053888	-0.486000	1.083832
H127	H	1.766213	-0.702154	0.419559
H128	H	2.266213	-0.202154	0.919559
H129	H	1.723859	-0.559595	0.452235
H130	H	2.223859	-0.059595	0.952235
H131	H	1.561445	-0.240924	1.033779
H132	H	2.061445	0.259076	1.533779
H133	H	1.460299	-0.348898	1.201174
H134	H	1.960299	0.151102	1.701174
