data_functionalizedCrystal
_audit_creation_method	'MofGen! by Chris Wilmer'
_symmetry_space_group_name_H-M	'P1'
_symmetry_Int_Tables_number	1
_symmetry_cell_setting	triclinic
loop_
_symmetry_equiv_pos_as_xyz
  x,y,z
_cell_length_a	10.967926
_cell_length_b	11.804783
_cell_length_c	11.026607
_cell_angle_alpha	79.634873
_cell_angle_beta	96.380754
_cell_angle_gamma	64.989712
loop_
_atom_site_label
_atom_site_type_symbol
_atom_site_fract_x
_atom_site_fract_y
_atom_site_fract_z
O1	O	1.767003	-0.263573	0.229361
O2	O	1.385696	-0.185327	0.228214
O3	O	1.544748	-0.217970	0.050439
O4	O	1.607951	-0.230930	0.407135
O5	O	1.602925	-0.427948	0.097321
O6	O	1.443873	-0.395305	0.275095
O7	O	1.825179	-0.473551	0.276242
Cu8	Cu	1.639838	-0.453601	0.279950
Cu9	Cu	1.571037	-0.205277	0.224507
O10	O	1.666127	-0.440908	0.454017
C11	C	1.365210	-0.280143	0.248196
C12	C	1.217491	-0.249830	0.237874
C13	C	1.181770	-0.345090	0.257559
C14	C	1.029095	-0.313763	0.246892
N15	N	1.688238	-0.628260	0.318945
C16	C	1.406369	-0.944446	0.091848
C17	C	1.369727	-0.812275	0.062339
C18	C	1.449352	-0.766265	0.126489
C19	C	1.565625	-0.852438	0.220151
C20	C	1.602277	-0.984623	0.249656
C21	C	1.645259	-0.806442	0.284296
C22	C	1.761532	-0.892615	0.377958
C23	C	1.798177	-1.024786	0.407459
C24	C	1.718553	-1.070797	0.343310
C25	C	1.608607	-0.674257	0.254791
C26	C	1.804514	-0.714434	0.412599
C27	C	1.841156	-0.846604	0.442108
C28	C	1.845665	-0.378732	0.256260
C29	C	1.993382	-0.409037	0.266579
C30	C	1.562176	-0.320564	0.028043
C31	C	1.527416	-0.313427	-0.108537
N32	N	1.522646	-0.030620	0.185502
C33	C	1.623391	-0.333120	-0.177193
C34	C	1.587467	-0.325744	-0.318356
C35	C	1.648699	-0.338311	0.476412
C36	C	1.683457	-0.345440	0.612991
H37	H	1.264217	-0.449839	0.282302
O38	O	1.954232	-0.930400	0.532919
C39	C	2.048207	-1.021796	0.479945
H40	H	2.028365	-0.980149	0.374024
H41	H	2.157727	-1.045675	0.524970
H42	H	2.034524	-1.113468	0.498004
H43	H	1.732157	-0.355447	-0.131463
H44	H	1.869353	-0.676974	0.464834
H45	H	1.478694	-0.303415	-0.364081
H46	H	1.275061	-0.742122	-0.013923
H47	H	0.946650	-0.209008	0.222137
O48	O	1.091831	-0.533960	0.295934
C49	C	1.163919	-0.555138	0.197464
H50	H	1.153689	-0.459285	0.141518
H51	H	1.277234	-0.623972	0.238818
H52	H	1.119128	-0.599281	0.132433
O53	O	1.119312	-0.124790	0.208286
C54	C	1.182171	-0.042300	0.192090
H55	H	1.286744	-0.095290	0.167877
H56	H	1.114159	0.047114	0.112241
H57	H	1.196440	-0.012020	0.283052
H58	H	1.792202	-0.367666	-0.341309
H59	H	1.513937	-0.604106	0.178532
O60	O	1.397573	-0.286727	-0.162894
C61	C	1.315319	-0.269882	-0.071642
H62	H	1.361862	-0.241945	0.008620
H63	H	1.206978	-0.190151	-0.116718
H64	H	1.310603	-0.363925	-0.033042
H65	H	1.419510	-0.658644	0.102457
O66	O	1.754382	-1.199240	0.371967
C67	C	1.887273	-1.268148	0.350307
H68	H	1.945681	-1.208293	0.354451
H69	H	1.944881	-1.363367	0.425647
H70	H	1.878719	-1.288506	0.253312
O71	O	1.910997	-1.108605	0.498522
C72	C	1.871120	-1.172528	0.595088
H73	H	1.769246	-1.170312	0.555930
H74	H	1.953401	-1.277063	0.632404
H75	H	1.858471	-1.121902	0.675013
H76	H	1.341559	-0.981923	0.039620
