data_functionalizedCrystal
_audit_creation_method	'MofGen! by Chris Wilmer'
_symmetry_space_group_name_H-M	'P1'
_symmetry_Int_Tables_number	1
_symmetry_cell_setting	triclinic
loop_
_symmetry_equiv_pos_as_xyz
  x,y,z
_cell_length_a	16.974867
_cell_length_b	15.455313
_cell_length_c	16.974885
_cell_angle_alpha	83.689367
_cell_angle_beta	96.840199
_cell_angle_gamma	90.968196
loop_
_atom_site_label
_atom_site_type_symbol
_atom_site_fract_x
_atom_site_fract_y
_atom_site_fract_z
O1	O	-1.048617	-0.008490	0.101146
O2	O	-0.819133	0.006752	0.113259
O3	O	-0.940660	0.006752	-0.008272
O4	O	-0.927090	-0.008490	0.222678
O5	O	-0.933710	-0.137508	-0.001351
O6	O	-0.812183	-0.137508	0.120180
O7	O	-1.041668	-0.152750	0.108067
Cu8	Cu	-0.926291	-0.158301	0.114756
Cu9	Cu	-0.934510	0.012303	0.106571
O10	O	-0.920141	-0.152750	0.229599
C11	C	-0.786301	-0.063278	0.116132
C12	C	-0.698828	-0.057021	0.114370
N13	N	-0.920516	-0.278295	0.120512
C14	C	-0.206860	-0.013296	0.104020
C15	C	-0.289050	-0.019187	0.105676
C16	C	-0.326348	-0.100770	0.110282
C17	C	-0.281453	-0.176466	0.113225
C18	C	-0.199265	-0.170574	0.111564
C19	C	-0.571746	-0.126825	0.115651
C20	C	-0.653939	-0.132711	0.117315
C21	C	-0.661530	0.024568	0.109764
C22	C	-0.579340	0.030453	0.108108
C23	C	-0.534453	-0.045243	0.111046
N24	N	-0.410359	-0.106794	0.111977
N25	N	-0.450445	-0.039218	0.109346
C26	C	-0.972163	-0.323692	0.068900
C27	C	-0.967803	-0.414500	0.073261
C28	C	-0.911800	-0.459910	0.129238
C29	C	-0.860148	-0.414507	0.180851
C30	C	-0.864504	-0.323700	0.176487
C31	C	-0.892995	-0.731492	0.148057
C32	C	-0.888644	-0.822306	0.152420
C33	C	-0.996299	-0.822293	0.044828
C34	C	-1.000654	-0.731485	0.040471
C35	C	-0.948999	-0.686089	0.092082
N36	N	-0.907344	-0.552731	0.133698
N37	N	-0.953452	-0.593269	0.087617
C38	C	-0.074499	-0.082722	0.105197
C39	C	-0.161971	-0.088987	0.106965
C40	C	-0.936798	-0.063276	-0.034370
C41	C	-0.935635	-0.057014	-0.122444
N42	N	-0.940290	0.132297	0.100808
C43	C	-0.931299	-0.132704	-0.160057
C44	C	-0.930212	-0.126812	-0.242813
C45	C	-0.933455	-0.045230	-0.287955
C46	C	-0.937794	0.030466	-0.250338
C47	C	-0.938887	0.024573	-0.167583
C48	C	-0.930598	-0.019174	-0.535858
C49	C	-0.929502	-0.013286	-0.618617
C50	C	-0.921922	-0.170566	-0.611087
C51	C	-0.923010	-0.176451	-0.528331
C52	C	-0.927353	-0.100756	-0.490721
N53	N	-0.932341	-0.039205	-0.372545
N54	N	-0.928472	-0.106781	-0.406134
C55	C	-0.924003	-0.082720	0.255696
C56	C	-0.925166	-0.088976	0.343771
H57	H	-0.176498	0.053137	0.100275
H58	H	-0.325597	0.042448	0.103273
H59	H	-0.942418	0.086208	-0.136961
O60	O	-0.935262	0.062466	-0.495294
H61	H	-0.937319	0.120183	-0.540588
O62	O	-0.941287	0.118463	-0.299020
H63	H	-0.939788	0.109847	-0.362882
O64	O	-0.539137	0.118459	0.103099
H65	H	-0.549470	0.151788	0.155613
O66	O	-0.927807	-0.220698	-0.111369
H67	H	-0.924620	-0.272340	-0.151431
H68	H	-1.038353	-0.859262	0.002808
H69	H	-1.017770	-0.286726	0.023322
O70	O	-0.321675	-0.264463	0.118199
H71	H	-0.386365	-0.255847	0.118870
H72	H	-0.535209	-0.188461	0.118032
H73	H	-0.698087	0.086196	0.107371
O74	O	-0.694174	-0.220707	0.122272
H75	H	-0.649155	-0.272354	0.124026
H76	H	-0.920386	-0.242885	-0.491584
H77	H	-0.162716	-0.232210	0.113970
H78	H	-1.009858	-0.451462	0.031234
O79	O	-1.061057	-0.682517	-0.019912
H80	H	-1.121601	-0.704966	-0.008793
O81	O	-0.925530	-0.208448	-0.283383
H82	H	-0.923447	-0.266166	-0.238089
H83	H	-0.843036	-0.859275	0.198006
H84	H	-0.850937	-0.694539	0.190082
H85	H	-0.814544	-0.451484	0.226426
O86	O	-0.808804	-0.274730	0.232156
H87	H	-0.769135	-0.321561	0.271820
H88	H	-0.918387	-0.232192	-0.641718
O89	O	-0.933013	0.074709	-0.667313
H90	H	-0.936227	0.126355	-0.627260
