data_functionalizedCrystal
_audit_creation_method	'MofGen! by Chris Wilmer'
_symmetry_space_group_name_H-M	'P1'
_symmetry_Int_Tables_number	1
_symmetry_cell_setting	triclinic
loop_
_symmetry_equiv_pos_as_xyz
  x,y,z
_cell_length_a	14.044191
_cell_length_b	15.995300
_cell_length_c	13.101039
_cell_angle_alpha	93.366198
_cell_angle_beta	86.337551
_cell_angle_gamma	88.331792
loop_
_atom_site_label
_atom_site_type_symbol
_atom_site_fract_x
_atom_site_fract_y
_atom_site_fract_z
O1	O	1.262878	0.197664	-0.085145
O2	O	1.762878	0.697664	0.414855
O3	O	0.986911	0.190373	-0.085159
O4	O	1.486911	0.690373	0.414841
O5	O	1.132464	0.072694	-0.085157
O6	O	1.632464	0.572694	0.414843
O7	O	1.117326	0.315344	-0.085148
O8	O	1.617326	0.815344	0.414852
O9	O	1.122020	0.081152	0.085273
O10	O	1.622020	0.581152	0.585273
O11	O	0.976468	0.198832	0.085271
O12	O	1.476468	0.698832	0.585271
O13	O	1.252435	0.206123	0.085284
O14	O	1.752435	0.706123	0.585284
Zn15	Zn	1.112793	0.203821	0.112337
Zn16	Zn	1.612793	0.703821	0.612337
Zn17	Zn	1.126553	0.192676	-0.112212
Zn18	Zn	1.626553	0.692676	0.387788
O19	O	1.106883	0.323803	0.085282
O20	O	1.606883	0.823803	0.585282
C21	C	0.946376	0.191413	0.000054
C22	C	1.446376	0.691413	0.500054
C23	C	0.841152	0.181899	0.000048
C24	C	1.341152	0.681899	0.500048
C25	C	0.590855	0.231979	0.000060
C26	C	1.090855	0.731979	0.500060
C27	C	0.648498	0.164521	0.000056
C28	C	1.148498	0.664521	0.500056
C29	C	0.755700	0.174193	0.000052
C30	C	1.255700	0.674193	0.500052
C31	C	0.483642	0.222308	0.000065
C32	C	0.983642	0.722308	0.500065
C33	C	1.126625	0.045681	0.000054
C34	C	1.626625	0.545681	0.500054
C35	C	1.124775	-0.047410	0.000044
C36	C	1.624775	0.452590	0.500044
C37	C	1.121356	-0.217848	0.000054
C38	C	1.621356	0.282152	0.500054
C39	C	1.224992	-0.257571	0.000057
C40	C	1.724992	0.242429	0.500057
C41	C	1.223077	-0.354381	0.000448
C42	C	1.723077	0.145619	0.500448
C43	C	1.117991	-0.385656	0.000062
C44	C	1.617991	0.114344	0.500062
C45	C	1.060622	-0.343542	0.097191
C46	C	1.560622	0.156458	0.597191
C47	C	1.063239	-0.246709	0.097269
C48	C	1.563239	0.253291	0.597269
C49	C	1.073581	-0.256167	-0.096548
C50	C	1.573581	0.243833	0.403452
C51	C	1.073669	-0.353174	-0.097821
C52	C	1.573669	0.146826	0.402179
C53	C	1.116084	-0.480493	0.000071
C54	C	1.616084	0.019507	0.500071
C55	C	1.123260	-0.123010	0.000052
C56	C	1.623260	0.376990	0.500052
C57	C	1.292971	0.205083	0.000069
C58	C	1.792971	0.705083	0.500069
C59	C	1.398195	0.214597	0.000068
C60	C	1.898195	0.714597	0.500068
C61	C	1.112721	0.350815	0.000069
C62	C	1.612721	0.850815	0.500069
C63	C	1.114572	0.443906	0.000072
C64	C	1.614572	0.943906	0.500072
N65	N	1.103410	0.211426	0.265585
N66	N	1.603410	0.711426	0.765585
N67	N	1.135944	0.185064	-0.265460
N68	N	1.635944	0.685064	0.234540
C69	C	1.090643	0.221782	0.474628
C70	C	1.590643	0.721782	0.974628
C71	C	1.148707	0.174711	0.525504
C72	C	1.648707	0.674711	1.025504
C73	C	1.141604	0.180473	0.641822
C74	C	1.641604	0.680473	1.141822
C75	C	1.097745	0.216021	0.358299
C76	C	1.597745	0.716021	0.858299
H77	H	1.267746	-0.383281	-0.069162
H78	H	1.767746	0.116719	0.430838
H79	H	0.622015	0.296990	0.000060
H80	H	1.122015	0.796990	0.500060
O81	O	0.958053	-0.369658	0.101626
O82	O	1.458053	0.130342	0.601626
H83	H	0.924045	-0.350327	0.032158
H84	H	1.424045	0.149673	0.532158
O85	O	1.285826	-0.233539	-0.092185
O86	O	1.785826	0.266461	0.407815
H87	H	1.242852	-0.193021	-0.139018
H88	H	1.742852	0.306979	0.360982
H89	H	1.091458	-0.365657	0.169751
H90	H	1.591458	0.134343	0.669751
O91	O	1.221623	0.115594	0.467494
O92	O	1.721623	0.615594	0.967494
H93	H	1.270698	0.151855	0.418617
H94	H	1.770698	0.651855	0.918617
O95	O	1.106425	-0.213980	0.193801
O96	O	1.606425	0.286020	0.693801
H97	H	1.062255	-0.232399	0.261619
H98	H	1.562255	0.267601	0.761619
O99	O	0.607236	0.078393	0.000050
O100	O	1.107236	0.578393	0.500050
H101	H	0.566977	0.067328	-0.069419
H102	H	1.066977	0.567328	0.430581
O103	O	1.273697	-0.222961	0.092182
O104	O	1.773697	0.277039	0.592182
H105	H	1.293290	-0.275064	0.139959
H106	H	1.793290	0.224936	0.639959
O107	O	0.962101	-0.211215	0.102767
O108	O	1.462101	0.288785	0.602767
H109	H	0.963211	-0.141853	0.102862
H110	H	1.463211	0.358147	0.602862
O111	O	1.017741	0.280904	0.532634
O112	O	1.517741	0.780904	1.032634
H113	H	1.023544	0.276216	0.616215
H114	H	1.523544	0.776216	1.116215
O115	O	1.270674	-0.382694	0.093217
O116	O	1.770674	0.117306	0.593217
H117	H	1.231733	-0.354270	0.163780
H118	H	1.731733	0.145730	0.663780
O119	O	1.124705	-0.230311	-0.194041
O120	O	1.624705	0.269689	0.305959
H121	H	1.200375	-0.252916	-0.197265
H122	H	1.700375	0.247084	0.302735
O123	O	1.129219	-0.390405	-0.193013
O124	O	1.629219	0.109595	0.306987
H125	H	1.188149	-0.431876	-0.170717
H126	H	1.688149	0.068124	0.329283
H127	H	0.997416	-0.374550	-0.103982
H128	H	1.497416	0.125450	0.396018
H129	H	0.997224	-0.230152	-0.097478
H130	H	1.497224	0.269848	0.402522
