data_functionalizedCrystal
_audit_creation_method	'MofGen! by Chris Wilmer'
_symmetry_space_group_name_H-M	'P1'
_symmetry_Int_Tables_number	1
_symmetry_cell_setting	triclinic
loop_
_symmetry_equiv_pos_as_xyz
  x,y,z
_cell_length_a	27.732048
_cell_length_b	27.732048
_cell_length_c	9.130313
_cell_angle_alpha	89.990549
_cell_angle_beta	90.001977
_cell_angle_gamma	82.642655
loop_
_atom_site_label
_atom_site_type_symbol
_atom_site_fract_x
_atom_site_fract_y
_atom_site_fract_z
O1	O	0.640926	0.057517	-0.121626
O2	O	0.500133	0.066262	-0.121673
O3	O	0.574902	-0.008507	-0.121620
O4	O	0.566157	0.132286	-0.121679
O5	O	0.574897	-0.008509	0.121979
O6	O	0.500128	0.066260	0.121926
O7	O	0.640921	0.057515	0.121973
Cu8	Cu	0.570524	0.061887	0.144192
Cu9	Cu	0.570530	0.061890	-0.143892
O10	O	0.566152	0.132284	0.121920
C11	C	0.482124	0.066078	0.000121
C12	C	0.428469	0.065525	0.000105
C13	C	0.089654	0.106229	0.000151
C14	C	-0.112006	0.104178	0.000165
O15	O	-0.143262	0.141398	0.000213
N16	N	-0.131130	0.059843	0.000181
C17	C	-0.099835	0.016017	0.000203
O18	O	-0.120728	-0.021740	0.000232
C19	C	0.101824	0.018068	0.000199
C20	C	0.120944	0.062407	0.000169
C21	C	0.108775	0.150563	0.000122
C22	C	0.159187	0.151075	0.000111
C23	C	0.190477	0.107253	0.000128
C24	C	0.171356	0.062919	0.000157
C25	C	0.133117	-0.025757	0.000232
C26	C	0.183535	-0.025240	0.000235
C27	C	0.202655	0.019098	0.000204
C28	C	0.253059	0.019609	0.000163
N29	N	0.272183	0.063944	0.000148
C30	C	0.240892	0.107766	0.000130
C31	C	-0.205709	0.014943	0.000202
C32	C	-0.256124	0.014430	0.000200
C33	C	-0.268291	0.102591	0.000165
C34	C	-0.217876	0.103104	0.000156
C35	C	-0.186585	0.059278	0.000186
C36	C	0.346761	0.108839	0.000105
C37	C	0.397178	0.109347	0.000087
C38	C	0.409341	0.021186	0.000130
C39	C	0.358929	0.020678	0.000140
C40	C	0.327639	0.064508	0.000132
O41	O	0.284343	-0.017592	0.000132
O42	O	0.261794	0.145518	0.000133
C43	C	0.039242	0.105716	0.000163
C44	C	0.020120	0.061382	0.000192
C45	C	0.051411	0.017560	0.000209
C46	C	-0.030294	0.060869	0.000190
C47	C	-0.061585	0.104691	0.000172
C48	C	-0.042461	0.149026	0.000156
C49	C	0.007951	0.149539	0.000145
C50	C	0.032287	-0.026775	0.000225
C51	C	-0.018125	-0.027284	0.000235
C52	C	-0.049416	0.016538	0.000217
C53	C	0.574716	-0.026515	0.000183
C54	C	0.574164	-0.080170	0.000195
C55	C	0.614867	-0.418985	0.000133
C56	C	0.612816	-0.620645	0.000112
O57	O	0.650037	-0.651900	0.000060
N58	N	0.568481	-0.639768	0.000099
C59	C	0.524656	-0.608474	0.000081
O60	O	0.486899	-0.629367	0.000055
C61	C	0.526707	-0.406815	0.000092
C62	C	0.571045	-0.387694	0.000120
C63	C	0.659202	-0.399864	0.000160
C64	C	0.659714	-0.349452	0.000173
C65	C	0.615892	-0.318161	0.000160
C66	C	0.571557	-0.337282	0.000133
C67	C	0.482882	-0.375521	0.000064
C68	C	0.483399	-0.325104	0.000063
C69	C	0.527737	-0.305983	0.000091
C70	C	0.528247	-0.255580	0.000133
N71	N	0.572583	-0.236456	0.000147
C72	C	0.616405	-0.267747	0.000160
C73	C	0.523582	-0.714348	0.000079
C74	C	0.523069	-0.764762	0.000079
C75	C	0.611230	-0.776930	0.000107
C76	C	0.611742	-0.726514	0.000117
C77	C	0.567917	-0.695224	0.000092
C78	C	0.617477	-0.161878	0.000189
C79	C	0.617986	-0.111461	0.000208
C80	C	0.529825	-0.099298	0.000172
C81	C	0.529316	-0.149710	0.000161
C82	C	0.573147	-0.180999	0.000164
O83	O	0.491047	-0.224296	0.000169
O84	O	0.654156	-0.246844	0.000154
C85	C	0.614355	-0.469397	0.000120
C86	C	0.570021	-0.488518	0.000094
C87	C	0.526198	-0.457228	0.000080
C88	C	0.569508	-0.538933	0.000094
C89	C	0.613330	-0.570223	0.000107
C90	C	0.657665	-0.551100	0.000120
C91	C	0.658177	-0.500688	0.000133
C92	C	0.481863	-0.476351	0.000067
C93	C	0.481355	-0.526764	0.000056
C94	C	0.525177	-0.558054	0.000069
C95	C	0.658931	0.057699	0.000176
C96	C	0.712586	0.058252	0.000182
C97	C	0.566338	0.150292	0.000113
C98	C	0.566891	0.203947	0.000092
N99	N	0.570524	0.061885	0.346815
N100	N	0.570535	0.061888	-0.346515
C101	C	0.603642	0.028791	0.423490
C102	C	0.603647	0.028791	0.576826
C103	C	0.537412	0.094984	0.576800
C104	C	0.537406	0.094981	0.423465
H105	H	0.209009	-0.060929	0.000260
F106	F	0.179530	0.198267	0.000085
H107	H	-0.033688	-0.063392	0.000248
F108	F	0.638888	-0.006434	0.341918
F109	F	0.502153	0.130204	0.341856
H110	H	0.630615	0.001842	0.639251
H111	H	0.412743	0.145454	0.000061
H112	H	0.694282	-0.485125	0.000156
F113	F	0.065583	-0.073420	0.000247
H114	H	0.694889	-0.425336	0.000165
H115	H	0.487892	-0.688875	0.000058
F116	F	0.435691	-0.395860	0.000028
H117	H	0.510449	0.121931	0.639224
H118	H	0.083302	0.186251	0.000113
H119	H	0.321291	0.144530	0.000103
F120	F	-0.197531	0.150294	0.000126
H121	H	0.494146	-0.073812	0.000167
H122	H	0.653168	-0.187348	0.000186
H123	H	-0.293777	0.138273	0.000151
H124	H	-0.067947	0.184708	0.000136
F125	F	-0.276468	-0.032761	0.000200
H126	H	0.647846	-0.710950	0.000139
H127	H	0.117558	-0.061861	0.000258
F128	F	-0.172413	-0.031705	0.000232
F129	F	0.338578	-0.026511	0.000173
H130	H	0.023514	0.185643	0.000122
F131	F	0.442651	-0.025450	0.000151
F132	F	0.665178	-0.091114	0.000238
H133	H	0.447710	-0.299629	0.000040
H134	H	0.695819	-0.333889	0.000190
H135	H	0.646911	-0.802415	0.000118
F136	F	0.482127	-0.170060	0.000157
F137	F	0.475878	-0.785106	0.000075
H138	H	0.445246	-0.542327	0.000045
F139	F	0.704304	-0.584410	0.000142
H140	H	0.446177	-0.450879	0.000053
