data_functionalizedCrystal
_audit_creation_method	'MofGen! by Chris Wilmer'
_symmetry_space_group_name_H-M	'P1'
_symmetry_Int_Tables_number	1
_symmetry_cell_setting	triclinic
loop_
_symmetry_equiv_pos_as_xyz
  x,y,z
_cell_length_a	19.805407
_cell_length_b	12.759400
_cell_length_c	19.805399
_cell_angle_alpha	89.979400
_cell_angle_beta	89.980427
_cell_angle_gamma	90.014284
loop_
_atom_site_label
_atom_site_type_symbol
_atom_site_fract_x
_atom_site_fract_y
_atom_site_fract_z
Zn1	Zn	1.034793	-0.418291	-0.382752
Zn2	Zn	1.034732	-0.593984	-0.269578
Zn3	Zn	0.921607	-0.418320	-0.269577
Zn4	Zn	0.921595	-0.593928	-0.382725
O5	O	0.978182	-0.506131	-0.326158
O6	O	1.129501	-0.441608	-0.367752
O7	O	1.019705	-0.570717	-0.174861
O8	O	0.936653	-0.271295	-0.284601
O9	O	1.129456	-0.570689	-0.284603
O10	O	1.019809	-0.271273	-0.367751
O11	O	0.936593	-0.441657	-0.174861
O12	O	0.826889	-0.441603	-0.284574
O13	O	0.936631	-0.570594	-0.477445
O14	O	0.826880	-0.570622	-0.367704
O15	O	1.019797	-0.441554	-0.477465
O16	O	1.019693	-0.740998	-0.284576
O17	O	0.936572	-0.740957	-0.367704
C18	C	0.802326	-0.506110	-0.326136
C19	C	0.727094	-0.506127	-0.326143
C20	C	0.978143	-0.779098	-0.326152
C21	C	0.978188	-0.895875	-0.326172
C22	C	0.691762	-0.573408	-0.369358
C23	C	0.621074	-0.573410	-0.369368
C24	C	0.585718	-0.506135	-0.326158
C25	C	0.621054	-0.438847	-0.282941
C26	C	0.691741	-0.438840	-0.282935
C27	C	0.335981	-0.438870	-0.282963
C28	C	0.265289	-0.438884	-0.282971
C29	C	0.265313	-0.573440	-0.369396
C30	C	0.336001	-0.573433	-0.369390
C31	C	0.371331	-0.506141	-0.326176
C32	C	0.447979	-0.506139	-0.326167
C33	C	0.509071	-0.506142	-0.326163
C34	C	0.934898	-0.950753	-0.369423
C35	C	0.934933	-1.060477	-0.369429
C36	C	1.021556	-1.060434	-0.282932
C37	C	1.021516	-0.950712	-0.282923
C38	C	0.891569	-0.895916	-0.412672
C39	C	0.848276	-0.950795	-0.455927
C40	C	0.848312	-1.060519	-0.455933
C41	C	0.891641	-1.115364	-0.412685
C42	C	1.154724	-0.506152	-0.326180
C43	C	1.229956	-0.506160	-0.326190
C44	C	0.978220	-0.506064	-0.502701
C45	C	0.978236	-0.506036	-0.577933
C46	C	0.978239	-0.232097	-0.326179
C47	C	0.978264	-0.115321	-0.326188
C48	C	1.021541	-0.438842	-0.613289
C49	C	1.021548	-0.438811	-0.683977
C50	C	0.978253	-0.505981	-0.719309
C51	C	0.934942	-0.573179	-0.683948
C52	C	0.934932	-0.573203	-0.613261
C53	C	0.934980	-0.573081	-0.969021
C54	C	0.934995	-0.573054	-1.039713
C55	C	1.021596	-0.438689	-1.039738
C56	C	1.021586	-0.438713	-0.969051
C57	C	0.978274	-0.505906	-0.933696
C58	C	0.978266	-0.505937	-0.857048
C59	C	0.978263	-0.505957	-0.795956
C60	C	0.978183	-0.506121	-0.150302
C61	C	0.978298	-0.505853	-0.075070
H62	H	0.720544	-0.628195	-0.404542
H63	H	0.891665	-1.204709	-0.412692
F64	F	0.888883	-0.644594	-0.931403
H65	H	0.812995	-0.906134	-0.491134
F66	F	0.583475	-0.645020	-0.415364
H67	H	0.364784	-0.628219	-0.404574
F68	F	0.888839	-0.644718	-0.575633
F69	F	0.888861	-0.644662	-0.721552
H70	H	1.056813	-0.384097	-0.712761
F71	F	1.067669	-1.118808	-0.236910
H72	H	0.236539	-0.628228	-0.404586
F73	F	0.891570	-0.779138	-0.412712
H74	H	0.592262	-0.384066	-0.247762
F75	F	0.802232	-1.118922	-0.501964
H76	H	0.236504	-0.384094	-0.247784
F77	F	1.067586	-0.892303	-0.236886
F78	F	1.067627	-0.367354	-0.575693
H79	H	0.720507	-0.384048	-0.247748
F80	F	0.373573	-0.367249	-0.236972
H81	H	1.056844	-0.384020	-0.940287
F82	F	1.067692	-0.367172	-1.077370
H83	H	0.899736	-0.627754	-1.068478
