data_functionalizedCrystal
_audit_creation_method	'MofGen! by Chris Wilmer'
_symmetry_space_group_name_H-M	'P1'
_symmetry_Int_Tables_number	1
_symmetry_cell_setting	triclinic
loop_
_symmetry_equiv_pos_as_xyz
  x,y,z
_cell_length_a	16.120530
_cell_length_b	19.077068
_cell_length_c	19.076919
_cell_angle_alpha	94.470751
_cell_angle_beta	89.499843
_cell_angle_gamma	89.537851
loop_
_atom_site_label
_atom_site_type_symbol
_atom_site_fract_x
_atom_site_fract_y
_atom_site_fract_z
Zn1	Zn	1.235622	-0.351862	-0.464893
Zn2	Zn	1.235519	-0.465010	-0.351733
Zn3	Zn	1.102611	-0.341206	-0.341097
Zn4	Zn	1.090943	-0.463251	-0.463136
O5	O	1.166174	-0.405332	-0.405215
O6	O	1.351779	-0.372067	-0.455068
O7	O	1.222729	-0.444865	-0.251890
O8	O	1.125182	-0.244190	-0.353803
O9	O	1.351704	-0.455197	-0.371930
O10	O	1.222904	-0.252019	-0.444755
O11	O	1.125082	-0.353906	-0.244077
O12	O	0.984893	-0.352200	-0.352100
O13	O	1.105295	-0.452198	-0.561800
O14	O	0.976320	-0.441866	-0.441761
O15	O	1.211590	-0.370361	-0.563091
O16	O	1.211415	-0.563206	-0.370226
O17	O	1.105196	-0.561914	-0.452074
C18	C	1.157050	-0.588083	-0.412130
C19	C	1.153221	-0.666269	-0.415115
C20	C	0.950485	-0.395686	-0.395586
C21	C	0.858210	-0.391577	-0.391484
C22	C	1.206765	-0.703654	-0.373943
C23	C	1.203168	-0.777118	-0.376755
C24	C	1.146024	-0.813196	-0.420736
C25	C	1.092478	-0.775806	-0.461912
C26	C	1.096079	-0.702343	-0.459104
C27	C	1.129324	-1.032836	-0.433705
C28	C	1.125725	-1.106304	-0.436509
C29	C	1.236417	-1.107611	-0.351353
C30	C	1.240009	-1.034146	-0.348545
C31	C	1.186467	-0.996763	-0.389724
N32	N	1.142345	-0.888288	-0.423610
N33	N	1.190150	-0.921673	-0.386853
C34	C	0.689263	-0.384058	-0.384001
C35	C	0.643920	-0.426660	-0.426481
C36	C	0.549913	-0.422477	-0.422318
C37	C	0.783280	-0.388241	-0.388164
C38	C	1.382706	-0.415017	-0.414881
C39	C	1.474979	-0.419144	-0.419000
C40	C	1.157153	-0.412272	-0.588681
C41	C	1.153308	-0.415229	-0.666864
C42	C	1.175356	-0.221869	-0.398289
C43	C	1.179269	-0.143688	-0.395338
C44	C	1.206841	-0.374012	-0.704267
C45	C	1.203219	-0.376787	-0.777728
C46	C	1.146067	-0.420784	-0.813784
C47	C	1.092528	-0.462002	-0.776375
C48	C	1.096147	-0.459223	-0.702916
C49	C	1.129306	-0.433662	-1.033411
C50	C	1.125693	-0.436440	-1.106876
C51	C	1.236383	-0.351224	-1.108223
C52	C	1.240000	-0.348451	-1.034763
C53	C	1.186458	-0.389667	-0.997360
N54	N	1.142365	-0.423623	-0.888872
N55	N	1.190157	-0.386823	-0.922273
C56	C	1.175211	-0.398371	-0.222462
C57	C	1.179226	-0.395223	-0.144279
H58	H	1.253294	-0.674284	-0.338126
C59	C	1.070428	-0.991720	-0.478996
H60	H	1.080759	-0.942801	-0.471034
H61	H	1.014575	-1.000921	-0.466637
H62	H	1.079626	-1.006063	-0.527267
C63	C	0.686850	-0.480194	-0.479818
H64	H	0.745318	-0.476030	-0.475644
H65	H	0.670900	-0.471166	-0.526102
H66	H	0.670828	-0.526423	-0.470594
H67	H	0.657483	-0.344448	-0.344508
C68	C	1.269705	-0.325611	-0.664612
H69	H	1.301062	-0.301456	-0.697412
H70	H	1.305944	-0.353046	-0.638585
H71	H	1.240885	-0.292457	-0.633382
C72	C	1.262109	-0.331452	-0.818869
H73	H	1.296672	-0.304859	-0.786875
H74	H	1.230480	-0.300466	-0.844949
H75	H	1.295522	-0.361067	-0.850158
C76	C	1.029619	-0.815489	-0.510289
H77	H	1.035136	-0.864595	-0.506060
H78	H	1.039987	-0.805751	-0.557637
H79	H	0.974945	-0.800609	-0.497001
C80	C	1.037281	-0.504580	-0.661773
H81	H	1.002735	-0.531190	-0.693767
H82	H	1.003862	-0.474985	-0.630477
H83	H	1.068936	-0.535562	-0.635703
H84	H	1.045991	-0.497823	-0.805737
H85	H	1.286541	-0.312627	-1.005411
C86	C	1.037183	-0.661220	-0.504394
H87	H	1.002630	-0.693227	-0.530986
H88	H	1.068812	-0.635106	-0.535381
H89	H	1.003760	-0.629965	-0.474753
C90	C	1.295267	-0.305885	-1.149367
H91	H	1.284924	-0.313836	-1.198280
H92	H	1.351123	-0.318216	-1.140209
H93	H	1.286068	-0.257624	-1.135000
H94	H	1.079150	-0.472269	-1.136230
H95	H	1.085720	-0.467234	-1.002968
H96	H	1.246769	-0.807554	-0.343228
C97	C	1.302873	-0.994466	-0.300170
H98	H	1.334253	-1.027254	-0.276057
H99	H	1.274059	-0.963265	-0.266990
H100	H	1.339102	-0.968407	-0.327626
H101	H	1.280009	-1.138056	-0.317828
H102	H	1.079201	-1.135677	-0.472337
