data_functionalizedCrystal
_audit_creation_method	'MofGen! by Chris Wilmer'
_symmetry_space_group_name_H-M	'P1'
_symmetry_Int_Tables_number	1
_symmetry_cell_setting	triclinic
loop_
_symmetry_equiv_pos_as_xyz
  x,y,z
_cell_length_a	15.995343
_cell_length_b	16.992695
_cell_length_c	15.455313
_cell_angle_alpha	87.152573
_cell_angle_beta	87.316795
_cell_angle_gamma	92.921297
loop_
_atom_site_label
_atom_site_type_symbol
_atom_site_fract_x
_atom_site_fract_y
_atom_site_fract_z
O1	O	1.121193	-0.097608	-0.072172
O2	O	0.878252	-0.110095	-0.072165
O3	O	0.998748	0.010291	-0.072162
O4	O	1.000697	-0.217994	-0.072175
O5	O	0.991856	0.003435	0.072100
O6	O	0.871360	-0.116951	0.072097
O7	O	1.114301	-0.104464	0.072090
Cu8	Cu	0.992201	-0.111333	0.085266
Cu9	Cu	1.000352	-0.103225	-0.085341
O10	O	0.993804	-0.224849	0.072086
C11	C	0.843577	-0.113008	-0.000033
C12	C	0.750522	-0.111464	-0.000030
C13	C	0.992796	0.036076	-0.000031
C14	C	0.985320	0.123119	-0.000031
C15	C	1.148976	-0.101551	-0.000044
C16	C	1.242031	-0.103095	-0.000052
C17	C	1.412404	-0.105898	-0.000045
C18	C	1.441565	-0.192798	-0.000051
C19	C	1.538337	-0.194449	0.000279
C20	C	1.580149	-0.108660	-0.000038
C21	C	1.544211	-0.068872	0.082182
C22	C	1.447346	-0.067845	0.082248
C23	C	1.455177	-0.058776	-0.081810
C24	C	1.551939	-0.061932	-0.082888
C25	C	1.674951	-0.110216	-0.000032
C26	C	1.317602	-0.104340	-0.000046
C27	C	0.999756	-0.250634	-0.000046
C28	C	1.007233	-0.337678	-0.000052
N29	N	0.986474	-0.117035	0.205261
C30	C	1.057456	0.173362	-0.000032
C31	C	1.050426	0.255149	-0.000040
C32	C	0.971260	0.286691	-0.000041
C33	C	0.899120	0.236443	-0.000042
C34	C	0.906150	0.154658	-0.000040
C35	C	0.942123	0.530289	-0.000052
C36	C	0.935097	0.612080	-0.000051
C37	C	1.086405	0.630781	-0.000050
C38	C	1.093428	0.548993	-0.000043
C39	C	1.021287	0.498752	-0.000049
N40	N	0.964073	0.370290	-0.000046
N41	N	1.028476	0.415155	-0.000050
N42	N	1.006085	-0.097517	-0.205336
C43	C	1.037685	-0.065910	0.250657
C44	C	1.033362	-0.070229	0.341464
C45	C	0.977832	-0.125679	0.386875
C46	C	0.926615	-0.176806	0.341473
C47	C	0.930934	-0.172482	0.250667
C48	C	0.959187	-0.144321	0.658456
C49	C	0.954874	-0.148642	0.749268
C50	C	1.061621	-0.042064	0.749253
C51	C	1.065938	-0.037748	0.658446
C52	C	1.014718	-0.088873	0.613052
N53	N	0.973414	-0.130097	0.479695
N54	N	1.019133	-0.084451	0.520233
H55	H	1.418628	-0.223678	-0.059005
H56	H	1.075062	-0.028599	0.378425
O57	O	0.864310	0.476114	-0.000046
H58	H	0.866689	0.441201	-0.058849
O59	O	0.828348	0.100461	-0.000030
H60	H	0.772117	0.136132	-0.000020
O61	O	1.410606	-0.111349	0.163956
H62	H	1.462055	-0.132925	0.203049
O63	O	0.866728	-0.236618	0.390452
H64	H	0.831840	-0.271440	0.343627
H65	H	1.145137	0.671696	-0.000047
H66	H	1.580944	0.000906	-0.088095
O67	O	1.422159	0.016342	0.086909
H68	H	1.479154	0.056140	0.089113
O69	O	0.849704	0.646098	-0.000045
H70	H	0.856938	0.711409	-0.000031
O71	O	1.580628	0.014563	0.085953
H72	H	1.624836	0.028591	0.029130
H73	H	1.411987	-0.228732	0.058816
H74	H	1.082908	-0.020761	0.213689
H75	H	0.834661	0.262131	-0.000048
H76	H	1.103320	-0.000440	0.786221
H77	H	1.563378	-0.101772	0.143598
H78	H	1.556223	-0.231314	0.059555
H79	H	1.436917	0.005225	-0.082601
O80	O	0.903954	-0.199471	0.609505
H81	H	0.863010	-0.164479	0.568157
H82	H	1.157893	0.523318	-0.000043
O83	O	1.125824	0.022064	0.609466
H84	H	1.160703	0.056896	0.656289
H85	H	0.889231	-0.214113	0.213706
O86	O	1.570296	-0.236054	-0.077768
H87	H	1.516612	-0.255176	-0.116087
O88	O	1.424115	-0.091168	-0.164390
H89	H	1.377838	-0.141222	-0.148073
H90	H	0.909652	-0.193799	0.786237
O91	O	1.583175	-0.100248	-0.163468
H92	H	1.618651	-0.152351	-0.144600
H93	H	1.121921	0.147687	-0.000026
H94	H	1.109167	0.296053	-0.000039
