data_functionalizedCrystal
_audit_creation_method	'MofGen! by Chris Wilmer'
_symmetry_space_group_name_H-M	'P1'
_symmetry_Int_Tables_number	1
_symmetry_cell_setting	triclinic
loop_
_symmetry_equiv_pos_as_xyz
  x,y,z
_cell_length_a	6.817900
_cell_length_b	7.190334
_cell_length_c	14.125369
_cell_angle_alpha	88.033798
_cell_angle_beta	79.602352
_cell_angle_gamma	119.388224
loop_
_atom_site_label
_atom_site_type_symbol
_atom_site_fract_x
_atom_site_fract_y
_atom_site_fract_z
V1	V	4.207228	0.664172	-0.131581
O2	O	4.207674	0.652392	0.007902
O3	O	4.141767	0.658800	-0.262421
O4	O	4.244717	0.954219	-0.128864
O5	O	4.104012	0.354927	-0.126580
V6	V	4.681937	0.627285	-0.114979
O7	O	4.487820	0.745087	-0.167998
O8	O	4.851542	0.546369	-0.078561
O9	O	4.524190	0.632657	0.015862
O10	O	4.798887	0.639065	-0.254462
O11	O	4.902549	0.936529	-0.119980
O12	O	4.421241	0.337238	-0.117696
C13	C	3.979839	0.648108	-0.294339
C14	C	4.008177	0.645649	-0.401298
C15	C	4.111172	1.024942	-0.123969
C16	C	4.225095	1.266507	-0.122586
C17	C	4.248355	0.650238	-0.649429
C18	C	4.060190	0.641227	-0.597131
C19	C	4.031251	0.643688	-0.488160
C20	C	4.277303	0.647777	-0.758410
C21	C	4.349458	0.643343	0.047774
C22	C	4.300363	0.645816	0.154733
H23	H	3.920831	0.631664	-0.634198
H24	H	4.387702	0.659797	-0.612363
