data_functionalizedCrystal
_audit_creation_method	'MofGen! by Chris Wilmer'
_symmetry_space_group_name_H-M	'P1'
_symmetry_Int_Tables_number	1
_symmetry_cell_setting	triclinic
loop_
_symmetry_equiv_pos_as_xyz
  x,y,z
_cell_length_a	12.837943
_cell_length_b	19.188924
_cell_length_c	11.295483
_cell_angle_alpha	94.078966
_cell_angle_beta	85.461227
_cell_angle_gamma	88.985452
loop_
_atom_site_label
_atom_site_type_symbol
_atom_site_fract_x
_atom_site_fract_y
_atom_site_fract_z
O1	O	1.381626	0.177216	-0.099015
O2	O	1.079861	0.168253	-0.099021
O3	O	1.239454	0.071677	-0.099004
O4	O	1.222032	0.273792	-0.099032
O5	O	1.225437	0.080145	0.099045
O6	O	1.065844	0.176721	0.099028
O7	O	1.367608	0.185684	0.099034
Cu8	Cu	1.215446	0.181976	0.117115
Cu9	Cu	1.232023	0.171961	-0.117102
O10	O	1.208015	0.282260	0.099017
C11	C	1.034246	0.169459	0.000003
C12	C	0.919210	0.160428	0.000001
C13	C	0.677756	0.268995	0.000002
C14	C	0.569669	0.260513	0.000002
C15	C	0.594947	0.134982	0.000007
C16	C	0.703034	0.143464	0.000007
C17	C	0.744434	0.210473	0.000004
C18	C	0.852524	0.218954	-0.000004
C19	C	0.877799	0.093424	0.000010
C20	C	0.769712	0.084942	0.000009
C21	C	1.231883	0.049861	0.000022
C22	C	1.230192	-0.027760	0.000025
C23	C	1.237044	-0.068829	-0.107932
C24	C	1.235442	-0.141762	-0.107941
C25	C	1.227008	-0.173623	0.000013
C26	C	1.220150	-0.132545	0.107984
C27	C	1.221741	-0.059613	0.107990
N28	N	1.277794	-0.285978	0.080362
N29	N	1.276284	-0.355260	0.080349
C30	C	1.222209	-0.393362	0.000001
N31	N	1.169715	-0.359565	-0.080351
N32	N	1.171229	-0.290277	-0.080341
C33	C	1.225280	-0.252705	0.000018
C34	C	1.227323	-0.513514	-0.107973
C35	C	1.225714	-0.586448	-0.107977
C36	C	1.210431	-0.577229	0.107951
C37	C	1.212030	-0.504297	0.107952
C38	C	1.220481	-0.472443	-0.000013
C39	C	1.413224	0.184478	0.000008
C40	C	1.528260	0.193509	0.000002
C41	C	1.215587	0.304076	-0.000011
C42	C	1.217278	0.381696	-0.000022
N43	N	1.203794	0.189019	0.281850
N44	N	1.243683	0.164913	-0.281837
C45	C	1.327561	0.114170	0.531153
C46	C	1.318762	0.119498	0.655815
C47	C	1.177396	0.205000	0.655840
C48	C	1.186194	0.199672	0.531177
C49	C	1.261280	0.154256	0.468838
C50	C	1.270082	0.148932	0.344173
C51	C	1.128711	0.234430	0.344200
C52	C	1.119913	0.239758	0.468863
H53	H	0.561212	0.080431	0.000108
F54	F	1.242734	-0.185479	-0.222848
F55	F	1.349997	0.100598	0.277829
H56	H	1.243922	-0.042898	-0.195846
H57	H	1.388705	0.077195	0.480395
F58	F	0.498707	0.322801	0.000004
F59	F	1.040002	0.288089	0.535219
F60	F	1.097479	0.253326	0.722199
H61	H	1.203556	-0.603170	0.195849
F62	F	0.725639	0.013630	0.000017
H63	H	1.234198	-0.487577	-0.195885
F64	F	1.389306	0.076831	0.722131
H65	H	0.932102	0.045770	0.000002
H66	H	0.886229	0.273516	-0.000005
H67	H	0.711464	0.323556	-0.000002
F68	F	1.211167	-0.166455	0.222876
H69	H	1.216157	-0.026174	0.195904
F70	F	1.058172	0.277098	0.277868
H71	H	1.231288	-0.619885	-0.195893
F72	F	1.204737	-0.460586	0.222857
