data_functionalizedCrystal
_audit_creation_method	'MofGen! by Chris Wilmer'
_symmetry_space_group_name_H-M	'P1'
_symmetry_Int_Tables_number	1
_symmetry_cell_setting	triclinic
loop_
_symmetry_equiv_pos_as_xyz
  x,y,z
_cell_length_a	19.121224
_cell_length_b	12.759399
_cell_length_c	12.759393
_cell_angle_alpha	89.973195
_cell_angle_beta	87.529719
_cell_angle_gamma	92.446835
loop_
_atom_site_label
_atom_site_type_symbol
_atom_site_fract_x
_atom_site_fract_y
_atom_site_fract_z
Zn1	Zn	-1.073826	0.349881	0.662852
Zn2	Zn	-0.573826	0.849881	1.162852
Zn3	Zn	-1.073754	0.525601	0.487179
Zn4	Zn	-0.573754	1.025601	0.987179
Zn5	Zn	-0.956366	0.357407	0.479661
Zn6	Zn	-0.456366	0.857407	0.979661
Zn7	Zn	-0.956362	0.532993	0.655294
Zn8	Zn	-0.456362	1.032993	1.155294
O9	O	-1.015077	0.441470	0.571246
O10	O	-0.515077	0.941470	1.071246
O11	O	-1.172104	0.366947	0.645858
O12	O	-0.672104	0.866947	1.145858
O13	O	-1.058154	0.503345	0.339159
O14	O	-0.558154	1.003345	0.839159
O15	O	-0.971979	0.209385	0.503978
O16	O	-0.471979	0.709385	1.003978
O17	O	-1.172051	0.496048	0.516791
O18	O	-0.672051	0.996048	1.016791
O19	O	-1.058277	0.203856	0.638568
O20	O	-0.558277	0.703856	1.138568
O21	O	-0.971910	0.379774	0.333635
O22	O	-0.471910	0.879774	0.833635
O23	O	-0.858079	0.386942	0.496650
O24	O	-0.358079	0.886942	0.996650
O25	O	-0.971972	0.508647	0.803320
O26	O	-0.471972	1.008647	1.303320
O27	O	-0.858076	0.515945	0.625687
O28	O	-0.358076	1.015945	1.125687
O29	O	-1.058273	0.374115	0.808872
O30	O	-0.558273	0.874115	1.308872
O31	O	-1.058150	0.673605	0.509463
O32	O	-0.558150	1.173605	1.009463
O33	O	-0.971902	0.679036	0.632977
O34	O	-0.471902	1.179036	1.132977
C35	C	-0.832593	0.453063	0.559533
C36	C	-0.332593	0.953063	1.059533
C37	C	-0.754525	0.458048	0.554547
C38	C	-0.254525	0.958048	1.054547
C39	C	-0.312988	0.489606	0.523005
C40	C	0.187012	0.989606	1.023005
C41	C	-0.386341	0.484917	0.527682
C42	C	0.113659	0.984917	1.027682
C43	C	-0.423047	0.415466	0.597328
C44	C	0.076953	0.915466	1.097328
C45	C	-0.386396	0.350693	0.662293
C46	C	0.113604	0.850693	1.162293
C47	C	-0.313044	0.355377	0.657610
C48	C	0.186956	0.855377	1.157610
C49	C	-0.644522	0.397959	0.614830
C50	C	-0.144522	0.897959	1.114830
C51	C	-0.717879	0.393282	0.619510
C52	C	-0.217879	0.893282	1.119510
C53	C	-0.717819	0.527505	0.484896
C54	C	-0.217819	1.027505	0.984896
C55	C	-0.644466	0.532188	0.480224
C56	C	-0.144466	1.032188	0.980224
C57	C	-0.607822	0.467411	0.545186
C58	C	-0.107822	0.967411	1.045186
C59	C	-0.498025	0.410673	0.602112
C60	C	0.001975	0.910673	1.102112
C61	C	-0.532844	0.472199	0.540395
C62	C	-0.032844	0.972199	1.040395
C63	C	-1.015037	0.714440	0.571240
C64	C	-0.515037	1.214440	1.071240
C65	C	-1.015084	0.831214	0.571276
C66	C	-0.515084	1.331214	1.071276
C67	C	-0.198274	0.429825	0.582994
C68	C	0.301726	0.929825	1.082994
C69	C	-0.276342	0.424840	0.587968
C70	C	0.223658	0.924840	1.087968
C71	C	-1.060045	0.883210	0.507046
C72	C	-0.560045	1.383210	1.007046
C73	C	-1.060091	0.992931	0.507092
C74	C	-0.560091	1.492931	1.007092
C75	C	-0.970209	0.998651	0.635600
C76	C	-0.470209	1.498651	1.135600
C77	C	-0.970167	0.888932	0.635559
C78	C	-0.470167	1.388932	1.135559
C79	C	-1.015130	0.441366	0.845283
C80	C	-0.515130	0.941366	1.345283
C81	C	-1.015152	0.441322	0.962061
C82	C	-0.515152	0.941322	1.462061
C83	C	-1.015139	1.167433	0.571296
C84	C	-0.515139	1.667433	1.071296
C85	C	-1.015172	1.050654	0.571363
C86	C	-0.515172	1.550654	1.071363
C87	C	-1.015065	0.441496	0.298278
C88	C	-0.515065	0.941496	0.798278
C89	C	-1.015179	0.441236	0.181509
C90	C	-0.515179	0.941236	0.681509
C91	C	-1.060092	0.371260	1.019817
C92	C	-0.560092	0.871260	1.519817
C93	C	-1.060104	0.371214	1.129542
C94	C	-0.560104	0.871214	1.629542
C95	C	-0.970234	0.511301	1.123746
C96	C	-0.470234	1.011301	1.623746
C97	C	-0.970219	0.511341	1.014023
C98	C	-0.470219	1.011341	1.514023
H99	H	-0.502955	0.528742	0.483687
H100	H	-0.002955	1.028742	0.983687
H101	H	-1.096620	0.836218	0.454704
H102	H	-0.596620	1.336218	0.954704
H103	H	-1.096704	1.035260	0.454791
H104	H	-0.596704	1.535260	0.954791
H105	H	-0.933554	0.846594	0.687868
H106	H	-0.433554	1.346594	1.187868
H107	H	-0.527919	0.354129	0.658821
H108	H	-0.027919	0.854129	1.158821
C109	C	-1.109544	0.294143	1.193068
C110	C	-0.609544	0.794143	1.693068
N111	N	-1.146784	0.236089	1.240915
N112	N	-0.646784	0.736089	1.740915
H113	H	-0.933652	0.568310	1.166067
H114	H	-0.433652	1.068310	1.666067
C115	C	-0.758133	0.598743	0.413432
C116	C	-0.258133	1.098743	0.913432
N117	N	-0.788499	0.652398	0.359597
N118	N	-0.288499	1.152398	0.859597
H119	H	-0.933618	0.568393	0.966997
H120	H	-0.433618	1.068393	1.466997
H121	H	-0.747763	0.336719	0.676222
H122	H	-0.247763	0.836719	1.176222
C123	C	-0.272618	0.566006	0.446387
C124	C	0.227382	1.066006	0.946387
N125	N	-0.242213	0.623550	0.388672
N126	N	0.257787	1.123550	0.888672
H127	H	-0.933638	1.045658	0.687936
H128	H	-0.433638	1.545658	1.187936
H129	H	-0.416174	0.537654	0.474780
H130	H	0.083826	1.037654	0.974780
H131	H	-0.283208	0.302634	0.710507
H132	H	0.216792	0.802634	1.210507
C133	C	-1.109514	0.294228	0.962662
C134	C	-0.609514	0.794228	1.462662
N135	N	-1.146737	0.236202	0.919617
N136	N	-0.646737	0.736202	1.419617
H137	H	-0.614585	0.588740	0.423510
H138	H	-0.114585	1.088740	0.923510
C139	C	-0.604223	0.326709	0.686298
C140	C	-0.104223	0.826709	1.186298
N141	N	-0.573867	0.273043	0.740133
N142	N	-0.073867	0.773043	1.240133
H143	H	-0.416288	0.294140	0.718996
H144	H	0.083712	0.794140	1.218996
