data_functionalizedCrystal
_audit_creation_method	'MofGen! by Chris Wilmer'
_symmetry_space_group_name_H-M	'P1'
_symmetry_Int_Tables_number	1
_symmetry_cell_setting	triclinic
loop_
_symmetry_equiv_pos_as_xyz
  x,y,z
_cell_length_a	10.685980
_cell_length_b	12.645330
_cell_length_c	10.686551
_cell_angle_alpha	85.593389
_cell_angle_beta	81.591741
_cell_angle_gamma	94.379365
loop_
_atom_site_label
_atom_site_type_symbol
_atom_site_fract_x
_atom_site_fract_y
_atom_site_fract_z
Zn1	Zn	1.995799	-0.237609	-0.866702
Zn2	Zn	1.979386	-0.429655	-0.654437
Zn3	Zn	1.767228	-0.267114	-0.638166
Zn4	Zn	1.783509	-0.429552	-0.850347
O5	O	1.881481	-0.340982	-0.752413
O6	O	2.171255	-0.250779	-0.852198
O7	O	1.937559	-0.420485	-0.474646
O8	O	1.797603	-0.114847	-0.668517
O9	O	2.159196	-0.391875	-0.696248
O10	O	1.965534	-0.093170	-0.836421
O11	O	1.781688	-0.301066	-0.462692
O12	O	1.591755	-0.300966	-0.652659
O13	O	1.825353	-0.391699	-1.030149
O14	O	1.603717	-0.420309	-0.808547
O15	O	1.981322	-0.250679	-1.042165
O16	O	1.953347	-0.577995	-0.680390
O17	O	1.809438	-0.577919	-0.824324
C18	C	1.551677	-0.363829	-0.727063
C19	C	1.410589	-0.373626	-0.716249
C20	C	1.881415	-0.616419	-0.752378
C21	C	1.881506	-0.734240	-0.752415
C22	C	1.971867	-0.901833	-0.661654
C23	C	1.972204	-0.779234	-0.661919
C24	C	1.928056	-0.766809	-0.889001
C25	C	1.928793	-0.889390	-0.888539
C26	C	1.744657	-0.913250	-0.707905
C27	C	1.745070	-0.790810	-0.704953
C28	C	2.212571	-0.318047	-0.777863
C29	C	2.353663	-0.308274	-0.788708
C30	C	1.906984	-0.317887	-1.083503
C31	C	1.917853	-0.308045	-1.224593
C32	C	1.881583	-0.064466	-0.752479
C33	C	1.881627	0.053368	-0.752506
C34	C	1.856149	-0.363907	-0.422617
C35	C	1.845526	-0.373433	-0.281546
H36	H	1.412863	-0.244821	-0.859014
Br37	Br	1.311915	-0.479379	-0.599036
H38	H	1.941889	-0.757699	-0.560966
Br39	Br	1.921787	-0.965207	-0.492937
H40	H	1.988099	-0.244533	-1.283779
Br41	Br	1.625565	-0.740971	-0.805775
Br42	Br	1.728465	-0.479301	-1.182916
H43	H	2.029217	-0.909076	-0.925122
Br44	Br	2.139689	-0.939013	-0.711689
H45	H	2.073444	-0.741351	-0.692237
Br46	Br	1.824915	-0.937942	-1.006114
Br47	Br	1.822575	-0.717516	-1.005587
H48	H	2.027409	-0.727238	-0.925982
H49	H	1.704307	-0.953209	-0.609504
H50	H	1.710157	-0.770552	-0.604387
H51	H	1.677295	-0.942331	-0.773950
