data_functionalizedCrystal
_audit_creation_method	'MofGen! by Chris Wilmer'
_symmetry_space_group_name_H-M	'P1'
_symmetry_Int_Tables_number	1
_symmetry_cell_setting	triclinic
loop_
_symmetry_equiv_pos_as_xyz
  x,y,z
_cell_length_a	15.944551
_cell_length_b	15.944551
_cell_length_c	15.021413
_cell_angle_alpha	90.008907
_cell_angle_beta	90.002826
_cell_angle_gamma	96.501262
loop_
_atom_site_label
_atom_site_type_symbol
_atom_site_fract_x
_atom_site_fract_y
_atom_site_fract_z
O1	O	-1.114529	0.108321	-0.073929
O2	O	-0.614529	0.608321	0.426071
O3	O	-0.869979	0.121677	-0.073950
O4	O	-0.369979	0.621677	0.426050
O5	O	-0.998932	-0.007276	-0.073944
O6	O	-0.498932	0.492724	0.426056
O7	O	-0.985576	0.237274	-0.073935
O8	O	-0.485576	0.737274	0.426065
O9	O	-0.998912	-0.007257	0.074120
O10	O	-0.498912	0.492743	0.574120
O11	O	-0.869959	0.121695	0.074114
O12	O	-0.369959	0.621695	0.574114
O13	O	-1.114508	0.108339	0.074135
O14	O	-0.614508	0.608339	0.574135
Zn15	Zn	-0.992230	0.115020	0.097633
Zn16	Zn	-0.492230	0.615020	0.597633
Zn17	Zn	-0.992257	0.114996	-0.097448
Zn18	Zn	-0.492257	0.614996	0.402552
O19	O	-0.985555	0.237292	0.074129
O20	O	-0.485555	0.737292	0.574129
C21	C	-0.838675	0.121132	0.000079
C22	C	-0.338675	0.621132	0.500079
C23	C	-0.745429	0.119470	0.000070
C24	C	-0.245429	0.619470	0.500070
C25	C	-0.998367	-0.038561	0.000084
C26	C	-0.498367	0.461439	0.500084
C27	C	-0.996705	-0.131807	0.000075
C28	C	-0.496705	0.368193	0.500075
C29	C	-1.145813	0.108885	0.000104
C30	C	-0.645813	0.608885	0.500104
C31	C	-1.239059	0.110547	0.000106
C32	C	-0.739059	0.610547	0.500106
N33	N	-0.992218	0.115036	0.230770
N34	N	-0.492218	0.615036	0.730770
C35	C	-0.530572	0.035565	0.000085
C36	C	-0.030572	0.535565	0.500085
C37	C	-0.469562	0.074518	-0.072917
C38	C	0.030438	0.574518	0.427083
C39	C	-0.574703	0.116462	0.000081
C40	C	-0.074703	0.616462	0.500081
C41	C	-0.469564	0.074556	0.073062
C42	C	0.030436	0.574556	0.573062
C43	C	-0.409790	0.113551	0.000095
C44	C	0.090210	0.613551	0.500095
C45	C	-0.514921	0.155438	-0.072981
C46	C	-0.014921	0.655438	0.427019
C47	C	-0.514930	0.155464	0.073064
C48	C	-0.014930	0.655464	0.573064
C49	C	-0.453937	0.194476	0.000044
C50	C	0.046063	0.694476	0.500044
C51	C	-0.669705	0.118137	0.000072
C52	C	-0.169705	0.618137	0.500072
C53	C	-0.314789	0.111883	0.000097
C54	C	0.185211	0.611883	0.500097
C55	C	-0.986120	0.268577	0.000098
C56	C	-0.486120	0.768577	0.500098
C57	C	-0.987782	0.361823	0.000102
C58	C	-0.487782	0.861823	0.500102
C59	C	-1.071687	0.576680	0.000096
C60	C	-0.571687	1.076680	0.500096
C61	C	-1.032714	0.637705	0.073097
C62	C	-0.532714	1.137705	0.573097
C63	C	-0.990790	0.532549	0.000094
C64	C	-0.490790	1.032549	0.500094
C65	C	-1.032715	0.637672	-0.072883
C66	C	-0.532715	1.137672	0.427117
C67	C	-0.993700	0.697462	0.000083
C68	C	-0.493700	1.197462	0.500083
C69	C	-0.951795	0.592346	0.073156
C70	C	-0.451795	1.092346	0.573156
C71	C	-0.951807	0.592307	-0.072890
C72	C	-0.451807	1.092307	0.427110
C73	C	-0.912776	0.653315	0.000129
C74	C	-0.412776	1.153315	0.500129
C75	C	-0.989115	0.437547	0.000102
C76	C	-0.489115	0.937547	0.500102
C77	C	-0.995369	0.792463	0.000082
C78	C	-0.495369	1.292463	0.500082
N79	N	-0.992276	0.114973	-0.230586
N80	N	-0.492276	0.614973	0.269414
C81	C	-0.932581	0.174636	0.470451
C82	C	-0.432581	0.674636	0.970451
C83	C	-1.008481	0.190943	0.529793
C84	C	-0.508481	0.690943	1.029793
C85	C	-0.992239	0.115015	0.412377
C86	C	-0.492239	0.615015	0.912377
C87	C	-0.916360	0.098727	0.529777
C88	C	-0.416360	0.598727	1.029777
C89	C	-0.992253	0.114997	0.587801
C90	C	-0.492253	0.614997	1.087801
C91	C	-1.068178	0.131360	0.470413
C92	C	-0.568178	0.631360	0.970413
C93	C	-0.976006	0.039111	0.470392
C94	C	-0.476006	0.539111	0.970392
C95	C	-1.051962	0.055386	0.529707
C96	C	-0.551962	0.555386	1.029707
C97	C	-0.992230	0.115028	0.311320
C98	C	-0.492230	0.615028	0.811320
C99	C	-0.992271	0.114984	0.688857
C100	C	-0.492271	0.614984	1.188857
H101	H	-0.563905	-0.031573	-0.000008
H102	H	-0.063905	0.468427	0.499992
H103	H	-1.102474	0.004956	0.555562
H104	H	-0.602474	0.504956	1.055562
H105	H	-0.845569	0.686473	0.000164
H106	H	-0.345569	1.186473	0.500164
H107	H	-0.917629	0.572171	-0.134615
H108	H	-0.417629	1.072171	0.365385
H109	H	-1.066922	0.657820	0.134819
H110	H	-0.566922	1.157820	0.634819
H111	H	-0.882181	0.225096	0.444433
H112	H	-0.382181	0.725096	0.944433
H113	H	-0.449461	0.040295	-0.134638
H114	H	0.050539	0.540295	0.365362
Br115	Br	-0.953063	-0.067832	0.426867
Br116	Br	-0.453063	0.432168	0.926867
Br117	Br	-0.809398	0.075777	0.573245
Br118	Br	-0.309398	0.575777	1.073245
H119	H	-0.917597	0.572362	0.134939
H120	H	-0.417597	1.072362	0.634939
Br121	Br	-0.548243	0.212413	-0.175961
Br122	Br	-0.048243	0.712413	0.324039
H123	H	-1.022224	0.255126	0.555884
H124	H	-0.522224	0.755126	1.055884
H125	H	-1.132368	0.145206	0.444446
H126	H	-0.632368	0.645206	0.944446
H127	H	-1.066955	0.657754	-0.134596
H128	H	-0.566955	1.157754	0.365404
Br129	Br	-0.398667	0.306490	-0.000014
Br130	Br	0.101333	0.806490	0.499986
H131	H	-0.449470	0.040332	0.134777
H132	H	0.050530	0.540332	0.634777
Br133	Br	-1.183604	0.521165	0.000219
Br134	Br	-0.683604	1.021165	0.500219
Br135	Br	-0.548472	0.212461	0.175941
Br136	Br	-0.048472	0.712461	0.675941
