data_functionalizedCrystal
_audit_creation_method	'MofGen! by Chris Wilmer'
_symmetry_space_group_name_H-M	'P1'
_symmetry_Int_Tables_number	1
_symmetry_cell_setting	triclinic
loop_
_symmetry_equiv_pos_as_xyz
  x,y,z
_cell_length_a	10.723023
_cell_length_b	14.519731
_cell_length_c	9.798715
_cell_angle_alpha	89.995867
_cell_angle_beta	89.996770
_cell_angle_gamma	84.078200
loop_
_atom_site_label
_atom_site_type_symbol
_atom_site_fract_x
_atom_site_fract_y
_atom_site_fract_z
O1	O	1.655992	0.129343	-0.113480
O2	O	2.155992	0.629343	0.386520
O3	O	1.292725	0.141724	-0.113487
O4	O	1.792725	0.641724	0.386513
O5	O	1.483976	0.001346	-0.113471
O6	O	1.983976	0.501346	0.386529
O7	O	1.464741	0.269722	-0.113496
O8	O	1.964741	0.769722	0.386504
O9	O	1.483962	0.001345	0.113511
O10	O	1.983962	0.501345	0.613511
O11	O	1.292710	0.141724	0.113496
O12	O	1.792710	0.641724	0.613496
O13	O	1.655977	0.129342	0.113502
O14	O	2.155977	0.629342	0.613502
Zn15	Zn	1.474342	0.135533	0.149537
Zn16	Zn	1.974342	0.635533	0.649537
Zn17	Zn	1.474360	0.135534	-0.149522
Zn18	Zn	1.974360	0.635534	0.350478
O19	O	1.464726	0.269721	0.113486
O20	O	1.964726	0.769721	0.613486
C21	C	1.246226	0.140823	0.000004
C22	C	1.746226	0.640823	0.500004
C23	C	1.107697	0.138128	0.000002
C24	C	1.607697	0.638128	0.500002
C25	C	1.045929	0.136926	0.117585
C26	C	1.545929	0.636926	0.617585
C27	C	0.902751	0.134140	0.117585
C28	C	1.402751	0.634140	0.617585
C29	C	1.483067	-0.033019	0.000020
C30	C	1.983067	0.466981	0.500020
C31	C	1.480367	-0.135413	0.000021
C32	C	1.980367	0.364587	0.500021
C33	C	1.478172	-0.218568	0.000018
C34	C	1.978172	0.281432	0.500018
C35	C	1.475430	-0.322891	0.000008
C36	C	1.975430	0.177109	0.500008
C37	C	1.473254	-0.406041	-0.000001
C38	C	1.973254	0.093959	0.499999
C39	C	1.470512	-0.510370	-0.000009
C40	C	1.970512	-0.010370	0.499991
C41	C	1.702476	0.130243	0.000008
C42	C	2.202476	0.630243	0.500008
C43	C	1.841005	0.132939	0.000001
C44	C	2.341005	0.632939	0.500001
C45	C	1.465635	0.304085	-0.000008
C46	C	1.965635	0.804085	0.499992
C47	C	1.468336	0.406479	-0.000018
C48	C	1.968336	0.906479	0.499982
N49	N	1.474338	0.135532	0.353637
N50	N	1.974338	0.635532	0.853637
N51	N	1.474374	0.135527	-0.353622
N52	N	1.974374	0.635527	0.146378
C53	C	1.554642	0.076331	0.421420
C54	C	2.054642	0.576331	0.921420
C55	C	1.554662	0.076328	0.578583
C56	C	2.054662	0.576328	1.078583
H57	H	0.849631	0.133112	0.218252
H58	H	1.349631	0.633112	0.718252
H59	H	1.099046	0.137954	0.218251
H60	H	1.599046	0.637954	0.718251
H61	H	0.894116	0.133978	-0.100671
H62	H	1.394116	0.633978	0.399329
N63	N	1.640752	0.012644	0.348293
N64	N	2.140752	0.512644	0.848293
N65	N	1.716159	-0.043082	0.411941
N66	N	2.216159	0.456918	0.911941
H67	H	1.776925	-0.088103	0.360299
H68	H	2.276925	0.411897	0.860299
N69	N	1.640913	0.012728	0.651676
N70	N	2.140913	0.512728	1.151676
N71	N	1.716390	-0.042931	0.588006
N72	N	2.216390	0.457069	1.088006
H73	H	1.777308	-0.087852	0.639629
H74	H	2.277308	0.412148	1.139629
N75	N	1.388086	0.199114	0.426764
N76	N	1.888086	0.699114	0.926764
N77	N	1.272694	0.197319	0.410930
N78	N	1.772694	0.697319	0.910930
H79	H	1.211773	0.242226	0.462572
H80	H	1.711773	0.742226	0.962572
H81	H	1.405624	0.186218	0.588096
H82	H	1.905624	0.686218	1.088096
N83	N	1.041080	0.136811	-0.126291
N84	N	1.541080	0.636811	0.373709
N85	N	0.979776	0.070499	-0.153788
N86	N	1.479776	0.570499	0.346212
H87	H	0.932731	0.069566	-0.242987
H88	H	1.432731	0.569566	0.257013
