data_functionalizedCrystal
_audit_creation_method	'MofGen! by Chris Wilmer'
_symmetry_space_group_name_H-M	'P1'
_symmetry_Int_Tables_number	1
_symmetry_cell_setting	triclinic
loop_
_symmetry_equiv_pos_as_xyz
  x,y,z
_cell_length_a	23.532355
_cell_length_b	19.288871
_cell_length_c	18.366186
_cell_angle_alpha	90.007393
_cell_angle_beta	89.996770
_cell_angle_gamma	97.016777
loop_
_atom_site_label
_atom_site_type_symbol
_atom_site_fract_x
_atom_site_fract_y
_atom_site_fract_z
O1	O	0.755458	-0.084147	-0.060453
O2	O	0.589616	-0.096385	-0.060476
O3	O	0.677328	0.010880	-0.060457
O4	O	0.667747	-0.191412	-0.060472
O5	O	0.677313	0.010885	0.060643
O6	O	0.589602	-0.096380	0.060623
O7	O	0.755444	-0.084142	0.060647
Zn8	Zn	0.672520	-0.090260	0.079862
Zn9	Zn	0.672540	-0.090267	-0.079691
O10	O	0.667732	-0.191407	0.060628
C11	C	0.568392	-0.096077	0.000071
C12	C	0.505171	-0.095157	0.000062
C13	C	0.113137	-0.089375	0.066104
C14	C	0.053736	-0.088500	0.066107
O15	O	0.023009	-0.088022	0.122247
N16	N	0.024035	-0.088069	0.000096
C17	C	0.053739	-0.088506	-0.065922
O18	O	0.023021	-0.088059	-0.122069
C19	C	0.113139	-0.089376	-0.065924
C20	C	0.142837	-0.089814	0.000091
C21	C	0.142835	-0.089813	0.132114
C22	C	0.202232	-0.090689	0.132111
C23	C	0.231931	-0.091128	0.066098
C24	C	0.202234	-0.090691	0.000088
C25	C	0.142842	-0.089808	-0.131942
C26	C	0.202247	-0.090678	-0.131938
C27	C	0.231945	-0.091116	-0.065923
C28	C	0.291330	-0.092006	-0.065928
N29	N	0.321031	-0.092437	0.000083
C30	C	0.291332	-0.091998	0.066096
C31	C	-0.071007	-0.086678	-0.065913
C32	C	-0.130407	-0.085813	-0.065911
C33	C	-0.130405	-0.085806	0.066118
C34	C	-0.071005	-0.086676	0.066116
C35	C	-0.041306	-0.087109	0.000098
C36	C	0.416070	-0.093839	0.066084
C37	C	0.475472	-0.094718	0.066075
C38	C	0.475465	-0.094721	-0.065954
C39	C	0.416068	-0.093846	-0.065945
C40	C	0.386372	-0.093402	0.000080
O41	O	0.322095	-0.092482	-0.122039
O42	O	0.322058	-0.092436	0.122234
C43	C	0.677011	0.036758	0.000093
C44	C	0.676084	0.113858	0.000094
C45	C	0.776668	-0.084450	0.000098
C46	C	0.839889	-0.085370	0.000102
N47	N	0.672511	-0.090255	0.188753
C48	C	0.669418	0.669409	0.066093
C49	C	0.670283	0.596964	0.066096
C50	C	0.670727	0.560731	0.000085
C51	C	0.670290	0.596947	-0.065934
C52	C	0.669420	0.669390	-0.065935
C53	C	0.705469	0.451513	-0.050482
C54	C	0.706343	0.379072	-0.050478
C55	C	0.673410	0.337294	0.000086
C56	C	0.639609	0.367966	0.050659
C57	C	0.638739	0.440409	0.050658
C58	C	0.671671	0.482179	0.000079
C59	C	0.674780	0.222533	0.066105
C60	C	0.675642	0.150086	0.066105
C61	C	0.675654	0.150071	-0.065927
C62	C	0.674787	0.222516	-0.065925
C63	C	0.674353	0.258743	0.000093
C64	C	0.668051	0.782716	0.000079
C65	C	0.668985	0.705617	0.000082
N66	N	0.672554	-0.090266	-0.188583
C67	C	0.711362	-0.042781	0.226862
C68	C	0.711366	-0.042778	0.303090
C69	C	0.672524	-0.090261	0.341206
C70	C	0.633665	-0.137738	0.303088
C71	C	0.633659	-0.137735	0.226862
C72	C	0.664901	-0.153574	0.461961
C73	C	0.664911	-0.153577	0.538186
C74	C	0.672540	-0.090269	0.576314
C75	C	0.680170	-0.026955	0.538207
C76	C	0.680164	-0.026952	0.461981
C77	C	0.672526	-0.090269	0.423861
C78	C	0.711397	-0.042788	0.697078
C79	C	0.711397	-0.042784	0.773307
C80	C	0.633699	-0.137750	0.773303
C81	C	0.633697	-0.137748	0.697075
C82	C	0.672549	-0.090268	0.658967
H83	H	0.391898	-0.093484	0.119848
C84	C	0.590971	-0.189981	0.655150
H85	H	0.596529	-0.183178	0.604294
H86	H	0.597042	-0.236297	0.667636
H87	H	0.552980	-0.182684	0.667647
H88	H	0.686375	0.024601	0.430957
H89	H	0.226407	-0.091041	0.185868
H90	H	-0.046829	-0.087033	0.119872
H91	H	0.686382	0.024597	0.569249
H92	H	-0.154597	-0.085447	0.119870
H93	H	-0.154583	-0.085467	-0.119668
H94	H	0.602038	-0.176398	0.334126
C95	C	-0.038344	-0.087169	-0.138537
H96	H	-0.064546	-0.086794	-0.177845
H97	H	-0.010722	-0.047000	-0.141288
H98	H	-0.019625	-0.128026	-0.141285
C99	C	0.674297	0.262387	0.138717
H100	H	0.673725	0.310719	0.129263
H101	H	0.641233	0.244989	0.165840
H102	H	0.707646	0.256048	0.165842
C103	C	0.754123	0.009444	0.655152
H104	H	0.748560	0.002641	0.604296
H105	H	0.748056	0.055761	0.667654
H106	H	0.792115	0.002144	0.667636
H107	H	0.733868	0.354105	-0.091655
C108	C	0.110190	-0.089311	-0.204560
H109	H	0.136395	-0.089685	-0.243868
H110	H	0.082564	-0.129475	-0.207327
H111	H	0.091475	-0.048450	-0.207292
C112	C	0.741689	0.497461	-0.106118
H113	H	0.761946	0.468820	-0.136231
H114	H	0.717295	0.521703	-0.135363
H115	H	0.768175	0.530198	-0.081079
H116	H	0.226425	-0.091031	-0.185699
H117	H	0.675993	0.120606	0.119861
C118	C	0.590925	-0.189963	0.184940
H119	H	0.567793	-0.218245	0.218555
H120	H	0.567282	-0.165130	0.155209
H121	H	0.611340	-0.218748	0.155199
C122	C	0.110174	-0.089336	0.204735
H123	H	0.136375	-0.089726	0.244041
H124	H	0.091447	-0.048489	0.207497
H125	H	0.082556	-0.129515	0.207477
H126	H	0.743032	-0.004122	0.804336
C127	C	0.383397	-0.093387	-0.138560
H128	H	0.409595	-0.093776	-0.177874
H129	H	0.355775	-0.133557	-0.141297
H130	H	0.364676	-0.052531	-0.141310
H131	H	0.676008	0.120570	-0.119674
H132	H	0.674438	0.251997	-0.119678
C133	C	0.754110	0.009426	0.184944
H134	H	0.748552	0.002620	0.134087
H135	H	0.748068	0.055753	0.197435
H136	H	0.792094	0.002096	0.197439
H137	H	0.499649	-0.095077	0.119835
H138	H	0.602071	-0.176409	0.804337
C139	C	0.670781	0.557095	-0.138544
H140	H	0.671368	0.508766	-0.129089
H141	H	0.637437	0.563429	-0.165673
H142	H	0.703850	0.574500	-0.165662
C143	C	0.668953	0.709222	-0.138550
H144	H	0.669344	0.677271	-0.177865
H145	H	0.635412	0.731955	-0.141302
H146	H	0.701825	0.743009	-0.141286
H147	H	0.499657	-0.095082	-0.119700
H148	H	0.743004	-0.004118	0.334124
C149	C	0.668933	0.709253	0.138709
H150	H	0.669309	0.677308	0.178023
H151	H	0.701795	0.743049	0.141458
H152	H	0.635383	0.731976	0.141449
C153	C	0.656505	-0.223215	0.420025
H154	H	0.657588	-0.214146	0.369170
H155	H	0.686218	-0.250245	0.432503
H156	H	0.620520	-0.248211	0.432522
C157	C	0.670763	0.557127	0.138710
H158	H	0.670383	0.589079	0.178026
H159	H	0.637900	0.523333	0.141455
H160	H	0.704313	0.534405	0.141449
C161	C	0.656522	-0.223219	0.580097
H162	H	0.651968	-0.260922	0.546474
H163	H	0.689056	-0.226868	0.609822
H164	H	0.623358	-0.224836	0.609841
H165	H	0.611218	0.465380	0.091836
C166	C	0.603374	0.322019	0.106277
H167	H	0.608726	0.274481	0.099030
H168	H	0.614951	0.335846	0.154204
H169	H	0.564087	0.327375	0.099897
