data_functionalizedCrystal
_audit_creation_method	'MofGen! by Chris Wilmer'
_symmetry_space_group_name_H-M	'P1'
_symmetry_Int_Tables_number	1
_symmetry_cell_setting	triclinic
loop_
_symmetry_equiv_pos_as_xyz
  x,y,z
_cell_length_a	16.109301
_cell_length_b	15.944551
_cell_length_c	14.586319
_cell_angle_alpha	89.995256
_cell_angle_beta	89.999213
_cell_angle_gamma	83.480109
loop_
_atom_site_label
_atom_site_type_symbol
_atom_site_fract_x
_atom_site_fract_y
_atom_site_fract_z
O1	O	1.103166	0.107966	-0.076184
O2	O	0.861108	0.121403	-0.076199
O3	O	0.988747	-0.007593	-0.076183
O4	O	0.975527	0.236961	-0.076200
O5	O	0.988738	-0.007595	0.076298
O6	O	0.861099	0.121401	0.076282
O7	O	1.103157	0.107964	0.076296
Cu8	Cu	0.982127	0.114682	0.090212
Cu9	Cu	0.982138	0.114685	-0.090114
O10	O	0.975518	0.236960	0.076280
C11	C	0.830129	0.120857	0.000039
C12	C	0.737833	0.119226	0.000034
C13	C	0.515584	0.191975	0.000040
C14	C	0.428863	0.190435	0.000046
C15	C	0.448688	0.037387	0.000053
C16	C	0.535407	0.038927	0.000053
C17	C	0.568853	0.116224	0.000042
C18	C	0.395412	0.113143	0.000047
C19	C	0.301386	0.111473	0.000054
C20	C	0.662885	0.117894	0.000037
C21	C	0.988194	-0.038887	0.000057
C22	C	0.986548	-0.132133	0.000058
C23	C	0.903499	-0.346962	0.000040
C24	C	0.942060	-0.407993	0.075225
C25	C	0.983572	-0.302858	0.000051
C26	C	0.942088	-0.407975	-0.075109
C27	C	0.980691	-0.467769	0.000040
C28	C	1.022155	-0.362660	0.075297
C29	C	1.022171	-0.362636	-0.075104
C30	C	1.060790	-0.423649	0.000099
C31	C	0.985229	-0.207856	0.000058
C32	C	0.979039	-0.562770	0.000039
C33	C	1.134136	0.108510	0.000056
C34	C	1.226432	0.110141	0.000055
C35	C	0.976071	0.268254	0.000038
C36	C	0.977717	0.361500	0.000031
N37	N	0.982126	0.114680	0.217044
N38	N	0.982146	0.114680	-0.216946
C39	C	1.038663	0.057580	0.452057
C40	C	1.038666	0.057578	0.548038
C41	C	0.925602	0.171783	0.548034
C42	C	0.925597	0.171780	0.452054
C43	C	0.982132	0.114680	0.404068
C44	C	0.982140	0.114680	0.596029
C45	C	0.982142	0.114679	0.700096
C46	C	0.982129	0.114680	0.299995
H47	H	0.385495	0.252119	0.000045
O48	O	1.093502	0.002145	0.594796
C49	C	1.143653	-0.048437	0.742658
C50	C	1.081492	0.014377	0.689820
H51	H	1.133977	-0.038557	0.819493
H52	H	1.132819	-0.115737	0.723861
H53	H	1.210231	-0.037478	0.723725
H54	H	1.014890	0.003495	0.708724
H55	H	1.092399	0.081655	0.708621
H56	H	1.055990	-0.342682	0.138930
H57	H	0.542812	0.254914	0.000037
O58	O	0.870648	0.227332	0.405574
C59	C	0.758471	0.340573	0.415689
C60	C	0.820666	0.277727	0.468442
H61	H	0.718033	0.381322	0.466496
H62	H	0.794320	0.382601	0.370769
H63	H	0.716975	0.304274	0.370739
H64	H	0.862178	0.313956	0.513442
H65	H	0.784765	0.235700	0.513305
O66	O	0.587277	-0.034584	0.000092
C67	C	0.729662	-0.100032	0.000039
C68	C	0.671016	-0.016725	0.000013
H69	H	0.797376	-0.085622	-0.000044
H70	H	0.717564	-0.138087	0.063868
H71	H	0.717453	-0.138069	-0.063758
H72	H	0.683190	0.021380	0.063767
H73	H	0.683125	0.021266	-0.063858
O74	O	0.824196	-0.307232	0.000282
C75	C	0.692404	-0.285179	0.079789
C76	C	0.782194	-0.330212	0.079636
H77	H	0.658414	-0.303755	0.143930
H78	H	0.694345	-0.213930	0.079192
H79	H	0.657961	-0.304559	0.016312
H80	H	0.816690	-0.310901	0.143102
H81	H	0.780193	-0.401452	0.080184
O82	O	1.062658	-0.338740	-0.150903
C83	C	1.190887	-0.352108	-0.237462
C84	C	1.145139	-0.379261	-0.151586
H85	H	1.257586	-0.384844	-0.238032
H86	H	1.156726	-0.370540	-0.301544
H87	H	1.192228	-0.280783	-0.236352
H88	H	1.143785	-0.450582	-0.152606
H89	H	1.179315	-0.360767	-0.087541
H90	H	1.084696	0.011085	0.412989
H91	H	0.421446	-0.025546	0.000067
O92	O	0.901671	-0.432065	-0.150871
C93	C	0.855584	-0.547621	-0.236210
C94	C	0.901366	-0.520459	-0.150368
H95	H	0.855337	-0.619091	-0.235842
H96	H	0.788513	-0.515853	-0.236115
H97	H	0.889063	-0.528026	-0.300264
H98	H	0.867956	-0.540049	-0.086269
H99	H	0.968438	-0.552220	-0.150544
O100	O	0.901711	-0.432126	0.151019
C101	C	0.855549	-0.547712	0.236267
C102	C	0.901288	-0.520505	0.150409
H103	H	0.855177	-0.619166	0.235793
H104	H	0.889034	-0.528249	0.300373
H105	H	0.788516	-0.515845	0.236166
H106	H	0.968322	-0.552358	0.150421
H107	H	0.867738	-0.539952	0.086342
O108	O	0.870658	0.227136	0.594752
C109	C	0.757097	0.244987	0.703087
C110	C	0.819285	0.182205	0.650254
H111	H	0.715533	0.208685	0.747958
H112	H	0.792952	0.286948	0.748074
H113	H	0.716726	0.285814	0.652284
H114	H	0.859672	0.141322	0.700991
H115	H	0.783379	0.140302	0.605253
H116	H	1.127313	-0.456830	0.000145
