data_functionalizedCrystal
_audit_creation_method	'MofGen! by Chris Wilmer'
_symmetry_space_group_name_H-M	'P1'
_symmetry_Int_Tables_number	1
_symmetry_cell_setting	triclinic
loop_
_symmetry_equiv_pos_as_xyz
  x,y,z
_cell_length_a	12.811457
_cell_length_b	12.811415
_cell_length_c	11.892095
_cell_angle_alpha	88.492960
_cell_angle_beta	91.498327
_cell_angle_gamma	84.559489
loop_
_atom_site_label
_atom_site_type_symbol
_atom_site_fract_x
_atom_site_fract_y
_atom_site_fract_z
O1	O	1.390870	0.143770	0.033848
O2	O	1.087662	0.156841	0.001422
O3	O	1.245799	-0.001301	0.033851
O4	O	1.232733	0.301912	0.001418
O5	O	1.232614	0.011864	0.219157
O6	O	1.074476	0.170006	0.186728
O7	O	1.377685	0.156935	0.219153
Zn8	Zn	1.223987	0.165561	0.232362
Zn9	Zn	1.241359	0.148215	-0.011787
O10	O	1.219548	0.315077	0.186724
C11	C	1.042236	0.162287	0.090210
C12	C	0.926527	0.158891	0.078695
C13	C	0.694721	0.166842	0.259103
C14	C	0.586002	0.163650	0.248290
C15	C	0.600367	0.149308	0.046257
C16	C	0.709087	0.152500	0.057070
C17	C	0.756259	0.161268	0.163497
C18	C	0.864980	0.164467	0.174308
C19	C	0.879344	0.150118	-0.027723
C20	C	0.770625	0.146926	-0.038536
C21	C	1.238070	-0.033552	0.130367
C22	C	1.234672	-0.149264	0.141877
C23	C	1.242644	-0.381041	-0.038539
C24	C	1.239452	-0.489762	-0.027730
C25	C	1.225087	-0.475430	0.174304
C26	C	1.228280	-0.366708	0.163494
C27	C	1.237060	-0.319518	0.057069
C28	C	1.240260	-0.210795	0.046262
C29	C	1.225888	-0.196464	0.248294
C30	C	1.222695	-0.305185	0.259103
C31	C	1.423110	0.151488	0.130363
C32	C	1.538820	0.154885	0.141870
C33	C	1.227277	0.347328	0.090206
C34	C	1.230675	0.463039	0.078688
N35	N	1.212138	0.177398	0.398987
N36	N	1.253216	0.136370	-0.178410
C37	C	1.335663	0.053941	0.660959
C38	C	1.327389	0.062223	0.777603
C39	C	1.187311	0.202238	0.748922
C40	C	1.195585	0.193956	0.632278
C41	C	1.269765	0.119806	0.588301
C42	C	1.278044	0.111530	0.471654
C43	C	1.137961	0.251539	0.442976
C44	C	1.129687	0.259821	0.559620
H45	H	0.903385	0.171613	0.260965
H46	H	0.535900	0.168194	0.326142
O47	O	1.115109	0.274140	0.791606
C48	C	0.932087	0.335551	0.802766
C49	C	1.013746	0.254048	0.754369
H50	H	0.850119	0.319349	0.772660
H51	H	0.937405	0.330140	0.898619
H52	H	0.948300	0.417558	0.772784
H53	H	0.997587	0.172004	0.784265
H54	H	1.008409	0.259552	0.658520
O55	O	1.251135	-0.335357	-0.142002
C56	C	1.265127	-0.361052	-0.341242
C57	C	1.255487	-0.412919	-0.224141
H58	H	1.268671	-0.423740	-0.407681
H59	H	1.194197	-0.301850	-0.359783
H60	H	1.339734	-0.319166	-0.342940
H61	H	1.180923	-0.454861	-0.222357
H62	H	1.326471	-0.472064	-0.205648
H63	H	1.381048	0.008587	0.836759
H64	H	1.084305	0.305174	0.383803
H65	H	1.217930	-0.513870	0.260949
H66	H	1.069288	0.320190	0.595440
O67	O	1.214222	-0.351205	0.362401
C68	C	1.202887	-0.512337	0.468588
C69	C	1.212502	-0.460362	0.351537
H70	H	1.201471	-0.600596	0.459842
H71	H	1.272766	-0.496198	0.524640
H72	H	1.127223	-0.478675	0.507934
H73	H	1.288123	-0.493992	0.312092
H74	H	1.142569	-0.476495	0.295564
O75	O	1.245008	-0.549647	-0.120510
C76	C	1.339858	-0.691423	-0.215275
C77	C	1.333681	-0.623702	-0.110122
H78	H	1.411556	-0.751297	-0.206923
H79	H	1.265997	-0.734066	-0.223619
H80	H	1.346627	-0.638981	-0.293175
H81	H	1.326946	-0.676069	-0.032161
H82	H	1.407543	-0.581049	-0.101878
O83	O	1.220282	-0.136636	0.341124
C84	C	1.125514	0.005231	0.435825
C85	C	1.131715	-0.062457	0.330648
H86	H	1.053925	0.065235	0.427381
H87	H	1.118623	-0.047124	0.513770
H88	H	1.199459	0.047741	0.444156
H89	H	1.057789	-0.104977	0.322210
H90	H	1.138658	-0.010049	0.252756
O91	O	0.724869	0.138231	-0.141917
C92	C	0.714691	0.034959	-0.307611
C93	C	0.766570	0.044656	-0.190537
H94	H	0.748402	-0.040679	-0.346964
H95	H	0.626415	0.033563	-0.298983
H96	H	0.730901	0.104868	-0.363595
H97	H	0.750442	-0.025233	-0.134490
H98	H	0.854831	0.046101	-0.199251
O99	O	1.407613	-0.018211	0.618272
C100	C	1.469177	-0.201195	0.607123
C101	C	1.387612	-0.119603	0.655526
H102	H	1.453048	-0.283187	0.637242
H103	H	1.463760	-0.195876	0.511270
H104	H	1.551163	-0.184912	0.637086
H105	H	1.305588	-0.135833	0.625648
H106	H	1.393121	-0.124941	0.751374
O107	O	0.740526	0.175178	0.362523
C108	C	0.772224	0.098367	0.548868
C109	C	0.720321	0.088784	0.431785
H110	H	0.755889	0.028540	0.604906
H111	H	0.860515	0.099627	0.540245
H112	H	0.738630	0.174084	0.588153
H113	H	0.753831	0.013074	0.392434
H114	H	0.632032	0.087585	0.440481
H115	H	1.338447	0.051156	0.435850
O116	O	0.554706	0.140749	-0.057196
C117	C	0.580403	0.126948	-0.256456
C118	C	0.632253	0.136607	-0.139360
H119	H	0.643073	0.123618	-0.322919
H120	H	0.538589	0.052300	-0.258298
H121	H	0.521140	0.197858	-0.274843
H122	H	0.691561	0.065753	-0.120898
H123	H	0.673999	0.211298	-0.137576
O124	O	1.248628	-0.164821	-0.057077
C125	C	1.170405	-0.039700	-0.196894
C126	C	1.160824	-0.091655	-0.079827
H127	H	1.099415	0.019450	-0.215333
H128	H	1.244980	0.002232	-0.198719
H129	H	1.173884	-0.102385	-0.263335
H130	H	1.157300	-0.029037	-0.013319
H131	H	1.086261	-0.133611	-0.078096
H132	H	0.929460	0.145586	-0.105573
