data_functionalizedCrystal
_audit_creation_method	'MofGen! by Chris Wilmer'
_symmetry_space_group_name_H-M	'P1'
_symmetry_Int_Tables_number	1
_symmetry_cell_setting	triclinic
loop_
_symmetry_equiv_pos_as_xyz
  x,y,z
_cell_length_a	10.654554
_cell_length_b	15.995292
_cell_length_c	9.130313
_cell_angle_alpha	90.001944
_cell_angle_beta	90.001106
_cell_angle_gamma	83.977680
loop_
_atom_site_label
_atom_site_type_symbol
_atom_site_fract_x
_atom_site_fract_y
_atom_site_fract_z
O1	O	1.666257	0.117620	-0.121742
O2	O	1.300630	0.128820	-0.121754
O3	O	1.493476	0.001387	-0.121750
O4	O	1.473411	0.245053	-0.121747
O5	O	1.493474	0.001391	0.121849
O6	O	1.300627	0.128824	0.121845
O7	O	1.666255	0.117623	0.121856
Cu8	Cu	1.483441	0.123224	0.144093
Cu9	Cu	1.483444	0.123220	-0.143991
O10	O	1.473409	0.245056	0.121852
C11	C	1.253842	0.127999	0.000043
C12	C	1.114432	0.125536	0.000038
C13	C	0.902951	0.198255	0.000053
C14	C	1.033941	0.200570	0.000042
C15	C	1.063926	0.048182	0.000032
C16	C	0.932938	0.045868	0.000033
C17	C	0.822466	0.273294	0.000071
C18	C	0.872962	0.350648	0.000075
C19	C	1.003952	0.352963	0.000064
C20	C	1.084446	0.277924	0.000048
C21	C	1.492659	-0.029811	0.000045
C22	C	1.490210	-0.122778	0.000034
C23	C	1.481209	-0.460569	0.000047
C24	C	1.620401	-0.436447	0.000596
C25	C	1.623046	-0.339756	0.000042
C26	C	1.485676	-0.292987	0.000042
C27	C	1.416088	-0.322495	-0.139063
C28	C	1.414412	-0.419295	-0.139174
C29	C	1.411567	-0.419165	0.137843
C30	C	1.416725	-0.322643	0.139677
C31	C	1.488192	-0.198277	0.000034
C32	C	1.478688	-0.555280	0.000046
C33	C	1.713043	0.118445	0.000055
C34	C	1.852453	0.120907	0.000051
C35	C	1.474226	0.276255	0.000053
C36	C	1.476675	0.369222	0.000055
N37	N	1.483448	0.123226	0.346716
N38	N	1.483447	0.123211	-0.346614
C39	C	1.568862	0.066818	0.423369
C40	C	1.568859	0.066808	0.576706
C41	C	1.398023	0.179621	0.576722
C42	C	1.398022	0.179627	0.423388
C43	C	1.654289	0.010418	0.346697
C44	C	1.739711	-0.045994	0.423351
C45	C	1.739707	-0.046004	0.576688
C46	C	1.654282	0.010397	0.653371
H47	H	0.891823	-0.017115	0.000029
H48	H	1.677546	-0.320413	0.099755
H49	H	1.809253	-0.091943	0.639098
H50	H	1.654278	0.010379	0.778228
H51	H	1.045062	0.415948	0.000054
H52	H	1.191107	0.279815	0.000009
H53	H	1.677869	-0.321034	-0.099845
H54	H	1.309112	-0.433752	0.138780
H55	H	1.467396	-0.303781	0.242585
H56	H	1.674051	-0.464131	0.100354
H57	H	1.654302	0.010422	0.221842
H58	H	1.129474	-0.012911	0.000021
H59	H	1.328475	0.225542	0.639167
H60	H	0.807416	0.411742	0.000076
H61	H	1.328469	0.225559	0.360976
H62	H	1.462608	-0.445833	-0.243157
H63	H	0.715805	0.271418	0.000086
H64	H	1.673755	-0.465156	-0.098599
H65	H	1.312356	-0.434440	-0.145477
H66	H	1.809255	-0.091920	0.360908
H67	H	1.315001	-0.291216	-0.144235
H68	H	1.464413	-0.302155	-0.242583
H69	H	1.455400	-0.446997	0.243284
H70	H	1.316458	-0.290256	0.148077
