data_functionalizedCrystal
_audit_creation_method	'MofGen! by Chris Wilmer'
_symmetry_space_group_name_H-M	'P1'
_symmetry_Int_Tables_number	1
_symmetry_cell_setting	triclinic
loop_
_symmetry_equiv_pos_as_xyz
  x,y,z
_cell_length_a	11.792241
_cell_length_b	13.339070
_cell_length_c	12.376457
_cell_angle_alpha	75.601917
_cell_angle_beta	78.629474
_cell_angle_gamma	80.088645
loop_
_atom_site_label
_atom_site_type_symbol
_atom_site_fract_x
_atom_site_fract_y
_atom_site_fract_z
O1	O	1.565373	-0.119597	-0.093978
O2	O	1.239443	-0.133910	-0.093985
O3	O	1.365001	0.020715	-0.093979
O4	O	1.439815	-0.274221	-0.093984
O5	O	1.333610	-0.017888	0.094032
O6	O	1.208052	-0.172513	0.094026
O7	O	1.533983	-0.158200	0.094032
Zn8	Zn	1.366033	-0.171486	0.123880
Zn9	Zn	1.407392	-0.120624	-0.123832
O10	O	1.408424	-0.312825	0.094027
C11	C	1.336669	0.039172	0.000025
C12	C	1.299001	0.151682	0.000019
C13	C	1.181179	-0.152312	0.000020
C14	C	1.054337	-0.149620	0.000017
C15	C	1.592246	-0.139797	0.000026
C16	C	1.719090	-0.142488	0.000021
C17	C	1.951326	-0.147436	0.000021
C18	C	1.822094	-0.144687	0.000021
C19	C	1.436757	-0.331281	0.000021
C20	C	1.474426	-0.443789	0.000018
N21	N	1.337815	-0.206197	0.292937
C22	C	1.591893	0.514867	0.000026
C23	C	1.627287	0.409158	0.000037
C24	C	1.545218	0.344784	0.000032
C25	C	1.427750	0.386129	0.000017
C26	C	1.392352	0.491847	0.000014
C27	C	1.345677	0.321763	0.000021
C28	C	1.228208	0.363109	0.000005
C29	C	1.192816	0.468816	0.000002
C30	C	1.274885	0.533190	0.000007
C31	C	1.381075	0.216046	0.000023
C32	C	1.181533	0.193025	0.000012
C33	C	1.146140	0.298735	0.000000
N34	N	1.435617	-0.085905	-0.292889
C35	C	1.501114	-0.005310	0.647930
C36	C	1.520857	0.018985	0.529591
C37	C	1.475098	-0.037308	0.470421
C38	C	1.409593	-0.117900	0.529603
C39	C	1.389855	-0.142203	0.647953
C40	C	1.363839	-0.174201	0.470445
C41	C	1.298334	-0.254794	0.529626
C42	C	1.278599	-0.279091	0.647965
C43	C	1.324358	-0.222798	0.707134
C44	C	1.383577	-0.149899	0.352094
C45	C	1.272318	-0.286792	0.352118
C46	C	1.252575	-0.311087	0.470457
H47	H	1.476718	0.182393	0.000036
N48	N	1.207947	-0.366014	0.711796
H49	H	1.202388	-0.372867	0.795743
H50	H	1.247162	-0.433736	0.691105
N51	N	1.181925	-0.398007	0.534300
H52	H	1.231314	-0.453217	0.583394
H53	H	1.155936	-0.429903	0.478799
H54	H	1.574043	0.258711	0.000042
N55	N	1.236702	0.647207	-0.000003
H56	H	1.278987	0.691496	-0.069700
H57	H	1.255708	0.662792	0.069738
N58	N	1.496382	-0.011090	0.342785
H59	H	1.419234	0.009975	0.314298
H60	H	1.539387	-0.074215	0.314352
N61	N	1.222955	-0.347503	0.288303
H62	H	1.135142	-0.339577	0.308914
H63	H	1.255343	-0.423708	0.308909
H64	H	1.436912	-0.084281	0.303920
H65	H	1.722929	0.375502	0.000052
N66	N	1.093003	0.123604	0.000020
H67	H	1.133251	0.050363	0.000023
H68	H	1.054881	0.151358	-0.069676
N69	N	1.591505	0.105900	0.465762
H70	H	1.617496	0.137876	0.521199
H71	H	1.542059	0.161044	0.416667
H72	H	1.538372	0.040512	0.696113
H73	H	1.658699	0.567287	0.000039
H74	H	1.308279	-0.242575	0.803496
H75	H	1.097165	0.502474	-0.000002
N76	N	1.019445	0.343332	-0.000016
H77	H	1.009481	0.420067	-0.000017
H78	H	0.970422	0.305523	0.069681
