data_functionalizedCrystal
_audit_creation_method	'MofGen! by Chris Wilmer'
_symmetry_space_group_name_H-M	'P1'
_symmetry_Int_Tables_number	1
_symmetry_cell_setting	triclinic
loop_
_symmetry_equiv_pos_as_xyz
  x,y,z
_cell_length_a	10.654545
_cell_length_b	11.295501
_cell_length_c	10.654551
_cell_angle_alpha	85.438916
_cell_angle_beta	95.515746
_cell_angle_gamma	94.562650
loop_
_atom_site_label
_atom_site_type_symbol
_atom_site_fract_x
_atom_site_fract_y
_atom_site_fract_z
O1	O	1.675456	0.099008	-0.183982
O2	O	1.309978	0.099013	-0.200794
O3	O	1.501119	0.099008	-0.009649
O4	O	1.484315	0.099013	-0.375128
O5	O	1.485878	-0.099043	0.005580
O6	O	1.294736	-0.099038	-0.185566
O7	O	1.660215	-0.099042	-0.168753
Cu8	Cu	1.476084	-0.117124	-0.175769
Cu9	Cu	1.494109	0.117094	-0.193779
O10	O	1.469074	-0.099037	-0.359899
C11	C	1.255559	-0.000012	-0.191947
C12	C	1.116115	-0.000010	-0.188257
C13	C	1.042303	-0.107968	-0.178219
C14	C	0.911283	-0.107968	-0.174731
C15	C	0.927901	0.107958	-0.191326
C16	C	1.058919	0.107956	-0.194805
N17	N	1.463416	-0.281860	-0.163101
C18	C	1.597968	-0.531150	-0.297687
C19	C	1.588404	-0.655814	-0.288103
C20	C	1.434731	-0.655853	-0.134345
C21	C	1.444295	-0.531189	-0.143928
C22	C	1.525915	-0.468842	-0.225603
C23	C	1.535471	-0.344176	-0.235193
C24	C	1.381805	-0.344218	-0.081428
C25	C	1.372241	-0.468882	-0.071845
C26	C	1.714634	-0.000015	-0.177601
C27	C	1.854078	-0.000009	-0.181291
C28	C	1.492264	-0.000016	0.044764
C29	C	1.488572	-0.000010	0.184206
N30	N	1.506787	0.281830	-0.206436
C31	C	1.477928	-0.000011	-0.414311
C32	C	1.481621	-0.000009	-0.553754
C33	C	1.495147	0.107949	0.241409
C34	C	1.491667	0.107950	0.372429
C35	C	1.475042	-0.107976	0.389034
C36	C	1.478513	-0.107976	0.258015
H37	H	0.881315	0.195860	-0.196658
O38	O	1.311606	-0.283756	-0.011539
C39	C	1.182104	-0.314287	-0.042809
H40	H	1.168235	-0.348551	-0.141347
H41	H	1.126525	-0.232329	-0.041227
H42	H	1.146834	-0.386668	0.028858
O43	O	1.658206	-0.716472	-0.358187
C44	C	1.576845	-0.788571	-0.437659
H45	H	1.481885	-0.807269	-0.396279
H46	H	1.620728	-0.876224	-0.445376
H47	H	1.562130	-0.740525	-0.535583
O48	O	1.097897	-0.212811	-0.172072
C49	C	1.159928	-0.219265	-0.282150
H50	H	1.115876	-0.158000	-0.361707
H51	H	1.149605	-0.314752	-0.311289
H52	H	1.264460	-0.190264	-0.262469
H53	H	1.497019	0.195861	0.418996
H54	H	1.368293	-0.706637	-0.067836
H55	H	0.851190	-0.195879	-0.166558
H56	H	1.503334	0.195862	0.181317
O57	O	1.471949	-0.212929	0.202563
C58	C	1.357451	-0.278590	0.226322
H59	H	1.321098	-0.247897	0.314666
H60	H	1.374146	-0.377357	0.241378
H61	H	1.284525	-0.263614	0.142135
H62	H	1.119020	0.195874	-0.202976
H63	H	1.466854	-0.195878	0.449145
H64	H	1.305793	-0.519662	-0.005343
H65	H	1.601925	-0.293415	-0.301702
O66	O	1.677344	-0.470764	-0.377048
C67	C	1.738860	-0.552492	-0.438650
H68	H	1.738927	-0.641359	-0.379895
H69	H	1.840445	-0.516449	-0.450133
H70	H	1.686954	-0.565756	-0.535732
