data_functionalizedCrystal
_audit_creation_method	'MofGen! by Chris Wilmer'
_symmetry_space_group_name_H-M	'P1'
_symmetry_Int_Tables_number	1
_symmetry_cell_setting	triclinic
loop_
_symmetry_equiv_pos_as_xyz
  x,y,z
_cell_length_a	21.295417
_cell_length_b	21.295419
_cell_length_c	21.295420
_cell_angle_alpha	89.992868
_cell_angle_beta	90.018953
_cell_angle_gamma	89.952934
loop_
_atom_site_label
_atom_site_type_symbol
_atom_site_fract_x
_atom_site_fract_y
_atom_site_fract_z
Zn1	Zn	-0.250420	-0.962243	0.355924
Zn2	Zn	-0.355667	-0.962179	0.250649
Zn3	Zn	-0.250446	-0.856999	0.250667
Zn4	Zn	-0.355685	-0.856935	0.355879
O5	O	-0.303054	-0.909589	0.303280
O6	O	-0.264362	-1.050324	0.341969
O7	O	-0.341712	-0.948226	0.162562
O8	O	-0.162353	-0.871014	0.264656
O9	O	-0.341687	-1.050276	0.264625
O10	O	-0.162334	-0.948336	0.341987
O11	O	-0.264406	-0.870951	0.162575
O12	O	-0.264425	-0.768901	0.264613
O13	O	-0.341719	-0.870905	0.443975
O14	O	-0.341744	-0.768854	0.341912
O15	O	-0.264380	-0.948274	0.444007
O16	O	-0.443758	-0.948164	0.264582
O17	O	-0.443772	-0.870842	0.341894
C18	C	-0.303089	-0.746037	0.303260
C19	C	-0.303120	-0.676069	0.303266
C20	C	-0.262924	-0.643250	0.343602
C21	C	-0.262909	-0.577507	0.343603
C22	C	-0.303101	-0.544587	0.303276
C23	C	-0.343300	-0.577414	0.262933
C24	C	-0.343309	-0.643156	0.262928
N25	N	-0.358181	-0.441313	0.298355
N26	N	-0.358171	-0.378861	0.298363
C27	C	-0.303075	-0.346512	0.303287
N28	N	-0.247988	-0.378973	0.308215
N29	N	-0.248000	-0.441431	0.308210
C30	C	-0.303095	-0.473301	0.303277
C31	C	-0.262859	-0.242407	0.343627
C32	C	-0.262843	-0.176663	0.343624
C33	C	-0.343240	-0.176572	0.262957
C34	C	-0.343250	-0.242314	0.262956
C35	C	-0.303061	-0.275228	0.303295
C36	C	-0.466606	-0.909506	0.303245
C37	C	-0.536574	-0.909529	0.303251
C38	C	-0.569413	-0.949826	0.263036
C39	C	-0.635155	-0.949855	0.263050
C40	C	-0.668056	-0.909577	0.303273
C41	C	-0.635210	-0.869277	0.343496
C42	C	-0.569469	-0.869253	0.343485
N43	N	-0.771339	-0.854508	0.308065
N44	N	-0.833791	-0.854532	0.308072
C45	C	-0.866131	-0.909647	0.303309
N46	N	-0.833661	-0.964737	0.298527
N47	N	-0.771204	-0.964712	0.298517
C48	C	-0.739342	-0.909598	0.303289
C49	C	-0.970255	-0.949980	0.263107
C50	C	-1.035999	-0.950010	0.263125
C51	C	-1.036053	-0.869426	0.343568
C52	C	-0.970310	-0.869401	0.343553
C53	C	-0.937415	-0.909677	0.303319
C54	C	-0.138864	-0.909689	0.303329
C55	C	-0.068896	-0.909732	0.303349
C56	C	-0.303049	-0.909589	0.467470
C57	C	-0.303046	-0.909589	0.537438
C58	C	-0.303027	-0.073779	0.303297
C59	C	-0.303035	-0.143747	0.303296
C60	C	-0.262783	-0.949847	1.036914
C61	C	-0.262784	-0.949854	0.971171
C62	C	-0.303049	-0.909574	0.938278
C63	C	-0.343326	-0.869295	0.971132
C64	C	-0.343328	-0.869294	1.036873
N65	N	-0.307886	-0.854470	0.835048
N66	N	-0.307881	-0.854473	0.772597
C67	C	-0.303046	-0.909575	0.740203
N68	N	-0.298205	-0.964676	0.772620
N69	N	-0.298207	-0.964672	0.835077
C70	C	-0.303051	-0.909571	0.866992
C71	C	-0.262775	-0.949862	0.636071
C72	C	-0.262781	-0.949869	0.570327
C73	C	-0.343319	-0.869305	0.570289
C74	C	-0.343317	-0.869303	0.636031
C75	C	-0.303042	-0.909580	0.668919
C76	C	-0.303068	-0.909581	1.139728
C77	C	-0.303053	-0.909572	1.069760
H78	H	-0.230130	-0.269207	0.376468
C79	C	-0.387533	-0.679258	0.218557
N80	N	-0.420844	-0.706452	0.185138
C81	C	-0.387452	-0.140363	0.218596
N82	N	-0.420752	-0.113088	0.185181
C83	C	-0.218621	-0.140562	0.387997
N84	N	-0.185313	-0.113370	0.421421
H85	H	-0.229980	-0.982658	0.662849
H86	H	-0.662003	-0.836482	0.376247
C87	C	-0.533232	-0.994124	0.218770
N88	N	-0.505980	-1.027488	0.185427
C89	C	-0.387475	-0.278417	0.218589
N90	N	-0.420786	-0.305610	0.185169
C91	C	-0.533345	-0.824929	0.387735
N92	N	-0.506136	-0.791545	0.421067
C93	C	-0.387626	-0.824981	1.073005
N94	N	-0.420990	-0.791602	1.100220
H95	H	-0.376111	-0.836499	0.944345
C96	C	-0.218477	-0.994177	0.534197
N97	N	-0.185105	-1.027549	0.506983
C98	C	-0.218692	-0.541398	0.387981
N99	N	-0.185389	-0.514203	0.421407
H100	H	-0.661897	-0.982672	0.230302
H101	H	-0.943471	-0.982777	0.230348
C102	C	-0.218706	-0.679451	0.387967
N103	N	-0.185398	-0.706719	0.421381
H104	H	-0.376106	-0.836510	0.543507
C105	C	-1.072240	-0.825119	0.387815
N106	N	-1.099500	-0.791748	0.421144
H107	H	-0.376024	-0.550606	0.230098
H108	H	-0.943571	-0.836584	0.376297
C109	C	-0.387611	-0.824988	0.672163
N110	N	-0.420975	-0.791609	0.699378
H111	H	-1.062735	-0.982829	0.230379
H112	H	-0.229991	-0.982647	1.063687
H113	H	-0.229990	-0.982651	0.944423
