data_functionalizedCrystal
_audit_creation_method	'MofGen! by Chris Wilmer'
_symmetry_space_group_name_H-M	'P1'
_symmetry_Int_Tables_number	1
_symmetry_cell_setting	triclinic
loop_
_symmetry_equiv_pos_as_xyz
  x,y,z
_cell_length_a	13.185407
_cell_length_b	14.519731
_cell_length_c	11.804365
_cell_angle_alpha	101.852944
_cell_angle_beta	82.231191
_cell_angle_gamma	67.831168
loop_
_atom_site_label
_atom_site_type_symbol
_atom_site_fract_x
_atom_site_fract_y
_atom_site_fract_z
O1	O	1.468450	-0.264197	-0.098983
O2	O	1.151146	-0.170768	-0.098996
O3	O	1.318197	-0.353814	-0.098978
O4	O	1.301400	-0.081151	-0.099000
O5	O	1.274219	-0.305662	0.099073
O6	O	1.107168	-0.122617	0.099056
O7	O	1.424472	-0.216045	0.099068
Cu8	Cu	1.261805	-0.164934	0.117146
Cu9	Cu	1.313814	-0.221879	-0.117073
O10	O	1.257422	-0.033000	0.099051
C11	C	1.088548	-0.137221	0.000029
C12	C	0.967547	-0.109009	0.000024
C13	C	0.677736	-0.378254	0.000051
C14	C	0.791422	-0.404762	0.000063
C15	C	0.835459	-0.330826	0.000053
C16	C	0.765798	-0.230378	0.000031
C17	C	0.652099	-0.203866	0.000029
C18	C	0.809822	-0.156438	0.000031
C19	C	0.740162	-0.055990	0.000010
C20	C	0.626474	-0.029483	0.000006
C21	C	0.582437	-0.103418	0.000016
C22	C	0.923521	-0.182950	0.000033
C23	C	0.897884	-0.008562	0.000011
C24	C	0.784199	0.017946	-0.000001
C25	C	1.295420	-0.363901	0.000048
C26	C	1.293061	-0.465692	0.000048
C27	C	1.291145	-0.548358	0.000046
C28	C	1.288752	-0.652072	0.000036
C29	C	1.286852	-0.734738	0.000029
C30	C	1.284459	-0.838457	0.000022
C31	C	1.487071	-0.249593	0.000042
C32	C	1.608074	-0.277807	0.000038
C33	C	1.280199	-0.022913	0.000022
C34	C	1.282560	0.078876	0.000014
N35	N	1.225232	-0.124885	0.281882
N36	N	1.350395	-0.261938	-0.281810
C37	C	1.438219	-0.358128	0.655853
C38	C	1.465884	-0.388429	0.531195
C39	C	1.405723	-0.322546	0.468860
C40	C	1.317892	-0.226356	0.531197
C41	C	1.290230	-0.196049	0.655868
C42	C	1.257734	-0.160467	0.468875
C43	C	1.169904	-0.064277	0.531212
C44	C	1.142245	-0.033975	0.655871
C45	C	1.202406	-0.099859	0.718205
C46	C	1.285397	-0.190774	0.344204
C47	C	1.137408	-0.028695	0.344219
C48	C	1.109743	0.001606	0.468878
H49	H	0.848131	-0.486545	0.000085
H50	H	1.428253	-0.347221	0.367358
H51	H	0.641862	-0.438434	0.000092
O52	O	0.459810	-0.074819	0.000020
H53	H	0.440896	-0.143106	0.000036
O54	O	1.015027	0.105362	0.536112
H55	H	0.949374	0.093497	0.592933
O56	O	1.172576	-0.067182	0.852664
H57	H	1.083834	-0.053775	0.885550
H58	H	0.569756	0.052311	0.000001
O59	O	0.709058	0.126289	-0.000002
H60	H	0.622603	0.132300	0.000010
O61	O	0.945364	0.071194	-0.000005
H62	H	1.036128	0.035881	-0.000014
H63	H	1.537396	-0.466744	0.480445
H64	H	1.356909	-0.269091	0.293461
H65	H	1.070736	0.044352	0.706626
O66	O	0.998651	-0.291282	0.000056
H67	H	1.000907	-0.347632	-0.080666
O68	O	0.958076	-0.359408	0.000068
H69	H	0.999119	-0.441677	0.000078
O70	O	1.503104	-0.429181	0.723079
H71	H	1.469108	-0.391947	0.820237
O72	O	1.072495	0.042369	0.277006
H73	H	1.106473	0.005128	0.179848
