data_functionalizedCrystal
_audit_creation_method	'MofGen! by Chris Wilmer'
_symmetry_space_group_name_H-M	'P1'
_symmetry_Int_Tables_number	1
_symmetry_cell_setting	triclinic
loop_
_symmetry_equiv_pos_as_xyz
  x,y,z
_cell_length_a	19.805407
_cell_length_b	17.637651
_cell_length_c	19.805399
_cell_angle_alpha	78.757390
_cell_angle_beta	89.982197
_cell_angle_gamma	101.216285
loop_
_atom_site_label
_atom_site_type_symbol
_atom_site_fract_x
_atom_site_fract_y
_atom_site_fract_z
Zn1	Zn	0.980294	-0.314832	-0.328138
Zn2	Zn	0.957346	-0.447046	-0.192041
Zn3	Zn	0.867106	-0.314848	-0.214963
Zn4	Zn	0.844218	-0.446998	-0.305200
O5	O	0.912241	-0.380931	-0.260086
O6	O	1.071964	-0.332384	-0.310091
O7	O	0.945351	-0.429537	-0.100361
O8	O	0.901303	-0.204208	-0.249169
O9	O	1.055104	-0.429522	-0.210102
O10	O	0.984462	-0.204197	-0.332317
O11	O	0.879052	-0.332411	-0.117201
O12	O	0.769356	-0.332364	-0.226927
O13	O	0.862294	-0.429439	-0.402964
O14	O	0.752540	-0.429455	-0.293223
O15	O	0.962268	-0.332338	-0.419816
O16	O	0.923157	-0.557677	-0.187860
O17	O	0.840042	-0.557642	-0.270997
C18	C	0.736389	-0.380906	-0.260073
C19	C	0.661156	-0.380915	-0.260081
C20	C	0.634576	-0.330425	-0.312196
C21	C	0.563887	-0.330429	-0.312198
C22	C	0.519778	-0.380928	-0.260087
C23	C	0.546363	-0.431420	-0.207967
C24	C	0.617051	-0.431411	-0.207963
C25	C	0.261283	-0.431455	-0.207981
C26	C	0.190590	-0.431462	-0.207991
C27	C	0.208118	-0.330473	-0.312216
C28	C	0.278807	-0.330465	-0.312212
C29	C	0.305386	-0.380953	-0.260091
C30	C	0.382036	-0.380947	-0.260089
C31	C	0.443129	-0.380938	-0.260091
C32	C	0.876644	-0.586347	-0.224467
C33	C	0.861477	-0.674225	-0.209251
C34	C	1.027900	-0.962919	-0.375888
C35	C	1.013628	-1.045493	-0.361579
C36	C	0.927092	-1.045613	-0.274913
C37	C	0.941360	-0.963037	-0.289212
C38	C	0.991764	-0.921696	-0.339701
C39	C	0.905224	-0.921814	-0.253025
C40	C	0.919488	-0.839245	-0.267326
C41	C	0.969889	-0.797899	-0.317814
C42	C	1.006029	-0.839127	-0.354002
C43	C	0.854816	-0.963156	-0.202539
C44	C	0.818680	-0.921933	-0.166352
C45	C	0.832948	-0.839362	-0.180649
C46	C	0.883349	-0.798016	-0.231138
C47	C	0.796808	-0.798134	-0.144461
C48	C	0.811073	-0.715565	-0.158762
C49	C	0.897613	-0.715447	-0.245438
C50	C	1.088779	-0.380957	-0.260098
C51	C	1.164009	-0.380967	-0.260103
C52	C	0.912288	-0.380881	-0.436637
C53	C	0.912307	-0.380860	-0.511873
C54	C	0.947996	-0.174713	-0.295859
C55	C	0.963232	-0.086836	-0.311103
C56	C	0.964366	-0.330297	-0.555993
C57	C	0.964377	-0.330274	-0.626686
C58	C	0.912331	-0.380819	-0.653256
C59	C	0.860268	-0.431384	-0.609130
C60	C	0.860255	-0.431403	-0.538439
C61	C	0.860319	-0.431311	-0.894216
C62	C	0.860337	-0.431290	-0.964911
C63	C	0.964441	-0.330182	-0.982463
C64	C	0.964428	-0.330200	-0.911772
C65	C	0.912363	-0.380762	-0.867653
C66	C	0.912351	-0.380786	-0.791000
C67	C	0.912345	-0.380800	-0.729906
C68	C	0.912243	-0.380924	-0.084231
C69	C	0.912393	-0.380722	-0.009034
H70	H	0.542249	-0.289317	-0.354636
H71	H	0.638691	-0.472525	-0.165525
F72	F	1.059683	-0.795125	-0.407731
F73	F	0.325747	-0.276721	-0.367678
H74	H	0.186470	-0.289360	-0.354655
H75	H	0.282915	-0.472567	-0.165541
H76	H	1.006810	-0.289044	-0.890143
H77	H	0.154677	-0.472586	-0.165553
F78	F	1.081554	-0.918917	-0.429617
F79	F	1.019852	-0.276366	-1.029424
H80	H	0.817890	-0.472536	-0.630768
H81	H	0.817858	-0.472569	-0.502517
H82	H	0.781646	-0.682001	-0.129295
F83	F	0.804907	-0.485124	-0.847270
H84	H	0.817952	-0.472452	-0.986541
H85	H	0.670485	-0.289305	-0.354632
F86	F	0.499418	-0.485160	-0.152503
H87	H	0.938663	-0.681786	-0.286547
H88	H	1.043048	-1.079054	-0.391061
H89	H	0.886051	-1.079283	-0.233806
H90	H	0.843197	-1.030389	-0.190904
H91	H	0.981503	-0.730666	-0.329456
F92	F	0.765033	-0.965939	-0.112624
F93	F	0.743157	-0.842142	-0.090738
H94	H	1.006749	-0.289139	-0.534366
F95	F	1.019803	-0.276484	-0.673635
