data_functionalizedCrystal
_audit_creation_method	'MofGen! by Chris Wilmer'
_symmetry_space_group_name_H-M	'P1'
_symmetry_Int_Tables_number	1
_symmetry_cell_setting	triclinic
loop_
_symmetry_equiv_pos_as_xyz
  x,y,z
_cell_length_a	10.967870
_cell_length_b	10.967916
_cell_length_c	9.482900
_cell_angle_alpha	87.450335
_cell_angle_beta	92.506468
_cell_angle_gamma	87.249354
loop_
_atom_site_label
_atom_site_type_symbol
_atom_site_fract_x
_atom_site_fract_y
_atom_site_fract_z
O1	O	-0.212166	-1.620179	0.231851
O2	O	-0.214802	-1.271089	0.143731
O3	O	-0.038967	-1.446978	0.231858
O4	O	-0.388001	-1.444290	0.143724
O5	O	-0.074834	-1.411258	0.455714
O6	O	-0.250669	-1.235369	0.367587
O7	O	-0.248033	-1.584459	0.455707
Cu8	Cu	-0.252626	-1.406652	0.432087
Cu9	Cu	-0.210209	-1.448895	0.167351
O10	O	-0.423868	-1.408570	0.367580
C11	C	-0.229834	-1.208405	0.245156
C12	C	-0.221173	-1.074845	0.213865
C13	C	-0.235892	-0.996795	0.315878
C14	C	-0.226941	-0.858753	0.283539
C15	C	-0.012083	-1.426223	0.354288
C16	C	0.121459	-1.417582	0.385577
C17	C	0.199570	-1.432234	0.283561
C18	C	0.337594	-1.423304	0.315897
C19	C	0.549247	-1.429323	0.245151
C20	C	0.415704	-1.437958	0.213866
C21	C	-0.233001	-0.647143	0.354280
C22	C	-0.241662	-0.780704	0.385566
N23	N	-0.282459	-1.376950	0.618290
N24	N	-0.180367	-1.478607	-0.018847
C25	C	-0.219002	-1.440126	0.722218
C26	C	-0.243833	-1.415422	0.877224
H27	H	-0.260887	-0.816072	0.496854
C28	C	-0.297752	-0.731370	0.081165
C29	C	-0.200987	-0.811019	0.133301
H30	H	-0.281731	-0.701907	-0.011586
H31	H	-0.305814	-0.664523	0.140971
H32	H	-0.371336	-0.773672	0.078731
H33	H	-0.127404	-0.768714	0.135745
H34	H	-0.192911	-0.877876	0.073479
C35	C	0.401607	-1.370956	-0.031058
C36	C	0.368115	-1.463784	0.063598
H37	H	0.372236	-1.386888	-0.123832
H38	H	0.488102	-1.368359	-0.028965
H39	H	0.367179	-1.294667	-0.004582
H40	H	0.402551	-1.540072	0.037128
H41	H	0.281603	-1.466394	0.061500
C42	C	0.031460	-1.545584	1.004241
C43	C	-0.082096	-1.576285	0.946576
H44	H	0.092157	-1.605871	0.982943
H45	H	0.027505	-1.541714	1.103809
H46	H	0.051737	-1.468350	0.965057
H47	H	-0.102378	-1.653514	0.985768
H48	H	-0.078143	-1.580168	0.846988
C49	C	-0.169104	-1.011159	0.560833
C50	C	-0.261843	-1.044541	0.466106
H51	H	-0.185124	-1.040641	0.653578
H52	H	-0.166508	-0.924665	0.558810
H53	H	-0.092788	-1.045551	0.534365
H54	H	-0.338159	-1.010141	0.492568
H55	H	-0.264453	-1.131053	0.468134
H56	H	0.372896	-1.404139	0.427181
H57	H	-0.355165	-1.304568	0.644067
C58	C	0.296617	-1.387865	0.538755
C59	C	0.169110	-1.391711	0.535802
H60	H	0.326029	-1.371896	0.631502
H61	H	0.319282	-1.324925	0.474477
H62	H	0.331014	-1.464177	0.512310
H63	H	0.134712	-1.315395	0.562237
H64	H	0.146434	-1.454655	0.600101
C65	C	-0.007174	-1.507346	0.744880
C66	C	-0.120862	-1.537840	0.687391
H67	H	0.053407	-1.567672	0.723361
H68	H	-0.010961	-1.503592	0.844477
H69	H	0.013141	-1.430099	0.705770
H70	H	-0.141182	-1.615083	0.726509
H71	H	-0.117077	-1.541607	0.587774
C72	C	-0.312015	-1.203858	0.854338
C73	C	-0.341994	-1.317705	0.912003
H74	H	-0.372611	-1.143534	0.875820
H75	H	-0.308216	-1.207648	0.754746
H76	H	-0.234892	-1.183177	0.893361
H77	H	-0.419113	-1.338391	0.872971
H78	H	-0.345806	-1.313917	1.011614
H79	H	0.164261	-1.451384	0.172281
C80	C	-0.291986	-0.947456	0.011498
C81	C	-0.195220	-1.027105	0.063634
H82	H	-0.275964	-0.917993	-0.081253
H83	H	-0.300047	-0.880609	0.071305
H84	H	-0.365569	-0.989758	0.009064
H85	H	-0.121637	-0.984800	0.066079
H86	H	-0.187145	-1.093962	0.003812
