data_functionalizedCrystal
_audit_creation_method	'MofGen! by Chris Wilmer'
_symmetry_space_group_name_H-M	'P1'
_symmetry_Int_Tables_number	1
_symmetry_cell_setting	triclinic
loop_
_symmetry_equiv_pos_as_xyz
  x,y,z
_cell_length_a	14.853567
_cell_length_b	14.853559
_cell_length_c	9.730217
_cell_angle_alpha	89.998938
_cell_angle_beta	90.001561
_cell_angle_gamma	83.633192
loop_
_atom_site_label
_atom_site_type_symbol
_atom_site_fract_x
_atom_site_fract_y
_atom_site_fract_z
O1	O	1.196357	0.117703	-0.114188
O2	O	0.933897	0.131725	-0.114211
O3	O	1.072142	-0.006516	-0.114198
O4	O	1.058113	0.255944	-0.114202
O5	O	1.072138	-0.006518	0.114382
O6	O	0.933893	0.131723	0.114369
O7	O	1.196353	0.117702	0.114392
Zn8	Zn	1.065122	0.124712	0.150672
Zn9	Zn	1.065128	0.124714	-0.150492
O10	O	1.058108	0.255943	0.114378
C11	C	0.900307	0.131089	0.000076
C12	C	0.800223	0.129185	0.000067
C13	C	0.387692	0.039019	0.000099
C14	C	0.366406	0.203252	0.000095
C15	C	0.460440	0.205042	0.000091
C16	C	0.518104	0.123819	0.000089
C17	C	0.481735	0.040806	0.000091
C18	C	0.496816	0.288054	0.000075
C19	C	0.590855	0.289847	0.000069
C20	C	0.648521	0.208623	0.000076
C21	C	0.612147	0.125607	0.000080
C22	C	0.669811	0.044384	0.000078
C23	C	0.633438	-0.038633	0.000091
C24	C	0.539401	-0.040418	0.000098
C25	C	0.742559	0.210408	0.000069
C26	C	0.763854	0.046172	0.000069
C27	C	1.071506	-0.040106	0.000090
C28	C	1.069605	-0.140190	0.000082
C29	C	1.061543	-0.563364	-0.124518
C30	C	1.061539	-0.563360	0.124689
C31	C	1.063332	-0.469327	0.124690
C32	C	1.064230	-0.422308	0.000086
C33	C	1.063334	-0.469322	-0.124520
C34	C	1.064219	-0.422305	0.249294
C35	C	1.066011	-0.328266	0.249300
C36	C	1.066915	-0.281246	0.124694
C37	C	1.066021	-0.328266	0.000083
C38	C	1.066918	-0.281246	-0.124522
C39	C	1.066030	-0.328266	-0.249134
C40	C	1.064238	-0.422302	-0.249127
C41	C	1.068707	-0.187209	0.124687
C42	C	1.068709	-0.187204	-0.124524
C43	C	1.229944	0.118338	0.000102
C44	C	1.330028	0.120242	0.000102
C45	C	1.058745	0.289532	0.000088
C46	C	1.060646	0.389616	0.000087
N47	N	1.065125	0.124711	0.356209
N48	N	1.065132	0.124709	-0.356028
C49	C	1.187591	0.002334	0.356211
C50	C	1.248829	-0.058852	0.428153
C51	C	1.248839	-0.058853	0.572032
C52	C	1.187601	0.002337	0.643974
C53	C	1.126362	0.063523	0.572033
C54	C	1.126361	0.063519	0.428150
C55	C	1.003894	0.185895	0.572031
C56	C	1.003887	0.185901	0.428151
C57	C	0.942656	0.247085	0.643973
C58	C	0.881420	0.308276	0.572031
C59	C	0.881414	0.308275	0.428143
C60	C	0.942648	0.247087	0.356210
H61	H	0.358073	-0.028572	0.000116
H62	H	1.298701	-0.108679	0.630607
H63	H	0.509777	-0.108006	0.000142
H64	H	1.063514	-0.460593	-0.350579
H65	H	0.831542	0.358097	0.369576
H66	H	1.069410	-0.148928	0.226144
H67	H	0.680401	-0.104765	0.000080
H68	H	1.066738	-0.289991	0.350767
H69	H	0.620461	0.357445	0.000058
O70	O	0.310302	0.282087	-0.000087
C71	C	0.191805	0.375405	-0.118544
C72	C	0.255281	0.286079	-0.118496
H73	H	0.147317	0.378671	-0.214281
H74	H	0.147187	0.378681	-0.022947
H75	H	0.233970	0.435030	-0.118477
H76	H	0.213187	0.226404	-0.118611
H77	H	0.299902	0.282883	-0.214084
H78	H	1.187597	0.002335	0.239057
H79	H	0.449859	0.354181	0.000063
O80	O	1.060508	-0.608974	0.245754
C81	C	0.981951	-0.627605	0.458786
C82	C	0.982992	-0.575884	0.321712
H83	H	0.919296	-0.600859	0.520249
H84	H	0.980457	-0.702894	0.437455
H85	H	1.045376	-0.617311	0.520176
H86	H	0.919579	-0.586105	0.260253
H87	H	0.984533	-0.500614	0.343140
O88	O	1.308226	-0.118393	0.358296
C89	C	1.360950	-0.275036	0.314236
C90	C	1.293621	-0.207717	0.393423
H91	H	1.349178	-0.347268	0.342628
H92	H	1.350410	-0.264577	0.199036
H93	H	1.433158	-0.263089	0.342492
H94	H	1.221386	-0.219623	0.365282
H95	H	1.304239	-0.218192	0.508604
O96	O	1.187751	0.002238	0.783738
C97	C	1.254912	-0.064954	0.990214
C98	C	1.254855	-0.064926	0.831932
H99	H	1.309147	-0.119263	1.029227
H100	H	1.269848	0.004193	1.029355
H101	H	1.185728	-0.079851	1.029239
H102	H	1.324020	-0.050066	0.792790
H103	H	1.239869	-0.134078	0.792885
H104	H	0.772169	0.277999	0.000061
H105	H	1.069444	-0.148928	-0.225994
H106	H	0.942662	0.247078	0.761127
H107	H	0.831560	0.358089	0.630615
H108	H	0.942652	0.247084	0.239055
H109	H	0.810799	-0.019971	0.000073
H110	H	1.066755	-0.289969	-0.350587
H111	H	1.060824	-0.601652	-0.225974
H112	H	1.063483	-0.460594	0.350740
