data_functionalizedCrystal
_audit_creation_method	'MofGen! by Chris Wilmer'
_symmetry_space_group_name_H-M	'P1'
_symmetry_Int_Tables_number	1
_symmetry_cell_setting	triclinic
loop_
_symmetry_equiv_pos_as_xyz
  x,y,z
_cell_length_a	14.853567
_cell_length_b	19.288864
_cell_length_c	18.366186
_cell_angle_alpha	90.022894
_cell_angle_beta	89.997562
_cell_angle_gamma	96.614411
loop_
_atom_site_label
_atom_site_type_symbol
_atom_site_fract_x
_atom_site_fract_y
_atom_site_fract_z
O1	O	0.112464	-0.921732	-0.060777
O2	O	0.127635	-0.719523	-0.060727
O3	O	-0.011211	-0.826029	-0.060755
O4	O	0.251310	-0.815226	-0.060748
O5	O	-0.011217	-0.826011	0.060344
O6	O	0.127629	-0.719505	0.060373
O7	O	0.112457	-0.921714	0.060322
Zn8	Zn	0.120042	-0.820607	0.079575
Zn9	Zn	0.120051	-0.820631	-0.079979
O10	O	0.251304	-0.815208	0.060351
C11	C	0.127144	-0.693636	-0.000171
C12	C	0.125679	-0.616527	-0.000152
C13	C	-0.044800	-0.825530	-0.000208
C14	C	-0.144875	-0.824064	-0.000214
C15	C	0.112949	-0.947601	-0.000236
C16	C	0.114414	-1.024710	-0.000259
C17	C	-0.557014	-0.754596	-0.000182
C18	C	-0.579015	-0.881128	-0.000214
C19	C	-0.484989	-0.882507	-0.000219
C20	C	-0.426971	-0.819930	-0.000204
C21	C	-0.462979	-0.755974	-0.000185
C22	C	-0.448973	-0.946462	-0.000231
C23	C	-0.354942	-0.947844	-0.000235
C24	C	-0.296923	-0.885266	-0.000225
C25	C	-0.332936	-0.821307	-0.000207
C26	C	-0.274918	-0.758730	-0.000192
C27	C	-0.310930	-0.694770	-0.000179
C28	C	-0.404960	-0.693396	-0.000176
C29	C	-0.202893	-0.886641	-0.000228
C30	C	-0.180883	-0.760107	-0.000194
C31	C	0.284893	-0.815707	-0.000198
C32	C	0.384968	-0.817174	-0.000197
N33	N	0.120035	-0.820595	0.188466
C34	C	0.207147	-0.572106	-0.000161
C35	C	0.205770	-0.499654	-0.000169
C36	C	0.122920	-0.471627	-0.000182
C37	C	0.041441	-0.516058	-0.000169
C38	C	0.042820	-0.588508	-0.000154
C39	C	0.057794	-0.363152	-0.042635
C40	C	0.056418	-0.290702	-0.042655
C41	C	0.118664	-0.248167	-0.000227
C42	C	0.182300	-0.278088	0.042212
C43	C	0.183679	-0.350538	0.042228
C44	C	0.121416	-0.393068	-0.000199
C45	C	0.198645	-0.125185	-0.000243
C46	C	0.197265	-0.052732	-0.000247
C47	C	0.032933	-0.069138	-0.000254
C48	C	0.034316	-0.141589	-0.000244
C49	C	0.117174	-0.169608	-0.000242
N50	N	0.120050	-0.820647	-0.188870
C51	C	0.058584	-0.867772	0.226553
C52	C	0.058580	-0.867776	0.302781
C53	C	0.120043	-0.820611	0.340918
C54	C	0.181498	-0.773426	0.302822
C55	C	0.181495	-0.773418	0.226595
C56	C	0.202186	-0.811590	0.461682
C57	C	0.202191	-0.811602	0.537907
C58	C	0.120054	-0.820631	0.576026
C59	C	0.037908	-0.829661	0.537910
C60	C	0.037905	-0.829653	0.461684
C61	C	0.120053	-0.820614	0.423573
C62	C	0.058594	-0.867814	0.696769
C63	C	0.058588	-0.867814	0.772998
C64	C	0.181514	-0.773467	0.773037
C65	C	0.181512	-0.773464	0.696809
C66	C	0.120052	-0.820641	0.658679
H67	H	-0.133651	-0.709148	-0.000186
O68	O	0.252304	-0.382798	0.088016
H69	H	0.295450	-0.411582	0.052255
H70	H	0.266113	-0.147999	-0.000231
O71	O	0.290789	-0.801877	0.579012
H72	H	0.328473	-0.750716	0.564415
H73	H	0.263609	-0.016564	-0.000250
H74	H	-0.325630	-0.999924	-0.000246
O75	O	0.290778	-0.801838	0.420566
H76	H	0.296408	-0.848224	0.385801
O77	O	-0.012213	-0.258436	-0.088431
H78	H	-0.002708	-0.200911	-0.081323
H79	H	0.008538	-0.906194	0.333798
O80	O	0.247797	-0.722556	0.343949
H81	H	0.237484	-0.730493	0.403353
H82	H	0.008543	-0.906229	0.804009
O83	O	-0.007715	-0.918646	0.185431
H84	H	0.003589	-0.972802	0.200035
O85	O	-0.050699	-0.839403	0.579002
H86	H	-0.056346	-0.793008	0.613748
H87	H	-0.028981	-0.837004	0.430653
H88	H	0.231554	-0.735051	0.665796
O89	O	0.247775	-0.722536	0.185503
H90	H	0.318030	-0.731452	0.200116
O91	O	-0.248352	-0.627276	-0.000161
H92	H	-0.176920	-0.638984	-0.000166
O93	O	0.249441	-0.232224	0.087985
H94	H	0.237786	-0.176819	0.080855
H95	H	-0.034525	-0.046319	-0.000311
O96	O	-0.164055	-0.955619	-0.000246
H97	H	-0.121744	-0.959268	0.049111
O98	O	-0.053554	-0.189508	-0.000240
H99	H	-0.111398	-0.157849	-0.000255
O100	O	-0.007704	-0.918675	0.655624
H101	H	0.003582	-0.972838	0.670219
O102	O	-0.443798	-0.624414	-0.000146
H103	H	-0.518929	-0.633972	-0.000134
H104	H	0.007104	-0.397779	-0.077190
O105	O	0.296511	-0.602329	-0.000138
H106	H	0.352931	-0.559263	-0.000135
O107	O	-0.641583	-0.948621	-0.000223
H108	H	-0.713018	-0.936918	-0.000219
O109	O	-0.595845	-0.685612	-0.000160
H110	H	-0.670977	-0.695163	-0.000155
H111	H	-0.496218	-0.997409	-0.000236
H112	H	0.231555	-0.735061	0.804088
O113	O	0.293642	-0.451728	-0.000187
H114	H	0.351489	-0.483384	-0.000188
H115	H	-0.026016	-0.493234	-0.000190
H116	H	-0.023524	-0.624677	-0.000146
