data_functionalizedCrystal
_audit_creation_method	'MofGen! by Chris Wilmer'
_symmetry_space_group_name_H-M	'P1'
_symmetry_Int_Tables_number	1
_symmetry_cell_setting	triclinic
loop_
_symmetry_equiv_pos_as_xyz
  x,y,z
_cell_length_a	19.288864
_cell_length_b	15.944551
_cell_length_c	17.766277
_cell_angle_alpha	89.992686
_cell_angle_beta	89.976791
_cell_angle_gamma	83.317492
loop_
_atom_site_label
_atom_site_type_symbol
_atom_site_fract_x
_atom_site_fract_y
_atom_site_fract_z
O1	O	0.921629	0.104784	-0.062837
O2	O	0.719406	0.118919	-0.062786
O3	O	0.826040	-0.010445	-0.062806
O4	O	0.814995	0.234147	-0.062817
O5	O	0.826021	-0.010451	0.062382
O6	O	0.719387	0.118912	0.062403
O7	O	0.921610	0.104777	0.062351
Cu8	Cu	0.820497	0.111844	0.073808
Cu9	Cu	0.820519	0.111852	-0.074242
O10	O	0.814976	0.234141	0.062372
C11	C	0.693519	0.118461	-0.000185
C12	C	0.616411	0.117095	-0.000165
C13	C	0.571915	0.193000	-0.000181
C14	C	0.499465	0.191717	-0.000189
C15	C	0.471514	0.114526	-0.000197
C16	C	0.516020	0.038611	-0.000178
C17	C	0.588469	0.039896	-0.000162
C18	C	0.363099	0.053847	-0.044079
C19	C	0.290651	0.052565	-0.044099
C20	C	0.248058	0.110560	-0.000242
C21	C	0.277920	0.169850	0.043625
C22	C	0.350369	0.171135	0.043641
C23	C	0.392956	0.113124	-0.000214
C24	C	0.125002	0.185079	-0.000265
C25	C	0.052550	0.183793	-0.000269
C26	C	0.069107	0.030684	-0.000265
C27	C	0.141557	0.031972	-0.000254
C28	C	0.169500	0.109172	-0.000258
C29	C	0.825572	-0.041740	-0.000212
C30	C	0.824197	-0.134981	-0.000211
C31	C	0.754815	-0.349571	-0.000204
C32	C	0.787024	-0.410715	0.061514
C33	C	0.821710	-0.305697	-0.000216
C34	C	0.787059	-0.410692	-0.061912
C35	C	0.819303	-0.470601	-0.000224
C36	C	0.853938	-0.365614	0.061552
C37	C	0.853963	-0.365585	-0.061929
C38	C	0.886222	-0.426712	-0.000197
C39	C	0.823095	-0.210700	-0.000211
C40	C	0.817924	-0.565597	-0.000224
C41	C	0.947497	0.105235	-0.000251
C42	C	1.024605	0.106600	-0.000276
C43	C	0.815444	0.265436	-0.000225
C44	C	0.816819	0.358677	-0.000230
N45	N	0.820486	0.111838	0.177938
N46	N	0.820535	0.111851	-0.178373
C47	C	0.867719	0.054584	0.217316
C48	C	0.867723	0.054580	0.296118
C49	C	0.820501	0.111845	0.335539
C50	C	0.773259	0.169103	0.296151
C51	C	0.773252	0.169100	0.217351
C52	C	0.811404	0.188378	0.460375
C53	C	0.811416	0.188382	0.539173
C54	C	0.820520	0.111855	0.578585
C55	C	0.829626	0.035319	0.539188
C56	C	0.829618	0.035316	0.460387
C57	C	0.820503	0.111854	0.420984
C58	C	0.867759	0.054592	0.703409
C59	C	0.867759	0.054587	0.782212
C60	C	0.773298	0.169117	0.782244
C61	C	0.773295	0.169115	0.703442
C62	C	0.820530	0.111853	0.664029
H63	H	0.374680	0.219409	0.079362
H64	H	0.906219	0.007959	0.814274
C65	C	0.681911	-0.216820	-0.000778
C66	C	0.679859	-0.304312	-0.000112
H67	H	0.635637	-0.188881	-0.000725
H68	H	0.705897	-0.200744	0.042619
H69	H	0.705583	-0.201497	-0.044689
H70	H	0.656192	-0.319636	0.043801
H71	H	0.655863	-0.320394	-0.043515
H72	H	0.147754	0.247939	-0.000257
H73	H	0.758764	-0.430657	-0.114093
C74	C	0.893557	-0.250948	-0.131253
C75	C	0.892138	-0.338541	-0.132386
H76	H	0.917124	-0.234253	-0.174752
H77	H	0.847142	-0.223481	-0.130802
H78	H	0.917378	-0.235708	-0.087440
H79	H	0.868313	-0.353781	-0.176196
H80	H	0.938562	-0.366018	-0.132843
H81	H	0.016321	0.245606	-0.000277
H82	H	0.758722	-0.430717	0.113705
H83	H	0.397773	0.006619	-0.079797
H84	H	0.837039	-0.026997	0.571275
H85	H	0.734846	0.215740	0.814340
H86	H	0.734837	0.215740	0.671378
C87	C	0.781082	-0.055466	0.371826
C88	C	0.839601	-0.048812	0.417090
H89	H	0.787241	-0.107404	0.345096
H90	H	0.740655	-0.053624	0.402599
H91	H	0.775672	-0.009889	0.337078
H92	H	0.845008	-0.094386	0.451842
H93	H	0.880039	-0.050663	0.386315
H94	H	0.594661	0.255862	-0.000185
C95	C	0.892998	-0.251104	0.131452
C96	C	0.892088	-0.338785	0.132071
H97	H	0.916545	-0.234541	0.174990
H98	H	0.916609	-0.235304	0.087674
H99	H	0.846456	-0.224003	0.131285
H100	H	0.938631	-0.365887	0.132232
H101	H	0.868480	-0.354594	0.175860
H102	H	0.804006	0.250702	0.571244
C103	C	0.653027	0.218791	0.320479
C104	C	0.721351	0.232047	0.339482
H105	H	0.620979	0.257646	0.347234
H106	H	0.646266	0.226988	0.267919
H107	H	0.645498	0.162751	0.333410
H108	H	0.728881	0.288086	0.326545
H109	H	0.728115	0.223857	0.392053
C110	C	0.793433	0.339681	0.468276
C111	C	0.801409	0.272506	0.417058
H112	H	0.787269	0.391615	0.441533
H113	H	0.753748	0.335153	0.499026
H114	H	0.833879	0.337839	0.498995
H115	H	0.760960	0.274344	0.386342
H116	H	0.841098	0.277035	0.386294
H117	H	0.941797	-0.460084	-0.000176
H118	H	0.906179	0.007956	0.185228
C119	C	0.507781	-0.092284	0.064174
C120	C	0.485299	-0.046240	-0.000188
H121	H	0.488812	-0.144666	0.064170
H122	H	0.557292	-0.102381	0.064182
H123	H	0.492476	-0.061034	0.107820
H124	H	0.500608	-0.077487	-0.043835
H125	H	0.435778	-0.036145	-0.000202
H126	H	0.906187	0.007955	0.328185
C127	C	0.961123	-0.058623	0.711289
C128	C	0.919670	-0.008358	0.660080
H129	H	0.993167	-0.097488	0.684540
H130	H	0.986110	-0.023737	0.742005
H131	H	0.932205	-0.088744	0.742045
H132	H	0.948588	0.021768	0.629328
H133	H	0.894682	-0.043248	0.629352
C134	C	0.732467	0.314639	0.193091
C135	C	0.721335	0.232045	0.174061
H136	H	0.700418	0.353498	0.166361
H137	H	0.725707	0.322828	0.245656
H138	H	0.778822	0.323607	0.180149
H139	H	0.674981	0.223075	0.187008
H140	H	0.728089	0.223852	0.121485
H141	H	0.463229	0.253530	-0.000199
H142	H	0.243242	0.217075	0.079338
H143	H	0.046351	-0.032167	-0.000319
C144	C	0.178009	-0.098121	-0.064609
C145	C	0.190473	-0.051465	-0.000250
H146	H	0.208212	-0.149632	-0.064605
H147	H	0.130868	-0.109932	-0.064612
H148	H	0.186508	-0.066444	-0.108257
H149	H	0.181970	-0.083140	0.043399
H150	H	0.237626	-0.039657	-0.000239
C151	C	0.274216	-0.001412	-0.168173
C152	C	0.257833	-0.012608	-0.092318
H153	H	0.253962	-0.041653	-0.197940
H154	H	0.256339	0.053941	-0.183599
H155	H	0.323461	-0.008947	-0.174425
H156	H	0.208588	-0.005067	-0.086065
H157	H	0.275707	-0.067974	-0.076887
C158	C	0.624920	-0.090201	-0.064511
C159	C	0.637386	-0.043544	-0.000154
H160	H	0.655124	-0.141711	-0.064508
H161	H	0.577779	-0.102014	-0.064511
H162	H	0.633415	-0.058524	-0.108160
H163	H	0.628885	-0.075219	0.043496
H164	H	0.684538	-0.031733	-0.000146
