data_functionalizedCrystal
_audit_creation_method	'MofGen! by Chris Wilmer'
_symmetry_space_group_name_H-M	'P1'
_symmetry_Int_Tables_number	1
_symmetry_cell_setting	triclinic
loop_
_symmetry_equiv_pos_as_xyz
  x,y,z
_cell_length_a	14.908993
_cell_length_b	18.050590
_cell_length_c	14.908308
_cell_angle_alpha	86.735264
_cell_angle_beta	83.629285
_cell_angle_gamma	93.320249
loop_
_atom_site_label
_atom_site_type_symbol
_atom_site_fract_x
_atom_site_fract_y
_atom_site_fract_z
Zn1	Zn	1.354249	-0.251783	0.432034
Zn2	Zn	1.362892	-0.368383	0.280676
Zn3	Zn	1.211623	-0.251819	0.289413
Zn4	Zn	1.202863	-0.383546	0.440706
O5	O	1.282907	-0.313883	0.360707
O6	O	1.482058	-0.260890	0.404671
O7	O	1.350108	-0.346590	0.155174
O8	O	1.230591	-0.147888	0.308359
O9	O	1.488407	-0.346556	0.293469
O10	O	1.335378	-0.147862	0.413143
O11	O	1.238971	-0.260951	0.161593
O12	O	1.083798	-0.275653	0.316768
O13	O	1.215662	-0.372398	0.566217
O14	O	1.077363	-0.372432	0.427922
O15	O	1.326885	-0.275593	0.559846
O16	O	1.341614	-0.474320	0.301877
O17	O	1.224042	-0.485460	0.419451
C18	C	1.047739	-0.325692	0.374235
C19	C	0.947131	-0.330763	0.380043
C20	C	0.764720	-0.239381	0.275374
C21	C	0.670191	-0.244143	0.280829
C22	C	0.663542	-0.345052	0.396402
C23	C	0.758072	-0.340290	0.390947
C24	C	0.808657	-0.287452	0.330432
C25	C	0.903188	-0.282687	0.324983
C26	C	0.896538	-0.383599	0.440550
C27	C	0.802009	-0.388361	0.446005
C28	C	1.282839	-0.506837	0.360675
C29	C	1.282891	-0.589380	0.360687
C30	C	1.346948	-0.782744	0.296828
C31	C	1.364289	-0.835113	0.378164
C32	C	1.282941	-0.740510	0.360720
C33	C	1.265689	-0.835221	0.279416
C34	C	1.282990	-0.886494	0.360745
C35	C	1.300322	-0.791791	0.442097
C36	C	1.201687	-0.791894	0.343296
C37	C	1.218993	-0.844244	0.424691
C38	C	1.282914	-0.656412	0.360705
C39	C	1.283016	-0.970590	0.360770
C40	C	1.518993	-0.302028	0.347128
C41	C	1.619599	-0.296976	0.341341
C42	C	1.269332	-0.325682	0.596791
C43	C	1.263548	-0.330711	0.697396
C44	C	1.282998	-0.120175	0.360758
C45	C	1.283037	-0.037629	0.360780
C46	C	1.296480	-0.302073	0.125539
C47	C	1.302440	-0.296826	0.024925
C48	C	1.368492	-0.239339	0.879811
C49	C	1.363059	-0.244061	0.974338
C50	C	1.247247	-0.344872	0.980979
C51	C	1.252679	-0.340150	0.886452
C52	C	1.313305	-0.287383	0.835871
C53	C	1.318741	-0.282665	0.741342
C54	C	1.202925	-0.383472	0.747985
C55	C	1.197492	-0.388194	0.842512
H56	H	0.932321	-0.422738	0.485388
O57	O	1.411652	-0.750794	0.232525
C58	C	1.497233	-0.772746	0.251247
H59	H	1.494568	-0.790245	0.326233
H60	H	1.516605	-0.821537	0.209433
C61	C	1.571425	-0.685687	0.134787
C62	C	1.568153	-0.707173	0.226888
H63	H	1.615174	-0.645241	0.119758
H64	H	1.513768	-0.670899	0.122171
H65	H	1.587566	-0.726352	0.099953
H66	H	1.552002	-0.666512	0.261721
H67	H	1.625810	-0.721953	0.239510
O68	O	1.377723	-0.231506	0.692158
C69	C	1.439300	-0.268110	0.634087
H70	H	1.443240	-0.327743	0.662236
H71	H	1.415428	-0.268498	0.564057
C72	C	1.528648	-0.153774	0.592652
C73	C	1.533493	-0.227015	0.627230
H74	H	1.586750	-0.128424	0.588419
H75	H	1.487161	-0.129112	0.631773
H76	H	1.508752	-0.154108	0.534298
H77	H	1.553378	-0.226680	0.685588
H78	H	1.574986	-0.251676	0.588119
H79	H	0.805907	-0.196350	0.226112
O80	O	1.446356	-0.857753	0.395735
C81	C	1.504121	-0.795217	0.407275
H82	H	1.479605	-0.743860	0.371764
H83	H	1.503632	-0.786578	0.482482
C84	C	1.631113	-0.871030	0.409876
C85	C	1.601005	-0.807953	0.366253
H86	H	1.690876	-0.878886	0.384576
H87	H	1.592195	-0.913162	0.402104
H88	H	1.630698	-0.863822	0.472545
H89	H	1.601409	-0.815165	0.303587
H90	H	1.639925	-0.765822	0.374013
O91	O	1.149399	-0.430247	0.705341
C92	C	1.167802	-0.504426	0.727307
H93	H	1.238618	-0.505841	0.749126
H94	H	1.116115	-0.529013	0.784968
C95	C	1.075089	-0.548590	0.617136
C96	C	1.162069	-0.550329	0.643928
H97	H	1.071549	-0.576908	0.565707
H98	H	1.062687	-0.498615	0.602339
H99	H	1.032025	-0.569078	0.665195
H100	H	1.205129	-0.529833	0.595874
H101	H	1.174478	-0.600303	0.658715
H102	H	1.417859	-0.196377	0.838626
O103	O	1.317883	-0.768899	0.524090
C104	C	1.317660	-0.690757	0.523082
H105	H	1.331924	-0.666217	0.450376
H106	H	1.248720	-0.674365	0.553783
C107	C	1.373753	-0.690830	0.668020
C108	C	1.391280	-0.660690	0.578722
H109	H	1.419162	-0.672283	0.702344
H110	H	1.373900	-0.743476	0.668701
H111	H	1.316301	-0.677168	0.693592
H112	H	1.448725	-0.674360	0.553148
H113	H	1.391144	-0.608045	0.578037
O114	O	0.614258	-0.396314	0.455155
C115	C	0.521405	-0.390222	0.448137
H116	H	0.510204	-0.332046	0.419361
H117	H	0.497343	-0.433149	0.401386
C118	C	0.481368	-0.475618	0.577840
C119	C	0.467610	-0.404163	0.542504
H120	H	0.448183	-0.484220	0.636049
H121	H	0.543924	-0.479725	0.582567
H122	H	0.461317	-0.511382	0.538872
H123	H	0.487671	-0.368399	0.581466
H124	H	0.405055	-0.400050	0.537786
O125	O	1.154534	-0.876036	0.489345
C126	C	1.173080	-0.853836	0.574910
H127	H	1.248068	-0.836323	0.572371
H128	H	1.131284	-0.804992	0.594026
C129	C	1.056402	-0.940733	0.649104
C130	C	1.148505	-0.919230	0.645987
H131	H	1.041240	-0.981069	0.692949
H132	H	1.043904	-0.955688	0.591457
H133	H	1.021583	-0.900024	0.665030
H134	H	1.183322	-0.959936	0.630050
H135	H	1.161008	-0.904283	0.703633
H136	H	1.132973	-0.772789	0.328516
H137	H	0.944373	-0.239659	0.275714
H138	H	1.251077	-0.854396	0.210649
H139	H	1.197889	-0.387833	1.022178
O140	O	1.416763	-0.197358	1.016876
C141	C	1.471416	-0.149761	0.951959
H142	H	1.478410	-0.176657	0.884390
H143	H	1.438869	-0.094522	0.943826
C144	C	1.557044	-0.103023	1.066298
C145	C	1.565641	-0.136060	0.983310
H146	H	1.615165	-0.094568	1.085637
H147	H	1.520222	-0.135088	1.110035
H148	H	1.529919	-0.056994	1.059510
H149	H	1.592755	-0.182092	0.990102
H150	H	1.602470	-0.104002	0.939575
O151	O	1.138479	-0.439377	0.891616
C152	C	1.049602	-0.426543	0.873693
H153	H	1.046544	-0.366146	0.847984
H154	H	1.029085	-0.464809	0.820175
C155	C	0.988119	-0.516602	0.992712
C156	C	0.984362	-0.442419	0.961144
H157	H	0.947874	-0.526398	1.046654
H158	H	1.047997	-0.525250	1.004785
H159	H	0.971023	-0.548481	0.948106
H160	H	1.001468	-0.410541	1.005745
H161	H	0.924485	-0.433766	0.949080
O162	O	0.752817	-0.439582	0.504887
C163	C	0.694776	-0.403045	0.566568
H164	H	0.722955	-0.343411	0.570631
H165	H	0.624740	-0.402663	0.542717
C166	C	0.653309	-0.517451	0.655682
C167	C	0.687923	-0.444209	0.660679
H168	H	0.649077	-0.542843	0.713733
H169	H	0.692409	-0.542067	0.614125
H170	H	0.594950	-0.517122	0.635803
H171	H	0.746285	-0.444538	0.680546
H172	H	0.648832	-0.419593	0.702241
H173	H	0.634421	-0.204998	0.235996
