data_functionalizedCrystal
_audit_creation_method	'MofGen! by Chris Wilmer'
_symmetry_space_group_name_H-M	'P1'
_symmetry_Int_Tables_number	1
_symmetry_cell_setting	triclinic
loop_
_symmetry_equiv_pos_as_xyz
  x,y,z
_cell_length_a	23.532407
_cell_length_b	23.532407
_cell_length_c	15.072220
_cell_angle_alpha	90.014788
_cell_angle_beta	89.992736
_cell_angle_gamma	82.848712
loop_
_atom_site_label
_atom_site_type_symbol
_atom_site_fract_x
_atom_site_fract_y
_atom_site_fract_z
O1	O	0.755251	0.069141	0.073735
O2	O	1.255251	0.569141	0.573735
O3	O	0.589388	0.079144	0.073751
O4	O	1.089388	0.579144	0.573751
O5	O	0.677321	-0.008789	0.073726
O6	O	1.177321	0.491211	0.573726
O7	O	0.667318	0.157074	0.073760
O8	O	1.167318	0.657074	0.573760
O9	O	0.677330	-0.008803	-0.073839
O10	O	1.177330	0.491197	0.426161
O11	O	0.589397	0.079130	-0.073814
O12	O	1.089397	0.579130	0.426186
O13	O	0.755260	0.069127	-0.073830
O14	O	1.255260	0.569127	0.426170
Zn15	Zn	0.672330	0.074127	-0.097251
Zn16	Zn	1.172330	0.574127	0.402749
Zn17	Zn	0.672318	0.074144	0.097172
Zn18	Zn	1.172318	0.574144	0.597172
O19	O	0.667327	0.157060	-0.073805
O20	O	1.167327	0.657060	0.426195
C21	C	0.568176	0.078882	-0.000030
C22	C	1.068176	0.578882	0.499970
C23	C	0.504959	0.078116	-0.000025
C24	C	1.004959	0.578116	0.499975
C25	C	0.238792	0.022921	-0.000060
C26	C	0.738792	0.522921	0.499940
C27	C	0.298192	0.023632	-0.000060
C28	C	0.798192	0.523632	0.499940
O29	O	0.334937	-0.020153	-0.000099
O30	O	0.834937	0.479847	0.499901
N31	N	0.320818	0.075909	-0.000043
N32	N	0.820818	0.575909	0.499957
C33	C	0.284041	0.127477	-0.000036
C34	C	0.784041	0.627477	0.499964
O35	O	0.308740	0.172007	-0.000023
O36	O	0.808740	0.672007	0.499977
C37	C	0.224642	0.126765	-0.000043
C38	C	0.724642	0.626765	0.499957
C39	C	0.202019	0.074485	-0.000050
C40	C	0.702019	0.574485	0.499950
C41	C	0.216169	-0.029354	-0.000069
C42	C	0.716169	0.470646	0.499931
C43	C	0.156772	-0.030066	-0.000068
C44	C	0.656772	0.469934	0.499932
C45	C	0.119999	0.021499	-0.000058
C46	C	0.619999	0.521499	0.499942
C47	C	0.142623	0.073774	-0.000049
C48	C	0.642623	0.573774	0.499951
C49	C	0.187865	0.178333	-0.000042
C50	C	0.687865	0.678333	0.499958
C51	C	0.128463	0.177616	-0.000049
C52	C	0.628463	0.677616	0.499951
C53	C	0.105840	0.125336	-0.000057
C54	C	0.605840	0.625336	0.499943
C55	C	0.046454	0.124627	-0.000038
C56	C	0.546454	0.624627	0.499962
N57	N	0.023828	0.072351	-0.000055
N58	N	0.523828	0.572351	0.499945
C59	C	0.060600	0.020787	-0.000064
C60	C	0.560600	0.520787	0.499936
C61	C	0.408783	0.128968	-0.000024
C62	C	0.908783	0.628968	0.499976
C63	C	0.468181	0.129681	-0.000010
C64	C	0.968181	0.629681	0.499990
C65	C	0.482328	0.025836	-0.000036
C66	C	0.982328	0.525836	0.499964
C67	C	0.422929	0.025124	-0.000043
C68	C	0.922929	0.525124	0.499957
C69	C	0.386157	0.076692	-0.000040
C70	C	0.886157	0.576692	0.499960
C71	C	-0.064136	0.019297	-0.000061
C72	C	0.435864	0.519297	0.499939
C73	C	-0.123538	0.018590	-0.000056
C74	C	0.376462	0.518590	0.499944
C75	C	-0.137680	0.122435	-0.000035
C76	C	0.362320	0.622435	0.499965
C77	C	-0.078284	0.123142	-0.000036
C78	C	0.421716	0.623142	0.499964
C79	C	-0.041512	0.071568	-0.000051
C80	C	0.458488	0.571568	0.499949
O81	O	0.009675	0.168390	-0.000002
O82	O	0.509675	0.668390	0.499998
O83	O	0.035892	-0.023737	-0.000089
O84	O	0.535892	0.476263	0.499911
C85	C	0.677071	-0.030012	-0.000058
C86	C	1.177071	0.469988	0.499942
C87	C	0.676305	-0.093229	-0.000065
C88	C	1.176305	0.406771	0.499935
C89	C	0.723538	-0.492332	-0.000021
C90	C	1.223538	0.007668	0.499979
C91	C	0.722827	-0.551733	-0.000014
C92	C	1.222827	-0.051733	0.499986
O93	O	0.766613	-0.588477	0.000015
O94	O	1.266613	-0.088477	0.500015
N95	N	0.670551	-0.574359	-0.000010
N96	N	1.170551	-0.074359	0.499990
C97	C	0.618982	-0.537581	-0.000004
C98	C	1.118982	-0.037581	0.499996
O99	O	0.574452	-0.562281	0.000002
O100	O	1.074452	-0.062281	0.500002
C101	C	0.619695	-0.478182	-0.000004
C102	C	1.119695	0.021818	0.499996
C103	C	0.671974	-0.455559	-0.000017
C104	C	1.171974	0.044441	0.499983
C105	C	0.775814	-0.469709	-0.000033
C106	C	1.275814	0.030291	0.499967
C107	C	0.776525	-0.410313	-0.000042
C108	C	1.276525	0.089687	0.499958
C109	C	0.724961	-0.373540	-0.000038
C110	C	1.224961	0.126460	0.499962
C111	C	0.672685	-0.396163	-0.000026
C112	C	1.172685	0.103837	0.499974
C113	C	0.568127	-0.441406	0.000009
C114	C	1.068127	0.058594	0.500009
C115	C	0.568843	-0.382003	0.000009
C116	C	1.068843	0.117997	0.500009
C117	C	0.621123	-0.359381	-0.000004
C118	C	1.121123	0.140619	0.499996
C119	C	0.621832	-0.299994	-0.000030
C120	C	1.121832	0.200006	0.499970
N121	N	0.674109	-0.277368	-0.000035
N122	N	1.174109	0.222632	0.499965
C123	C	0.725673	-0.314141	-0.000038
C124	C	1.225673	0.185859	0.499962
C125	C	0.617491	-0.662324	-0.000001
C126	C	1.117491	-0.162324	0.499999
C127	C	0.616778	-0.721722	-0.000007
C128	C	1.116778	-0.221722	0.499993
C129	C	0.720623	-0.735869	-0.000016
C130	C	1.220623	-0.235869	0.499984
C131	C	0.721335	-0.676470	-0.000016
C132	C	1.221335	-0.176470	0.499984
C133	C	0.669767	-0.639698	-0.000005
C134	C	1.169767	-0.139698	0.499995
C135	C	0.727163	-0.189404	-0.000057
C136	C	1.227163	0.310596	0.499943
C137	C	0.727869	-0.130002	-0.000069
C138	C	1.227869	0.369998	0.499931
C139	C	0.624025	-0.115860	-0.000055
C140	C	1.124025	0.384140	0.499945
C141	C	0.623318	-0.175257	-0.000048
C142	C	1.123318	0.324743	0.499952
C143	C	0.674891	-0.212028	-0.000046
C144	C	1.174891	0.287972	0.499954
O145	O	0.578069	-0.263215	-0.000055
O146	O	1.078069	0.236785	0.499945
O147	O	0.770196	-0.289433	-0.000032
O148	O	1.270196	0.210567	0.499968
C149	C	0.776472	0.069389	-0.000047
C150	C	1.276472	0.569389	0.499953
C151	C	0.839689	0.070155	-0.000046
C152	C	1.339689	0.570155	0.499954
C153	C	0.667577	0.178283	-0.000019
C154	C	1.167577	0.678283	0.499981
C155	C	0.668343	0.241500	-0.000006
C156	C	1.168343	0.741500	0.499994
N157	N	0.672311	0.074152	0.229861
N158	N	1.172311	0.574152	0.729861
N159	N	0.672342	0.074114	-0.229940
N160	N	1.172342	0.574114	0.270060
C161	C	0.672321	0.074140	0.410858
C162	C	1.172321	0.574140	0.910858
C163	C	0.625182	0.121093	0.448540
C164	C	1.125182	0.621093	0.948540
C165	C	0.625307	0.121251	0.551366
C166	C	1.125307	0.621251	1.051366
C167	C	0.672331	0.074127	0.589063
C168	C	1.172331	0.574127	1.089063
C169	C	0.731705	0.086682	0.551724
C170	C	1.231705	0.586682	1.051724
C171	C	0.731423	0.087027	0.448866
C172	C	1.231423	0.587027	0.948866
C173	C	0.660624	0.014485	0.448730
C174	C	1.160624	0.514485	0.948730
C175	C	0.659277	0.014882	0.551595
C176	C	1.159277	0.514882	1.051595
C177	C	0.672340	0.074119	0.689776
C178	C	1.172340	0.574119	1.189776
C179	C	0.672316	0.074149	0.310145
C180	C	1.172316	0.574149	0.810145
H181	H	-0.141954	-0.023984	-0.000060
H182	H	0.358046	0.476016	0.499940
C183	C	0.780226	0.041687	0.584707
C184	C	1.280226	0.541687	1.084707
H185	H	0.764667	0.014781	0.621635
H186	H	1.264667	0.514781	1.121635
H187	H	0.798818	0.022389	0.535304
H188	H	1.298818	0.522389	1.035304
H189	H	0.807124	0.060133	0.617551
H190	H	1.307124	0.560133	1.117551
H191	H	0.742315	0.129671	0.577511
H192	H	1.242315	0.629671	1.077511
H193	H	0.767585	0.054155	0.423936
H194	H	1.267585	0.554155	0.923936
H195	H	-0.034204	-0.022699	-0.000074
H196	H	0.465796	0.477301	0.499926
C197	C	0.131895	-0.087574	-0.000092
C198	C	0.631895	0.412426	0.499908
H199	H	0.162309	-0.118177	-0.000109
H200	H	0.662309	0.381823	0.499891
H201	H	0.109010	-0.090015	0.051361
H202	H	0.609010	0.409985	0.551361
H203	H	0.109027	-0.090013	-0.051564
H204	H	0.609027	0.409987	0.448436
C205	C	0.256610	-0.086080	-0.000072
C206	C	0.756610	0.413920	0.499928
H207	H	0.234621	-0.117310	-0.000071
H208	H	0.734621	0.382690	0.499929
H209	H	0.280087	-0.087976	-0.051525
H210	H	0.780087	0.412024	0.448475
H211	H	0.280065	-0.087957	0.051400
H212	H	0.780065	0.412043	0.551400
C213	C	-0.178138	0.179151	-0.000031
C214	C	0.321862	0.679151	0.499969
H215	H	-0.216752	0.171235	-0.000043
H216	H	0.283248	0.671235	0.499957
H217	H	-0.171321	0.200613	0.051428
H218	H	0.328679	0.700613	0.551428
H219	H	-0.171305	0.200591	-0.051497
H220	H	0.328695	0.700591	0.448503
C221	C	0.745397	0.145780	0.416485
C222	C	1.245397	0.645780	0.916485
H223	H	0.745350	0.146507	0.353463
H224	H	1.245350	0.646507	0.853463
H225	H	0.717368	0.174987	0.438285
H226	H	1.217368	0.674987	0.938285
H227	H	0.782101	0.152087	0.437722
H228	H	1.282101	0.652087	0.937722
C229	C	0.559273	-0.746603	-0.000003
C230	C	1.059273	-0.246603	0.499997
H231	H	0.566228	-0.787246	-0.000005
H232	H	1.066228	-0.287246	0.499995
H233	H	0.538053	-0.733947	0.051457
H234	H	1.038053	-0.233947	0.551457
H235	H	0.538061	-0.733971	-0.051468
H236	H	1.038061	-0.233971	0.448532
C237	C	0.834033	-0.385435	-0.000039
C238	C	1.334033	0.114565	0.499961
H239	H	0.864637	-0.415850	-0.000030
H240	H	1.364637	0.084150	0.499970
H241	H	0.836482	-0.362567	-0.051496
H242	H	1.336482	0.137433	0.448504
H243	H	0.836465	-0.362552	0.051429
H244	H	1.336465	0.137448	0.551429
H245	H	0.695004	-0.020452	0.424357
H246	H	1.195004	0.479548	0.924357
C247	C	0.603398	-0.001947	0.413702
C248	C	1.103398	0.498053	0.913702
H249	H	0.586103	0.027425	0.375649
H250	H	1.086103	0.527425	0.875649
H251	H	0.610192	-0.036891	0.381638
H252	H	1.110192	0.463109	0.881638
H253	H	0.578588	-0.006496	0.462215
H254	H	1.078588	0.493504	0.962215
H255	H	0.615601	0.005344	0.576002
H256	H	1.115601	0.505344	1.076002
H257	H	0.525555	-0.459814	0.000025
H258	H	1.025555	0.040186	0.500025
H259	H	-0.059864	0.165712	-0.000028
H260	H	0.440136	0.665712	0.499972
C261	C	0.560763	-0.621879	-0.000006
C262	C	1.060763	-0.121879	0.499994
H263	H	0.529531	-0.643866	-0.000011
H264	H	1.029531	-0.143866	0.499989
H265	H	0.558872	-0.598401	0.051451
H266	H	1.058872	-0.098401	0.551451
H267	H	0.558885	-0.598425	-0.051474
H268	H	1.058885	-0.098425	0.448526
C269	C	0.088016	0.234342	-0.000038
C270	C	0.588016	0.734342	0.499962
H271	H	0.110001	0.265576	-0.000025
H272	H	0.610001	0.765576	0.499975
H273	H	0.064553	0.236222	-0.051494
H274	H	0.564553	0.736222	0.448506
H275	H	0.064549	0.236228	0.051431
H276	H	0.564549	0.736228	0.551431
H277	H	0.691408	-0.021669	0.577250
H278	H	1.191408	0.478331	1.077250
H279	H	0.581165	0.113833	0.576614
H280	H	1.081165	0.613833	1.076614
C281	C	0.567309	-0.075403	-0.000046
C282	C	1.067309	0.424597	0.499954
H283	H	0.575224	-0.036788	-0.000042
H284	H	1.075224	0.463212	0.499958
H285	H	0.545855	-0.082236	-0.051497
H286	H	1.045855	0.417764	0.448503
H287	H	0.545860	-0.082219	0.051427
H288	H	1.045860	0.417781	0.551427
C289	C	0.785379	-0.105121	-0.000078
C290	C	1.285379	0.394879	0.499922
H291	H	0.815985	-0.135532	-0.000070
H292	H	1.315985	0.364468	0.499930
H293	H	0.787822	-0.082254	-0.051539
H294	H	1.287822	0.417746	0.448461
H295	H	0.787812	-0.082233	0.051385
H296	H	1.287812	0.417767	0.551385
H297	H	0.404515	-0.017447	-0.000049
H298	H	0.904515	0.482553	0.499951
C299	C	0.565343	0.111261	0.415132
C300	C	1.065343	0.611261	0.915132
H301	H	0.568570	0.078435	0.377898
H302	H	1.068570	0.578435	0.877898
H303	H	0.541507	0.105475	0.464346
H304	H	1.041507	0.605475	0.964346
H305	H	0.549039	0.143806	0.382517
H306	H	1.049039	0.643806	0.882517
C307	C	0.522784	-0.030886	-0.000053
C308	C	1.022784	0.469114	0.499947
H309	H	0.500807	-0.062125	-0.000056
H310	H	1.000807	0.437875	0.499944
H311	H	0.546255	-0.032767	-0.051512
H312	H	1.046255	0.467233	0.448488
H313	H	0.546243	-0.032760	0.051413
H314	H	1.046243	0.467240	0.551413
H315	H	0.526850	-0.352065	0.000019
H316	H	1.026850	0.147935	0.500019
H317	H	0.486595	0.172252	0.000008
H318	H	0.986595	0.672252	0.500008
H319	H	0.378846	0.170964	-0.000015
H320	H	0.878846	0.670964	0.499985
H321	H	0.580747	-0.193677	-0.000062
H322	H	1.080747	0.306323	0.499938
C323	C	0.635096	0.180573	0.413674
C324	C	1.135096	0.680573	0.913674
H325	H	0.667840	0.176916	0.376255
H326	H	1.167840	0.676916	0.876255
H327	H	0.602508	0.196664	0.380968
H328	H	1.102508	0.696664	0.880968
H329	H	0.641069	0.204833	0.462295
H330	H	1.141069	0.704833	0.962295
H331	H	0.206274	0.220904	-0.000032
H332	H	0.706274	0.720904	0.499968
H333	H	0.632760	0.165523	0.576002
H334	H	1.132760	0.665523	1.076002
C335	C	0.777345	-0.776324	-0.000013
C336	C	1.277345	-0.276324	0.499987
H337	H	0.808585	-0.754347	-0.000024
H338	H	1.308585	-0.254347	0.499976
H339	H	0.779219	-0.799780	0.051447
H340	H	1.279219	-0.299780	0.551447
H341	H	0.779227	-0.799800	-0.051478
H342	H	1.279227	-0.299800	0.448522
H343	H	0.769159	-0.219337	-0.000051
H344	H	1.269159	0.280663	0.499949
C345	C	0.832540	-0.510151	-0.000044
C346	C	1.332540	-0.010151	0.499956
H347	H	0.863770	-0.488161	-0.000058
H348	H	1.363770	0.011839	0.499942
H349	H	0.834428	-0.533612	0.051411
H350	H	1.334428	-0.033612	0.551411
H351	H	0.834424	-0.533622	-0.051514
H352	H	1.334424	-0.033622	0.448486
C353	C	0.778842	-0.651590	-0.000022
C354	C	1.278842	-0.151590	0.499978
H355	H	0.809447	-0.682003	-0.000020
H356	H	1.309447	-0.182003	0.499980
H357	H	0.781285	-0.628720	-0.051479
H358	H	1.281285	-0.128720	0.448521
H359	H	0.781277	-0.628707	0.051445
H360	H	1.281277	-0.128707	0.551445
