data_functionalizedCrystal
_audit_creation_method	'MofGen! by Chris Wilmer'
_symmetry_space_group_name_H-M	'P1'
_symmetry_Int_Tables_number	1
_symmetry_cell_setting	triclinic
loop_
_symmetry_equiv_pos_as_xyz
  x,y,z
_cell_length_a	17.077404
_cell_length_b	19.805405
_cell_length_c	17.077396
_cell_angle_alpha	90.028963
_cell_angle_beta	90.019777
_cell_angle_gamma	90.022112
loop_
_atom_site_label
_atom_site_type_symbol
_atom_site_fract_x
_atom_site_fract_y
_atom_site_fract_z
Zn1	Zn	1.200034	-0.269547	0.443846
Zn2	Zn	1.199932	-0.382740	0.312579
Zn3	Zn	1.068765	-0.269561	0.312593
Zn4	Zn	1.068725	-0.382690	0.443802
O5	O	1.134364	-0.326134	0.378205
O6	O	1.309867	-0.284577	0.426445
O7	O	1.182507	-0.367753	0.202734
O8	O	1.086238	-0.174842	0.330029
O9	O	1.309792	-0.367739	0.330004
O10	O	1.182680	-0.174832	0.426459
O11	O	1.086139	-0.284601	0.202744
O12	O	0.958913	-0.284553	0.329986
O13	O	1.086169	-0.367654	0.553654
O14	O	0.958883	-0.367668	0.426384
O15	O	1.182641	-0.284528	0.553687
O16	O	1.182467	-0.477450	0.329961
O17	O	1.086070	-0.477413	0.426370
C18	C	0.930416	-0.326107	0.378182
C19	C	0.843166	-0.326112	0.378191
C20	C	0.467357	-0.369509	0.428343
C21	C	0.549337	-0.369500	0.428331
C22	C	0.590317	-0.326152	0.378217
C23	C	0.549313	-0.282815	0.328107
C24	C	0.467334	-0.282827	0.328115
C25	C	0.720183	-0.282790	0.328094
C26	C	0.802167	-0.282776	0.328086
C27	C	0.802186	-0.369463	0.428310
C28	C	0.720207	-0.369476	0.428318
C29	C	0.679208	-0.326137	0.378208
C30	C	1.134274	-0.501990	0.378176
C31	C	1.134308	-0.577222	0.378191
C32	C	1.184496	-0.612503	0.428441
C33	C	1.184524	-0.683191	0.428456
C34	C	1.134368	-0.718598	0.378215
C35	C	1.084175	-0.683312	0.327962
C36	C	1.084143	-0.612625	0.327952
C37	C	1.084301	-0.968386	0.328002
C38	C	1.084338	-1.039078	0.328015
C39	C	1.184682	-1.038951	0.428506
C40	C	1.184650	-0.968264	0.428496
C41	C	1.134454	-0.932985	0.378246
C42	C	1.134423	-0.856337	0.378232
C43	C	1.134403	-0.795245	0.378225
C44	C	1.339108	-0.326162	0.378228
C45	C	1.426358	-0.326174	0.378238
C46	C	1.134411	-0.326084	0.582949
C47	C	1.134432	-0.326063	0.670199
C48	C	1.134475	-0.149591	0.378251
C49	C	1.134522	-0.074359	0.378270
C50	C	1.134362	-0.326135	0.174257
C51	C	1.134494	-0.325966	0.087008
C52	C	1.184667	-0.282776	0.711207
C53	C	1.184676	-0.282753	0.793188
C54	C	1.134454	-0.326022	0.834159
C55	C	1.084214	-0.369311	0.793144
C56	C	1.084201	-0.369330	0.711165
C57	C	1.084245	-0.369270	0.964015
C58	C	1.084259	-0.369253	1.045999
C59	C	1.184720	-0.282694	1.046037
C60	C	1.184708	-0.282713	0.964058
C61	C	1.134468	-0.326003	0.923050
H62	H	0.835572	-0.404749	0.469113
H63	H	1.225584	-0.247506	0.826573
H64	H	0.686843	-0.404771	0.469129
O65	O	1.035528	-0.934226	0.279108
C66	C	0.935983	-0.941817	0.179449
C67	C	0.991190	-0.980590	0.234776
H68	H	0.900110	-0.979286	0.143604
H69	H	0.971998	-0.908742	0.138382
H70	H	0.894930	-0.908711	0.215450
H71	H	1.032254	-1.013733	0.198839
H72	H	0.955126	-1.013623	0.275845
O73	O	1.233483	-0.240541	1.085778
C74	C	1.271637	-0.125404	1.110917
C75	C	1.216376	-0.173061	1.065848
H76	H	1.257815	-0.070835	1.094833
H77	H	1.334934	-0.137249	1.094792
H78	H	1.263035	-0.132849	1.176545
H79	H	1.224908	-0.165642	1.000210
H80	H	1.153099	-0.161203	1.082038
H81	H	1.043362	-0.404484	1.079355
O82	O	1.233241	-0.578216	0.477322
C83	C	1.332800	-0.585560	0.576977
C84	C	1.277625	-0.624471	0.521667
H85	H	1.368711	-0.622940	0.612832
H86	H	1.296757	-0.552488	0.618035
H87	H	1.373820	-0.552439	0.540962
H88	H	1.236594	-0.657629	0.557618
H89	H	1.313717	-0.657500	0.480606
H90	H	0.835531	-0.247472	0.287287
H91	H	1.043322	-0.404511	0.930628
O92	O	0.427384	-0.240795	0.279468
C93	C	0.301080	-0.202374	0.235089
C94	C	0.346224	-0.250018	0.290215
H95	H	0.235454	-0.209804	0.243771
H96	H	0.317111	-0.214190	0.171751
H97	H	0.317261	-0.147816	0.248975
H98	H	0.330066	-0.304592	0.276401
H99	H	0.330189	-0.238143	0.353537
O100	O	1.035517	-0.411414	0.671237
C101	C	1.024897	-0.502838	0.578680
C102	C	1.080120	-0.455211	0.623838
H103	H	1.060937	-0.538269	0.540359
H104	H	0.983880	-0.471801	0.540247
H105	H	0.988984	-0.533734	0.622052
H106	H	1.116084	-0.424305	0.580522
H107	H	1.121086	-0.486287	0.662282
O108	O	0.680440	-0.240724	0.279311
C109	C	0.655260	-0.207739	0.145860
C110	C	0.700332	-0.255412	0.201010
H111	H	0.671314	-0.219607	0.082542
H112	H	0.671412	-0.153164	0.159698
H113	H	0.589633	-0.215184	0.154517
H114	H	0.765969	-0.248027	0.192385
H115	H	0.684114	-0.309969	0.187159
H116	H	1.043274	-0.583900	0.287034
O117	O	0.427637	-0.411582	0.477136
C118	C	0.402570	-0.444561	0.610598
C119	C	0.447613	-0.396881	0.555429
H120	H	0.418692	-0.432682	0.673910
H121	H	0.418682	-0.499132	0.596763
H122	H	0.336939	-0.437136	0.601959
H123	H	0.513255	-0.404245	0.564037
H124	H	0.431436	-0.342327	0.569277
O125	O	0.589201	-0.411663	0.476895
C126	C	0.681781	-0.503011	0.487269
C127	C	0.636669	-0.455315	0.432178
H128	H	0.720181	-0.538307	0.451138
H129	H	0.638448	-0.534042	0.523082
H130	H	0.720152	-0.471956	0.528385
H131	H	0.598296	-0.486319	0.391015
H132	H	0.680043	-0.424282	0.396420
H133	H	0.582685	-0.247523	0.287300
H134	H	1.043334	-0.712146	0.287058
O135	O	1.233376	-0.240637	0.924179
C136	C	1.243945	-0.149232	0.831706
C137	C	1.188747	-0.196860	0.876800
H138	H	1.207884	-0.113817	0.793402
H139	H	1.284960	-0.180269	0.793263
H140	H	1.279860	-0.118319	0.875120
H141	H	1.152781	-0.227784	0.833443
H142	H	1.147784	-0.165785	0.915255
H143	H	1.225551	-1.067684	0.469425
O144	O	1.233172	-0.717487	0.477351
C145	C	1.243734	-0.797250	0.583330
C146	C	1.188546	-0.758444	0.528015
H147	H	1.207677	-0.830383	0.624295
H148	H	1.279563	-0.759826	0.619285
H149	H	1.284829	-0.830306	0.547316
H150	H	1.147403	-0.725387	0.563969
H151	H	1.152772	-0.795904	0.492058
H152	H	1.225495	-0.939438	0.469404
O153	O	1.035539	-0.411414	0.832977
C154	C	1.024933	-0.502747	0.925542
C155	C	1.080146	-0.455116	0.880469
H156	H	1.060975	-0.538083	0.963962
H157	H	0.989038	-0.533738	0.882184
H158	H	0.983900	-0.471642	0.963890
H159	H	1.121226	-0.486169	0.842120
H160	H	1.115986	-0.424123	0.923869
H161	H	1.043491	-1.067904	0.287101
H162	H	1.225566	-0.247543	0.677855
