data_functionalizedCrystal
_audit_creation_method	'MofGen! by Chris Wilmer'
_symmetry_space_group_name_H-M	'P1'
_symmetry_Int_Tables_number	1
_symmetry_cell_setting	triclinic
loop_
_symmetry_equiv_pos_as_xyz
  x,y,z
_cell_length_a	23.532407
_cell_length_b	23.532407
_cell_length_c	12.996460
_cell_angle_alpha	89.989202
_cell_angle_beta	89.999749
_cell_angle_gamma	82.848678
loop_
_atom_site_label
_atom_site_type_symbol
_atom_site_fract_x
_atom_site_fract_y
_atom_site_fract_z
O1	O	0.755260	0.069136	-0.085449
O2	O	1.088594	0.402469	0.247885
O3	O	1.421927	0.735803	0.581218
O4	O	0.589397	0.079139	-0.085480
O5	O	0.922730	0.412472	0.247853
O6	O	1.256064	0.745806	0.581186
O7	O	0.677330	-0.008794	-0.085445
O8	O	1.010664	0.324539	0.247889
O9	O	1.343997	0.657872	0.581222
O10	O	0.667327	0.157069	-0.085484
O11	O	1.000660	0.490402	0.247849
O12	O	1.333994	0.823736	0.581182
O13	O	0.677321	-0.008799	0.085689
O14	O	1.010654	0.324534	0.419022
O15	O	1.343988	0.657868	0.752356
O16	O	0.589388	0.079134	0.085653
O17	O	0.922721	0.412468	0.418987
O18	O	1.256054	0.745801	0.752320
O19	O	0.755251	0.069131	0.085685
O20	O	1.088585	0.402464	0.419018
O21	O	1.421918	0.735798	0.752352
Cu22	Cu	0.672319	0.074132	0.101295
Cu23	Cu	1.005652	0.407466	0.434628
Cu24	Cu	1.338985	0.740799	0.767962
Cu25	Cu	0.672329	0.074138	-0.101091
Cu26	Cu	1.005663	0.407471	0.232243
Cu27	Cu	1.338996	0.740805	0.565576
O28	O	0.667318	0.157064	0.085649
O29	O	1.000651	0.490398	0.418983
O30	O	1.333985	0.823731	0.752316
C31	C	0.568176	0.078882	0.000083
C32	C	0.901510	0.412215	0.333416
C33	C	1.234843	0.745549	0.666749
C34	C	0.504959	0.078116	0.000071
C35	C	0.838293	0.411449	0.333405
C36	C	1.171626	0.744783	0.666738
C37	C	0.105856	0.125350	0.000107
C38	C	0.439190	0.458683	0.333440
C39	C	0.772523	0.792016	0.666773
C40	C	0.046456	0.124638	0.000113
C41	C	0.379789	0.457971	0.333447
C42	C	0.713123	0.791305	0.666780
O43	O	0.009711	0.168424	0.000140
O44	O	0.343045	0.501757	0.333473
O45	O	0.676378	0.835091	0.666807
N46	N	0.023830	0.072362	0.000124
N47	N	0.357163	0.405695	0.333457
N48	N	0.690496	0.739028	0.666791
C49	C	0.060607	0.020794	0.000139
C50	C	0.393941	0.354127	0.333472
C51	C	0.727274	0.687460	0.666805
O52	O	0.035908	-0.023737	0.000149
O53	O	0.369241	0.309596	0.333483
O54	O	0.702574	0.642930	0.666816
C55	C	0.120006	0.021506	0.000140
C56	C	0.453340	0.354839	0.333473
C57	C	0.786673	0.688172	0.666806
C58	C	0.142629	0.073785	0.000118
C59	C	0.475962	0.407119	0.333452
C60	C	0.809296	0.740452	0.666785
C61	C	0.128479	0.177625	0.000087
C62	C	0.461813	0.510958	0.333420
C63	C	0.795146	0.844292	0.666753
C64	C	0.187876	0.178336	0.000078
C65	C	0.521209	0.511670	0.333412
C66	C	0.854542	0.845003	0.666745
C67	C	0.224649	0.126772	0.000090
C68	C	0.557982	0.460105	0.333423
C69	C	0.891315	0.793439	0.666757
C70	C	0.202025	0.074496	0.000110
C71	C	0.535359	0.407830	0.333443
C72	C	0.868692	0.741163	0.666777
C73	C	0.156783	-0.030062	0.000162
C74	C	0.490116	0.303271	0.333495
C75	C	0.823450	0.636605	0.666828
C76	C	0.216185	-0.029345	0.000163
C77	C	0.549519	0.303988	0.333497
C78	C	0.882852	0.637321	0.666830
C79	C	0.238808	0.022934	0.000142
C80	C	0.572141	0.356268	0.333476
C81	C	0.905475	0.689601	0.666809
C82	C	0.298194	0.023643	0.000113
C83	C	0.631528	0.356977	0.333447
C84	C	0.964861	0.690310	0.666780
N85	N	0.320820	0.075920	0.000103
N86	N	0.654154	0.409253	0.333436
N87	N	0.987487	0.742586	0.666769
C88	C	0.284048	0.127484	0.000091
C89	C	0.617381	0.460817	0.333424
C90	C	0.950714	0.794151	0.666758
C91	C	-0.064135	0.019302	0.000139
C92	C	0.269198	0.352635	0.333472
C93	C	0.602532	0.685969	0.666805
C94	C	-0.123533	0.018589	0.000130
C95	C	0.209800	0.351923	0.333464
C96	C	0.543134	0.685256	0.666797
C97	C	-0.137680	0.122434	0.000107
C98	C	0.195653	0.455768	0.333440
C99	C	0.528986	0.789101	0.666773
C100	C	-0.078281	0.123146	0.000108
C101	C	0.255052	0.456480	0.333441
C102	C	0.588385	0.789813	0.666774
C103	C	-0.041509	0.071578	0.000128
C104	C	0.291824	0.404912	0.333461
C105	C	0.625158	0.738245	0.666795
C106	C	0.408784	0.128974	0.000072
C107	C	0.742118	0.462307	0.333406
C108	C	1.075451	0.795640	0.666739
C109	C	0.468186	0.129680	0.000060
C110	C	0.801520	0.463014	0.333393
C111	C	1.134853	0.796347	0.666726
C112	C	0.482329	0.025836	0.000089
C113	C	0.815662	0.359169	0.333422
C114	C	1.148995	0.692503	0.666755
C115	C	0.422932	0.025129	0.000096
C116	C	0.756265	0.358462	0.333429
C117	C	1.089598	0.691796	0.666763
C118	C	0.386160	0.076702	0.000091
C119	C	0.719494	0.410036	0.333425
C120	C	1.052827	0.743369	0.666758
O121	O	0.334974	-0.020119	0.000091
O122	O	0.668307	0.313214	0.333424
O123	O	1.001640	0.646547	0.666757
O124	O	0.308755	0.172007	0.000094
O125	O	0.642089	0.505340	0.333427
O126	O	0.975422	0.838674	0.666760
C127	C	0.677071	-0.030013	0.000125
C128	C	1.010404	0.303321	0.333458
C129	C	1.343738	0.636654	0.666791
C130	C	0.676305	-0.093230	0.000132
C131	C	1.009638	0.240104	0.333466
C132	C	1.342972	0.573437	0.666799
C133	C	0.723539	-0.492333	0.000085
C134	C	1.056872	-0.158999	0.333418
C135	C	1.390205	0.174334	0.666752
C136	C	0.722827	-0.551733	0.000077
C137	C	1.056160	-0.218400	0.333410
C138	C	1.389494	0.114934	0.666744
O139	O	0.766613	-0.588478	0.000047
O140	O	1.099946	-0.255144	0.333381
O141	O	1.433280	0.078189	0.666714
N142	N	0.670551	-0.574359	0.000068
N143	N	1.003884	-0.241026	0.333401
N144	N	1.337217	0.092307	0.666735
C145	C	0.618983	-0.537582	0.000056
C146	C	0.952316	-0.204248	0.333389
C147	C	1.285649	0.129085	0.666723
O148	O	0.574452	-0.562281	0.000047
O149	O	0.907785	-0.228948	0.333380
O150	O	1.241119	0.104385	0.666713
C151	C	0.619695	-0.478182	0.000057
C152	C	0.953028	-0.144849	0.333390
C153	C	1.286361	0.188484	0.666723
C154	C	0.671974	-0.455560	0.000076
C155	C	1.005308	-0.122227	0.333410
C156	C	1.338641	0.211107	0.666743
C157	C	0.775814	-0.469710	0.000104
C158	C	1.109147	-0.136376	0.333437
C159	C	1.442481	0.196957	0.666770
C160	C	0.776525	-0.410313	0.000113
C161	C	1.109859	-0.076980	0.333447
C162	C	1.443192	0.256353	0.666780
C163	C	0.724961	-0.373540	0.000105
C164	C	1.058294	-0.040207	0.333438
C165	C	1.391628	0.293126	0.666771
C166	C	0.672685	-0.396164	0.000086
C167	C	1.006019	-0.062830	0.333420
C168	C	1.339352	0.270503	0.666753
C169	C	0.568127	-0.441406	0.000038
C170	C	0.901460	-0.108073	0.333371
C171	C	1.234794	0.225261	0.666704
C172	C	0.568844	-0.382004	0.000037
C173	C	0.902177	-0.048670	0.333371
C174	C	1.235510	0.284663	0.666704
C175	C	0.621123	-0.359381	0.000057
C176	C	0.954457	-0.026048	0.333390
C177	C	1.287790	0.307286	0.666724
C178	C	0.621832	-0.299995	0.000087
C179	C	0.955166	0.033339	0.333421
C180	C	1.288499	0.366672	0.666754
N181	N	0.674109	-0.277368	0.000097
N182	N	1.007442	0.055965	0.333430
N183	N	1.340775	0.389298	0.666763
C184	C	0.725673	-0.314141	0.000105
C185	C	1.059006	0.019192	0.333439
C186	C	1.392340	0.352525	0.666772
C187	C	0.617491	-0.662324	0.000053
C188	C	0.950824	-0.328991	0.333386
C189	C	1.284158	0.004343	0.666720
C190	C	0.616778	-0.721722	0.000060
C191	C	0.950112	-0.388389	0.333393
C192	C	1.283445	-0.055055	0.666727
C193	C	0.720623	-0.735869	0.000079
C194	C	1.053957	-0.402536	0.333412
C195	C	1.387290	-0.069203	0.666746
C196	C	0.721335	-0.676470	0.000080
C197	C	1.054669	-0.343137	0.333413
C198	C	1.388002	-0.009804	0.666746
C199	C	0.669767	-0.639698	0.000062
C200	C	1.003101	-0.306365	0.333396
C201	C	1.336434	0.026969	0.666729
C202	C	0.727163	-0.189405	0.000127
C203	C	1.060496	0.143929	0.333460
C204	C	1.393829	0.477262	0.666794
C205	C	0.727869	-0.130003	0.000141
C206	C	1.061203	0.203331	0.333474
C207	C	1.394536	0.536664	0.666808
C208	C	0.624025	-0.115860	0.000117
C209	C	0.957358	0.217473	0.333450
C210	C	1.290692	0.550806	0.666783
C211	C	0.623318	-0.175257	0.000108
C212	C	0.956651	0.158076	0.333441
C213	C	1.289985	0.491409	0.666775
C214	C	0.674891	-0.212029	0.000110
C215	C	1.008225	0.121305	0.333443
C216	C	1.341558	0.454638	0.666776
O217	O	0.578070	-0.263215	0.000113
O218	O	0.911403	0.070118	0.333446
O219	O	1.244736	0.403451	0.666780
O220	O	0.770196	-0.289433	0.000101
O221	O	1.103529	0.043900	0.333435
O222	O	1.436863	0.377233	0.666768
C223	C	0.776472	0.069388	0.000120
C224	C	1.109805	0.402722	0.333453
C225	C	1.443138	0.736055	0.666786
C226	C	0.839689	0.070154	0.000124
C227	C	1.173022	0.403487	0.333457
C228	C	1.506355	0.736821	0.666791
C229	C	0.667577	0.178283	0.000078
C230	C	1.000910	0.511616	0.333411
C231	C	1.334244	0.844949	0.666744
C232	C	0.668343	0.241500	0.000063
C233	C	1.001676	0.574833	0.333396
C234	C	1.335010	0.908167	0.666730
N235	N	0.672315	0.074128	0.243642
N236	N	1.005649	0.407461	0.576975
N237	N	1.338982	0.740795	0.910309
N238	N	0.672337	0.074138	-0.243438
N239	N	1.005671	0.407471	0.089896
N240	N	1.339004	0.740804	0.423229
C241	C	0.672329	0.074138	0.663456
C242	C	1.005662	0.407472	0.996790
C243	C	1.338995	0.740805	1.330123
C244	C	0.672323	0.074137	0.546651
C245	C	1.005657	0.407471	0.879985
C246	C	1.338990	0.740804	1.213318
C247	C	0.672322	0.074134	0.453553
C248	C	1.005656	0.407467	0.786886
C249	C	1.338989	0.740800	1.120220
C250	C	0.672316	0.074132	0.336740
C251	C	1.005650	0.407465	0.670074
C252	C	1.338983	0.740798	1.003407
H253	H	0.486602	0.172255	0.000042
H254	H	0.819935	0.505588	0.333375
H255	H	1.153269	0.838921	0.666708
H256	H	-0.034198	-0.022693	0.000146
H257	H	0.299136	0.310640	0.333479
H258	H	0.632469	0.643973	0.666813
H259	H	-0.141947	-0.023982	0.000132
H260	H	0.191387	0.309351	0.333465
H261	H	0.524720	0.642685	0.666798
H262	H	0.378851	0.170970	0.000072
H263	H	0.712185	0.504303	0.333405
H264	H	1.045518	0.837637	0.666738
C265	C	0.783217	-0.229227	0.000187
C266	C	1.116551	0.104106	0.333520
C267	C	1.449884	0.437439	0.666853
C268	C	0.829144	-0.196691	0.000233
C269	C	1.162478	0.136642	0.333566
C270	C	1.495811	0.469976	0.666899
C271	C	0.880790	-0.233355	0.000308
C272	C	1.214123	0.099978	0.333642
C273	C	1.547456	0.433311	0.666975
H274	H	0.785190	-0.252699	-0.059477
H275	H	1.118523	0.080634	0.273857
H276	H	1.451856	0.413967	0.607190
H277	H	0.785128	-0.252693	0.059887
H278	H	1.118461	0.080641	0.393221
H279	H	1.451795	0.413974	0.726554
H280	H	0.827235	-0.173236	-0.059462
H281	H	1.160568	0.160098	0.273871
H282	H	1.493901	0.493431	0.607205
H283	H	0.827191	-0.173220	0.059892
H284	H	1.160524	0.160113	0.393225
H285	H	1.493858	0.493446	0.726558
H286	H	0.882700	-0.256820	0.060009
H287	H	1.216034	0.076513	0.393342
H288	H	1.549367	0.409846	0.726676
H289	H	0.882756	-0.256825	-0.059356
H290	H	1.216089	0.076508	0.273977
H291	H	1.549422	0.409841	0.607311
H292	H	0.911957	-0.211285	0.000349
H293	H	1.245290	0.122049	0.333683
H294	H	1.578624	0.455382	0.667016
C295	C	0.561437	-0.622496	0.000103
C296	C	0.894771	-0.289163	0.333436
C297	C	1.228104	0.044171	0.666770
C298	C	0.515509	-0.655031	0.000123
C299	C	0.848842	-0.321698	0.333456
C300	C	1.182176	0.011636	0.666789
C301	C	0.463865	-0.618365	0.000181
C302	C	0.797198	-0.285032	0.333514
C303	C	1.130532	0.048302	0.666848
H304	H	0.559473	-0.599010	-0.059557
H305	H	0.892806	-0.265676	0.273776
H306	H	1.226139	0.067657	0.607109
H307	H	0.559521	-0.599046	0.059807
H308	H	0.892854	-0.265712	0.393140
H309	H	1.226187	0.067621	0.726473
H310	H	0.517425	-0.678472	-0.059575
H311	H	0.850758	-0.345138	0.273758
H312	H	1.184091	-0.011805	0.607092
H313	H	0.517455	-0.678516	0.059779
H314	H	0.850788	-0.345183	0.393112
H315	H	1.184121	-0.011850	0.726445
H316	H	0.461948	-0.594915	0.059885
H317	H	0.795282	-0.261581	0.393218
H318	H	1.128615	0.071752	0.726551
H319	H	0.461906	-0.594880	-0.059480
H320	H	0.795240	-0.261547	0.273853
H321	H	1.128573	0.071786	0.607186
H322	H	0.432697	-0.640434	0.000204
H323	H	0.766030	-0.307101	0.333537
H324	H	1.099363	0.026232	0.666871
H325	H	0.582043	-0.085909	0.000113
H326	H	0.915376	0.247424	0.333447
H327	H	1.248709	0.580757	0.666780
H328	H	0.206289	0.220908	0.000061
H329	H	0.539622	0.554241	0.333394
H330	H	0.872956	0.887574	0.666727
H331	H	0.526850	-0.352066	0.000022
H332	H	0.860183	-0.018732	0.333355
H333	H	1.193516	0.314601	0.666689
H334	H	0.512280	-0.016146	0.000094
H335	H	0.845613	0.317187	0.333428
H336	H	1.178946	0.650520	0.666761
H337	H	0.525555	-0.459814	0.000015
H338	H	0.858889	-0.126481	0.333349
H339	H	1.192222	0.206852	0.666682
H340	H	0.819097	-0.391900	0.000125
H341	H	1.152430	-0.058567	0.333459
H342	H	1.485763	0.274767	0.666792
H343	H	0.762610	-0.765821	0.000082
H344	H	1.095943	-0.432488	0.333415
H345	H	1.429276	-0.099154	0.666749
H346	H	0.817806	-0.499645	0.000107
H347	H	1.151140	-0.166312	0.333440
H348	H	1.484473	0.167022	0.666774
H349	H	0.763906	-0.658056	0.000095
H350	H	1.097239	-0.324722	0.333428
H351	H	1.430573	0.008611	0.666761
H352	H	0.574207	-0.740136	0.000062
H353	H	0.907540	-0.406802	0.333395
H354	H	1.240874	-0.073469	0.666728
H355	H	0.770443	-0.111587	0.000160
H356	H	1.103777	0.221746	0.333493
H357	H	1.437110	0.555080	0.666826
C358	C	-0.053833	0.179966	0.000145
C359	C	0.279500	0.513299	0.333479
C360	C	0.612833	0.846632	0.666812
C361	C	-0.098758	0.224967	0.000157
C362	C	0.234576	0.558300	0.333490
C363	C	0.567909	0.891634	0.666824
C364	C	-0.076262	0.277319	0.000208
C365	C	0.257071	0.610653	0.333541
C366	C	0.590405	0.943986	0.666875
H367	H	-0.030964	0.182488	-0.059515
H368	H	0.302370	0.515821	0.273819
H369	H	0.635703	0.849155	0.607152
H370	H	-0.030975	0.182434	0.059849
H371	H	0.302359	0.515767	0.393183
H372	H	0.635692	0.849101	0.726516
H373	H	-0.121607	0.222500	-0.059541
H374	H	0.211727	0.555833	0.273793
H375	H	0.545060	0.889167	0.607126
H376	H	-0.121631	0.222464	0.059813
H377	H	0.211702	0.555797	0.393146
H378	H	0.545035	0.889130	0.726479
H379	H	-0.053403	0.279787	0.059912
H380	H	0.279930	0.613121	0.393245
H381	H	0.613263	0.946454	0.726579
H382	H	-0.053392	0.279835	-0.059453
H383	H	0.279941	0.613169	0.273880
H384	H	0.613274	0.946502	0.607214
H385	H	-0.106739	0.307859	0.000226
H386	H	0.226594	0.641192	0.333559
H387	H	0.559927	0.974525	0.666892
C388	C	0.088655	0.233676	0.000016
C389	C	0.421988	0.567009	0.333350
C390	C	0.755321	0.900343	0.666683
C391	C	0.121193	0.279602	-0.000027
C392	C	0.454527	0.612935	0.333307
C393	C	0.787860	0.946268	0.666640
C394	C	0.084531	0.331248	-0.000114
C395	C	0.417864	0.664581	0.333219
C396	C	0.751197	0.997915	0.666552
H397	H	0.065173	0.235646	0.059674
H398	H	0.398506	0.568979	0.393008
H399	H	0.731839	0.902312	0.726341
H400	H	0.065199	0.235591	-0.059690
H401	H	0.398533	0.568925	0.273644
H402	H	0.731866	0.902258	0.606977
H403	H	0.144639	0.277687	0.059673
H404	H	0.477972	0.611021	0.393007
H405	H	0.811305	0.944354	0.726340
H406	H	0.144674	0.277651	-0.059680
H407	H	0.478007	0.610984	0.273653
H408	H	0.811341	0.944318	0.606987
H409	H	0.061076	0.333163	-0.059820
H410	H	0.394409	0.666497	0.273513
H411	H	0.727742	0.999830	0.606846
H412	H	0.061051	0.333212	0.059545
H413	H	0.394384	0.666545	0.392878
H414	H	0.727717	0.999878	0.726211
H415	H	0.106603	0.362414	-0.000153
H416	H	0.439936	0.695748	0.333180
H417	H	0.773269	1.029081	0.666514
C418	C	0.566499	-0.199712	0.000036
C419	C	0.899833	0.133621	0.333370
C420	C	1.233166	0.466955	0.666703
C421	C	0.521495	-0.154791	0.000008
C422	C	0.854828	0.178542	0.333341
C423	C	1.188161	0.511876	0.666675
C424	C	0.469145	-0.177292	-0.000085
C425	C	0.802478	0.156041	0.333248
C426	C	1.135812	0.489375	0.666581
H427	H	0.563975	-0.222593	0.059688
H428	H	0.897308	0.110740	0.393021
H429	H	1.230641	0.444073	0.726354
H430	H	0.564038	-0.222560	-0.059676
H431	H	0.897372	0.110773	0.273657
H432	H	1.230705	0.444107	0.606990
H433	H	0.523955	-0.131953	0.059715
H434	H	0.857288	0.201381	0.393048
H435	H	1.190621	0.534714	0.726381
H436	H	0.524001	-0.131906	-0.059639
H437	H	0.857334	0.201427	0.273694
H438	H	1.190667	0.534761	0.607028
H439	H	0.466684	-0.200140	-0.059798
H440	H	0.800017	0.133193	0.273535
H441	H	1.133351	0.466527	0.606869
H442	H	0.466626	-0.200173	0.059567
H443	H	0.799959	0.133160	0.392900
H444	H	1.133293	0.466494	0.726234
H445	H	0.438603	-0.146817	-0.000114
H446	H	0.771937	0.186516	0.333219
H447	H	1.105270	0.519850	0.666552
C448	C	0.132343	-0.086883	0.000248
C449	C	0.465676	0.246450	0.333582
C450	C	0.799009	0.579784	0.666915
C451	C	0.177271	-0.131881	0.000295
C452	C	0.510604	0.201453	0.333629
C453	C	0.843937	0.534786	0.666962
C454	C	0.154780	-0.184236	0.000393
C455	C	0.488113	0.149098	0.333727
C456	C	0.821447	0.482431	0.667060
H457	H	0.109472	-0.089411	-0.059407
H458	H	0.442806	0.243923	0.273926
H459	H	0.776139	0.577256	0.607259
H460	H	0.109485	-0.089350	0.059957
H461	H	0.442819	0.243983	0.393290
H462	H	0.776152	0.577316	0.726623
H463	H	0.200118	-0.129415	-0.059407
H464	H	0.533452	0.203919	0.273927
H465	H	0.866785	0.537252	0.607260
H466	H	0.200145	-0.129372	0.059947
H467	H	0.533478	0.203961	0.393280
H468	H	0.866811	0.537295	0.726614
H469	H	0.131923	-0.186703	0.060101
H470	H	0.465256	0.146630	0.393435
H471	H	0.798590	0.479964	0.726768
H472	H	0.131910	-0.186757	-0.059264
H473	H	0.465243	0.146576	0.274070
H474	H	0.798577	0.479909	0.607403
H475	H	0.185260	-0.214773	0.000435
H476	H	0.518593	0.118561	0.333768
H477	H	0.851927	0.451894	0.667101
H478	H	0.246123	-0.071339	0.000181
H479	H	0.579457	0.261994	0.333514
H480	H	0.912790	0.595327	0.666847
C481	C	0.398332	-0.031613	-0.000100
C482	C	0.731665	0.301720	0.333233
C483	C	1.064999	0.635054	0.666567
C484	C	0.364648	-0.035061	-0.088146
C485	C	0.697981	0.298273	0.245187
C486	C	1.031315	0.631606	0.578521
C487	C	0.341988	-0.087326	-0.088357
C488	C	0.675321	0.246007	0.244976
C489	C	1.008655	0.579341	0.578309
H490	H	0.375421	-0.034105	0.059516
H491	H	0.708754	0.299228	0.392849
H492	H	1.042088	0.632561	0.726183
H493	H	0.428725	-0.062238	-0.000153
H494	H	0.762059	0.271095	0.333180
H495	H	1.095392	0.604428	0.666513
H496	H	0.334259	-0.004444	-0.088083
H497	H	0.667592	0.328890	0.245250
H498	H	1.000926	0.662223	0.578583
H499	H	0.387546	-0.032578	-0.147776
H500	H	0.720880	0.300755	0.185557
H501	H	1.054213	0.634088	0.518890
H502	H	0.372381	-0.117952	-0.088411
H503	H	0.705714	0.215382	0.244923
H504	H	1.039048	0.548715	0.578256
H505	H	0.319079	-0.089814	-0.028738
H506	H	0.652413	0.243519	0.304596
H507	H	0.985746	0.576853	0.637929
H508	H	0.319135	-0.089674	-0.148100
H509	H	0.652468	0.243659	0.185234
H510	H	0.985802	0.576992	0.518567
H511	H	-0.167632	0.164421	0.000102
H512	H	0.165701	0.497754	0.333435
H513	H	0.499035	0.831087	0.666769
