data_functionalizedCrystal
_audit_creation_method	'MofGen! by Chris Wilmer'
_symmetry_space_group_name_H-M	'P1'
_symmetry_Int_Tables_number	1
_symmetry_cell_setting	triclinic
loop_
_symmetry_equiv_pos_as_xyz
  x,y,z
_cell_length_a	16.109302
_cell_length_b	17.019294
_cell_length_c	14.586319
_cell_angle_alpha	86.117240
_cell_angle_beta	89.994552
_cell_angle_gamma	83.427801
loop_
_atom_site_label
_atom_site_type_symbol
_atom_site_fract_x
_atom_site_fract_y
_atom_site_fract_z
O1	O	1.103039	0.101398	-0.084285
O2	O	0.860966	0.114015	-0.085274
O3	O	0.988756	-0.007128	-0.075709
O4	O	0.975249	0.222541	-0.093849
O5	O	0.988747	-0.007130	0.076772
O6	O	0.860957	0.114014	0.067207
O7	O	1.103030	0.101396	0.068196
Cu8	Cu	0.981993	0.107704	0.081624
Cu9	Cu	0.982003	0.107707	-0.098702
O10	O	0.975240	0.222539	0.058631
C11	C	0.829987	0.113503	-0.008992
C12	C	0.737693	0.111971	-0.008868
C13	C	0.525351	0.108426	0.074520
C14	C	0.438632	0.106977	0.074631
C15	C	0.438652	0.106983	-0.091612
C16	C	0.525370	0.108426	-0.091722
C17	C	0.568716	0.109151	-0.008654
C18	C	0.395280	0.106260	-0.008432
C19	C	0.301255	0.104689	-0.008313
C20	C	0.662747	0.110720	-0.008773
C21	C	0.988239	-0.036518	0.002850
C22	C	0.986703	-0.124088	0.009761
C23	C	0.985988	-0.165223	-0.070109
C24	C	0.984539	-0.247504	-0.063612
C25	C	0.983811	-0.288648	0.022755
C26	C	0.984524	-0.247507	0.102631
C27	C	0.985966	-0.165227	0.096134
C28	C	0.979449	-0.537080	0.046531
C29	C	0.978008	-0.619366	0.053023
C30	C	0.978022	-0.619357	-0.113221
C31	C	0.979470	-0.537076	-0.119711
C32	C	0.980178	-0.495941	-0.039835
C33	C	0.982333	-0.372753	0.029398
C34	C	0.981650	-0.411838	-0.046479
C35	C	1.134009	0.101908	-0.008088
C36	C	1.226303	0.103440	-0.008218
C37	C	0.975757	0.251929	-0.019930
C38	C	0.977293	0.339499	-0.026847
N39	N	0.981991	0.107702	0.208456
N40	N	0.982011	0.107702	-0.225534
C41	C	1.038595	0.054078	0.447696
C42	C	1.038598	0.054076	0.543678
C43	C	0.925401	0.161329	0.535219
C44	C	0.925395	0.161327	0.439240
C45	C	0.981997	0.107702	0.395481
C46	C	0.982005	0.107703	0.587442
C47	C	0.982008	0.107701	0.691509
C48	C	0.981994	0.107703	0.291407
H49	H	0.986585	-0.131729	-0.140438
O50	O	0.983754	-0.291853	-0.149771
H51	H	1.039727	-0.336394	-0.150251
O52	O	0.980238	-0.492695	-0.212864
H53	H	0.979486	-0.535122	-0.267314
O54	O	0.864369	0.219177	0.582418
H55	H	0.799567	0.209111	0.564815
H56	H	0.560641	0.109016	0.142160
H57	H	0.981743	-0.406262	0.099718
H58	H	1.084683	0.010413	0.412070
H59	H	0.403327	0.106386	0.142359
O60	O	1.099653	-0.003751	0.599999
H61	H	1.139014	-0.041030	0.553441
O62	O	0.391899	0.106212	-0.181207
H63	H	0.324312	0.105097	-0.167160
O64	O	0.864350	0.219169	0.382911
H65	H	0.825002	0.256466	0.429461
H66	H	0.560680	0.109015	-0.159456
H67	H	0.986537	-0.131735	0.161172
O68	O	0.982428	-0.367463	-0.139630
H69	H	1.038791	-0.390297	-0.177690
H70	H	0.977444	-0.652857	-0.178252
O71	O	0.977214	-0.663748	0.146180
H72	H	0.977940	-0.621321	0.200632
H73	H	0.980042	-0.503600	0.111572
H74	H	0.983926	-0.281013	0.172953
