data_functionalizedCrystal
_audit_creation_method	'MofGen! by Chris Wilmer'
_symmetry_space_group_name_H-M	'P1'
_symmetry_Int_Tables_number	1
_symmetry_cell_setting	triclinic
loop_
_symmetry_equiv_pos_as_xyz
  x,y,z
_cell_length_a	19.121102
_cell_length_b	19.121063
_cell_length_c	10.686551
_cell_angle_alpha	91.787201
_cell_angle_beta	97.012680
_cell_angle_gamma	90.126902
loop_
_atom_site_label
_atom_site_type_symbol
_atom_site_fract_x
_atom_site_fract_y
_atom_site_fract_z
Zn1	Zn	1.096329	-0.291395	0.819716
Zn2	Zn	1.082224	-0.416911	0.617225
Zn3	Zn	0.969283	-0.295419	0.599306
Zn4	Zn	0.974016	-0.403620	0.818871
O5	O	1.030463	-0.351836	0.713779
O6	O	1.192912	-0.311923	0.800708
O7	O	1.059358	-0.408041	0.438217
O8	O	0.990058	-0.197074	0.621398
O9	O	1.182549	-0.404139	0.651939
O10	O	1.083398	-0.194117	0.783332
O11	O	0.976380	-0.318781	0.425051
O12	O	0.871456	-0.305893	0.620579
O13	O	0.998126	-0.381487	0.995614
O14	O	0.874934	-0.385388	0.781892
O15	O	1.087988	-0.299036	0.996235
O16	O	1.063948	-0.512959	0.651120
O17	O	0.984448	-0.503194	0.799268
C18	C	0.847667	-0.344636	0.699200
C19	C	0.769467	-0.341571	0.692994
C20	C	0.734549	-0.381593	0.773944
C21	C	0.661072	-0.378703	0.768118
C22	C	0.622514	-0.335796	0.681335
C23	C	0.657437	-0.295770	0.600382
C24	C	0.730913	-0.298656	0.606215
C25	C	0.400573	-0.325005	0.659534
C26	C	0.327092	-0.322124	0.653704
C27	C	0.330732	-0.405057	0.821443
C28	C	0.404209	-0.407942	0.827263
C29	C	0.439126	-0.367913	0.746314
C30	C	0.547408	-0.332844	0.675375
C31	C	0.514230	-0.370862	0.752281
C32	C	1.023201	-0.533438	0.727076
C33	C	1.020161	-0.611128	0.732812
C34	C	1.060162	-0.652687	0.658443
C35	C	1.057307	-0.725685	0.663845
C36	C	1.014447	-0.757124	0.743610
C37	C	0.974445	-0.715559	0.817987
C38	C	0.977304	-0.642562	0.812590
C39	C	1.003745	-0.977274	0.763765
C40	C	1.000888	-1.050276	0.769153
C41	C	1.083751	-1.060397	0.615012
C42	C	1.086603	-0.987398	0.609617
C43	C	1.046604	-0.945841	0.683999
C44	C	1.011526	-0.831739	0.749131
C45	C	1.049529	-0.871226	0.678484
C46	C	1.213973	-0.359065	0.728417
C47	C	1.292174	-0.362146	0.734654
C48	C	1.045158	-0.338330	1.043004
C49	C	1.051421	-0.332574	1.183300
C50	C	1.037773	-0.169525	0.700460
C51	C	1.040888	-0.091835	0.694784
C52	C	1.015867	-0.365241	0.385835
C53	C	1.009749	-0.370805	0.245537
H54	H	0.302295	-0.437645	0.887348
C55	C	0.955077	-0.420972	1.172523
N56	N	0.913895	-0.458757	1.117521
H57	H	0.944732	-0.608726	0.873151
H58	H	0.971175	-0.943443	0.824327
H59	H	0.965995	-1.075870	0.834129
C60	C	0.556646	-0.418061	0.847736
N61	N	0.588600	-0.453615	0.919627
H62	H	1.084429	-0.845627	0.613544
C63	C	1.106094	-0.282403	1.256318
N64	N	1.147271	-0.244612	1.311317
C65	C	0.776956	-0.428795	0.869412
N66	N	0.808895	-0.464347	0.941325
H67	H	0.435598	-0.442883	0.897928
H68	H	0.939551	-0.741162	0.882939
C69	C	0.964373	-0.866329	0.836855
N70	N	0.928856	-0.892385	0.902927
H71	H	0.632645	-0.411294	0.834035
H72	H	1.116317	-1.094241	0.554457
C73	C	0.284679	-0.274920	0.558234
N74	N	0.252734	-0.239368	0.486328
H75	H	0.428993	-0.292417	0.593610
C76	C	0.615020	-0.248570	0.504923
N77	N	0.583073	-0.213019	0.433018
H78	H	0.759342	-0.266062	0.540303
C79	C	0.504987	-0.285649	0.579912
N80	N	0.473033	-0.250101	0.508011
H81	H	1.089880	-0.759520	0.603286
C82	C	1.133733	-0.952823	0.521836
N83	N	1.169223	-0.926781	0.455702
C84	C	1.107310	-0.618112	0.570692
N85	N	1.142825	-0.592072	0.504598
