data_functionalizedCrystal
_audit_creation_method	'MofGen! by Chris Wilmer'
_symmetry_space_group_name_H-M	'P1'
_symmetry_Int_Tables_number	1
_symmetry_cell_setting	triclinic
loop_
_symmetry_equiv_pos_as_xyz
  x,y,z
_cell_length_a	8.497374
_cell_length_b	19.077312
_cell_length_c	19.077068
_cell_angle_alpha	90.058992
_cell_angle_beta	92.284024
_cell_angle_gamma	87.703593
loop_
_atom_site_label
_atom_site_type_symbol
_atom_site_fract_x
_atom_site_fract_y
_atom_site_fract_z
Zn1	Zn	0.825259	1.062846	0.322946
Zn2	Zn	0.572442	1.058065	0.440423
Zn3	Zn	0.571639	0.945375	0.318223
Zn4	Zn	0.846327	0.940583	0.435706
O5	O	0.703917	1.001717	0.379324
O6	O	0.783241	1.160541	0.342480
O7	O	0.351572	1.043121	0.424211
O8	O	0.596129	0.964964	0.220518
O9	O	0.597497	1.157028	0.428790
O10	O	0.782463	1.051269	0.223988
O11	O	0.350983	0.960328	0.334431
O12	O	0.616559	0.846410	0.329857
O13	O	1.064296	0.956796	0.420750
O14	O	0.818371	0.842889	0.416171
O15	O	1.048817	1.046623	0.337906
O16	O	0.617926	1.038475	0.538129
O17	O	0.819149	0.952161	0.534663
C18	C	0.719665	0.819154	0.371990
C19	C	0.726441	0.741052	0.368870
C20	C	0.775052	0.301620	0.346432
C21	C	0.768678	0.375004	0.349377
C22	C	0.668613	0.409862	0.395713
C23	C	0.574929	0.371331	0.439111
C24	C	0.581313	0.297948	0.436169
C25	C	0.639141	0.629138	0.409326
C26	C	0.632760	0.702526	0.412263
C27	C	0.826512	0.706195	0.322530
C28	C	0.832880	0.632810	0.319589
C29	C	0.739202	0.594285	0.362990
N30	N	0.662091	0.484873	0.398723
N31	N	0.745733	0.519276	0.359983
C32	C	0.720944	0.994298	0.561893
C33	C	0.728275	0.991188	0.639999
C34	C	1.115398	1.001712	0.379325
C35	C	1.294042	1.001713	0.379333
C36	C	0.688108	1.184993	0.386688
C37	C	0.681371	1.263094	0.389825
C38	C	0.686856	1.009184	0.196044
C39	C	0.679586	1.012367	0.117940
C40	C	0.627034	1.034701	0.678476
C41	C	0.633938	1.031781	0.751865
C42	C	0.742077	0.985343	0.786776
C43	C	0.843329	0.941828	0.748294
C44	C	0.836431	0.944753	0.674906
C45	C	0.773940	0.971776	1.006071
C46	C	0.780827	0.968854	1.079463
C47	C	0.571438	1.058807	1.083030
C48	C	0.564543	1.061725	1.009640
C49	C	0.665800	1.018213	0.971165
N50	N	0.749134	0.982355	0.861792
N51	N	0.658750	1.021205	0.896151
H52	H	0.914369	0.604434	0.281860
H53	H	0.476488	1.099538	0.981218
H54	H	0.856385	0.936346	0.974749
O55	O	0.521823	1.079711	0.644531
C56	C	0.419342	1.041437	0.600517
H57	H	0.416352	0.985216	0.620461
H58	H	0.295707	1.066931	0.600708
H59	H	0.463095	1.041215	0.544793
O60	O	0.535741	1.073997	0.789370
C61	C	0.441187	1.032418	0.830336
H62	H	0.502172	0.978660	0.839177
H63	H	0.422808	1.059005	0.883091
H64	H	0.322123	1.025969	0.801870
H65	H	0.868914	0.931047	1.107886
O66	O	0.490229	0.260448	0.478220
C67	C	0.388416	0.219629	0.436440
H68	H	0.440246	0.210805	0.382787
H69	H	0.374328	0.166860	0.462979
H70	H	0.268347	0.248212	0.429769
H71	H	0.489002	1.094233	1.114364
H72	H	0.931385	0.904021	0.776724
H73	H	0.493461	0.399718	0.476841
H74	H	0.562857	0.597780	0.444664
H75	H	0.856526	0.273245	0.308696
H76	H	0.902781	0.737570	0.287196
O77	O	0.535531	0.736277	0.457345
C78	C	0.454194	0.686539	0.495012
H79	H	0.523576	0.634134	0.495393
H80	H	0.440497	0.705493	0.551214
H81	H	0.332739	0.679771	0.468889
O82	O	0.859444	0.412509	0.307192
C83	C	0.761862	0.456784	0.263436
H84	H	0.643566	0.466758	0.288576
H85	H	0.820792	0.508777	0.256136
H86	H	0.742322	0.430622	0.210215
O87	O	0.934847	0.902416	0.637634
C88	C	1.031803	0.860815	0.684182
H89	H	0.972303	0.856314	0.736411
H90	H	1.051336	0.806292	0.660797
H91	H	1.150170	0.886197	0.692979
