data_functionalizedCrystal
_audit_creation_method	'MofGen! by Chris Wilmer'
_symmetry_space_group_name_H-M	'P1'
_symmetry_Int_Tables_number	1
_symmetry_cell_setting	triclinic
loop_
_symmetry_equiv_pos_as_xyz
  x,y,z
_cell_length_a	16.120484
_cell_length_b	12.759401
_cell_length_c	12.759393
_cell_angle_alpha	89.983222
_cell_angle_beta	92.862882
_cell_angle_gamma	92.928294
loop_
_atom_site_label
_atom_site_type_symbol
_atom_site_fract_x
_atom_site_fract_y
_atom_site_fract_z
Zn1	Zn	-0.331791	1.584976	-0.615094
Zn2	Zn	0.001542	1.918309	-0.281761
Zn3	Zn	0.334876	2.251642	0.051572
Zn4	Zn	-0.471229	1.575927	-0.448307
Zn5	Zn	-0.137896	1.909261	-0.114974
Zn6	Zn	0.195438	2.242594	0.218359
Zn7	Zn	-0.331842	1.409275	-0.439442
Zn8	Zn	0.001492	1.742608	-0.106109
Zn9	Zn	0.334825	2.075941	0.227225
Zn10	Zn	-0.471172	1.400327	-0.623951
Zn11	Zn	-0.137838	1.733660	-0.290617
Zn12	Zn	0.195495	2.066994	0.042716
O13	O	-0.401508	1.492626	-0.531699
O14	O	-0.068175	1.825959	-0.198365
O15	O	0.265158	2.159293	0.134968
O16	O	-0.350291	1.730796	-0.592973
O17	O	-0.016957	2.064130	-0.259640
O18	O	0.316376	2.397463	0.073693
O19	O	-0.452784	1.553778	-0.300113
O20	O	-0.119451	1.887111	0.033220
O21	O	0.213883	2.220445	0.366553
O22	O	-0.215169	1.440113	-0.455326
O23	O	0.118164	1.773446	-0.121993
O24	O	0.451497	2.106780	0.211340
O25	O	-0.452735	1.724148	-0.470436
O26	O	-0.119402	2.057482	-0.137103
O27	O	0.213931	2.390815	0.196231
O28	O	-0.215132	1.569200	-0.584377
O29	O	0.118201	1.902533	-0.251044
O30	O	0.451534	2.235867	0.082290
O31	O	-0.350377	1.431339	-0.293600
O32	O	-0.017043	1.764672	0.039733
O33	O	0.316290	2.098006	0.373067
O34	O	-0.350321	1.261067	-0.463914
O35	O	-0.016988	1.594400	-0.130580
O36	O	0.316346	1.927733	0.202753
O37	O	-0.452637	1.424864	-0.769794
O38	O	-0.119304	1.758197	-0.436461
O39	O	0.214029	2.091530	-0.103127
O40	O	-0.452686	1.254493	-0.599471
O41	O	-0.119353	1.587827	-0.266138
O42	O	0.213980	1.921160	0.067195
O43	O	-0.350235	1.560524	-0.763287
O44	O	-0.016902	1.893857	-0.429954
O45	O	0.316432	2.227191	-0.096621
O46	O	-0.587887	1.545102	-0.479024
O47	O	-0.254554	1.878435	-0.145690
O48	O	0.078780	2.211769	0.187643
O49	O	-0.587845	1.416089	-0.608068
O50	O	-0.254512	1.749423	-0.274734
O51	O	0.078822	2.082756	0.058599
C52	C	-0.618116	1.478671	-0.545492
C53	C	-0.284783	1.812005	-0.212158
C54	C	0.048551	2.145338	0.121175
C55	C	-0.710782	1.472798	-0.551427
C56	C	-0.377448	1.806131	-0.218094
C57	C	-0.044115	2.139464	0.115239
C58	C	-0.401504	1.219659	-0.531692
C59	C	-0.068170	1.552992	-0.198359
C60	C	0.265163	1.886326	0.134974
C61	C	-0.401522	1.102881	-0.531716
C62	C	-0.068188	1.436215	-0.198382
C63	C	0.265145	1.769548	0.134951
C64	C	-0.401424	1.492705	-0.805727
C65	C	-0.068091	1.826038	-0.472393
C66	C	0.265242	2.159372	-0.139060
C67	C	-0.401388	1.492739	-0.922501
C68	C	-0.068055	1.826072	-0.589168
C69	C	0.265278	2.159405	-0.255834
C70	C	-0.880443	1.462080	-0.562286
C71	C	-0.547109	1.795413	-0.228953
C72	C	-0.213776	2.128747	0.104381
C73	C	-0.921733	1.523361	-0.501128
C74	C	-0.588400	1.856694	-0.167795
C75	C	-0.255067	2.190027	0.165538
C76	C	-1.016139	1.517397	-0.507170
C77	C	-0.682805	1.850731	-0.173837
C78	C	-0.349472	2.184064	0.159496
C79	C	-0.786029	1.468042	-0.556246
C80	C	-0.452696	1.801375	-0.222912
C81	C	-0.119362	2.134709	0.110421
C82	C	-0.184055	1.506664	-0.517875
C83	C	0.149278	1.839997	-0.184541
C84	C	0.482612	2.173331	0.148792
C85	C	-0.091389	1.512646	-0.511984
C86	C	0.241944	1.845979	-0.178651
C87	C	0.575277	2.179313	0.154683
C88	C	-0.401514	1.766659	-0.531706
C89	C	-0.068180	2.099992	-0.198372
C90	C	0.265153	2.433326	0.134961
C91	C	-0.401516	1.883436	-0.531709
C92	C	-0.068183	2.216769	-0.198375
C93	C	0.265151	2.550102	0.134958
C94	C	-0.348225	1.941716	-0.461131
C95	C	-0.014891	2.275050	-0.127797
C96	C	0.318442	2.608383	0.205536
C97	C	-0.348225	2.051441	-0.461136
C98	C	-0.014892	2.384774	-0.127803
C99	C	0.318442	2.718107	0.205531
C100	C	-0.454815	2.044593	-0.602301
C101	C	-0.121482	2.377926	-0.268968
C102	C	0.211851	2.711259	0.064365
C103	C	-0.454810	1.934871	-0.602300
C104	C	-0.121477	2.268204	-0.268967
C105	C	0.211857	2.601537	0.064367
C106	C	-0.294930	1.890281	-0.390539
C107	C	0.038403	2.223615	-0.057206
C108	C	0.371736	2.556948	0.276127
C109	C	-0.241635	1.948563	-0.319954
C110	C	0.091698	2.281896	0.013379
C111	C	0.425031	2.615229	0.346712
C112	C	-0.241636	2.058287	-0.319960
C113	C	0.091698	2.391620	0.013373
C114	C	0.425031	2.724953	0.346707
C115	C	-0.294931	2.109729	-0.390550
C116	C	0.038402	2.443063	-0.057217
C117	C	0.371735	2.776396	0.276116
C118	C	-0.348062	1.563387	-0.973977
C119	C	-0.014729	1.896720	-0.640643
C120	C	0.318604	2.230053	-0.307310
C121	C	-0.348032	1.563414	-1.083699
C122	C	-0.014699	1.896747	-0.750365
C123	C	0.318634	2.230080	-0.417032
C124	C	-0.454661	1.422141	-1.090461
C125	C	-0.121328	1.755474	-0.757128
C126	C	0.212005	2.088808	-0.423794
C127	C	-0.454687	1.422110	-0.980740
C128	C	-0.121353	1.755443	-0.647407
C129	C	0.211980	2.088777	-0.314074
C130	C	-0.294764	1.634016	-0.915737
C131	C	0.038569	1.967349	-0.582404
C132	C	0.371903	2.300682	-0.249071
C133	C	-0.241434	1.704670	-0.967212
C134	C	0.091899	2.038003	-0.633879
C135	C	0.425232	2.371337	-0.300546
C136	C	-0.241404	1.704697	-1.076935
C137	C	0.091929	2.038030	-0.743601
C138	C	0.425262	2.371364	-0.410268
C139	C	-0.294704	1.634069	-1.135182
C140	C	0.038629	1.967403	-0.801848
C141	C	0.371963	2.300736	-0.468515
C142	C	-0.401532	1.492612	-0.258733
C143	C	-0.068199	1.825945	0.074601
C144	C	0.265135	2.159278	0.407934
C145	C	-0.401333	1.492797	-0.141944
C146	C	-0.068000	1.826130	0.191389
C147	C	0.265334	2.159463	0.524723
H148	H	-0.886182	1.580303	-0.444231
H149	H	-0.552849	1.913636	-0.110898
H150	H	-0.219516	2.246969	0.222435
H151	H	-0.498207	2.086486	-0.659772
H152	H	-0.164873	2.419819	-0.326439
H153	H	0.168460	2.753153	0.006895
H154	H	-0.198239	1.906671	-0.262489
H155	H	0.135094	2.240004	0.070845
H156	H	0.468428	2.573338	0.404178
H157	H	-0.498097	1.364567	-0.938828
H158	H	-0.164763	1.697900	-0.605494
H159	H	0.168570	2.031233	-0.272161
Br160	Br	-0.527130	1.855768	-0.698093
Br161	Br	-0.193796	2.189102	-0.364759
Br162	Br	0.139537	2.522435	-0.031426
Br163	Br	-0.169298	2.137381	-0.224182
Br164	Br	0.164035	2.470715	0.109151
Br165	Br	0.497369	2.804048	0.442485
H166	H	-0.294784	1.634004	-0.826396
H167	H	0.038549	1.967337	-0.493062
H168	H	0.371882	2.300670	-0.159729
H169	H	-0.915991	1.405141	-0.619177
H170	H	-0.582658	1.738474	-0.285844
H171	H	-0.249325	2.071808	0.047489
H172	H	-0.198035	1.762166	-0.919780
H173	H	0.135299	2.095500	-0.586447
H174	H	0.468632	2.428833	-0.253114
H175	H	-0.294665	1.634085	-1.224524
H176	H	0.038668	1.967419	-0.891191
H177	H	0.372001	2.300752	-0.557857
Br178	Br	-0.294930	1.741371	-0.390524
Br179	Br	0.038403	2.074704	-0.057190
Br180	Br	0.371737	2.408037	0.276143
H181	H	-0.294919	2.199075	-0.390559
H182	H	0.038414	2.532408	-0.057225
H183	H	0.371747	2.865742	0.276108
H184	H	-0.197975	1.762220	-1.118842
H185	H	0.135359	2.095553	-0.785509
H186	H	0.468692	2.428887	-0.452176
H187	H	-0.498055	1.364639	-1.137894
H188	H	-0.164722	1.697972	-0.804561
H189	H	0.168612	2.031306	-0.471228
