data_functionalizedCrystal
_audit_creation_method	'MofGen! by Chris Wilmer'
_symmetry_space_group_name_H-M	'P1'
_symmetry_Int_Tables_number	1
_symmetry_cell_setting	triclinic
loop_
_symmetry_equiv_pos_as_xyz
  x,y,z
_cell_length_a	17.699083
_cell_length_b	10.654541
_cell_length_c	16.176319
_cell_angle_alpha	89.993456
_cell_angle_beta	89.998611
_cell_angle_gamma	83.883472
loop_
_atom_site_label
_atom_site_type_symbol
_atom_site_fract_x
_atom_site_fract_y
_atom_site_fract_z
O1	O	1.005088	0.158809	-0.068630
O2	O	0.784840	0.179471	-0.068657
O3	O	0.900029	-0.013688	-0.068638
O4	O	0.889899	0.351968	-0.068649
O5	O	0.900013	-0.013701	0.068855
O6	O	0.784824	0.179458	0.068836
O7	O	1.005072	0.158797	0.068863
Cu8	Cu	0.894946	0.169126	0.081404
Cu9	Cu	0.894965	0.169141	-0.081198
O10	O	0.889883	0.351956	0.068844
C11	C	0.756631	0.178724	0.000086
C12	C	0.672599	0.176503	0.000076
C13	C	0.899277	-0.060480	0.000108
C14	C	0.897053	-0.199884	0.000106
C15	C	0.624698	0.289883	0.000072
C16	C	0.545741	0.287789	0.000083
C17	C	0.514687	0.172313	0.000091
C18	C	0.562594	0.058924	0.000097
C19	C	0.641549	0.061020	0.000092
C20	C	0.244177	0.050470	0.000118
C21	C	0.165216	0.048383	0.000120
C22	C	0.148369	0.277239	0.000109
C23	C	0.227324	0.279335	0.000104
C24	C	0.275224	0.165946	0.000114
C25	C	0.360838	0.168219	0.000104
C26	C	0.429075	0.170039	0.000096
C27	C	1.034792	-0.230266	0.000134
C28	C	1.102614	-0.310947	0.000149
C29	C	1.100519	-0.441929	0.000146
C30	C	1.030596	-0.492230	0.000126
C31	C	0.962775	-0.411549	0.000110
C32	C	0.964876	-0.280566	0.000116
C33	C	0.825037	-0.381167	0.000077
C34	C	0.827130	-0.250185	0.000086
C35	C	0.755114	-0.431468	0.000056
C36	C	0.687291	-0.350786	0.000047
C37	C	0.689388	-0.219798	0.000051
C38	C	0.759308	-0.169504	0.000071
C39	C	1.033281	0.159543	0.000118
C40	C	1.117313	0.161764	0.000123
C41	C	0.890634	0.398747	0.000096
C42	C	0.892859	0.538151	0.000092
N43	N	0.894939	0.169115	0.195769
N44	N	0.894979	0.169142	-0.195563
C45	C	0.945960	0.083620	0.239042
C46	C	0.945964	0.083618	0.325589
C47	C	0.894949	0.169120	0.368862
C48	C	0.843923	0.254620	0.325583
C49	C	0.843916	0.254614	0.239037
C50	C	0.843949	0.254643	0.674611
C51	C	0.843961	0.254645	0.761163
C52	C	0.945997	0.083647	0.761162
C53	C	0.945990	0.083642	0.674617
C54	C	0.894961	0.169137	0.631346
C55	C	0.894956	0.169136	0.537502
C56	C	0.894957	0.169128	0.462704
H57	H	0.506743	0.380115	0.000080
H58	H	0.761023	-0.062854	0.000079
H59	H	0.283168	-0.041858	0.000127
C60	C	1.046816	-0.085417	0.247744
C61	C	1.002036	-0.010371	0.191480
H62	H	1.081431	-0.143451	0.218381
H63	H	1.074314	-0.033198	0.281487
H64	H	1.015070	-0.130516	0.281511
H65	H	1.033781	0.034735	0.157717
H66	H	0.974536	-0.062597	0.157722
H67	H	0.109359	0.369565	0.000105
C68	C	0.553026	-0.202935	0.000016
C69	C	0.614835	-0.131117	0.000034
H70	H	0.507000	-0.148188	0.000010
H71	H	0.555086	-0.254640	-0.047930
H72	H	0.555068	-0.254670	0.047964
H73	H	0.612795	-0.079388	-0.047918
H74	H	0.612773	-0.079390	0.047985
C75	C	0.989218	-0.133894	0.648162
C76	C	1.002061	-0.010456	0.627133
H77	H	1.023831	-0.192019	0.618867
H78	H	0.996481	-0.146005	0.705906
H79	H	0.938633	-0.147374	0.633959
H80	H	1.052644	0.003028	0.641341
H81	H	0.994804	0.001661	0.569375
H82	H	0.139935	-0.045657	0.000128
C83	C	1.075276	-0.050927	0.070837
C84	C	1.037097	-0.086290	0.000144
H85	H	1.076702	0.037957	0.070840
H86	H	1.049350	-0.074958	0.118765
H87	H	1.125673	-0.091786	0.070841
H88	H	0.986698	-0.045438	0.000144
H89	H	1.063021	-0.062246	-0.047796
H90	H	1.159544	-0.269977	0.000173
C91	C	1.236885	-0.458819	0.000181
C92	C	1.175068	-0.530621	0.000163
H93	H	1.282907	-0.513577	0.000196
H94	H	1.234851	-0.407096	-0.047763
H95	H	1.234825	-0.407104	0.048131
H96	H	1.177125	-0.582330	-0.047790
H97	H	1.177103	-0.582366	0.048112
C98	C	0.800602	0.472114	0.352203
C99	C	0.787841	0.348604	0.373141
H100	H	0.765975	0.530136	0.381558
H101	H	0.851175	0.485647	0.366385
H102	H	0.793297	0.484325	0.294464
H103	H	0.795152	0.336390	0.430880
H104	H	0.737255	0.335066	0.358965
C105	C	0.961521	-0.087337	0.422919
C106	C	1.002053	-0.010361	0.373148
H107	H	0.996152	-0.145364	0.452273
H108	H	0.931148	-0.036425	0.461077
H109	H	0.929784	-0.132443	0.389155
H110	H	1.033787	0.034752	0.406912
H111	H	1.032439	-0.061279	0.334985
H112	H	0.802401	0.324258	0.639386
H113	H	0.649976	0.383917	0.000065
H114	H	0.987545	0.014029	0.796403
H115	H	0.537303	-0.035099	0.000116
H116	H	0.252604	0.373367	0.000094
C117	C	0.743079	0.423658	0.752474
C118	C	0.787875	0.348624	0.808730
H119	H	0.708453	0.481667	0.781843
H120	H	0.774807	0.468775	0.718711
H121	H	0.715586	0.371419	0.718726
H122	H	0.815372	0.400863	0.842475
H123	H	0.756143	0.303504	0.842508
H124	H	0.680549	-0.031306	0.000094
C125	C	1.065109	-0.688106	-0.070561
C126	C	1.028296	-0.636207	0.000114
H127	H	1.063692	-0.776992	-0.070564
H128	H	1.040152	-0.652854	-0.118501
H129	H	1.116455	-0.669683	-0.070540
H130	H	0.976949	-0.654622	0.000090
H131	H	1.053252	-0.671471	0.048066
H132	H	0.630364	-0.391753	0.000025
C133	C	0.714636	-0.610816	-0.070644
C134	C	0.752812	-0.575445	0.000049
H135	H	0.713218	-0.699702	-0.070648
H136	H	0.664243	-0.569971	-0.070650
H137	H	0.740564	-0.586778	-0.118577
H138	H	0.726880	-0.599475	0.047982
H139	H	0.803213	-0.616305	0.000062
H140	H	0.802368	0.324232	0.203805
