data_functionalizedCrystal
_audit_creation_method	'MofGen! by Chris Wilmer'
_symmetry_space_group_name_H-M	'P1'
_symmetry_Int_Tables_number	1
_symmetry_cell_setting	triclinic
loop_
_symmetry_equiv_pos_as_xyz
  x,y,z
_cell_length_a	12.759401
_cell_length_b	12.759400
_cell_length_c	11.169409
_cell_angle_alpha	90.033109
_cell_angle_beta	90.021365
_cell_angle_gamma	90.016169
loop_
_atom_site_label
_atom_site_type_symbol
_atom_site_fract_x
_atom_site_fract_y
_atom_site_fract_z
Zn1	Zn	1.606271	-0.418138	0.678586
Zn2	Zn	1.606161	-0.593864	0.477900
Zn3	Zn	1.430569	-0.418204	0.477915
Zn4	Zn	1.430562	-0.593781	0.678539
O5	O	1.518391	-0.505997	0.578235
O6	O	1.753278	-0.441456	0.651977
O7	O	1.582825	-0.570625	0.309952
O8	O	1.453925	-0.271175	0.504560
O9	O	1.753197	-0.570561	0.504534
O10	O	1.583013	-0.271126	0.651992
O11	O	1.453818	-0.441569	0.309963
O12	O	1.283547	-0.441488	0.504515
O13	O	1.453913	-0.570419	0.846495
O14	O	1.283542	-0.570483	0.651913
O15	O	1.583006	-0.441375	0.846529
O16	O	1.582819	-0.740874	0.504490
O17	O	1.453807	-0.740813	0.651899
C18	C	1.245423	-0.505984	0.578211
C19	C	1.128647	-0.506004	0.578229
C20	C	1.073810	-0.573274	0.654859
C21	C	0.964086	-0.573278	0.654883
C22	C	0.964045	-0.438739	0.501637
C23	C	1.073767	-0.438731	0.501620
C24	C	0.814191	-0.610969	0.796375
C25	C	0.759350	-0.678256	0.872994
C26	C	0.794948	-0.780785	0.891214
C27	C	0.885385	-0.816050	0.832797
C28	C	0.940220	-0.748769	0.756169
C29	C	0.904624	-0.646225	0.737972
C30	C	1.223664	-0.401050	0.360126
C31	C	1.278501	-0.333774	0.283491
C32	C	1.242906	-0.231242	0.265260
C33	C	1.152465	-0.195981	0.323655
C34	C	1.097628	-0.263258	0.400290
C35	C	1.133232	-0.365788	0.418524
C36	C	1.518329	-0.778964	0.578214
C37	C	1.518398	-0.895741	0.578245
C38	C	1.585585	-0.950488	0.655078
C39	C	1.585644	-1.060212	0.655110
C40	C	1.451326	-1.060432	0.501466
C41	C	1.451263	-0.950710	0.501441
C42	C	1.623206	-1.210033	0.796727
C43	C	1.690410	-1.264783	0.873549
C44	C	1.792895	-1.229071	0.892070
C45	C	1.828198	-1.138611	0.833751
C46	C	1.761001	-1.083866	0.756919
C47	C	1.658501	-1.119576	0.738421
C48	C	1.413711	-0.800888	0.359823
C49	C	1.346518	-0.746141	0.282984
C50	C	1.244031	-0.781850	0.264451
C51	C	1.208731	-0.872314	0.322749
C52	C	1.275924	-0.927061	0.399588
C53	C	1.378411	-0.891344	0.418123
C54	C	1.792424	-0.506011	0.578259
C55	C	1.909201	-0.506016	0.578270
C56	C	1.518471	-0.505880	0.891277
C57	C	1.518506	-0.505831	1.024678
C58	C	1.518482	-0.231964	0.578283
C59	C	1.518521	-0.115187	0.578303
C60	C	1.518371	-0.506037	0.266410
C61	C	1.518540	-0.505791	0.133011
H62	H	1.252662	-0.484537	0.374975
H63	H	1.247175	-1.000722	0.447058
H64	H	1.497160	-0.771793	0.374923
H65	H	0.914355	-0.899545	0.847627
O66	O	0.910571	-0.373494	0.427260
C67	C	0.801968	-0.387905	0.443726
H68	H	0.786981	-0.469028	0.482869
H69	H	0.770874	-0.325658	0.507772
C70	C	0.763988	-0.278515	0.274245
C71	C	0.745581	-0.378155	0.322312
H72	H	0.729205	-0.272495	0.199353
H73	H	0.837156	-0.268802	0.263154
H74	H	0.738077	-0.226653	0.327629
H75	H	0.771505	-0.430014	0.268936
H76	H	0.672416	-0.387876	0.333392
H77	H	0.785205	-0.527478	0.781560
O78	O	1.109128	-0.906840	0.304661
C79	C	1.057399	-0.839136	0.224321
H80	H	1.097030	-0.759059	0.225714
H81	H	1.061421	-0.873167	0.130038
C82	C	0.893248	-0.925730	0.260332
C83	C	0.941919	-0.827375	0.262050
H84	H	0.822014	-0.918479	0.283600
H85	H	0.928099	-0.971347	0.314455
H86	H	0.896611	-0.954079	0.181760
H87	H	0.938567	-0.799034	0.340623
H88	H	0.907064	-0.781753	0.207940
H89	H	0.750289	-0.835570	0.953600
H90	H	1.023992	-0.234537	0.447847
O91	O	1.178880	-0.728521	0.189806
C92	C	1.232018	-0.641039	0.142284
H93	H	1.299355	-0.618476	0.204269
H94	H	1.264365	-0.661504	0.050059
C95	C	1.072704	-0.576021	0.055091
C96	C	1.155403	-0.548304	0.131228
H97	H	1.025444	-0.518818	0.048266
H98	H	1.036904	-0.634961	0.087104
H99	H	1.099673	-0.593076	-0.021754
H100	H	1.128434	-0.531261	0.208075
H101	H	1.191196	-0.489358	0.099228
O102	O	1.296320	-0.166012	0.190809
C103	C	1.383757	-0.219126	0.143135
H104	H	1.406235	-0.286561	0.204923
H105	H	1.363276	-0.251332	0.050815
C106	C	1.448961	-0.059721	0.056412
C107	C	1.476575	-0.142540	0.132307
H108	H	1.506215	-0.012479	0.049727
H109	H	1.390052	-0.023937	0.088527
H110	H	1.431893	-0.086573	-0.020514
H111	H	1.493630	-0.115689	0.209234
H112	H	1.535489	-0.178318	0.100204
H113	H	1.396669	-1.105202	0.438933
H114	H	1.352142	-0.362492	0.235942
O115	O	1.795448	-0.996090	0.700217
C116	C	1.882200	-1.021381	0.627594
H117	H	1.920883	-1.095836	0.662601
H118	H	1.854740	-1.034521	0.531611
C119	C	1.914293	-0.839231	0.587637
C120	C	1.961809	-0.930674	0.630640
H121	H	1.963398	-0.783278	0.589511
H122	H	1.855844	-0.822192	0.636561
H123	H	1.891411	-0.850196	0.507655
H124	H	1.984678	-0.919712	0.710625
H125	H	2.020265	-0.947709	0.581730
H126	H	1.118489	-0.628050	0.717242
H127	H	1.640249	-0.905734	0.717618
O128	O	1.927777	-1.104045	0.851907
C129	C	1.979526	-1.171777	0.932201
H130	H	1.919096	-1.215083	0.988769
H131	H	2.028204	-1.230909	0.879641
C132	C	2.126148	-1.054196	0.945019
C133	C	2.051927	-1.107379	1.014504
H134	H	2.170812	-1.014474	0.995784
H135	H	2.091286	-1.008565	0.890920
H136	H	2.166702	-1.103482	0.901222
H137	H	2.011367	-1.058092	1.058287
H138	H	2.086784	-1.153000	1.068612
O139	O	1.858026	-1.282350	0.966777
C140	C	1.804903	-1.369863	1.014249
H141	H	1.716769	-1.355653	1.010214
H142	H	1.825254	-1.442567	0.959634
C143	C	1.946685	-1.403893	1.150288
C144	C	1.838438	-1.386437	1.145341
H145	H	1.967373	-1.414121	1.231150
H146	H	1.982477	-1.344937	1.118303
H147	H	1.963630	-1.464478	1.104768
H148	H	1.821496	-1.325846	1.190847
H149	H	1.802643	-1.445384	1.177337
O150	O	1.523626	-1.244748	0.778961
C151	C	1.469687	-1.246200	0.889097
H152	H	1.528585	-1.251244	0.965646
H153	H	1.421495	-1.171434	0.898604
C154	C	1.323963	-1.335775	0.799135
C155	C	1.396303	-1.341979	0.893154
H156	H	1.278693	-1.394853	0.801638
H157	H	1.360301	-1.334794	0.724933
H158	H	1.283814	-1.273466	0.807069
H159	H	1.436460	-1.404280	0.885211
H160	H	1.359971	-1.342973	0.967355
H161	H	1.661656	-1.338436	0.921033
H162	H	1.013851	-0.777481	0.708606
H163	H	0.685717	-0.649533	0.920558
H164	H	1.123470	-0.112498	0.308792
H165	H	1.375270	-0.672483	0.235509
