data_functionalizedCrystal
_audit_creation_method	'MofGen! by Chris Wilmer'
_symmetry_space_group_name_H-M	'P1'
_symmetry_Int_Tables_number	1
_symmetry_cell_setting	triclinic
loop_
_symmetry_equiv_pos_as_xyz
  x,y,z
_cell_length_a	16.992694
_cell_length_b	12.837942
_cell_length_c	16.053802
_cell_angle_alpha	92.838962
_cell_angle_beta	87.249047
_cell_angle_gamma	92.748582
loop_
_atom_site_label
_atom_site_type_symbol
_atom_site_fract_x
_atom_site_fract_y
_atom_site_fract_z
O1	O	1.059913	0.217066	-0.069322
O2	O	1.559913	0.717066	0.430678
O3	O	0.831447	0.214638	-0.069347
O4	O	1.331447	0.714638	0.430653
O5	O	0.940614	0.064530	-0.069330
O6	O	1.440614	0.564530	0.430670
O7	O	0.950746	0.367174	-0.069339
O8	O	1.450746	0.867174	0.430661
O9	O	0.934602	0.072756	0.069528
O10	O	1.434602	0.572756	0.569528
O11	O	0.825435	0.222864	0.069511
O12	O	1.325435	0.722864	0.569511
O13	O	1.053901	0.225292	0.069536
O14	O	1.553901	0.725292	0.569536
Zn15	Zn	0.938714	0.225384	0.091570
Zn16	Zn	1.438714	0.725384	0.591570
Zn17	Zn	0.946634	0.214546	-0.091381
Zn18	Zn	1.446634	0.714546	0.408619
O19	O	0.944734	0.375400	0.069519
O20	O	1.444734	0.875400	0.569519
C21	C	0.798996	0.215629	0.000079
C22	C	1.298996	0.715629	0.500079
C23	C	0.711256	0.206315	0.000070
C24	C	1.211256	0.706315	0.500070
C25	C	0.667730	0.296178	0.000068
C26	C	1.167730	0.796178	0.500068
C27	C	0.585288	0.287422	0.000079
C28	C	1.085288	0.787422	0.500079
C29	C	0.546375	0.188801	0.000087
C30	C	1.046375	0.688801	0.500087
C31	C	0.589907	0.098931	0.000092
C32	C	1.089907	0.598931	0.500092
C33	C	0.672346	0.107689	0.000086
C34	C	1.172346	0.607689	0.500086
C35	C	0.300064	0.152502	0.000111
C36	C	0.800064	0.652502	0.500111
C37	C	0.217618	0.143751	0.000114
C38	C	0.717618	0.643751	0.500114
C39	C	0.213006	0.332243	0.000103
C40	C	0.713006	0.832243	0.500103
C41	C	0.295447	0.340992	0.000092
C42	C	0.795447	0.840992	0.500092
C43	C	0.338972	0.251122	0.000101
C44	C	0.838972	0.751122	0.500101
N45	N	0.462107	0.179847	0.000097
N46	N	0.962107	0.679847	0.500097
N47	N	0.423238	0.260077	0.000098
N48	N	0.923238	0.760077	0.500098
C49	C	0.934185	0.029738	0.000098
C50	C	1.434185	0.529738	0.500098
C51	C	0.923977	-0.086184	0.000096
C52	C	1.423977	0.413816	0.500096
C53	C	1.046699	-0.316977	0.000092
C54	C	1.546699	0.183023	0.500092
C55	C	1.037111	-0.425897	0.000089
C56	C	1.537111	0.074103	0.500089
C57	C	0.895215	-0.412948	0.000082
C58	C	1.395215	0.087052	0.500082
C59	C	0.904802	-0.304027	0.000085
C60	C	1.404802	0.195973	0.500085
C61	C	0.980547	-0.256046	0.000091
C62	C	1.480547	0.243954	0.500091
C63	C	0.990134	-0.147123	0.000099
C64	C	1.490134	0.352877	0.500099
C65	C	0.848238	-0.134176	0.000086
C66	C	1.348238	0.365824	0.500086
C67	C	0.838650	-0.243097	0.000084
C68	C	1.338650	0.256903	0.500084
C69	C	1.086353	0.224300	0.000108
C70	C	1.586353	0.724300	0.500108
C71	C	1.174092	0.233614	0.000112
C72	C	1.674092	0.733614	0.500112
C73	C	0.951163	0.410191	0.000089
C74	C	1.451163	0.910191	0.500089
C75	C	0.961371	0.526114	0.000086
C76	C	1.461371	1.026114	0.500086
N77	N	0.933314	0.232780	0.216430
N78	N	1.433314	0.732780	0.716430
N79	N	0.952040	0.207141	-0.216241
N80	N	1.452040	0.707141	0.283759
C81	C	0.979785	0.168935	0.260131
C82	C	1.479785	0.668935	0.760131
C83	C	0.976016	0.174120	0.347537
C84	C	1.476016	0.674120	0.847537
C85	C	0.925779	0.243156	0.391240
C86	C	1.425779	0.743156	0.891240
C87	C	0.879303	0.307004	0.347533
C88	C	1.379303	0.807004	0.847533
C89	C	0.883068	0.301813	0.260129
C90	C	1.383068	0.801813	0.760129
C91	C	0.909329	0.265799	0.652647
C92	C	1.409329	0.765799	1.152647
C93	C	0.905569	0.270987	0.740058
C94	C	1.405569	0.770987	1.240058
C95	C	1.002281	0.138101	0.740056
C96	C	1.502281	0.638101	1.240056
C97	C	1.006046	0.132921	0.652650
C98	C	1.506046	0.632921	1.152650
C99	C	0.959566	0.196765	0.608950
C100	C	1.459566	0.696765	1.108950
N101	N	0.921927	0.248459	0.480584
N102	N	1.421927	0.748459	0.980584
N103	N	0.963414	0.191455	0.519608
N104	N	1.463414	0.691455	1.019608
H105	H	0.185938	0.063438	0.000120
H106	H	0.685938	0.563438	0.500120
H107	H	1.090979	-0.475503	0.000087
H108	H	1.590979	0.024497	0.500087
C109	C	0.165127	0.431090	0.000104
C110	C	0.665127	0.931090	0.500104
H111	H	0.110456	0.411754	0.000116
H112	H	0.610456	0.911754	0.500116
H113	H	0.179778	0.468384	-0.048319
H114	H	0.679778	0.968384	0.451681
H115	H	0.175602	0.474112	0.048533
H116	H	0.675602	0.974112	0.548533
C117	C	0.347931	0.053649	0.000115
C118	C	0.847931	0.553649	0.500115
H119	H	0.312946	-0.006337	0.000111
H120	H	0.812946	0.493663	0.500111
H121	H	0.378096	0.056013	0.048536
H122	H	0.878096	0.556013	0.548536
H123	H	0.382276	0.050275	-0.048315
H124	H	0.882276	0.550275	0.451685
C125	C	0.547104	-0.009550	0.000099
C126	C	1.047104	0.490450	0.500099
H127	H	0.491772	-0.001898	0.000093
H128	H	0.991772	0.498102	0.500093
H129	H	0.559473	-0.043971	0.048522
H130	H	1.059473	0.456029	0.548522
H131	H	0.563655	-0.049704	-0.048330
H132	H	1.063655	0.450296	0.451670
H133	H	0.707785	0.034512	0.000087
H134	H	1.207785	0.534512	0.500087
H135	H	0.833547	-0.452034	0.000069
H136	H	1.333547	0.047966	0.500069
H137	H	1.051809	-0.108058	0.000107
H138	H	1.551809	0.391942	0.500107
C139	C	0.850260	0.346871	0.788131
C140	C	1.350260	0.846871	1.288131
H141	H	0.823099	0.384128	0.749587
H142	H	1.323099	0.884128	1.249587
H143	H	0.880376	0.394711	0.822240
H144	H	1.380376	0.894711	1.322240
H145	H	0.813161	0.308562	0.822215
H146	H	1.313161	0.808562	1.322215
C147	C	0.858211	0.336034	0.604589
C148	C	1.358211	0.836034	1.104589
H149	H	0.827761	0.377900	0.643138
H150	H	1.327761	0.877900	1.143138
H151	H	0.824031	0.293746	0.570501
H152	H	1.324031	0.793746	1.070501
H153	H	0.891309	0.379808	0.570484
H154	H	1.391309	0.879808	1.070484
C155	C	1.130011	-0.264193	0.000104
C156	C	1.630011	0.235807	0.500104
H157	H	1.168037	-0.316082	0.000103
H158	H	1.668037	0.183918	0.500103
H159	H	1.134602	-0.219106	0.048528
H160	H	1.634602	0.280894	0.548528
H161	H	1.138798	-0.224839	-0.048324
H162	H	1.638798	0.275161	0.451676
H163	H	1.013856	0.122131	0.383118
H164	H	1.513856	0.622131	0.883118
H165	H	1.046952	0.076706	0.617068
H166	H	1.546952	0.576706	1.117068
C167	C	0.338246	0.449475	0.000096
C168	C	0.838246	0.949475	0.500096
H169	H	0.300515	0.501743	0.000105
H170	H	0.800515	1.001743	0.500105
H171	H	0.372402	0.453946	-0.048327
H172	H	0.872402	0.953946	0.451673
H173	H	0.368217	0.459671	0.048525
H174	H	0.868217	0.959671	0.548525
C175	C	0.755338	-0.295882	0.000083
C176	C	1.255338	0.204118	0.500083
H177	H	0.759101	-0.369478	0.000087
H178	H	1.259101	0.130522	0.500087
H179	H	0.729847	-0.278235	-0.048337
H180	H	1.229847	0.221765	0.451663
H181	H	0.725671	-0.272507	0.048515
H182	H	1.225671	0.227493	0.548515
C183	C	0.775468	-0.067151	0.000079
C184	C	1.275468	0.432849	0.500079
H185	H	0.792024	0.004591	0.000075
H186	H	1.292024	0.504591	0.500075
H187	H	0.742648	-0.079477	0.048497
H188	H	1.242648	0.420523	0.548497
H189	H	0.746845	-0.085207	-0.048355
H190	H	1.246845	0.414793	0.451645
C191	C	0.824045	0.382943	0.395604
C192	C	1.324045	0.882943	0.895604
H193	H	0.828464	0.376900	0.453919
H194	H	1.328464	0.876900	0.953919
H195	H	0.771159	0.366365	0.381291
H196	H	1.271159	0.866365	0.881291
H197	H	0.838437	0.452427	0.381268
H198	H	1.338437	0.952427	0.881268
H199	H	0.845226	0.353801	0.224548
H200	H	1.345226	0.853801	0.724548
C201	C	1.035051	0.093005	0.212061
C202	C	1.535051	0.593005	0.712061
H203	H	1.030647	0.099064	0.153746
H204	H	1.530647	0.599064	0.653746
H205	H	1.020673	0.023521	0.226392
H206	H	1.520673	0.523521	0.726392
H207	H	1.087938	0.109601	0.226381
H208	H	1.587938	0.609601	0.726381
C209	C	1.053395	0.067869	0.788127
C210	C	1.553395	0.567869	1.288127
H211	H	1.043955	0.080838	0.846441
H212	H	1.543955	0.580838	1.346441
H213	H	1.107516	0.082743	0.773794
H214	H	1.607516	0.582743	1.273794
H215	H	1.040236	-0.003315	0.773810
H216	H	1.540236	0.496685	1.273810
H217	H	0.549853	0.360598	0.000077
H218	H	1.049853	0.860598	0.500077
C219	C	0.710528	0.404662	0.000058
C220	C	1.210528	0.904662	0.500058
H221	H	0.672794	0.456926	0.000066
H222	H	1.172794	0.956926	0.500066
H223	H	0.744681	0.409130	-0.048366
H224	H	1.244681	0.909130	0.451634
H225	H	0.740501	0.414865	0.048485
H226	H	1.240501	0.914865	0.548485
