data_functionalizedCrystal
_audit_creation_method	'MofGen! by Chris Wilmer'
_symmetry_space_group_name_H-M	'P1'
_symmetry_Int_Tables_number	1
_symmetry_cell_setting	triclinic
loop_
_symmetry_equiv_pos_as_xyz
  x,y,z
_cell_length_a	25.639239
_cell_length_b	12.759395
_cell_length_c	12.759387
_cell_angle_alpha	90.022274
_cell_angle_beta	89.963582
_cell_angle_gamma	89.960750
loop_
_atom_site_label
_atom_site_type_symbol
_atom_site_fract_x
_atom_site_fract_y
_atom_site_fract_z
Zn1	Zn	-0.208115	-1.606094	-0.594013
Zn2	Zn	-0.295561	-1.605911	-0.418317
Zn3	Zn	-0.208142	-1.430392	-0.418345
Zn4	Zn	-0.295522	-1.430311	-0.593950
O5	O	-0.251835	-1.518177	-0.506156
O6	O	-0.219720	-1.753090	-0.570722
O7	O	-0.283992	-1.582585	-0.271299
O8	O	-0.134974	-1.453810	-0.441686
O9	O	-0.283966	-1.752956	-0.441638
O10	O	-0.134954	-1.582897	-0.570749
O11	O	-0.219766	-1.453632	-0.271320
O12	O	-0.219729	-1.283360	-0.441625
O13	O	-0.283900	-1.453671	-0.740980
O14	O	-0.283926	-1.283300	-0.570641
O15	O	-0.219683	-1.582818	-0.741026
O16	O	-0.368721	-1.582506	-0.441577
O17	O	-0.368693	-1.453494	-0.570614
C18	C	-0.251827	-1.245209	-0.506130
C19	C	-0.251836	-1.128432	-0.506143
C20	C	-0.318793	-1.128409	-0.640271
C21	C	-0.352275	-1.073536	-0.707336
C22	C	-0.352281	-0.963815	-0.707346
C23	C	-0.318799	-0.908963	-0.640285
C24	C	-0.285317	-0.963836	-0.573220
C25	C	-0.285316	-1.073560	-0.573215
C26	C	-0.218358	-0.963859	-0.439099
C27	C	-0.218354	-1.073581	-0.439083
C28	C	-0.184876	-0.909008	-0.372039
C29	C	-0.151396	-0.963880	-0.304967
C30	C	-0.151392	-1.073609	-0.304959
C31	C	-0.184872	-1.128454	-0.372018
C32	C	-0.387678	-1.518000	-0.506108
C33	C	-0.445792	-1.518020	-0.506123
C34	C	-0.806157	-1.585529	-0.439081
C35	C	-0.860761	-1.585570	-0.439095
O36	O	-0.889000	-1.642784	-0.382041
N37	N	-0.888074	-1.518361	-0.506226
C38	C	-0.860780	-1.451115	-0.573355
O39	O	-0.889026	-1.393954	-0.630457
C40	C	-0.806177	-1.451081	-0.573345
C41	C	-0.778867	-1.518286	-0.506202
C42	C	-0.778847	-1.652729	-0.371945
C43	C	-0.724247	-1.652687	-0.371930
C44	C	-0.696956	-1.585444	-0.439051
C45	C	-0.724266	-1.518244	-0.506187
C46	C	-0.778884	-1.383841	-0.640478
C47	C	-0.724276	-1.383813	-0.640464
C48	C	-0.696966	-1.451018	-0.573321
C49	C	-0.642375	-1.450958	-0.573293
N50	N	-0.615062	-1.518167	-0.506163
C51	C	-0.642353	-1.585409	-0.439041
C52	C	-0.975451	-1.451195	-0.573371
C53	C	-1.030053	-1.451223	-0.573376
C54	C	-1.030031	-1.585679	-0.439118
C55	C	-0.975427	-1.585644	-0.439108
C56	C	-0.948138	-1.518403	-0.506240
C57	C	-0.527688	-1.585315	-0.439014
C58	C	-0.473082	-1.585263	-0.439002
C59	C	-0.473110	-1.450812	-0.573263
C60	C	-0.527710	-1.450859	-0.573272
C61	C	-0.554998	-1.518119	-0.506144
O62	O	-0.614102	-1.393776	-0.630321
O63	O	-0.614100	-1.642571	-0.381959
C64	C	-0.115462	-1.518383	-0.506228
C65	C	-0.057348	-1.518470	-0.506258
C66	C	-0.251784	-1.518256	-0.780190
C67	C	-0.251762	-1.518290	-0.896967
C68	C	-0.251842	-0.792210	-0.506176
C69	C	-0.251840	-0.908987	-0.506164
C70	C	-0.184897	-1.652780	-0.897035
C71	C	-0.151456	-1.720039	-0.951930
C72	C	-0.151437	-1.720065	-1.061651
C73	C	-0.184861	-1.652821	-1.116481
C74	C	-0.218302	-1.585562	-1.061586
C75	C	-0.218318	-1.585546	-0.951862
C76	C	-0.285164	-1.451068	-1.061518
C77	C	-0.285186	-1.451046	-0.951796
C78	C	-0.318588	-1.383825	-1.116347
C79	C	-0.352032	-1.316569	-1.061452
C80	C	-0.352050	-1.316547	-0.951724
C81	C	-0.318627	-1.383787	-0.896901
C82	C	-0.251849	-1.518158	-0.233189
C83	C	-0.251723	-1.518328	-0.116413
H84	H	-0.124135	-0.919212	-0.250376
C85	C	-0.443080	-1.376853	-0.647097
N86	N	-0.420459	-1.321152	-0.702716
C87	C	-0.184874	-1.249150	-0.372009
N88	N	-0.184877	-1.340061	-0.372006
H89	H	-0.184838	-1.652839	-1.205822
H90	H	-0.379240	-1.261819	-1.106103
C91	C	-0.114691	-1.794003	-0.891610
N92	N	-0.086999	-1.849710	-0.846179
C93	C	-0.388837	-1.242553	-0.891348
N94	N	-0.416546	-1.186819	-0.845877
C95	C	-0.557752	-1.376927	-0.647128
N96	N	-0.580376	-1.321248	-0.702766
H97	H	-0.184881	-0.819667	-0.372056
C98	C	-0.114651	-1.794054	-1.122037
N99	N	-0.086945	-1.849783	-1.167520
H100	H	-0.318568	-1.383846	-1.205688
H101	H	-0.318640	-1.383780	-0.807560
H102	H	-1.052260	-1.640435	-0.384467
C103	C	-0.945437	-1.377223	-0.647231
N104	N	-0.922834	-1.321514	-0.702868
H105	H	-0.318796	-1.217750	-0.640262
H106	H	-0.379534	-1.118208	-0.761937
H107	H	-0.702014	-1.707414	-0.317259
H108	H	-0.379542	-0.919138	-0.761961
H109	H	-0.450848	-1.639990	-0.384322
C110	C	-0.557696	-1.659298	-0.365163
N111	N	-0.580299	-1.715016	-0.309533
H112	H	-0.801061	-1.707492	-0.317286
C113	C	-1.060088	-1.377282	-0.647228
N114	N	-1.082708	-1.321592	-0.702861
C115	C	-0.318799	-0.788266	-0.640316
N116	N	-0.318797	-0.697356	-0.640342
C117	C	-0.114558	-1.133960	-0.231181
N118	N	-0.086814	-1.179412	-0.175608
H119	H	-0.953195	-1.640369	-0.384435
C120	C	-0.184918	-1.652765	-0.776338
N121	N	-0.184933	-1.652755	-0.685428
H122	H	-0.801110	-1.329110	-0.695148
C123	C	-0.694261	-1.309840	-0.714317
N124	N	-0.671655	-1.254123	-0.769941
