data_functionalizedCrystal
_audit_creation_method	'MofGen! by Chris Wilmer'
_symmetry_space_group_name_H-M	'P1'
_symmetry_Int_Tables_number	1
_symmetry_cell_setting	triclinic
loop_
_symmetry_equiv_pos_as_xyz
  x,y,z
_cell_length_a	17.699083
_cell_length_b	14.519709
_cell_length_c	16.176319
_cell_angle_alpha	89.992256
_cell_angle_beta	89.998611
_cell_angle_gamma	83.481580
loop_
_atom_site_label
_atom_site_type_symbol
_atom_site_fract_x
_atom_site_fract_y
_atom_site_fract_z
O1	O	1.004413	0.116624	-0.068632
O2	O	0.784078	0.131798	-0.068660
O3	O	0.900087	-0.010052	-0.068638
O4	O	0.888403	0.258474	-0.068654
O5	O	0.900071	-0.010061	0.068855
O6	O	0.784062	0.131789	0.068833
O7	O	1.004397	0.116615	0.068861
Cu8	Cu	0.894228	0.124201	0.081401
Cu9	Cu	0.894247	0.124212	-0.081200
O10	O	0.888387	0.258465	0.068839
C11	C	0.755871	0.131249	0.000083
C12	C	0.671848	0.129618	0.000073
C13	C	0.899534	-0.044414	0.000109
C14	C	0.897903	-0.146789	0.000109
C15	C	0.623466	0.212881	0.000068
C16	C	0.544518	0.211343	0.000079
C17	C	0.513954	0.126541	0.000089
C18	C	0.562343	0.043272	0.000096
C19	C	0.641289	0.044811	0.000091
C20	C	0.243962	0.037064	0.000117
C21	C	0.165010	0.035531	0.000119
C22	C	0.147191	0.203596	0.000105
C23	C	0.226137	0.205135	0.000100
C24	C	0.274519	0.121866	0.000112
C25	C	0.360123	0.123535	0.000102
C26	C	0.428352	0.124872	0.000093
C27	C	0.891896	-0.521659	0.000087
C28	C	0.893564	-0.417358	0.000093
C29	C	0.894899	-0.334227	0.000099
C30	C	0.896568	-0.229920	0.000104
C31	C	1.032603	0.117164	0.000116
C32	C	1.116626	0.118795	0.000121
C33	C	0.888940	0.292827	0.000090
C34	C	0.890572	0.395202	0.000085
N35	N	0.894220	0.124193	0.195767
N36	N	0.894260	0.124213	-0.195565
C37	C	0.945604	0.061408	0.239040
C38	C	0.945608	0.061407	0.325588
C39	C	0.894231	0.124196	0.368859
C40	C	0.842841	0.186985	0.325579
C41	C	0.842834	0.186981	0.239034
C42	C	0.842867	0.187002	0.674608
C43	C	0.842879	0.187003	0.761159
C44	C	0.945641	0.061428	0.761161
C45	C	0.945634	0.061424	0.674616
C46	C	0.894242	0.124209	0.631343
C47	C	0.894237	0.124208	0.537499
C48	C	0.894238	0.124202	0.462702
H49	H	0.648344	0.281937	0.000060
H50	H	0.251017	0.274189	0.000088
O51	O	0.100114	0.284425	-0.000008
C52	C	0.000669	0.380260	-0.071268
C53	C	0.053924	0.288681	-0.071229
H54	H	-0.036679	0.383740	-0.128853
H55	H	-0.036787	0.383757	-0.013763
H56	H	0.036092	0.441117	-0.071240
H57	H	0.018561	0.227773	-0.071286
H58	H	0.091382	0.285266	-0.128729
O59	O	0.995401	0.000383	0.632455
C60	C	1.040637	-0.055635	0.499129
C61	C	0.984323	0.013651	0.546771
H62	H	1.031689	-0.044945	0.429846
H63	H	1.101357	-0.043915	0.515973
H64	H	1.030520	-0.129392	0.516308
H65	H	0.994370	0.087436	0.529618
H66	H	0.923623	0.001851	0.529923
H67	H	0.987449	0.010281	0.360821
H68	H	0.537452	-0.025775	0.000116
O69	O	0.995525	0.000301	0.803108
C70	C	1.039631	-0.160128	0.829642
C71	C	0.983110	-0.091008	0.782073
H72	H	1.029603	-0.233966	0.812666
H73	H	1.100280	-0.148281	0.812603
H74	H	1.030819	-0.149298	0.898926
H75	H	0.991852	-0.101797	0.712778
H76	H	0.922481	-0.102872	0.799180
H77	H	0.680683	-0.022990	0.000095
O78	O	0.792922	0.248082	0.632708
C79	C	0.690965	0.372606	0.641847
C80	C	0.747501	0.303493	0.689405
H81	H	0.654217	0.417410	0.687666
H82	H	0.723655	0.418691	0.601338
H83	H	0.653133	0.332828	0.601320
H84	H	0.785347	0.343195	0.729977
H85	H	0.714764	0.257408	0.729862
O86	O	0.290845	-0.043905	0.000088
C87	C	0.300182	-0.210771	0.000155
C88	C	0.246996	-0.119138	0.000168
H89	H	0.264751	-0.271620	0.000237
H90	H	0.337576	-0.214319	-0.057398
H91	H	0.337602	-0.214205	0.057683
H92	H	0.209528	-0.115642	-0.057321
H93	H	0.209653	-0.115628	0.057759
O94	O	0.995542	0.000324	0.197138
C95	C	1.097500	-0.124200	0.206285
C96	C	1.040975	-0.055083	0.253839
H97	H	1.134258	-0.169002	0.252107
H98	H	1.064801	-0.170288	0.165801
H99	H	1.135324	-0.084426	0.165733
H100	H	1.003137	-0.094782	0.294436
H101	H	1.073722	-0.008996	0.294270
O102	O	0.793005	0.247944	0.367739
C103	C	0.747443	0.303574	0.501063
C104	C	0.803933	0.234499	0.453423
H105	H	0.756248	0.292715	0.570347
H106	H	0.757399	0.377446	0.484092
H107	H	0.686816	0.291658	0.484008
H108	H	0.864582	0.246331	0.470452
H109	H	0.793910	0.160652	0.470398
O110	O	0.497628	0.292310	0.000037
C111	C	0.488284	0.459176	0.000068
C112	C	0.541474	0.367546	0.000094
H113	H	0.523712	0.520027	0.000133
H114	H	0.450887	0.462723	-0.057481
H115	H	0.450867	0.462606	0.057600
H116	H	0.578938	0.364054	-0.057398
H117	H	0.578819	0.364036	0.057682
O118	O	0.792892	0.248062	0.197123
C119	C	0.690933	0.372583	0.206249
C120	C	0.747466	0.303475	0.253814
H121	H	0.654180	0.417390	0.252063
H122	H	0.723624	0.418668	0.165740
H123	H	0.653104	0.332802	0.165721
H124	H	0.785309	0.343181	0.294387
H125	H	0.714727	0.257392	0.294271
H126	H	0.140129	-0.033529	0.000128
H127	H	0.801038	0.238136	0.796389
