data_functionalizedCrystal
_audit_creation_method	'MofGen! by Chris Wilmer'
_symmetry_space_group_name_H-M	'P1'
_symmetry_Int_Tables_number	1
_symmetry_cell_setting	triclinic
loop_
_symmetry_equiv_pos_as_xyz
  x,y,z
_cell_length_a	12.645331
_cell_length_b	29.839131
_cell_length_c	12.645323
_cell_angle_alpha	89.967288
_cell_angle_beta	89.977324
_cell_angle_gamma	90.040399
loop_
_atom_site_label
_atom_site_type_symbol
_atom_site_fract_x
_atom_site_fract_y
_atom_site_fract_z
Zn1	Zn	1.620556	-0.178862	-0.599388
Zn2	Zn	1.620365	-0.253994	-0.422104
Zn3	Zn	1.443271	-0.178877	-0.422133
Zn4	Zn	1.443179	-0.253964	-0.599320
O5	O	1.531843	-0.216424	-0.510736
O6	O	1.768878	-0.188834	-0.575888
O7	O	1.596831	-0.244048	-0.273761
O8	O	1.466907	-0.116008	-0.445687
O9	O	1.768737	-0.244033	-0.445638
O10	O	1.597158	-0.115997	-0.575916
O11	O	1.466721	-0.188860	-0.273782
O12	O	1.294912	-0.188832	-0.445620
O13	O	1.466751	-0.243983	-0.747676
O14	O	1.294844	-0.243998	-0.575799
O15	O	1.597069	-0.188806	-0.747727
O16	O	1.596742	-0.316857	-0.445571
O17	O	1.466565	-0.316835	-0.575771
C18	C	1.256413	-0.216414	-0.510706
C19	C	1.138583	-0.216420	-0.510718
C20	C	1.531651	-0.333147	-0.510684
C21	C	1.531667	-0.383081	-0.510697
C22	C	0.971026	-0.181555	-0.429274
C23	C	1.093586	-0.181645	-0.428915
C24	C	1.094017	-0.263746	-0.480188
C25	C	0.971418	-0.263555	-0.479632
C26	C	0.971445	-0.204409	-0.623006
C27	C	1.094052	-0.203352	-0.622382
C28	C	1.599749	-0.692723	-0.443041
C29	C	1.599880	-0.880396	-0.443082
O30	O	1.657615	-0.904660	-0.385518
N31	N	1.532063	-0.903866	-0.510816
C32	C	1.464212	-0.880415	-0.578550
O33	O	1.406540	-0.904684	-0.636171
C34	C	1.464088	-0.692743	-0.578514
C35	C	1.531902	-0.669275	-0.510767
C36	C	1.667559	-0.669256	-0.375300
C37	C	1.667522	-0.622340	-0.375287
C38	C	1.599674	-0.598892	-0.443013
C39	C	1.531865	-0.622360	-0.510753
C40	C	1.396244	-0.669293	-0.646252
C41	C	1.396220	-0.622372	-0.646239
C42	C	1.464035	-0.598904	-0.578492
C43	C	1.463980	-0.551997	-0.578466
N44	N	1.531798	-0.528527	-0.510732
C45	C	1.599645	-0.551975	-0.443005
C46	C	1.464281	-0.978946	-0.578563
C47	C	1.464311	-1.025864	-0.578571
C48	C	1.599980	-1.025842	-0.443104
C49	C	1.599945	-0.978923	-0.443091
C50	C	1.532099	-0.955476	-0.510829
C51	C	1.599560	-0.453449	-0.442981
C52	C	1.599514	-0.406529	-0.442970
C53	C	1.463849	-0.406555	-0.578441
C54	C	1.463891	-0.453471	-0.578448
C55	C	1.531755	-0.476916	-0.510715
O56	O	1.406284	-0.527704	-0.636009
O57	O	1.657325	-0.527697	-0.385409
C58	C	1.599787	-0.739639	-0.443054
C59	C	1.531977	-0.763106	-0.510794
C60	C	1.464130	-0.739659	-0.578521
C61	C	1.532007	-0.810024	-0.510802
C62	C	1.599854	-0.833472	-0.443076
C63	C	1.667672	-0.810002	-0.375341
C64	C	1.667634	-0.763087	-0.375328
C65	C	1.396312	-0.763129	-0.646256
C66	C	1.396354	-0.810044	-0.646263
C67	C	1.464202	-0.833492	-0.578536
C68	C	1.808348	-0.216435	-0.510768
C69	C	1.926178	-0.216440	-0.510781
C70	C	1.531921	-0.216390	-0.787242
C71	C	1.531954	-0.216375	-0.905072
C72	C	1.532064	-0.099246	-0.510812
C73	C	1.532158	-0.049312	-0.510845
C74	C	1.449718	-0.250923	-1.072604
C75	C	1.449934	-0.251094	-0.950044
C76	C	1.643641	-0.229224	-0.949588
C77	C	1.643190	-0.229441	-1.072186
C78	C	1.503559	-0.168784	-1.072285
C79	C	1.501067	-0.169069	-0.949679
C80	C	1.531826	-0.216427	-0.235307
C81	C	1.531998	-0.216315	-0.117477
H82	H	0.940171	-0.189419	-0.346601
N83	N	1.133514	-0.135160	-0.454255
H84	H	1.071474	-0.114426	-0.465759
H85	H	1.177745	-0.123768	-0.393448
N86	N	0.932034	-0.134929	-0.454331
H87	H	0.884917	-0.135964	-0.518760
H88	H	0.890696	-0.122939	-0.392137
N89	N	0.933445	-0.277061	-0.370958
H90	H	0.888923	-0.305075	-0.376516
H91	H	0.996398	-0.283059	-0.323920
H92	H	1.124687	-0.226907	-0.686360
H93	H	1.123160	-0.290432	-0.537689
N94	N	1.740745	-0.694541	-0.302247
H95	H	1.783690	-0.672549	-0.259340
H96	H	1.697632	-0.714037	-0.253147
N97	N	1.323120	-0.737841	-0.719295
H98	H	1.366147	-0.718341	-0.768466
H99	H	1.280182	-0.759860	-0.762129
N100	N	1.132656	-0.157222	-0.652875
H101	H	1.174975	-0.159176	-0.720468
H102	H	1.070019	-0.136769	-0.663918
N103	N	1.132371	-0.192175	-0.318759
H104	H	1.069826	-0.196779	-0.270246
H105	H	1.176550	-0.220349	-0.320498
H106	H	1.655165	-0.959818	-0.387927
N107	N	1.474354	-0.297311	-1.113372
H108	H	1.538577	-0.296005	-1.160786
H109	H	1.488974	-0.317930	-1.051730
N110	N	1.672755	-0.478732	-0.369928
H111	H	1.715700	-0.456741	-0.327017
H112	H	1.629646	-0.498231	-0.320831
N113	N	0.932105	-0.299147	-0.554836
H114	H	0.994418	-0.314893	-0.588196
H115	H	0.887772	-0.321613	-0.514705
H116	H	0.940582	-0.170502	-0.650768
N117	N	1.134589	-0.277498	-0.372678
H118	H	1.214384	-0.278819	-0.374158
H119	H	1.111024	-0.254885	-0.318160
N120	N	1.582928	-0.134623	-1.110722
H121	H	1.655991	-0.143355	-1.085951
H122	H	1.581626	-0.133491	-1.190536
H123	H	1.409030	-0.959858	-0.633725
N124	N	0.933035	-0.238064	-0.703455
H125	H	0.886539	-0.260994	-0.667442
H126	H	0.891183	-0.222104	-0.760088
N127	N	1.391151	-1.051173	-0.651622
H128	H	1.348169	-1.029195	-0.694522
H129	H	1.434282	-1.070608	-0.700729
N130	N	1.740680	-0.597032	-0.302233
H131	H	1.783667	-0.619011	-0.259342
H132	H	1.789702	-0.577537	-0.345437
N133	N	1.397560	-0.153265	-1.113209
H134	H	1.399790	-0.151458	-1.192938
H135	H	1.341050	-0.175245	-1.090807
H136	H	1.341017	-0.688392	-0.701414
H137	H	1.654736	-0.387423	-0.387799
N138	N	1.673157	-1.051136	-0.370051
H139	H	1.662879	-1.084418	-0.380342
H140	H	1.748854	-1.042901	-0.386625
N141	N	1.323045	-0.597083	-0.719303
H142	H	1.280095	-0.619072	-0.762216
H143	H	1.273989	-0.577650	-0.676105
N144	N	1.474807	-0.297771	-0.911215
H145	H	1.546624	-0.307156	-0.938230
H146	H	1.474982	-0.298055	-0.831350
H147	H	1.367112	-0.243054	-0.919945
N148	N	1.390739	-0.478786	-0.651503
H149	H	1.347750	-0.456810	-0.694402
H150	H	1.433883	-0.498217	-0.700612
H151	H	1.667301	-0.264187	-1.100785
N152	N	1.390666	-0.381261	-0.651479
H153	H	1.400941	-0.347978	-0.641187
H154	H	1.407133	-0.389431	-0.727209
N155	N	1.727029	-0.196897	-0.910995
H156	H	1.798176	-0.205799	-0.940577
H157	H	1.708857	-0.165599	-0.935366
H158	H	1.722912	-0.829101	-0.320193
H159	H	1.722855	-0.743983	-0.320162
N160	N	1.339677	-0.240371	-1.111617
H161	H	1.342088	-0.213055	-1.158762
H162	H	1.311386	-0.266737	-1.152926
N163	N	1.323197	-0.835353	-0.719327
H164	H	1.280215	-0.813375	-0.762226
H165	H	1.366336	-0.854785	-0.768435
H166	H	1.706571	-0.205328	-1.101872
N167	N	1.676139	-0.274766	-0.908928
H168	H	1.618685	-0.287139	-0.861683
H169	H	1.687552	-0.295695	-0.970619
N170	N	1.392199	-0.156227	-0.911138
H171	H	1.363000	-0.180946	-0.864974
H172	H	1.396866	-0.127576	-0.868909
H173	H	1.556621	-0.141920	-0.919066
