data_functionalizedCrystal
_audit_creation_method	'MofGen! by Chris Wilmer'
_symmetry_space_group_name_H-M	'P1'
_symmetry_Int_Tables_number	1
_symmetry_cell_setting	triclinic
loop_
_symmetry_equiv_pos_as_xyz
  x,y,z
_cell_length_a	16.120490
_cell_length_b	16.120297
_cell_length_c	16.120531
_cell_angle_alpha	84.389419
_cell_angle_beta	89.829344
_cell_angle_gamma	90.129683
loop_
_atom_site_label
_atom_site_type_symbol
_atom_site_fract_x
_atom_site_fract_y
_atom_site_fract_z
Zn1	Zn	1.224942	-0.554758	0.422327
Zn2	Zn	1.724942	-0.054758	0.922327
Zn3	Zn	1.224822	-0.422054	0.555010
Zn4	Zn	1.724822	0.077946	1.055010
Zn5	Zn	1.093682	-0.408005	0.408236
Zn6	Zn	1.593682	0.091995	0.908236
Zn7	Zn	1.078819	-0.553990	0.554234
Zn8	Zn	1.578819	-0.053990	1.054234
O9	O	1.155566	-0.484702	0.484952
O10	O	1.655566	0.015298	0.984952
O11	O	1.340961	-0.543356	0.446149
O12	O	1.840961	-0.043356	0.946149
O13	O	1.213596	-0.303558	0.529967
O14	O	1.713596	0.196442	1.029967
O15	O	1.117365	-0.421914	0.293476
O16	O	1.617365	0.078086	0.793476
O17	O	1.340873	-0.445859	0.543631
O18	O	1.840873	0.054141	1.043631
O19	O	1.213800	-0.529733	0.303828
O20	O	1.713800	-0.029733	0.803828
O21	O	1.117249	-0.293236	0.422133
O22	O	1.617249	0.206764	0.922133
O23	O	0.975675	-0.421169	0.421381
O24	O	1.475675	0.078831	0.921381
O25	O	1.092032	-0.670724	0.542309
O26	O	1.592032	-0.170724	1.042309
O27	O	0.964755	-0.528424	0.528645
O28	O	1.464755	-0.028424	1.028645
O29	O	1.199388	-0.671289	0.445397
O30	O	1.699388	-0.171289	0.945397
O31	O	1.199184	-0.445114	0.671536
O32	O	1.699184	0.054886	1.171536
O33	O	1.091916	-0.542047	0.670966
O34	O	1.591916	-0.042047	1.170966
C35	C	0.940129	-0.473189	0.473401
C36	C	1.440129	0.026811	0.973401
C37	C	0.847961	-0.468284	0.468480
C38	C	1.347961	0.031716	0.968480
C39	C	0.632762	-0.510144	0.510469
C40	C	1.132762	-0.010144	1.010469
C41	C	0.679215	-0.459329	0.459504
C42	C	1.179215	0.040671	0.959504
C43	C	0.773114	-0.464313	0.464500
C44	C	1.273114	0.035687	0.964500
C45	C	0.538854	-0.505161	0.505474
C46	C	1.038854	-0.005161	1.005474
C47	C	1.144066	-0.702094	0.495339
C48	C	1.644066	-0.202094	0.995339
C49	C	1.139165	-0.794733	0.499765
C50	C	1.639165	-0.294733	0.999765
C51	C	1.130187	-0.964344	0.507826
C52	C	1.630187	-0.464344	1.007826
C53	C	1.181122	-1.005908	0.461836
C54	C	1.681122	-0.505908	0.961836
C55	C	1.176127	-1.100286	0.466321
C56	C	1.676127	-0.600286	0.966321
C57	C	1.135181	-0.869958	0.503342
C58	C	1.635181	-0.369958	1.003342
C59	C	1.371845	-0.496261	0.496548
C60	C	1.871845	0.003739	0.996548
C61	C	1.464010	-0.501186	0.501490
C62	C	1.964010	-0.001186	1.001490
C63	C	1.143946	-0.495041	0.701494
C64	C	1.643946	0.004959	1.201494
C65	C	1.139049	-0.499496	0.794137
C66	C	1.639049	0.000504	1.294137
C67	C	1.167073	-0.268156	0.474547
C68	C	1.667073	0.231844	0.974547
C69	C	1.172147	-0.175514	0.469895
C70	C	1.672147	0.324486	0.969895
C71	C	1.130113	-0.507647	0.963758
C72	C	1.630113	-0.007647	1.463758
C73	C	1.181054	-0.461711	1.005304
C74	C	1.681054	0.038289	1.505304
C75	C	1.176082	-0.466246	1.099687
C76	C	1.676082	0.033754	1.599687
C77	C	1.135084	-0.503113	0.869367
C78	C	1.635084	-0.003113	1.369367
C79	C	1.167225	-0.474325	1.267564
C80	C	1.667225	0.025675	1.767564
C81	C	1.172120	-0.469860	1.174920
C82	C	1.672120	0.030140	1.674920
H83	H	0.663511	-0.557388	0.557851
H84	H	1.163511	-0.057388	1.057851
H85	H	0.648464	-0.412080	0.412119
H86	H	1.148464	0.087920	0.912119
H87	H	1.228479	-0.970613	0.419093
H88	H	1.728479	-0.470613	0.919093
H89	H	1.082834	-0.999637	0.550565
H90	H	1.582834	-0.499637	1.050565
H91	H	1.082769	-0.550376	0.999071
H92	H	1.582769	-0.050376	1.499071
F93	F	1.242938	-0.405853	0.959147
F94	F	1.742938	0.094147	1.459147
