data_functionalizedCrystal
_audit_creation_method	'MofGen! by Chris Wilmer'
_symmetry_space_group_name_H-M	'P1'
_symmetry_Int_Tables_number	1
_symmetry_cell_setting	triclinic
loop_
_symmetry_equiv_pos_as_xyz
  x,y,z
_cell_length_a	10.723024
_cell_length_b	10.489741
_cell_length_c	9.798715
_cell_angle_alpha	89.997135
_cell_angle_beta	89.996609
_cell_angle_gamma	84.503522
loop_
_atom_site_label
_atom_site_type_symbol
_atom_site_fract_x
_atom_site_fract_y
_atom_site_fract_z
O1	O	1.657297	0.178906	-0.113481
O2	O	2.157297	0.678906	0.386519
O3	O	1.294155	0.196031	-0.113486
O4	O	1.794155	0.696031	0.386514
O5	O	1.483989	0.001865	-0.113475
O6	O	1.983989	0.501865	0.386525
O7	O	1.467463	0.373072	-0.113492
O8	O	1.967463	0.873072	0.386508
O9	O	1.483975	0.001865	0.113507
O10	O	1.983975	0.501865	0.613507
O11	O	1.294141	0.196030	0.113496
O12	O	1.794141	0.696030	0.613496
O13	O	1.657283	0.178906	0.113501
O14	O	2.157283	0.678906	0.613501
Zn15	Zn	1.475709	0.187468	0.149537
Zn16	Zn	1.975709	0.687468	0.649537
Zn17	Zn	1.475728	0.187469	-0.149522
Zn18	Zn	1.975728	0.687469	0.350478
O19	O	1.467448	0.373071	0.113490
O20	O	1.967448	0.873071	0.613490
C21	C	1.247647	0.194785	0.000005
C22	C	1.747647	0.694785	0.500005
C23	C	1.109091	0.191056	0.000003
C24	C	1.609091	0.691056	0.500003
C25	C	1.034175	0.299701	-0.000003
C26	C	1.534175	0.799701	0.499997
C27	C	0.890969	0.295850	-0.000004
C28	C	1.390969	0.795850	0.499996
C29	C	1.482734	-0.045666	0.000015
C30	C	1.982734	0.454334	0.500015
C31	C	1.478999	-0.187293	0.000012
C32	C	1.978999	0.312707	0.500012
C33	C	1.358213	-0.255356	0.000001
C34	C	1.858213	0.244644	0.500001
C35	C	1.415265	-0.347515	0.111915
C36	C	1.915265	0.152485	0.611915
C37	C	1.415307	-0.347489	-0.111871
C38	C	1.915307	0.152511	0.388129
C39	C	1.536100	-0.277587	0.112019
C40	C	2.036100	0.222413	0.612019
C41	C	1.536126	-0.277551	-0.111868
C42	C	2.036126	0.222449	0.388132
C43	C	1.593265	-0.369683	0.000074
C44	C	2.093265	0.130317	0.500074
C45	C	1.703790	0.180152	0.000007
C46	C	2.203790	0.680152	0.500007
C47	C	1.842347	0.183881	-0.000000
C48	C	2.342347	0.683881	0.500000
C49	C	1.468704	0.420602	-0.000003
C50	C	1.968704	0.920602	0.499997
C51	C	1.472438	0.562229	-0.000009
C52	C	1.972438	1.062229	0.499991
N53	N	1.475706	0.187467	0.353637
N54	N	1.975706	0.687467	0.853637
N55	N	1.475742	0.187460	-0.353622
N56	N	1.975742	0.687460	0.146378
C57	C	1.555412	0.105583	0.421418
C58	C	2.055412	0.605583	0.921418
C59	C	1.555432	0.105578	0.578581
C60	C	2.055432	0.605578	1.078581
H61	H	1.076055	0.395567	0.000001
H62	H	1.576055	0.895567	0.500001
H63	H	1.623632	0.035476	0.363099
H64	H	2.123632	0.535476	0.863099
H65	H	1.407503	0.257572	0.588098
H66	H	1.907503	0.757572	1.088098
H67	H	1.623676	0.035479	0.636870
H68	H	2.123676	0.535479	1.136870
N69	N	1.385323	0.280319	0.430879
N70	N	1.885323	0.780319	0.930879
H71	H	1.433736	0.337038	0.490155
H72	H	1.933736	0.837038	0.990155
H73	H	1.332148	0.334877	0.363968
H74	H	1.832148	0.834877	0.863968
H75	H	0.826593	0.388858	-0.000015
H76	H	1.326593	0.888858	0.499985
H77	H	0.906715	0.090867	-0.000004
H78	H	1.406715	0.590867	0.499996
H79	H	1.067210	0.095190	-0.000028
H80	H	1.567210	0.595190	0.499972
H81	H	1.258904	-0.205641	0.000112
H82	H	1.758904	0.294359	0.500112
H83	H	1.364151	-0.378494	0.206530
H84	H	1.864151	0.121506	0.706530
N85	N	1.603737	-0.236806	0.237488
N86	N	2.103737	0.263194	0.737488
H87	H	1.605811	-0.140751	0.236744
H88	H	2.105811	0.359249	0.736744
H89	H	1.558410	-0.262930	0.321845
H90	H	2.058410	0.237070	0.821845
N91	N	1.724921	-0.435252	0.000141
N92	N	2.224921	0.064748	0.500141
H93	H	1.786963	-0.368633	0.000982
H94	H	2.286963	0.131367	0.500982
H95	H	1.737607	-0.491115	0.083890
H96	H	2.237607	0.008885	0.583890
N97	N	1.603784	-0.236470	-0.237194
N98	N	2.103784	0.263530	0.262806
H99	H	1.558088	-0.261623	-0.321693
H100	H	2.058088	0.238377	0.178307
H101	H	1.606506	-0.140507	-0.235656
H102	H	2.106506	0.359493	0.264344
H103	H	1.364191	-0.378420	-0.206495
H104	H	1.864191	0.121580	0.293505
