data_functionalizedCrystal
_audit_creation_method	'MofGen! by Chris Wilmer'
_symmetry_space_group_name_H-M	'P1'
_symmetry_Int_Tables_number	1
_symmetry_cell_setting	triclinic
loop_
_symmetry_equiv_pos_as_xyz
  x,y,z
_cell_length_a	18.050590
_cell_length_b	19.121063
_cell_length_c	18.050582
_cell_angle_alpha	92.415032
_cell_angle_beta	90.000767
_cell_angle_gamma	92.457501
loop_
_atom_site_label
_atom_site_type_symbol
_atom_site_fract_x
_atom_site_fract_y
_atom_site_fract_z
Zn1	Zn	1.122670	-0.279861	-0.432210
Zn2	Zn	1.622670	0.220139	0.067790
Zn3	Zn	1.117284	-0.397304	-0.313312
Zn4	Zn	1.617284	0.102696	0.186688
Zn5	Zn	0.998490	-0.279849	-0.308068
Zn6	Zn	1.498490	0.220151	0.191932
Zn7	Zn	0.993143	-0.397253	-0.437492
Zn8	Zn	1.493143	0.102747	0.062508
O9	O	1.057897	-0.338567	-0.372771
O10	O	1.557897	0.161433	0.127229
O11	O	1.225879	-0.295466	-0.416422
O12	O	1.725879	0.204534	0.083578
O13	O	1.101510	-0.381740	-0.208692
O14	O	1.601510	0.118260	0.291308
O15	O	1.019455	-0.181567	-0.320131
O16	O	1.519455	0.318433	0.179869
O17	O	1.221922	-0.381751	-0.329068
O18	O	1.721922	0.118249	0.170932
O19	O	1.110690	-0.181575	-0.411338
O20	O	1.610690	0.318425	0.088662
O21	O	1.014232	-0.295447	-0.204840
O22	O	1.514232	0.204553	0.295160
O23	O	0.893857	-0.295397	-0.325252
O24	O	1.393857	0.204603	0.174748
O25	O	1.010342	-0.381664	-0.540715
O26	O	1.510342	0.118336	-0.040715
O27	O	0.889929	-0.381653	-0.420339
O28	O	1.389929	0.118347	0.079661
O29	O	1.105505	-0.295416	-0.536835
O30	O	1.605505	0.204584	-0.036835
O31	O	1.096325	-0.495582	-0.334189
O32	O	1.596325	0.004418	0.165811
O33	O	1.005119	-0.495544	-0.425424
O34	O	1.505119	0.004456	0.074576
C35	C	0.864947	-0.338519	-0.372800
C36	C	1.364947	0.161481	0.127200
C37	C	0.782401	-0.338515	-0.372831
C38	C	1.282401	0.161485	0.127169
C39	C	0.580830	-0.385555	-0.424428
C40	C	1.080830	0.114445	0.075572
C41	C	0.534325	-0.321516	-0.439818
C42	C	1.034325	0.178484	0.060182
C43	C	0.631269	-0.338554	-0.372797
C44	C	1.131269	0.161446	0.127203
C45	C	0.530691	-0.402631	-0.357408
C46	C	1.030691	0.097369	0.142592
C47	C	0.485282	-0.338598	-0.372765
C48	C	0.985282	0.161402	0.127235
C49	C	0.585853	-0.274481	-0.388221
C50	C	1.085853	0.225519	0.111779
C51	C	0.582221	-0.355639	-0.305781
C52	C	1.082221	0.144361	0.194219
C53	C	0.535741	-0.291555	-0.321143
C54	C	1.035741	0.208445	0.178857
C55	C	0.715369	-0.338530	-0.372817
C56	C	1.215369	0.161470	0.127183
C57	C	0.401185	-0.338615	-0.372745
C58	C	0.901185	0.161385	0.127255
C59	C	1.049577	-0.521047	-0.380965
C60	C	1.549577	-0.021047	0.119035
C61	C	1.046086	-0.599112	-0.384495
C62	C	1.546086	-0.099112	0.115505
C63	C	1.091969	-0.635784	-0.338692
C64	C	1.591969	-0.135784	0.161308
C65	C	1.088690	-0.709135	-0.342017
C66	C	1.588690	-0.209135	0.157983
C67	C	1.039524	-0.745813	-0.391142
C68	C	1.539524	-0.245813	0.108858
C69	C	0.993639	-0.709136	-0.436950
C70	C	1.493639	-0.209136	0.063050
C71	C	0.996922	-0.635787	-0.433628
C72	C	1.496922	-0.135787	0.066372
C73	C	1.027236	-0.967282	-0.403548
C74	C	1.527236	-0.467282	0.096452
C75	C	1.023954	-1.040637	-0.406865
C76	C	1.523954	-0.540637	0.093135
C77	C	1.119007	-1.040631	-0.311933
C78	C	1.619007	-0.540631	0.188067
C79	C	1.122282	-0.967280	-0.308612
C80	C	1.622282	-0.467280	0.191388
C81	C	1.076401	-0.930609	-0.354423
C82	C	1.576401	-0.430609	0.145577
C83	C	1.036169	-0.820790	-0.394539
C84	C	1.536169	-0.320790	0.105461
C85	C	1.079759	-0.855634	-0.351028
C86	C	1.579759	-0.355634	0.148972
C87	C	1.251600	-0.338615	-0.372741
C88	C	1.751600	0.161385	0.127259
C89	C	1.334145	-0.338636	-0.372728
C90	C	1.834145	0.161364	0.127272
C91	C	1.057928	-0.338536	-0.566475
C92	C	1.557928	0.161464	-0.066475
C93	C	1.057941	-0.338522	-0.649020
C94	C	1.557941	0.161478	-0.149020
C95	C	1.066269	-0.155374	-0.364560
C96	C	1.566269	0.344626	0.135440
C97	C	1.069837	-0.077309	-0.361062
C98	C	1.569837	0.422691	0.138938
C99	C	1.006232	-0.385360	-0.850578
C100	C	1.506232	0.114640	-0.350578
C101	C	1.073212	-0.402540	-0.900725
C102	C	1.573212	0.097460	-0.400725
C103	C	1.057980	-0.338469	-0.800148
C104	C	1.557980	0.161531	-0.300148
C105	C	0.991037	-0.321269	-0.897082
C106	C	1.491037	0.178731	-0.397082
C107	C	1.058011	-0.338418	-0.946131
C108	C	1.558011	0.161582	-0.446131
C109	C	1.124994	-0.355683	-0.849209
C110	C	1.624994	0.144317	-0.349209
C111	C	1.042775	-0.274382	-0.845561
C112	C	1.542775	0.225618	-0.345561
C113	C	1.109803	-0.291538	-0.895684
C114	C	1.609803	0.208462	-0.395684
C115	C	1.057960	-0.338500	-0.716051
C116	C	1.557960	0.161500	-0.216051
C117	C	1.058038	-0.338387	-1.030226
C118	C	1.558038	0.161613	-0.530226
C119	C	1.057912	-0.338547	-0.179818
C120	C	1.557912	0.161453	0.320182
C121	C	1.058052	-0.338363	-0.097264
C122	C	1.558052	0.161637	0.402736
H123	H	0.603300	-0.370095	-0.249138
H124	H	1.103300	0.129905	0.250862
H125	H	0.989876	-0.937431	-0.440848
H126	H	1.489876	-0.437431	0.059152
O127	O	0.501772	-0.467218	-0.341927
O128	O	1.001772	0.032782	0.158073
C129	C	0.391063	-0.539400	-0.323833
C130	C	0.891063	-0.039400	0.176167
C131	C	0.423713	-0.466226	-0.341382
C132	C	0.923713	0.033774	0.158618
H133	H	0.327948	-0.538618	-0.323371
H134	H	0.827948	-0.038618	0.176629
H135	H	0.409466	-0.579412	-0.367928
H136	H	0.909466	-0.079412	0.132072
H137	H	0.411612	-0.554330	-0.267150
H138	H	0.911612	-0.054330	0.232850
H139	H	0.403178	-0.451230	-0.398045
H140	H	0.903178	0.048770	0.101955
H141	H	0.405314	-0.426257	-0.297242
H142	H	0.905314	0.073743	0.202758
H143	H	0.953610	-0.739005	-0.476951
H144	H	1.453610	-0.239005	0.023049
O145	O	1.192617	-0.373074	-0.824334
O146	O	1.692617	0.126926	-0.324334
C147	C	1.316509	-0.404983	-0.856938
C148	C	1.816509	0.095017	-0.356938
C149	C	1.239970	-0.385279	-0.885210
C150	C	1.739970	0.114721	-0.385210
H151	H	1.354810	-0.414871	-0.906142
H152	H	1.854810	0.085129	-0.406142
H153	H	1.341255	-0.360277	-0.819752
H154	H	1.841255	0.139723	-0.319752
H155	H	1.310104	-0.454442	-0.823982
H156	H	1.810104	0.045558	-0.323982
H157	H	1.246311	-0.335838	-0.918198
H158	H	1.746311	0.164162	-0.418198
H159	H	1.215251	-0.430026	-0.922357
H160	H	1.715251	0.069974	-0.422357
H161	H	1.119793	-0.825769	-0.311034
H162	H	1.619793	-0.325769	0.188966
H163	H	1.153627	-0.251862	-0.915421
H164	H	1.653627	0.248138	-0.415421
O165	O	0.952279	-0.600270	-0.478152
O166	O	1.452279	-0.100270	0.021848
C167	C	0.857695	-0.608013	-0.572702
C168	C	1.357695	-0.108013	-0.072702
C169	C	0.908195	-0.648321	-0.522302
C170	C	1.408195	-0.148321	-0.022302
H171	H	0.822051	-0.646844	-0.608421
H172	H	1.322051	-0.146844	-0.108421
H173	H	0.820368	-0.573730	-0.537071
H174	H	1.320368	-0.073730	-0.037071
H175	H	0.893324	-0.573614	-0.609965
H176	H	1.393324	-0.073614	-0.109965
H177	H	0.872624	-0.682757	-0.485031
H178	H	1.372624	-0.182757	0.014969
H179	H	0.945526	-0.682559	-0.557977
H180	H	1.445526	-0.182559	-0.057977
H181	H	1.029875	-0.220222	-0.821409
H182	H	1.529875	0.279778	-0.321409
O183	O	1.139793	-0.600267	-0.290951
O184	O	1.639793	-0.100267	0.209049
C185	C	1.233693	-0.608011	-0.197112
C186	C	1.733693	-0.108011	0.302888
C187	C	1.179576	-0.648319	-0.251157
C188	C	1.679576	-0.148319	0.248843
H189	H	1.265861	-0.646843	-0.164912
H190	H	1.765861	-0.146843	0.335088
H191	H	1.274091	-0.573646	-0.229639
H192	H	1.774091	-0.073646	0.270361
H193	H	1.201145	-0.573695	-0.156735
H194	H	1.701145	-0.073695	0.343265
H195	H	1.212062	-0.682672	-0.291545
H196	H	1.712062	-0.182672	0.208455
H197	H	1.139178	-0.682639	-0.218581
H198	H	1.639178	-0.182639	0.281419
O199	O	0.923426	-0.304016	-0.922117
O200	O	1.423426	0.195984	-0.422117
C201	C	0.792463	-0.334023	-0.927713
C202	C	1.292463	0.165977	-0.427713
C203	C	0.868985	-0.353625	-0.899302
C204	C	1.368985	0.146375	-0.399302
H205	H	0.748429	-0.374129	-0.909292
H206	H	1.248429	0.125871	-0.409292
H207	H	0.779000	-0.279814	-0.904087
H208	H	1.279000	0.220186	-0.404087
H209	H	0.793320	-0.333639	-0.990846
H210	H	1.293320	0.166361	-0.490846
H211	H	0.868185	-0.354049	-0.836173
H212	H	1.368185	0.145951	-0.336173
H213	H	0.882417	-0.407822	-0.922984
H214	H	1.382417	0.092178	-0.422984
O215	O	0.509066	-0.304270	-0.507355
O216	O	1.009066	0.195730	-0.007355
C217	C	0.402471	-0.284437	-0.582799
C218	C	0.902471	0.215563	-0.082799
C219	C	0.430975	-0.303954	-0.506274
C220	C	0.930975	0.196046	-0.006274
H221	H	0.339332	-0.284190	-0.581956
H222	H	0.839332	0.215810	-0.081956
H223	H	0.426022	-0.230198	-0.596348
H224	H	0.926022	0.269802	-0.096348
H225	H	0.420964	-0.324528	-0.626768
H226	H	0.920964	0.175472	-0.126768
H227	H	0.412493	-0.263911	-0.462255
H228	H	0.912493	0.236089	0.037745
H229	H	0.407429	-0.358211	-0.492789
H230	H	0.907429	0.141789	0.007211
H231	H	0.996136	-0.850661	-0.434535
H232	H	1.496136	-0.350661	0.065465
H233	H	0.600702	-0.425233	-0.468135
H234	H	1.100702	0.074767	0.031865
O235	O	1.133205	-0.744888	-0.297592
O236	O	1.633205	-0.244888	0.202408
C237	C	1.139732	-0.827890	-0.201236
C238	C	1.639732	-0.327890	0.298764
C239	C	1.089195	-0.787424	-0.251448
C240	C	1.589195	-0.287424	0.248552
H241	H	1.104170	-0.862279	-0.163905
H242	H	1.604170	-0.362279	0.336095
H243	H	1.176925	-0.862181	-0.237009
H244	H	1.676925	-0.362181	0.262991
H245	H	1.175520	-0.789124	-0.165584
H246	H	1.675520	-0.289124	0.334416
H247	H	1.053360	-0.826139	-0.287109
H248	H	1.553360	-0.326139	0.212891
H249	H	1.052051	-0.753122	-0.215632
H250	H	1.552051	-0.253122	0.284368
O251	O	0.614654	-0.209886	-0.403838
O252	O	1.114654	0.290114	0.096162
C253	C	0.725251	-0.137384	-0.421330
C254	C	1.225251	0.362616	0.078670
C255	C	0.692732	-0.210571	-0.403649
C256	C	1.192732	0.289429	0.096351
H257	H	0.788381	-0.137909	-0.421167
H258	H	1.288381	0.362091	0.078833
H259	H	0.705162	-0.122730	-0.478279
H260	H	1.205162	0.377270	0.021721
H261	H	0.706276	-0.097313	-0.377576
H262	H	1.206276	0.402687	0.122424
H263	H	0.711693	-0.250690	-0.447355
H264	H	1.211693	0.249310	0.052645
H265	H	0.712817	-0.225165	-0.346679
H266	H	1.212817	0.274835	0.153321
H267	H	0.516012	-0.251781	-0.277465
H268	H	1.016012	0.248219	0.222535
O269	O	1.163661	-1.076282	-0.267550
O270	O	1.663661	-0.576282	0.232450
C271	C	1.260210	-1.159063	-0.261382
C272	C	1.760210	-0.659063	0.238618
C273	C	1.209688	-1.118722	-0.311729
C274	C	1.709688	-0.618722	0.188271
H275	H	1.297425	-1.193397	-0.297080
H276	H	1.797425	-0.693397	0.202920
H277	H	1.295968	-1.120277	-0.225720
H278	H	1.795968	-0.620277	0.274280
H279	H	1.224596	-1.193417	-0.224063
H280	H	1.724596	-0.693417	0.275937
H281	H	1.245245	-1.084366	-0.349093
H282	H	1.745245	-0.584366	0.150907
H283	H	1.173926	-1.157546	-0.347340
H284	H	1.673926	-0.657546	0.152660
O285	O	0.954148	-0.432820	-0.826903
O286	O	1.454148	0.067180	-0.326903
C287	C	0.911351	-0.553984	-0.828282
C288	C	1.411351	-0.053984	-0.328282
C289	C	0.970390	-0.500312	-0.855133
C290	C	1.470390	-0.000312	-0.355133
H291	H	0.924453	-0.608561	-0.851107
H292	H	1.424453	-0.108561	-0.351107
H293	H	0.911461	-0.553270	-0.765097
H294	H	1.411461	-0.053270	-0.265097
H295	H	0.854395	-0.539842	-0.848808
H296	H	1.354395	-0.039842	-0.348808
H297	H	1.027375	-0.514417	-0.834661
H298	H	1.527375	-0.014417	-0.334661
H299	H	0.970214	-0.501035	-0.918317
H300	H	1.470214	-0.001035	-0.418317
H301	H	1.086091	-0.456716	-0.924860
H302	H	1.586091	0.043284	-0.424860
O303	O	1.170115	-0.931761	-0.260880
O304	O	1.670115	-0.431761	0.239120
C305	C	1.264026	-0.939498	-0.167050
C306	C	1.764026	-0.439498	0.332950
C307	C	1.209902	-0.979810	-0.221085
C308	C	1.709902	-0.479810	0.278915
H309	H	1.296198	-0.978328	-0.134851
H310	H	1.796198	-0.478328	0.365149
H311	H	1.304421	-0.905137	-0.199586
H312	H	1.804421	-0.405137	0.300414
H313	H	1.231484	-0.905179	-0.126673
H314	H	1.731484	-0.405179	0.373327
H315	H	1.242383	-1.014168	-0.261475
H316	H	1.742383	-0.514168	0.238525
H317	H	1.169507	-1.014127	-0.188502
H318	H	1.669507	-0.514127	0.311498
O319	O	0.976178	-1.076159	-0.454657
O320	O	1.476178	-0.576159	0.045343
C321	C	0.882224	-1.068429	-0.548446
C322	C	1.382224	-0.568429	-0.048446
C323	C	0.936305	-1.028113	-0.494372
C324	C	1.436305	-0.528113	0.005628
H325	H	0.849962	-1.029602	-0.580559
H326	H	1.349962	-0.529602	-0.080559
H327	H	0.914732	-1.102709	-0.588895
H328	H	1.414732	-0.602709	-0.088895
H329	H	0.841904	-1.102830	-0.515873
H330	H	1.341904	-0.602830	-0.015873
H331	H	0.976638	-0.993674	-0.526883
H332	H	1.476638	-0.493674	-0.026883
H333	H	0.903750	-0.993878	-0.453923
H334	H	1.403750	-0.493878	0.046077
