data_functionalizedCrystal
_audit_creation_method	'MofGen! by Chris Wilmer'
_symmetry_space_group_name_H-M	'P1'
_symmetry_Int_Tables_number	1
_symmetry_cell_setting	triclinic
loop_
_symmetry_equiv_pos_as_xyz
  x,y,z
_cell_length_a	11.169417
_cell_length_b	14.908520
_cell_length_c	11.169409
_cell_angle_alpha	93.260332
_cell_angle_beta	89.980176
_cell_angle_gamma	93.321403
loop_
_atom_site_label
_atom_site_type_symbol
_atom_site_fract_x
_atom_site_fract_y
_atom_site_fract_z
Zn1	Zn	1.807298	-0.359063	-0.706060
Zn2	Zn	1.795562	-0.509955	-0.516941
Zn3	Zn	1.606580	-0.359118	-0.505398
Zn4	Zn	1.594972	-0.509881	-0.717580
O5	O	1.701103	-0.434504	-0.611495
O6	O	1.973691	-0.379086	-0.680982
O7	O	1.770440	-0.489999	-0.347464
O8	O	1.642975	-0.232866	-0.522365
O9	O	1.965068	-0.489946	-0.542037
O10	O	1.790442	-0.232826	-0.669790
O11	O	1.631595	-0.379180	-0.338984
O12	O	1.437091	-0.379109	-0.533535
O13	O	1.623191	-0.489821	-0.883997
O14	O	1.428563	-0.489874	-0.689424
O15	O	1.779186	-0.379015	-0.875534
O16	O	1.759184	-0.636189	-0.553207
O17	O	1.611811	-0.636135	-0.700616
C18	C	1.389279	-0.434490	-0.611478
C19	C	1.255878	-0.434506	-0.611501
C20	C	1.682997	-0.668895	-0.629440
C21	C	1.675361	-0.769169	-0.637158
C22	C	1.814629	-0.957589	-0.498287
C23	C	1.807458	-1.051805	-0.505534
C24	C	1.653855	-1.051819	-0.658905
C25	C	1.661026	-0.957603	-0.651658
C26	C	1.741414	-0.910491	-0.571344
C27	C	1.748578	-0.816274	-0.564092
C28	C	1.594982	-0.816289	-0.717468
C29	C	1.587811	-0.910505	-0.724716
C30	C	2.014144	-0.434518	-0.611512
C31	C	2.147544	-0.434524	-0.611519
C32	C	1.701203	-0.434404	-0.924530
C33	C	1.701245	-0.434361	-1.057926
C34	C	1.719313	-0.199197	-0.593505
C35	C	1.727073	-0.098923	-0.585839
C36	C	1.701078	-0.434539	-0.299673
C37	C	1.701287	-0.434327	-0.166257
H38	H	1.814031	-0.777916	-0.498694
C39	C	1.565436	-1.103652	-0.747236
H40	H	1.571651	-1.166508	-0.741080
H41	H	1.584124	-1.088154	-0.826702
H42	H	1.485972	-1.088281	-0.728401
H43	H	1.880076	-0.919230	-0.432884
H44	H	1.522365	-0.948876	-0.790107
H45	H	1.867079	-1.090149	-0.446045
H46	H	1.535362	-0.777931	-0.776954
