data_functionalizedCrystal
_audit_creation_method	'MofGen! by Chris Wilmer'
_symmetry_space_group_name_H-M	'P1'
_symmetry_Int_Tables_number	1
_symmetry_cell_setting	triclinic
loop_
_symmetry_equiv_pos_as_xyz
  x,y,z
_cell_length_a	10.654550
_cell_length_b	14.185569
_cell_length_c	10.654549
_cell_angle_alpha	103.283648
_cell_angle_beta	84.484854
_cell_angle_gamma	76.712755
loop_
_atom_site_label
_atom_site_type_symbol
_atom_site_fract_x
_atom_site_fract_y
_atom_site_fract_z
O1	O	1.639625	0.083342	0.204600
O2	O	1.274141	0.083360	0.221412
O3	O	1.465288	0.083347	0.030265
O4	O	1.448478	0.083356	0.395747
O5	O	1.521755	-0.083492	-0.026195
O6	O	1.330607	-0.083478	0.164952
O7	O	1.696092	-0.083497	0.148140
Cu8	Cu	1.518506	-0.098721	0.151391
Cu9	Cu	1.451727	0.098585	0.218161
O10	O	1.504945	-0.083483	0.339287
C11	C	1.255575	-0.000057	0.191949
C12	C	1.116130	-0.000050	0.188259
N13	N	1.565483	-0.237496	0.104427
C14	C	1.036644	-0.000050	0.300801
C15	C	0.905629	-0.000067	0.297318
C16	C	0.933597	-0.000081	0.068744
C17	C	1.064612	-0.000070	0.072226
C18	C	1.266740	-0.605124	0.403040
C19	C	1.302333	-0.710148	0.367474
C20	C	1.471629	-0.710121	0.198277
C21	C	1.436045	-0.605095	0.233825
C22	C	1.333601	-0.552605	0.336208
C23	C	1.502907	-0.552576	0.166993
C24	C	1.467330	-0.447559	0.202543
C25	C	1.364892	-0.395061	0.304924
C26	C	1.298024	-0.447588	0.371758
C27	C	1.605357	-0.605068	0.064616
C28	C	1.672218	-0.552549	-0.002216
C29	C	1.636636	-0.447530	0.033328
C30	C	1.534198	-0.395032	0.135709
C31	C	1.703504	-0.395003	-0.033506
C32	C	1.667927	-0.289986	0.002044
C33	C	1.498622	-0.290015	0.171259
C34	C	1.714657	-0.000077	0.177604
C35	C	1.854100	-0.000078	0.181296
C36	C	1.492287	-0.000072	-0.044762
C37	C	1.488594	-0.000068	-0.184205
N38	N	1.404760	0.237359	0.265115
C39	C	1.597657	-0.000067	-0.394719
C40	C	1.601138	-0.000075	-0.263701
C41	C	1.372565	-0.000064	-0.235735
C42	C	1.369088	-0.000063	-0.366753
C43	C	1.477945	-0.000062	0.414315
C44	C	1.481636	-0.000059	0.553760
H45	H	0.840917	-0.000069	0.388961
O46	O	1.814006	-0.451629	-0.143916
H47	H	1.854531	-0.397464	-0.184410
H48	H	1.689301	-0.000064	-0.459434
O49	O	1.150360	-0.000078	-0.049166
H50	H	1.108909	0.067920	-0.081629
O51	O	1.230216	-0.766797	0.439566
H52	H	1.184939	-0.814658	0.369932
O53	O	1.187501	-0.390980	0.482167
H54	H	1.109807	-0.343160	0.444895
O55	O	1.726269	-0.000067	-0.208120
H56	H	1.803936	-0.000053	-0.285404
H57	H	0.891637	-0.000103	-0.025728
H58	H	1.415192	-0.247275	0.254620
H59	H	1.335931	-0.309549	0.333871
H60	H	1.183310	-0.562384	0.486402
O61	O	1.582116	-0.766736	0.087849
H62	H	1.595619	-0.848585	0.074349
O63	O	1.251173	-0.000059	-0.150003
H64	H	1.273077	-0.000051	-0.050237
H65	H	1.274605	-0.000061	-0.408703
H66	H	1.634324	-0.690580	0.035680
O67	O	1.092224	-0.000049	0.425937
H68	H	1.014941	-0.000065	0.503604
H69	H	1.755633	-0.595298	-0.085574
H70	H	1.722375	-0.247224	-0.052377
