data_functionalizedCrystal
_audit_creation_method	'MofGen! by Chris Wilmer'
_symmetry_space_group_name_H-M	'P1'
_symmetry_Int_Tables_number	1
_symmetry_cell_setting	triclinic
loop_
_symmetry_equiv_pos_as_xyz
  x,y,z
_cell_length_a	16.974800
_cell_length_b	11.026607
_cell_length_c	16.053802
_cell_angle_alpha	93.134017
_cell_angle_beta	91.074188
_cell_angle_gamma	95.962169
loop_
_atom_site_label
_atom_site_type_symbol
_atom_site_fract_x
_atom_site_fract_y
_atom_site_fract_z
O1	O	1.071034	0.154760	0.002968
O2	O	1.404367	0.488093	0.336301
O3	O	1.737701	0.821427	0.669634
O4	O	0.844209	0.173345	-0.012366
O5	O	1.177543	0.506678	0.320968
O6	O	1.510876	0.840012	0.654301
O7	O	0.938822	-0.012661	-0.005967
O8	O	1.272156	0.320673	0.327367
O9	O	1.605489	0.654006	0.660700
O10	O	0.976421	0.340766	-0.003431
O11	O	1.309754	0.674099	0.329902
O12	O	1.643087	1.007433	0.663236
O13	O	0.933609	-0.002465	0.132540
O14	O	1.266942	0.330869	0.465873
O15	O	1.600275	0.664202	0.799206
O16	O	0.838995	0.183541	0.126141
O17	O	1.172329	0.516874	0.459474
O18	O	1.505662	0.850208	0.792807
O19	O	1.065820	0.164956	0.141474
O20	O	1.399154	0.498289	0.474807
O21	O	1.732487	0.831623	0.808141
Zn22	Zn	0.951580	0.175867	0.155798
Zn23	Zn	1.284913	0.509201	0.489132
Zn24	Zn	1.618247	0.842534	0.822465
Zn25	Zn	0.958449	0.162434	-0.026690
Zn26	Zn	1.291783	0.495767	0.306644
Zn27	Zn	1.625116	0.829100	0.639977
O28	O	0.971207	0.350962	0.135075
O29	O	1.304540	0.684295	0.468408
O30	O	1.637874	1.017629	0.801742
C31	C	0.812112	0.177550	0.054894
C32	C	1.145446	0.510883	0.388227
C33	C	1.478779	0.844216	0.721561
C34	C	0.724240	0.174872	0.048954
C35	C	1.057573	0.508206	0.382287
C36	C	1.390907	0.841539	0.715621
C37	C	0.680120	0.179170	0.121665
C38	C	1.013453	0.512503	0.454998
C39	C	1.346786	0.845836	0.788332
C40	C	0.597553	0.176635	0.116086
C41	C	0.930886	0.509968	0.449419
C42	C	1.264220	0.843302	0.782752
C43	C	0.559109	0.169812	0.037795
C44	C	0.892442	0.503145	0.371128
C45	C	1.225775	0.836478	0.704462
C46	C	0.603235	0.165511	-0.034922
C47	C	0.936568	0.498844	0.298412
C48	C	1.269901	0.832177	0.631745
C49	C	0.685799	0.168037	-0.029342
C50	C	1.019133	0.501370	0.303992
C51	C	1.352466	0.834703	0.637325
C52	C	0.312481	0.161653	0.013011
C53	C	0.645814	0.494986	0.346344
C54	C	0.979147	0.828320	0.679677
C55	C	0.229910	0.159131	0.007436
C56	C	0.563243	0.492464	0.340770
C57	C	0.896577	0.825798	0.674103
C58	C	0.224234	0.170253	0.158444
C59	C	0.557567	0.503587	0.491778
C60	C	0.890900	0.836920	0.825111
C61	C	0.306801	0.172786	0.164017
C62	C	0.640134	0.506119	0.497351
C63	C	0.973467	0.839453	0.830684
C64	C	0.350919	0.168478	0.091301
C65	C	0.684253	0.501812	0.424634
C66	C	1.017586	0.835145	0.757968
N67	N	0.474712	0.167225	0.032090
N68	N	0.808046	0.500558	0.365424
N69	N	1.141379	0.833891	0.698757
N70	N	0.435313	0.171057	0.097006
N71	N	0.768647	0.504390	0.430340
N72	N	1.101980	0.837723	0.763673
C73	C	0.929279	-0.052796	0.062817
C74	C	1.262613	0.280537	0.396150
C75	C	1.595946	0.613871	0.729483
C76	C	0.908603	-0.187577	0.061416
C77	C	1.241936	0.145756	0.394749
C78	C	1.575269	0.479090	0.728083
C79	C	0.965695	-0.261199	0.065274
C80	C	1.299029	0.072135	0.398607
C81	C	1.632362	0.405468	0.731941
C82	C	0.944326	-0.400502	0.063826
C83	C	1.277659	-0.067169	0.397160
C84	C	1.610993	0.266165	0.730493
C85	C	1.097917	0.160752	0.074213
C86	C	1.431250	0.494085	0.407546
C87	C	1.764584	0.827418	0.740879
C88	C	1.185790	0.163428	0.080147
C89	C	1.519123	0.496762	0.413481
C90	C	1.852456	0.830095	0.746814
C91	C	0.980750	0.391097	0.066290
C92	C	1.314083	0.724431	0.399623
C93	C	1.647417	1.057764	0.732957
C94	C	1.001427	0.525878	0.067685
C95	C	1.334760	0.859211	0.401019
C96	C	1.668094	1.192544	0.734352
N97	N	0.946898	0.185035	0.280342
N98	N	1.280231	0.518368	0.613675
N99	N	1.613564	0.851702	0.947009
N100	N	0.963137	0.153257	-0.151233
N101	N	1.296470	0.486590	0.182100
N102	N	1.629803	0.819923	0.515434
C103	C	0.987178	0.105917	0.326760
C104	C	1.320512	0.439251	0.660093
C105	C	1.653845	0.772584	0.993427
C106	C	0.983912	0.112342	0.413946
C107	C	1.317245	0.445675	0.747279
C108	C	1.650579	0.779008	1.080613
C109	C	0.940369	0.197890	0.454712
C110	C	1.273702	0.531223	0.788046
C111	C	1.607035	0.864557	1.121379
C112	C	0.900083	0.277011	0.408288
C113	C	1.233416	0.610344	0.741621
C114	C	1.566750	0.943678	1.074954
C115	C	0.903345	0.270580	0.321103
C116	C	1.236679	0.603913	0.654436
C117	C	1.570012	0.937247	0.987770
C118	C	0.926113	0.225947	0.715158
C119	C	1.259447	0.559280	1.048491
C120	C	1.592780	0.892613	1.381824
C121	C	0.922856	0.232374	0.802349
C122	C	1.256189	0.565708	1.135682
C123	C	1.589523	0.899041	1.469015
C124	C	1.006684	0.067703	0.808001
C125	C	1.340017	0.401036	1.141334
C126	C	1.673351	0.734369	1.474668
C127	C	1.009947	0.061284	0.720815
C128	C	1.343280	0.394617	1.054148
C129	C	1.676613	0.727951	1.387481
C130	C	0.969657	0.140401	0.674398
C131	C	1.302991	0.473734	1.007731
C132	C	1.636324	0.807067	1.341064
N133	N	0.937031	0.204461	0.543830
N134	N	1.270364	0.537795	0.877164
N135	N	1.603697	0.871128	1.210497
N136	N	0.972991	0.133823	0.585281
N137	N	1.306324	0.467156	0.918614
N138	N	1.639658	0.800489	1.251947
H139	H	0.348392	0.158141	-0.046200
H140	H	0.681725	0.491475	0.287133
H141	H	1.015059	0.824808	0.620466
F142	F	0.860470	0.354785	0.271702
F143	F	1.193803	0.688118	0.605036
F144	F	1.527136	1.021452	0.938369
H145	H	0.571926	0.159946	-0.098668
H146	H	0.905260	0.493280	0.234666
H147	H	1.238593	0.826613	0.567999
H148	H	0.338096	0.178337	0.227770
H149	H	0.671429	0.511670	0.561103
H150	H	1.004762	0.845003	0.894437
H151	H	0.864624	0.346663	0.441484
H152	H	1.197958	0.679996	0.774818
H153	H	1.531291	1.013329	1.108151
H154	H	1.045403	-0.008376	0.687625
H155	H	1.378736	0.324957	1.020958
H156	H	1.712070	0.658290	1.354291
H157	H	0.879623	-0.440597	0.059447
H158	H	1.212956	-0.107263	0.392780
H159	H	1.546289	0.226070	0.726114
F160	F	0.721028	0.186440	0.204994
F161	F	1.054361	0.519773	0.538327
F162	F	1.387695	0.853107	0.871660
H163	H	0.188304	0.173758	0.217646
H164	H	0.521637	0.507092	0.550979
H165	H	0.854970	0.840425	0.884312
F166	F	1.050264	-0.208793	0.070986
F167	F	1.383597	0.124541	0.404319
F168	F	1.716931	0.457874	0.737653
H169	H	0.561632	0.180114	0.175295
H170	H	0.894966	0.513447	0.508628
H171	H	1.228299	0.846781	0.841962
H172	H	0.721722	0.164540	-0.088551
H173	H	1.055055	0.497873	0.244783
H174	H	1.388388	0.831206	0.578116
H175	H	1.066133	-0.434034	0.071997
H176	H	1.399467	-0.100701	0.405330
H177	H	1.732800	0.232632	0.738663
F178	F	1.033528	0.014870	0.283382
F179	F	1.366862	0.348203	0.616716
F180	F	1.700195	0.681536	0.950049
F181	F	0.188997	0.151872	-0.075896
F182	F	0.522330	0.485205	0.257438
F183	F	0.855664	0.818538	0.590771
H184	H	0.843903	-0.227677	0.057037
H185	H	1.177237	0.105656	0.390370
H186	H	1.510570	0.438989	0.723703
F187	F	1.026782	0.028135	0.463348
F188	F	1.360115	0.361468	0.796681
F189	F	1.693449	0.694801	1.130015
F190	F	1.049558	-0.016496	0.857406
F191	F	1.382891	0.316837	1.190740
F192	F	1.716224	0.650170	1.524073
F193	F	0.876509	0.323435	0.845730
F194	F	1.209843	0.656768	1.179063
F195	F	1.543176	0.990101	1.512396
H196	H	0.893310	0.290369	0.677372
H197	H	1.226643	0.623702	1.010705
H198	H	1.559977	0.957036	1.344038
