data_functionalizedCrystal
_audit_creation_method	'MofGen! by Chris Wilmer'
_symmetry_space_group_name_H-M	'P1'
_symmetry_Int_Tables_number	1
_symmetry_cell_setting	triclinic
loop_
_symmetry_equiv_pos_as_xyz
  x,y,z
_cell_length_a	18.101398
_cell_length_b	12.645035
_cell_length_c	12.645323
_cell_angle_alpha	90.121819
_cell_angle_beta	89.972190
_cell_angle_gamma	90.145098
loop_
_atom_site_label
_atom_site_type_symbol
_atom_site_fract_x
_atom_site_fract_y
_atom_site_fract_z
Zn1	Zn	1.131536	-0.422177	-0.600672
Zn2	Zn	1.131168	-0.599470	-0.423866
Zn3	Zn	1.007687	-0.422201	-0.423400
Zn4	Zn	1.007389	-0.599389	-0.601065
O5	O	1.069445	-0.510809	-0.512251
O6	O	1.235120	-0.445719	-0.577248
O7	O	1.114758	-0.575999	-0.275457
O8	O	1.024395	-0.273846	-0.446557
O9	O	1.234849	-0.575975	-0.447349
O10	O	1.115386	-0.273829	-0.576797
O11	O	1.024038	-0.445760	-0.275115
O12	O	0.904015	-0.445682	-0.446938
O13	O	1.023887	-0.575838	-0.749360
O14	O	0.903796	-0.575861	-0.577467
O15	O	1.115097	-0.445641	-0.749071
O16	O	1.114469	-0.747811	-0.447731
O17	O	1.023530	-0.747751	-0.577918
C18	C	0.877034	-0.510766	-0.512195
C19	C	0.794720	-0.510773	-0.512197
C20	C	1.068947	-0.786247	-0.512941
C21	C	1.068802	-0.904080	-0.513271
C22	C	1.069500	-0.510727	-0.788756
C23	C	1.069523	-0.510692	-0.906586
C24	C	0.495629	-0.510840	-0.512286
C25	C	0.527068	-0.428525	-0.430559
C26	C	0.612686	-0.428746	-0.430212
C27	C	0.644012	-0.510806	-0.512242
C28	C	0.612731	-0.622481	-0.482012
C29	C	0.527086	-0.622024	-0.481444
C30	C	0.527290	-0.482450	-0.624437
C31	C	0.612944	-0.479963	-0.623818
C32	C	0.727871	-0.510794	-0.512218
C33	C	0.411770	-0.510859	-0.512307
C34	C	1.262607	-0.510853	-0.512307
C35	C	1.344921	-0.510872	-0.512331
C36	C	1.069965	-0.234296	-0.511581
C37	C	1.070186	-0.116463	-0.511296
C38	C	1.126145	0.051088	-0.595076
C39	C	1.127169	-0.071452	-0.593696
C40	C	1.091065	-0.070339	-0.400019
C41	C	1.090681	0.052247	-0.401636
C42	C	0.990735	0.049092	-0.541342
C43	C	0.991947	-0.073522	-0.542668
C44	C	1.011967	-0.592213	-1.074331
C45	C	1.012116	-0.592617	-0.951772
C46	C	1.147506	-0.541021	-0.951193
C47	C	1.147190	-0.541532	-1.073793
C48	C	1.049835	-0.398387	-1.073494
C49	C	1.048093	-0.399060	-0.950889
C50	C	1.069433	-0.510814	-0.236821
C51	C	1.069554	-0.510551	-0.118991
H52	H	0.633847	-0.345934	-0.449126
C53	C	0.933987	-0.566973	-0.911027
N54	N	0.875137	-0.547662	-0.880343
C55	C	1.167813	0.092553	-0.369371
N56	N	1.225911	0.122906	-0.345069
H57	H	1.164531	-0.622156	-0.920715
C58	C	1.036748	0.092409	-0.316401
N59	N	0.996137	0.122655	-0.252188
C60	C	0.499998	-0.654536	-0.370690
N61	N	0.479598	-0.679020	-0.287265
C62	C	1.036923	-0.109646	-0.314650
N63	N	0.996142	-0.139254	-0.250352
C64	C	0.933602	-0.566814	-1.114063
N65	N	0.874575	-0.547682	-1.143997
H66	H	1.024842	-0.674845	-1.105363
H67	H	1.112857	0.079392	-0.678433
C68	C	0.499806	-0.563441	-0.706699
N69	N	0.479101	-0.624446	-0.768651
H70	H	1.147918	-0.099804	-0.375159
C71	C	0.974359	-0.361047	-1.115127
N72	N	0.917506	-0.332936	-1.146484
H73	H	0.506275	-0.685431	-0.538390
H74	H	0.505488	-0.447081	-0.347933
H75	H	0.634272	-0.535547	-0.687950
C76	C	1.169792	-0.652305	-1.112734
N77	N	1.186814	-0.735743	-1.142059
H78	H	0.976173	-0.103809	-0.624591
C79	C	1.205861	-0.109462	-0.567844
N80	N	1.265135	-0.138090	-0.548365
H81	H	0.971263	0.078776	-0.621667
H82	H	0.947365	-0.104262	-0.486860
H83	H	1.191542	-0.484636	-1.103331
C84	C	0.640132	-0.707562	-0.559917
N85	N	0.660775	-0.771645	-0.618594
C86	C	0.641601	-0.655568	-0.372454
N87	N	0.663343	-0.680482	-0.289932
H88	H	1.183674	0.083076	-0.576738
H89	H	1.191555	-0.483423	-0.921916
C90	C	0.970580	-0.368134	-0.911445
N91	N	0.912203	-0.344836	-0.881714
C92	C	0.498312	-0.374345	-0.661640
N93	N	0.476488	-0.292915	-0.689647
H94	H	0.506619	-0.345460	-0.449262
H95	H	1.114081	-0.102703	-0.676225
H96	H	1.025119	-0.675769	-0.922672
H97	H	1.086987	-0.334999	-0.920109
H98	H	0.948039	0.078071	-0.481726
C99	C	1.106503	-0.316193	-1.112483
N100	N	1.149189	-0.254293	-1.141853
H101	H	0.633109	-0.447514	-0.347103
H102	H	0.633408	-0.397782	-0.646618
