data_functionalizedCrystal
_audit_creation_method	'MofGen! by Chris Wilmer'
_symmetry_space_group_name_H-M	'P1'
_symmetry_Int_Tables_number	1
_symmetry_cell_setting	triclinic
loop_
_symmetry_equiv_pos_as_xyz
  x,y,z
_cell_length_a	14.519731
_cell_length_b	15.944551
_cell_length_c	13.596369
_cell_angle_alpha	89.993059
_cell_angle_beta	89.994584
_cell_angle_gamma	83.593795
loop_
_atom_site_label
_atom_site_type_symbol
_atom_site_fract_x
_atom_site_fract_y
_atom_site_fract_z
O1	O	1.223664	0.110194	-0.081796
O2	O	1.723664	0.610194	0.418204
O3	O	0.955167	0.123142	-0.081797
O4	O	1.455167	0.623142	0.418203
O5	O	1.096747	-0.005596	-0.081788
O6	O	1.596747	0.494404	0.418212
O7	O	1.082083	0.238932	-0.081805
O8	O	1.582083	0.738932	0.418195
O9	O	1.096733	-0.005602	0.081795
O10	O	1.596733	0.494398	0.581795
O11	O	0.955153	0.123135	0.081785
O12	O	1.455153	0.623135	0.581785
O13	O	1.223650	0.110187	0.081787
O14	O	1.723650	0.610187	0.581787
Zn15	Zn	1.089399	0.116660	0.107759
Zn16	Zn	1.589399	0.616660	0.607759
Zn17	Zn	1.089417	0.116669	-0.107769
Zn18	Zn	1.589417	0.616669	0.392231
O19	O	1.082069	0.238925	0.081777
O20	O	1.582069	0.738925	0.581777
C21	C	0.920801	0.122532	-0.000006
C22	C	1.420801	0.622532	0.499994
C23	C	0.818424	0.120714	-0.000007
C24	C	1.318424	0.620714	0.499993
C25	C	0.735283	0.119237	-0.000010
C26	C	1.235283	0.619237	0.499990
C27	C	0.630977	0.117391	-0.000011
C28	C	1.130977	0.617391	0.499989
C29	C	0.547841	0.115926	-0.000010
C30	C	1.047841	0.615926	0.499990
C31	C	0.443528	0.114080	-0.000012
C32	C	0.943528	0.614080	0.499988
C33	C	1.096131	-0.036894	0.000004
C34	C	1.596131	0.463106	0.500004
C35	C	1.094306	-0.130143	0.000005
C36	C	1.594306	0.369857	0.500005
C37	C	1.002186	-0.345139	-0.000010
C38	C	1.502186	0.154861	0.499990
C39	C	1.044957	-0.406095	0.080647
C40	C	1.544957	0.093905	0.580647
C41	C	1.091005	-0.300874	-0.000003
C42	C	1.591005	0.199126	0.499997
C43	C	1.044991	-0.406072	-0.080633
C44	C	1.544991	0.093928	0.419367
C45	C	1.087809	-0.465791	-0.000015
C46	C	1.587809	0.034209	0.499985
C47	C	1.133800	-0.360601	0.080720
C48	C	1.633800	0.139399	0.580720
C49	C	1.133822	-0.360571	-0.080632
C50	C	1.633822	0.139429	0.419368
C51	C	1.176658	-0.421509	0.000044
C52	C	1.676658	0.078491	0.500044
C53	C	1.092843	-0.205868	0.000004
C54	C	1.592843	0.294132	0.500004
C55	C	1.085977	-0.560795	-0.000015
C56	C	1.585977	-0.060795	0.499985
C57	C	1.258015	0.110797	-0.000006
C58	C	1.758015	0.610797	0.499994
C59	C	1.360392	0.112615	-0.000012
C60	C	1.860392	0.612615	0.499988
C61	C	1.082685	0.270223	-0.000016
C62	C	1.582685	0.770223	0.499984
C63	C	1.084510	0.363472	-0.000023
C64	C	1.584510	0.863472	0.499977
N65	N	1.089393	0.116654	0.254851
N66	N	1.589393	0.616654	0.754851
N67	N	1.089431	0.116669	-0.254861
N68	N	1.589431	0.616669	0.245139
C69	C	1.089416	0.116670	0.656141
C70	C	1.589416	0.616670	1.156141
C71	C	1.089407	0.116668	0.544490
C72	C	1.589407	0.616668	1.044490
C73	C	1.089405	0.116662	0.455500
C74	C	1.589405	0.616662	0.955500
C75	C	1.089395	0.116659	0.343841
C76	C	1.589395	0.616659	0.843841
H77	H	0.928462	-0.311944	0.000070
H78	H	1.428462	0.188056	0.500070
C79	C	0.994197	-0.433346	0.172764
C80	C	1.494197	0.066654	0.672764
N81	N	0.955959	-0.453869	0.242142
N82	N	1.455959	0.046131	0.742142
C83	C	1.276339	-0.466162	0.000108
C84	C	1.776339	0.033838	0.500108
N85	N	1.351417	-0.499798	0.000163
N86	N	1.851417	0.000202	0.500163
H87	H	1.171363	-0.340381	-0.148824
H88	H	1.671363	0.159619	0.351176
H89	H	1.007419	-0.426203	-0.148827
H90	H	1.507419	0.073797	0.351173
H91	H	1.171329	-0.340556	0.148984
H92	H	1.671329	0.159444	0.648984
