data_functionalizedCrystal
_audit_creation_method	'MofGen! by Chris Wilmer'
_symmetry_space_group_name_H-M	'P1'
_symmetry_Int_Tables_number	1
_symmetry_cell_setting	triclinic
loop_
_symmetry_equiv_pos_as_xyz
  x,y,z
_cell_length_a	14.971491
_cell_length_b	10.654549
_cell_length_c	13.448316
_cell_angle_alpha	89.994518
_cell_angle_beta	89.991393
_cell_angle_gamma	84.051577
loop_
_atom_site_label
_atom_site_type_symbol
_atom_site_fract_x
_atom_site_fract_y
_atom_site_fract_z
O1	O	1.187837	0.163690	-0.082732
O2	O	0.927545	0.183281	-0.082724
O3	O	1.063673	-0.009317	-0.082725
O4	O	1.051709	0.356289	-0.082732
O5	O	1.063656	-0.009329	0.082659
O6	O	0.927527	0.183270	0.082659
O7	O	1.187820	0.163678	0.082652
Cu8	Cu	1.057672	0.173473	0.097756
Cu9	Cu	1.057693	0.173487	-0.097829
O10	O	1.051691	0.356277	0.082652
C11	C	0.894207	0.182398	-0.000032
C12	C	0.794895	0.179769	-0.000029
C13	C	0.367137	0.168431	-0.090202
C14	C	0.460451	0.170897	-0.090198
C15	C	0.507094	0.172132	-0.000044
C16	C	0.460420	0.170888	0.090112
C17	C	0.367109	0.168412	0.090107
C18	C	0.654910	0.176051	0.090116
C19	C	0.748227	0.178529	0.090121
C20	C	0.748252	0.178535	-0.090190
C21	C	0.654941	0.176060	-0.090195
C22	C	0.608273	0.174818	-0.000038
C23	C	1.062785	-0.056112	-0.000034
C24	C	1.060154	-0.195527	-0.000037
C25	C	1.217994	-0.487200	-0.000037
C26	C	1.300622	-0.436548	-0.000037
C27	C	1.303097	-0.305556	-0.000038
C28	C	1.222935	-0.225213	-0.000036
C29	C	1.140307	-0.275865	-0.000036
C30	C	1.137841	-0.406862	-0.000038
C31	C	0.977526	-0.246179	-0.000037
C32	C	0.975049	-0.377171	-0.000042
C33	C	0.897364	-0.165836	-0.000035
C34	C	0.814734	-0.216488	-0.000041
C35	C	0.812262	-0.347489	-0.000041
C36	C	0.892421	-0.427823	-0.000042
C37	C	1.221158	0.164561	-0.000043
C38	C	1.320469	0.167190	-0.000053
C39	C	1.052579	0.403071	-0.000041
C40	C	1.055211	0.542486	-0.000044
N41	N	1.057664	0.173462	0.235321
N42	N	1.057707	0.173487	-0.235393
C43	C	1.117961	0.088214	0.287361
C44	C	1.117967	0.088213	0.391464
C45	C	1.057679	0.173467	0.443525
C46	C	0.997376	0.258719	0.391478
C47	C	0.997366	0.258713	0.287376
C48	C	0.997401	0.258727	0.608458
C49	C	0.997411	0.258735	0.712566
C50	C	1.118001	0.088228	0.712546
C51	C	1.117992	0.088222	0.608444
C52	C	1.057689	0.173475	0.556404
H53	H	0.616966	0.175063	-0.163606
O54	O	1.383436	-0.256554	-0.000086
C55	C	1.453659	-0.355547	-0.000060
H56	H	1.428045	-0.444575	-0.031366
H57	H	1.511300	-0.328072	-0.048080
H58	H	1.478416	-0.374042	0.079282
O59	O	1.225499	-0.097998	-0.000073
C60	C	1.315617	-0.070518	-0.000039
H61	H	1.360288	-0.154406	-0.031351
H62	H	1.322224	0.016225	-0.048048
H63	H	1.337210	-0.051153	0.079307
O64	O	1.176579	0.005584	0.442131
C65	C	1.232185	0.072986	0.502307
H66	H	1.197163	0.171171	0.517896
H67	H	1.246017	0.020609	0.575516
H68	H	1.298339	0.081679	0.462171
H69	H	0.948284	0.328130	0.433872
H70	H	0.899386	-0.059177	-0.000030
O71	O	0.736958	-0.138268	-0.000082
C72	C	0.756861	-0.011791	-0.000047
H73	H	0.827154	-0.006657	-0.031353
H74	H	0.705830	0.047488	-0.048060
H75	H	0.753694	0.026069	0.079299
H76	H	0.498445	0.171900	-0.163607
H77	H	0.329111	0.167415	0.163516
O78	O	0.793523	0.179489	0.177718
C79	C	0.780159	0.070207	0.232568
H80	H	0.761118	-0.006422	0.179815
H81	H	0.844698	0.035345	0.273451
H82	H	0.723857	0.093328	0.288790
O83	O	0.793663	0.179906	-0.177708
C84	C	0.838167	0.290030	-0.183117
H85	H	0.848986	0.326626	-0.104843
H86	H	0.905914	0.267328	-0.221274
H87	H	0.795590	0.365184	-0.227606
O88	O	0.938764	0.341647	0.236975
C89	C	0.885539	0.416877	0.305246
H90	H	0.922225	0.418389	0.379442
H91	H	0.872509	0.517135	0.275158
H92	H	0.818846	0.375941	0.316342
O93	O	0.505593	0.172024	0.177778
C94	C	0.444387	0.170427	0.257345
H95	H	0.381334	0.128935	0.230913
H96	H	0.476638	0.110216	0.320402
H97	H	0.425697	0.270834	0.285062
H98	H	0.890416	-0.534485	-0.000047
O99	O	0.938915	0.341717	0.557948
C100	C	0.954214	0.466069	0.583386
H101	H	1.025829	0.466848	0.611986
H102	H	0.944313	0.529069	0.514920
H103	H	0.904871	0.502846	0.643820
O104	O	0.731919	-0.396480	-0.000086
C105	C	0.661705	-0.297474	-0.000057
H106	H	0.687336	-0.208447	-0.031365
H107	H	0.604071	-0.324927	-0.048074
H108	H	0.636933	-0.278989	0.079286
H109	H	0.616914	0.175055	0.163531
H110	H	1.167058	0.018796	0.244980
H111	H	1.215986	-0.593862	-0.000048
O112	O	1.176588	0.005289	0.558024
C113	C	1.229829	-0.069938	0.626276
H114	H	1.193161	-0.071445	0.700497
H115	H	1.242851	-0.170198	0.596201
H116	H	1.296525	-0.029002	0.637322
H117	H	0.329167	0.167434	-0.163616
H118	H	1.365887	-0.501977	-0.000035
H119	H	1.167101	0.018811	0.754923
H120	H	0.948317	0.328156	0.754949
