data_functionalizedCrystal
_audit_creation_method	'MofGen! by Chris Wilmer'
_symmetry_space_group_name_H-M	'P1'
_symmetry_Int_Tables_number	1
_symmetry_cell_setting	triclinic
loop_
_symmetry_equiv_pos_as_xyz
  x,y,z
_cell_length_a	15.297475
_cell_length_b	18.050589
_cell_length_c	15.299447
_cell_angle_alpha	80.301421
_cell_angle_beta	69.207769
_cell_angle_gamma	80.331321
loop_
_atom_site_label
_atom_site_type_symbol
_atom_site_fract_x
_atom_site_fract_y
_atom_site_fract_z
Zn1	Zn	1.512772	-0.401556	-0.771510
Zn2	Zn	1.485718	-0.544057	-0.615980
Zn3	Zn	1.330326	-0.401539	-0.589138
Zn4	Zn	1.357195	-0.507347	-0.744591
O5	O	1.421503	-0.463625	-0.680305
O6	O	1.639324	-0.435829	-0.773378
O7	O	1.442538	-0.540508	-0.482271
O8	O	1.354605	-0.297623	-0.613362
O9	O	1.619448	-0.540524	-0.659110
O10	O	1.488647	-0.297635	-0.747350
O11	O	1.328372	-0.435801	-0.462551
O12	O	1.203749	-0.400205	-0.587260
O13	O	1.400400	-0.477957	-0.878310
O14	O	1.223490	-0.477941	-0.701471
O15	O	1.514701	-0.400233	-0.898087
O16	O	1.468592	-0.643105	-0.633008
O17	O	1.374167	-0.616135	-0.727499
C18	C	1.179875	-0.435088	-0.638532
C19	C	1.076510	-0.422895	-0.620684
C20	C	0.826289	-0.550773	-0.807872
C21	C	0.923406	-0.562235	-0.824639
C22	C	0.961687	-0.527401	-0.773652
C23	C	0.902841	-0.481104	-0.705895
C24	C	0.805714	-0.469646	-0.689121
C25	C	0.941112	-0.446273	-0.654901
C26	C	0.882266	-0.399976	-0.587144
C27	C	0.785149	-0.388520	-0.570374
C28	C	0.746868	-0.423354	-0.621360
C29	C	1.038239	-0.457731	-0.671674
C30	C	1.017663	-0.376603	-0.552924
C31	C	0.920547	-0.365142	-0.536157
C32	C	1.421388	-0.656565	-0.680270
C33	C	1.421429	-0.739113	-0.680301
C34	C	1.370138	-0.923933	-0.731673
C35	C	1.332772	-0.980695	-0.642893
C36	C	1.421523	-0.890252	-0.680329
C37	C	1.458936	-0.980576	-0.769127
C38	C	1.421612	-1.036245	-0.680363
C39	C	1.384104	-0.945927	-0.591496
C40	C	1.510317	-0.945802	-0.717793
C41	C	1.472974	-1.002552	-0.628960
C42	C	1.421469	-0.806149	-0.680310
C43	C	1.421665	-1.120348	-0.680372
C44	C	1.664074	-0.492273	-0.722241
C45	C	1.767443	-0.504481	-0.740111
C46	C	1.463566	-0.435002	-0.922888
C47	C	1.481490	-0.422805	-1.026262
C48	C	1.421647	-0.269931	-0.680364
C49	C	1.421708	-0.187390	-0.680390
C50	C	1.293976	-0.550293	-1.276471
C51	C	1.277126	-0.561748	-1.179344
C52	C	1.328216	-0.527014	-1.141069
C53	C	1.396158	-0.480822	-1.199930
C54	C	1.413005	-0.469361	-1.297066
C55	C	1.447245	-0.446081	-1.161664
C56	C	1.515187	-0.399889	-1.220525
C57	C	1.532031	-0.388431	-1.317651
C58	C	1.480942	-0.423165	-1.355926
C59	C	1.430398	-0.457542	-1.064528
C60	C	1.549427	-0.376610	-1.085123
C61	C	1.566277	-0.365155	-1.182250
C62	C	1.379657	-0.492089	-0.438674
C63	C	1.361913	-0.504098	-0.335332
H64	H	1.040764	-0.536735	-0.787308
N65	N	1.498579	-0.999985	-0.863309
N66	N	1.450729	-1.028872	-0.897092
H67	H	1.478719	-1.042578	-0.963608
H68	H	1.314493	-0.536344	-1.061983
N69	N	1.360991	-0.504713	-1.004408
N70	N	1.277063	-0.488366	-1.000429
H71	H	1.228040	-0.521683	-0.957968
N72	N	1.498144	-0.411451	-1.455141
N73	N	1.486268	-0.346115	-1.495156
H74	H	1.498416	-0.337841	-1.565227
H75	H	1.257725	-0.996281	-0.611232
N76	N	1.527538	-1.045102	-0.574453
N77	N	1.612651	-1.037226	-0.596726
H78	H	1.651185	-1.067278	-0.558230
N79	N	1.601633	-0.341140	-1.046038
N80	N	1.689325	-0.354924	-1.071715
H81	H	1.726192	-0.329876	-1.044105
N82	N	1.601429	-0.341251	-1.377791
N83	N	1.616462	-0.331025	-1.464512
H84	H	1.665474	-0.297704	-1.506987
H85	H	0.872621	-0.327446	-0.480988
N86	N	1.344344	-0.926651	-0.497258
N87	N	1.381426	-0.956815	-0.437131
H88	H	1.353342	-0.943198	-0.370578
H89	H	1.086142	-0.495426	-0.726844
H90	H	1.048830	-0.348240	-0.511404
N91	N	1.207724	-0.608927	-1.119236
N92	N	1.162114	-0.639936	-1.153417
H93	H	1.113094	-0.673260	-1.110965
H94	H	1.621596	-0.327544	-1.230188
H95	H	0.971311	-0.599932	-0.879805
H96	H	1.326594	-0.889894	-0.775006
N97	N	1.241781	-0.585744	-1.315577
N98	N	1.191949	-0.546202	-1.359539
H99	H	1.155080	-0.571236	-1.387162
N100	N	0.787170	-0.586352	-0.859931
N101	N	0.700452	-0.576118	-0.844940
H102	H	0.672822	-0.601249	-0.881708
N103	N	0.647666	-0.411648	-0.604251
N104	N	0.613506	-0.442749	-0.649790
H105	H	0.543444	-0.434483	-0.637709
H106	H	0.737237	-0.350830	-0.515192
H107	H	1.585356	-0.930211	-0.749492
