data_functionalizedCrystal
_audit_creation_method	'MofGen! by Chris Wilmer'
_symmetry_space_group_name_H-M	'P1'
_symmetry_Int_Tables_number	1
_symmetry_cell_setting	triclinic
loop_
_symmetry_equiv_pos_as_xyz
  x,y,z
_cell_length_a	11.026607
_cell_length_b	16.776229
_cell_length_c	17.699083
_cell_angle_alpha	89.992455
_cell_angle_beta	95.934516
_cell_angle_gamma	89.994019
loop_
_atom_site_label
_atom_site_type_symbol
_atom_site_fract_x
_atom_site_fract_y
_atom_site_fract_z
O1	O	1.609234	-0.066299	0.316812
O2	O	1.256034	-0.066298	0.280737
O3	O	1.442612	-0.066291	0.189956
O4	O	1.422655	-0.066306	0.407592
O5	O	1.442588	0.066285	0.189945
O6	O	1.256009	0.066278	0.280726
O7	O	1.609209	0.066278	0.316801
Zn8	Zn	1.432605	0.087327	0.298762
Zn9	Zn	1.432638	-0.087348	0.298776
O10	O	1.422630	0.066271	0.407582
C11	C	1.210830	-0.000010	0.274076
C12	C	1.076175	-0.000010	0.254237
C13	C	1.441885	-0.000003	0.161655
C14	C	1.439740	-0.000003	0.077343
N15	N	1.432592	0.206539	0.298753
C16	C	1.002207	-0.000014	0.309017
C17	C	0.863034	-0.000014	0.288513
C18	C	1.654412	-0.000012	0.323461
C19	C	1.789068	-0.000018	0.343301
N20	N	1.432661	-0.206559	0.298780
C21	C	1.515234	0.248259	0.258580
C22	C	1.515240	0.331711	0.258580
C23	C	1.432610	0.373441	0.298759
C24	C	1.349959	0.331715	0.338933
C25	C	1.349947	0.248265	0.338928
C26	C	1.350003	0.668263	0.338954
C27	C	1.350023	0.751719	0.338958
C28	C	1.515296	0.751709	0.258606
C29	C	1.515284	0.668258	0.258601
C30	C	1.432630	0.626539	0.298772
C31	C	1.432622	0.536051	0.298770
C32	C	1.432623	0.463928	0.298765
C33	C	1.549257	-0.000002	0.043769
C34	C	1.547234	-0.000009	-0.035453
C35	C	1.435692	-0.000011	-0.081099
C36	C	1.326166	-0.000015	-0.047520
C37	C	1.328190	-0.000013	0.031700
C38	C	1.318000	-0.000021	-0.367005
C39	C	1.315984	-0.000020	-0.446230
C40	C	1.537044	-0.000017	-0.434158
C41	C	1.539068	-0.000015	-0.354938
C42	C	1.429543	-0.000023	-0.321366
C43	C	1.431738	-0.000017	-0.235465
C44	C	1.433496	-0.000012	-0.166998
C45	C	1.423358	-0.000019	0.435882
C46	C	1.425503	-0.000025	0.520195
H47	H	0.823331	-0.000030	0.226431
C48	C	0.747643	-0.000022	0.473842
C49	C	0.842649	-0.000020	0.427113
H50	H	0.780724	-0.000019	0.525582
H51	H	0.698905	-0.046253	0.463829
H52	H	0.698878	0.046212	0.463813
H53	H	0.891408	-0.046258	0.437137
H54	H	0.891407	0.046215	0.437130
C55	C	0.895085	-0.000012	0.166340
C56	C	1.022583	-0.000009	0.170430
H57	H	0.862006	-0.000016	0.114600
H58	H	0.868381	0.046218	0.190809
H59	H	0.868402	-0.046247	0.190828
H60	H	1.049267	0.046230	0.145947
H61	H	1.049298	-0.046243	0.145950
H62	H	1.582526	0.214287	0.225866
C63	C	1.678641	0.323319	0.179180
C64	C	1.606102	0.377570	0.214435
H65	H	1.734745	0.351631	0.151932
H66	H	1.628240	0.290788	0.145058
H67	H	1.722150	0.290752	0.216644
H68	H	1.562586	0.410133	0.176970
H69	H	1.656511	0.410114	0.248559
H70	H	1.629897	-0.000009	-0.317776
C71	C	1.139898	0.777452	0.354682
C72	C	1.259180	0.797594	0.383116
H73	H	1.083821	0.805778	0.381940
H74	H	1.128063	0.721788	0.360434
H75	H	1.126911	0.791142	0.302389
H76	H	1.272170	0.783898	0.435408
H77	H	1.271020	0.853269	0.377372
H78	H	1.282650	0.214297	0.371640
C79	C	1.678647	0.676632	0.179167
C80	C	1.606110	0.622389	0.214433
H81	H	1.734711	0.648313	0.151894
H82	H	1.722190	0.709165	0.216620
H83	H	1.628230	0.709197	0.145059
H84	H	1.656527	0.589828	0.248545
H85	H	1.562564	0.589843	0.176975
C86	C	1.541950	0.845564	0.159233
C87	C	1.606141	0.797569	0.214438
H88	H	1.598035	0.873871	0.131965
H89	H	1.492751	0.882357	0.183162
H90	H	1.491544	0.813011	0.125123
H91	H	1.656540	0.830123	0.248551
H92	H	1.655360	0.760773	0.190508
C93	C	1.195661	-0.068167	-0.143607
C94	C	1.203558	-0.000017	-0.097695
H95	H	1.119969	-0.068163	-0.174585
H96	H	1.201047	-0.114391	-0.112446
H97	H	1.260605	-0.068157	-0.174937
H98	H	1.138619	-0.000030	-0.066361
H99	H	1.198160	0.046219	-0.128859
C100	C	1.214728	-0.000023	-0.573030
C101	C	1.193368	-0.000029	-0.496407
H102	H	1.139033	-0.000023	-0.604006
H103	H	1.259822	-0.046248	-0.583521
H104	H	1.259798	0.046217	-0.583529
H105	H	1.148306	-0.046272	-0.485907
H106	H	1.148255	0.046202	-0.485912
C107	C	1.278386	0.642574	0.460197
C108	C	1.259161	0.622416	0.383120
H109	H	1.222305	0.614265	0.487465
H110	H	1.266574	0.698241	0.465940
H111	H	1.359314	0.628874	0.479460
H112	H	1.178235	0.636121	0.363855
H113	H	1.270962	0.566737	0.377372
H114	H	1.282674	0.365697	0.371644
C115	C	1.099285	-0.000007	-0.386906
C116	C	1.197611	-0.000014	-0.330109
H117	H	1.024960	0.000005	-0.364124
H118	H	1.103098	-0.046238	-0.417544
H119	H	1.103106	0.046227	-0.417562
H120	H	1.193795	-0.046252	-0.299456
H121	H	1.193796	0.046222	-0.299458
H122	H	1.640088	0.000005	0.080929
H123	H	1.636415	-0.000006	-0.062784
H124	H	1.626225	-0.000014	-0.461501
C125	C	1.109472	-0.000012	0.011815
C126	C	1.207805	-0.000012	0.068608
H127	H	1.035150	-0.000009	0.034601
H128	H	1.113291	-0.046240	-0.018825
H129	H	1.113277	0.046225	-0.018839
H130	H	1.204005	-0.046252	0.099259
H131	H	1.203984	0.046221	0.099260
H132	H	1.041916	-0.000013	0.371095
