data_functionalizedCrystal
_audit_creation_method	'MofGen! by Chris Wilmer'
_symmetry_space_group_name_H-M	'P1'
_symmetry_Int_Tables_number	1
_symmetry_cell_setting	triclinic
loop_
_symmetry_equiv_pos_as_xyz
  x,y,z
_cell_length_a	27.732064
_cell_length_b	27.732025
_cell_length_c	16.053802
_cell_angle_alpha	92.558378
_cell_angle_beta	87.447638
_cell_angle_gamma	82.641446
loop_
_atom_site_label
_atom_site_type_symbol
_atom_site_fract_x
_atom_site_fract_y
_atom_site_fract_z
O1	O	0.642967	0.055511	-0.069256
O2	O	1.142967	0.555511	0.430744
O3	O	0.502175	0.064247	-0.069286
O4	O	1.002175	0.564247	0.430714
O5	O	0.576950	-0.010519	-0.069295
O6	O	1.076950	0.489481	0.430705
O7	O	0.568192	0.130277	-0.069247
O8	O	1.068192	0.630277	0.430753
O9	O	0.572834	-0.006421	0.069564
O10	O	1.072834	0.493579	0.569564
O11	O	0.498059	0.068345	0.069573
O12	O	0.998059	0.568345	0.569573
O13	O	0.638851	0.059609	0.069604
O14	O	1.138851	0.559609	0.569604
Zn15	Zn	0.567802	0.064628	0.091635
Zn16	Zn	1.067802	0.564628	0.591635
Zn17	Zn	0.573224	0.059228	-0.091318
Zn18	Zn	1.073224	0.559228	0.408682
O19	O	0.564076	0.134375	0.069613
O20	O	1.064076	0.634375	0.569613
C21	C	0.482110	0.066111	0.000139
C22	C	0.982110	0.566111	0.500139
C23	C	0.428456	0.065555	0.000126
C24	C	0.928456	0.565555	0.500126
C25	C	0.051386	0.017588	0.000157
C26	C	0.551386	0.517588	0.500157
C27	C	0.253047	0.019634	0.000136
C28	C	0.753047	0.519634	0.500136
O29	O	0.284302	-0.017587	0.000154
O30	O	0.784302	0.482413	0.500154
N31	N	0.272171	0.063969	0.000147
N32	N	0.772171	0.563969	0.500147
C33	C	0.240875	0.107796	0.000170
C34	C	0.740875	0.607796	0.500170
O35	O	0.261768	0.145553	0.000188
O36	O	0.761768	0.645553	0.500188
C37	C	0.039215	0.105750	0.000197
C38	C	0.539215	0.605750	0.500197
C39	C	0.020095	0.061412	0.000177
C40	C	0.520095	0.561412	0.500177
C41	C	0.032265	-0.026746	0.000138
C42	C	0.532265	0.473254	0.500138
C43	C	-0.018147	-0.027258	0.000138
C44	C	0.481853	0.472742	0.500138
C45	C	-0.049438	0.016566	0.000158
C46	C	0.450562	0.516566	0.500158
C47	C	-0.030317	0.060901	0.000177
C48	C	0.469683	0.560901	0.500177
C49	C	0.007921	0.149577	0.000225
C50	C	0.507921	0.649577	0.500225
C51	C	-0.042497	0.149061	0.000234
C52	C	0.457503	0.649061	0.500234
C53	C	-0.061617	0.104723	0.000214
C54	C	0.438383	0.604723	0.500214
C55	C	-0.112020	0.104213	0.000198
C56	C	0.387980	0.604213	0.500198
N57	N	-0.131144	0.059878	0.000186
N58	N	0.368856	0.559878	0.500186
C59	C	-0.099853	0.016054	0.000166
C60	C	0.400147	0.516054	0.500166
C61	C	0.346750	0.108867	0.000154
C62	C	0.846750	0.608867	0.500154
C63	C	0.397165	0.109379	0.000146
C64	C	0.897165	0.609379	0.500146
C65	C	0.409333	0.021216	0.000113
C66	C	0.909333	0.521216	0.500113
C67	C	0.358918	0.020705	0.000116
C68	C	0.858918	0.520705	0.500116
C69	C	0.327627	0.064532	0.000142
C70	C	0.827627	0.564532	0.500142
C71	C	-0.205722	0.014984	0.000167
C72	C	0.294278	0.514984	0.500167
C73	C	-0.256139	0.014477	0.000164
C74	C	0.243861	0.514477	0.500164
C75	C	-0.268303	0.102639	0.000201
C76	C	0.231697	0.602639	0.500201
C77	C	-0.217890	0.103147	0.000200
C78	C	0.282110	0.603147	0.500200
C79	C	-0.186601	0.059315	0.000185
C80	C	0.313399	0.559315	0.500185
O81	O	-0.143304	0.141414	0.000189
O82	O	0.356696	0.641414	0.500189
O83	O	-0.120755	-0.021696	0.000167
O84	O	0.379245	0.478304	0.500167
C85	C	0.101798	0.018099	0.000156
C86	C	0.601798	0.518099	0.500156
C87	C	0.120919	0.062434	0.000175
C88	C	0.620919	0.562434	0.500175
C89	C	0.089628	0.106257	0.000195
C90	C	0.589628	0.606257	0.500195
C91	C	0.171334	0.062945	0.000167
C92	C	0.671334	0.562945	0.500167
C93	C	0.202625	0.019122	0.000147
C94	C	0.702625	0.519122	0.500147
C95	C	0.183502	-0.025213	0.000135
C96	C	0.683502	0.474787	0.500135
C97	C	0.133090	-0.025724	0.000136
C98	C	0.633090	0.474276	0.500136
C99	C	0.108752	0.150593	0.000207
C100	C	0.608752	0.650593	0.500207
C101	C	0.159164	0.151100	0.000205
C102	C	0.659164	0.651100	0.500205
C103	C	0.190455	0.107276	0.000185
C104	C	0.690455	0.607276	0.500185
C105	C	0.574710	-0.026477	0.000126
C106	C	1.074710	0.473523	0.500126
C107	C	0.574162	-0.080134	0.000101
C108	C	1.074162	0.419866	0.500101
C109	C	0.572508	-0.465532	-0.075543
C110	C	1.072508	0.034468	0.424457
C111	C	0.574561	-0.263873	-0.075570
C112	C	1.074561	0.236127	0.424430
O113	O	0.576754	-0.239706	-0.139945
O114	O	1.076754	0.260294	0.360055
N115	N	0.572574	-0.236418	0.000120
N116	N	1.072574	0.263582	0.500120
C117	C	0.570077	-0.259381	0.075822
C118	C	1.070077	0.240619	0.575822
O119	O	0.568439	-0.231402	0.140201
O120	O	1.068439	0.268598	0.640201
C121	C	0.568027	-0.461039	0.075848
C122	C	1.068027	0.038961	0.575848
C123	C	0.570009	-0.488491	0.000153
C124	C	1.070009	0.011509	0.500153
C125	C	0.574490	-0.492984	-0.151232
C126	C	1.074490	0.007016	0.348768
C127	C	0.573974	-0.543395	-0.151225
C128	C	1.073974	-0.043395	0.348775
C129	C	0.571476	-0.566355	-0.075529
C130	C	1.071476	-0.066355	0.424471
C131	C	0.569493	-0.538903	0.000160
C132	C	1.069493	-0.038903	0.500160
C133	C	0.565534	-0.484002	0.151549
C134	C	1.065534	0.015998	0.651549
C135	C	0.565023	-0.534420	0.151549
C136	C	1.065023	-0.034420	0.651549
C137	C	0.567005	-0.561872	0.075854
C138	C	1.067005	-0.061872	0.575854
C139	C	0.566479	-0.612273	0.075864
C140	C	1.066479	-0.112273	0.575864
N141	N	0.568466	-0.639728	0.000174
N142	N	1.068466	-0.139728	0.500174
C143	C	0.570964	-0.616769	-0.075522
C144	C	1.070964	-0.116769	0.424478
C145	C	0.571152	-0.153507	0.075804
C146	C	1.071152	0.346493	0.575804
C147	C	0.571664	-0.103093	0.075797
C148	C	1.071664	0.396907	0.575797
C149	C	0.576149	-0.107589	-0.075595
C150	C	1.076149	0.392411	0.424405
C151	C	0.575634	-0.158004	-0.075588
C152	C	1.075634	0.341996	0.424412
C153	C	0.573139	-0.180963	0.000113
C154	C	1.073139	0.319037	0.500113
C155	C	0.569880	-0.722636	-0.075501
C156	C	1.069880	-0.222636	0.424499
C157	C	0.569362	-0.773051	-0.075487
C158	C	1.069362	-0.273051	0.424513
C159	C	0.564880	-0.768551	0.075905
C160	C	1.064880	-0.268551	0.575905
C161	C	0.565395	-0.718140	0.075891
C162	C	1.065395	-0.218140	0.575891
C163	C	0.567897	-0.695184	0.000181
C164	C	1.067897	-0.195184	0.500181
O165	O	0.564292	-0.636473	0.140205
O166	O	1.064292	-0.136473	0.640205
O167	O	0.572612	-0.644758	-0.139891
O168	O	1.072612	-0.144758	0.360109
C169	C	0.573024	-0.415121	-0.075551
C170	C	1.073024	0.084879	0.424449
C171	C	0.571041	-0.387669	0.000138
C172	C	1.071041	0.112331	0.500138
C173	C	0.568543	-0.410628	0.075834
C174	C	1.068543	0.089372	0.575834
C175	C	0.571553	-0.337254	0.000132
C176	C	1.071553	0.162746	0.500132
C177	C	0.574051	-0.314295	-0.075564
C178	C	1.074051	0.185705	0.424436
C179	C	0.576038	-0.341750	-0.151254
C180	C	1.076038	0.158250	0.348746
C181	C	0.575522	-0.392162	-0.151247
C182	C	1.075522	0.107838	0.348753
C183	C	0.566556	-0.383173	0.151524
C184	C	1.066556	0.116827	0.651524
C185	C	0.567072	-0.332761	0.151511
C186	C	1.067072	0.167239	0.651511
C187	C	0.569570	-0.309802	0.075815
C188	C	1.069570	0.190198	0.575815
C189	C	0.658916	0.057745	0.000177
C190	C	1.158916	0.557745	0.500177
C191	C	0.712570	0.058301	0.000184
C192	C	1.212570	0.558301	0.500184
C193	C	0.566316	0.150333	0.000190
C194	C	1.066316	0.650333	0.500190
C195	C	0.566863	0.203989	0.000209
C196	C	1.066863	0.703989	0.500209
N197	N	0.564104	0.068313	0.216496
N198	N	1.064104	0.568313	0.716496
N199	N	0.576925	0.055539	-0.216179
N200	N	1.076925	0.555539	0.283821
C201	C	0.595933	0.036511	0.260186
C202	C	1.095933	0.536511	0.760186
C203	C	0.593351	0.039093	0.347593
C204	C	1.093351	0.539093	0.847593
C205	C	0.558943	0.073480	0.391309
C206	C	1.058943	0.573480	0.891309
C207	C	0.527111	0.105283	0.347613
C208	C	1.027111	0.605283	0.847613
C209	C	0.529691	0.102699	0.260207
C210	C	1.029691	0.602699	0.760207
C211	C	0.547673	0.084758	0.652720
C212	C	1.047673	0.584758	1.152720
C213	C	0.545097	0.087341	0.740131
C214	C	1.045097	0.587341	1.240131
C215	C	0.611337	0.021150	0.740106
C216	C	1.111337	0.521150	1.240106
C217	C	0.613915	0.018570	0.652699
C218	C	1.113915	0.518570	1.152699
C219	C	0.582082	0.050372	0.609010
C220	C	1.082082	0.550372	1.109010
N221	N	0.556304	0.076121	0.480653
N222	N	1.056304	0.576121	0.980653
N223	N	0.584719	0.047728	0.519668
N224	N	1.084719	0.547728	1.019668
H225	H	0.057738	-0.062435	0.000124
H226	H	0.557738	0.437565	0.500124
H227	H	0.578180	-0.088887	-0.137230
H228	H	1.078180	0.411113	0.362770
H229	H	0.023479	0.185681	0.000238
H230	H	0.523479	0.685681	0.500238
H231	H	-0.202322	0.139251	0.000215
H232	H	0.297678	0.639251	0.500215
H233	H	0.434819	-0.014467	0.000094
H234	H	0.934819	0.485533	0.500094
H235	H	0.571918	-0.703952	-0.137151
H236	H	1.071918	-0.203952	0.362849
H237	H	0.083279	0.186280	0.000224
H238	H	0.583279	0.686280	0.500224
H239	H	0.499092	0.133280	0.383211
H240	H	0.999092	0.633280	0.883211
H241	H	0.174727	0.187208	0.000216
H242	H	0.674727	0.687208	0.500216
H243	H	0.521754	0.110653	0.617155
H244	H	1.021754	0.610653	1.117155
H245	H	-0.271704	-0.021630	0.000146
H246	H	0.228296	0.478370	0.500146
H247	H	0.503772	0.128594	0.224635
H248	H	1.003772	0.628594	0.724635
H249	H	-0.293789	0.138319	0.000213
H250	H	0.206211	0.638319	0.500213
H251	H	0.563925	-0.461659	0.213188
H252	H	1.063925	0.038341	0.713188
H253	H	0.564523	-0.401861	0.213167
H254	H	1.064523	0.098139	0.713167
H255	H	0.575592	-0.565743	-0.212864
H256	H	1.075592	-0.065743	0.287136
H257	H	-0.067972	0.184751	0.000260
H258	H	0.432028	0.684751	0.500260
H259	H	-0.180251	-0.020707	0.000155
H260	H	0.319749	0.479293	0.500155
H261	H	0.562992	-0.553110	0.213196
H262	H	1.062992	-0.053110	0.713196
H263	H	0.637253	-0.004742	0.775685
H264	H	1.137253	0.495258	1.275685
H265	H	0.117527	-0.061829	0.000120
H266	H	0.617527	0.438171	0.500120
H267	H	-0.033709	-0.063362	0.000125
H268	H	0.466291	0.436638	0.500125
H269	H	0.343354	-0.015399	0.000100
H270	H	0.843354	0.484601	0.500100
H271	H	0.412728	0.145483	0.000151
H272	H	0.912728	0.645483	0.500151
H273	H	0.577247	-0.180352	-0.137226
H274	H	1.077247	0.319648	0.362774
H275	H	0.619268	0.013197	0.383165
H276	H	1.119268	0.513197	0.883165
H277	H	0.576526	-0.474297	-0.212877
H278	H	1.076526	0.025703	0.287123
H279	H	0.570041	-0.080744	0.137436
H280	H	1.070041	0.419256	0.637436
H281	H	0.321277	0.144558	0.000175
H282	H	0.821277	0.644558	0.500175
H283	H	0.641933	-0.009430	0.617107
H284	H	1.141933	0.490570	1.117107
H285	H	0.577136	-0.414509	-0.212886
H286	H	1.077136	0.085491	0.287114
H287	H	0.208988	-0.060896	0.000114
H288	H	0.708988	0.439104	0.500114
H289	H	0.517076	0.115345	0.775721
H290	H	1.017076	0.615345	1.275721
H291	H	0.570974	-0.795401	-0.137130
H292	H	1.070974	-0.295401	0.362870
H293	H	0.623953	0.008512	0.224599
H294	H	1.123953	0.508512	0.724599
H295	H	0.569121	-0.172195	0.137452
H296	H	1.069121	0.327805	0.637452
H297	H	0.563762	-0.695785	0.137528
H298	H	1.063762	-0.195785	0.637528
H299	H	0.562844	-0.787254	0.137535
H300	H	1.062844	-0.287254	0.637535
H301	H	0.578069	-0.323048	-0.212889
H302	H	1.078069	0.176952	0.287111
H303	H	0.565453	-0.310413	0.213156
H304	H	1.065453	0.189587	0.713156
