data_functionalizedCrystal
_audit_creation_method	'MofGen! by Chris Wilmer'
_symmetry_space_group_name_H-M	'P1'
_symmetry_Int_Tables_number	1
_symmetry_cell_setting	triclinic
loop_
_symmetry_equiv_pos_as_xyz
  x,y,z
_cell_length_a	27.732064
_cell_length_b	27.731996
_cell_length_c	22.010155
_cell_angle_alpha	89.998256
_cell_angle_beta	89.999243
_cell_angle_gamma	82.635407
loop_
_atom_site_label
_atom_site_type_symbol
_atom_site_fract_x
_atom_site_fract_y
_atom_site_fract_z
O1	O	0.640915	0.057550	-0.050424
O2	O	0.890915	0.307550	0.199576
O3	O	1.140915	0.557550	0.449576
O4	O	1.390915	0.807550	0.699576
O5	O	0.500121	0.066287	-0.050451
O6	O	0.750121	0.316287	0.199549
O7	O	1.000121	0.566287	0.449549
O8	O	1.250121	0.816287	0.699549
O9	O	0.574904	-0.008480	-0.050424
O10	O	0.824904	0.241520	0.199576
O11	O	1.074904	0.491520	0.449576
O12	O	1.324904	0.741520	0.699576
O13	O	0.566132	0.132317	-0.050452
O14	O	0.816132	0.382317	0.199548
O15	O	1.066132	0.632317	0.449548
O16	O	1.316132	0.882317	0.699548
O17	O	0.574890	-0.008468	0.050627
O18	O	0.824890	0.241532	0.300627
O19	O	1.074890	0.491532	0.550627
O20	O	1.324890	0.741532	0.800627
O21	O	0.500107	0.066298	0.050600
O22	O	0.750107	0.316298	0.300600
O23	O	1.000107	0.566298	0.550600
O24	O	1.250107	0.816298	0.800600
O25	O	0.640901	0.057561	0.050626
O26	O	0.890901	0.307561	0.300626
O27	O	1.140901	0.557561	0.550626
O28	O	1.390901	0.807561	0.800626
Cu29	Cu	0.570503	0.061931	0.059839
Cu30	Cu	0.820503	0.311931	0.309839
Cu31	Cu	1.070503	0.561931	0.559839
Cu32	Cu	1.320503	0.811931	0.809839
Cu33	Cu	0.570519	0.061918	-0.059664
Cu34	Cu	0.820519	0.311918	0.190336
Cu35	Cu	1.070519	0.561918	0.440336
Cu36	Cu	1.320519	0.811918	0.690336
O37	O	0.566118	0.132328	0.050599
O38	O	0.816118	0.382328	0.300599
O39	O	1.066118	0.632328	0.550599
O40	O	1.316118	0.882328	0.800599
C41	C	0.482107	0.066108	0.000071
C42	C	0.732107	0.316108	0.250071
C43	C	0.982107	0.566108	0.500071
C44	C	1.232107	0.816108	0.750071
C45	C	0.428453	0.065552	0.000062
C46	C	0.678453	0.315552	0.250062
C47	C	0.928453	0.565552	0.500062
C48	C	1.178453	0.815552	0.750062
C49	C	0.051389	0.017584	0.000106
C50	C	0.301389	0.267584	0.250106
C51	C	0.551389	0.517584	0.500106
C52	C	0.801389	0.767584	0.750106
C53	C	0.253049	0.019630	0.000090
C54	C	0.503049	0.269630	0.250090
C55	C	0.753049	0.519630	0.500090
C56	C	1.003049	0.769630	0.750090
O57	O	0.284309	-0.017592	0.000120
O58	O	0.534309	0.232408	0.250120
O59	O	0.784309	0.482408	0.500120
O60	O	1.034309	0.732408	0.750120
N61	N	0.272168	0.063966	0.000078
N62	N	0.522168	0.313966	0.250078
N63	N	0.772168	0.563966	0.500078
N64	N	1.022168	0.813966	0.750078
C65	C	0.240869	0.107793	0.000075
C66	C	0.490869	0.357793	0.250075
C67	C	0.740869	0.607793	0.500075
C68	C	0.990869	0.857793	0.750075
O69	O	0.261758	0.145549	0.000071
O70	O	0.511758	0.395549	0.250071
O71	O	0.761758	0.645549	0.500071
O72	O	1.011758	0.895549	0.750071
C73	C	0.039210	0.105746	0.000096
C74	C	0.289210	0.355746	0.250096
C75	C	0.539210	0.605746	0.500096
C76	C	0.789210	0.855746	0.750096
C77	C	0.020094	0.061407	0.000101
C78	C	0.270094	0.311407	0.250101
C79	C	0.520094	0.561407	0.500101
C80	C	0.770094	0.811407	0.750101
C81	C	0.032272	-0.026751	0.000112
C82	C	0.282272	0.223249	0.250112
C83	C	0.532272	0.473249	0.500112
C84	C	0.782272	0.723249	0.750112
C85	C	-0.018140	-0.027262	0.000113
C86	C	0.231860	0.222738	0.250113
C87	C	0.481860	0.472738	0.500113
C88	C	0.731860	0.722738	0.750113
C89	C	-0.049435	0.016562	0.000108
C90	C	0.200565	0.266562	0.250108
C91	C	0.450565	0.516562	0.500108
C92	C	0.700565	0.766562	0.750108
C93	C	-0.030318	0.060896	0.000102
C94	C	0.219682	0.310896	0.250102
C95	C	0.469682	0.560896	0.500102
C96	C	0.719682	0.810896	0.750102
C97	C	0.007912	0.149572	0.000096
C98	C	0.257912	0.399572	0.250096
C99	C	0.507912	0.649572	0.500096
C100	C	0.757912	0.899572	0.750096
C101	C	-0.042506	0.149057	0.000103
C102	C	0.207494	0.399057	0.250103
C103	C	0.457494	0.649057	0.500103
C104	C	0.707494	0.899057	0.750103
C105	C	-0.061622	0.104718	0.000108
C106	C	0.188378	0.354718	0.250108
C107	C	0.438378	0.604718	0.500108
C108	C	0.688378	0.854718	0.750108
C109	C	-0.112026	0.104209	0.000097
C110	C	0.137974	0.354209	0.250097
C111	C	0.387974	0.604209	0.500097
C112	C	0.637974	0.854209	0.750097
N113	N	-0.131145	0.059873	0.000109
N114	N	0.118855	0.309873	0.250109
N115	N	0.368855	0.559873	0.500109
N116	N	0.618855	0.809873	0.750109
C117	C	-0.099849	0.016050	0.000114
C118	C	0.150151	0.266050	0.250114
C119	C	0.400151	0.516050	0.500114
C120	C	0.650151	0.766050	0.750114
C121	C	0.346743	0.108864	0.000063
C122	C	0.596743	0.358864	0.250063
C123	C	0.846743	0.608864	0.500063
C124	C	1.096743	0.858864	0.750063
C125	C	0.397158	0.109376	0.000057
C126	C	0.647158	0.359376	0.250057
C127	C	0.897158	0.609376	0.500057
C128	C	1.147158	0.859376	0.750057
C129	C	0.409334	0.021213	0.000073
C130	C	0.659334	0.271213	0.250073
C131	C	0.909334	0.521213	0.500073
C132	C	1.159334	0.771213	0.750073
C133	C	0.358919	0.020702	0.000075
C134	C	0.608919	0.270702	0.250075
C135	C	0.858919	0.520702	0.500075
C136	C	1.108919	0.770702	0.750075
C137	C	0.327624	0.064529	0.000075
C138	C	0.577624	0.314529	0.250075
C139	C	0.827624	0.564529	0.500075
C140	C	1.077624	0.814529	0.750075
C141	C	-0.205719	0.014980	0.000115
C142	C	0.044281	0.264980	0.250115
C143	C	0.294281	0.514980	0.500115
C144	C	0.544281	0.764980	0.750115
C145	C	-0.256136	0.014473	0.000113
C146	C	-0.006136	0.264473	0.250113
C147	C	0.243864	0.514473	0.500113
C148	C	0.493864	0.764473	0.750113
C149	C	-0.268308	0.102635	0.000100
C150	C	-0.018308	0.352635	0.250100
C151	C	0.231692	0.602635	0.500100
C152	C	0.481692	0.852635	0.750100
C153	C	-0.217895	0.103142	0.000099
C154	C	0.032105	0.353142	0.250099
C155	C	0.282105	0.603142	0.500099
C156	C	0.532105	0.853142	0.750099
C157	C	-0.186601	0.059311	0.000108
C158	C	0.063399	0.309311	0.250108
C159	C	0.313399	0.559311	0.500108
C160	C	0.563399	0.809311	0.750108
O161	O	-0.143313	0.141411	0.000074
O162	O	0.106687	0.391411	0.250074
O163	O	0.356687	0.641411	0.500074
O164	O	0.606687	0.891411	0.750074
O165	O	-0.120748	-0.021702	0.000131
O166	O	0.129252	0.228298	0.250131
O167	O	0.379252	0.478298	0.500131
O168	O	0.629252	0.728298	0.750131
C169	C	0.101801	0.018095	0.000105
C170	C	0.351801	0.268095	0.250105
C171	C	0.601801	0.518095	0.500105
C172	C	0.851801	0.768095	0.750105
C173	C	0.120918	0.062430	0.000099
C174	C	0.370918	0.312430	0.250099
C175	C	0.620918	0.562430	0.500099
C176	C	0.870918	0.812430	0.750099
C177	C	0.089623	0.106253	0.000094
C178	C	0.339623	0.356253	0.250094
C179	C	0.589623	0.606253	0.500094
C180	C	0.839623	0.856253	0.750094
C181	C	0.171332	0.062941	0.000093
C182	C	0.421332	0.312941	0.250093
C183	C	0.671332	0.562941	0.500093
C184	C	0.921332	0.812941	0.750093
C185	C	0.202628	0.019118	0.000098
C186	C	0.452628	0.269118	0.250098
C187	C	0.702628	0.519118	0.500098
C188	C	0.952628	0.769118	0.750098
C189	C	0.183508	-0.025218	0.000110
C190	C	0.433508	0.224782	0.250110
C191	C	0.683508	0.474782	0.500110
C192	C	0.933508	0.724782	0.750110
C193	C	0.133096	-0.025729	0.000111
C194	C	0.383096	0.224271	0.250111
C195	C	0.633096	0.474271	0.500111
C196	C	0.883096	0.724271	0.750111
C197	C	0.108742	0.150589	0.000083
C198	C	0.358742	0.400589	0.250083
C199	C	0.608742	0.650589	0.500083
C200	C	0.858742	0.900589	0.750083
C201	C	0.159154	0.151096	0.000081
C202	C	0.409154	0.401096	0.250081
C203	C	0.659154	0.651096	0.500081
C204	C	0.909154	0.901096	0.750081
C205	C	0.190450	0.107273	0.000086
C206	C	0.440450	0.357273	0.250086
C207	C	0.690450	0.607273	0.500086
C208	C	0.940450	0.857273	0.750086
C209	C	0.574717	-0.026481	0.000104
C210	C	0.824717	0.223519	0.250104
C211	C	1.074717	0.473519	0.500104
C212	C	1.324717	0.723519	0.750104
C213	C	0.574174	-0.080138	0.000110
C214	C	0.824174	0.169862	0.250110
C215	C	1.074174	0.419862	0.500110
C216	C	1.324174	0.669862	0.750110
C217	C	0.570767	-0.412860	-0.055003
C218	C	0.820767	-0.162860	0.194997
C219	C	1.070767	0.087140	0.444997
C220	C	1.320767	0.337140	0.694997
C221	C	0.568706	-0.614519	-0.055014
C222	C	0.818706	-0.364519	0.194986
C223	C	1.068706	-0.114519	0.444986
C224	C	1.318706	0.135481	0.694986
O225	O	0.568425	-0.640595	-0.101860
O226	O	0.818425	-0.390595	0.148140
O227	O	1.068425	-0.140595	0.398140
O228	O	1.318425	0.109405	0.648140
N229	N	0.568442	-0.639730	0.000068
N230	N	0.818442	-0.389730	0.250068
N231	N	1.068442	-0.139730	0.500068
N232	N	1.318442	0.110270	0.750068
C233	C	0.568691	-0.614523	0.055156
C234	C	0.818691	-0.364523	0.305156
C235	C	1.068691	-0.114523	0.555156
C236	C	1.318691	0.135477	0.805156
O237	O	0.568415	-0.640593	0.102007
O238	O	0.818415	-0.390593	0.352007
O239	O	1.068415	-0.140593	0.602007
O240	O	1.318415	0.109407	0.852007
C241	C	0.570748	-0.412865	0.055167
C242	C	0.820748	-0.162865	0.305167
C243	C	1.070748	0.087135	0.555167
C244	C	1.320748	0.337135	0.805167
C245	C	0.571017	-0.387657	0.000081
C246	C	0.821017	-0.137657	0.250081
C247	C	1.071017	0.112343	0.500081
C248	C	1.321017	0.362343	0.750081
C249	C	0.571034	-0.387653	-0.110084
C250	C	0.821034	-0.137653	0.139916
C251	C	1.071034	0.112347	0.389916
C252	C	1.321034	0.362347	0.639916
C253	C	0.571552	-0.337241	-0.110081
C254	C	0.821552	-0.087241	0.139919
C255	C	1.071552	0.162759	0.389919
C256	C	1.321552	0.412759	0.639919
C257	C	0.571802	-0.312038	-0.054997
C258	C	0.821802	-0.062038	0.195003
C259	C	1.071802	0.187962	0.445003
C260	C	1.321802	0.437962	0.695003
C261	C	0.571535	-0.337246	0.000085
C262	C	0.821535	-0.087246	0.250085
C263	C	1.071535	0.162754	0.500085
C264	C	1.321535	0.412754	0.750085
C265	C	0.570994	-0.387658	0.110255
C266	C	0.820994	-0.137658	0.360255
C267	C	1.070994	0.112342	0.610255
C268	C	1.320994	0.362342	0.860255
C269	C	0.571507	-0.337240	0.110253
C270	C	0.821507	-0.087240	0.360253
C271	C	1.071507	0.162760	0.610253
C272	C	1.321507	0.412760	0.860253
C273	C	0.571775	-0.312033	0.055167
C274	C	0.821775	-0.062033	0.305167
C275	C	1.071775	0.187967	0.555167
C276	C	1.321775	0.437967	0.805167
C277	C	0.572303	-0.261631	0.055172
C278	C	0.822303	-0.011631	0.305172
C279	C	1.072303	0.238369	0.555172
C280	C	1.322303	0.488369	0.805172
N281	N	0.572566	-0.236420	0.000090
N282	N	0.822566	0.013580	0.250090
N283	N	1.072566	0.263580	0.500090
N284	N	1.322566	0.513580	0.750090
C285	C	0.572316	-0.261624	-0.054994
C286	C	0.822316	-0.011624	0.195006
C287	C	1.072316	0.238376	0.445006
C288	C	1.322316	0.488376	0.695006
C289	C	0.567612	-0.720396	0.055147
C290	C	0.817612	-0.470396	0.305147
C291	C	1.067612	-0.220396	0.555147
C292	C	1.317612	0.029604	0.805147
C293	C	0.567098	-0.770810	0.055145
C294	C	0.817098	-0.520810	0.305145
C295	C	1.067098	-0.270810	0.555145
C296	C	1.317098	-0.020810	0.805145
C297	C	0.567112	-0.770803	-0.055026
C298	C	0.817112	-0.520803	0.194974
C299	C	1.067112	-0.270803	0.444974
C300	C	1.317112	-0.020803	0.694974
C301	C	0.567629	-0.720388	-0.055023
C302	C	0.817629	-0.470388	0.194977
C303	C	1.067629	-0.220388	0.444977
C304	C	1.317629	0.029612	0.694977
C305	C	0.567875	-0.695185	0.000065
C306	C	0.817875	-0.445185	0.250065
C307	C	1.067875	-0.195185	0.500065
C308	C	1.317875	0.054815	0.750065
C309	C	0.573404	-0.155757	-0.054983
C310	C	0.823404	0.094243	0.195017
C311	C	1.073404	0.344243	0.445017
C312	C	1.323404	0.594243	0.695017
C313	C	0.573924	-0.105341	-0.054975
C314	C	0.823924	0.144659	0.195025
C315	C	1.073924	0.394659	0.445025
C316	C	1.323924	0.644659	0.695025
C317	C	0.573907	-0.105353	0.055196
C318	C	0.823907	0.144647	0.305196
C319	C	1.073907	0.394647	0.555196
C320	C	1.323907	0.644647	0.805196
C321	C	0.573390	-0.155764	0.055188
C322	C	0.823390	0.094236	0.305188
C323	C	1.073390	0.344236	0.555188
C324	C	1.323390	0.594236	0.805188
C325	C	0.573137	-0.180964	0.000094
C326	C	0.823137	0.069036	0.250094
C327	C	1.073137	0.319036	0.500094
C328	C	1.323137	0.569036	0.750094
O329	O	0.572578	-0.235524	0.101994
O330	O	0.822578	0.014476	0.351994
O331	O	1.072578	0.264476	0.601994
O332	O	1.322578	0.514476	0.851994
O333	O	0.572581	-0.235543	-0.101837
O334	O	0.822581	0.014457	0.148163
O335	O	1.072581	0.264457	0.398163
O336	O	1.322581	0.514457	0.648163
C337	C	0.570249	-0.463272	-0.055006
C338	C	0.820249	-0.213272	0.194994
C339	C	1.070249	0.036728	0.444994
C340	C	1.320249	0.286728	0.694994
C341	C	0.569981	-0.488479	0.000075
C342	C	0.819981	-0.238479	0.250075
C343	C	1.069981	0.011521	0.500075
C344	C	1.319981	0.261521	0.750075
C345	C	0.570231	-0.463276	0.055159
C346	C	0.820231	-0.213276	0.305159
C347	C	1.070231	0.036724	0.555159
C348	C	1.320231	0.286724	0.805159
C349	C	0.569467	-0.538894	0.000072
C350	C	0.819467	-0.288894	0.250072
C351	C	1.069467	-0.038894	0.500072
C352	C	1.319467	0.211106	0.750072
C353	C	0.569217	-0.564097	-0.055012
C354	C	0.819217	-0.314097	0.194988
C355	C	1.069217	-0.064097	0.444988
C356	C	1.319217	0.185903	0.694988
C357	C	0.569481	-0.538886	-0.110094
C358	C	0.819481	-0.288886	0.139906
C359	C	1.069481	-0.038886	0.389906
C360	C	1.319481	0.211114	0.639906
C361	C	0.569999	-0.488475	-0.110091
C362	C	0.819999	-0.238475	0.139909
C363	C	1.069999	0.011525	0.389909
C364	C	1.319999	0.261525	0.639909
C365	C	0.569968	-0.488487	0.110241
C366	C	0.819968	-0.238487	0.360241
C367	C	1.069968	0.011513	0.610241
C368	C	1.319968	0.261513	0.860241
C369	C	0.569450	-0.538898	0.110233
C370	C	0.819450	-0.288898	0.360233
C371	C	1.069450	-0.038898	0.610233
C372	C	1.319450	0.211102	0.860233
C373	C	0.569200	-0.564102	0.055149
C374	C	0.819200	-0.314102	0.305149
C375	C	1.069200	-0.064102	0.555149
C376	C	1.319200	0.185898	0.805149
C377	C	0.658915	0.057740	0.000102
C378	C	0.908915	0.307740	0.250102
C379	C	1.158915	0.557740	0.500102
C380	C	1.408915	0.807740	0.750102
C381	C	0.712569	0.058296	0.000108
C382	C	0.962569	0.308296	0.250108
C383	C	1.212569	0.558296	0.500108
C384	C	1.462569	0.808296	0.750108
C385	C	0.566305	0.150330	0.000070
C386	C	0.816305	0.400330	0.250070
C387	C	1.066305	0.650330	0.500070
C388	C	1.316305	0.900330	0.750070
C389	C	0.566848	0.203986	0.000060
C390	C	0.816848	0.453986	0.250060
C391	C	1.066848	0.703986	0.500060
C392	C	1.316848	0.953986	0.750060
N393	N	0.570495	0.061940	0.143892
N394	N	0.820495	0.311940	0.393892
N395	N	1.070495	0.561940	0.643892
N396	N	1.320495	0.811940	0.893892
N397	N	0.570531	0.061905	-0.143717
N398	N	0.820531	0.311905	0.106283
N399	N	1.070531	0.561905	0.356283
N400	N	1.320531	0.811905	0.606283
C401	C	0.603635	0.028815	0.563683
C402	C	0.853635	0.278815	0.813683
C403	C	1.103635	0.528815	1.063683
C404	C	1.353635	0.778815	1.313683
C405	C	0.603637	0.028812	0.627291
C406	C	0.853637	0.278812	0.877291
C407	C	1.103637	0.528812	1.127291
C408	C	1.353637	0.778812	1.377291
O409	O	0.631794	0.000655	0.660193
O410	O	0.881794	0.250655	0.910193
O411	O	1.131794	0.500655	1.160193
O412	O	1.381794	0.750655	1.410193
N413	N	0.570519	0.061907	0.659099
N414	N	0.820519	0.311907	0.909099
N415	N	1.070519	0.561907	1.159099
N416	N	1.320519	0.811907	1.409099
C417	C	0.537393	0.095005	0.627296
C418	C	0.787393	0.345005	0.877296
C419	C	1.037393	0.595005	1.127296
C420	C	1.287393	0.845005	1.377296
O421	O	0.509223	0.123155	0.660192
O422	O	0.759223	0.373155	0.910192
O423	O	1.009223	0.623155	1.160192
O424	O	1.259223	0.873155	1.410192
C425	C	0.537389	0.095006	0.563690
C426	C	0.787389	0.345006	0.813690
C427	C	1.037389	0.595006	1.063690
C428	C	1.287389	0.845006	1.313690
C429	C	0.570512	0.061911	0.531885
C430	C	0.820512	0.311911	0.781885
C431	C	1.070512	0.561911	1.031885
C432	C	1.320512	0.811911	1.281885
C433	C	0.636755	-0.004277	0.531878
C434	C	0.886755	0.245723	0.781878
C435	C	1.136755	0.495723	1.031878
C436	C	1.386755	0.745723	1.281878
C437	C	0.636753	-0.004272	0.468275
C438	C	0.886753	0.245728	0.718275
C439	C	1.136753	0.495728	0.968275
C440	C	1.386753	0.745728	1.218275
C441	C	0.603631	0.028824	0.436477
C442	C	0.853631	0.278824	0.686477
C443	C	1.103631	0.528824	0.936477
C444	C	1.353631	0.778824	1.186477
C445	C	0.570511	0.061915	0.468282
C446	C	0.820511	0.311915	0.718282
C447	C	1.070511	0.561915	0.968282
C448	C	1.320511	0.811915	1.218282
C449	C	0.504261	0.128101	0.531888
C450	C	0.754261	0.378101	0.781888
C451	C	1.004261	0.628101	1.031888
C452	C	1.254261	0.878101	1.281888
C453	C	0.504259	0.128098	0.468278
C454	C	0.754259	0.378098	0.718278
C455	C	1.004259	0.628098	0.968278
C456	C	1.254259	0.878098	1.218278
C457	C	0.537383	0.095004	0.436473
C458	C	0.787383	0.345004	0.686473
C459	C	1.037383	0.595004	0.936473
C460	C	1.287383	0.845004	1.186473
C461	C	0.537386	0.095016	0.372880
C462	C	0.787386	0.345016	0.622880
C463	C	1.037386	0.595016	0.872880
C464	C	1.287386	0.845016	1.122880
N465	N	0.570505	0.061920	0.341072
N466	N	0.820505	0.311920	0.591072
N467	N	1.070505	0.561920	0.841072
N468	N	1.320505	0.811920	1.091072
C469	C	0.603627	0.028824	0.372870
C470	C	0.853627	0.278824	0.622870
C471	C	1.103627	0.528824	0.872870
C472	C	1.353627	0.778824	1.122870
C473	C	0.537404	0.095001	0.760874
C474	C	0.787404	0.345001	1.010874
C475	C	1.037404	0.595001	1.260874
C476	C	1.287404	0.845001	1.510874
C477	C	0.537410	0.095003	0.824479
C478	C	0.787410	0.345003	1.074479
C479	C	1.037410	0.595003	1.324479
C480	C	1.287410	0.845003	1.574479
C481	C	0.603653	0.028809	0.824470
C482	C	0.853653	0.278809	1.074470
C483	C	1.103653	0.528809	1.324470
C484	C	1.353653	0.778809	1.574470
C485	C	0.603649	0.028810	0.760863
C486	C	0.853649	0.278810	1.010863
C487	C	1.103649	0.528810	1.260863
C488	C	1.353649	0.778810	1.510863
C489	C	0.570522	0.061905	0.729066
C490	C	0.820522	0.311905	0.979066
C491	C	1.070522	0.561905	1.229066
C492	C	1.320522	0.811905	1.479066
C493	C	0.603621	0.028835	0.239299
C494	C	0.853621	0.278835	0.489299
C495	C	1.103621	0.528835	0.739299
C496	C	1.353621	0.778835	0.989299
C497	C	0.603618	0.028844	0.175690
C498	C	0.853618	0.278844	0.425690
C499	C	1.103618	0.528844	0.675690
C500	C	1.353618	0.778844	0.925690
C501	C	0.537372	0.095036	0.175706
C502	C	0.787372	0.345036	0.425706
C503	C	1.037372	0.595036	0.675706
C504	C	1.287372	0.845036	0.925706
C505	C	0.537377	0.095029	0.239309
C506	C	0.787377	0.345029	0.489309
C507	C	1.037377	0.595029	0.739309
C508	C	1.287377	0.845029	0.989309
C509	C	0.570503	0.061925	0.271104
C510	C	0.820503	0.311925	0.521104
C511	C	1.070503	0.561925	0.771104
C512	C	1.320503	0.811925	1.021104
O513	O	0.509242	0.123157	0.339938
O514	O	0.759242	0.373157	0.589938
O515	O	1.009242	0.623157	0.839938
O516	O	1.259242	0.873157	1.089938
O517	O	0.631788	0.000675	0.339967
O518	O	0.881788	0.250675	0.589967
O519	O	1.131788	0.500675	0.839967
O520	O	1.381788	0.750675	1.089967
H521	H	-0.293798	0.138315	0.000093
H522	H	-0.043798	0.388315	0.250093
H523	H	0.206202	0.638315	0.500093
H524	H	0.456202	0.888315	0.750093
O525	O	0.312994	0.156139	0.000057
O526	O	0.562994	0.406139	0.250057
O527	O	0.812994	0.656139	0.500057
O528	O	1.062994	0.906139	0.750057
H529	H	0.289739	0.158026	0.041249
H530	H	0.539739	0.408026	0.291249
H531	H	0.789739	0.658026	0.541249
H532	H	1.039739	0.908026	0.791249
H533	H	0.630592	0.001894	0.149797
H534	H	0.880592	0.251894	0.399797
H535	H	1.130592	0.501894	0.649797
H536	H	1.380592	0.751894	0.899797
H537	H	0.343358	-0.015402	0.000080
H538	H	0.593358	0.234598	0.250080
H539	H	0.843358	0.484598	0.500080
H540	H	1.093358	0.734598	0.750080
O541	O	0.570243	-0.461313	0.169660
O542	O	0.820243	-0.211313	0.419660
O543	O	1.070243	0.038687	0.669660
O544	O	1.320243	0.288687	0.919660
H545	H	0.537519	-0.433789	0.172305
H546	H	0.787519	-0.183789	0.422305
H547	H	1.037519	0.066211	0.672305
H548	H	1.287519	0.316211	0.922305
H549	H	0.574113	-0.084823	0.100044
H550	H	0.824113	0.165177	0.350044
H551	H	1.074113	0.415177	0.600044
H552	H	1.324113	0.665177	0.850044
H553	H	0.630623	0.001860	0.850371
H554	H	0.880623	0.251860	1.100371
H555	H	1.130623	0.501860	1.350371
H556	H	1.380623	0.751860	1.600371
H557	H	0.663724	-0.031222	0.442383
H558	H	0.913724	0.218778	0.692383
H559	H	1.163724	0.468778	0.942383
H560	H	1.413724	0.718778	1.192383
O561	O	-0.197274	0.150963	0.000093
O562	O	0.052726	0.400963	0.250093
O563	O	0.302726	0.650963	0.500093
O564	O	0.552726	0.900963	0.750093
H565	H	-0.209870	0.172003	-0.041094
H566	H	0.040130	0.422003	0.208906
H567	H	0.290130	0.672003	0.458906
H568	H	0.540130	0.922003	0.708906
O569	O	0.468543	0.163814	0.566169
O570	O	0.718543	0.413814	0.816169
O571	O	0.968543	0.663814	1.066169
O572	O	1.218543	0.913814	1.316169
H573	H	0.430908	0.157919	0.553965
H574	H	0.680908	0.407919	0.803965
H575	H	0.930908	0.657919	1.053965
H576	H	1.180908	0.907919	1.303965
O577	O	0.672489	-0.039975	0.566163
O578	O	0.922489	0.210025	0.816163
O579	O	1.172489	0.460025	1.066163
O580	O	1.422489	0.710025	1.316163
H581	H	0.652335	-0.063342	0.595143
H582	H	0.902335	0.186658	0.845143
H583	H	1.152335	0.436658	1.095143
H584	H	1.402335	0.686658	1.345143
O585	O	0.468531	0.163797	0.433981
O586	O	0.718531	0.413797	0.683981
O587	O	0.968531	0.663797	0.933981
O588	O	1.218531	0.913797	1.183981
H589	H	0.445505	0.186810	0.466787
H590	H	0.695505	0.436810	0.716787
H591	H	0.945505	0.686810	0.966787
H592	H	1.195505	0.936810	1.216787
O593	O	0.570699	-0.414839	0.169669
O594	O	0.820699	-0.164839	0.419669
O595	O	1.070699	0.085161	0.669669
O596	O	1.320699	0.335161	0.919669
H597	H	0.570952	-0.388835	0.207967
H598	H	0.820952	-0.138835	0.457967
H599	H	1.070952	0.111165	0.707967
H600	H	1.320952	0.361165	0.957967
O601	O	0.028523	0.197394	0.000106
O602	O	0.278523	0.447394	0.250106
O603	O	0.528523	0.697394	0.500106
O604	O	0.778523	0.947394	0.750106
H605	H	-0.001716	0.227777	0.000116
H606	H	0.248284	0.477777	0.250116
H607	H	0.498284	0.727777	0.500116
H608	H	0.748284	0.977777	0.750116
O609	O	0.570764	-0.414834	-0.169500
O610	O	0.820764	-0.164834	0.080500
O611	O	1.070764	0.085166	0.330500
O612	O	1.320764	0.335166	0.580500
H613	H	0.537569	-0.433244	-0.172148
H614	H	0.787569	-0.183244	0.077852
H615	H	1.037569	0.066756	0.327852
H616	H	1.287569	0.316756	0.577852
O617	O	0.217269	-0.072485	0.000124
O618	O	0.467269	0.177515	0.250124
O619	O	0.717269	0.427515	0.500124
O620	O	0.967269	0.677515	0.750124
H621	H	0.240534	-0.074363	-0.041059
H622	H	0.490534	0.175637	0.208941
H623	H	0.740534	0.425637	0.458941
H624	H	0.990534	0.675637	0.708941
O625	O	0.574211	-0.078155	-0.114393
O626	O	0.824211	0.171845	0.135607
O627	O	1.074211	0.421845	0.385607
O628	O	1.324211	0.671845	0.635607
H629	H	0.574618	-0.038865	-0.105141
H630	H	0.824618	0.211135	0.144859
H631	H	1.074618	0.461135	0.394859
H632	H	1.324618	0.711135	0.644859
O633	O	0.569160	-0.566085	0.169651
O634	O	0.819160	-0.316085	0.419651
O635	O	1.069160	-0.066085	0.669651
O636	O	1.319160	0.183915	0.919651
H637	H	0.569416	-0.540084	0.207951
H638	H	0.819416	-0.290084	0.457951
H639	H	1.069416	-0.040084	0.707951
H640	H	1.319416	0.209916	0.957951
O641	O	0.573126	-0.182933	-0.114404
O642	O	0.823126	0.067067	0.135596
O643	O	1.073126	0.317067	0.385596
O644	O	1.323126	0.567067	0.635596
H645	H	0.573401	-0.156929	-0.152700
H646	H	0.823401	0.093071	0.097300
H647	H	1.073401	0.343071	0.347300
H648	H	1.323401	0.593071	0.597300
H649	H	0.569279	-0.559416	-0.154946
H650	H	0.819279	-0.309416	0.095054
H651	H	1.069279	-0.059416	0.345054
H652	H	1.319279	0.190584	0.595054
O653	O	0.501700	0.130712	0.858782
O654	O	0.751700	0.380712	1.108782
O655	O	1.001700	0.630712	1.358782
O656	O	1.251700	0.880712	1.608782
H657	H	0.478672	0.153727	0.825978
H658	H	0.728672	0.403727	1.075978
H659	H	0.978672	0.653727	1.325978
H660	H	1.228672	0.903727	1.575978
H661	H	0.630621	0.001861	0.734971
H662	H	0.880621	0.251861	0.984971
H663	H	1.130621	0.501861	1.234971
H664	H	1.380621	0.751861	1.484971
H665	H	0.510410	0.121982	0.265205
H666	H	0.760410	0.371982	0.515205
H667	H	1.010410	0.621982	0.765205
H668	H	1.260410	0.871982	1.015205
H669	H	0.566887	-0.791331	0.100001
H670	H	0.816887	-0.541331	0.350001
H671	H	1.066887	-0.291331	0.600001
H672	H	1.316887	-0.041331	0.850001
O673	O	-0.076261	0.196328	0.000100
O674	O	0.173739	0.446328	0.250100
O675	O	0.423739	0.696328	0.500100
O676	O	0.673739	0.946328	0.750100
H677	H	-0.054494	0.227241	0.000090
H678	H	0.195506	0.477241	0.250090
H679	H	0.445506	0.727241	0.500090
H680	H	0.695506	0.977241	0.750090
O681	O	0.567911	-0.693204	-0.114439
O682	O	0.817911	-0.443204	0.135561
O683	O	1.067911	-0.193204	0.385561
O684	O	1.317911	0.056796	0.635561
H685	H	0.601104	-0.674790	-0.117075
H686	H	0.851104	-0.424790	0.132925
H687	H	1.101104	-0.174790	0.382925
H688	H	1.351104	0.075210	0.632925
O689	O	0.571778	-0.310061	0.169673
O690	O	0.821778	-0.060061	0.419673
O691	O	1.071778	0.189939	0.669673
O692	O	1.321778	0.439939	0.919673
H693	H	0.539053	-0.282538	0.172309
H694	H	0.789053	-0.032538	0.422309
H695	H	1.039053	0.217462	0.672309
H696	H	1.289053	0.467462	0.922309
O697	O	0.573102	-0.182958	0.114599
O698	O	0.823102	0.067042	0.364599
O699	O	1.073102	0.317042	0.614599
O700	O	1.323102	0.567042	0.864599
H701	H	0.573361	-0.156960	0.152903
H702	H	0.823361	0.093040	0.402903
H703	H	1.073361	0.343040	0.652903
H704	H	1.323361	0.593040	0.902903
O705	O	0.571829	-0.310053	-0.169495
O706	O	0.821829	-0.060053	0.080505
O707	O	1.071829	0.189947	0.330505
O708	O	1.321829	0.439947	0.580505
H709	H	0.571560	-0.336054	-0.207793
H710	H	0.821560	-0.086054	0.042207
H711	H	1.071560	0.163946	0.292207
H712	H	1.321560	0.413946	0.542207
H713	H	0.570217	-0.467955	-0.154947
H714	H	0.820217	-0.217955	0.095053
H715	H	1.070217	0.032045	0.345053
H716	H	1.320217	0.282045	0.595053
O717	O	0.639356	-0.006864	0.273585
O718	O	0.889356	0.243136	0.523585
O719	O	1.139356	0.493136	0.773585
O720	O	1.389356	0.743136	1.023585
H721	H	0.633495	-0.044506	0.261369
H722	H	0.883495	0.205494	0.511369
H723	H	1.133495	0.455494	0.761369
H724	H	1.383495	0.705494	1.011369
H725	H	-0.271697	-0.021635	0.000116
H726	H	-0.021697	0.228365	0.250116
H727	H	0.228303	0.478365	0.500116
H728	H	0.478303	0.728365	0.750116
O729	O	0.501678	0.130705	0.726579
O730	O	0.751678	0.380705	0.976579
O731	O	1.001678	0.630705	1.226579
O732	O	1.251678	0.880705	1.476579
H733	H	0.478656	0.153719	0.759388
H734	H	0.728656	0.403719	1.009388
H735	H	0.978656	0.653719	1.259388
H736	H	1.228656	0.903719	1.509388
H737	H	0.174713	0.187204	0.000073
H738	H	0.424713	0.437204	0.250073
H739	H	0.674713	0.687204	0.500073
H740	H	0.924713	0.937204	0.750073
H741	H	0.566909	-0.791332	-0.099878
H742	H	0.816909	-0.541332	0.150122
H743	H	1.066909	-0.291332	0.400122
H744	H	1.316909	-0.041332	0.650122
O745	O	0.074993	0.197860	0.000073
O746	O	0.324993	0.447860	0.250073
O747	O	0.574993	0.697860	0.500073
O748	O	0.824993	0.947860	0.750073
H749	H	0.051735	0.199747	0.041262
H750	H	0.301735	0.449747	0.291262
H751	H	0.551735	0.699747	0.541262
H752	H	0.801735	0.949747	0.791262
O753	O	0.501636	0.130720	0.141404
O754	O	0.751636	0.380720	0.391404
O755	O	1.001636	0.630720	0.641404
O756	O	1.251636	0.880720	0.891404
H757	H	0.507195	0.125151	0.091832
H758	H	0.757195	0.375151	0.341832
H759	H	1.007195	0.625151	0.591832
H760	H	1.257195	0.875151	0.841832
H761	H	-0.033699	-0.063367	0.000120
H762	H	0.216301	0.186633	0.250120
H763	H	0.466301	0.436633	0.500120
H764	H	0.716301	0.686633	0.750120
O765	O	0.567888	-0.693216	0.114567
O766	O	0.817888	-0.443216	0.364567
O767	O	1.067888	-0.193216	0.614567
O768	O	1.317888	0.056784	0.864567
H769	H	0.567625	-0.719223	0.152863
H770	H	0.817625	-0.469223	0.402863
H771	H	1.067625	-0.219223	0.652863
H772	H	1.317625	0.030777	0.902863
H773	H	-0.180245	-0.020712	0.000122
H774	H	0.069755	0.229288	0.250122
H775	H	0.319755	0.479288	0.500122
H776	H	0.569755	0.729288	0.750122
O777	O	0.066024	-0.074022	0.000117
O778	O	0.316024	0.175978	0.250117
O779	O	0.566024	0.425978	0.500117
O780	O	0.816024	0.675978	0.750117
H781	H	0.044252	-0.104931	0.000119
H782	H	0.294252	0.145069	0.250119
H783	H	0.544252	0.395069	0.500119
H784	H	0.794252	0.645069	0.750119
H785	H	0.117537	-0.061833	0.000115
H786	H	0.367537	0.188167	0.250115
H787	H	0.617537	0.438167	0.500115
H788	H	0.867537	0.688167	0.750115
O789	O	0.443092	-0.026056	0.000087
O790	O	0.693092	0.223944	0.250087
O791	O	0.943092	0.473944	0.500087
O792	O	1.193092	0.723944	0.750087
H793	H	0.481359	-0.018246	0.000089
H794	H	0.731359	0.231754	0.250089
H795	H	0.981359	0.481754	0.500089
H796	H	1.231359	0.731754	0.750089
H797	H	0.412717	0.145480	0.000044
H798	H	0.662717	0.395480	0.250044
H799	H	0.912717	0.645480	0.500044
H800	H	1.162717	0.895480	0.750044
