data_functionalizedCrystal
_audit_creation_method	'MofGen! by Chris Wilmer'
_symmetry_space_group_name_H-M	'P1'
_symmetry_Int_Tables_number	1
_symmetry_cell_setting	triclinic
loop_
_symmetry_equiv_pos_as_xyz
  x,y,z
_cell_length_a	15.995350
_cell_length_b	15.995350
_cell_length_c	15.072220
_cell_angle_alpha	89.998899
_cell_angle_beta	89.993871
_cell_angle_gamma	96.507625
loop_
_atom_site_label
_atom_site_type_symbol
_atom_site_fract_x
_atom_site_fract_y
_atom_site_fract_z
O1	O	1.110996	-0.107921	-0.073647
O2	O	1.360996	0.142079	0.176353
O3	O	1.610996	0.392079	0.426353
O4	O	1.860996	0.642079	0.676353
O5	O	0.867221	-0.121249	-0.073677
O6	O	1.117221	0.128751	0.176323
O7	O	1.367221	0.378751	0.426323
O8	O	1.617221	0.628751	0.676323
O9	O	0.995772	0.007303	-0.073660
O10	O	1.245772	0.257303	0.176340
O11	O	1.495772	0.507303	0.426340
O12	O	1.745772	0.757303	0.676340
O13	O	0.982444	-0.236472	-0.073664
O14	O	1.232444	0.013528	0.176336
O15	O	1.482444	0.263528	0.426336
O16	O	1.732444	0.513528	0.676336
O17	O	0.995740	0.007296	0.073905
O18	O	1.245740	0.257296	0.323905
O19	O	1.495740	0.507296	0.573905
O20	O	1.745740	0.757296	0.823905
O21	O	0.867189	-0.121256	0.073888
O22	O	1.117189	0.128744	0.323888
O23	O	1.367189	0.378744	0.573888
O24	O	1.617189	0.628744	0.823888
O25	O	1.110964	-0.107928	0.073918
O26	O	1.360964	0.142072	0.323918
O27	O	1.610964	0.392072	0.573918
O28	O	1.860964	0.642072	0.823918
Zn29	Zn	0.989071	-0.114593	0.097332
Zn30	Zn	1.239071	0.135407	0.347332
Zn31	Zn	1.489071	0.385407	0.597332
Zn32	Zn	1.739071	0.635407	0.847332
Zn33	Zn	0.989113	-0.114584	-0.097091
Zn34	Zn	1.239113	0.135416	0.152909
Zn35	Zn	1.489113	0.385416	0.402909
Zn36	Zn	1.739113	0.635416	0.652909
O37	O	0.982413	-0.236480	0.073902
O38	O	1.232413	0.013520	0.323902
O39	O	1.482413	0.263520	0.573902
O40	O	1.732413	0.513520	0.823902
C41	C	0.836010	-0.120701	0.000102
C42	C	1.086010	0.129299	0.250102
C43	C	1.336010	0.379299	0.500102
C44	C	1.586010	0.629299	0.750102
C45	C	0.743060	-0.119049	0.000090
C46	C	0.993060	0.130951	0.250090
C47	C	1.243060	0.380951	0.500090
C48	C	1.493060	0.630951	0.750090
C49	C	0.995205	0.038494	0.000121
C50	C	1.245205	0.288494	0.250121
C51	C	1.495205	0.538494	0.500121
C52	C	1.745205	0.788494	0.750121
C53	C	0.993553	0.131444	0.000115
C54	C	1.243553	0.381444	0.250115
C55	C	1.493553	0.631444	0.500115
C56	C	1.743553	0.881444	0.750115
C57	C	1.142175	-0.108476	0.000138
C58	C	1.392175	0.141524	0.250138
C59	C	1.642175	0.391524	0.500138
C60	C	1.892175	0.641524	0.750138
C61	C	1.235125	-0.110127	0.000143
C62	C	1.485125	0.139873	0.250143
C63	C	1.735125	0.389873	0.500143
C64	C	1.985125	0.639873	0.750143
C65	C	1.572873	-0.116060	0.000108
C66	C	1.822873	0.133940	0.250108
C67	C	2.072873	0.383940	0.500108
C68	C	2.322873	0.633940	0.750108
C69	C	1.525439	-0.207612	0.000440
C70	C	1.775439	0.042388	0.250440
C71	C	2.025439	0.292388	0.500440
C72	C	2.275439	0.542388	0.750440
C73	C	1.428748	-0.205959	0.000117
C74	C	1.678748	0.044041	0.250117
C75	C	1.928748	0.294041	0.500117
C76	C	2.178748	0.544041	0.750117
C77	C	1.405312	-0.113117	0.000126
C78	C	1.655312	0.136883	0.250126
C79	C	1.905312	0.386883	0.500126
C80	C	2.155312	0.636883	0.750126
C81	C	1.446391	-0.067956	-0.084142
C82	C	1.696391	0.182044	0.165858
C83	C	1.946391	0.432044	0.415858
C84	C	2.196391	0.682044	0.665858
C85	C	1.543027	-0.070256	-0.084222
C86	C	1.793027	0.179744	0.165778
C87	C	2.043027	0.429744	0.415778
C88	C	2.293027	0.679744	0.665778
C89	C	1.543382	-0.068373	0.083587
C90	C	1.793382	0.181627	0.333587
C91	C	2.043382	0.431627	0.583587
C92	C	2.293382	0.681627	0.833587
C93	C	1.446437	-0.068395	0.084710
C94	C	1.696437	0.181605	0.334710
C95	C	1.946437	0.431605	0.584710
C96	C	2.196437	0.681605	0.834710
C97	C	1.310615	-0.111449	0.000133
C98	C	1.560615	0.138551	0.250133
C99	C	1.810615	0.388551	0.500133
C100	C	2.060615	0.638551	0.750133
C101	C	1.667570	-0.117725	0.000094
C102	C	1.917570	0.132275	0.250094
C103	C	2.167570	0.382275	0.500094
C104	C	2.417570	0.632275	0.750094
C105	C	0.982980	-0.267671	0.000119
C106	C	1.232980	-0.017671	0.250119
C107	C	1.482980	0.232329	0.500119
C108	C	1.732980	0.482329	0.750119
C109	C	0.984631	-0.360621	0.000118
C110	C	1.234631	-0.110621	0.250118
C111	C	1.484631	0.139379	0.500118
C112	C	1.734631	0.389379	0.750118
N113	N	0.989049	-0.114599	0.230021
N114	N	1.239049	0.135401	0.480021
N115	N	1.489049	0.385401	0.730021
N116	N	1.739049	0.635401	0.980021
C117	C	0.987621	0.469192	0.000118
C118	C	1.237621	0.719192	0.250118
C119	C	1.487621	0.969192	0.500118
C120	C	1.737621	1.219192	0.750118
C121	C	0.896069	0.421758	-0.000225
C122	C	1.146069	0.671758	0.249775
C123	C	1.396069	0.921758	0.499775
C124	C	1.646069	1.171758	0.749775
C125	C	0.897721	0.325068	0.000108
C126	C	1.147721	0.575068	0.250108
C127	C	1.397721	0.825068	0.500108
C128	C	1.647721	1.075068	0.750108
C129	C	0.990564	0.301631	0.000116
C130	C	1.240564	0.551631	0.250116
C131	C	1.490564	0.801631	0.500116
C132	C	1.740564	1.051631	0.750116
C133	C	1.035702	0.342705	0.084387
C134	C	1.285702	0.592705	0.334387
C135	C	1.535702	0.842705	0.584387
C136	C	1.785702	1.092705	0.834387
C137	C	1.033402	0.439341	0.084457
C138	C	1.283402	0.689341	0.334457
C139	C	1.533402	0.939341	0.584457
C140	C	1.783402	1.189341	0.834457
C141	C	1.035330	0.439707	-0.083352
C142	C	1.285330	0.689707	0.166648
C143	C	1.535330	0.939707	0.416648
C144	C	1.785330	1.189707	0.666648
C145	C	1.035308	0.342761	-0.084465
C146	C	1.285308	0.592761	0.165535
C147	C	1.535308	0.842761	0.415535
C148	C	1.785308	1.092761	0.665535
C149	C	0.992231	0.206934	0.000118
C150	C	1.242231	0.456934	0.250118
C151	C	1.492231	0.706934	0.500118
C152	C	1.742231	0.956934	0.750118
C153	C	0.985956	0.563890	0.000122
C154	C	1.235956	0.813890	0.250122
C155	C	1.485956	1.063890	0.500122
C156	C	1.735956	1.313890	0.750122
N157	N	0.989142	-0.114571	-0.229780
N158	N	1.239142	0.135429	0.020220
N159	N	1.489142	0.385429	0.270220
N160	N	1.739142	0.635429	0.520220
C161	C	0.989112	-0.114580	0.589223
C162	C	1.239112	0.135420	0.839223
C163	C	1.489112	0.385420	1.089223
C164	C	1.739112	0.635420	1.339223
C165	C	0.920095	-0.183135	0.551607
C166	C	1.170095	0.066865	0.801607
C167	C	1.420095	0.316865	1.051607
C168	C	1.670095	0.566865	1.301607
C169	C	0.920254	-0.183385	0.448781
C170	C	1.170254	0.066615	0.698781
C171	C	1.420254	0.316615	0.948781
C172	C	1.670254	0.566615	1.198781
C173	C	0.989080	-0.114590	0.411019
C174	C	1.239080	0.135410	0.661019
C175	C	1.489080	0.385410	0.911019
C176	C	1.739080	0.635410	1.161019
C177	C	1.076445	-0.133671	0.448321
C178	C	1.326445	0.116329	0.698321
C179	C	1.576445	0.366329	0.948321
C180	C	1.826445	0.616329	1.198321
C181	C	1.076058	-0.134159	0.551178
C182	C	1.326058	0.115841	0.801178
C183	C	1.576058	0.365841	1.051178
C184	C	1.826058	0.615841	1.301178
C185	C	0.971542	-0.026741	0.551321
C186	C	1.221542	0.223259	0.801321
C187	C	1.471542	0.473259	1.051321
C188	C	1.721542	0.723259	1.301321
C189	C	0.969537	-0.027327	0.448458
C190	C	1.219537	0.222673	0.698458
C191	C	1.469537	0.472673	0.948458
C192	C	1.719537	0.722673	1.198458
C193	C	0.989067	-0.114593	0.310305
C194	C	1.239067	0.135407	0.560305
C195	C	1.489067	0.385407	0.810305
C196	C	1.739067	0.635407	1.060305
C197	C	0.989130	-0.114579	0.689936
C198	C	1.239130	0.135421	0.939936
C199	C	1.489130	0.385421	1.189936
C200	C	1.739130	0.635421	1.439936
H201	H	1.400325	-0.241463	0.060520
H202	H	1.650325	0.008537	0.310520
H203	H	1.900325	0.258537	0.560520
H204	H	2.150325	0.508537	0.810520
H205	H	0.854945	-0.171953	0.576360
H206	H	1.104945	0.078047	0.826360
H207	H	1.354945	0.328047	1.076360
H208	H	1.604945	0.578047	1.326360
F209	F	0.994691	0.305607	0.166350
F210	F	1.244691	0.555607	0.416350
F211	F	1.494691	0.805607	0.666350
F212	F	1.744691	1.055607	0.916350
H213	H	0.931160	-0.247952	0.577446
H214	H	1.181160	0.002048	0.827446
H215	H	1.431160	0.252048	1.077446
H216	H	1.681160	0.502048	1.327446
H217	H	1.545033	-0.244038	-0.059656
H218	H	1.795033	0.005962	0.190344
H219	H	2.045033	0.255962	0.440344
H220	H	2.295033	0.505962	0.690344
F221	F	0.996218	0.466548	-0.166838
F222	F	1.246218	0.716548	0.083162
F223	F	1.496218	0.966548	0.333162
F224	F	1.746218	1.216548	0.583162
H225	H	1.000460	0.457639	0.147445
H226	H	1.250460	0.707639	0.397445
H227	H	1.500460	0.957639	0.647445
H228	H	1.750460	1.207639	0.897445
H229	H	0.931473	-0.248570	0.424168
H230	H	1.181473	0.001430	0.674168
H231	H	1.431473	0.251430	0.924168
H232	H	1.681473	0.501430	1.174168
F233	F	0.835360	-0.168568	0.415816
F234	F	1.085360	0.081432	0.665816
F235	F	1.335360	0.331432	0.915816
F236	F	1.585360	0.581432	1.165816
H237	H	1.561329	-0.103184	-0.147215
H238	H	1.811329	0.146816	0.102785
H239	H	2.061329	0.396816	0.352785
H240	H	2.311329	0.646816	0.602785
F241	F	0.992504	0.306761	-0.165962
F242	F	1.242504	0.556761	0.084038
F243	F	1.492504	0.806761	0.334038
F244	F	1.742504	1.056761	0.584038
F245	F	1.123804	0.322679	-0.091114
F246	F	1.373804	0.572679	0.158886
F247	F	1.623804	0.822679	0.408886
F248	F	1.873804	1.072679	0.658886
F249	F	1.097167	-0.216449	0.414642
F250	F	1.347167	0.033551	0.664642
F251	F	1.597167	0.283551	0.914642
F252	F	1.847167	0.533551	1.164642
H253	H	1.100617	0.471588	0.088286
H254	H	1.350617	0.721588	0.338286
H255	H	1.600617	0.971588	0.588286
H256	H	1.850617	1.221588	0.838286
H257	H	1.400885	-0.241689	-0.060391
H258	H	1.650885	0.008311	0.189609
H259	H	1.900885	0.258311	0.439609
H260	H	2.150885	0.508311	0.689609
F261	F	1.584904	0.019851	0.084338
F262	F	1.834904	0.269851	0.334338
F263	F	2.084904	0.519851	0.584338
F264	F	2.334904	0.769851	0.834338
H265	H	0.862238	0.296649	-0.060301
H266	H	1.112238	0.546649	0.189699
H267	H	1.362238	0.796649	0.439699
H268	H	1.612238	1.046649	0.689699
F269	F	1.123557	0.481221	-0.084087
F270	F	1.373557	0.731221	0.165913
F271	F	1.623557	0.981221	0.415913
F272	F	1.873557	1.231221	0.665913
F273	F	1.037326	0.039941	0.583116
F274	F	1.287326	0.289941	0.833116
F275	F	1.537326	0.539941	1.083116
F276	F	1.787326	0.789941	1.333116
F277	F	1.096294	-0.217890	0.582529
F278	F	1.346294	0.032110	0.832529
F279	F	1.596294	0.282110	1.082529
F280	F	1.846294	0.532110	1.332529
H281	H	1.129019	-0.086195	0.576060
H282	H	1.379019	0.163805	0.826060
H283	H	1.629019	0.413805	1.076060
H284	H	1.879019	0.663805	1.326060
F285	F	1.570230	-0.107500	0.167064
F286	F	1.820230	0.142500	0.417064
F287	F	2.070230	0.392500	0.667064
F288	F	2.320230	0.642500	0.917064
H289	H	1.129029	-0.085068	0.423858
H290	H	1.379029	0.164932	0.673858
H291	H	1.629029	0.414932	0.923858
H292	H	1.879029	0.664932	1.173858
F293	F	1.427929	0.021198	-0.088233
F294	F	1.677929	0.271198	0.161767
F295	F	1.927929	0.521198	0.411767
F296	F	2.177929	0.771198	0.661767
H297	H	1.575275	-0.003040	-0.088057
H298	H	1.825275	0.246960	0.161943
H299	H	2.075275	0.496960	0.411943
H300	H	2.325275	0.746960	0.661943
H301	H	1.103910	0.328579	0.087526
H302	H	1.353910	0.578579	0.337526
H303	H	1.603910	0.828579	0.587526
H304	H	1.853910	1.078579	0.837526
F305	F	0.890067	-0.002771	0.585257
F306	F	1.140067	0.247229	0.835257
F307	F	1.390067	0.497229	1.085257
F308	F	1.640067	0.747229	1.335257
H309	H	1.543971	-0.244208	0.060864
H310	H	1.793971	0.005792	0.310864
H311	H	2.043971	0.255792	0.560864
H312	H	2.293971	0.505792	0.810864
H313	H	0.905271	-0.012846	0.424078
H314	H	1.155271	0.237154	0.674078
H315	H	1.405271	0.487154	0.924078
H316	H	1.655271	0.737154	1.174078
H317	H	0.859490	0.440293	-0.060657
H318	H	1.109490	0.690293	0.189343
H319	H	1.359490	0.940293	0.439343
H320	H	1.609490	1.190293	0.689343
F321	F	1.409298	-0.108945	-0.166108
F322	F	1.659298	0.141055	0.083892
F323	F	1.909298	0.391055	0.333892
F324	F	2.159298	0.641055	0.583892
H325	H	0.859626	0.441349	0.059863
H326	H	1.109626	0.691349	0.309863
H327	H	1.359626	0.941349	0.559863
H328	H	1.609626	1.191349	0.809863
H329	H	1.016540	0.026078	0.422756
H330	H	1.266540	0.276078	0.672756
H331	H	1.516540	0.526078	0.922756
H332	H	1.766540	0.776078	1.172756
H333	H	1.419137	-0.101371	0.147051
H334	H	1.669137	0.148629	0.397051
H335	H	1.919137	0.398629	0.647051
H336	H	2.169137	0.648629	0.897051
H337	H	1.431077	-0.000690	0.089803
H338	H	1.681077	0.249310	0.339803
H339	H	1.931077	0.499310	0.589803
H340	H	2.181077	0.749310	0.839803
H341	H	0.861974	0.297200	0.060612
H342	H	1.111974	0.547200	0.310612
H343	H	1.361974	0.797200	0.560612
H344	H	1.611974	1.047200	0.810612
