data_functionalizedCrystal
_audit_creation_method	'MofGen! by Chris Wilmer'
_symmetry_space_group_name_H-M	'P1'
_symmetry_Int_Tables_number	1
_symmetry_cell_setting	triclinic
loop_
_symmetry_equiv_pos_as_xyz
  x,y,z
_cell_length_a	14.971486
_cell_length_b	14.044220
_cell_length_c	13.448316
_cell_angle_alpha	89.992660
_cell_angle_beta	89.998199
_cell_angle_gamma	88.401503
loop_
_atom_site_label
_atom_site_type_symbol
_atom_site_fract_x
_atom_site_fract_y
_atom_site_fract_z
O1	O	1.196679	0.123538	-0.082579
O2	O	1.696679	0.623538	0.417421
O3	O	0.937445	0.138332	-0.082607
O4	O	1.437445	0.638332	0.417393
O5	O	1.063171	-0.007054	-0.082584
O6	O	1.563171	0.492946	0.417416
O7	O	1.070953	0.268924	-0.082602
O8	O	1.570953	0.768924	0.417398
O9	O	1.063153	-0.007063	0.082800
O10	O	1.563153	0.492937	0.582800
O11	O	0.937427	0.138323	0.082777
O12	O	1.437427	0.638323	0.582777
O13	O	1.196661	0.123529	0.082804
O14	O	1.696661	0.623529	0.582804
Cu15	Cu	1.067042	0.130925	0.097892
Cu16	Cu	1.567042	0.630925	0.597892
Cu17	Cu	1.067064	0.130936	-0.097694
Cu18	Cu	1.567064	0.630936	0.402306
O19	O	1.070935	0.268915	0.082781
O20	O	1.570935	0.768915	0.582781
C21	C	0.904059	0.137666	0.000082
C22	C	1.404059	0.637666	0.500082
C23	C	0.804606	0.135683	0.000072
C24	C	1.304606	0.635683	0.500072
C25	C	0.754109	0.221093	0.000067
C26	C	1.254109	0.721093	0.500067
C27	C	0.660662	0.219225	0.000082
C28	C	1.160662	0.719225	0.500082
C29	C	0.617714	0.131945	0.000094
C30	C	1.117714	0.631945	0.500094
C31	C	0.668218	0.046528	0.000102
C32	C	1.168218	0.546528	0.500102
C33	C	0.761663	0.048398	0.000094
C34	C	1.261663	0.548398	0.500094
C35	C	0.473449	0.042638	0.000116
C36	C	0.973449	0.542638	0.500116
C37	C	0.379997	0.040767	0.000122
C38	C	0.879997	0.540767	0.500122
C39	C	0.372448	0.213465	0.000104
C40	C	0.872448	0.713465	0.500104
C41	C	0.465893	0.215334	0.000096
C42	C	0.965893	0.715334	0.500096
C43	C	0.516390	0.129917	0.000102
C44	C	1.016390	0.629917	0.500102
C45	C	1.059755	-0.042377	0.000108
C46	C	1.559755	0.457623	0.500108
C47	C	1.049594	-0.147614	0.000108
C48	C	1.549594	0.352386	0.500108
C49	C	1.031018	-0.340297	0.000092
C50	C	1.531018	0.159703	0.500092
C51	C	1.103085	-0.397848	0.000097
C52	C	1.603085	0.102152	0.500097
C53	C	1.092748	-0.505063	0.000088
C54	C	1.592748	-0.005063	0.500088
C55	C	1.041353	-0.233071	0.000101
C56	C	1.541353	0.266929	0.500101
C57	C	1.230047	0.124195	0.000114
C58	C	1.730047	0.624195	0.500114
C59	C	1.329501	0.126178	0.000117
C60	C	1.829501	0.626178	0.500117
C61	C	1.074351	0.304238	0.000087
C62	C	1.574351	0.804238	0.500087
C63	C	1.084512	0.409475	0.000080
C64	C	1.584512	0.909475	0.500080
N65	N	1.067034	0.130917	0.235456
N66	N	1.567034	0.630917	0.735456
N67	N	1.067079	0.130936	-0.235258
N68	N	1.567079	0.630936	0.264742
C69	C	1.122727	0.066567	0.287506
C70	C	1.622727	0.566567	0.787506
C71	C	1.122732	0.066566	0.391610
C72	C	1.622732	0.566566	0.891610
C73	C	1.067049	0.130921	0.443660
C74	C	1.567049	0.630921	0.943660
C75	C	1.011350	0.195274	0.391603
C76	C	1.511350	0.695274	0.891603
C77	C	1.011341	0.195270	0.287501
C78	C	1.511341	0.695270	0.787501
C79	C	1.011376	0.195281	0.608583
C80	C	1.511376	0.695281	1.108583
C81	C	1.011386	0.195287	0.712691
C82	C	1.511386	0.695287	1.212691
C83	C	1.122767	0.066577	0.712691
C84	C	1.622767	0.566577	1.212691
C85	C	1.122757	0.066572	0.608590
C86	C	1.622757	0.566572	1.108590
C87	C	1.067060	0.130927	0.556539
C88	C	1.567060	0.630927	1.056539
H89	H	0.500859	0.286405	0.000077
H90	H	1.000859	0.786405	0.500077
H91	H	0.619551	0.288775	0.000077
H92	H	1.119551	0.788775	0.500077
C93	C	0.950083	0.266059	0.230246
C94	C	1.450083	0.766059	0.730246
H95	H	0.916927	0.304394	0.276153
H96	H	1.416927	0.804394	0.776153
H97	H	0.910124	0.231891	0.189647
H98	H	1.410124	0.731891	0.689647
H99	H	0.985411	0.305579	0.189625
H100	H	1.485411	0.805579	0.689625
H101	H	0.331329	0.283015	0.000104
H102	H	0.831329	0.783015	0.500104
H103	H	0.966042	0.247690	0.755066
H104	H	1.466042	0.747690	1.255066
H105	H	0.345032	-0.030303	0.000133
H106	H	0.845032	0.469697	0.500133
H107	H	0.514561	-0.026919	0.000122
H108	H	1.014561	0.473081	0.500122
H109	H	0.633242	-0.024537	0.000126
H110	H	1.133242	0.475463	0.500126
C111	C	0.817209	-0.045553	0.000089
C112	C	1.317209	0.454447	0.500089
H113	H	0.778249	-0.097802	0.000086
H114	H	1.278249	0.402198	0.500086
H115	H	0.853824	-0.048420	0.057757
H116	H	1.353824	0.451580	0.557757
H117	H	0.853814	-0.048407	-0.057596
H118	H	1.353814	0.451593	0.442404
C119	C	0.950113	0.266074	0.551329
C120	C	1.450113	0.766074	1.051329
H121	H	0.916959	0.304410	0.597236
H122	H	1.416959	0.804410	1.097236
H123	H	0.910153	0.231911	0.510727
H124	H	1.410153	0.731911	1.010727
H125	H	0.985445	0.305592	0.510711
H126	H	1.485445	0.805592	1.010711
C127	C	1.183984	-0.004216	0.230255
C128	C	1.683984	0.495784	0.730255
H129	H	1.176012	0.005003	0.160800
H130	H	1.676012	0.505003	0.660800
H131	H	1.169234	-0.067503	0.247326
H132	H	1.669234	0.432497	0.747326
H133	H	1.244509	0.006198	0.247310
H134	H	1.744509	0.506198	0.747310
C135	C	1.196921	-0.355639	0.000129
C136	C	1.696921	0.144361	0.500129
H137	H	1.191651	-0.288070	0.000145
H138	H	1.691651	0.211930	0.500145
H139	H	1.228518	-0.376383	-0.057535
H140	H	1.728518	0.123617	0.442465
H141	H	1.228478	-0.376411	0.057818
H142	H	1.728478	0.123589	0.557818
C143	C	0.937188	-0.382506	0.000090
C144	C	1.437188	0.117494	0.500090
H145	H	0.942464	-0.450075	0.000096
H146	H	1.442464	0.049925	0.500096
H147	H	0.905606	-0.361743	-0.057579
H148	H	1.405606	0.138257	0.442421
H149	H	0.905612	-0.361760	0.057774
H150	H	1.405612	0.138240	0.557774
H151	H	1.168080	0.014166	0.433989
H152	H	1.668080	0.514166	0.933989
C153	C	1.184006	-0.004217	0.551335
C154	C	1.684006	0.495783	1.051335
H155	H	1.217173	-0.042550	0.597242
H156	H	1.717173	0.457450	1.097242
H157	H	1.223956	0.029948	0.510710
H158	H	1.723956	0.529948	1.010710
H159	H	1.148668	-0.043738	0.510741
H160	H	1.648668	0.456262	1.010741
C161	C	1.184026	-0.004220	0.769942
C162	C	1.684026	0.495780	1.269942
H163	H	1.176050	0.004989	0.839396
H164	H	1.676050	0.504989	1.339396
H165	H	1.244547	0.006179	0.752875
H166	H	1.744547	0.506179	1.252875
H167	H	1.169259	-0.067507	0.752889
H168	H	1.669259	0.432493	1.252889
H169	H	0.966007	0.247670	0.433988
H170	H	1.466007	0.747670	0.933988
C171	C	0.801344	0.317103	0.000053
C172	C	1.301344	0.817103	0.500053
H173	H	0.757882	0.367701	0.000062
H174	H	1.257882	0.867701	0.500062
H175	H	0.837638	0.321427	-0.057623
H176	H	1.337638	0.821427	0.442377
H177	H	0.837640	0.321418	0.057731
H178	H	1.337640	0.821418	0.557731
