data_functionalizedCrystal
_audit_creation_method	'MofGen! by Chris Wilmer'
_symmetry_space_group_name_H-M	'P1'
_symmetry_Int_Tables_number	1
_symmetry_cell_setting	triclinic
loop_
_symmetry_equiv_pos_as_xyz
  x,y,z
_cell_length_a	10.654550
_cell_length_b	11.026607
_cell_length_c	9.730223
_cell_angle_alpha	89.996765
_cell_angle_beta	89.998369
_cell_angle_gamma	96.535460
loop_
_atom_site_label
_atom_site_type_symbol
_atom_site_fract_x
_atom_site_fract_y
_atom_site_fract_z
O1	O	0.526876	1.614598	-0.114259
O2	O	0.466880	1.260787	-0.114268
O3	O	0.315905	1.445827	-0.114258
O4	O	0.677851	1.429557	-0.114269
O5	O	0.315902	1.445810	0.114322
O6	O	0.466878	1.260770	0.114312
O7	O	0.526873	1.614581	0.114321
Zn8	Zn	0.496875	1.437673	0.150608
Zn9	Zn	0.496878	1.437695	-0.150556
O10	O	0.677849	1.429541	0.114311
C11	C	0.268846	1.444624	0.000030
C12	C	0.128627	1.441050	0.000025
C13	C	0.455811	1.215474	0.000021
C14	C	0.422816	1.080483	0.000018
C15	C	0.537943	1.659893	0.000029
C16	C	0.570937	1.794885	0.000023
C17	C	0.072791	1.549999	0.000032
C18	C	-0.058961	1.546633	0.000022
C19	C	-0.079029	1.325361	0.000005
C20	C	0.052720	1.328727	0.000005
C21	C	0.148697	1.662322	0.000052
C22	C	0.092862	1.771279	0.000061
C23	C	-0.038890	1.767914	0.000051
C24	C	-0.114805	1.655590	0.000033
C25	C	0.724907	1.430744	0.000020
C26	C	0.865126	1.434318	0.000016
N27	N	0.496874	1.437667	0.356145
C28	C	0.479834	1.867924	0.000023
C29	C	0.513933	2.007445	0.000017
N30	N	0.496872	1.437711	-0.356092
C31	C	0.563686	1.355720	0.428102
C32	C	0.563689	1.355745	0.571985
C33	C	0.430058	1.519666	0.571941
C34	C	0.430063	1.519647	0.428061
C35	C	0.630497	1.273741	0.356186
C36	C	0.697313	1.191786	0.428143
C37	C	0.697316	1.191811	0.572026
C38	C	0.630503	1.273789	0.643952
H39	H	0.255977	1.665074	0.000064
O40	O	0.762037	1.112157	0.642079
C41	C	0.751158	0.946314	0.804499
C42	C	0.677717	1.036480	0.725280
H43	H	0.683014	0.885089	0.871764
H44	H	0.825886	0.999266	0.871939
H45	H	0.798945	0.887778	0.728352
H46	H	0.629853	1.095038	0.801327
H47	H	0.603060	0.983453	0.657819
H48	H	0.674178	1.835645	0.000026
O49	O	0.364963	1.599229	0.641658
C50	C	0.162308	1.668576	0.685730
C51	C	0.235887	1.578427	0.606667
H52	H	0.057933	1.651772	0.657491
H53	H	0.200670	1.766116	0.657403
H54	H	0.173848	1.654522	0.800917
H55	H	0.224378	1.592370	0.491462
H56	H	0.197509	1.480920	0.635108
O57	O	0.299575	2.032077	0.000085
C58	C	0.081878	2.072026	0.000005
C59	C	0.221391	2.127006	-0.000038
H60	H	0.018627	2.148749	-0.000123
H61	H	0.061794	2.013348	0.095692
H62	H	0.061931	2.013264	-0.095629
H63	H	0.241437	2.185825	0.095531
H64	H	0.241405	2.185614	-0.095788
H65	H	0.375660	1.586376	0.369473
H66	H	0.630521	1.273810	0.761111
H67	H	0.154681	1.862729	0.000041
O68	O	0.630675	1.273593	0.216420
C69	C	0.703924	1.183563	0.009966
C70	C	0.703857	1.183619	0.168247
H71	H	0.763063	1.110810	-0.029030
H72	H	0.745799	1.276935	-0.029199
H73	H	0.602869	1.162849	-0.029053
H74	H	0.804874	1.204282	0.207384
H75	H	0.661909	1.090240	0.207318
H76	H	-0.084347	1.856632	0.000044
H77	H	-0.222086	1.652859	0.000010
H78	H	0.751719	1.125049	0.369574
H79	H	0.617181	2.048200	0.000020
H80	H	-0.140850	1.233912	-0.000008
H81	H	0.376592	1.827164	0.000050
H82	H	0.098182	1.240012	0.000001
