data_functionalizedCrystal
_audit_creation_method	'MofGen! by Chris Wilmer'
_symmetry_space_group_name_H-M	'P1'
_symmetry_Int_Tables_number	1
_symmetry_cell_setting	triclinic
loop_
_symmetry_equiv_pos_as_xyz
  x,y,z
_cell_length_a	28.938199
_cell_length_b	28.937346
_cell_length_c	28.934044
_cell_angle_alpha	60.005004
_cell_angle_beta	60.009897
_cell_angle_gamma	59.994060
loop_
_atom_site_label
_atom_site_type_symbol
_atom_site_fract_x
_atom_site_fract_y
_atom_site_fract_z
O1	O	0.064043	-0.675186	0.564597
O2	O	0.024124	-0.525682	0.454913
O3	O	0.118795	-0.620275	0.454833
O4	O	-0.030629	-0.580593	0.564678
O5	O	0.150204	-0.588870	0.486157
O6	O	0.055533	-0.494276	0.486238
O7	O	0.095452	-0.643780	0.595921
Cu8	Cu	0.078360	-0.566161	0.543940
Cu9	Cu	0.041215	-0.603301	0.506895
O10	O	0.000780	-0.549187	0.596002
N11	N	0.104487	-0.540042	0.569998
N12	N	0.015094	-0.629425	0.480837
C13	C	0.165467	-0.323909	0.630915
C14	C	0.165587	-0.479117	0.786068
C15	C	0.165481	-0.479095	0.630906
C16	C	0.320696	-0.479083	0.630835
C17	C	0.182557	-0.375118	0.647971
C18	C	0.182626	-0.462038	0.734858
C19	C	0.269485	-0.462018	0.647928
C20	C	0.182566	-0.462025	0.647966
C21	C	0.143714	-0.258726	0.609206
C22	C	0.143738	-0.500820	0.609192
C23	C	0.204309	-0.440300	0.669680
C24	C	0.415481	-0.462740	0.580919
C25	C	0.474732	-0.482485	0.561145
C26	C	0.474757	-0.578356	0.597704
C27	C	0.415508	-0.558609	0.617479
C28	C	0.157989	-0.229089	0.550957
C29	C	0.138212	-0.169834	0.531225
C30	C	0.089890	-0.169857	0.627992
C31	C	0.109667	-0.229112	0.647725
C32	C	0.085482	-0.486515	0.623535
C33	C	0.065722	-0.506265	0.603789
C34	C	0.162467	-0.554625	0.555370
C35	C	0.182230	-0.534875	0.575110
C36	C	0.085661	-0.486557	0.880902
C37	C	0.065952	-0.506323	0.940155
C38	C	0.162734	-0.554693	0.940102
C39	C	0.182441	-0.534928	0.880847
C40	C	0.143904	-0.500859	0.851249
C41	C	0.385871	-0.500801	0.609083
C42	C	-0.110907	-0.668480	0.441278
C43	C	-0.024049	-0.668588	0.441475
C44	C	-0.045729	-0.690282	0.419668
C45	C	-0.062146	-0.785032	0.469507
C46	C	-0.042446	-0.844287	0.489286
C47	C	0.053426	-0.844399	0.452899
C48	C	0.033725	-0.785144	0.433120
C49	C	-0.140617	-0.682751	0.499509
C50	C	-0.199867	-0.662928	0.519152
C51	C	-0.199694	-0.614571	0.422330
C52	C	-0.140443	-0.634393	0.402687
C53	C	-0.038320	-0.610337	0.427144
C54	C	-0.018610	-0.590621	0.446974
C55	C	0.029642	-0.687402	0.495454
C56	C	0.009933	-0.707121	0.475630
C57	C	-0.038148	-0.610347	0.324832
C58	C	-0.018301	-0.590634	0.265579
C59	C	0.030035	-0.687421	0.265643
C60	C	0.010190	-0.707133	0.324897
C61	C	-0.023903	-0.668595	0.354491
C62	C	-0.024062	-0.755463	0.441426
N63	N	0.503527	-0.540005	0.569810
O64	O	0.684453	-0.545211	0.434650
O65	O	0.684643	-0.655237	0.584005
O66	O	0.684567	-0.654986	0.489282
O67	O	0.684529	-0.545462	0.529373
O68	O	0.590438	-0.623674	0.520735
O69	O	0.590513	-0.623924	0.615457
O70	O	0.590323	-0.513899	0.466102
Cu71	Cu	0.581823	-0.566053	0.543652
Cu72	Cu	0.693143	-0.603083	0.506456
O73	O	0.590399	-0.514149	0.560825
N74	N	0.771439	-0.629131	0.480292
N75	N	0.104456	-0.141061	0.570015
O76	O	-0.030629	0.039964	0.564688
O77	O	0.118732	0.039984	0.454661
O78	O	0.023980	0.039958	0.454946
O79	O	0.064123	0.039990	0.564403
O80	O	0.055392	-0.054179	0.486321
O81	O	0.150144	-0.054153	0.486036
O82	O	0.000784	-0.054173	0.596063
Cu83	Cu	0.078332	-0.062759	0.543914
Cu84	Cu	0.041183	0.048570	0.506810
O85	O	0.095535	-0.054147	0.595778
N86	N	0.015053	0.126872	0.480710
N87	N	0.104760	-0.540096	0.968910
O88	O	0.099447	-0.675167	1.149923
O89	O	-0.010552	-0.525757	1.149951
O90	O	-0.010297	-0.620493	1.149918
O91	O	0.099192	-0.580431	1.149956
O92	O	0.021064	-0.589100	1.055785
O93	O	0.020809	-0.494365	1.055818
O94	O	0.130808	-0.643774	1.055790
Cu95	Cu	0.078672	-0.566203	1.047209
Cu96	Cu	0.041584	-0.603328	1.158532
O97	O	0.130553	-0.549038	1.055823
N98	N	0.015495	-0.629442	1.236831
C99	C	0.036087	-0.491140	0.455465
C100	C	0.153325	-0.608283	0.455364
C101	C	0.083488	-0.678322	0.595370
C102	C	-0.033750	-0.561180	0.595470
C103	C	0.637601	-0.654732	0.618548
C104	C	0.637509	-0.654422	0.501245
C105	C	0.637362	-0.514403	0.431560
C106	C	0.637458	-0.514713	0.548862
C107	C	0.153215	-0.006966	0.455158
C108	C	0.035916	-0.007114	0.455550
C109	C	-0.033739	-0.007106	0.595527
C110	C	0.083600	-0.007076	0.595174
C111	C	-0.010020	-0.491238	1.102888
C112	C	-0.009698	-0.608550	1.102828
C113	C	0.130276	-0.678293	1.102853
C114	C	0.129961	-0.560974	1.102892
H115	H	0.054276	-0.458811	0.856808
H116	H	0.092017	-0.721269	0.629819
O117	O	0.025766	-0.007203	0.414502
C118	C	0.064561	-0.055967	0.399287
H119	H	0.103795	-0.072208	0.410561
H120	H	0.044056	-0.090113	0.423187
C121	C	0.033453	-0.021220	0.321306
C122	C	0.081643	-0.041165	0.335148
H123	H	0.043988	-0.012091	0.281743
H124	H	0.007315	0.011632	0.331557
H125	H	0.016370	-0.049679	0.341227
H126	H	0.098721	-0.012704	0.315233
H127	H	0.107785	-0.074013	0.324892
H128	H	-0.044554	-0.448327	1.102896
H129	H	-0.076633	-0.007113	0.630069
O130	O	0.637550	-0.695542	0.491100
C131	C	0.637604	-0.744394	0.539694
H132	H	0.655448	-0.743901	0.566704
H133	H	0.592463	-0.745103	0.565267
C134	C	0.652621	-0.798068	0.488566
C135	C	0.674542	-0.797466	0.521739
H136	H	0.675404	-0.830805	0.477492
H137	H	0.652583	-0.765155	0.455828
H138	H	0.615004	-0.798656	0.509882
H139	H	0.712156	-0.796870	0.500421
H140	H	0.674588	-0.830379	0.554473
H141	H	0.637300	-0.479859	0.388668
O142	O	-0.118291	-0.756289	0.477583
C143	C	-0.147679	-0.795098	0.506614
H144	H	-0.117271	-0.837362	0.499829
H145	H	-0.166184	-0.801362	0.553754
C146	C	-0.233210	-0.720030	0.492147
C147	C	-0.195863	-0.771937	0.483809
H148	H	-0.262934	-0.705743	0.478082
H149	H	-0.213412	-0.693883	0.472590
H150	H	-0.248624	-0.725257	0.531431
H151	H	-0.180444	-0.766709	0.444526
H152	H	-0.215660	-0.798083	0.503359
O153	O	0.093955	-0.007101	0.636150
C154	C	0.149586	-0.007080	0.615516
H155	H	0.176347	-0.024894	0.579178
H156	H	0.148744	0.038084	0.599731
C157	C	0.142475	-0.022121	0.708016
C158	C	0.175344	-0.044005	0.663388
H159	H	0.158363	-0.044896	0.737546
H160	H	0.104994	-0.022133	0.721917
H161	H	0.141776	0.015516	0.694855
H162	H	0.176037	-0.081638	0.676548
H163	H	0.212826	-0.044000	0.649490
O164	O	-0.084971	-0.550992	0.636570
C165	C	-0.120150	-0.495382	0.616107
H166	H	-0.092896	-0.468503	0.579754
H167	H	-0.148737	-0.496244	0.600393
C168	C	-0.190247	-0.502793	0.708734
C169	C	-0.156774	-0.469779	0.664088
H170	H	-0.212841	-0.487000	0.738332
H171	H	-0.166548	-0.540260	0.722521
H172	H	-0.214065	-0.503509	0.695632
H173	H	-0.132952	-0.469069	0.677189
H174	H	-0.180470	-0.432311	0.650305
H175	H	0.018524	-0.494668	0.964293
H176	H	0.196022	-0.006699	0.420530
O177	O	-0.050647	-0.618839	1.102741
C178	C	-0.030030	-0.674478	1.102725
H179	H	0.018180	-0.689385	1.084935
H180	H	-0.044362	-0.703765	1.147872
C181	C	-0.112484	-0.657246	1.087601
C182	C	-0.053272	-0.675553	1.065747
H183	H	-0.126823	-0.657910	1.064793
H184	H	-0.126376	-0.619761	1.087614
H185	H	-0.124421	-0.681654	1.125223
H186	H	-0.041337	-0.651140	1.028128
H187	H	-0.039379	-0.713034	1.065726
H188	H	0.027560	-0.448192	0.421017
O189	O	0.171409	-0.729523	1.102866
C190	C	0.151043	-0.764736	1.102831
H191	H	0.102833	-0.749405	1.120653
H192	H	0.165423	-0.763197	1.057665
C193	C	0.233706	-0.844820	1.117844
C194	C	0.174494	-0.825993	1.139737
H195	H	0.248174	-0.882607	1.140607
H196	H	0.247429	-0.821096	1.117865
H197	H	0.245683	-0.843533	1.080205
H198	H	0.162519	-0.827274	1.177372
H199	H	0.160770	-0.849719	1.139723
H200	H	0.164358	-0.552401	1.102897
O201	O	0.200246	-0.587800	0.968766
C202	C	0.255880	-0.596173	0.929887
H203	H	0.255743	-0.589539	0.887655
H204	H	0.272853	-0.564638	0.923585
C205	C	0.294074	-0.665029	1.004851
C206	C	0.293907	-0.656886	0.952982
H207	H	0.317532	-0.702478	1.019097
H208	H	0.256593	-0.659387	1.031045
H209	H	0.308217	-0.638745	0.999592
H210	H	0.279757	-0.683164	0.958242
H211	H	0.331387	-0.662534	0.926789
O212	O	0.239017	-0.548889	0.852018
C213	C	0.253317	-0.578700	0.817730
H214	H	0.219921	-0.598756	0.835598
H215	H	0.255255	-0.548225	0.772831
C216	C	0.352451	-0.600707	0.794844
C217	C	0.311436	-0.625344	0.816792
H218	H	0.388303	-0.629477	0.794263
H219	H	0.342817	-0.580621	0.817943
H220	H	0.354059	-0.575311	0.757430
H221	H	0.309824	-0.650733	0.854208
H222	H	0.321071	-0.645435	0.793699
O223	O	0.637688	-0.695888	0.669744
C224	C	0.637686	-0.675502	0.704970
H225	H	0.655465	-0.639147	0.677756
H226	H	0.592536	-0.659813	0.733580
C227	C	0.652820	-0.768189	0.774991
C228	C	0.674661	-0.723540	0.741565
H229	H	0.675626	-0.797821	0.797566
H230	H	0.652820	-0.781923	0.751259
H231	H	0.615195	-0.755107	0.798827
H232	H	0.712282	-0.736621	0.717724
H233	H	0.674669	-0.709809	0.765293
O234	O	0.637545	-0.473681	0.559032
C235	C	0.686252	-0.458404	0.520197
H236	H	0.720334	-0.494650	0.503579
H237	H	0.675174	-0.418986	0.483372
C238	C	0.666520	-0.401483	0.570381
C239	C	0.708382	-0.446003	0.549973
H240	H	0.680170	-0.393831	0.588746
H241	H	0.633704	-0.411774	0.596543
H242	H	0.657293	-0.368640	0.539689
H243	H	0.717604	-0.478847	0.580665
H244	H	0.741200	-0.435718	0.523816
H245	H	-0.065911	-0.578960	0.348925
H246	H	0.018285	-0.494604	0.615454
O247	O	0.048014	-0.453417	0.656611
C248	C	-0.007641	-0.445034	0.665040
H249	H	-0.007557	-0.451649	0.629322
H250	H	-0.024591	-0.476578	0.707251
C251	C	-0.045753	-0.376208	0.709350
C252	C	-0.045651	-0.384328	0.665477
H253	H	-0.069201	-0.338762	0.709622
H254	H	-0.008258	-0.381857	0.703673
H255	H	-0.059877	-0.402499	0.744520
H256	H	-0.031520	-0.358042	0.630307
H257	H	-0.083145	-0.378673	0.671148
H258	H	0.229667	-0.546519	0.563426
O259	O	0.199888	-0.587624	0.522184
C260	C	0.234124	-0.557696	0.472492
H261	H	0.211228	-0.510291	0.464270
H262	H	0.275762	-0.570308	0.477858
C263	C	0.274324	-0.630227	0.432169
C264	C	0.246201	-0.572003	0.422067
H265	H	0.281776	-0.639053	0.401064
H266	H	0.251261	-0.650391	0.465647
H267	H	0.309019	-0.640729	0.436642
H268	H	0.211504	-0.561503	0.417602
H269	H	0.269259	-0.551837	0.388586
O270	O	0.386834	-0.595658	0.644805
C271	C	0.425703	-0.650915	0.647982
H272	H	0.467923	-0.648653	0.612973
H273	H	0.432036	-0.673535	0.690913
C274	C	0.350717	-0.686550	0.683747
C275	C	0.402572	-0.683773	0.640746
H276	H	0.336449	-0.706821	0.679287
H277	H	0.324530	-0.649323	0.681610
H278	H	0.356002	-0.705399	0.719520
H279	H	0.397286	-0.664918	0.604975
H280	H	0.428758	-0.720998	0.642877
H281	H	0.498841	-0.451490	0.538213
O282	O	0.503608	-0.634506	0.605888
C283	C	0.537900	-0.655041	0.638105
H284	H	0.546772	-0.618461	0.633460
H285	H	0.515092	-0.675458	0.684541
C286	C	0.583284	-0.744234	0.622551
C287	C	0.594185	-0.699306	0.616841
H288	H	0.618003	-0.771540	0.609436
H289	H	0.560180	-0.730400	0.600847
H290	H	0.564276	-0.761241	0.661248
H291	H	0.613186	-0.682295	0.578144
H292	H	0.617294	-0.713137	0.638538
O293	O	0.386753	-0.406561	0.572667
C294	C	0.401188	-0.375987	0.514164
H295	H	0.444202	-0.401875	0.490821
H296	H	0.367825	-0.367148	0.498030
C297	C	0.351088	-0.287763	0.532257
C298	C	0.403922	-0.319558	0.503587
H299	H	0.352772	-0.252954	0.525732
H300	H	0.341361	-0.308361	0.571672
H301	H	0.323291	-0.280403	0.518809
H302	H	0.431716	-0.326923	0.517041
H303	H	0.413654	-0.298959	0.464175
O304	O	0.191035	-0.257767	0.513463
C305	C	0.199400	-0.218900	0.457817
H306	H	0.163667	-0.176667	0.457943
H307	H	0.241604	-0.212588	0.440821
C308	C	0.243682	-0.293893	0.419670
C309	C	0.199792	-0.242023	0.419823
H310	H	0.243927	-0.308156	0.396232
H311	H	0.238049	-0.320079	0.457159
H312	H	0.278848	-0.288626	0.405508
H313	H	0.164627	-0.247292	0.433992
H314	H	0.205419	-0.215838	0.382336
H315	H	0.062174	-0.145744	0.659359
O316	O	0.095768	-0.257812	0.704327
C317	C	0.061462	-0.218964	0.734090
H318	H	0.069003	-0.176720	0.705832
H319	H	0.015052	-0.212671	0.746882
C320	C	0.067234	-0.293981	0.822199
C321	C	0.076499	-0.242097	0.787494
H322	H	0.076507	-0.308250	0.855142
H323	H	0.090345	-0.320154	0.802148
H324	H	0.028559	-0.288729	0.832853
H325	H	0.115175	-0.247350	0.776834
H326	H	0.053395	-0.215925	0.807544
O327	O	-0.032222	-0.534030	0.236862
C328	C	-0.066558	-0.504246	0.275692
H329	H	-0.088157	-0.532472	0.317905
H330	H	-0.039250	-0.491502	0.282066
C331	C	-0.085249	-0.416133	0.200625
C332	C	-0.111781	-0.450799	0.252471
H333	H	-0.113143	-0.383163	0.186302
H334	H	-0.062114	-0.436198	0.174465
H335	H	-0.062493	-0.405519	0.205944
H336	H	-0.134530	-0.461418	0.247151
H337	H	-0.134920	-0.430735	0.278631
O338	O	0.152102	-0.140979	0.474653
C339	C	0.181931	-0.106706	0.460320
H340	H	0.171264	-0.097835	0.499365
H341	H	0.229353	-0.129532	0.444035
C342	C	0.177967	-0.061311	0.365961
C343	C	0.164862	-0.050412	0.413916
H344	H	0.167440	-0.026587	0.337335
H345	H	0.157872	-0.084403	0.375616
H346	H	0.217485	-0.080334	0.352398
H347	H	0.125344	-0.031396	0.427483
H348	H	0.184950	-0.027315	0.404262
O349	O	0.023961	-0.763724	0.353682
C350	C	0.003738	-0.788299	0.339121
H351	H	-0.032753	-0.754529	0.322750
H352	H	0.039321	-0.807043	0.304768
C353	C	0.027696	-0.876916	0.411842
C354	C	-0.017127	-0.835441	0.391739
H355	H	0.014828	-0.905998	0.444298
H356	H	0.041323	-0.860361	0.421651
H357	H	0.057345	-0.892530	0.383210
H358	H	-0.046770	-0.819823	0.420369
H359	H	-0.030758	-0.851995	0.381937
O360	O	-0.032489	-0.534017	0.432969
C361	C	-0.066710	-0.504233	0.398574
H362	H	-0.059132	-0.532501	0.377029
H363	H	-0.113142	-0.491380	0.425825
C364	C	-0.060915	-0.416157	0.379757
C365	C	-0.051604	-0.450874	0.353291
H366	H	-0.051599	-0.383241	0.351826
H367	H	-0.037862	-0.436222	0.402931
H368	H	-0.099609	-0.405452	0.402465
H369	H	-0.012909	-0.461584	0.330589
H370	H	-0.074651	-0.430809	0.330112
H371	H	-0.116569	-0.710512	0.530934
O372	O	0.062627	-0.724911	0.528642
C373	C	0.071008	-0.780551	0.537020
H374	H	0.035316	-0.780400	0.530311
H375	H	0.113246	-0.797573	0.505540
C376	C	0.115157	-0.818724	0.606000
C377	C	0.071318	-0.818540	0.597765
H378	H	0.115351	-0.842159	0.643469
H379	H	0.109513	-0.781239	0.600354
H380	H	0.150351	-0.832908	0.579762
H381	H	0.036125	-0.804350	0.623997
H382	H	0.076956	-0.856024	0.603416
H383	H	-0.065985	-0.578958	0.399332
O384	O	0.070786	-0.756482	0.405784
C385	C	0.111057	-0.770996	0.356962
H386	H	0.113833	-0.814006	0.362301
H387	H	0.097738	-0.737646	0.318534
C388	C	0.165880	-0.720973	0.341772
C389	C	0.169293	-0.773802	0.348331
H390	H	0.201802	-0.722702	0.336447
H391	H	0.138748	-0.711193	0.374664
H392	H	0.154779	-0.693187	0.309750
H393	H	0.180387	-0.801585	0.380358
H394	H	0.196428	-0.783587	0.315445
O395	O	0.109543	-0.873260	0.444936
C396	C	0.117504	-0.907541	0.497869
H397	H	0.079960	-0.889646	0.531995
H398	H	0.120981	-0.952436	0.508120
C399	C	0.218331	-0.930495	0.453832
C400	C	0.172221	-0.908512	0.495745
H401	H	0.252084	-0.931097	0.452522
H402	H	0.212968	-0.907401	0.418170
H403	H	0.221220	-0.967905	0.462379
H404	H	0.169328	-0.871101	0.487194
H405	H	0.177585	-0.931600	0.531406
H406	H	0.021552	-0.754553	0.487300
O407	O	-0.228302	-0.581450	0.384768
C408	C	-0.189373	-0.573128	0.329156
H409	H	-0.147158	-0.579797	0.329348
H410	H	-0.183057	-0.604668	0.312172
C411	C	-0.264257	-0.504232	0.290859
C412	C	-0.212409	-0.512418	0.291093
H413	H	-0.278467	-0.466785	0.267378
H414	H	-0.290485	-0.509840	0.328325
H415	H	-0.258987	-0.530520	0.276707
H416	H	-0.217682	-0.486136	0.305252
H417	H	-0.186183	-0.506804	0.253628
O418	O	-0.079432	-0.873010	0.516495
C419	C	-0.064643	-0.907311	0.486482
H420	H	-0.038963	-0.889525	0.440430
H421	H	-0.038286	-0.952241	0.506230
C422	C	-0.150324	-0.929958	0.545792
C423	C	-0.118787	-0.908110	0.489229
H424	H	-0.183722	-0.930453	0.547488
H425	H	-0.160288	-0.906850	0.566014
H426	H	-0.128354	-0.967397	0.562242
H427	H	-0.140755	-0.870669	0.472783
H428	H	-0.108829	-0.931211	0.469005
H429	H	-0.224058	-0.674545	0.566571
O430	O	0.204480	-0.618375	0.414159
C431	C	0.197035	-0.612020	0.366471
H432	H	0.155572	-0.618242	0.380105
H433	H	0.195780	-0.567775	0.334472
C434	C	0.297530	-0.648799	0.322446
C435	C	0.246607	-0.656446	0.339191
H436	H	0.328109	-0.676201	0.305616
H437	H	0.302547	-0.653079	0.354573
H438	H	0.296477	-0.611926	0.295782
H439	H	0.247658	-0.693315	0.365860
H440	H	0.241592	-0.652173	0.307068
H441	H	-0.116252	-0.622767	0.355267
H442	H	0.057785	-0.718806	0.241554
