data_functionalizedCrystal
_audit_creation_method	'MofGen! by Chris Wilmer'
_symmetry_space_group_name_H-M	'P1'
_symmetry_Int_Tables_number	1
_symmetry_cell_setting	triclinic
loop_
_symmetry_equiv_pos_as_xyz
  x,y,z
_cell_length_a	19.805407
_cell_length_b	19.805405
_cell_length_c	21.395355
_cell_angle_alpha	89.980090
_cell_angle_beta	89.974508
_cell_angle_gamma	90.026410
loop_
_atom_site_label
_atom_site_type_symbol
_atom_site_fract_x
_atom_site_fract_y
_atom_site_fract_z
Zn1	Zn	1.034775	-0.269542	-0.354271
Zn2	Zn	1.034678	-0.382711	-0.249491
Zn3	Zn	0.921578	-0.269542	-0.249506
Zn4	Zn	0.921553	-0.382694	-0.354229
O5	O	0.978146	-0.326122	-0.301874
O6	O	1.129479	-0.284561	-0.340383
O7	O	1.019645	-0.367707	-0.161815
O8	O	0.936645	-0.174825	-0.263427
O9	O	1.129408	-0.367706	-0.263401
O10	O	1.019810	-0.174825	-0.340397
O11	O	0.936551	-0.284561	-0.161826
O12	O	0.826858	-0.284544	-0.263387
O13	O	0.936603	-0.367677	-0.441913
O14	O	0.826840	-0.367677	-0.340327
O15	O	1.019786	-0.284544	-0.441943
O16	O	1.019621	-0.477426	-0.263361
O17	O	0.936509	-0.477413	-0.340312
C18	C	0.802290	-0.326109	-0.301854
C19	C	0.727058	-0.326120	-0.301860
C20	C	0.691722	-0.369472	-0.341858
C21	C	0.621034	-0.369473	-0.341867
C22	C	0.585683	-0.326125	-0.301874
C23	C	0.621024	-0.282768	-0.261875
C24	C	0.691711	-0.282764	-0.261870
C25	C	0.335950	-0.282783	-0.261896
C26	C	0.265258	-0.282792	-0.261903
C27	C	0.265273	-0.369492	-0.341893
C28	C	0.335961	-0.369488	-0.341888
C29	C	0.371295	-0.326129	-0.301891
C30	C	0.447944	-0.326127	-0.301882
C31	C	0.509036	-0.326130	-0.301879
C32	C	0.978070	-0.501978	-0.301844
C33	C	0.978099	-0.577210	-0.301852
C34	C	1.021418	-0.612539	-0.261826
C35	C	1.021447	-0.683227	-0.261840
C36	C	0.978153	-0.718586	-0.301877
C37	C	0.934832	-0.683252	-0.341908
C38	C	0.934808	-0.612565	-0.341897
C39	C	0.934932	-0.968326	-0.341954
C40	C	0.934959	-1.039018	-0.341961
C41	C	1.021572	-1.038987	-0.261897
C42	C	1.021547	-0.968300	-0.261886
C43	C	0.978229	-0.932973	-0.301919
C44	C	0.978199	-0.856325	-0.301904
C45	C	0.978179	-0.795233	-0.301889
C46	C	1.154689	-0.326136	-0.301895
C47	C	1.229921	-0.326141	-0.301904
C48	C	0.978202	-0.326108	-0.465298
C49	C	0.978226	-0.326103	-0.534939
C50	C	0.978241	-0.149579	-0.301919
C51	C	0.978282	-0.074347	-0.301937
C52	C	1.021538	-0.282814	-0.567669
C53	C	1.021537	-0.282785	-0.633105
C54	C	0.978232	-0.326057	-0.665807
C55	C	0.934911	-0.369348	-0.633069
C56	C	0.934909	-0.369372	-0.567635
C57	C	0.972861	-0.387001	-0.769471
C58	C	0.972868	-0.386979	-0.834904
C59	C	0.978236	-0.325985	-0.867628
C60	C	0.983610	-0.265011	-0.834911
C61	C	0.983608	-0.265034	-0.769477
C62	C	0.978229	-0.326036	-0.736760
C63	C	1.021549	-0.282661	-0.971311
C64	C	1.021543	-0.282631	-1.036748
C65	C	0.934921	-0.369201	-1.036711
C66	C	0.934923	-0.369225	-0.971276
C67	C	0.978241	-0.325956	-0.938580
C68	C	0.978129	-0.326087	-0.139087
C69	C	0.978236	-0.325902	-0.069446
H70	H	0.236477	-0.247489	-0.229336
C71	C	0.374805	-0.235095	-0.217889
C72	C	0.423433	-0.181983	-0.245110
C73	C	0.462287	-0.134293	-0.201098
C74	C	0.452513	-0.139715	-0.129864
C75	C	0.403882	-0.192828	-0.102640
C76	C	0.365028	-0.240518	-0.146652
H77	H	0.430671	-0.177968	-0.297845
H78	H	0.498287	-0.094975	-0.221252
H79	H	0.481275	-0.104412	-0.097284
H80	H	0.396645	-0.196843	-0.049905
H81	H	0.329028	-0.279836	-0.126498
C82	C	0.730585	-0.235076	-0.217873
C83	C	0.720897	-0.158140	-0.223119
C84	C	0.759771	-0.110447	-0.179125
C85	C	0.808332	-0.139690	-0.129883
C86	C	0.818021	-0.216630	-0.124634
C87	C	0.779148	-0.264323	-0.168629
H88	H	0.684948	-0.136489	-0.259573
H89	H	0.752598	-0.053491	-0.183010
H90	H	0.837109	-0.104385	-0.097315
H91	H	0.853971	-0.238281	-0.088180
H92	H	0.786321	-0.321279	-0.164743
H93	H	0.899585	-0.712047	-0.374510
C94	C	0.730605	-0.417157	-0.385852
C95	C	0.779241	-0.387903	-0.435088
C96	C	0.818121	-0.435587	-0.479085
C97	C	0.808366	-0.512525	-0.473846
C98	C	0.759727	-0.541782	-0.424608
C99	C	0.720847	-0.494098	-0.380611
H100	H	0.786465	-0.330946	-0.438968
H101	H	0.854126	-0.413928	-0.515534
H102	H	0.837147	-0.547823	-0.506415
H103	H	0.752504	-0.598739	-0.420728
H104	H	0.684842	-0.515757	-0.344162
C105	C	1.069044	-0.573648	-0.217783
C106	C	1.122151	-0.524993	-0.244972
C107	C	1.169781	-0.486105	-0.200930
C108	C	1.164303	-0.495871	-0.129700
C109	C	1.111193	-0.544527	-0.102507
C110	C	1.063564	-0.583416	-0.146549
H111	H	1.126208	-0.517762	-0.297704
H112	H	1.209096	-0.450086	-0.221060
H113	H	1.199561	-0.467083	-0.097097
H114	H	1.107136	-0.551759	-0.049775
H115	H	1.024249	-0.619435	-0.126419
H116	H	0.968309	-0.436657	-0.742833
H117	H	0.899534	-0.583802	-0.374491
C118	C	0.887275	-0.416840	-0.935268
C119	C	0.887261	-0.416859	-0.863293
C120	C	0.839604	-0.464470	-0.827286
C121	C	0.791959	-0.512062	-0.863254
C122	C	0.791970	-0.512044	-0.935233
C123	C	0.839628	-0.464433	-0.971240
H124	H	0.922533	-0.381628	-0.836664
H125	H	0.839596	-0.464483	-0.774002
H126	H	0.756680	-0.547306	-0.836599
H127	H	0.756699	-0.547276	-0.961862
H128	H	0.839636	-0.464421	-1.024524
C129	C	1.069102	-0.722088	-0.217814
C130	C	1.116725	-0.683196	-0.173773
C131	C	1.164386	-0.722057	-0.129748
C132	C	1.164426	-0.799810	-0.129764
C133	C	1.116802	-0.838707	-0.173807
C134	C	1.069140	-0.799846	-0.217831
H135	H	1.116697	-0.625635	-0.173760
H136	H	1.199641	-0.693263	-0.097145
H137	H	1.199708	-0.828577	-0.097175
H138	H	1.116829	-0.896268	-0.173820
H139	H	1.033886	-0.828640	-0.250434
C140	C	1.069229	-1.077849	-0.217865
C141	C	1.069265	-1.155602	-0.217875
C142	C	1.116920	-1.194461	-0.173842
C143	C	1.164538	-1.155567	-0.129799
C144	C	1.164503	-1.077809	-0.129787
C145	C	1.116849	-1.038950	-0.173820
H146	H	1.034014	-1.184397	-0.250479
H147	H	1.116945	-1.252022	-0.173851
H148	H	1.199814	-1.184332	-0.097203
H149	H	1.199755	-1.049013	-0.097183
H150	H	1.116824	-0.981389	-0.173811
H151	H	0.236495	-0.404795	-0.374463
C152	C	0.887337	-1.077914	-0.386009
C153	C	0.839691	-1.039058	-0.430046
C154	C	0.792071	-1.077955	-0.474091
C155	C	0.792098	-1.155708	-0.474098
C156	C	0.839746	-1.194569	-0.430060
C157	C	0.887365	-1.155672	-0.386015
H158	H	0.839670	-0.981497	-0.430042
H159	H	0.756799	-1.049187	-0.506692
H160	H	0.756847	-1.184502	-0.506703
H161	H	0.839767	-1.252130	-0.430064
H162	H	0.922637	-1.184439	-0.353414
H163	H	0.899660	-0.939568	-0.374549
H164	H	0.899654	-0.404427	-1.063337
H165	H	1.056798	-0.939513	-0.229282
C166	C	1.069181	-0.235212	-0.531706
C167	C	1.063699	-0.158264	-0.540708
C168	C	1.111341	-0.110660	-0.504744
C169	C	1.164466	-0.140005	-0.459780
C170	C	1.169950	-0.216957	-0.450776
C171	C	1.122308	-0.264560	-0.486740
H172	H	1.024371	-0.136538	-0.573995
H173	H	1.107281	-0.053695	-0.511409
H174	H	1.199733	-0.104766	-0.433157
H175	H	1.209278	-0.238683	-0.417489
H176	H	1.126369	-0.321526	-0.480074
C177	C	0.887279	-0.416951	-0.669041
C178	C	0.892762	-0.493900	-0.660042
C179	C	0.845127	-0.541503	-0.696014
C180	C	0.792009	-0.512158	-0.740985
C181	C	0.786524	-0.435206	-0.749986
C182	C	0.834159	-0.387602	-0.714014
H183	H	0.932085	-0.515627	-0.626750
H184	H	0.849188	-0.598468	-0.689351
H185	H	0.756747	-0.547397	-0.767614
H186	H	0.747201	-0.413479	-0.783278
H187	H	0.830098	-0.330637	-0.720678
C188	C	1.069189	-0.235170	-0.669118
C189	C	1.116837	-0.187578	-0.633154
C190	C	1.164490	-0.139966	-0.669165
C191	C	1.164495	-0.139945	-0.741140
C192	C	1.116845	-0.187538	-0.777108
C193	C	1.069192	-0.235151	-0.741097
H194	H	1.116835	-0.187592	-0.579870
H195	H	1.199763	-0.104734	-0.642539
H196	H	1.199770	-0.104699	-0.767798
H197	H	1.116847	-0.187524	-0.830392
H198	H	1.033918	-0.270382	-0.767723
C199	C	0.989532	-0.197913	-0.870898
C200	C	0.989542	-0.197882	-0.942873
C201	C	0.995476	-0.130787	-0.978862
C202	C	1.001399	-0.063723	-0.942877
C203	C	1.001390	-0.063751	-0.870898
C204	C	0.995456	-0.130846	-0.834908
H205	H	0.985157	-0.247529	-0.969515
H206	H	0.995483	-0.130767	-1.032146
H207	H	1.005792	-0.014056	-0.969519
H208	H	1.005775	-0.014104	-0.844256
H209	H	0.995449	-0.130866	-0.781624
C210	C	0.966957	-0.454047	-0.870890
C211	C	0.966964	-0.454026	-0.942865
C212	C	0.961052	-0.521096	-0.978849
C213	C	0.955134	-0.588187	-0.942858
C214	C	0.955127	-0.588211	-0.870879
C215	C	0.961038	-0.521141	-0.834895
H216	H	0.971345	-0.404359	-0.969512
H217	H	0.961058	-0.521078	-1.032133
H218	H	0.950758	-0.637837	-0.969496
H219	H	0.950746	-0.637878	-0.844233
H220	H	0.961033	-0.521159	-0.781611
H221	H	0.592266	-0.404776	-0.374436
H222	H	0.364740	-0.404789	-0.374451
H223	H	0.592235	-0.247471	-0.229315
H224	H	0.987982	-0.215387	-0.742841
H225	H	1.056817	-0.247425	-0.944688
H226	H	1.056812	-0.247376	-1.063395
H227	H	0.899636	-0.404622	-0.540987
