data_functionalizedCrystal
_audit_creation_method	'MofGen! by Chris Wilmer'
_symmetry_space_group_name_H-M	'P1'
_symmetry_Int_Tables_number	1
_symmetry_cell_setting	triclinic
loop_
_symmetry_equiv_pos_as_xyz
  x,y,z
_cell_length_a	12.827893
_cell_length_b	16.959453
_cell_length_c	12.827885
_cell_angle_alpha	89.966028
_cell_angle_beta	89.980919
_cell_angle_gamma	90.019959
loop_
_atom_site_label
_atom_site_type_symbol
_atom_site_fract_x
_atom_site_fract_y
_atom_site_fract_z
Zn1	Zn	1.597636	-0.314644	-0.590813
Zn2	Zn	1.597516	-0.446843	-0.416060
Zn3	Zn	1.422878	-0.314682	-0.416087
Zn4	Zn	1.422849	-0.446784	-0.590761
O5	O	1.510220	-0.380738	-0.503430
O6	O	1.743856	-0.332189	-0.567642
O7	O	1.574312	-0.429352	-0.269828
O8	O	1.446122	-0.204066	-0.439298
O9	O	1.743768	-0.429315	-0.439252
O10	O	1.574516	-0.204038	-0.567668
O11	O	1.446006	-0.332254	-0.269847
O12	O	1.276638	-0.332197	-0.439247
O13	O	1.446073	-0.429215	-0.737004
O14	O	1.276617	-0.429252	-0.567580
O15	O	1.574488	-0.332132	-0.737042
O16	O	1.574284	-0.557446	-0.439202
O17	O	1.445957	-0.557403	-0.567554
C18	C	1.238710	-0.380723	-0.503411
C19	C	1.122557	-0.380736	-0.503428
C20	C	1.070729	-0.428723	-0.439812
C21	C	0.950678	-0.428737	-0.439828
C22	C	1.510133	-0.586105	-0.503392
C23	C	1.510191	-0.673961	-0.503411
C24	C	1.577160	-1.045364	-0.570399
C25	C	1.443571	-1.045510	-0.436617
C26	C	1.443532	-0.962964	-0.436593
C27	C	1.510307	-0.921614	-0.503474
C28	C	1.577121	-0.962810	-0.570379
C29	C	1.376712	-0.921762	-0.369697
C30	C	1.376670	-0.839211	-0.369671
C31	C	1.443451	-0.797860	-0.436547
C32	C	1.510269	-0.839061	-0.503454
C33	C	1.577044	-0.797711	-0.570336
C34	C	1.643867	-0.838910	-0.637238
C35	C	1.643903	-0.921459	-0.637256
C36	C	1.443416	-0.715311	-0.436530
C37	C	1.577005	-0.715157	-0.570316
C38	C	1.782790	-0.380754	-0.503450
C39	C	1.898943	-0.380761	-0.503458
C40	C	1.510291	-0.380662	-0.776001
C41	C	1.510321	-0.380630	-0.892154
C42	C	1.510336	-0.174570	-0.503492
C43	C	1.510385	-0.086714	-0.503518
C44	C	1.573872	-0.332581	-0.943958
C45	C	1.573905	-0.332546	-1.064008
C46	C	1.510209	-0.380757	-0.231920
C47	C	1.510381	-0.380567	-0.115768
H48	H	1.631386	-0.681495	-0.624775
Cl49	Cl	1.053854	-0.317323	-0.587544
Cl50	Cl	0.967744	-0.317321	-0.587548
H51	H	1.698231	-0.805233	-0.691698
Cl52	Cl	1.727896	-0.973257	-0.721358
H53	H	1.631569	-1.078912	-0.624866
H54	H	1.628317	-0.291412	-1.108558
Cl55	Cl	1.359615	-1.097493	-0.352558
Cl56	Cl	1.359415	-0.663521	-0.352433
Cl57	Cl	1.292663	-0.787425	-0.285569
H58	H	1.322345	-0.955435	-0.315249
H59	H	1.628252	-0.291467	-0.899432
Cl60	Cl	1.426377	-0.444089	-1.046999
H61	H	1.455930	-0.421736	-0.936680
H62	H	1.115233	-0.469799	-0.385340
H63	H	0.906108	-0.469819	-0.385362
