data_functionalizedCrystal
_audit_creation_method	'MofGen! by Chris Wilmer'
_symmetry_space_group_name_H-M	'P1'
_symmetry_Int_Tables_number	1
_symmetry_cell_setting	triclinic
loop_
_symmetry_equiv_pos_as_xyz
  x,y,z
_cell_length_a	19.288864
_cell_length_b	13.339070
_cell_length_c	18.366186
_cell_angle_alpha	89.997828
_cell_angle_beta	89.977106
_cell_angle_gamma	99.382770
loop_
_atom_site_label
_atom_site_type_symbol
_atom_site_fract_x
_atom_site_fract_y
_atom_site_fract_z
O1	O	0.945923	0.126087	-0.060787
O2	O	1.445923	0.626087	0.439213
O3	O	0.746977	0.143095	-0.060738
O4	O	1.246977	0.643095	0.439262
O5	O	0.823618	-0.012569	-0.060755
O6	O	1.323618	0.487431	0.439245
O7	O	0.869283	0.281750	-0.060770
O8	O	1.369283	0.781750	0.439230
O9	O	0.823598	-0.012576	0.060345
O10	O	1.323598	0.487424	0.560345
O11	O	0.746958	0.143088	0.060362
O12	O	1.246958	0.643088	0.560362
O13	O	0.945904	0.126079	0.060312
O14	O	1.445904	0.626079	0.560312
Zn15	Zn	0.846427	0.134582	0.079564
Zn16	Zn	1.346427	0.634582	0.579564
Zn17	Zn	0.846453	0.134592	-0.079989
Zn18	Zn	1.346453	0.634592	0.420011
O19	O	0.869263	0.281743	0.060329
O20	O	1.369263	0.781743	0.560329
C21	C	0.720984	0.142544	-0.000182
C22	C	1.220984	0.642544	0.499818
C23	C	0.643560	0.140901	-0.000162
C24	C	1.143560	0.640901	0.499838
C25	C	0.616663	0.232238	-0.000179
C26	C	1.116663	0.732238	0.499821
C27	C	0.543915	0.230694	-0.000187
C28	C	1.043915	0.730694	0.499813
C29	C	0.498067	0.137809	-0.000193
C30	C	0.998067	0.637809	0.499807
C31	C	0.524972	0.046461	-0.000173
C32	C	1.024972	0.546461	0.499827
C33	C	0.597719	0.048007	-0.000157
C34	C	1.097719	0.548007	0.499843
C35	C	0.375583	0.064794	-0.042640
C36	C	0.875583	0.564794	0.457360
C37	C	0.302838	0.063252	-0.042660
C38	C	0.802838	0.563252	0.457340
C39	C	0.273691	0.133037	-0.000237
C40	C	0.773691	0.633037	0.499763
C41	C	0.317301	0.204382	0.042197
C42	C	0.817301	0.704382	0.542197
C43	C	0.390048	0.205928	0.042212
C44	C	0.890048	0.705928	0.542212
C45	C	0.419184	0.136123	-0.000209
C46	C	0.919184	0.636123	0.499791
C47	C	0.167913	0.222706	-0.000261
C48	C	0.667913	0.722706	0.499739
C49	C	0.095163	0.221159	-0.000264
C50	C	0.595163	0.721159	0.499736
C51	C	0.076222	0.036923	-0.000257
C52	C	0.576222	0.536923	0.499743
C53	C	0.148970	0.038473	-0.000247
C54	C	0.648970	0.538473	0.499753
C55	C	0.194812	0.131367	-0.000252
C56	C	0.694812	0.631367	0.499748
C57	C	0.815894	-0.050226	-0.000204
C58	C	1.315894	0.449774	0.499796
C59	C	0.792901	-0.162423	-0.000201
C60	C	1.292901	0.337577	0.499799
C61	C	0.971681	-0.528031	-0.000245
C62	C	1.471681	-0.028031	0.499755
C63	C	0.993286	-0.422617	-0.000244
C64	C	1.493286	0.077383	0.499756
C65	C	0.943192	-0.357563	-0.000233
C66	C	1.443192	0.142437	0.499767
C67	C	0.871489	-0.397934	-0.000224
C68	C	1.371489	0.102066	0.499776
C69	C	0.849881	-0.503359	-0.000220
C70	C	1.349881	-0.003359	0.499780
C71	C	0.821392	-0.332891	-0.000208
C72	C	1.321392	0.167109	0.499792
C73	C	0.749689	-0.373262	-0.000198
C74	C	1.249689	0.126738	0.499802
C75	C	0.728085	-0.478677	-0.000195
C76	C	1.228085	0.021323	0.499805
C77	C	0.778180	-0.543730	-0.000205
C78	C	1.278180	-0.043730	0.499795
C79	C	0.842999	-0.227467	-0.000212
C80	C	1.342999	0.272533	0.499788
C81	C	0.721199	-0.202795	-0.000187
C82	C	1.221199	0.297205	0.499813
C83	C	0.699594	-0.308209	-0.000188
C84	C	1.199594	0.191791	0.499812
C85	C	0.971897	0.126630	-0.000245
C86	C	1.471897	0.626630	0.499755
C87	C	1.049320	0.128273	-0.000269
C88	C	1.549320	0.628273	0.499731
C89	C	0.876987	0.319401	-0.000223
C90	C	1.376987	0.819401	0.499777
C91	C	0.899980	0.431598	-0.000231
C92	C	1.399980	0.931598	0.499769
N93	N	0.846415	0.134575	0.188455
N94	N	1.346415	0.634575	0.688455
N95	N	0.846470	0.134592	-0.188881
N96	N	1.346470	0.634592	0.311119
C97	C	0.880373	0.065680	0.226548
C98	C	1.380373	0.565680	0.726548
C99	C	0.880377	0.065676	0.302776
C100	C	1.380377	0.565676	0.802776
C101	C	0.846432	0.134583	0.340908
C102	C	1.346432	0.634583	0.840908
C103	C	0.812466	0.203482	0.302806
C104	C	1.312466	0.703482	0.802806
C105	C	0.812457	0.203478	0.226580
C106	C	1.312457	0.703478	0.726580
C107	C	0.855080	0.226676	0.461665
C108	C	1.355080	0.726676	0.961665
C109	C	0.855093	0.226682	0.537890
C110	C	1.355093	0.726682	1.037890
C111	C	0.846454	0.134596	0.576016
C112	C	1.346454	0.634596	1.076016
C113	C	0.837815	0.042500	0.537907
C114	C	1.337815	0.542500	1.037907
C115	C	0.837806	0.042496	0.461681
C116	C	1.337806	0.542496	0.961681
C117	C	0.846437	0.134595	0.423563
C118	C	1.346437	0.634595	0.923563
C119	C	0.880418	0.065691	0.696763
C120	C	1.380418	0.565691	1.196763
C121	C	0.880416	0.065685	0.772993
C122	C	1.380416	0.565685	1.272993
C123	C	0.812510	0.203500	0.773021
C124	C	1.312510	0.703500	1.273021
C125	C	0.812507	0.203497	0.696793
C126	C	1.312507	0.703497	1.196793
C127	C	0.846464	0.134594	0.658669
C128	C	1.346464	0.634594	1.158669
H129	H	0.205239	0.298346	-0.000254
H130	H	0.705239	0.798346	0.499746
H131	H	0.073266	0.295539	-0.000273
H132	H	0.573266	0.795539	0.499727
H133	H	1.012460	-0.581006	-0.000247
H134	H	1.512460	-0.081006	0.499753
O135	O	0.650749	-0.522219	-0.000178
O136	O	1.150749	-0.022219	0.499822
H137	H	0.637983	-0.569654	0.049187
H138	H	1.137983	-0.069654	0.549187
H139	H	0.862104	0.301669	0.430629
H140	H	1.362104	0.801669	0.930629
O141	O	0.917019	-0.008661	0.655651
O142	O	1.417019	0.491339	1.155651
H143	H	0.878321	-0.057667	0.620950
H144	H	1.378321	0.442333	1.120950
H145	H	0.901380	-0.194607	-0.000219
H146	H	1.401380	0.305393	0.499781
O147	O	0.622258	-0.351754	-0.000165
O148	O	1.122258	0.148246	0.499835
H149	H	0.615654	-0.435986	-0.000157
H150	H	1.115654	0.064014	0.499843
O151	O	0.026783	-0.063266	-0.000264
O152	O	0.526783	0.436734	0.499736
H153	H	-0.028323	-0.048998	-0.000281
H154	H	0.471677	0.451002	0.499719
H155	H	0.784858	0.259602	0.665776
H156	H	1.284858	0.759602	1.165776
O157	O	0.828343	-0.056890	0.420648
O158	O	1.328343	0.443110	0.920648
H159	H	0.780692	-0.063113	0.386011
H160	H	1.280692	0.436887	0.886011
O161	O	0.514897	0.329215	-0.000201
O162	O	1.014897	0.829215	0.499799
H163	H	0.456610	0.312531	-0.000205
H164	H	0.956610	0.812531	0.499795
H165	H	0.170869	-0.035904	-0.000237
H166	H	0.670869	0.464096	0.499763
H167	H	0.760592	-0.629568	-0.000209
H168	H	1.260592	-0.129568	0.499791
H169	H	0.680408	-0.149828	-0.000175
H170	H	1.180408	0.350172	0.499825
H171	H	0.960787	-0.271731	-0.000232
H172	H	1.460787	0.228269	0.499768
H173	H	0.830780	-0.032485	0.568947
H174	H	1.330780	0.467515	1.068947
H175	H	0.908066	0.009578	0.804009
H176	H	1.408066	0.509578	1.304009
H177	H	0.267337	0.005163	-0.077215
H178	H	0.767337	0.505163	0.422785
H179	H	0.784868	0.259602	0.804067
H180	H	1.284868	0.759602	1.304067
H181	H	0.425551	0.264016	0.076765
H182	H	0.925551	0.764016	0.576765
O183	O	0.407018	-0.010474	-0.088403
O184	O	0.907018	0.489526	0.411597
H185	H	0.364476	-0.060329	-0.117921
H186	H	0.864476	0.439671	0.382079
H187	H	0.908021	0.009573	0.195510
H188	H	1.408021	0.509573	0.695510
H189	H	0.487638	-0.029167	-0.000188
H190	H	0.987638	0.470833	0.499812
O191	O	0.775857	0.277812	0.343927
O192	O	1.275857	0.777812	0.843927
H193	H	0.781575	0.266250	0.403333
H194	H	1.281575	0.766250	0.903333
H195	H	0.293572	0.261207	0.076742
H196	H	0.793572	0.761207	0.576742
O197	O	0.626737	-0.050509	-0.000143
O198	O	1.126737	0.449491	0.499857
H199	H	0.582637	-0.115361	-0.000151
H200	H	1.082637	0.384639	0.499849
H201	H	0.862132	0.301671	0.568912
H202	H	1.362132	0.801671	1.068912
O203	O	0.917013	-0.008623	0.343877
O204	O	1.417013	0.491377	0.843877
H205	H	0.940629	-0.056530	0.304560
H206	H	1.440629	0.443470	0.804560
H207	H	0.784803	0.259581	0.195564
H208	H	1.284803	0.759581	0.695564
H209	H	0.653984	0.307880	-0.000184
H210	H	1.153984	0.807880	0.499816
H211	H	1.051667	-0.389754	-0.000250
H212	H	1.551667	0.110246	0.499750
