data_functionalizedCrystal
_audit_creation_method	'MofGen! by Chris Wilmer'
_symmetry_space_group_name_H-M	'P1'
_symmetry_Int_Tables_number	1
_symmetry_cell_setting	triclinic
loop_
_symmetry_equiv_pos_as_xyz
  x,y,z
_cell_length_a	10.654550
_cell_length_b	14.519709
_cell_length_c	9.130313
_cell_angle_alpha	89.997798
_cell_angle_beta	89.996220
_cell_angle_gamma	84.082524
loop_
_atom_site_label
_atom_site_type_symbol
_atom_site_fract_x
_atom_site_fract_y
_atom_site_fract_z
O1	O	1.666589	0.129528	-0.121923
O2	O	1.300991	0.141869	-0.121900
O3	O	1.493483	0.001510	-0.121899
O4	O	1.474097	0.269887	-0.121924
O5	O	1.493481	0.001514	0.121700
O6	O	1.300989	0.141873	0.121699
O7	O	1.666586	0.129532	0.121676
Cu8	Cu	1.483787	0.135703	0.143930
Cu9	Cu	1.483790	0.135698	-0.144154
O10	O	1.474094	0.269891	0.121675
C11	C	1.254201	0.140965	-0.000098
C12	C	1.114784	0.138254	-0.000088
C13	C	1.034504	0.220895	-0.000117
C14	C	0.903507	0.218342	-0.000143
C15	C	0.933085	0.050500	-0.000116
C16	C	1.064078	0.053054	-0.000080
C17	C	1.017426	0.317797	-0.000139
C18	C	0.886430	0.315244	-0.000164
C19	C	1.492579	-0.032852	-0.000099
C20	C	1.489871	-0.135247	-0.000098
C21	C	1.479904	-0.510195	-0.000136
C22	C	1.482672	-0.405873	-0.000125
C23	C	1.484887	-0.322725	-0.000116
C24	C	1.487656	-0.218396	-0.000108
C25	C	1.713377	0.130436	-0.000130
C26	C	1.852794	0.133147	-0.000149
C27	C	1.474999	0.304253	-0.000128
C28	C	1.477707	0.406648	-0.000139
N29	N	1.483795	0.135705	0.346552
N30	N	1.483793	0.135688	-0.346777
C31	C	1.569052	0.073576	0.423205
C32	C	1.569048	0.073565	0.576542
C33	C	1.398527	0.197821	0.576560
C34	C	1.398525	0.197827	0.423226
C35	C	1.667505	0.001840	0.423195
C36	C	1.667502	0.001829	0.576532
H37	H	0.840476	0.344531	0.105001
H38	H	1.758473	0.024302	0.375629
H39	H	1.329102	0.248398	0.639004
C40	C	1.304734	0.266162	0.338902
C41	C	1.211007	0.334540	0.423236
C42	C	1.117211	0.402877	0.338910
C43	C	1.117143	0.402836	0.170248
C44	C	1.210874	0.334455	0.085904
C45	C	1.304670	0.266118	0.170231
H46	H	1.211054	0.334573	0.548098
H47	H	1.047825	0.453497	0.401348
H48	H	1.047710	0.453423	0.107825
H49	H	1.210827	0.334423	-0.038958
H50	H	1.374055	0.215498	0.107793
H51	H	1.646744	-0.069045	0.381583
C52	C	1.627156	-0.088661	0.640793
C53	C	1.592586	-0.166190	0.537880
C54	C	1.552237	-0.256676	0.602144
C55	C	1.546457	-0.269632	0.769322
C56	C	1.581028	-0.192101	0.872245
C57	C	1.621377	-0.101615	0.807981
H58	H	1.596864	-0.156601	0.414116
H59	H	1.526645	-0.314069	0.525952
H60	H	1.516588	-0.336615	0.816894
H61	H	1.576750	-0.201690	0.996009
H62	H	1.646969	-0.044221	0.884173
C63	C	1.065216	0.359476	-0.142215
C64	C	1.135224	0.447028	-0.135766
C65	C	1.183021	0.488700	-0.277844
C66	C	1.160809	0.442820	-0.426371
C67	C	1.090797	0.355263	-0.432825
C68	C	1.043001	0.313591	-0.290747
H69	H	1.151670	0.480995	-0.025813
H70	H	1.234848	0.553516	-0.273066
H71	H	1.196190	0.473668	-0.531546
H72	H	1.074352	0.321296	-0.542779
H73	H	0.991174	0.248775	-0.295526
C74	C	1.152385	-0.037854	-0.000035
C75	C	1.146533	-0.107427	0.126472
C76	C	1.234839	-0.198340	0.126518
C77	C	1.328997	-0.219679	0.000057
C78	C	1.334853	-0.150104	-0.126460
C79	C	1.246547	-0.059192	-0.126506
H80	H	1.076828	-0.091632	0.220095
H81	H	1.230503	-0.249844	0.220175
H82	H	1.394366	-0.286978	0.000091
H83	H	1.404557	-0.165899	-0.220082
H84	H	1.250882	-0.007688	-0.220162
C85	C	0.877303	-0.043216	-0.000116
C86	C	0.791285	-0.068047	0.126361
C87	C	0.735508	-0.161766	0.126359
C88	C	0.765748	-0.230653	-0.000120
C89	C	0.851770	-0.205824	-0.126606
C90	C	0.907548	-0.112105	-0.126604
H91	H	0.768896	-0.017052	0.219997
H92	H	0.671828	-0.180146	0.219993
H93	H	0.724458	-0.300029	-0.000121
H94	H	0.874159	-0.256820	-0.220242
H95	H	0.971227	-0.093725	-0.220238
H96	H	1.763861	0.017630	0.618141
H97	H	0.844347	0.351754	-0.102121
H98	H	1.046392	0.355697	0.101809
