data_functionalizedCrystal
_audit_creation_method	'MofGen! by Chris Wilmer'
_symmetry_space_group_name_H-M	'P1'
_symmetry_Int_Tables_number	1
_symmetry_cell_setting	triclinic
loop_
_symmetry_equiv_pos_as_xyz
  x,y,z
_cell_length_a	21.395362
_cell_length_b	17.640280
_cell_length_c	21.395355
_cell_angle_alpha	78.784922
_cell_angle_beta	89.956060
_cell_angle_gamma	78.812025
loop_
_atom_site_label
_atom_site_type_symbol
_atom_site_fract_x
_atom_site_fract_y
_atom_site_fract_z
Zn1	Zn	1.008318	-0.314390	-0.304290
Zn2	Zn	1.029429	-0.446530	-0.178373
Zn3	Zn	0.903539	-0.314427	-0.199486
Zn4	Zn	0.924713	-0.446546	-0.283075
O5	O	0.966500	-0.380473	-0.241306
O6	O	1.098793	-0.331896	-0.287630
O7	O	1.012702	-0.429015	-0.093494
O8	O	0.899742	-0.203828	-0.231102
O9	O	1.114303	-0.428979	-0.195119
O10	O	0.976723	-0.203801	-0.308102
O11	O	0.920212	-0.331959	-0.109006
O12	O	0.818673	-0.331975	-0.210531
O13	O	0.935830	-0.429007	-0.373569
O14	O	0.834230	-0.429043	-0.271944
O15	O	0.997254	-0.331912	-0.389155
O16	O	1.033234	-0.557126	-0.174548
O17	O	0.956300	-0.557138	-0.251472
C18	C	0.803719	-0.380515	-0.241227
C19	C	0.734083	-0.380552	-0.241204
C20	C	0.709497	-0.431162	-0.273111
C21	C	0.644059	-0.431143	-0.273143
C22	C	0.603210	-0.380521	-0.241254
C23	C	0.627802	-0.329901	-0.209346
C24	C	0.693239	-0.329917	-0.209321
C25	C	0.498463	-0.374155	-0.185867
C26	C	0.433029	-0.374145	-0.185890
C27	C	0.401381	-0.380470	-0.241331
C28	C	0.435178	-0.386821	-0.296749
C29	C	0.500615	-0.386836	-0.296724
C30	C	0.532254	-0.380499	-0.241278
C31	C	0.305840	-0.431062	-0.273275
C32	C	0.240399	-0.431037	-0.273308
C33	C	0.224144	-0.329800	-0.209505
C34	C	0.289583	-0.329820	-0.209478
C35	C	0.330428	-0.380456	-0.241362
C36	C	0.999372	-0.585808	-0.208431
C37	C	1.013493	-0.673651	-0.194387
C38	C	0.859485	-0.962724	-0.348219
C39	C	0.872755	-1.045266	-0.335003
C40	C	0.952916	-1.045188	-0.254983
C41	C	0.939655	-0.962645	-0.268194
C42	C	0.892939	-0.921419	-0.314813
C43	C	0.973109	-0.921340	-0.234788
C44	C	0.959847	-0.838803	-0.247996
C45	C	0.913131	-0.797572	-0.294610
C46	C	0.879677	-0.838883	-0.328021
C47	C	1.019822	-0.962567	-0.188167
C48	C	1.053276	-0.921262	-0.154760
C49	C	1.040017	-0.838724	-0.167971
C50	C	0.993301	-0.797492	-0.214586
C51	C	1.073472	-0.797413	-0.134561
C52	C	1.060209	-0.714877	-0.147769
C53	C	0.980039	-0.714956	-0.227794
C54	C	1.129916	-0.380432	-0.241386
C55	C	1.199555	-0.380414	-0.241420
C56	C	0.966549	-0.380457	-0.404732
C57	C	0.966570	-0.380450	-0.474374
C58	C	0.933515	-0.174337	-0.274324
C59	C	0.919460	-0.086494	-0.288394
C60	C	0.998552	-0.329891	-0.515205
C61	C	0.998545	-0.329857	-0.580646
C62	C	0.966566	-0.380397	-0.605251
C63	C	0.934577	-0.430960	-0.564412
C64	C	0.934579	-0.430986	-0.498974
C65	C	0.973012	-0.451559	-0.697531
C66	C	0.973014	-0.451533	-0.762968
C67	C	0.966557	-0.380313	-0.807086
C68	C	0.960109	-0.309116	-0.785758
C69	C	0.960111	-0.309143	-0.720320
C70	C	0.966560	-0.380373	-0.676208
C71	C	0.998533	-0.329712	-0.918875
C72	C	0.998522	-0.329677	-0.984317
C73	C	0.934559	-0.430787	-0.968082
C74	C	0.934565	-0.430815	-0.902642
C75	C	0.966556	-0.380279	-0.878042
C76	C	0.966477	-0.380432	-0.078525
C77	C	0.966542	-0.380216	-0.008919
H78	H	0.409412	-0.391970	-0.341895
H79	H	0.978268	-0.509506	-0.780327
C80	C	1.124852	-0.842763	-0.083280
H81	H	1.142874	-0.806342	-0.065272
H82	H	1.157305	-0.874923	-0.102132
H83	H	1.106069	-0.874994	-0.050789
C84	C	0.754428	-0.486873	-0.308166
H85	H	0.796923	-0.479645	-0.303573
H86	H	0.741927	-0.475405	-0.352124
H87	H	0.752161	-0.539949	-0.290411
C88	C	0.720285	-0.274247	-0.174218
H89	H	0.686587	-0.244097	-0.155227
H90	H	0.740350	-0.239866	-0.203724
H91	H	0.750599	-0.304442	-0.142032
H92	H	0.845517	-1.078894	-0.362218
C93	C	0.953420	-0.230817	-0.834271
H94	H	0.954461	-0.241008	-0.876296
H95	H	0.987674	-0.205888	-0.827412
H96	H	0.914113	-0.197269	-0.829039
H97	H	1.087450	-0.681246	-0.120565
C98	C	1.034412	-1.053355	-0.173634
H99	H	1.067018	-1.071992	-0.141080
H100	H	1.048224	-1.072003	-0.211094
H101	H	0.996990	-1.072081	-0.159749
H102	H	0.902330	-0.730366	-0.305359
H103	H	0.942002	-0.681389	-0.265760
C104	C	1.104664	-0.966614	-0.103487
H105	H	1.107775	-1.021686	-0.100408
H106	H	1.093353	-0.953114	-0.063537
H107	H	1.144575	-0.953028	-0.114895
H108	H	0.841640	-0.805315	-0.365986
C109	C	0.395858	-0.367158	-0.124935
H110	H	0.424074	-0.363378	-0.091916
H111	H	0.377556	-0.412433	-0.112123
H112	H	0.363016	-0.321337	-0.133159
C113	C	0.980115	-0.529904	-0.649004
H114	H	0.979187	-0.519723	-0.606977
H115	H	1.019516	-0.563134	-0.654436
H116	H	0.946013	-0.555179	-0.655657
C117	C	1.033734	-0.274297	-0.488149
H118	H	1.052776	-0.244176	-0.521843
H119	H	1.065869	-0.304531	-0.457805
H120	H	1.004254	-0.239874	-0.468115
H121	H	0.821448	-0.929157	-0.386185
C122	C	0.582874	-0.274218	-0.174269
H123	H	0.606890	-0.244072	-0.155266
H124	H	0.562137	-0.304390	-0.142107
H125	H	0.551882	-0.239820	-0.203802
C126	C	0.953012	-0.230836	-0.696858
H127	H	0.953942	-0.241056	-0.651567
H128	H	0.913610	-0.197597	-0.712873
H129	H	0.987114	-0.205550	-0.711651
H130	H	0.309601	-0.288612	-0.183492
C131	C	0.533273	-0.367197	-0.124880
H132	H	0.577083	-0.368108	-0.132802
H133	H	0.529378	-0.410137	-0.091597
H134	H	0.514836	-0.319040	-0.112622
C135	C	0.617000	-0.486770	-0.308285
H136	H	0.650696	-0.516916	-0.327281
H137	H	0.586695	-0.456541	-0.340460
H138	H	0.596924	-0.521170	-0.278802
C139	C	0.899405	-0.486555	-0.591476
H140	H	0.903990	-0.479305	-0.636296
H141	H	0.855458	-0.475007	-0.582571
H142	H	0.917077	-0.539660	-0.572261
C143	C	1.033708	-0.274113	-0.891814
H144	H	1.052745	-0.243985	-0.925509
H145	H	1.065847	-0.304342	-0.861471
H146	H	1.004224	-0.239696	-0.871779
H147	H	0.220383	-0.472248	-0.299295
C148	C	0.899391	-0.486437	-0.857726
H149	H	0.880347	-0.516537	-0.881750
H150	H	0.867256	-0.456223	-0.837013
H151	H	0.928872	-0.520880	-0.826708
C152	C	1.033704	-0.274059	-1.029231
H153	H	1.052761	-0.243974	-1.005205
H154	H	1.004230	-0.239616	-1.060249
H155	H	1.065840	-0.304282	-1.049943
H156	H	0.908533	-0.472157	-0.465729
H157	H	0.339097	-0.472288	-0.299240
C158	C	0.537792	-0.393819	-0.357677
H159	H	0.581296	-0.392928	-0.349717
H160	H	0.520242	-0.350876	-0.390970
H161	H	0.534782	-0.441973	-0.369940
C162	C	0.179217	-0.274107	-0.174437
H163	H	0.136723	-0.281346	-0.179022
H164	H	0.181479	-0.221030	-0.192176
H165	H	0.191724	-0.285595	-0.130477
C166	C	0.899387	-0.486385	-0.995140
H167	H	0.903970	-0.479133	-1.039960
H168	H	0.855441	-0.474841	-0.986233
H169	H	0.917063	-0.539488	-0.975926
C170	C	1.033732	-0.274246	-0.625566
H171	H	1.052788	-0.244157	-0.601542
H172	H	1.004261	-0.239805	-0.656588
H173	H	1.065868	-0.304475	-0.646272
H174	H	0.990951	-1.078765	-0.217025
