data_functionalizedCrystal
_audit_creation_method	'MofGen! by Chris Wilmer'
_symmetry_space_group_name_H-M	'P1'
_symmetry_Int_Tables_number	1
_symmetry_cell_setting	triclinic
loop_
_symmetry_equiv_pos_as_xyz
  x,y,z
_cell_length_a	6.817900
_cell_length_b	16.256208
_cell_length_c	7.190334
_cell_angle_alpha	89.346100
_cell_angle_beta	60.611776
_cell_angle_gamma	103.499088
loop_
_atom_site_label
_atom_site_type_symbol
_atom_site_fract_x
_atom_site_fract_y
_atom_site_fract_z
V1	V	-4.223264	-0.115742	0.665751
O2	O	-4.206711	0.006951	0.652297
O3	O	-4.173751	-0.230833	0.661950
O4	O	-4.260422	-0.113353	0.955766
O5	O	-4.119440	-0.111343	0.356447
V6	V	-4.695950	-0.101139	0.628665
O7	O	-4.508295	-0.147776	0.747104
O8	O	-4.861117	-0.069105	0.547312
O9	O	-4.522257	0.013952	0.632466
O10	O	-4.829900	-0.223832	0.642120
O11	O	-4.917172	-0.105538	0.937969
O12	O	-4.435586	-0.103529	0.338651
C13	C	-4.015712	-0.258909	0.651641
C14	C	-4.057086	-0.352994	0.650466
C15	C	-4.375202	-0.641075	0.658007
C16	C	-4.165197	-0.571959	0.476404
C17	C	-4.205836	-0.691640	0.646148
C18	C	-4.342226	-0.593115	0.829812
C19	C	-4.132762	-0.525252	0.648274
C20	C	-3.996301	-0.623754	0.464383
C21	C	-4.173439	-0.644925	0.817952
C22	C	-3.963282	-0.575828	0.636297
C23	C	-4.247936	-0.787491	0.644922
C24	C	-4.090640	-0.429401	0.649484
C25	C	-4.343636	0.042024	0.642769
C26	C	-4.281504	0.136107	0.643958
C27	C	-4.126281	-0.109047	1.026430
C28	C	-4.240035	-0.107830	1.267979
H29	H	-4.177452	-0.676723	0.962359
C30	C	-4.539243	-0.574359	1.038456
N31	N	-4.687647	-0.560235	1.195599
C32	C	-3.727409	-0.537519	0.623831
N33	N	-3.549744	-0.508662	0.614430
C34	C	-4.610799	-0.679567	0.670086
N35	N	-4.788241	-0.708561	0.679172
H36	H	-4.161267	-0.540181	0.332008
C37	C	-3.799243	-0.642357	0.255512
N38	N	-3.650830	-0.656371	0.098189
