data_functionalizedCrystal
_audit_creation_method	'MofGen! by Chris Wilmer'
_symmetry_space_group_name_H-M	'P1'
_symmetry_Int_Tables_number	1
_symmetry_cell_setting	triclinic
loop_
_symmetry_equiv_pos_as_xyz
  x,y,z
_cell_length_a	17.077404
_cell_length_b	16.959454
_cell_length_c	17.077396
_cell_angle_alpha	89.975265
_cell_angle_beta	89.981638
_cell_angle_gamma	90.018045
loop_
_atom_site_label
_atom_site_type_symbol
_atom_site_fract_x
_atom_site_fract_y
_atom_site_fract_z
Zn1	Zn	1.200070	-0.314724	-0.443839
Zn2	Zn	1.700070	0.185276	0.056161
Zn3	Zn	1.199983	-0.446912	-0.312582
Zn4	Zn	1.699983	0.053088	0.187418
Zn5	Zn	1.068802	-0.314747	-0.312590
Zn6	Zn	1.568802	0.185253	0.187410
Zn7	Zn	1.068776	-0.446860	-0.443808
Zn8	Zn	1.568776	0.053140	0.056192
O9	O	1.134408	-0.380811	-0.378205
O10	O	1.634408	0.119189	0.121795
O11	O	1.309905	-0.332272	-0.426437
O12	O	1.809905	0.167728	0.073563
O13	O	1.182556	-0.429411	-0.202736
O14	O	1.682556	0.070589	0.297264
O15	O	1.086262	-0.204133	-0.330017
O16	O	1.586262	0.295867	0.169983
O17	O	1.309842	-0.429390	-0.330003
O18	O	1.809842	0.070610	0.169997
O19	O	1.182704	-0.204116	-0.426445
O20	O	1.682704	0.295884	0.073555
O21	O	1.086178	-0.332310	-0.202742
O22	O	1.586178	0.167690	0.297258
O23	O	0.958951	-0.332260	-0.329986
O24	O	1.458951	0.167740	0.170014
O25	O	1.086218	-0.429301	-0.553659
O26	O	1.586218	0.070699	-0.053659
O27	O	0.958933	-0.429323	-0.426392
O28	O	1.458933	0.070677	0.073608
O29	O	1.182679	-0.332221	-0.553682
O30	O	1.682679	0.167779	-0.053682
O31	O	1.182532	-0.557516	-0.329973
O32	O	1.682532	-0.057516	0.170027
O33	O	1.086134	-0.557478	-0.426384
O34	O	1.586134	-0.057478	0.073616
C35	C	0.930460	-0.380788	-0.378187
C36	C	1.430460	0.119212	0.121813
C37	C	0.843210	-0.380798	-0.378198
C38	C	1.343210	0.119202	0.121802
C39	C	1.134342	-0.586177	-0.378191
C40	C	1.634342	-0.086177	0.121809
C41	C	1.134386	-0.674034	-0.378212
C42	C	1.634386	-0.174034	0.121788
C43	C	0.802254	-0.330319	-0.428488
C44	C	1.302254	0.169681	0.071512
C45	C	0.720273	-0.330324	-0.428492
C46	C	1.220273	0.169676	0.071508
C47	C	0.679251	-0.380813	-0.378209
C48	C	1.179251	0.119187	0.121791
C49	C	0.720213	-0.431294	-0.327913
C50	C	1.220213	0.068706	0.172087
C51	C	0.802192	-0.431285	-0.327906
C52	C	1.302192	0.068715	0.172094
C53	C	0.549343	-0.431312	-0.327933
C54	C	1.049343	0.068688	0.172067
C55	C	0.467358	-0.431323	-0.327941
C56	C	0.967358	0.068677	0.172059
C57	C	0.467424	-0.330351	-0.428518
C58	C	0.967424	0.169649	0.071482
C59	C	0.549403	-0.330342	-0.428511
C60	C	1.049403	0.169658	0.071489
C61	C	0.590360	-0.380824	-0.378217
C62	C	1.090360	0.119176	0.121783
C63	C	1.084287	-1.045519	-0.428401
C64	C	1.584287	-0.545519	0.071599
C65	C	1.184748	-1.045499	-0.328089
C66	C	1.684748	-0.545499	0.171911
C67	C	1.184720	-0.962953	-0.328081
C68	C	1.684720	-0.462953	0.171919
C69	C	1.134474	-0.921687	-0.378234
C70	C	1.634474	-0.421687	0.121766
C71	C	1.084256	-0.962966	-0.428393
C72	C	1.584256	-0.462966	0.071607
C73	C	1.234932	-0.921668	-0.277917
C74	C	1.734932	-0.421668	0.222083
C75	C	1.234906	-0.839117	-0.277907
C76	C	1.734906	-0.339117	0.222093
C77	C	1.184664	-0.797849	-0.328064
C78	C	1.684664	-0.297849	0.171936
C79	C	1.134444	-0.839133	-0.378226
C80	C	1.634444	-0.339133	0.121774
C81	C	1.084198	-0.797866	-0.428379
C82	C	1.584198	-0.297866	0.071621
C83	C	1.033981	-0.839149	-0.478546
C84	C	1.533981	-0.339149	0.021454
C85	C	1.034013	-0.921698	-0.478550
C86	C	1.534013	-0.421698	0.021450
C87	C	1.184632	-0.715300	-0.328060
C88	C	1.684632	-0.215300	0.171940
C89	C	1.084167	-0.715313	-0.428372
C90	C	1.584167	-0.215313	0.071628
C91	C	1.339152	-0.380834	-0.378223
C92	C	1.839152	0.119166	0.121777
C93	C	1.426402	-0.380844	-0.378231
C94	C	1.926402	0.119156	0.121769
C95	C	1.134455	-0.380753	-0.582949
C96	C	1.634455	0.119247	-0.082949
C97	C	1.134476	-0.380728	-0.670199
C98	C	1.634476	0.119272	-0.170199
C99	C	1.134495	-0.174643	-0.378235
C100	C	1.634495	0.325357	0.121765
C101	C	1.134532	-0.086786	-0.378248
C102	C	1.634532	0.413214	0.121752
C103	C	1.184705	-0.330174	-0.711202
C104	C	1.684705	0.169826	-0.211202
C105	C	1.184714	-0.330148	-0.793183
C106	C	1.684714	0.169852	-0.293183
C107	C	1.134498	-0.380680	-0.834158
C108	C	1.634498	0.119320	-0.334158
C109	C	1.084263	-0.431236	-0.793149
C110	C	1.584263	0.068764	-0.293149
C111	C	1.084250	-0.431257	-0.711170
C112	C	1.584250	0.068743	-0.211170
C113	C	1.084295	-0.431188	-0.964019
C114	C	1.584295	0.068812	-0.464019
C115	C	1.084309	-0.431168	-1.046004
C116	C	1.584309	0.068832	-0.546004
C117	C	1.184758	-0.330079	-1.046032
C118	C	1.684758	0.169921	-0.546032
C119	C	1.184746	-0.330100	-0.964053
C120	C	1.684746	0.169900	-0.464053
C121	C	1.134512	-0.380657	-0.923050
C122	C	1.634512	0.119343	-0.423050
C123	C	1.134406	-0.380812	-0.174257
C124	C	1.634406	0.119188	0.325743
C125	C	1.134538	-0.380614	-0.087008
C126	C	1.634538	0.119386	0.412992
H127	H	0.835649	-0.289207	-0.469437
H128	H	1.335649	0.210793	0.030563
H129	H	1.275834	-0.955273	-0.237080
H130	H	1.775834	-0.455273	0.262920
H131	H	1.275796	-0.805510	-0.237060
H132	H	1.775796	-0.305510	0.262940
O133	O	1.238909	-0.275600	-0.919858
O134	O	1.738909	0.224400	-0.419858
H135	H	1.278826	-0.310998	-0.882515
H136	H	1.778826	0.189002	-0.382515
H137	H	1.043341	-0.472415	-0.677786
H138	H	1.543341	0.027585	-0.177786
O139	O	1.030093	-0.485732	-0.837341
O140	O	1.530093	0.014268	-0.337341
H141	H	1.065211	-0.525949	-0.874686
H142	H	1.565211	-0.025949	-0.374686
O143	O	1.238944	-1.089994	-0.273994
O144	O	1.738944	-0.589994	0.226006
H145	H	1.300534	-1.074088	-0.287516
H146	H	1.800534	-0.574088	0.212484
O147	O	0.593654	-0.275882	-0.482737
O148	O	1.093654	0.224118	0.017263
H149	H	0.551404	-0.240771	-0.517704
H150	H	1.051404	0.259229	-0.017704
O151	O	0.423256	-0.275892	-0.482758
O152	O	0.923256	0.224108	0.017242
H153	H	0.385906	-0.311321	-0.522634
H154	H	0.885906	0.188679	-0.022634
O155	O	1.238898	-0.275627	-0.837406
O156	O	1.738898	0.224373	-0.337406
H157	H	1.203792	-0.235388	-0.874750
H158	H	1.703792	0.264612	-0.374750
H159	H	0.433960	-0.472436	-0.286996
H160	H	0.933960	0.027564	0.213004
O161	O	0.979839	-0.966221	-0.532640
O162	O	1.479839	-0.466221	-0.032640
H163	H	0.988292	-1.030554	-0.524207
H164	H	1.488292	-0.530554	-0.024207
O165	O	1.030114	-0.485717	-0.919793
O166	O	1.530114	0.014283	-0.419793
H167	H	0.990183	-0.450341	-0.882449
H168	H	1.490183	0.049659	-0.382449
H169	H	1.225659	-0.288912	-1.079421
H170	H	1.725659	0.211088	-0.579421
H171	H	0.686930	-0.289220	-0.469445
H172	H	1.186930	0.210780	0.030555
O173	O	0.593523	-0.485758	-0.273687
O174	O	1.093523	0.014242	0.226313
H175	H	0.577789	-0.547814	-0.287052
H176	H	1.077789	-0.047814	0.212948
O177	O	1.029964	-0.670803	-0.482456
O178	O	1.529964	-0.170803	0.017544
H179	H	0.995047	-0.713380	-0.517331
H180	H	1.495047	-0.213380	-0.017331
O181	O	1.238803	-0.670778	-0.273971
O182	O	1.738803	-0.170778	0.226029
H183	H	1.230345	-0.606443	-0.282394
H184	H	1.730345	-0.106443	0.217606
H185	H	0.686806	-0.472399	-0.286968
H186	H	1.186806	0.027601	0.213032
H187	H	1.225599	-0.289028	-0.677846
H188	H	1.725599	0.210972	-0.177846
H189	H	1.043416	-0.472313	-1.079364
H190	H	1.543416	0.027687	-0.579364
H191	H	0.835537	-0.472390	-0.286955
H192	H	1.335537	0.027610	0.213045
H193	H	0.993067	-0.805540	-0.519377
H194	H	1.493067	-0.305540	-0.019377
H195	H	1.043404	-1.079135	-0.469247
H196	H	1.543404	-0.579135	0.030753
