data_functionalizedCrystal
_audit_creation_method	'MofGen! by Chris Wilmer'
_symmetry_space_group_name_H-M	'P1'
_symmetry_Int_Tables_number	1
_symmetry_cell_setting	triclinic
loop_
_symmetry_equiv_pos_as_xyz
  x,y,z
_cell_length_a	19.077105
_cell_length_b	13.897447
_cell_length_c	19.077174
_cell_angle_alpha	92.274996
_cell_angle_beta	85.483752
_cell_angle_gamma	87.715989
loop_
_atom_site_label
_atom_site_type_symbol
_atom_site_fract_x
_atom_site_fract_y
_atom_site_fract_z
Zn1	Zn	1.093737	-0.468678	-0.441859
Zn2	Zn	1.088932	-0.623230	-0.323976
Zn3	Zn	0.971121	-0.455194	-0.319256
Zn4	Zn	0.975826	-0.623167	-0.437094
O5	O	1.032404	-0.542567	-0.380546
O6	O	1.191750	-0.494849	-0.430191
O7	O	1.069324	-0.595323	-0.224700
O8	O	0.987428	-0.322004	-0.335538
O9	O	1.188220	-0.608398	-0.343583
O10	O	1.077513	-0.331911	-0.425614
O11	O	0.982769	-0.471868	-0.221232
O12	O	0.873094	-0.471806	-0.330918
O13	O	0.995447	-0.608290	-0.536376
O14	O	0.876551	-0.595216	-0.417493
O15	O	1.082075	-0.494788	-0.539876
O16	O	1.073886	-0.758200	-0.338962
O17	O	0.990788	-0.758154	-0.422070
C18	C	0.849244	-0.532042	-0.373176
C19	C	0.770888	-0.527563	-0.370040
C20	C	0.735891	-0.589801	-0.413571
C21	C	0.662268	-0.585580	-0.410628
C22	C	0.623642	-0.519126	-0.364150
C23	C	0.658643	-0.456881	-0.320617
C24	C	0.732266	-0.461098	-0.323564
C25	C	0.403260	-0.499610	-0.350512
C26	C	0.329632	-0.495400	-0.347567
C27	C	0.333261	-0.624098	-0.437579
C28	C	0.406885	-0.628313	-0.440519
C29	C	0.441880	-0.566065	-0.396989
N30	N	0.548386	-0.514812	-0.361138
N31	N	0.517134	-0.570375	-0.400004
C32	C	1.032346	-0.793177	-0.380527
C33	C	1.032386	-0.900394	-0.380545
C34	C	1.032421	-0.987467	-0.380563
C35	C	1.032471	-1.096703	-0.380583
C36	C	1.216279	-0.553134	-0.387945
C37	C	1.294635	-0.557638	-0.391098
C38	C	1.039822	-0.553036	-0.564420
C39	C	1.042983	-0.557497	-0.642776
C40	C	1.032482	-0.290980	-0.380581
C41	C	1.032515	-0.183769	-0.380596
C42	C	0.999405	-0.495318	-0.677782
C43	C	1.002373	-0.499517	-0.751406
C44	C	1.048922	-0.565892	-0.790023
C45	C	1.092501	-0.628079	-0.755012
C46	C	1.089530	-0.623883	-0.681389
C47	C	1.062638	-0.585337	-1.010405
C48	C	1.065608	-0.589526	-1.084032
C49	C	0.975478	-0.460966	-1.080422
C50	C	0.972514	-0.456772	-1.006798
C51	C	1.016090	-0.518961	-0.971793
N52	N	1.051958	-0.570185	-0.865278
N53	N	1.013050	-0.514673	-0.896539
C54	C	1.025055	-0.532072	-0.197389
C55	C	1.022030	-0.527347	-0.119038
H56	H	0.633777	-0.636261	-0.446075
H57	H	0.767335	-0.643918	-0.451416
O58	O	0.949203	-0.423719	-0.636133
H59	H	0.894439	-0.437889	-0.648030
O60	O	0.448547	-0.699980	-0.490655
H61	H	0.411842	-0.742543	-0.520437
O62	O	1.142706	-0.699670	-0.796665
H63	H	1.130014	-0.773872	-0.782041
H64	H	0.934607	-0.402725	-0.975361
H65	H	1.125021	-0.674509	-0.652889
H66	H	0.966885	-0.448887	-0.779904
H67	H	0.304760	-0.674775	-0.473019
O68	O	0.287956	-0.423749	-0.297421
H69	H	0.255686	-0.374632	-0.327682
H70	H	0.627188	-0.402769	-0.282777
H71	H	0.760759	-0.410413	-0.288121
O72	O	0.441000	-0.432505	-0.303543
H73	H	0.401770	-0.385605	-0.270718
O74	O	0.928486	-0.393882	-1.118175
H75	H	0.938371	-0.407946	-1.175857
O76	O	1.115813	-0.661125	-1.125688
H77	H	1.145611	-0.703671	-1.088979
O78	O	1.109654	-0.652386	-0.972654
H79	H	1.142531	-0.699230	-1.011878
