data_functionalizedCrystal
_audit_creation_method	'MofGen! by Chris Wilmer'
_symmetry_space_group_name_H-M	'P1'
_symmetry_Int_Tables_number	1
_symmetry_cell_setting	triclinic
loop_
_symmetry_equiv_pos_as_xyz
  x,y,z
_cell_length_a	31.640172
_cell_length_b	31.640171
_cell_length_c	14.560438
_cell_angle_alpha	59.993279
_cell_angle_beta	90.003589
_cell_angle_gamma	59.979319
loop_
_atom_site_label
_atom_site_type_symbol
_atom_site_fract_x
_atom_site_fract_y
_atom_site_fract_z
Zr1	Zr	0.406964	0.462743	-0.120686
O2	O	0.339432	0.550959	-0.267407
O3	O	0.427694	0.374534	-0.075671
O4	O	0.427653	0.462742	-0.267329
O5	O	0.339474	0.462750	0.075391
O6	O	0.497210	0.462733	-0.267309
O7	O	0.339474	0.462751	-0.075750
O8	O	0.497284	0.304945	0.075531
O9	O	0.339399	0.620538	-0.267449
O10	O	0.488411	0.410807	-0.056503
O11	O	0.436501	0.410812	0.056277
O12	O	0.436452	0.514666	-0.169375
O13	O	0.384542	0.514671	-0.056595
Zr14	Zr	0.517899	0.462727	0.120398
Zr15	Zr	0.517899	0.462729	-0.120654
Zr16	Zr	0.406964	0.462741	0.120366
Zr17	Zr	0.406911	0.573713	-0.120753
Zr18	Zr	0.517952	0.351757	0.120465
O19	O	0.497168	0.550937	0.075384
O20	O	0.497168	0.550939	-0.267362
O21	O	0.339432	0.550957	0.075338
O22	O	0.585431	0.374511	0.267119
O23	O	0.585430	0.374514	-0.075626
O24	O	0.427695	0.374531	0.267074
O25	O	0.585389	0.462720	-0.075679
O26	O	0.497210	0.462729	0.267041
O27	O	0.427653	0.462738	0.267021
O28	O	0.585389	0.462719	0.075462
O29	O	0.427578	0.620527	-0.267424
O30	O	0.497284	0.304944	0.267136
O31	O	0.585463	0.304933	0.267161
O32	O	0.585463	0.304934	0.075557
O33	O	0.339400	0.620536	-0.075845
O34	O	0.427578	0.620525	-0.075819
O35	O	0.488411	0.410805	0.169087
O36	O	0.540320	0.410799	0.056307
O37	O	0.488362	0.514658	-0.056565
O38	O	0.436452	0.514664	0.056215
C39	C	0.462497	0.323929	-0.000061
C40	C	0.462519	0.276819	-0.000032
C41	C	0.500773	-0.097752	0.083148
C42	C	0.500819	0.079201	0.083210
O43	O	0.533442	0.069463	0.154034
N44	N	0.462486	0.139681	-0.000083
C45	C	0.424141	0.155924	-0.083402
O46	O	0.391540	0.211426	-0.154253
C47	C	0.424098	-0.021029	-0.083468
C48	C	0.462430	-0.081510	-0.000162
C49	C	0.539103	-0.158230	0.166446
C50	C	0.539090	-0.202465	0.166433
C51	C	0.500747	-0.186223	0.083122
C52	C	0.462417	-0.125745	-0.000175
C53	C	0.385755	-0.004786	-0.166790
C54	C	0.385748	-0.049031	-0.166801
C55	C	0.424081	-0.109512	-0.083496
C56	C	0.424060	-0.153738	-0.083499
N57	N	0.462393	-0.214218	-0.000205
C58	C	0.500736	-0.230461	0.083105
C59	C	0.424166	0.248824	-0.083360
C60	C	0.424176	0.293062	-0.083343
C61	C	0.500855	0.216335	0.083268
C62	C	0.500842	0.172097	0.083255
C63	C	0.462499	0.188343	-0.000067
C64	C	0.500705	-0.323355	0.083072
C65	C	0.500687	-0.367591	0.083055
C66	C	0.424010	-0.290861	-0.083559
C67	C	0.424026	-0.246629	-0.083539
C68	C	0.462378	-0.262881	-0.000218
O69	O	0.391458	-0.144045	-0.154293
O70	O	0.533339	-0.285967	0.153931
C71	C	0.500787	-0.053517	0.083161
C72	C	0.462457	0.006961	-0.000137
C73	C	0.424114	0.023203	-0.083447
C74	C	0.462467	0.051199	-0.000119
C75	C	0.500811	0.034956	0.083191
C76	C	0.539144	-0.025525	0.166484
C77	C	0.539130	-0.069760	0.166471
C78	C	0.385781	0.083684	-0.166740
C79	C	0.385797	0.127916	-0.166720
C80	C	0.424140	0.111673	-0.083410
C81	C	0.323668	0.462753	-0.000184
C82	C	0.276573	0.462759	-0.000198
C83	C	0.011689	0.408516	0.058797
C84	C	-0.165296	0.408506	0.058819
O85	O	-0.165116	0.362399	0.108968
N86	N	-0.214548	0.462719	-0.000100
C87	C	-0.219552	0.516938	-0.059024
O88	O	-0.265505	0.563050	-0.109128
C89	C	-0.042568	0.516948	-0.059039
C90	C	0.006683	0.462732	-0.000125
C91	C	0.060938	0.354304	0.117707
C92	C	0.105181	0.354307	0.117696
C93	C	0.100176	0.408523	0.058775
C94	C	0.050927	0.462735	-0.000136
C95	C	-0.047573	0.571167	-0.117955
C96	C	-0.003321	0.571164	-0.117951
C97	C	0.045930	0.516948	-0.059037
C98	C	0.090164	0.516953	-0.059068
N99	N	0.139416	0.462740	-0.000149
C100	C	0.144422	0.408525	0.058773
C101	C	-0.312470	0.516929	-0.059014
C102	C	-0.356716	0.516927	-0.059012
C103	C	-0.302457	0.408495	0.058833
C104	C	-0.258210	0.408497	0.058824
C105	C	-0.263218	0.462716	-0.000094
C106	C	0.237334	0.408536	0.058744
C107	C	0.281579	0.408544	0.058724
C108	C	0.227316	0.516976	-0.059116
C109	C	0.183074	0.516968	-0.059101
C110	C	0.188087	0.462743	-0.000163
O111	O	0.090023	0.563036	-0.109181
O112	O	0.190378	0.362421	0.108890
C113	C	-0.032554	0.408513	0.058808
C114	C	-0.081803	0.462725	-0.000102
C115	C	-0.086809	0.516941	-0.059024
C116	C	-0.126049	0.462723	-0.000100
C117	C	-0.121044	0.408508	0.058821
C118	C	-0.071792	0.354295	0.117741
C119	C	-0.027549	0.354298	0.117730
C120	C	-0.136061	0.571153	-0.117943
C121	C	-0.180302	0.571146	-0.117928
C122	C	-0.175296	0.516931	-0.059007
C123	C	0.601195	0.462718	-0.000104
C124	C	0.648290	0.462712	-0.000090
C125	C	0.462431	0.462738	-0.301663
C126	C	0.462431	0.462739	-0.403996
C127	C	0.462366	0.601542	-0.000227
C128	C	0.462344	0.648652	-0.000256
C129	C	0.435307	0.516951	-0.510991
C130	C	0.435309	0.516948	-0.607140
C131	C	0.489559	0.408516	-0.489286
C132	C	0.489560	0.408519	-0.393140
C133	C	0.403984	0.579554	-0.579034
C134	C	0.403986	0.579551	-0.675182
C135	C	0.462432	0.462733	0.301376
C136	C	0.462432	0.462732	0.403709
C137	C	0.601260	0.323911	-0.000020
C138	C	0.648377	0.276796	0.000022
C139	C	0.462497	0.323926	0.301459
C140	C	0.462519	0.276816	0.403820
C141	C	0.601260	0.323909	0.301499
C142	C	0.648378	0.276793	0.403874
C143	C	0.323602	0.601562	-0.301787
C144	C	0.276485	0.648678	-0.404162
C145	C	0.323603	0.601559	-0.000267
C146	C	0.276485	0.648675	-0.000309
C147	C	0.462366	0.601544	-0.301747
C148	C	0.462343	0.648655	-0.404108
C149	C	0.643408	0.254674	-0.058854
C150	C	0.687675	0.210410	-0.058838
C151	C	0.736912	0.188266	0.000063
C152	C	0.741880	0.210392	0.058940
C153	C	0.697613	0.254658	0.058916
C154	C	0.489626	0.254689	0.510786
C155	C	0.489645	0.210430	0.606974
C156	C	0.462560	0.188296	0.596195
C157	C	0.435450	0.210427	0.489218
C158	C	0.435428	0.254689	0.393032
C159	C	0.697605	0.254663	0.393081
C160	C	0.741881	0.210399	0.489263
C161	C	0.736928	0.188261	0.596239
C162	C	0.687695	0.210395	0.607030
C163	C	0.643421	0.254662	0.510848
C164	C	0.227257	0.670813	-0.393368
C165	C	0.182982	0.715091	-0.489551
C166	C	0.187934	0.737231	-0.596527
C167	C	0.237167	0.715095	-0.607318
C168	C	0.281442	0.670820	-0.511136
C169	C	0.281455	0.670802	0.058556
C170	C	0.237188	0.715078	0.058513
C171	C	0.187951	0.737224	-0.000390
C172	C	0.182982	0.715095	-0.059264
C173	C	0.227249	0.670823	-0.059226
C174	C	0.489434	0.670775	-0.393292
C175	C	0.489423	0.715034	-0.489463
C176	C	0.462319	0.737176	-0.596447
C177	C	0.435227	0.715052	-0.607260
C178	C	0.435241	0.670790	-0.511092
H179	H	0.570330	-0.171466	0.234289
H180	H	0.701667	0.272664	0.106866
H181	H	0.511506	0.652754	-0.306189
N182	N	0.518894	0.186554	0.722348
H183	H	0.494044	0.194264	0.764864
H184	H	0.536052	0.207299	0.714481
H185	H	0.424622	0.598972	-0.726111
N186	N	0.242750	0.350048	0.122301
H187	H	0.225600	0.347630	0.068304
H188	H	0.225618	0.347652	0.181568
N189	N	0.427029	0.611379	-0.579044
H190	H	0.400603	0.646871	-0.579076
H191	H	0.437318	0.625541	-0.648403
H192	H	0.151910	0.773273	-0.000412
H193	H	0.511483	0.733043	-0.480636
N194	N	0.518843	0.278555	0.522429
H195	H	0.536014	0.257817	0.604793
H196	H	0.493941	0.322993	0.485060
H197	H	0.781975	0.192356	0.106894
H198	H	0.603339	0.272674	0.519652
N199	N	0.066341	0.295826	0.181249
H200	H	0.049199	0.293397	0.240511
H201	H	0.104266	0.261522	0.218490
N202	N	0.518814	0.350047	-0.277739
H203	H	0.514699	0.358274	-0.218476
H204	H	0.556719	0.326370	-0.268811
N205	N	0.462300	0.784922	-0.700165
H206	H	0.441018	0.795597	-0.769586
H207	H	0.499022	0.769476	-0.700077
H208	H	0.413160	0.733086	-0.694380
H209	H	0.462582	0.152255	0.674525
H210	H	0.223196	0.652808	-0.107159
N211	N	0.406241	0.186549	0.477600
H212	H	0.410375	0.155149	0.554770
H213	H	0.420483	0.168208	0.435109
H214	H	0.413356	0.272699	0.305939
H215	H	0.701648	0.272681	0.305984
H216	H	0.241243	0.733088	0.106459
H217	H	0.223215	0.652789	-0.306272
H218	H	0.363914	0.598984	-0.570329
H219	H	0.772952	0.152221	0.000074
N220	N	0.590307	0.278551	-0.122388
H221	H	0.570745	0.270845	-0.068387
H222	H	0.593929	0.257804	-0.159675
N223	N	0.794980	0.186518	0.477619
H224	H	0.814549	0.194220	0.514870
H225	H	0.791355	0.207263	0.395236
H226	H	0.772984	0.152216	0.674547
N227	N	0.682355	0.186514	0.722411
H228	H	0.699505	0.194213	0.764929
H229	H	0.699526	0.142085	0.764855
N230	N	0.518820	0.350039	-0.477579
H231	H	0.514705	0.358261	-0.554722
H232	H	0.504605	0.326365	-0.435045
N233	N	0.349092	0.611390	-0.744366
H234	H	0.324595	0.625596	-0.705885
H235	H	0.345942	0.582995	-0.752070
N236	N	0.682310	0.186551	-0.122345
H237	H	0.644401	0.207295	-0.159649
H238	H	0.699511	0.142114	-0.068260
N239	N	0.129875	0.738974	-0.122769
H240	H	0.110282	0.783411	-0.182047
H241	H	0.110368	0.731226	-0.068663
H242	H	0.142898	0.733107	-0.480743
N243	N	0.140179	0.784984	-0.700261
H244	H	0.108243	0.795642	-0.677180
H245	H	0.140207	0.769548	-0.746490
N246	N	0.242505	0.738977	-0.722701
H247	H	0.206985	0.770380	-0.781985
H248	H	0.262082	0.705172	-0.731591
H249	H	0.413179	0.652785	-0.519913
H250	H	0.570345	-0.119003	0.234307
N251	N	0.334537	0.646946	-0.522786
H252	H	0.330951	0.667692	-0.605151
H253	H	0.354095	0.602511	-0.485439
H254	H	0.392800	-0.197381	-0.151345
N255	N	0.334556	0.646922	0.122092
H256	H	0.330980	0.667665	0.159366
H257	H	0.354091	0.654622	0.068027
H258	H	0.531902	-0.416839	0.150897
H259	H	0.570305	-0.251709	0.234266
N260	N	0.542070	-0.340886	0.172935
H261	H	0.566346	-0.385913	0.225696
H262	H	0.525319	-0.324196	0.216609
H263	H	0.532074	0.203117	0.151106
N264	N	0.542187	0.106866	0.173102
H265	H	0.566476	0.103296	0.225878
H266	H	0.562284	0.086832	0.136693
H267	H	0.392956	0.342305	-0.151166
H268	H	0.392940	0.262062	-0.151214
H269	H	0.354525	-0.035796	-0.234656
N270	N	0.344420	0.060438	-0.256676
H271	H	0.309223	0.069529	-0.253101
H272	H	0.346154	0.069426	-0.333056
N273	N	0.382656	-0.273345	-0.173418
H274	H	0.362513	-0.289981	-0.137109
H275	H	0.399413	-0.290003	-0.217132
N276	N	0.580500	-0.043040	0.256344
H277	H	0.574687	-0.005835	0.243701
H278	H	0.615668	-0.067531	0.252682
H279	H	0.354577	0.177163	-0.234556
H280	H	0.321681	0.364392	0.106702
N281	N	0.344426	0.101208	-0.256607
H282	H	0.320148	0.146235	-0.309366
H283	H	0.324318	0.084537	-0.220215
H284	H	-0.218110	0.364350	0.106807
N285	N	0.158299	0.295831	0.181236
H286	H	0.154748	0.261490	0.218559
H287	H	0.177845	0.293464	0.240433
N288	N	-0.008729	0.629648	-0.181511
H289	H	0.008414	0.632069	-0.240770
H290	H	0.008414	0.632033	-0.127444
N291	N	-0.297066	0.350021	0.122382
H292	H	-0.314216	0.347611	0.181627
H293	H	-0.259144	0.315706	0.159644
N294	N	-0.409835	0.575401	-0.122562
H295	H	-0.413996	0.599105	-0.204947
H296	H	-0.413956	0.599053	-0.091602
N297	N	-0.317876	0.575412	-0.122578
H298	H	-0.355792	0.609750	-0.159904
H299	H	-0.300703	0.577773	-0.181774
H300	H	0.142971	0.561116	-0.107088
N301	N	-0.100687	0.629644	-0.181492
H302	H	-0.097135	0.663984	-0.218804
H303	H	-0.120220	0.632002	-0.127421
H304	H	0.223249	0.561116	-0.107092
H305	H	0.012550	0.310149	0.165706
H306	H	-0.220403	0.615299	-0.165914
N307	N	-0.066397	0.295819	0.181281
H308	H	-0.101902	0.304050	0.172339
H309	H	-0.046815	0.272141	0.263640
H310	H	-0.140144	0.615303	-0.165927
