data_functionalizedCrystal
_audit_creation_method	'MofGen! by Chris Wilmer'
_symmetry_space_group_name_H-M	'P1'
_symmetry_Int_Tables_number	1
_symmetry_cell_setting	triclinic
loop_
_symmetry_equiv_pos_as_xyz
  x,y,z
_cell_length_a	16.109318
_cell_length_b	14.586319
_cell_length_c	16.109304
_cell_angle_alpha	89.997377
_cell_angle_beta	83.465600
_cell_angle_gamma	90.002271
loop_
_atom_site_label
_atom_site_type_symbol
_atom_site_fract_x
_atom_site_fract_y
_atom_site_fract_z
O1	O	1.103126	0.076158	0.106930
O2	O	1.603126	0.576158	0.606930
O3	O	0.861066	0.076176	0.120214
O4	O	1.361066	0.576176	0.620214
O5	O	0.988745	0.076167	-0.007458
O6	O	1.488745	0.576167	0.492542
O7	O	0.975448	0.076167	0.234602
O8	O	1.475448	0.576167	0.734602
O9	O	0.988729	-0.076314	-0.007451
O10	O	1.488729	0.423686	0.492549
O11	O	0.861051	-0.076305	0.120222
O12	O	1.361051	0.423695	0.620222
O13	O	1.103111	-0.076323	0.106937
O14	O	1.603111	0.423677	0.606937
Cu15	Cu	0.982079	-0.090236	0.113580
Cu16	Cu	1.482079	0.409764	0.613580
Cu17	Cu	0.982098	0.090090	0.113571
Cu18	Cu	1.482098	0.590090	0.613571
O19	O	0.975432	-0.076314	0.234610
O20	O	1.475432	0.423686	0.734610
C21	C	0.830084	-0.000062	0.119677
C22	C	1.330084	0.499938	0.619677
C23	C	0.737789	-0.000055	0.118056
C24	C	1.237789	0.499945	0.618056
N25	N	0.982072	-0.217068	0.113586
N26	N	1.482072	0.282932	0.613586
C27	C	0.438724	0.083046	0.112817
C28	C	0.938724	0.583046	0.612817
C29	C	0.525445	0.083052	0.114335
C30	C	1.025445	0.583052	0.614335
C31	C	0.525447	-0.083191	0.114332
C32	C	1.025447	0.416809	0.614332
C33	C	0.438728	-0.083196	0.112808
C34	C	0.938728	0.416804	0.612808
C35	C	0.395368	-0.000074	0.112055
C36	C	0.895368	0.499926	0.612055
C37	C	0.568809	-0.000064	0.115096
C38	C	1.068809	0.499936	0.615096
C39	C	0.662836	-0.000059	0.116741
C40	C	1.162836	0.499941	0.616741
C41	C	0.301336	-0.000079	0.110408
C42	C	0.801336	0.499921	0.610408
C43	C	1.032495	-0.452078	0.164018
C44	C	1.532495	0.047922	0.664018
C45	C	1.032504	-0.548060	0.164012
C46	C	1.532504	-0.048060	0.664012
C47	C	0.931686	-0.548061	0.063122
C48	C	1.431686	-0.048061	0.563122
C49	C	0.931683	-0.452082	0.063123
C50	C	1.431683	0.047918	0.563123
C51	C	0.982086	-0.404093	0.113576
C52	C	1.482086	0.095907	0.613576
C53	C	0.982098	-0.596054	0.113569
C54	C	1.482098	-0.096054	0.613569
C55	C	0.982107	-0.700121	0.113562
C56	C	1.482107	-0.200121	0.613562
C57	C	0.982078	-0.300019	0.113582
C58	C	1.482078	0.199981	0.613582
C59	C	1.134093	-0.000082	0.107474
C60	C	1.634093	0.499918	0.607474
C61	C	1.226388	-0.000084	0.109095
C62	C	1.726388	0.499916	0.609095
C63	C	0.988198	-0.000071	-0.038430
C64	C	1.488198	0.499929	0.461570
C65	C	0.986582	-0.000065	-0.130725
C66	C	1.486582	0.499935	0.369275
N67	N	0.982111	0.216922	0.113559
N68	N	1.482111	0.716922	0.613559
C69	C	0.982857	0.083049	-0.343067
C70	C	1.482857	0.583049	0.156933
C71	C	0.981331	0.083049	-0.429787
C72	C	1.481331	0.583049	0.070213
C73	C	0.981318	-0.083194	-0.429776
C74	C	1.481318	0.416806	0.070224
C75	C	0.982838	-0.083193	-0.343056
C76	C	1.482838	0.416807	0.156944
C77	C	0.983612	-0.000068	-0.299704
C78	C	1.483612	0.499932	0.200296
C79	C	0.980565	-0.000070	-0.473144
C80	C	1.480565	0.499930	0.026856
C81	C	0.978911	-0.000072	-0.567170
C82	C	1.478911	0.499928	-0.067170
C83	C	0.985265	-0.000066	-0.205672
C84	C	1.485265	0.499934	0.294328
C85	C	0.975979	-0.000073	0.265581
C86	C	1.475979	0.499927	0.765581
C87	C	0.977595	-0.000074	0.357876
C88	C	1.477595	0.499926	0.857876
H89	H	0.403423	0.150729	0.112203
H90	H	0.903423	0.650729	0.612203
H91	H	0.980714	0.150731	-0.465088
H92	H	1.480714	0.650731	0.034912
H93	H	0.560761	-0.150866	0.114946
H94	H	1.060761	0.349134	0.614946
H95	H	0.983484	0.150735	-0.307772
H96	H	1.483484	0.650735	0.192228
Br97	Br	0.863265	-0.386952	-0.005338
Br98	Br	1.363265	0.113048	0.494662
Br99	Br	0.980265	-0.196001	-0.488615
Br100	Br	1.480265	0.303999	0.011385
H101	H	1.073537	-0.413009	0.205100
H102	H	1.573537	0.086991	0.705100
Br103	Br	0.584283	0.195863	0.115362
Br104	Br	1.084283	0.695863	0.615362
Br105	Br	0.379883	-0.196011	0.111769
Br106	Br	0.879883	0.303989	0.611769
Br107	Br	0.983849	-0.196003	-0.284200
Br108	Br	1.483849	0.303997	0.215800
H109	H	1.073554	-0.587125	0.205085
H110	H	1.573554	-0.087125	0.705085
H111	H	0.890649	-0.587146	0.022046
H112	H	1.390649	-0.087146	0.522046
