data_functionalizedCrystal
_audit_creation_method	'MofGen! by Chris Wilmer'
_symmetry_space_group_name_H-M	'P1'
_symmetry_Int_Tables_number	1
_symmetry_cell_setting	triclinic
loop_
_symmetry_equiv_pos_as_xyz
  x,y,z
_cell_length_a	14.971482
_cell_length_b	22.610064
_cell_length_c	14.971486
_cell_angle_alpha	89.996133
_cell_angle_beta	83.613368
_cell_angle_gamma	90.007685
loop_
_atom_site_label
_atom_site_type_symbol
_atom_site_fract_x
_atom_site_fract_y
_atom_site_fract_z
O1	O	1.186953	0.049177	0.116535
O2	O	0.926552	0.049180	0.130497
O3	O	1.063732	0.049174	-0.006684
O4	O	1.049773	0.049183	0.253716
O5	O	1.063708	-0.049195	-0.006664
O6	O	0.926528	-0.049189	0.130517
O7	O	1.186929	-0.049192	0.116555
Zn8	Zn	1.056725	-0.064809	0.123539
Zn9	Zn	1.056756	0.064797	0.123513
O10	O	1.049749	-0.049186	0.253736
C11	C	0.893215	-0.000004	0.129883
C12	C	0.793918	-0.000003	0.128014
N13	N	1.056709	-0.153261	0.123556
C14	C	0.747260	-0.053625	0.127144
C15	C	0.653962	-0.053626	0.125373
C16	C	0.607322	-0.000004	0.124479
C17	C	0.653987	0.053622	0.125346
C18	C	0.747284	0.053622	0.127110
C19	C	0.459525	0.053618	0.121670
C20	C	0.366221	0.053618	0.119907
C21	C	0.366202	-0.053630	0.119934
C22	C	0.459500	-0.053629	0.121698
C23	C	0.506158	-0.000003	0.122567
C24	C	1.117502	-0.561905	0.062778
C25	C	1.117507	-0.623825	0.062772
O26	O	1.169157	-0.655846	0.011109
N27	N	1.056756	-0.654798	0.123494
C28	C	0.995990	-0.623849	0.184221
O29	O	0.944316	-0.655879	0.235869
C30	C	0.995982	-0.561930	0.184222
C31	C	1.056743	-0.530960	0.123502
C32	C	1.178258	-0.530935	0.002062
C33	C	1.178254	-0.469019	0.002070
C34	C	1.117495	-0.438074	0.062794
C35	C	1.056739	-0.469044	0.123510
C36	C	0.935212	-0.530981	0.244944
C37	C	0.935209	-0.469058	0.244940
C38	C	0.995970	-0.438088	0.184220
C39	C	0.995976	-0.376183	0.184242
N40	N	1.056728	-0.345210	0.123519
C41	C	1.117487	-0.376155	0.062795
C42	C	0.996011	-0.753882	0.184212
C43	C	0.996022	-0.815800	0.184216
C44	C	1.117538	-0.815772	0.062765
C45	C	1.117530	-0.753853	0.062766
C46	C	1.056762	-0.722909	0.123490
C47	C	1.117475	-0.246128	0.062817
C48	C	1.117469	-0.184207	0.062833
C49	C	0.995950	-0.184240	0.184280
C50	C	0.995959	-0.246156	0.184267
C51	C	1.056725	-0.277098	0.123529
O52	O	0.944350	-0.344123	0.235876
O53	O	1.169144	-0.344117	0.011148
C54	C	1.220266	-0.000006	0.117168
C55	C	1.319563	-0.000004	0.119038
C56	C	1.063096	-0.000010	-0.039999
C57	C	1.061225	-0.000010	-0.139296
N58	N	1.056779	0.153249	0.123488
C59	C	1.141814	-0.000011	-0.196522
C60	C	1.140051	-0.000005	-0.289822
C61	C	1.057698	-0.000002	-0.325893
C62	C	0.977102	0.000001	-0.268659
C63	C	0.978866	-0.000000	-0.175362
C64	C	0.973431	0.000003	-0.463122
C65	C	0.971667	0.000004	-0.556426
C66	C	1.134616	-0.000001	-0.577582
C67	C	1.136380	-0.000003	-0.484284
C68	C	1.055784	-0.000001	-0.427057
C69	C	1.050385	-0.000001	0.287051
C70	C	1.052256	0.000003	0.386348
H71	H	0.615979	-0.097290	0.124650
H72	H	0.913242	0.000001	-0.128768
O73	O	0.608746	0.105727	0.124322
C74	C	0.641616	0.138355	0.047353
H75	H	0.674278	0.106979	-0.006263
H76	H	0.583639	0.162680	0.020213
H77	H	0.693510	0.171788	0.065871
H78	H	0.785227	-0.097290	0.127880
H79	H	1.167007	-0.728641	0.013322
O80	O	1.176319	-0.154095	0.003707
C81	C	1.128271	-0.118344	-0.051557
H82	H	1.058369	-0.109039	-0.015954
H83	H	1.165585	-0.074813	-0.065804
H84	H	1.122005	-0.142268	-0.117598
H85	H	1.166955	-0.271314	0.013357
O86	O	0.320900	-0.105737	0.119242
C87	C	0.333647	-0.138362	0.197078
H88	H	0.352274	-0.106985	0.251660
H89	H	0.268907	-0.162682	0.221901
H90	H	0.390065	-0.171800	0.180613
O91	O	0.504786	-0.105732	0.122409
C92	C	0.492018	-0.138365	0.044590
H93	H	0.473402	-0.106992	-0.010005
H94	H	0.556745	-0.162687	0.019773
H95	H	0.435585	-0.171801	0.061074
H96	H	1.227729	-0.443807	-0.047376
O97	O	1.176471	-0.845930	0.003804
C98	C	1.163454	-0.907221	0.016842
H99	H	1.092380	-0.915683	0.050162
H100	H	1.173328	-0.930751	-0.050879
H101	H	1.214126	-0.924791	0.061784
H102	H	1.227736	-0.556125	-0.047391
H103	H	0.328249	0.097282	0.119180
O104	O	0.895058	-0.000019	-0.407658
C105	C	0.821991	-0.000003	-0.459499
H106	H	0.844613	-0.018626	-0.529105
H107	H	0.765512	-0.028561	-0.425138
H108	H	0.796765	0.047190	-0.466172
O109	O	0.936919	-0.845789	0.243239
C110	C	0.883311	-0.805190	0.296849
H111	H	0.882268	-0.761051	0.260173
H112	H	0.811895	-0.823085	0.310377
H113	H	0.912421	-0.798606	0.363344
O114	O	0.937109	-0.723761	0.243252
C115	C	0.985061	-0.687955	0.298533
H116	H	1.055007	-0.678659	0.263019
H117	H	0.947732	-0.644423	0.312638
H118	H	0.991218	-0.711827	0.364643
H119	H	0.946483	-0.159034	0.233723
O120	O	0.897082	0.000111	-0.303655
C121	C	0.847953	0.051051	-0.274409
H122	H	0.896119	0.086658	-0.254955
H123	H	0.809843	0.068153	-0.330969
H124	H	0.798172	0.039534	-0.213656
O125	O	0.504706	0.105763	0.122558
C126	C	0.443539	0.153091	0.121374
H127	H	0.373353	0.137370	0.148408
H128	H	0.464865	0.190593	0.165277
H129	H	0.442937	0.169583	0.049483
H130	H	0.785272	0.097286	0.127820
H131	H	1.200240	-0.000001	-0.624181
H132	H	0.904607	-0.000003	-0.585792
H133	H	0.885735	-0.556188	0.294388
O134	O	0.876145	-0.439091	0.304017
C135	C	0.822509	-0.479709	0.357588
H136	H	0.859186	-0.523842	0.358651
H137	H	0.808931	-0.461830	0.429002
H138	H	0.756039	-0.486300	0.328431
H139	H	0.946490	-0.271372	0.233720
H140	H	1.208876	-0.000017	-0.167161
H141	H	1.205675	-0.000007	-0.336413
H142	H	1.203439	-0.000009	-0.454919
