data_functionalizedCrystal
_audit_creation_method	'MofGen! by Chris Wilmer'
_symmetry_space_group_name_H-M	'P1'
_symmetry_Int_Tables_number	1
_symmetry_cell_setting	triclinic
loop_
_symmetry_equiv_pos_as_xyz
  x,y,z
_cell_length_a	19.188930
_cell_length_b	18.266242
_cell_length_c	11.792254
_cell_angle_alpha	90.006490
_cell_angle_beta	83.671689
_cell_angle_gamma	90.022918
loop_
_atom_site_label
_atom_site_type_symbol
_atom_site_fract_x
_atom_site_fract_y
_atom_site_fract_z
O1	O	0.926956	0.061117	0.141695
O2	O	0.723753	0.061067	0.160769
O3	O	0.830281	0.061088	-0.014012
O4	O	0.820428	0.061096	0.316475
O5	O	0.830263	-0.060674	-0.014021
O6	O	0.723735	-0.060695	0.160760
O7	O	0.926938	-0.060645	0.141686
Zn8	Zn	0.825333	-0.080003	0.151221
Zn9	Zn	0.825357	0.080424	0.151233
O10	O	0.820410	-0.060666	0.316466
C11	C	0.697729	0.000179	0.160147
C12	C	0.620214	0.000160	0.158292
N13	N	0.825322	-0.189490	0.151213
C14	C	0.575874	0.000174	0.260848
C15	C	0.503041	0.000182	0.259106
C16	C	0.474550	0.000191	0.154803
C17	C	0.518900	0.000173	0.052234
C18	C	0.591732	0.000157	0.053979
N19	N	0.366122	0.041659	0.075079
N20	N	0.296934	0.041675	0.073428
C21	C	0.255112	0.000235	0.149539
N22	N	0.285089	-0.041212	0.227380
N23	N	0.354283	-0.041225	0.229034
C24	C	0.395577	0.000207	0.152899
C25	C	0.131796	0.000257	0.250213
C26	C	0.058962	0.000260	0.248466
C27	C	0.074823	0.000258	0.041591
C28	C	0.147656	0.000248	0.043340
C29	C	0.176138	0.000250	0.147654
C30	C	0.872508	-0.227789	0.073858
C31	C	0.872513	-0.304434	0.073852
C32	C	0.825338	-0.342776	0.151222
C33	C	0.778142	-0.304468	0.228582
C34	C	0.778135	-0.227824	0.228578
N35	N	0.816834	-0.463108	0.251691
N36	N	0.816846	-0.535916	0.251692
C37	C	0.825357	-0.573699	0.151238
N38	N	0.833871	-0.535923	0.050780
N39	N	0.833863	-0.463108	0.050781
C40	C	0.825341	-0.425883	0.151235
C41	C	0.872551	-0.695105	0.073871
C42	C	0.872551	-0.771752	0.073864
C43	C	0.778184	-0.771784	0.228604
C44	C	0.778181	-0.695139	0.228601
C45	C	0.825368	-0.656804	0.151236
C46	C	0.952961	0.000244	0.142308
C47	C	1.030476	0.000268	0.144162
C48	C	0.829651	0.000207	-0.056298
C49	C	0.827793	0.000207	-0.182283
N50	N	0.825374	0.189911	0.151233
C51	C	0.826284	0.000209	-0.284597
C52	C	0.824397	0.000216	-0.412955
C53	C	0.821039	0.000216	0.358752
C54	C	0.822897	0.000221	0.484737
H55	H	0.599059	0.000178	0.345788
F56	F	0.011771	0.000271	0.357626
F57	F	0.922726	-0.186992	-0.008484
H58	H	0.739731	-0.335690	0.291576
H59	H	0.627835	0.000146	-0.029537
F60	F	0.727972	-0.812587	0.310939
F61	F	0.044506	0.000261	-0.069417
F62	F	0.922771	-0.812515	-0.008477
H63	H	0.466932	0.000191	0.342621
H64	H	0.739760	-0.663954	0.291595
F65	F	0.922738	-0.345202	-0.008484
F66	F	0.488578	0.000178	-0.058773
F67	F	0.162112	0.000254	0.361231
H68	H	0.183759	0.000240	-0.040172
H69	H	0.739709	-0.196640	0.291571
F70	F	0.922769	-0.654306	-0.008473
