data_functionalizedCrystal
_audit_creation_method	'MofGen! by Chris Wilmer'
_symmetry_space_group_name_H-M	'P1'
_symmetry_Int_Tables_number	1
_symmetry_cell_setting	triclinic
loop_
_symmetry_equiv_pos_as_xyz
  x,y,z
_cell_length_a	13.032831
_cell_length_b	21.295417
_cell_length_c	13.034356
_cell_angle_alpha	82.784908
_cell_angle_beta	74.815040
_cell_angle_gamma	82.834379
loop_
_atom_site_label
_atom_site_type_symbol
_atom_site_fract_x
_atom_site_fract_y
_atom_site_fract_z
Zn1	Zn	1.700064	-0.319122	-0.806376
Zn2	Zn	1.677332	-0.436255	-0.628722
Zn3	Zn	1.499869	-0.319127	-0.606258
Zn4	Zn	1.522371	-0.412473	-0.783780
O5	O	1.599909	-0.371744	-0.706284
O6	O	1.845683	-0.344610	-0.801667
O7	O	1.634860	-0.430673	-0.477100
O8	O	1.526521	-0.231040	-0.632860
O9	O	1.828981	-0.430668	-0.671146
O10	O	1.673604	-0.231036	-0.779885
O11	O	1.504479	-0.344620	-0.460596
O12	O	1.354220	-0.321559	-0.610949
O13	O	1.564874	-0.390135	-0.935419
O14	O	1.370752	-0.390140	-0.741373
O15	O	1.695424	-0.321550	-0.952021
O16	O	1.656680	-0.521187	-0.649235
O17	O	1.542831	-0.503714	-0.763155
C18	C	1.323947	-0.353270	-0.671273
C19	C	1.205893	-0.345380	-0.656320
C20	C	1.599762	-0.535291	-0.706207
C21	C	1.599801	-0.605260	-0.706223
C22	C	1.161455	-0.375862	-0.714088
C23	C	1.039440	-0.367708	-0.698635
C24	C	1.659152	-0.647204	-0.646982
C25	C	1.659204	-0.712948	-0.647012
C26	C	1.599887	-0.736746	-0.706269
C27	C	1.540533	-0.694794	-0.765523
C28	C	1.540491	-0.629051	-0.765500
N29	N	1.508000	-0.833254	-0.702579
N30	N	1.508043	-0.895708	-0.702595
C31	C	1.600013	-0.934824	-0.706345
N32	N	1.691939	-0.909130	-0.710058
N33	N	1.691894	-0.846671	-0.710036
C34	C	1.599927	-0.808032	-0.706302
C35	C	1.659426	-1.048056	-0.647134
C36	C	1.659482	-1.113801	-0.647172
C37	C	1.540800	-1.095645	-0.765677
C38	C	1.540755	-1.029901	-0.765646
C39	C	1.600066	-1.006111	-0.706368
C40	C	1.876949	-0.390291	-0.741433
C41	C	1.995007	-0.398195	-0.756411
C42	C	1.635195	-0.353189	-0.983339
C43	C	1.650231	-0.345281	-1.101403
C44	C	1.600088	-0.207560	-0.706388
C45	C	1.600165	-0.137594	-0.706432
C46	C	1.607879	-0.367522	-1.267851
C47	C	1.592335	-0.375694	-1.145825
C48	C	1.564822	-0.390186	-0.430315
C49	C	1.549991	-0.397930	-0.312277
H50	H	1.213743	-0.407994	-0.774989
H51	H	1.711306	-0.313197	-1.153703
H52	H	1.488928	-0.430017	-1.259973
N53	N	1.476723	-0.984662	-0.829529
H54	H	1.422018	-0.957027	-0.780068
H55	H	1.526173	-0.956976	-0.884248
N56	N	1.476811	-1.121299	-0.829587
H57	H	1.502903	-1.105842	-0.907576
H58	H	1.485861	-1.169308	-0.820532
H59	H	1.668950	-0.335440	-1.320156
H60	H	1.492238	-0.714174	-0.813773
H61	H	1.531268	-0.407783	-1.093525
H62	H	1.047290	-0.430327	-0.817320
N63	N	1.136645	-0.302817	-0.575644
H64	H	1.059296	-0.303028	-0.576036
H65	H	1.146295	-0.318917	-0.502185
N66	N	1.476458	-0.583809	-0.829384
H67	H	1.485427	-0.538551	-0.820372
H68	H	1.502597	-0.591287	-0.907355
H69	H	0.987157	-0.335569	-0.637737
N70	N	1.723137	-0.621544	-0.583067
H71	H	1.760749	-0.658095	-0.545548
H72	H	1.777749	-0.594621	-0.632579
N73	N	1.723222	-0.758198	-0.583116
H74	H	1.760789	-0.733150	-0.545563
H75	H	1.673771	-0.785914	-0.528458
N76	N	1.723395	-1.022389	-0.583207
H77	H	1.761009	-1.058939	-0.545687
H78	H	1.778004	-0.995459	-0.632703
H79	H	1.707819	-1.147951	-0.598934
