data_functionalizedCrystal
_audit_creation_method	'MofGen! by Chris Wilmer'
_symmetry_space_group_name_H-M	'P1'
_symmetry_Int_Tables_number	1
_symmetry_cell_setting	triclinic
loop_
_symmetry_equiv_pos_as_xyz
  x,y,z
_cell_length_a	17.077404
_cell_length_b	17.077402
_cell_length_c	17.077396
_cell_angle_alpha	89.970216
_cell_angle_beta	90.021444
_cell_angle_gamma	89.978870
loop_
_atom_site_label
_atom_site_type_symbol
_atom_site_fract_x
_atom_site_fract_y
_atom_site_fract_z
Zn1	Zn	1.200055	0.312545	0.443876
Zn2	Zn	1.533388	0.645878	0.777210
Zn3	Zn	1.866721	0.979212	1.110543
Zn4	Zn	1.199962	0.443820	0.312607
Zn5	Zn	1.533295	0.777153	0.645941
Zn6	Zn	1.866628	1.110486	0.979274
Zn7	Zn	1.068786	0.312568	0.312620
Zn8	Zn	1.402120	0.645901	0.645953
Zn9	Zn	1.735453	0.979235	0.979286
Zn10	Zn	1.068754	0.443769	0.443826
Zn11	Zn	1.402088	0.777102	0.777160
Zn12	Zn	1.735421	1.110435	1.110493
O13	O	1.134389	0.378175	0.378232
O14	O	1.467723	0.711509	0.711566
O15	O	1.801056	1.044842	1.044899
O16	O	1.309889	0.329970	0.426479
O17	O	1.643223	0.663304	0.759812
O18	O	1.976556	0.996637	1.093145
O19	O	1.182536	0.426440	0.202762
O20	O	1.515869	0.759773	0.536095
O21	O	1.849202	1.093107	0.869429
O22	O	1.086252	0.202718	0.330057
O23	O	1.419585	0.536051	0.663391
O24	O	1.752918	0.869385	0.996724
O25	O	1.309821	0.426418	0.330036
O26	O	1.643154	0.759751	0.663369
O27	O	1.976488	1.093084	0.996703
O28	O	1.182694	0.202701	0.426491
O29	O	1.516027	0.536034	0.759824
O30	O	1.849361	0.869368	1.093158
O31	O	1.086162	0.330010	0.202771
O32	O	1.419495	0.663343	0.536104
O33	O	1.752828	0.996676	0.869438
O34	O	0.958935	0.329960	0.330009
O35	O	1.292269	0.663293	0.663342
O36	O	1.625602	0.996627	0.996676
O37	O	1.086197	0.426330	0.553680
O38	O	1.419531	0.759664	0.887013
O39	O	1.752864	1.092997	1.220347
O40	O	0.958912	0.426353	0.426406
O41	O	1.292245	0.759686	0.759739
O42	O	1.625578	1.093019	1.093073
O43	O	1.182663	0.329921	0.553717
O44	O	1.515996	0.663254	0.887050
O45	O	1.849330	0.996588	1.220383
O46	O	1.182505	0.553660	0.329988
O47	O	1.515838	0.886993	0.663321
O48	O	1.849171	1.220327	0.996654
O49	O	1.086107	0.553622	0.426394
O50	O	1.419440	0.886956	0.759727
O51	O	1.752774	1.220289	1.093061
C52	C	0.930441	0.378154	0.378204
C53	C	1.263775	0.711487	0.711537
C54	C	1.597108	1.044821	1.044871
C55	C	0.843192	0.378164	0.378210
C56	C	1.176525	0.711497	0.711544
C57	C	1.509858	1.044830	1.044877
C58	C	1.134314	0.582123	0.378201
C59	C	1.467647	0.915456	0.711534
C60	C	1.800980	1.248790	1.044868
C61	C	1.134353	0.669373	0.378214
C62	C	1.467686	1.002706	0.711547
C63	C	1.801020	1.336040	1.044881
C64	C	0.467410	0.328067	0.428559
C65	C	0.800743	0.661400	0.761892
C66	C	1.134077	0.994734	1.095226
C67	C	0.549390	0.328061	0.428550
C68	C	0.882724	0.661395	0.761884
C69	C	1.216057	0.994728	1.095217
C70	C	0.590343	0.378192	0.378252
C71	C	0.923676	0.711525	0.711586
C72	C	1.257009	1.044858	1.044919
C73	C	0.549310	0.428337	0.327965
C74	C	0.882644	0.761670	0.661298
C75	C	1.215977	1.095003	0.994632
C76	C	0.467332	0.428346	0.327978
C77	C	0.800665	0.761679	0.661312
C78	C	1.133998	1.095012	0.994645
C79	C	0.720181	0.428313	0.327940
C80	C	1.053514	0.761646	0.661273
C81	C	1.386847	1.094980	0.994606
C82	C	0.802165	0.428303	0.327925
C83	C	1.135498	0.761636	0.661259
C84	C	1.468832	1.094970	0.994592
C85	C	0.802239	0.328029	0.428512
C86	C	1.135573	0.661362	0.761845
C87	C	1.468906	0.994695	1.095179
C88	C	0.720260	0.328038	0.428525
C89	C	1.053594	0.661371	0.761858
C90	C	1.386927	0.994704	1.095192
C91	C	0.679234	0.378182	0.378237
C92	C	1.012567	0.711515	0.711570
C93	C	1.345900	1.044849	1.044903
C94	C	1.134437	0.378117	0.582977
C95	C	1.467770	0.711451	0.916310
C96	C	1.801103	1.044784	1.249643
C97	C	1.134457	0.378093	0.670227
C98	C	1.467790	0.711426	1.003560
C99	C	1.801124	1.044759	1.336893
C100	C	1.339134	0.378197	0.378262
C101	C	1.672467	0.711530	0.711595
C102	C	2.005800	1.044864	1.044928
C103	C	1.426383	0.378206	0.378274
C104	C	1.759717	0.711540	0.711607
C105	C	2.093050	1.044873	1.044941
C106	C	1.134487	0.173431	0.378281
C107	C	1.467820	0.506764	0.711614
C108	C	1.801153	0.840098	1.044948
C109	C	1.134528	0.086181	0.378302
C110	C	1.467862	0.419514	0.711635
C111	C	1.801195	0.752848	1.044968
C112	C	1.184598	0.710357	0.328069
C113	C	1.517932	1.043690	0.661403
C114	C	1.851265	1.377023	0.994736
C115	C	1.184637	0.792337	0.328089
C116	C	1.517970	1.125670	0.661423
C117	C	1.851303	1.459004	0.994756
C118	C	1.134425	0.833332	0.378251
C119	C	1.467759	1.166666	0.711584
C120	C	1.801092	1.499999	1.044917
C121	C	1.084178	0.792343	0.428401
C122	C	1.417511	1.125676	0.761734
C123	C	1.750844	1.459010	1.095068
C124	C	1.084144	0.710364	0.428384
C125	C	1.417477	1.043697	0.761718
C126	C	1.750810	1.377031	1.095051
C127	C	1.084250	0.963213	0.428431
C128	C	1.417584	1.296546	0.761764
C129	C	1.750917	1.629880	1.095097
C130	C	1.084283	1.045197	0.428447
C131	C	1.417616	1.378531	0.761780
C132	C	1.750950	1.711864	1.095113
C133	C	1.184743	1.045186	0.328136
C134	C	1.518077	1.378519	0.661469
C135	C	1.851410	1.711853	0.994802
C136	C	1.184709	0.963207	0.328119
C137	C	1.518043	1.296540	0.661452
C138	C	1.851376	1.629874	0.994786
C139	C	1.134461	0.922223	0.378269
C140	C	1.467794	1.255557	0.711602
C141	C	1.801127	1.588890	1.044935
C142	C	1.134387	0.378176	0.174285
C143	C	1.467721	0.711510	0.507618
C144	C	1.801054	1.044843	0.840951
C145	C	1.134519	0.377980	0.087035
C146	C	1.467852	0.711313	0.420369
C147	C	1.801186	1.044646	0.753702
C148	C	1.184689	0.327888	0.711237
C149	C	1.518022	0.661221	1.044570
C150	C	1.851355	0.994555	1.377904
C151	C	1.184698	0.327862	0.793218
C152	C	1.518031	0.661195	1.126551
C153	C	1.851365	0.994529	1.459884
C154	C	1.134479	0.378045	0.834186
C155	C	1.467813	0.711378	1.167520
C156	C	1.801146	1.044712	1.500853
C157	C	1.084242	0.428252	0.793170
C158	C	1.417576	0.761585	1.126503
C159	C	1.750909	1.094919	1.459837
C160	C	1.084229	0.428273	0.711191
C161	C	1.417563	0.761607	1.044524
C162	C	1.750896	1.094940	1.377858
C163	C	1.084274	0.428205	0.964040
C164	C	1.417607	0.761538	1.297373
C165	C	1.750941	1.094871	1.630707
C166	C	1.084288	0.428184	1.046025
C167	C	1.417621	0.761518	1.379358
C168	C	1.750954	1.094851	1.712691
C169	C	1.184742	0.327793	1.046067
C170	C	1.518076	0.661127	1.379400
C171	C	1.851409	0.994460	1.712733
C172	C	1.184730	0.327815	0.964088
C173	C	1.518063	0.661148	1.297421
C174	C	1.851396	0.994481	1.630754
C175	C	1.134493	0.378023	0.923077
C176	C	1.467827	0.711356	1.256411
C177	C	1.801160	1.044690	1.589744
H178	H	0.434072	0.287240	0.469513
H179	H	0.767406	0.620574	0.802846
H180	H	1.100739	0.953907	1.136180
H181	H	1.225591	0.929829	0.287270
H182	H	1.558925	1.263162	0.620603
H183	H	1.892258	1.596495	0.953937
H184	H	1.225645	0.286911	1.079462
H185	H	1.558979	0.620244	1.412795
H186	H	1.892312	0.953577	1.746128
H187	H	1.043298	0.825728	0.469247
H188	H	1.376631	1.159061	0.802580
H189	H	1.709964	1.492394	1.135913
Cl190	Cl	1.247906	1.096708	0.265083
Cl191	Cl	1.581239	1.430041	0.598416
Cl192	Cl	1.914572	1.763374	0.931750
Cl193	Cl	1.247808	0.843856	0.265050
Cl194	Cl	1.581141	1.177189	0.598383
Cl195	Cl	1.914475	1.510523	0.931716
H196	H	1.043411	1.078574	0.469307
H197	H	1.376744	1.411907	0.802640
H198	H	1.710078	1.745240	1.135974
H199	H	0.582791	0.287236	0.469500
H200	H	0.916124	0.620569	0.802833
H201	H	1.249457	0.953902	1.136167
H202	H	1.225585	0.287026	0.677886
H203	H	1.558918	0.620359	1.011220
H204	H	1.892252	0.953692	1.344553
Cl205	Cl	1.247720	0.658828	0.265000
Cl206	Cl	1.581054	0.992161	0.598334
Cl207	Cl	1.914387	1.325494	0.931667
Cl208	Cl	0.668778	0.265013	0.491755
Cl209	Cl	1.002111	0.598346	0.825088
Cl210	Cl	1.335445	0.931679	1.158421
H211	H	0.835647	0.287198	0.469457
H212	H	1.168980	0.620532	0.802791
H213	H	1.502314	0.953865	1.136124
H214	H	0.835506	0.469126	0.286970
H215	H	1.168840	0.802459	0.620304
H216	H	1.502173	1.135793	0.953637
H217	H	1.043354	0.469077	0.930652
H218	H	1.376687	0.802410	1.263985
H219	H	1.710021	1.135744	1.597318
H220	H	0.582660	0.469157	0.287014
H221	H	0.915994	0.802490	0.620348
H222	H	1.249327	1.135823	0.953681
H223	H	1.043350	0.469109	0.826533
H224	H	1.376684	0.802442	1.159866
H225	H	1.710017	1.135776	1.493200
H226	H	1.043335	0.929847	0.469271
H227	H	1.376668	1.263180	0.802604
H228	H	1.710002	1.596513	1.135937
Cl229	Cl	0.668605	0.491362	0.264728
Cl230	Cl	1.001939	0.824695	0.598062
Cl231	Cl	1.335272	1.158028	0.931395
H232	H	1.043318	0.469147	0.677801
H233	H	1.376651	0.802481	1.011135
H234	H	1.709985	1.135814	1.344468
H235	H	1.043230	0.676996	0.469218
H236	H	1.376563	1.010329	0.802552
H237	H	1.709897	1.343662	1.135885
Cl238	Cl	1.247884	0.264779	0.844770
Cl239	Cl	1.581217	0.598113	1.178104
Cl240	Cl	1.914551	0.931446	1.511437
Cl241	Cl	1.247867	0.264731	0.912585
Cl242	Cl	1.581201	0.598065	1.245919
Cl243	Cl	1.914534	0.931398	1.579252
H244	H	1.043393	0.469046	1.079379
H245	H	1.376727	0.802379	1.412712
H246	H	1.710060	1.135713	1.746046
H247	H	0.433929	0.469176	0.287032
H248	H	0.767262	0.802509	0.620366
H249	H	1.100595	1.135843	0.953699
