data_functionalizedCrystal
_audit_creation_method	'MofGen! by Chris Wilmer'
_symmetry_space_group_name_H-M	'P1'
_symmetry_Int_Tables_number	1
_symmetry_cell_setting	triclinic
loop_
_symmetry_equiv_pos_as_xyz
  x,y,z
_cell_length_a	12.645331
_cell_length_b	12.759400
_cell_length_c	12.759393
_cell_angle_alpha	89.968436
_cell_angle_beta	89.974415
_cell_angle_gamma	90.008939
loop_
_atom_site_label
_atom_site_type_symbol
_atom_site_fract_x
_atom_site_fract_y
_atom_site_fract_z
Zn1	Zn	-1.620745	0.418365	0.594180
Zn2	Zn	-1.120745	0.918365	1.094180
Zn3	Zn	-1.620639	0.594084	0.418500
Zn4	Zn	-1.120639	1.094084	0.918500
Zn5	Zn	-1.443462	0.418402	0.418498
Zn6	Zn	-0.943462	0.918402	0.918498
Zn7	Zn	-1.443451	0.593985	0.594120
Zn8	Zn	-0.943451	1.093985	1.094120
O9	O	-1.532074	0.506209	0.506324
O10	O	-1.032074	1.006209	1.006324
O11	O	-1.769078	0.441701	0.570902
O12	O	-1.269078	0.941701	1.070902
O13	O	-1.597096	0.570836	0.271479
O14	O	-1.097096	1.070836	0.771479
O15	O	-1.467028	0.271376	0.441826
O16	O	-0.967028	0.771376	0.941826
O17	O	-1.769000	0.570801	0.441831
O18	O	-1.269000	1.070801	0.941831
O19	O	-1.597278	0.271349	0.570899
O20	O	-1.097278	0.771349	1.070899
O21	O	-1.466925	0.441764	0.271477
O22	O	-0.966925	0.941764	0.771477
O23	O	-1.295113	0.441668	0.441768
O24	O	-0.795113	0.941668	0.941768
O25	O	-1.467009	0.570632	0.741149
O26	O	-0.967009	1.070632	1.241149
O27	O	-1.295105	0.570668	0.570797
O28	O	-0.795105	1.070668	1.070797
O29	O	-1.597266	0.441605	0.741193
O30	O	-1.097266	0.941605	1.241193
O31	O	-1.597085	0.741092	0.441772
O32	O	-1.097085	1.241092	0.941772
O33	O	-1.466906	0.741019	0.570799
O34	O	-0.966906	1.241019	1.070799
C35	C	-1.256644	0.506162	0.506276
C36	C	-0.756644	1.006162	1.006276
C37	C	-1.138814	0.506167	0.506281
C38	C	-0.638814	1.006167	1.006281
C39	C	-0.971220	0.424626	0.425546
C40	C	-0.471220	0.924626	0.925546
C41	C	-1.093780	0.424847	0.425198
C42	C	-0.593780	0.924847	0.925198
C43	C	-1.094300	0.616842	0.476033
C44	C	-0.594300	1.116842	0.976033
C45	C	-0.971702	0.616386	0.475474
C46	C	-0.471702	1.116386	0.975474
C47	C	-0.971662	0.478055	0.617551
C48	C	-0.471662	0.978055	1.117551
C49	C	-1.094268	0.475593	0.616941
C50	C	-0.594268	0.975593	1.116941
C51	C	-1.532011	0.779177	0.506302
C52	C	-1.032011	1.279177	1.006302
C53	C	-1.532081	0.895953	0.506328
C54	C	-1.032081	1.395953	1.006328
C55	C	-1.532148	0.506103	0.780358
C56	C	-1.032148	1.006103	1.280358
C57	C	-1.532180	0.506058	0.897135
C58	C	-1.032180	1.006058	1.397135
C59	C	-0.808579	0.506237	0.506357
C60	C	-0.308579	1.006237	1.006357
C61	C	-0.926409	0.506197	0.506330
C62	C	-0.426409	1.006197	1.006330
C63	C	-1.532166	0.232176	0.506369
C64	C	-1.032166	0.732176	1.006369
C65	C	-1.532205	0.115399	0.506389
C66	C	-1.032205	0.615399	1.006389
C67	C	-1.599941	0.950818	0.439218
C68	C	-1.099941	1.450818	0.939218
C69	C	-1.600006	1.060542	0.439251
C70	C	-1.100006	1.560542	0.939251
C71	C	-1.464343	1.060527	0.573506
C72	C	-0.964343	1.560527	1.073506
C73	C	-1.464284	0.950805	0.573478
C74	C	-0.964284	1.450805	1.073478
C75	C	-1.667738	0.895967	0.372068
C76	C	-1.167738	1.395967	0.872068
C77	C	-1.735602	0.950832	0.304952
C78	C	-1.235602	1.450832	0.804952
C79	C	-1.735667	1.060556	0.304984
C80	C	-1.235667	1.560556	0.804984
C81	C	-1.667868	1.115415	0.372133
C82	C	-1.167868	1.615415	0.872133
C83	C	-1.532061	0.506239	0.233357
C84	C	-1.032061	1.006239	0.733357
C85	C	-1.532235	0.505988	0.116581
C86	C	-1.032235	1.005988	0.616581
C87	C	-1.600014	0.438867	0.952021
C88	C	-1.100014	0.938867	1.452021
C89	C	-1.600040	0.438829	1.061746
C90	C	-1.100040	0.938829	1.561746
C91	C	-1.464393	0.573182	1.061686
C92	C	-0.964393	1.073182	1.561686
C93	C	-1.464363	0.573214	0.951964
C94	C	-0.964363	1.073214	1.451964
C95	C	-1.667831	0.371711	0.897192
C96	C	-1.167831	0.871711	1.397192
C97	C	-1.735672	0.304516	0.952078
C98	C	-1.235672	0.804516	1.452078
C99	C	-1.735697	0.304478	1.061803
C100	C	-1.235697	0.804478	1.561803
C101	C	-1.667881	0.371635	1.116640
C102	C	-1.167881	0.871635	1.616640
H103	H	-1.124927	0.530676	0.680355
H104	H	-0.624927	1.030676	1.180355
H105	H	-1.790878	0.249832	0.907423
H106	H	-1.290878	0.749832	1.407423
F107	F	-1.392062	0.892410	0.644906
F108	F	-0.892062	1.392410	1.144906
H109	H	-1.409180	0.627858	1.106344
H110	H	-0.909180	1.127858	1.606344
F111	F	-0.933788	0.555710	0.696227
F112	F	-0.433788	1.055710	1.196227
F113	F	-1.392190	1.118915	0.644963
F114	F	-0.892190	1.618915	1.144963
F115	F	-1.132056	0.449161	0.317474
F116	F	-0.632056	0.949161	0.817474
H117	H	-1.123876	0.342777	0.444157
H118	H	-0.623876	0.842777	0.944157
F119	F	-1.667899	0.371579	1.233419
F120	F	-1.167899	0.871579	1.733419
F121	F	-1.667813	0.371749	0.780414
F122	F	-1.167813	0.871749	1.280414
F123	F	-1.807763	0.892446	0.233500
F124	F	-1.307763	1.392446	0.733500
F125	F	-0.934260	0.647576	0.369199
F126	F	-0.434260	1.147576	0.869199
H127	H	-1.409110	0.627910	0.907274
H128	H	-0.909110	1.127910	1.407274
H129	H	-0.941751	0.342304	0.444298
H130	H	-0.441751	0.842304	0.944298
F131	F	-1.132418	0.698412	0.550537
F132	F	-0.632418	1.198412	1.050537
F133	F	-0.930885	0.448651	0.318454
F134	F	-0.430885	0.948651	0.818454
F135	F	-0.932954	0.698519	0.549022
F136	F	-0.432954	1.198519	1.049022
H137	H	-1.790928	0.249757	1.106489
H138	H	-1.290928	0.749757	1.606489
H139	H	-0.940761	0.398755	0.645055
H140	H	-0.440761	0.898755	1.145055
F141	F	-1.134368	0.648578	0.370902
F142	F	-0.634368	1.148578	0.870902
F143	F	-1.132316	0.369146	0.646764
F144	F	-0.632316	0.869146	1.146764
F145	F	-1.667907	0.779190	0.372259
F146	F	-1.167907	1.279190	0.872259
H147	H	-1.790933	1.105224	0.250342
H148	H	-1.290933	1.605224	0.750342
H149	H	-1.667935	1.204760	0.372162
H150	H	-1.167935	1.704760	0.872162
