data_functionalizedCrystal
_audit_creation_method	'MofGen! by Chris Wilmer'
_symmetry_space_group_name_H-M	'P1'
_symmetry_Int_Tables_number	1
_symmetry_cell_setting	triclinic
loop_
_symmetry_equiv_pos_as_xyz
  x,y,z
_cell_length_a	6.817900
_cell_length_b	9.514072
_cell_length_c	11.168144
_cell_angle_alpha	88.684538
_cell_angle_beta	108.508840
_cell_angle_gamma	118.843421
loop_
_atom_site_label
_atom_site_type_symbol
_atom_site_fract_x
_atom_site_fract_y
_atom_site_fract_z
V1	V	-4.169139	-0.222227	-0.394688
O2	O	-4.066626	0.010656	-0.386157
O3	O	-4.203659	-0.440617	-0.392968
O4	O	-4.144521	-0.218819	-0.566379
O5	O	-4.126174	-0.212677	-0.211546
V6	V	-4.638941	-0.194370	-0.372664
O7	O	-4.460496	-0.283333	-0.443000
O8	O	-4.797781	-0.133265	-0.324352
O9	O	-4.381214	0.024019	-0.374384
O10	O	-4.858850	-0.427253	-0.381195
O11	O	-4.799303	-0.203920	-0.555807
O12	O	-4.440352	-0.197779	-0.200974
C13	C	-4.068063	-0.493855	-0.386994
C14	C	-4.177732	-0.672391	-0.386732
C15	C	-3.992624	-0.210928	-0.608196
C16	C	-4.054329	-0.209587	-0.748560
C17	C	-4.175923	-0.348760	-0.828900
C18	C	-4.239700	-0.347377	-0.973975
C19	C	-4.180155	0.077249	-0.380355
C20	C	-4.049726	0.255783	-0.380625
C21	C	-4.255592	-0.205675	-0.159150
C22	C	-4.173123	-0.207008	-0.018785
H23	H	-3.856198	-0.669112	-0.375535
H24	H	-3.997456	-0.089412	-0.787181
C25	C	-4.435653	-0.772684	-0.393302
C26	C	-4.443407	-0.847924	-0.284343
C27	C	-4.680958	-0.940339	-0.290356
H28	H	-4.501488	-0.703857	-0.397098
H29	H	-4.525697	-0.853189	-0.467495
H30	H	-4.353398	-0.767428	-0.210170
H31	H	-4.377621	-0.916777	-0.280526
H32	H	-4.771002	-1.020845	-0.364548
H33	H	-4.746773	-0.871501	-0.294154
H34	H	-4.686252	-0.991413	-0.216435
C35	C	-4.251469	-0.508840	-0.777167
C36	C	-4.173122	-0.478383	-0.643556
C37	C	-4.242648	-0.625812	-0.595859
H38	H	-4.420691	-0.574353	-0.810403
H39	H	-4.182508	-0.563986	-0.802193
H40	H	-4.242091	-0.423263	-0.618541
H41	H	-4.003907	-0.412895	-0.610286
H42	H	-4.173687	-0.680958	-0.620885
H43	H	-4.411870	-0.691314	-0.629104
H44	H	-4.189481	-0.605167	-0.505200
C45	C	-4.378983	-0.506396	-1.065864
C46	C	-4.600317	-0.603068	-1.051232
C47	C	-4.728681	-0.749580	-1.135850
H48	H	-4.403649	-0.484584	-1.151191
H49	H	-4.291259	-0.562036	-1.047843
H50	H	-4.688023	-0.547439	-1.069263
H51	H	-4.575723	-0.624924	-0.965924
H52	H	-4.640957	-0.805220	-1.117829
H53	H	-4.753329	-0.727752	-1.221171
H54	H	-4.878860	-0.815196	-1.125926
C55	C	-4.034607	-0.048185	-0.926725
C56	C	-4.171304	-0.047990	-0.856053
C57	C	-4.043794	0.098299	-0.771239
H58	H	-3.888848	-0.037360	-0.870248
H59	H	-4.001179	0.040099	-0.973619
H60	H	-4.204700	-0.136249	-0.809162
H61	H	-4.317058	-0.058788	-0.912495
H62	H	-4.010366	0.186583	-0.818133
H63	H	-3.898040	0.109110	-0.714771
H64	H	-4.136533	0.098456	-0.723286
