data_functionalizedCrystal
_audit_creation_method	'MofGen! by Chris Wilmer'
_symmetry_space_group_name_H-M	'P1'
_symmetry_Int_Tables_number	1
_symmetry_cell_setting	triclinic
loop_
_symmetry_equiv_pos_as_xyz
  x,y,z
_cell_length_a	16.992695
_cell_length_b	10.654554
_cell_length_c	16.053942
_cell_angle_alpha	87.408394
_cell_angle_beta	92.749749
_cell_angle_gamma	87.577484
loop_
_atom_site_label
_atom_site_type_symbol
_atom_site_fract_x
_atom_site_fract_y
_atom_site_fract_z
O1	O	0.113478	1.672407	0.069403
O2	O	0.123973	1.307836	0.069411
O3	O	0.004574	1.488660	0.069400
O4	O	0.232876	1.491582	0.069414
O5	O	-0.001974	1.498556	-0.069456
O6	O	0.117424	1.317732	-0.069446
O7	O	0.106929	1.682303	-0.069453
Zn8	Zn	0.111137	1.501588	-0.091496
Zn9	Zn	0.119765	1.488550	0.091453
O10	O	0.226328	1.501478	-0.069443
C11	C	0.119927	1.265919	-0.000017
C12	C	0.117620	1.126276	-0.000014
C13	C	0.185754	0.921656	-0.000018
C14	C	0.187923	1.052864	-0.000011
C15	C	0.045143	1.068473	-0.000015
C16	C	0.042975	0.937267	-0.000016
C17	C	0.256061	0.848251	-0.000023
C18	C	0.328538	0.906045	-0.000021
C19	C	0.330707	1.037253	-0.000014
C20	C	0.260399	1.110668	-0.000010
C21	C	-0.027933	1.489848	-0.000028
C22	C	-0.115038	1.478629	-0.000027
C23	C	-0.164689	1.586880	-0.000030
C24	C	-0.246533	1.576330	-0.000022
C25	C	-0.278724	1.457528	-0.000017
C26	C	-0.229067	1.349269	-0.000011
C27	C	-0.147224	1.359820	-0.000014
C28	C	-0.522560	1.413801	-0.000005
C29	C	-0.604408	1.403258	-0.000005
C30	C	-0.621869	1.630320	-0.000014
C31	C	-0.540024	1.640860	-0.000021
C32	C	-0.490374	1.532601	-0.000011
N33	N	-0.362382	1.446742	-0.000011
N34	N	-0.406718	1.543388	-0.000011
C35	C	0.258835	1.500290	-0.000013
C36	C	0.345941	1.511509	-0.000008
C37	C	0.110975	1.724219	-0.000024
C38	C	0.113283	1.863862	-0.000021
N39	N	0.105248	1.510496	-0.216354
C40	C	0.074863	1.556611	-0.739977
C41	C	0.078992	1.550351	-0.652572
C42	C	0.133903	1.467126	-0.608879
C43	C	0.184693	1.390164	-0.652597
C44	C	0.180567	1.396431	-0.740000
C45	C	0.151913	1.439801	-0.347476
C46	C	0.156033	1.433537	-0.260066
C47	C	0.050333	1.593727	-0.260047
C48	C	0.046209	1.599981	-0.347452
C49	C	0.097001	1.523024	-0.391162
N50	N	0.138123	1.460723	-0.519537
N51	N	0.092785	1.529434	-0.480503
N52	N	0.125648	1.479652	0.216312
H53	H	0.385779	0.846262	-0.000018
Br54	Br	0.263346	1.288737	0.000013
H55	H	0.008980	1.656383	-0.224450
Br56	Br	0.253121	0.670183	-0.000039
Br57	Br	-0.648097	1.242018	-0.000006
Br58	Br	-0.272753	1.188036	0.000010
H59	H	0.221922	1.333764	-0.775589
Br60	Br	0.429066	1.115686	0.000004
Br61	Br	-0.079839	1.212902	-0.000003
Br62	Br	-0.055380	0.858823	-0.000027
Br63	Br	-0.121010	1.748119	-0.000050
H64	H	-0.012097	1.128257	-0.000013
Br65	Br	-0.313914	1.723249	-0.000026
H66	H	-0.513820	1.737601	-0.000026
Br67	Br	-0.455187	1.266875	0.000014
Br68	Br	-0.689254	1.777235	-0.000028
Br69	Br	0.000332	1.669556	-0.799265
Br70	Br	0.010072	1.654801	-0.593246
Br71	Br	-0.028316	1.712925	-0.406750
H72	H	0.200750	1.365760	-0.224495
Br73	Br	0.220842	1.335360	-0.406792
Br74	Br	0.259222	1.277222	-0.593303
