data_functionalizedCrystal
_audit_creation_method	'MofGen! by Chris Wilmer'
_symmetry_space_group_name_H-M	'P1'
_symmetry_Int_Tables_number	1
_symmetry_cell_setting	triclinic
loop_
_symmetry_equiv_pos_as_xyz
  x,y,z
_cell_length_a	10.685901
_cell_length_b	10.686285
_cell_length_c	17.077396
_cell_angle_alpha	85.608118
_cell_angle_beta	94.362478
_cell_angle_gamma	81.630962
loop_
_atom_site_label
_atom_site_type_symbol
_atom_site_fract_x
_atom_site_fract_y
_atom_site_fract_z
Zn1	Zn	1.979321	-0.653888	-0.318046
Zn2	Zn	1.995513	-0.866148	-0.175903
Zn3	Zn	1.767072	-0.637681	-0.197718
Zn4	Zn	1.783353	-0.849829	-0.318052
O5	O	1.881315	-0.751887	-0.252430
O6	O	2.159086	-0.695657	-0.290059
O7	O	1.965173	-0.835888	-0.068950
O8	O	1.781637	-0.462215	-0.222807
O9	O	2.170982	-0.851604	-0.185627
O10	O	1.937576	-0.474122	-0.311211
O11	O	1.797338	-0.668035	-0.084977
O12	O	1.591614	-0.652211	-0.222812
O13	O	1.809386	-0.823790	-0.427898
O14	O	1.603576	-0.808075	-0.311221
O15	O	1.953363	-0.679833	-0.427894
O16	O	1.980960	-1.041599	-0.185633
O17	O	1.825087	-1.029609	-0.290068
C18	C	1.551541	-0.726614	-0.269385
C19	C	1.410465	-0.715833	-0.276655
C20	C	1.906582	-1.081661	-0.235499
C21	C	1.917507	-1.222748	-0.228277
C22	C	2.212376	-0.777259	-0.235409
C23	C	2.353455	-0.788071	-0.228156
C24	C	1.881384	-0.751799	-0.457175
C25	C	1.881414	-0.751762	-0.544425
C26	C	1.855984	-0.420827	-0.269442
C27	C	1.845189	-0.279750	-0.276691
C28	C	1.956385	-0.676797	-0.585415
C29	C	1.956397	-0.676756	-0.667396
C30	C	1.881444	-0.751687	-0.708387
C31	C	1.806464	-0.826655	-0.667392
C32	C	1.806446	-0.826688	-0.585412
C33	C	1.806509	-0.826582	-0.838263
C34	C	1.806529	-0.826551	-0.920248
C35	C	1.956461	-0.676650	-0.920248
C36	C	1.956443	-0.676683	-0.838268
C37	C	1.881464	-0.751653	-0.797278
C38	C	1.881311	-0.751888	-0.048482
C39	C	1.881500	-0.751586	0.038762
H40	H	1.351341	-0.645742	-0.323744
H41	H	1.745383	-0.887718	-0.552041
O42	O	1.761537	-1.209168	-0.332816
C43	C	1.827878	-1.137880	-0.383714
H44	H	1.930895	-1.185479	-0.381451
H45	H	1.781790	-1.132703	-0.446548
H46	H	1.824593	-1.037817	-0.364301
H47	H	1.412573	-0.858168	-0.181076
H48	H	1.987774	-1.281889	-0.181293
H49	H	2.017425	-0.615783	-0.552046
O50	O	2.029347	-0.603909	-0.707087
C51	C	2.095481	-0.537764	-0.653331
H52	H	2.103836	-0.590117	-0.591996
H53	H	2.194456	-0.531887	-0.672575
H54	H	2.041632	-0.437805	-0.651952
H55	H	2.017484	-0.615675	-0.804895
O56	O	2.029162	-0.603836	-0.960187
C57	C	2.013121	-0.619882	-1.041333
H58	H	1.918355	-0.653949	-1.055422
H59	H	2.014447	-0.525448	-1.076928
H60	H	2.093588	-0.693221	-1.057266
H61	H	1.745492	-0.887564	-0.953621
H62	H	1.745433	-0.887609	-0.804894
O63	O	1.733730	-0.899624	-0.707110
C64	C	1.771163	-1.028263	-0.679163
H65	H	1.820140	-1.034657	-0.616998
H66	H	1.683913	-1.078157	-0.678140
H67	H	1.839703	-1.075997	-0.719751
