data_functionalizedCrystal
_audit_creation_method	'MofGen! by Chris Wilmer'
_symmetry_space_group_name_H-M	'P1'
_symmetry_Int_Tables_number	1
_symmetry_cell_setting	triclinic
loop_
_symmetry_equiv_pos_as_xyz
  x,y,z
_cell_length_a	25.639243
_cell_length_b	29.839132
_cell_length_c	25.639234
_cell_angle_alpha	90.027958
_cell_angle_beta	89.976852
_cell_angle_gamma	89.952013
loop_
_atom_site_label
_atom_site_type_symbol
_atom_site_fract_x
_atom_site_fract_y
_atom_site_fract_z
Zn1	Zn	0.799238	0.178848	-0.295645
Zn2	Zn	1.132572	0.512181	0.037689
Zn3	Zn	1.465905	0.845515	0.371022
Zn4	Zn	0.799141	0.253971	-0.208204
Zn5	Zn	1.132474	0.587304	0.125129
Zn6	Zn	1.465807	0.920637	0.458462
Zn7	Zn	0.711804	0.178859	-0.208218
Zn8	Zn	1.045137	0.512192	0.125115
Zn9	Zn	1.378470	0.845526	0.458448
Zn10	Zn	0.711750	0.253955	-0.295604
Zn11	Zn	1.045083	0.587289	0.037730
Zn12	Zn	1.378416	0.920622	0.371063
O13	O	0.755483	0.216408	-0.251918
O14	O	1.088816	0.549742	0.081416
O15	O	1.422150	0.883075	0.414749
O16	O	0.872391	0.188815	-0.284057
O17	O	1.205724	0.522148	0.049277
O18	O	1.539057	0.855482	0.382610
O19	O	0.787537	0.244018	-0.135041
O20	O	1.120870	0.577351	0.198292
O21	O	1.454204	0.910685	0.531626
O22	O	0.723465	0.115990	-0.219838
O23	O	1.056799	0.449324	0.113495
O24	O	1.390132	0.782657	0.446828
O25	O	0.872319	0.244007	-0.219815
O26	O	1.205652	0.577341	0.113519
O27	O	1.538986	0.910674	0.446852
O28	O	0.787703	0.115982	-0.284070
O29	O	1.121037	0.449316	0.049263
O30	O	1.454370	0.782649	0.382596
O31	O	0.723371	0.188834	-0.135051
O32	O	1.056704	0.522167	0.198282
O33	O	1.390037	0.855500	0.531616
O34	O	0.638631	0.188819	-0.219799
O35	O	0.971965	0.522152	0.113535
O36	O	1.305298	0.855486	0.446868
O37	O	0.723373	0.243981	-0.368774
O38	O	1.056707	0.577315	-0.035441
O39	O	1.390040	0.910648	0.297892
O40	O	0.638592	0.243992	-0.284000
O41	O	0.971925	0.577325	0.049333
O42	O	1.305258	0.910658	0.382666
O43	O	0.787651	0.188800	-0.368804
O44	O	1.120984	0.522134	-0.035471
O45	O	1.454318	0.855467	0.297862
O46	O	0.787485	0.316836	-0.219775
O47	O	1.120818	0.650169	0.113558
O48	O	1.454151	0.983502	0.446892
O49	O	0.723279	0.316824	-0.283987
O50	O	1.056612	0.650158	0.049346
O51	O	1.389946	0.983491	0.382680
C52	C	0.619641	0.216405	-0.251897
C53	C	0.952974	0.549739	0.081436
C54	C	1.286307	0.883072	0.414770
C55	C	0.561526	0.216415	-0.251900
C56	C	0.894860	0.549748	0.081433
C57	C	1.228193	0.883081	0.414766
C58	C	0.201195	0.187715	-0.285424
C59	C	0.534528	0.521048	0.047909
C60	C	0.867862	0.854381	0.381242
C61	C	0.146591	0.187714	-0.285428
C62	C	0.479924	0.521048	0.047906
C63	C	0.813257	0.854381	0.381239
O64	O	0.118381	0.163304	-0.313905
O65	O	0.451714	0.496638	0.019429
O66	O	0.785048	0.829971	0.352762
N67	N	0.119244	0.216407	-0.251932
N68	N	0.452577	0.549740	0.081401
N69	N	0.785911	0.883074	0.414735
C70	C	0.146504	0.245098	-0.218427
C71	C	0.479838	0.578432	0.114906
C72	C	0.813171	0.911765	0.448239
O73	O	0.118230	0.269503	-0.189937
O74	O	0.451563	0.602837	0.143396
O75	O	0.784896	0.936170	0.476730
C76	C	0.201108	0.245096	-0.218422
C77	C	0.534441	0.578430	0.114911
C78	C	0.867774	0.911763	0.448245
C79	C	0.228452	0.216405	-0.251923
C80	C	0.561785	0.549738	0.081410
C81	C	0.895118	0.883072	0.414743
C82	C	0.228539	0.159026	-0.318923
C83	C	0.561872	0.492359	0.014411
C84	C	0.895206	0.825692	0.347744
C85	C	0.283140	0.159027	-0.318920
C86	C	0.616473	0.492360	0.014413
C87	C	0.949806	0.825693	0.347747
C88	C	0.310396	0.187717	-0.285419
C89	C	0.643730	0.521050	0.047914
C90	C	0.977063	0.854384	0.381248
C91	C	0.283052	0.216406	-0.251921
C92	C	0.616386	0.549739	0.081413
C93	C	0.949719	0.883073	0.414746
C94	C	0.228367	0.273785	-0.184915
C95	C	0.561700	0.607119	0.148418
C96	C	0.895034	0.940452	0.481752
C97	C	0.282974	0.273780	-0.184912
C98	C	0.616307	0.607114	0.148421
C99	C	0.949641	0.940447	0.481754
C100	C	0.310318	0.245089	-0.218414
C101	C	0.643651	0.578422	0.114920
C102	C	0.976985	0.911756	0.448253
C103	C	0.364909	0.245098	-0.218417
C104	C	0.698243	0.578431	0.114916
C105	C	1.031576	0.911764	0.448250
N106	N	0.392256	0.216405	-0.251912
N107	N	0.725589	0.549738	0.081421
N108	N	1.058923	0.883072	0.414754
C109	C	0.365000	0.187715	-0.285413
C110	C	0.698333	0.521048	0.047920
C111	C	1.031666	0.854381	0.381253
C112	C	0.031834	0.245100	-0.218441
C113	C	0.365167	0.578434	0.114892
C114	C	0.698500	0.911767	0.448226
C115	C	-0.022769	0.245105	-0.218449
C116	C	0.310565	0.578439	0.114885
C117	C	0.643898	0.911772	0.448218
C118	C	-0.022678	0.187720	-0.285448
C119	C	0.310655	0.521054	0.047885
C120	C	0.643988	0.854387	0.381219
C121	C	0.031925	0.187718	-0.285443
C122	C	0.365258	0.521052	0.047891
C123	C	0.698592	0.854385	0.381224
C124	C	0.059181	0.216408	-0.251936
C125	C	0.392514	0.549741	0.081397
C126	C	0.725847	0.883075	0.414730
C127	C	0.479665	0.187719	-0.285406
C128	C	0.812998	0.521053	0.047928
C129	C	1.146331	0.854386	0.381261
C130	C	0.534270	0.187724	-0.285401
C131	C	0.867603	0.521058	0.047932
C132	C	1.200937	0.854391	0.381265
C133	C	0.534175	0.245107	-0.218400
C134	C	0.867508	0.578441	0.114933
C135	C	1.200842	0.911774	0.448266
C136	C	0.479574	0.245104	-0.218406
C137	C	0.812908	0.578438	0.114927
C138	C	1.146241	0.911771	0.448261
C139	C	0.452321	0.216407	-0.251910
C140	C	0.785654	0.549740	0.081423
C141	C	1.118987	0.883073	0.414756
O142	O	0.393154	0.269494	-0.189953
O143	O	0.726487	0.602827	0.143381
O144	O	1.059820	0.936161	0.476714
O145	O	0.393281	0.163310	-0.313894
O146	O	0.726614	0.496643	0.019439
O147	O	1.059947	0.829976	0.352772
C148	C	0.755380	0.333131	-0.251887
C149	C	1.088713	0.666464	0.081447
C150	C	1.422046	0.999798	0.414780
C151	C	0.755383	0.383065	-0.251891
C152	C	1.088716	0.716399	0.081443
C153	C	1.422050	1.049732	0.414776
C154	C	0.788939	0.692702	-0.218510
C155	C	1.122272	1.026035	0.114823
C156	C	1.455605	1.359369	0.448157
C157	C	0.788989	0.880375	-0.218522
C158	C	1.122322	1.213708	0.114812
C159	C	1.455655	1.547042	0.448145
O160	O	0.817462	0.904634	-0.190131
O161	O	1.150796	1.237967	0.143202
O162	O	1.484129	1.571301	0.476536
N163	N	0.755538	0.903850	-0.251926
N164	N	1.088871	1.237184	0.081407
N165	N	1.422204	1.570517	0.414740
C166	C	0.722075	0.880405	-0.285332
C167	C	1.055408	1.213738	0.048001
C168	C	1.388741	1.547071	0.381334
O169	O	0.693628	0.904678	-0.313749
O170	O	1.026961	1.238011	0.019584
O171	O	1.360294	1.571345	0.352918
C172	C	0.722028	0.692732	-0.285323
C173	C	1.055361	1.026066	0.048011
C174	C	1.388694	1.359399	0.381344
C175	C	0.755477	0.669259	-0.251913
C176	C	1.088810	1.002593	0.081421
C177	C	1.422144	1.335926	0.414754
C178	C	0.822386	0.669229	-0.185103
C179	C	1.155719	1.002562	0.148231
C180	C	1.489052	1.335895	0.481564
C181	C	0.822371	0.622313	-0.185098
C182	C	1.155704	0.955647	0.148235
C183	C	1.489037	1.288980	0.481569
C184	C	0.788909	0.598871	-0.218501
C185	C	1.122242	0.932204	0.114833
C186	C	1.455576	1.265538	0.448166
C187	C	0.755462	0.622344	-0.251908
C188	C	1.088795	0.955677	0.081425
C189	C	1.422129	1.289011	0.414759
C190	C	0.688568	0.669288	-0.318731
C191	C	1.021901	1.002621	0.014602
C192	C	1.355234	1.335954	0.347935
C193	C	0.688560	0.622367	-0.318727
C194	C	1.021893	0.955700	0.014606
C195	C	1.355226	1.289033	0.347940
C196	C	0.722009	0.598894	-0.285317
C197	C	1.055342	0.932227	0.048017
C198	C	1.388676	1.265560	0.381350
C199	C	0.721986	0.551986	-0.285306
C200	C	1.055319	0.885319	0.048028
C201	C	1.388652	1.218653	0.381361
N202	N	0.755436	0.528511	-0.251901
N203	N	1.088770	0.861844	0.081432
N204	N	1.422103	1.195177	0.414765
C205	C	0.788898	0.551953	-0.218499
C206	C	1.122231	0.885286	0.114834
C207	C	1.455565	1.218620	0.448168
C208	C	0.722101	0.978935	-0.285334
C209	C	1.055434	1.312269	0.047999
C210	C	1.388768	1.645602	0.381332
C211	C	0.722112	1.025853	-0.285336
C212	C	1.055445	1.359186	0.047997
C213	C	1.388779	1.692520	0.381330
C214	C	0.789027	1.025820	-0.218526
C215	C	1.122360	1.359153	0.114807
C216	C	1.455693	1.692487	0.448141
C217	C	0.789013	0.978901	-0.218522
C218	C	1.122346	1.312235	0.114811
C219	C	1.455679	1.645568	0.448145
C220	C	0.755552	0.955460	-0.251930
C221	C	1.088885	1.288793	0.081403
C222	C	1.422218	1.622126	0.414737
C223	C	0.788864	0.453427	-0.218491
C224	C	1.122197	0.786761	0.114842
C225	C	1.455531	1.120094	0.448175
C226	C	0.788845	0.406508	-0.218488
C227	C	1.122178	0.739841	0.114845
C228	C	1.455511	1.073174	0.448179
C229	C	0.721932	0.406545	-0.285300
C230	C	1.055266	0.739878	0.048033
C231	C	1.388599	1.073211	0.381367
C232	C	0.721949	0.453460	-0.285301
C233	C	1.055283	0.786794	0.048032
C234	C	1.388616	1.120127	0.381365
C235	C	0.755420	0.476900	-0.251895
C236	C	1.088753	0.810234	0.081438
C237	C	1.422086	1.143567	0.414771
O238	O	0.693531	0.527698	-0.313686
O239	O	1.026864	0.861031	0.019648
O240	O	1.360197	1.194365	0.352981
O241	O	0.817349	0.527671	-0.190095
O242	O	1.150682	0.861005	0.143239
O243	O	1.484016	1.194338	0.476572
C244	C	0.788953	0.739617	-0.218515
C245	C	1.122287	1.072951	0.114819
C246	C	1.455620	1.406284	0.448152
C247	C	0.755507	0.763090	-0.251922
C248	C	1.088840	1.096424	0.081412
C249	C	1.422173	1.429757	0.414745
C250	C	0.722045	0.739648	-0.285324
C251	C	1.055378	1.072981	0.048009
C252	C	1.388712	1.406315	0.381342
C253	C	0.755518	0.810008	-0.251924
C254	C	1.088851	1.143341	0.081410
C255	C	1.422184	1.476675	0.414743
C256	C	0.788979	0.833451	-0.218521
C257	C	1.122313	1.166784	0.114812
C258	C	1.455646	1.500117	0.448146
C259	C	0.822430	0.809975	-0.185117
C260	C	1.155763	1.143308	0.148217
C261	C	1.489097	1.476642	0.481550
C262	C	0.822415	0.763060	-0.185112
C263	C	1.155749	1.096393	0.148221
C264	C	1.489082	1.429726	0.481555
C265	C	0.688594	0.763123	-0.318729
C266	C	1.021928	1.096457	0.014605
C267	C	1.355261	1.429790	0.347938
C268	C	0.688611	0.810039	-0.318730
C269	C	1.021945	1.143372	0.014603
C270	C	1.355278	1.476705	0.347936
C271	C	0.722073	0.833481	-0.285328
C272	C	1.055406	1.166815	0.048006
C273	C	1.388740	1.500148	0.381339
C274	C	0.891856	0.216412	-0.251939
C275	C	1.225189	0.549745	0.081395
C276	C	1.558523	0.883078	0.414728
C277	C	0.949970	0.216413	-0.251948
C278	C	1.283303	0.549746	0.081386
C279	C	1.616637	0.883080	0.414719
C280	C	0.755582	1.099230	-0.251949
C281	C	1.088915	1.432563	0.081384
C282	C	1.422248	1.765897	0.414718
C283	C	0.755574	1.049295	-0.251934
C284	C	1.088907	1.382629	0.081400
C285	C	1.422240	1.715962	0.414733
C286	C	0.755517	0.216388	-0.388291
C287	C	1.088850	0.549721	-0.054957
C288	C	1.422184	0.883054	0.278376
C289	C	0.755532	0.216379	-0.446405
C290	C	1.088865	0.549712	-0.113071
C291	C	1.422198	0.883046	0.220262
C292	C	0.722135	0.187591	-0.806779
C293	C	1.055468	0.520924	-0.473446
C294	C	1.388802	0.854258	-0.140112
C295	C	0.722138	0.187583	-0.861383
C296	C	1.055471	0.520916	-0.528050
C297	C	1.388804	0.854250	-0.194717
O298	O	0.693716	0.163156	-0.889629
O299	O	1.027050	0.496489	-0.556296
O300	O	1.360383	0.829823	-0.222962
N301	N	0.755549	0.216309	-0.888688
N302	N	1.088882	0.549642	-0.555354
N303	N	1.422216	0.882975	-0.222021
C304	C	0.788956	0.245047	-0.861385
C305	C	1.122289	0.578381	-0.528051
C306	C	1.455622	0.911714	-0.194718
O307	O	0.817375	0.269480	-0.889623
O308	O	1.150708	0.602814	-0.556290
O309	O	1.484041	0.936147	-0.222956
C310	C	0.788950	0.245057	-0.806781
C311	C	1.122283	0.578391	-0.473448
C312	C	1.455617	0.911724	-0.140115
C313	C	0.755540	0.216327	-0.779480
C314	C	1.088874	0.549660	-0.446146
C315	C	1.422207	0.882993	-0.112813
C316	C	0.688728	0.158863	-0.779477
C317	C	1.022061	0.492196	-0.446144
C318	C	1.355394	0.825530	-0.112811
C319	C	0.688726	0.158871	-0.724877
C320	C	1.022059	0.492204	-0.391543
C321	C	1.355392	0.825537	-0.058210
C322	C	0.722131	0.187606	-0.697578
C323	C	1.055464	0.520940	-0.364244
C324	C	1.388798	0.854273	-0.030911
C325	C	0.755538	0.216334	-0.724879
C326	C	1.088872	0.549668	-0.391546
C327	C	1.422205	0.883001	-0.058213
C328	C	0.822354	0.273798	-0.779479
C329	C	1.155687	0.607132	-0.446146
C330	C	1.489020	0.940465	-0.112813
C331	C	0.822345	0.273806	-0.724872
C332	C	1.155678	0.607139	-0.391539
C333	C	1.489011	0.940473	-0.058206
C334	C	0.788935	0.245075	-0.697571
C335	C	1.122268	0.578409	-0.364238
C336	C	1.455602	0.911742	-0.030904
C337	C	0.788942	0.245078	-0.642980
C338	C	1.122275	0.578411	-0.309646
C339	C	1.455608	0.911744	0.023687
N340	N	0.755530	0.216352	-0.615675
N341	N	1.088864	0.549685	-0.282342
N342	N	1.422197	0.883019	0.050991
C343	C	0.722125	0.187616	-0.642974
C344	C	1.055458	0.520950	-0.309641
C345	C	1.388792	0.854283	0.023692
C346	C	0.788965	0.245025	-0.976055
C347	C	1.122298	0.578358	-0.642722
C348	C	1.455632	0.911691	-0.309389
C349	C	0.788974	0.245013	-1.030658
C350	C	1.122307	0.578346	-0.697324
C351	C	1.455640	0.911679	-0.363991
C352	C	0.722155	0.187549	-1.030652
C353	C	1.055488	0.520882	-0.697319
C354	C	1.388822	0.854215	-0.363986
C355	C	0.722149	0.187559	-0.976049
C356	C	1.055482	0.520892	-0.642716
C357	C	1.388816	0.854225	-0.309382
C358	C	0.755554	0.216299	-0.948751
C359	C	1.088887	0.549632	-0.615418
C360	C	1.422220	0.882966	-0.282084
C361	C	0.722124	0.187634	-0.528309
C362	C	1.055457	0.520968	-0.194976
C363	C	1.388790	0.854301	0.138357
C364	C	0.722126	0.187643	-0.473704
C365	C	1.055460	0.520977	-0.140371
C366	C	1.388793	0.854310	0.192963
C367	C	0.788943	0.245109	-0.473714
C368	C	1.122276	0.578442	-0.140381
C369	C	1.455610	0.911775	0.192953
C370	C	0.788943	0.245098	-0.528314
C371	C	1.122276	0.578432	-0.194981
C372	C	1.455609	0.911765	0.138352
C373	C	0.755529	0.216360	-0.555611
C374	C	1.088862	0.549693	-0.222277
C375	C	1.422195	0.883026	0.111056
O376	O	0.817347	0.269494	-0.614699
O377	O	1.150680	0.602827	-0.281366
O378	O	1.484014	0.936160	0.051968
O379	O	0.693706	0.163192	-0.614729
O380	O	1.027040	0.496525	-0.281396
O381	O	1.360373	0.829859	0.051937
C382	C	0.755479	0.216396	-0.116075
C383	C	1.088813	0.549730	0.217258
C384	C	1.422146	0.883063	0.550591
C385	C	0.755566	0.216278	-0.057961
C386	C	1.088900	0.549612	0.275372
C387	C	1.422233	0.882945	0.608705
H388	H	-0.045028	0.268474	-0.191174
H389	H	0.288306	0.601807	0.142159
H390	H	0.621639	0.935140	0.475492
H391	H	-0.044881	0.164358	-0.312725
H392	H	0.288453	0.497691	0.020608
H393	H	0.621786	0.831025	0.353942
H394	H	0.849609	0.603204	-0.157894
H395	H	1.182943	0.936538	0.175439
H396	H	1.516276	1.269871	0.508772
H397	H	0.661312	0.603283	-0.345933
H398	H	0.994646	0.936616	-0.012600
H399	H	1.327979	1.269949	0.320733
Br400	Br	0.834295	0.284081	-0.565368
Br401	Br	1.167628	0.617414	-0.232035
Br402	Br	1.500962	0.950748	0.101299
Br403	Br	0.834280	0.284102	-0.436655
Br404	Br	1.167614	0.617435	-0.103321
Br405	Br	1.500947	0.950769	0.230012
H406	H	0.457310	0.268472	-0.191133
H407	H	0.790643	0.601805	0.142201
H408	H	1.123976	0.935139	0.475534
Br409	Br	0.676806	0.148566	-0.939003
Br410	Br	1.010139	0.481899	-0.605669
Br411	Br	1.343472	0.815233	-0.272336
Br412	Br	0.867814	0.731211	-0.139768
Br413	Br	1.201148	1.064544	0.193565
Br414	Br	1.534481	1.397877	0.526898
Br415	Br	0.834308	0.284030	-0.939013
Br416	Br	1.167641	0.617363	-0.605680
Br417	Br	1.500975	0.950697	-0.272347
H418	H	0.694869	1.044961	-0.312537
H419	H	1.028203	1.378294	0.020796
H420	H	1.361536	1.711627	0.354129
H421	H	0.054022	0.268467	-0.191157
H422	H	0.387355	0.601800	0.142176
H423	H	0.720688	0.935134	0.475509
H424	H	0.694954	0.164151	-1.052889
H425	H	1.028287	0.497484	-0.719556
H426	H	1.361621	0.830817	-0.386223
Br427	Br	0.643379	0.119879	-0.687833
Br428	Br	0.976712	0.453212	-0.354500
Br429	Br	1.310045	0.786546	-0.021166
Br430	Br	0.442686	0.148772	-0.330876
Br431	Br	0.776019	0.482105	0.002458
Br432	Br	1.109352	0.815439	0.335791
H433	H	0.849637	0.688311	-0.157902
H434	H	1.182970	1.021644	0.175431
H435	H	1.516304	1.354977	0.508764
H436	H	0.694915	0.164232	-0.550527
H437	H	1.028249	0.497566	-0.217194
H438	H	1.361582	0.830899	0.116139
Br439	Br	0.676541	0.485318	-0.330631
Br440	Br	1.009875	0.818651	0.002702
Br441	Br	1.343208	1.151984	0.336035
Br442	Br	0.643210	0.841889	-0.364076
Br443	Br	0.976543	1.175222	-0.030742
Br444	Br	1.309877	1.508556	0.302591
H445	H	0.556531	0.164360	-0.312684
H446	H	0.889864	0.497693	0.020649
H447	H	1.223198	0.831027	0.353983
H448	H	0.206113	0.297148	-0.157634
H449	H	0.539446	0.630482	0.175699
H450	H	0.872779	0.963815	0.509033
H451	H	0.694686	0.387451	-0.312494
H452	H	1.028020	0.720784	0.020839
H453	H	1.361353	1.054117	0.354172
Br454	Br	0.571176	0.284043	-0.172938
Br455	Br	0.904510	0.617377	0.160395
Br456	Br	1.237843	0.950710	0.493729
H457	H	0.661346	0.744040	-0.345930
H458	H	0.994680	1.077373	-0.012596
H459	H	1.328013	1.410707	0.320737
H460	H	0.305398	0.135663	-0.346199
H461	H	0.638732	0.468996	-0.012866
H462	H	0.972065	0.802329	0.320467
Br463	Br	0.319961	0.312719	-0.139437
Br464	Br	0.653294	0.646052	0.193897
Br465	Br	0.986627	0.979385	0.527230
H466	H	0.816083	0.387397	-0.191280
H467	H	1.149416	0.720731	0.142054
H468	H	1.482750	1.054064	0.475387
Br469	Br	0.867840	0.841799	-0.139783
Br470	Br	1.201173	1.175133	0.193550
Br471	Br	1.534506	1.508466	0.526884
Br472	Br	0.834325	0.283999	-1.067703
Br473	Br	1.167659	0.617332	-0.734370
Br474	Br	1.500992	0.950665	-0.401036
H475	H	0.816120	0.472507	-0.191290
H476	H	1.149453	0.805840	0.142043
H477	H	1.482787	1.139173	0.475377
Br478	Br	0.676784	0.148647	-0.436655
Br479	Br	1.010117	0.481981	-0.103322
Br480	Br	1.343450	0.815314	0.230012
H481	H	0.849559	0.297194	-0.801699
H482	H	1.182892	0.630528	-0.468366
H483	H	1.516226	0.963861	-0.135032
H484	H	0.206353	0.135660	-0.346203
H485	H	0.539686	0.468993	-0.012870
H486	H	0.873019	0.802327	0.320463
Br487	Br	0.069029	0.148779	-0.330910
Br488	Br	0.402362	0.482112	0.002423
Br489	Br	0.735696	0.815445	0.335757
Br490	Br	0.834409	0.947050	-0.173178
Br491	Br	1.167742	1.280383	0.160156
Br492	Br	1.501076	1.613717	0.493489
H493	H	0.661522	0.135463	-0.801698
H494	H	0.994856	0.468796	-0.468365
H495	H	1.328189	0.802129	-0.135032
H496	H	0.816273	1.044915	-0.191329
H497	H	1.149606	1.378248	0.142005
H498	H	1.482939	1.711582	0.475338
Br499	Br	0.867680	0.312815	-0.687828
Br500	Br	1.201013	0.646149	-0.354495
Br501	Br	1.534346	0.979482	-0.021162
H502	H	0.661327	0.688391	-0.345935
H503	H	0.994661	1.021725	-0.012602
H504	H	1.327994	1.355058	0.320732
Br505	Br	0.676685	0.947128	-0.330678
Br506	Br	1.010018	1.280462	0.002655
Br507	Br	1.343351	1.613795	0.335989
