data_functionalizedCrystal
_audit_creation_method	'MofGen! by Chris Wilmer'
_symmetry_space_group_name_H-M	'P1'
_symmetry_Int_Tables_number	1
_symmetry_cell_setting	triclinic
loop_
_symmetry_equiv_pos_as_xyz
  x,y,z
_cell_length_a	9.065218
_cell_length_b	16.176319
_cell_length_c	9.065218
_cell_angle_alpha	89.995224
_cell_angle_beta	85.015885
_cell_angle_gamma	89.992110
loop_
_atom_site_label
_atom_site_type_symbol
_atom_site_fract_x
_atom_site_fract_y
_atom_site_fract_z
O1	O	1.960408	-0.068745	0.216360
O2	O	1.531124	-0.068746	0.234107
O3	O	1.754639	-0.068744	0.010591
O4	O	1.736893	-0.068747	0.439876
O5	O	1.754606	0.068749	0.010577
O6	O	1.531090	0.068747	0.234093
O7	O	1.960375	0.068748	0.216346
Cu8	Cu	1.745730	0.081302	0.225218
Cu9	Cu	1.745769	-0.081300	0.225235
O10	O	1.736859	0.068746	0.439862
C11	C	1.476120	0.000001	0.232394
C12	C	1.312277	0.000000	0.227294
N13	N	1.745713	0.195667	0.225206
C14	C	1.844716	0.238932	0.126275
C15	C	1.844722	0.325479	0.126274
C16	C	1.745731	0.368760	0.225212
C17	C	1.646718	0.325489	0.324148
C18	C	1.646705	0.238943	0.324140
C19	C	1.646764	0.674517	0.324178
C20	C	1.646787	0.761068	0.324181
C21	C	1.844780	0.761053	0.126311
C22	C	1.844768	0.674508	0.126304
C23	C	1.745750	0.631244	0.225234
C24	C	1.745742	0.537400	0.225232
C25	C	1.745745	0.462602	0.225222
C26	C	2.015378	-0.000000	0.218059
C27	C	2.179221	-0.000005	0.223158
C28	C	1.752917	0.000002	-0.044403
C29	C	1.747817	-0.000002	-0.208245
N30	N	1.745784	0.804335	0.225241
C31	C	1.738582	-0.000001	0.494855
C32	C	1.743681	-0.000002	0.658698
H33	H	1.925331	0.203699	0.045714
H34	H	1.566110	0.360732	0.404700
C35	C	1.953629	0.373075	0.017456
C36	C	2.062562	0.325476	-0.091338
C37	C	2.171472	0.373074	-0.200160
C38	C	2.171450	0.468271	-0.200188
C39	C	2.062513	0.515875	-0.091389
C40	C	1.953603	0.468277	0.017433
H41	H	2.062583	0.255001	-0.091322
H42	H	2.252115	0.337833	-0.280700
H43	H	2.252072	0.503505	-0.280744
H44	H	2.062493	0.586350	-0.091406
H45	H	1.872961	0.503518	0.097972
H46	H	1.925380	0.639271	0.045744
H47	H	1.925402	0.796288	0.045752
H48	H	1.566171	0.796306	0.404751
C49	C	1.537803	0.191349	0.432970
C50	C	1.428966	0.238953	0.541853
C51	C	1.320054	0.191360	0.650681
C52	C	1.319979	0.096163	0.650625
C53	C	1.428819	0.048554	0.541737
C54	C	1.537731	0.096147	0.432910
H55	H	1.429018	0.309428	0.541898
H56	H	1.239483	0.226604	0.731286
H57	H	1.239356	0.060932	0.731185
H58	H	1.428767	-0.021921	0.541692
H59	H	1.618302	0.060903	0.352304
H60	H	1.566142	0.639298	0.404733
