data_functionalizedCrystal
_audit_creation_method	'MofGen! by Chris Wilmer'
_symmetry_space_group_name_H-M	'P1'
_symmetry_Int_Tables_number	1
_symmetry_cell_setting	triclinic
loop_
_symmetry_equiv_pos_as_xyz
  x,y,z
_cell_length_a	15.995350
_cell_length_b	19.288865
_cell_length_c	17.766277
_cell_angle_alpha	90.011603
_cell_angle_beta	89.997008
_cell_angle_gamma	96.685688
loop_
_atom_site_label
_atom_site_type_symbol
_atom_site_fract_x
_atom_site_fract_y
_atom_site_fract_z
O1	O	1.110654	-0.089532	-0.062492
O2	O	1.610654	0.410468	0.437508
O3	O	0.866837	-0.100588	-0.062519
O4	O	1.366837	0.399412	0.437481
O5	O	0.995790	0.006052	-0.062490
O6	O	1.495790	0.506052	0.437510
O7	O	0.981700	-0.196172	-0.062521
O8	O	1.481700	0.303828	0.437479
O9	O	0.995768	0.006058	0.062699
O10	O	1.495768	0.506058	0.562699
O11	O	0.866814	-0.100582	0.062670
O12	O	1.366814	0.399418	0.562670
O13	O	1.110631	-0.089526	0.062697
O14	O	1.610631	0.410474	0.562697
Cu15	Cu	0.988720	-0.095054	0.074114
Cu16	Cu	1.488720	0.404946	0.574114
Cu17	Cu	0.988747	-0.095060	-0.073936
Cu18	Cu	1.488747	0.404940	0.426064
O19	O	0.981677	-0.196166	0.062667
O20	O	1.481677	0.303834	0.562667
C21	C	0.835632	-0.100128	0.000072
C22	C	1.335632	0.399872	0.500072
C23	C	0.742687	-0.098757	0.000063
C24	C	1.242687	0.401243	0.500063
C25	C	1.141835	-0.089986	0.000104
C26	C	1.641835	0.410014	0.500104
C27	C	1.234781	-0.091356	0.000109
C28	C	1.734781	0.408644	0.500109
C29	C	0.995326	0.031933	0.000107
C30	C	1.495326	0.531933	0.500107
C31	C	0.993965	0.109040	0.000113
C32	C	1.493965	0.609040	0.500113
C33	C	1.572509	-0.096277	0.000078
C34	C	2.072509	0.403723	0.500078
C35	C	1.524789	-0.172224	0.000349
C36	C	2.024789	0.327776	0.500349
C37	C	1.428104	-0.170854	0.000075
C38	C	1.928104	0.329146	0.500075
C39	C	1.404958	-0.093836	0.000094
C40	C	1.904958	0.406164	0.500094
C41	C	1.446173	-0.056380	-0.071391
C42	C	1.946173	0.443620	0.428609
C43	C	1.542802	-0.058287	-0.071459
C44	C	2.042802	0.441713	0.428541
C45	C	1.543173	-0.056713	0.070904
C46	C	2.043173	0.443287	0.570904
C47	C	1.446228	-0.056731	0.071857
C48	C	1.946228	0.443269	0.571857
C49	C	1.310266	-0.092453	0.000100
C50	C	1.810266	0.407547	0.500100
C51	C	1.667202	-0.097659	0.000066
C52	C	2.167202	0.402341	0.500066
C53	C	0.982142	-0.222047	0.000069
C54	C	1.482142	0.277953	0.500069
C55	C	0.983503	-0.299154	0.000058
C56	C	1.483503	0.200846	0.500058
N57	N	0.988708	-0.095049	0.178244
N58	N	1.488708	0.404951	0.678244
C59	C	1.069629	0.153540	0.000125
C60	C	1.569629	0.653540	0.500125
C61	C	1.068350	0.225990	0.000113
C62	C	1.568350	0.725990	0.500113
C63	C	0.991403	0.253937	0.000104
C64	C	1.491403	0.753937	0.500104
C65	C	0.915729	0.209428	0.000088
C66	C	1.415729	0.709428	0.500088
C67	C	0.917010	0.136979	0.000092
C68	C	1.417010	0.636979	0.500092
C69	C	0.930906	0.362384	0.043948
C70	C	1.430906	0.862384	0.543948
C71	C	0.929628	0.434832	0.043949
C72	C	1.429628	0.934832	0.543949
C73	C	0.987450	0.477393	0.000087
C74	C	1.487450	0.977393	0.500087
C75	C	1.046563	0.447500	-0.043765
C76	C	1.546563	0.947500	0.456235
C77	C	1.047844	0.375051	-0.043760
C78	C	1.547844	0.875051	0.456240
C79	C	0.990006	0.332495	0.000099
C80	C	1.490006	0.832495	0.500099
C81	C	1.061733	0.600453	0.000085
C82	C	1.561733	1.100453	0.500085
C83	C	1.060451	0.672904	0.000068
C84	C	1.560451	1.172904	0.500068
C85	C	0.907827	0.656340	0.000050
C86	C	1.407827	1.156340	0.500050
C87	C	0.909111	0.583890	0.000060
C88	C	1.409111	1.083890	0.500060
C89	C	0.986066	0.555951	0.000080
C90	C	1.486066	1.055951	0.500080
N91	N	0.988766	-0.095060	-0.178066
N92	N	1.488766	0.404940	0.321934
C93	C	1.045827	-0.047852	0.217644
C94	C	1.545827	0.452148	0.717644
C95	C	1.045832	-0.047848	0.296446
C96	C	1.545832	0.452152	0.796446
C97	C	0.988725	-0.095054	0.335845
C98	C	1.488725	0.404946	0.835845
C99	C	0.931596	-0.142255	0.296435
C100	C	1.431596	0.357745	0.796435
C101	C	0.931587	-0.142252	0.217635
C102	C	1.431587	0.357748	0.717635
C103	C	0.977516	-0.158313	0.460672
C104	C	1.477516	0.341687	0.960672
C105	C	0.977531	-0.158317	0.539471
C106	C	1.477531	0.341683	1.039471
C107	C	0.988748	-0.095063	0.578891
C108	C	1.488748	0.404937	1.078891
C109	C	0.999968	-0.031802	0.539503
C110	C	1.499968	0.468198	1.039503
C111	C	0.999959	-0.031800	0.460702
C112	C	1.499959	0.468200	0.960702
C113	C	0.988728	-0.095062	0.421290
C114	C	1.488728	0.404938	0.921290
C115	C	1.045875	-0.047858	0.703737
C116	C	1.545875	0.452142	1.203737
C117	C	1.045874	-0.047854	0.782540
C118	C	1.545874	0.452146	1.282540
C119	C	0.931642	-0.142267	0.782528
C120	C	1.431642	0.357733	1.282528
C121	C	0.931639	-0.142265	0.703726
C122	C	1.431639	0.357735	1.203726
C123	C	0.988760	-0.095061	0.664336
C124	C	1.488760	0.404939	1.164336
H125	H	1.399573	-0.200301	0.051315
H126	H	1.899573	0.299699	0.551315
H127	H	1.563624	-0.081540	0.125081
H128	H	2.063624	0.418460	0.625081
H129	H	1.092336	-0.009414	0.185574
H130	H	1.592336	0.490586	0.685574
H131	H	0.883818	0.327735	0.079670
H132	H	1.383818	0.827735	0.579670
H133	H	1.431080	-0.000566	0.076186
H134	H	1.931080	0.499434	0.576186
H135	H	1.124394	0.577704	0.000098
H136	H	1.624394	1.077704	0.500098
N137	N	1.411862	-0.091052	0.138194
N138	N	1.911862	0.408948	0.638194
N139	N	1.357175	-0.142649	0.132699
N140	N	1.857175	0.357351	0.632699
H141	H	1.332901	-0.166893	0.179548
H142	H	1.832901	0.333107	0.679548
N143	N	0.837137	0.237983	0.000072
N144	N	1.337137	0.737983	0.500072
N145	N	0.836003	0.302670	0.000069
N146	N	1.336003	0.802670	0.500069
H147	H	0.780494	0.322838	0.000054
H148	H	1.280494	0.822838	0.500054
H149	H	1.560997	-0.085608	-0.124904
H150	H	2.060997	0.414392	0.375096
H151	H	0.968367	-0.209825	0.428583
H152	H	1.468367	0.290175	0.928583
N153	N	1.583540	0.011653	-0.075541
N154	N	2.083540	0.511653	0.424459
N155	N	1.662104	0.022704	-0.076324
N156	N	2.162104	0.522704	0.423676
H157	H	1.690874	0.072098	-0.079214
H158	H	2.190874	0.572098	0.420786
N159	N	0.831821	0.538431	0.000042
N160	N	1.331821	1.038431	0.500042
N161	N	0.780594	0.540965	-0.052736
N162	N	1.280594	1.040965	0.447264
H163	H	0.726004	0.508859	-0.052752
H164	H	1.226004	1.008859	0.447248
H165	H	0.885098	-0.180689	0.328518
H166	H	1.385098	0.319311	0.828518
N167	N	1.583283	0.013532	0.071511
N168	N	2.083283	0.513532	0.571511
N169	N	1.633268	0.034446	0.020063
N170	N	2.133268	0.534446	0.520063
H171	H	1.661600	0.084054	0.020485
H172	H	2.161600	0.584054	0.520485
N173	N	1.148241	0.125013	0.000144
N174	N	1.648241	0.625013	0.500144
N175	N	1.215794	0.164760	0.000153
N176	N	1.715794	0.664760	0.500153
H177	H	1.271315	0.144612	0.000165
H178	H	1.771315	0.644612	0.500165
N179	N	0.873287	-0.190481	0.663488
N180	N	1.373287	0.309519	1.163488
N181	N	0.822300	-0.232624	0.698671
N182	N	1.322300	0.267376	1.198671
H183	H	0.781083	-0.266678	0.670253
H184	H	1.281083	0.233322	1.170253
H185	H	1.400125	-0.200498	-0.051262
H186	H	1.900125	0.299502	0.448738
H187	H	1.009102	0.019705	0.571597
H188	H	1.509102	0.519705	1.071597
H189	H	1.432261	0.000203	-0.074036
H190	H	1.932261	0.500203	0.425964
N191	N	1.145650	0.271447	0.000125
N192	N	1.645650	0.771447	0.500125
N193	N	1.214351	0.246492	0.000141
N194	N	1.714351	0.746492	0.500141
H195	H	1.268946	0.278593	0.000151
H196	H	1.768946	0.778593	0.500151
N197	N	0.873242	-0.190478	0.177398
N198	N	1.373242	0.309522	0.677398
N199	N	0.874144	-0.254681	0.186187
N200	N	1.374144	0.245319	0.686187
H201	H	0.832938	-0.288743	0.157769
H202	H	1.332938	0.211257	0.657769
N203	N	1.549212	-0.210153	-0.063606
N204	N	2.049212	0.289847	0.436394
N205	N	1.582833	-0.264900	-0.054571
N206	N	2.082833	0.235100	0.445429
H207	H	1.600083	-0.291686	-0.099740
H208	H	2.100083	0.208314	0.400260
H209	H	0.845176	0.679094	0.000039
H210	H	1.345176	1.179094	0.500039
H211	H	1.417667	-0.082382	-0.124593
H212	H	1.917667	0.417618	0.375407
N213	N	1.104120	0.000448	0.663506
N214	N	1.604120	0.500448	1.163506
N215	N	1.155043	0.042648	0.698699
N216	N	1.655043	0.542648	1.198699
H217	H	1.196140	0.076798	0.670288
H218	H	1.696140	0.576798	1.170288
N219	N	1.137752	0.718353	0.000070
N220	N	1.637752	1.218353	0.500070
N221	N	1.206451	0.693394	0.000086
N222	N	1.706451	1.193394	0.500086
H223	H	1.261047	0.725492	0.000086
H224	H	1.761047	1.225492	0.500086
N225	N	1.104211	0.000379	0.822778
N226	N	1.604211	0.500379	1.322778
N227	N	1.103302	0.064579	0.813976
N228	N	1.603302	0.564579	1.313976
H229	H	1.144503	0.098649	0.842391
H230	H	1.644503	0.598649	1.342391
N231	N	1.108227	0.344526	-0.088554
N232	N	1.608227	0.844526	0.411446
N233	N	1.159853	0.382528	-0.127713
N234	N	1.659853	0.882528	0.372287
H235	H	1.202499	0.360971	-0.159351
H236	H	1.702499	0.860971	0.340649
H237	H	0.885142	-0.180700	0.814606
H238	H	1.385142	0.319300	1.314606
N239	N	0.839725	0.091509	0.000077
N240	N	1.339725	0.591509	0.500077
N241	N	0.823428	0.049219	-0.052690
N242	N	1.323428	0.549219	0.447310
H243	H	0.768846	0.017103	-0.052700
H244	H	1.268846	0.517103	0.447300
H245	H	1.543210	-0.202578	0.051606
H246	H	2.043210	0.297422	0.551606
H247	H	0.968400	-0.209827	0.571535
H248	H	1.468400	0.290173	1.071535
H249	H	1.093646	0.482153	-0.079482
H250	H	1.593646	0.982153	0.420518
N251	N	0.869271	0.465355	0.088774
N252	N	1.369271	0.965355	0.588774
N253	N	0.817658	0.427350	0.127941
N254	N	1.317658	0.927350	0.627941
H255	H	0.775037	0.448906	0.159610
H256	H	1.275037	0.948906	0.659610
H257	H	1.092346	-0.009414	0.328531
H258	H	1.592346	0.490586	0.828531
H259	H	1.009093	0.019709	0.428636
H260	H	1.509093	0.519709	0.928636
