data_functionalizedCrystal
_audit_creation_method	'MofGen! by Chris Wilmer'
_symmetry_space_group_name_H-M	'P1'
_symmetry_Int_Tables_number	1
_symmetry_cell_setting	triclinic
loop_
_symmetry_equiv_pos_as_xyz
  x,y,z
_cell_length_a	19.805407
_cell_length_b	18.050589
_cell_length_c	18.050583
_cell_angle_alpha	90.028091
_cell_angle_beta	90.019169
_cell_angle_gamma	90.028221
loop_
_atom_site_label
_atom_site_type_symbol
_atom_site_fract_x
_atom_site_fract_y
_atom_site_fract_z
Zn1	Zn	1.034724	-0.295634	0.419954
Zn2	Zn	1.534724	0.204366	0.919954
Zn3	Zn	1.034637	-0.419839	0.295773
Zn4	Zn	1.534637	0.080161	0.795773
Zn5	Zn	0.921540	-0.295667	0.295776
Zn6	Zn	1.421540	0.204333	0.795776
Zn7	Zn	0.921499	-0.419787	0.419920
Zn8	Zn	1.421499	0.080213	0.919920
O9	O	0.978100	-0.357732	0.357855
O10	O	1.478100	0.142268	0.857855
O11	O	1.129429	-0.312118	0.403494
O12	O	1.629429	0.187882	0.903494
O13	O	1.019614	-0.403403	0.191849
O14	O	1.519614	0.096597	0.691849
O15	O	0.936608	-0.191738	0.312264
O16	O	1.436608	0.308262	0.812264
O17	O	1.129365	-0.403371	0.312259
O18	O	1.629365	0.096629	0.812259
O19	O	1.019764	-0.191714	0.403497
O20	O	1.519764	0.308286	0.903497
O21	O	0.936523	-0.312174	0.191851
O22	O	1.436523	0.187826	0.691851
O23	O	0.826818	-0.312124	0.312230
O24	O	1.326818	0.187876	0.812230
O25	O	0.936538	-0.403282	0.523849
O26	O	1.436538	0.096718	1.023849
O27	O	0.826788	-0.403314	0.403438
O28	O	1.326788	0.096686	0.903438
O29	O	1.019725	-0.312068	0.523874
O30	O	1.519725	0.187932	1.023874
O31	O	1.019575	-0.523757	0.312226
O32	O	1.519575	-0.023757	0.812226
O33	O	0.936453	-0.523718	0.403436
O34	O	1.436453	-0.023718	0.903436
C35	C	0.802244	-0.357718	0.357831
C36	C	1.302244	0.142282	0.857831
C37	C	0.727012	-0.357729	0.357839
C38	C	1.227012	0.142271	0.857839
C39	C	0.691670	-0.405284	0.405254
C40	C	1.191670	0.094716	0.905254
C41	C	0.620981	-0.405285	0.405264
C42	C	1.120981	0.094715	0.905264
C43	C	0.585636	-0.357735	0.357855
C44	C	1.085636	0.142265	0.857855
C45	C	0.620983	-0.310176	0.310438
C46	C	1.120983	0.189824	0.810438
C47	C	0.691671	-0.310171	0.310432
C48	C	1.191671	0.189829	0.810432
C49	C	0.335910	-0.310192	0.310463
C50	C	0.835910	0.189808	0.810463
C51	C	0.265218	-0.310202	0.310471
C52	C	0.765218	0.189798	0.810471
C53	C	0.265221	-0.405306	0.405295
C54	C	0.765221	0.094694	0.905295
C55	C	0.335908	-0.405301	0.405289
C56	C	0.835908	0.094699	0.905289
C57	C	0.371249	-0.357739	0.357875
C58	C	0.871249	0.142261	0.857875
C59	C	0.447897	-0.357738	0.357865
C60	C	0.947897	0.142262	0.857865
C61	C	0.508989	-0.357740	0.357861
C62	C	1.008989	0.142260	0.857861
C63	C	0.978018	-0.550684	0.357843
C64	C	1.478018	-0.050684	0.857843
C65	C	0.978045	-0.633230	0.357863
C66	C	1.478045	-0.133230	0.857863
C67	C	0.932888	-0.832687	0.407445
C68	C	1.432888	-0.332687	0.907445
C69	C	0.916390	-0.882132	0.339678
C70	C	1.416390	-0.382132	0.839678
C71	C	0.978112	-0.784360	0.357872
C72	C	1.478112	-0.284360	0.857872
C73	C	0.994643	-0.881996	0.425648
C74	C	1.494643	-0.381996	0.925648
C75	C	0.978175	-0.930345	0.357888
C76	C	1.478175	-0.430345	0.857888
C77	C	0.961581	-0.832718	0.290069
C78	C	1.461581	-0.332718	0.790069
C79	C	1.039863	-0.832578	0.376085
C80	C	1.539863	-0.332578	0.876085
C81	C	1.023388	-0.882001	0.308270
C82	C	1.523388	-0.382001	0.808270
C83	C	0.978074	-0.700262	0.357865
C84	C	1.478074	-0.200262	0.857865
C85	C	0.978213	-1.014442	0.357888
C86	C	1.478213	-0.514442	0.857888
C87	C	1.154643	-0.357747	0.357880
C88	C	1.654643	0.142253	0.857880
C89	C	1.229875	-0.357753	0.357890
C90	C	1.729875	0.142247	0.857890
C91	C	0.978137	-0.357665	0.551561
C92	C	1.478137	0.142335	1.051561
C93	C	0.978152	-0.357637	0.634107
C94	C	1.478152	0.142363	1.134107
C95	C	0.978200	-0.164026	0.357884
C96	C	1.478200	0.335974	0.857884
C97	C	0.978243	-0.081480	0.357896
C98	C	1.478243	0.418520	0.857896
C99	C	0.978102	-0.357744	0.164903
C100	C	1.478102	0.142256	0.664903
C101	C	0.978218	-0.357563	0.082358
C102	C	1.478218	0.142437	0.582358
C103	C	1.023431	-0.307985	0.882946
C104	C	1.523431	0.192015	1.382946
C105	C	1.039947	-0.375748	0.833538
C106	C	1.539947	0.124252	1.333538
C107	C	0.978196	-0.357590	0.931228
C108	C	1.478196	0.142410	1.431228
C109	C	0.961690	-0.289854	0.833554
C110	C	1.461690	0.210146	1.333554
C111	C	0.978176	-0.357610	0.785242
C112	C	1.478176	0.142390	1.285242
C113	C	0.994744	-0.425389	0.882906
C114	C	1.494744	0.074611	1.382906
C115	C	0.916458	-0.339449	0.882927
C116	C	1.416458	0.160551	1.382927
C117	C	0.932951	-0.407259	0.833541
C118	C	1.432951	0.092741	1.333541
C119	C	0.978209	-0.357578	1.015326
C120	C	1.478209	0.142422	1.515326
C121	C	0.978163	-0.357629	0.701146
C122	C	1.478163	0.142371	1.201146
H123	H	0.364676	-0.271470	0.271850
H124	H	0.864676	0.228530	0.771850
H125	H	1.061659	-0.903518	0.266306
H126	H	1.561659	-0.403518	0.766306
H127	H	0.894689	-0.449266	0.811985
H128	H	1.394689	0.050734	1.311985
H129	H	0.894588	-0.811032	0.449308
H130	H	1.394588	-0.311032	0.949308
F131	F	1.012885	-0.910292	0.500556
F132	F	1.512885	-0.410292	1.000556
H133	H	0.720443	-0.444007	0.443857
H134	H	1.220443	0.055993	0.943857
H135	H	0.236442	-0.271477	0.271865
H136	H	0.736442	0.228523	0.771865
F137	F	0.583371	-0.455898	0.455730
F138	F	1.083371	0.044102	0.955730
F139	F	0.373521	-0.455913	0.455745
F140	F	0.873521	0.044087	0.955745
H141	H	0.720445	-0.271444	0.271826
H142	H	1.220445	0.228556	0.771826
H143	H	0.864199	-0.903915	0.324288
H144	H	1.364199	-0.403915	0.824288
F145	F	0.943261	-0.804546	0.215138
F146	F	1.443261	-0.304546	0.715138
F147	F	0.943453	-0.214971	0.805216
F148	F	1.443453	0.285029	1.305216
F149	F	0.583365	-0.259565	0.259987
F150	F	1.083365	0.240435	0.759987
F151	F	1.108066	-0.804107	0.396243
F152	F	1.608066	-0.304107	0.896243
H153	H	0.864272	-0.324072	0.904639
H154	H	1.364272	0.175928	1.404639
H155	H	1.061723	-0.266079	0.904638
H156	H	1.561723	0.233921	1.404638
F157	F	1.013062	-0.500295	0.911120
F158	F	1.513062	-0.000295	1.411120
F159	F	0.227603	-0.455925	0.455759
F160	F	0.727603	0.044075	0.955759
F161	F	1.108178	-0.395822	0.805181
F162	F	1.608178	0.104178	1.305181
