data_functionalizedCrystal
_audit_creation_method	'MofGen! by Chris Wilmer'
_symmetry_space_group_name_H-M	'P1'
_symmetry_Int_Tables_number	1
_symmetry_cell_setting	triclinic
loop_
_symmetry_equiv_pos_as_xyz
  x,y,z
_cell_length_a	12.759401
_cell_length_b	16.625546
_cell_length_c	16.625539
_cell_angle_alpha	90.028532
_cell_angle_beta	90.013955
_cell_angle_gamma	90.021512
loop_
_atom_site_label
_atom_site_type_symbol
_atom_site_fract_x
_atom_site_fract_y
_atom_site_fract_z
Zn1	Zn	1.606151	-0.321036	0.455831
Zn2	Zn	1.606035	-0.455874	0.320993
Zn3	Zn	1.430467	-0.321057	0.321019
Zn4	Zn	1.430418	-0.455828	0.455790
O5	O	1.518268	-0.388449	0.388408
O6	O	1.753157	-0.338933	0.437951
O7	O	1.582718	-0.438019	0.208164
O8	O	1.453841	-0.208222	0.338929
O9	O	1.753072	-0.437998	0.338886
O10	O	1.582915	-0.208206	0.437975
O11	O	1.453729	-0.338970	0.208183
O12	O	1.283439	-0.338924	0.338890
O13	O	1.453757	-0.437919	0.568628
O14	O	1.283403	-0.437940	0.437906
O15	O	1.582867	-0.338888	0.568658
O16	O	1.582670	-0.568701	0.338847
O17	O	1.453645	-0.568666	0.437882
C18	C	1.245300	-0.388430	0.388397
C19	C	1.128524	-0.388441	0.388411
C20	C	1.073699	-0.336955	0.440074
C21	C	0.963975	-0.336971	0.440079
C22	C	0.963910	-0.439965	0.336756
C23	C	1.073632	-0.439945	0.336748
C24	C	1.073735	-0.277494	0.499730
C25	C	0.964011	-0.277510	0.499735
C26	C	1.518168	-0.597940	0.388375
C27	C	1.518222	-0.687561	0.388387
C28	C	1.518405	-1.015736	0.388471
C29	C	1.518351	-0.924428	0.388450
C30	C	1.518313	-0.851651	0.388429
C31	C	1.518260	-0.760337	0.388408
C32	C	1.792301	-0.388468	0.388420
C33	C	1.909078	-0.388477	0.388425
C34	C	1.518319	-0.388395	0.598717
C35	C	1.518341	-0.388373	0.688338
C36	C	1.518396	-0.178140	0.388460
C37	C	1.518451	-0.088519	0.388482
C38	C	1.518277	-0.388444	0.178917
C39	C	1.518458	-0.388239	0.089297
C40	C	1.518358	-0.388355	0.761121
C41	C	1.518383	-0.388325	0.852429
C42	C	1.518408	-0.388297	0.925206
C43	C	1.518434	-0.388267	1.016520
H44	H	0.919204	-0.481898	0.294694
H45	H	0.929982	-0.218161	0.477484
H46	H	0.934257	-0.294322	0.562155
H47	H	1.103515	-0.215019	0.483116
H48	H	1.107790	-0.299937	0.559005
H49	H	1.118267	-0.481862	0.294671
