data_functionalizedCrystal
_audit_creation_method	'MofGen! by Chris Wilmer'
_symmetry_space_group_name_H-M	'P1'
_symmetry_Int_Tables_number	1
_symmetry_cell_setting	triclinic
loop_
_symmetry_equiv_pos_as_xyz
  x,y,z
_cell_length_a	11.792241
_cell_length_b	16.109298
_cell_length_c	14.586319
_cell_angle_alpha	90.001604
_cell_angle_beta	90.000696
_cell_angle_gamma	83.826802
loop_
_atom_site_label
_atom_site_type_symbol
_atom_site_fract_x
_atom_site_fract_y
_atom_site_fract_z
O1	O	1.505906	0.113953	-0.076140
O2	O	2.005906	0.613953	0.423860
O3	O	1.175462	0.125698	-0.076160
O4	O	1.675462	0.625698	0.423840
O5	O	1.349763	-0.001163	-0.076156
O6	O	1.849763	0.498837	0.423844
O7	O	1.331604	0.240814	-0.076144
O8	O	1.831604	0.740814	0.423856
O9	O	1.349751	-0.001165	0.076325
O10	O	1.849751	0.498835	0.576325
O11	O	1.175450	0.125696	0.076321
O12	O	1.675450	0.625696	0.576321
O13	O	1.505894	0.113951	0.076341
O14	O	2.005894	0.613951	0.576341
Cu15	Cu	1.340671	0.119823	0.090254
Cu16	Cu	1.840671	0.619823	0.590254
Cu17	Cu	1.340685	0.119826	-0.090072
Cu18	Cu	1.840685	0.619826	0.409928
O19	O	1.331592	0.240812	0.076337
O20	O	1.831592	0.740812	0.576337
C21	C	1.133171	0.124959	0.000078
C22	C	1.633171	0.624959	0.500078
C23	C	1.007177	0.122751	0.000070
C24	C	1.507177	0.622751	0.500070
C25	C	1.349022	-0.032142	0.000081
C26	C	1.849022	0.467858	0.500081
C27	C	1.346819	-0.124448	0.000070
C28	C	1.846819	0.375552	0.500070
C29	C	1.339635	-0.423550	-0.083028
C30	C	1.839635	0.076450	0.416972
C31	C	1.341721	-0.336820	-0.083035
C32	C	1.841721	0.163180	0.416965
C33	C	1.341724	-0.336808	0.083208
C34	C	1.841724	0.163192	0.583208
C35	C	1.339646	-0.423537	0.083214
C36	C	1.839646	0.076463	0.583214
C37	C	1.338596	-0.466905	0.000093
C38	C	1.838596	0.033095	0.500093
C39	C	1.342760	-0.293446	0.000081
C40	C	1.842760	0.206554	0.500081
C41	C	1.345021	-0.199410	0.000075
C42	C	1.845021	0.300590	0.500075
C43	C	1.336337	-0.560947	0.000099
C44	C	1.836337	-0.060947	0.500099
C45	C	0.776500	0.118691	0.000096
C46	C	1.276500	0.618691	0.500096
C47	C	0.904866	0.120947	0.000081
C48	C	1.404866	0.620947	0.500081
C49	C	1.548184	0.114690	0.000102
C50	C	2.048184	0.614690	0.500102
C51	C	1.674179	0.116898	0.000104
C52	C	2.174179	0.616898	0.500104
C53	C	1.332333	0.271791	0.000098
C54	C	1.832333	0.771791	0.500098
C55	C	1.334537	0.364097	0.000103
C56	C	1.834537	0.864097	0.500103
N57	N	1.340669	0.119821	0.217086
N58	N	1.840669	0.619821	0.717086
N59	N	1.340696	0.119821	-0.216904
N60	N	1.840696	0.619821	0.283096
C61	C	1.417875	0.063666	0.452094
C62	C	1.917875	0.563666	0.952094
C63	C	1.417878	0.063664	0.548075
C64	C	1.917878	0.563664	1.048075
C65	C	1.263481	0.175979	0.548081
C66	C	1.763481	0.675979	1.048081
C67	C	1.263474	0.175976	0.452101
C68	C	1.763474	0.675976	0.952101
C69	C	1.340677	0.119821	0.404110
C70	C	1.840677	0.619821	0.904110
C71	C	1.340688	0.119822	0.596071
C72	C	1.840688	0.619822	1.096071
C73	C	1.340691	0.119820	0.700138
C74	C	1.840691	0.619820	1.200138
C75	C	1.340673	0.119821	0.300037
C76	C	1.840673	0.619821	0.800037
H77	H	1.342568	-0.301524	-0.150720
H78	H	1.842568	0.198476	0.349280
H79	H	1.338779	-0.458857	-0.150711
H80	H	1.838779	0.041143	0.349289
H81	H	1.342577	-0.301486	0.150882
H82	H	1.842577	0.198514	0.650882
C83	C	1.336434	-0.556480	0.157036
C84	C	1.836434	-0.056480	0.657036
C85	C	1.338481	-0.471198	0.174587
C86	C	1.838481	0.028802	0.674587
H87	H	1.335718	-0.585903	0.213444
H88	H	1.835718	-0.085903	0.713444
H89	H	1.269958	-0.564641	0.122878
H90	H	1.769958	-0.064641	0.622878
H91	H	1.402251	-0.576736	0.122894
H92	H	1.902251	-0.076736	0.622894
H93	H	1.272660	-0.450941	0.208723
H94	H	1.772660	0.049059	0.708723
H95	H	1.404964	-0.463033	0.208759
H96	H	1.904964	0.036967	0.708759
H97	H	1.480737	0.017940	0.413022
H98	H	1.980737	0.517940	0.913022
H99	H	1.200604	0.221704	0.413031
H100	H	1.700604	0.721704	0.913031
C101	C	1.570501	-0.047344	0.538422
C102	C	2.070501	0.452656	1.038422
C103	C	1.502742	0.001941	0.600819
C104	C	2.002742	0.501941	1.100819
H105	H	1.622897	-0.085447	0.570986
H106	H	2.122897	0.414553	1.070986
H107	H	1.523271	-0.077483	0.500990
H108	H	2.023271	0.422517	1.000990
H109	H	1.611301	-0.012523	0.500985
H110	H	2.111301	0.487477	1.000985
H111	H	1.461935	-0.032879	0.638252
H112	H	1.961935	0.467121	1.138252
H113	H	1.549978	0.032082	0.638267
H114	H	2.049978	0.532082	1.138267
H115	H	1.200626	0.221700	0.587165
H116	H	1.700626	0.721700	1.087165
