data_functionalizedCrystal
_audit_creation_method	'MofGen! by Chris Wilmer'
_symmetry_space_group_name_H-M	'P1'
_symmetry_Int_Tables_number	1
_symmetry_cell_setting	triclinic
loop_
_symmetry_equiv_pos_as_xyz
  x,y,z
_cell_length_a	15.538191
_cell_length_b	16.776229
_cell_length_c	17.699083
_cell_angle_alpha	90.007545
_cell_angle_beta	114.722446
_cell_angle_gamma	89.990959
loop_
_atom_site_label
_atom_site_type_symbol
_atom_site_fract_x
_atom_site_fract_y
_atom_site_fract_z
O1	O	1.250478	-0.066293	0.245973
O2	O	0.976019	-0.066294	0.158526
O3	O	1.121003	-0.066286	0.314557
O4	O	1.105495	-0.066300	0.089941
O5	O	1.120984	0.066290	0.314559
O6	O	0.976000	0.066283	0.158528
O7	O	1.250459	0.066284	0.245975
Zn8	Zn	1.113227	0.087333	0.202252
Zn9	Zn	1.113252	-0.087343	0.202249
O10	O	1.105475	0.066276	0.089943
C11	C	0.940893	-0.000006	0.149378
C12	C	0.836257	-0.000006	0.122125
N13	N	1.113216	0.206544	0.202256
N14	N	1.113270	-0.206554	0.202253
C15	C	0.549086	-0.000001	0.392872
C16	C	0.450762	-0.000004	0.367245
C17	C	0.427989	-0.000012	0.223099
C18	C	0.526313	-0.000006	0.248714
C19	C	0.586855	-0.000002	0.333602
C20	C	0.564082	-0.000007	0.189444
C21	C	0.662398	-0.000005	0.215057
C22	C	0.722945	-0.000003	0.299940
C23	C	0.685171	0.000000	0.359215
C24	C	0.503539	-0.000017	0.104556
C25	C	0.541308	-0.000017	0.045286
C26	C	0.639625	-0.000010	0.070899
C27	C	0.700173	-0.000007	0.155782
C28	C	0.677400	-0.000012	0.011624
C29	C	0.775716	-0.000011	0.037238
C30	C	0.798489	-0.000006	0.181396
C31	C	1.285585	-0.000006	0.255123
C32	C	1.390221	-0.000011	0.282375
C33	C	1.120438	0.000002	0.342603
C34	C	1.118771	0.000002	0.426166
C35	C	1.177434	0.248264	0.271331
C36	C	1.177440	0.331716	0.271333
C37	C	1.113230	0.373447	0.202257
C38	C	1.049005	0.331720	0.133177
C39	C	1.048996	0.248270	0.133178
C40	C	1.049039	0.668268	0.133172
C41	C	1.049055	0.751724	0.133175
C42	C	1.177483	0.751714	0.271326
C43	C	1.177474	0.668264	0.271327
C44	C	1.113246	0.626545	0.202250
C45	C	1.113240	0.536056	0.202249
C46	C	1.113240	0.463934	0.202254
C47	C	1.106041	-0.000014	0.061897
C48	C	1.107708	-0.000020	-0.021665
C49	C	1.203873	0.000004	0.498041
C50	C	1.202301	-0.000003	0.576554
C51	C	1.115626	-0.000006	0.583192
C52	C	1.030517	-0.000010	0.511309
C53	C	1.032090	-0.000008	0.432797
C54	C	1.024171	-0.000016	0.827938
C55	C	1.022605	-0.000015	0.906458
C56	C	1.194382	-0.000011	0.971696
C57	C	1.195955	-0.000010	0.893184
C58	C	1.110847	-0.000018	0.821308
C59	C	1.112552	-0.000012	0.736175
C60	C	1.113919	-0.000006	0.668323
H61	H	0.803000	-0.000012	0.320793
O62	O	0.937031	-0.000015	0.518468
H63	H	0.878118	-0.000023	0.455297
H64	H	0.996765	0.785699	0.076923
O65	O	1.246758	0.796716	0.345832
H66	H	1.291413	0.753677	0.393858
O67	O	0.979777	0.623274	0.058667
H68	H	0.935141	0.666314	0.010632
O69	O	1.289443	-0.000018	0.886029
H70	H	1.330331	0.054011	0.916752
H71	H	0.954870	-0.000023	0.769424
O72	O	0.979755	0.376724	0.058667
H73	H	0.934027	0.414768	0.077979
O74	O	0.410023	0.000008	0.431177
H75	H	0.434366	-0.054022	0.470660
H76	H	0.996702	0.214302	0.076931
O77	O	0.940302	-0.000002	0.355269
H78	H	0.879766	0.000006	0.373073
O79	O	1.246683	0.203268	0.345848
H80	H	1.207075	0.165267	0.371767
O81	O	0.863803	0.000008	0.272953
H82	H	0.850415	-0.054028	0.302605
H83	H	1.263682	-0.000008	1.030228
H84	H	1.274454	0.000011	0.492646
H85	H	0.423484	-0.000021	0.083705
H86	H	1.229762	0.634289	0.327573
H87	H	1.229730	0.365685	0.327579
H88	H	0.734468	0.000009	0.428339
O89	O	0.614401	0.000012	0.484429
H90	H	0.601013	-0.054024	0.514081
O91	O	0.476002	-0.000022	-0.046267
H92	H	0.518786	-0.000026	-0.083178
H93	H	0.806467	-0.000004	-0.011026
H94	H	0.952019	-0.000016	0.911855
O95	O	0.362691	-0.000006	0.131544
H96	H	0.287979	0.000001	0.123689
O97	O	0.612094	-0.000013	-0.079928
H98	H	0.566762	-0.054048	-0.095046
H99	H	1.271600	-0.000000	0.635075
