data_functionalizedCrystal
_audit_creation_method	'MofGen! by Chris Wilmer'
_symmetry_space_group_name_H-M	'P1'
_symmetry_Int_Tables_number	1
_symmetry_cell_setting	triclinic
loop_
_symmetry_equiv_pos_as_xyz
  x,y,z
_cell_length_a	14.044220
_cell_length_b	27.732048
_cell_length_c	13.101039
_cell_angle_alpha	93.329410
_cell_angle_beta	86.340132
_cell_angle_gamma	87.915767
loop_
_atom_site_label
_atom_site_type_symbol
_atom_site_fract_x
_atom_site_fract_y
_atom_site_fract_z
O1	O	1.261246	0.114020	-0.085126
O2	O	0.985339	0.109817	-0.085151
O3	O	1.131860	0.041925	-0.085119
O4	O	1.114725	0.181913	-0.085159
O5	O	1.121348	0.046805	0.085309
O6	O	0.974827	0.114697	0.085276
O7	O	1.250733	0.118900	0.085301
Zn8	Zn	1.111111	0.117574	0.112348
Zn9	Zn	1.124962	0.111144	-0.112198
O10	O	1.104212	0.186793	0.085268
C11	C	0.944796	0.110418	0.000059
C12	C	0.839651	0.104930	0.000051
C13	C	0.647135	0.094899	0.000074
C14	C	0.588932	0.133816	0.000067
C15	C	0.481810	0.128235	0.000080
C16	C	0.754268	0.100480	0.000061
C17	C	1.126244	0.026341	0.000098
C18	C	1.125160	-0.027364	0.000106
C19	C	1.204929	-0.362438	0.000061
C20	C	1.200910	-0.564286	0.000046
O21	O	1.273853	-0.592120	0.000008
N22	N	1.114029	-0.587487	0.000039
C23	C	1.028146	-0.560223	0.000029
O24	O	0.954156	-0.584589	0.000012
C25	C	1.032166	-0.358376	0.000037
C26	C	1.119052	-0.335177	0.000054
C27	C	1.291808	-0.339239	0.000077
C28	C	1.292812	-0.288779	0.000086
C29	C	1.206935	-0.261519	0.000079
C30	C	1.120056	-0.284718	0.000063
C31	C	0.946285	-0.331113	0.000019
C32	C	0.947297	-0.280648	0.000018
C33	C	1.034184	-0.257449	0.000036
C34	C	1.035183	-0.206998	0.000066
N35	N	1.122064	-0.183797	0.000072
C36	C	1.207941	-0.211057	0.000079
C37	C	1.026042	-0.666196	0.000027
C38	C	1.025036	-0.716658	0.000027
C39	C	1.197801	-0.720717	0.000043
C40	C	1.198805	-0.670255	0.000050
C41	C	1.112923	-0.642995	0.000034
C42	C	1.210041	-0.105089	0.000100
C43	C	1.211037	-0.054625	0.000113
C44	C	1.038273	-0.050570	0.000093
C45	C	1.037276	-0.101030	0.000085
C46	C	1.123168	-0.128288	0.000085
O47	O	0.962280	-0.179134	0.000092
O48	O	1.281921	-0.186683	0.000073
C49	C	1.203925	-0.412897	0.000052
C50	C	1.117046	-0.436096	0.000035
C51	C	1.031169	-0.408835	0.000029
C52	C	1.116040	-0.486557	0.000035
C53	C	1.201917	-0.513818	0.000042
C54	C	1.288798	-0.490617	0.000049
C55	C	1.289802	-0.440157	0.000059
C56	C	0.944288	-0.432037	0.000022
C57	C	0.943292	-0.482496	0.000013
C58	C	1.029168	-0.509756	0.000020
C59	C	1.291277	0.118300	0.000088
C60	C	1.396422	0.123787	0.000090
C61	C	1.109828	0.202376	0.000050
C62	C	1.110913	0.256082	0.000034
N63	N	1.101664	0.121962	0.265594
N64	N	1.134415	0.106752	-0.265444
C65	C	1.088813	0.127936	0.474634
C66	C	1.147264	0.100779	0.525523
C67	C	1.140113	0.104104	0.641839
C68	C	1.095962	0.124612	0.358306
H69	H	0.616514	0.057393	0.000090
H70	H	1.281793	-0.035739	0.000130
O71	O	0.858869	-0.505011	-0.000184
C72	C	0.812012	-0.493947	-0.088445
H73	H	0.866646	-0.483025	-0.150122
H74	H	0.757509	-0.462817	-0.068492
C75	C	0.693549	-0.552081	-0.052742
C76	C	0.760652	-0.538670	-0.128498
H77	H	0.661864	-0.579667	-0.077447
H78	H	0.725115	-0.559533	0.006724
H79	H	0.648139	-0.526135	-0.036121
H80	H	0.806067	-0.564613	-0.145108
H81	H	0.729093	-0.531223	-0.187967
H82	H	1.202677	0.075033	0.481733
O83	O	1.293559	-0.131489	0.000149
C84	C	1.370448	-0.100184	0.000140
H85	H	1.343835	-0.062699	0.032406
H86	H	1.402161	-0.097774	-0.081617
C87	C	1.480233	-0.165922	0.027358
C88	C	1.447549	-0.119883	0.066995
H89	H	1.527795	-0.178073	0.068593
H90	H	1.428433	-0.187013	0.027360
H91	H	1.506654	-0.163907	-0.040773
H92	H	1.421118	-0.121899	0.135120
H93	H	1.499347	-0.098792	0.067006
O94	O	1.377301	-0.266326	0.000049
C95	C	1.452870	-0.301215	0.000078
H96	H	1.428806	-0.337510	-0.032190
H97	H	1.474281	-0.304873	0.081842
C98	C	1.568555	-0.240779	-0.027121
C99	C	1.539002	-0.285356	-0.066761
H100	H	1.621688	-0.230996	-0.068346
H101	H	1.517644	-0.217273	-0.027136
H102	H	1.586391	-0.243834	0.041015
H103	H	1.521156	-0.282300	-0.134891
H104	H	1.589913	-0.308861	-0.066759
O105	O	1.022796	0.158643	0.527023
C106	C	1.030260	0.155162	0.633178
H107	H	1.104909	0.140716	0.647698
H108	H	0.975063	0.129514	0.663639
C109	C	0.920452	0.223265	0.670537
C110	C	1.012139	0.205526	0.688372
H111	H	0.909270	0.254331	0.704586
H112	H	0.915420	0.225609	0.599019
H113	H	0.874465	0.201887	0.695922
H114	H	1.058125	0.226900	0.662976
H115	H	1.017178	0.203186	0.759888
H116	H	0.619555	0.171325	0.000051
H117	H	1.361743	-0.361429	0.000079
H118	H	1.267725	-0.742921	0.000049
O119	O	1.283293	-0.647800	0.000011
C120	C	1.358865	-0.682686	0.000046
H121	H	1.334805	-0.718983	-0.032216
H122	H	1.380276	-0.686341	0.081811
C123	C	1.474544	-0.622249	-0.027162
C124	C	1.444996	-0.666828	-0.066795
H125	H	1.527676	-0.612466	-0.068389
H126	H	1.423630	-0.598744	-0.027182
H127	H	1.492380	-0.625300	0.040975
H128	H	1.427150	-0.663775	-0.134926
H129	H	1.495909	-0.690331	-0.066788
H130	H	0.954283	-0.735541	0.000031
H131	H	0.875533	-0.349993	-0.000001
O132	O	0.942520	-0.639791	0.000067
C133	C	0.865633	-0.671097	0.000039
H134	H	0.888265	-0.706740	0.032302
H135	H	0.844004	-0.678176	-0.081724
C136	C	0.752491	-0.603805	0.027249
C137	C	0.780286	-0.647581	0.066883
H138	H	0.699843	-0.589299	0.068477
H139	H	0.804291	-0.582713	0.027264
H140	H	0.734474	-0.609710	-0.040887
H141	H	0.798314	-0.641674	0.135012
H142	H	0.728488	-0.668671	0.066881
O143	O	0.952796	-0.123492	0.000026
C144	C	0.877214	-0.088607	0.000052
H145	H	0.905248	-0.054150	-0.032192
H146	H	0.845710	-0.080287	0.081812
C147	C	0.764907	-0.150605	-0.027206
C148	C	0.799338	-0.108286	-0.066817
H149	H	0.716867	-0.162743	-0.068450
H150	H	0.815827	-0.174108	-0.027220
H151	H	0.738661	-0.143666	0.040926
H152	H	0.825593	-0.115226	-0.134943
H153	H	0.748420	-0.084784	-0.066816
O154	O	0.954946	-0.024013	0.000039
C155	C	0.974473	0.025500	0.000071
H156	H	1.050842	0.029720	-0.032178
H157	H	0.965616	0.042252	0.081834
C158	C	0.810808	0.046072	-0.027170
C159	C	0.904603	0.051255	-0.066787
H160	H	0.767707	0.061961	-0.068407
H161	H	0.797651	0.012715	-0.027188
H162	H	0.803440	0.060032	0.040965
H163	H	0.911972	0.037291	-0.134915
H164	H	0.917760	0.084611	-0.066782
O165	O	1.374291	-0.417704	0.000023
C166	C	1.449860	-0.452593	0.000052
H167	H	1.425797	-0.488887	-0.032217
H168	H	1.471270	-0.456251	0.081817
C169	C	1.565545	-0.392157	-0.027143
C170	C	1.535993	-0.436734	-0.066785
H171	H	1.618679	-0.382374	-0.068367
H172	H	1.514634	-0.368651	-0.027159
H173	H	1.583380	-0.395212	0.040993
H174	H	1.518148	-0.433677	-0.134914
H175	H	1.586904	-0.460239	-0.066782
H176	H	0.877360	-0.258456	0.000004
H177	H	1.358722	-0.512821	0.000060
O178	O	0.860917	-0.405503	0.000155
C179	C	0.850869	-0.373684	0.088440
H180	H	0.924202	-0.367043	0.117872
H181	H	0.804050	-0.390369	0.150241
C182	C	0.714006	-0.333513	0.025487
C183	C	0.804077	-0.325353	0.061631
H184	H	0.685139	-0.303701	0.008953
H185	H	0.720773	-0.354951	-0.033990
H186	H	0.675002	-0.347419	0.076994
H187	H	0.843083	-0.311453	0.010120
H188	H	0.797316	-0.303911	0.121100
