data_functionalizedCrystal
_audit_creation_method	'MofGen! by Chris Wilmer'
_symmetry_space_group_name_H-M	'P1'
_symmetry_Int_Tables_number	1
_symmetry_cell_setting	triclinic
loop_
_symmetry_equiv_pos_as_xyz
  x,y,z
_cell_length_a	13.339070
_cell_length_b	14.044220
_cell_length_c	11.804365
_cell_angle_alpha	102.927057
_cell_angle_beta	74.875130
_cell_angle_gamma	104.409086
loop_
_atom_site_label
_atom_site_type_symbol
_atom_site_fract_x
_atom_site_fract_y
_atom_site_fract_z
O1	O	1.405383	0.472644	-0.099085
O2	O	1.105089	0.408756	-0.099076
O3	O	1.250726	0.301532	-0.099069
O4	O	1.259745	0.579868	-0.099093
O5	O	1.212382	0.329720	0.098985
O6	O	1.066744	0.436945	0.098978
O7	O	1.367038	0.500832	0.098969
Cu8	Cu	1.213390	0.471462	0.117057
Cu9	Cu	1.258737	0.438126	-0.117165
O10	O	1.221401	0.608057	0.098961
C11	C	1.047253	0.412058	-0.000048
C12	C	0.932048	0.379890	-0.000044
C13	C	0.589834	0.630011	-0.000084
C14	C	0.698075	0.660237	-0.000092
C15	C	0.756574	0.590153	-0.000079
C16	C	0.706820	0.489838	-0.000060
C17	C	0.598569	0.459607	-0.000062
C18	C	0.765309	0.419749	-0.000057
C19	C	0.715555	0.319434	-0.000038
C20	C	0.607315	0.289209	-0.000040
C21	C	0.548817	0.359293	-0.000052
C22	C	0.873560	0.449980	-0.000055
C23	C	0.882295	0.279576	-0.000034
C24	C	0.774054	0.249350	-0.000026
C25	C	1.227608	0.279274	-0.000041
C26	C	1.215837	0.170953	-0.000039
C27	C	1.194321	-0.027371	-0.000056
C28	C	1.277803	-0.063049	-0.000062
C29	C	1.265832	-0.173403	-0.000071
C30	C	1.206291	0.082993	-0.000047
C31	C	1.424874	0.497530	-0.000062
C32	C	1.540081	0.529697	-0.000074
C33	C	1.244520	0.630314	-0.000069
C34	C	1.256292	0.738634	-0.000078
N35	N	1.181503	0.494911	0.281796
N36	N	1.290631	0.414672	-0.281904
C37	C	1.367201	0.358346	0.655754
C38	C	1.391322	0.340602	0.531094
C39	C	1.338869	0.379178	0.468763
C40	C	1.262292	0.435500	0.531106
C41	C	1.238175	0.453251	0.655778
C42	C	1.209842	0.474083	0.468787
C43	C	1.133265	0.530405	0.531129
C44	C	1.109151	0.548153	0.655790
C45	C	1.161604	0.509578	0.718120
C46	C	1.233960	0.456332	0.344115
C47	C	1.104933	0.551237	0.344138
C48	C	1.080812	0.568980	0.468799
H49	H	0.460677	0.334688	-0.000045
H50	H	1.358282	-0.010728	-0.000144
H51	H	0.914058	0.531657	-0.000066
H52	H	1.113865	-0.079700	-0.000056
H53	H	1.296309	0.410475	0.293367
H54	H	1.358512	0.364729	0.367259
C55	C	1.474448	0.279387	0.463627
C56	C	1.515201	0.249379	0.544891
C57	C	1.591771	0.192970	0.482783
H58	H	1.530231	0.318668	0.414976
H59	H	1.442950	0.222180	0.415034
H60	H	1.546700	0.306576	0.593463
H61	H	1.459444	0.210084	0.593544
H62	H	1.560274	0.135763	0.434190
H63	H	1.647548	0.232257	0.434134
H64	H	1.619425	0.172595	0.537911
H65	H	1.409908	0.326949	0.706512
C66	C	1.025950	0.609294	0.723263
C67	C	0.985155	0.639258	0.642000
C68	C	0.908499	0.695572	0.704110
H69	H	1.057353	0.666518	0.771883
H70	H	0.970205	0.569932	0.771886
H71	H	1.040889	0.678619	0.593397
H72	H	0.953732	0.582054	0.593377
H73	H	0.852755	0.656210	0.752733
H74	H	0.939911	0.752791	0.752728
H75	H	0.880804	0.715902	0.648983
H76	H	1.141963	0.524020	0.819629
H77	H	0.844709	0.614769	-0.000088
C78	C	1.048096	0.593321	0.276544
C79	C	1.067664	0.697476	0.306828
C80	C	1.015343	0.736278	0.244565
H81	H	0.974009	0.567575	0.296943
H82	H	1.073436	0.574747	0.193358
H83	H	1.042320	0.716041	0.389995
H84	H	1.141741	0.723248	0.286426
H85	H	1.040683	0.717704	0.161379
H86	H	0.941259	0.710525	0.264968
H87	H	1.028621	0.806951	0.265095
H88	H	0.738579	0.741912	-0.000116
C89	C	0.720040	0.140458	0.000228
C90	C	0.729248	0.110915	0.102142
C91	C	0.679492	0.010615	0.102424
H92	H	0.752892	0.100460	-0.068753
H93	H	0.647177	0.132463	0.000289
H94	H	0.802098	0.118901	0.102070
H95	H	0.696392	0.150886	0.171140
H96	H	0.606629	0.002621	0.102485
H97	H	0.712349	-0.029374	0.033438
H98	H	0.685725	-0.009440	0.171576
H99	H	0.566811	0.207524	-0.000038
C100	C	0.526228	0.705958	-0.000287
C101	C	0.483542	0.679056	-0.102170
C102	C	0.424930	0.748992	-0.102392
H103	H	0.571244	0.770070	-0.000354
H104	H	0.470390	0.707521	0.068740
H105	H	0.539373	0.677503	-0.171180
H106	H	0.438510	0.614955	-0.102125
H107	H	0.369092	0.750555	-0.033364
H108	H	0.469954	0.813100	-0.102456
H109	H	0.395953	0.730744	-0.171512
C110	C	0.945960	0.203555	-0.000205
C111	C	1.028107	0.201450	-0.102081
C112	C	1.086792	0.131448	-0.102276
H113	H	0.900963	0.139427	-0.000264
H114	H	0.975060	0.221639	0.068827
H115	H	0.999008	0.183360	-0.171095
H116	H	1.073128	0.265560	-0.102044
H117	H	1.115893	0.149532	-0.033245
H118	H	1.041787	0.067325	-0.102332
H119	H	1.142541	0.130017	-0.171392
H120	H	1.018462	0.614840	0.519573
