data_functionalizedCrystal
_audit_creation_method	'MofGen! by Chris Wilmer'
_symmetry_space_group_name_H-M	'P1'
_symmetry_Int_Tables_number	1
_symmetry_cell_setting	triclinic
loop_
_symmetry_equiv_pos_as_xyz
  x,y,z
_cell_length_a	8.559649
_cell_length_b	9.065218
_cell_length_c	7.540329
_cell_angle_alpha	90.001757
_cell_angle_beta	89.997379
_cell_angle_gamma	102.602725
loop_
_atom_site_label
_atom_site_type_symbol
_atom_site_fract_x
_atom_site_fract_y
_atom_site_fract_z
O1	O	2.119402	0.049968	-0.147454
O2	O	1.655298	-0.026097	-0.147462
O3	O	1.896943	0.227784	-0.147454
O4	O	1.877757	-0.203912	-0.147462
O5	O	1.896928	0.227785	0.147511
O6	O	1.655284	-0.026096	0.147503
O7	O	2.119387	0.049969	0.147511
Cu8	Cu	1.887334	0.011937	0.174440
Cu9	Cu	1.887351	0.011936	-0.174391
O10	O	1.877742	-0.203911	0.147503
C11	C	1.595845	-0.031861	0.000020
C12	C	1.418713	-0.049020	0.000017
N13	N	1.887334	0.011940	0.419788
C14	C	1.895092	0.282539	0.000025
C15	C	1.889578	0.445689	0.000017
C16	C	2.178841	0.055733	0.000025
C17	C	2.355972	0.072892	0.000017
C18	C	1.879594	-0.258667	0.000020
C19	C	1.885107	-0.421817	0.000017
N20	N	1.887364	0.011946	-0.419739
H21	H	1.336908	-0.166528	0.000005
O22	O	1.464316	0.228540	0.000025
H23	H	1.390501	0.315141	0.000014
