data_functionalizedCrystal
_audit_creation_method	'MofGen! by Chris Wilmer'
_symmetry_space_group_name_H-M	'P1'
_symmetry_Int_Tables_number	1
_symmetry_cell_setting	triclinic
loop_
_symmetry_equiv_pos_as_xyz
  x,y,z
_cell_length_a	15.995350
_cell_length_b	15.995350
_cell_length_c	14.472310
_cell_angle_alpha	89.998838
_cell_angle_beta	89.990621
_cell_angle_gamma	96.507625
loop_
_atom_site_label
_atom_site_type_symbol
_atom_site_fract_x
_atom_site_fract_y
_atom_site_fract_z
O1	O	1.110997	-0.107921	-0.076758
O2	O	1.610997	0.392079	0.423242
O3	O	0.867221	-0.121248	-0.076776
O4	O	1.367221	0.378752	0.423224
O5	O	0.995773	0.007303	-0.076766
O6	O	1.495773	0.507303	0.423234
O7	O	0.982445	-0.236472	-0.076769
O8	O	1.482445	0.263528	0.423231
O9	O	0.995740	0.007296	0.076916
O10	O	1.495740	0.507296	0.576916
O11	O	0.867188	-0.121256	0.076906
O12	O	1.367188	0.378744	0.576906
O13	O	1.110963	-0.107928	0.076924
O14	O	1.610963	0.392072	0.576924
Cu15	Cu	0.989073	-0.114593	0.090947
Cu16	Cu	1.489073	0.385407	0.590947
Cu17	Cu	0.989112	-0.114584	-0.090800
Cu18	Cu	1.489112	0.385416	0.409200
O19	O	0.982412	-0.236480	0.076913
O20	O	1.482412	0.263520	0.576913
C21	C	0.836010	-0.120701	0.000062
C22	C	1.336010	0.379299	0.500062
C23	C	0.743060	-0.119049	0.000055
C24	C	1.243060	0.380951	0.500055
C25	C	0.405312	-0.113117	0.000074
C26	C	0.905312	0.386883	0.500074
C27	C	0.452746	-0.021565	0.000418
C28	C	0.952746	0.478435	0.500418
C29	C	0.549436	-0.023217	0.000065
C30	C	1.049436	0.476783	0.500065
C31	C	0.572873	-0.116060	0.000065
C32	C	1.072873	0.383940	0.500065
C33	C	0.531804	-0.161212	-0.087692
C34	C	1.031804	0.338788	0.412308
C35	C	0.435169	-0.158912	-0.087759
C36	C	0.935169	0.341088	0.412241
C37	C	0.434792	-0.160812	0.087007
C38	C	0.934792	0.339188	0.587007
C39	C	0.531737	-0.160790	0.088160
C40	C	1.031737	0.339210	0.588160
C41	C	0.667570	-0.117727	0.000057
C42	C	1.167570	0.382273	0.500057
C43	C	0.310614	-0.111452	0.000076
C44	C	0.810614	0.388548	0.500076
C45	C	0.995205	0.038494	0.000073
C46	C	1.495205	0.538494	0.500073
C47	C	0.993553	0.131444	0.000068
C48	C	1.493553	0.631444	0.500068
C49	C	1.142175	-0.108476	0.000083
C50	C	1.642175	0.391524	0.500083
C51	C	1.235125	-0.110127	0.000084
C52	C	1.735125	0.389873	0.500084
C53	C	0.982980	-0.267671	0.000072
C54	C	1.482980	0.232329	0.500072
C55	C	0.984631	-0.360621	0.000071
C56	C	1.484631	0.139379	0.500071
N57	N	0.989051	-0.114598	0.218778
N58	N	1.489051	0.385402	0.718778
C59	C	0.987621	0.469192	0.000071
C60	C	1.487621	0.969192	0.500071
C61	C	0.896069	0.421758	-0.000281
C62	C	1.396069	0.921758	0.499719
C63	C	0.897721	0.325068	0.000066
C64	C	1.397721	0.825068	0.500066
C65	C	0.990564	0.301631	0.000069
C66	C	1.490564	0.801631	0.500069
C67	C	1.035701	0.342705	0.087831
C68	C	1.535701	0.842705	0.587831
C69	C	1.033401	0.439340	0.087904
C70	C	1.533401	0.939340	0.587904
C71	C	1.035330	0.439707	-0.086861
C72	C	1.535330	0.939707	0.413139
C73	C	1.035309	0.342762	-0.088021
C74	C	1.535309	0.842762	0.411979
C75	C	0.992231	0.206934	0.000071
C76	C	1.492231	0.706934	0.500071
C77	C	0.985956	0.563890	0.000075
C78	C	1.485956	1.063890	0.500075
N79	N	0.989140	-0.114572	-0.218631
N80	N	1.489140	0.385428	0.281369
C81	C	0.989111	-0.114581	0.592869
C82	C	1.489111	0.385419	1.092869
C83	C	0.920095	-0.183135	0.553698
C84	C	1.420095	0.316865	1.053698
C85	C	0.920254	-0.183385	0.446610
C86	C	1.420254	0.316615	0.946610
C87	C	0.989081	-0.114590	0.407278
C88	C	1.489081	0.385410	0.907278
C89	C	1.076445	-0.133671	0.446122
C90	C	1.576445	0.366329	0.946122
C91	C	1.076057	-0.134159	0.553243
C92	C	1.576057	0.365841	1.053243
C93	C	0.971542	-0.026741	0.553398
C94	C	1.471542	0.473259	1.053398
C95	C	0.969538	-0.027327	0.446270
C96	C	1.469538	0.472673	0.946270
C97	C	0.989069	-0.114593	0.302390
C98	C	1.489069	0.385407	0.802390
C99	C	0.989128	-0.114579	0.697757
C100	C	1.489128	0.385421	1.197757
H101	H	0.416874	-0.125979	-0.153359
H102	H	0.916874	0.374021	0.346641
N103	N	0.935071	-0.269773	0.412753
N104	N	1.435071	0.230227	0.912753
H105	H	0.987978	-0.265464	0.374124
H106	H	1.487978	0.234536	0.874124
H107	H	0.885586	-0.293957	0.374089
H108	H	1.385586	0.206043	0.874089
H109	H	1.092297	-0.197002	0.419285
H110	H	1.592297	0.302998	0.919285
H111	H	0.433166	0.014865	-0.062168
H112	H	0.933166	0.514865	0.437832
H113	H	0.854945	-0.171953	0.579481
H114	H	1.354945	0.328047	1.079481
H115	H	0.577852	0.012275	0.062973
H116	H	1.077852	0.512275	0.562973
N117	N	0.392444	-0.247943	-0.092998
N118	N	0.892444	0.252057	0.407002
H119	H	0.436411	-0.288508	-0.095262
H120	H	0.936411	0.211492	0.404738
H121	H	0.356553	-0.254667	-0.150507
H122	H	0.856553	0.245333	0.349493
H123	H	0.545930	-0.229421	-0.090955
H124	H	1.045930	0.270579	0.409045
N125	N	0.989757	0.463577	0.174794
N126	N	1.489757	0.963577	0.674794
H127	H	0.938336	0.491510	0.157784
H128	H	1.438336	0.991510	0.657784
H129	H	1.029559	0.503917	0.212089
H130	H	1.529559	1.003917	0.712089
H131	H	1.100617	0.471588	0.091888
H132	H	1.600617	0.971588	0.591888
N133	N	0.994146	0.305125	0.174349
N134	N	1.494146	0.805125	0.674349
H135	H	1.036641	0.277752	0.212120
H136	H	1.536641	0.777752	0.712120
H137	H	0.946085	0.261534	0.156827
H138	H	1.446085	0.761534	0.656827
H139	H	0.861973	0.297200	0.063079
H140	H	1.361973	0.797200	0.563079
H141	H	0.547101	-0.228494	0.093461
H142	H	1.047101	0.271506	0.593461
N143	N	0.407578	-0.121174	0.175121
N144	N	0.907578	0.378826	0.675121
H145	H	0.375858	-0.071893	0.159576
H146	H	0.875858	0.428107	0.659576
H147	H	0.458830	-0.101007	0.213198
H148	H	0.958830	0.398993	0.713198
H149	H	0.909219	-0.008392	0.580461
H150	H	1.409219	0.491608	1.080461
N151	N	1.038190	0.040848	0.586959
N152	N	1.538190	0.540848	1.086959
H153	H	1.068812	0.068981	0.532211
H154	H	1.568812	0.568981	1.032211
H155	H	1.079522	0.014689	0.627547
H156	H	1.579522	0.514689	1.127547
H157	H	1.129029	-0.085068	0.420643
H158	H	1.629029	0.414932	0.920643
H159	H	1.103909	0.328579	0.091097
H160	H	1.603909	0.828579	0.591097
N161	N	0.569398	-0.119653	-0.174200
N162	N	1.069398	0.380347	0.325800
H163	H	0.523580	-0.097374	-0.211836
H164	H	1.023580	0.402626	0.288164
H165	H	0.596787	-0.162182	-0.211910
H166	H	1.096787	0.337818	0.288090
H167	H	0.559040	-0.127830	0.153082
H168	H	1.059040	0.372170	0.653082
H169	H	0.403031	-0.228313	0.087600
H170	H	0.903031	0.271687	0.587600
H171	H	1.005412	0.460250	-0.153379
H172	H	1.505412	0.960250	0.346621
N173	N	0.991651	0.306618	-0.174027
N174	N	1.491651	0.806618	0.325973
H175	H	0.943093	0.263777	-0.156015
H176	H	1.443093	0.763777	0.343985
H177	H	1.032884	0.278621	-0.212971
H178	H	1.532884	0.778621	0.287029
H179	H	1.129018	-0.086196	0.579154
H180	H	1.629018	0.413804	1.079154
N181	N	1.124995	0.322421	-0.095044
N182	N	1.624995	0.822421	0.404956
H183	H	1.137950	0.286096	-0.040979
H184	H	1.637950	0.786096	0.459021
H185	H	1.164489	0.376359	-0.094289
H186	H	1.664489	0.876359	0.405711
H187	H	0.862239	0.296649	-0.062846
H188	H	1.362239	0.796649	0.437154
H189	H	1.102831	0.471468	-0.087449
H190	H	1.602831	0.971468	0.412551
N191	N	0.847606	0.446307	-0.083641
N192	N	1.347606	0.946307	0.416359
H193	H	0.884523	0.488416	-0.121989
H194	H	1.384523	0.988416	0.378011
H195	H	0.796127	0.472243	-0.062624
H196	H	1.296127	0.972243	0.437376
N197	N	1.096565	-0.219011	0.586337
N198	N	1.596565	0.280989	1.086337
H199	H	1.105770	-0.255747	0.531339
H200	H	1.605770	0.244253	1.031339
H201	H	1.048312	-0.246533	0.624664
H202	H	1.548312	0.253467	1.124664
N203	N	0.884382	-0.008168	0.412709
N204	N	1.384382	0.491832	0.912709
H205	H	0.858567	-0.055805	0.372406
H206	H	1.358567	0.444195	0.872406
H207	H	0.891055	0.045771	0.375811
H208	H	1.391055	0.545771	0.875811
H209	H	0.859626	0.441349	0.062299
H210	H	1.359626	0.941349	0.562299
N211	N	0.834236	-0.168330	0.411814
N212	N	1.334236	0.331670	0.911814
H213	H	0.795873	-0.161472	0.466064
H214	H	1.295873	0.338528	0.966064
H215	H	0.810177	-0.217868	0.373152
H216	H	1.310177	0.282132	0.873152
H217	H	0.434210	0.015027	0.063352
H218	H	0.934210	0.515027	0.563352
N219	N	0.586366	0.024123	-0.083403
N220	N	1.086366	0.524123	0.416597
H221	H	0.539824	0.046142	-0.120114
H222	H	1.039824	0.546142	0.379886
H223	H	0.616222	-0.014946	-0.123326
H224	H	1.116222	0.485054	0.376674
N225	N	0.934771	-0.269003	0.589294
N226	N	1.434771	0.230997	1.089294
H227	H	0.985928	-0.263688	0.630689
H228	H	1.485928	0.236312	1.130689
H229	H	0.944211	-0.306955	0.535419
H230	H	1.444211	0.193045	1.035419
H231	H	1.016541	0.026079	0.419500
H232	H	1.516541	0.526079	0.919500
