data_functionalizedCrystal
_audit_creation_method	'MofGen! by Chris Wilmer'
_symmetry_space_group_name_H-M	'P1'
_symmetry_Int_Tables_number	1
_symmetry_cell_setting	triclinic
loop_
_symmetry_equiv_pos_as_xyz
  x,y,z
_cell_length_a	25.639243
_cell_length_b	14.908326
_cell_length_c	14.908308
_cell_angle_alpha	90.223626
_cell_angle_beta	93.275293
_cell_angle_gamma	86.675226
loop_
_atom_site_label
_atom_site_type_symbol
_atom_site_fract_x
_atom_site_fract_y
_atom_site_fract_z
Zn1	Zn	0.770029	0.387259	-0.487776
Zn2	Zn	1.270029	0.887259	0.012224
Zn3	Zn	0.770545	0.528969	-0.328733
Zn4	Zn	1.270545	1.028969	0.171267
Zn5	Zn	0.687916	0.378625	-0.337427
Zn6	Zn	1.187916	0.878625	0.162573
Zn7	Zn	0.677835	0.537592	-0.479036
Zn8	Zn	1.177835	1.037592	0.020964
O9	O	0.726581	0.458111	-0.408243
O10	O	1.226581	0.958111	0.091757
O11	O	0.843262	0.406062	-0.466698
O12	O	1.343262	0.906062	0.033302
O13	O	0.764019	0.501803	-0.204063
O14	O	1.264019	1.001803	0.295937
O15	O	0.702812	0.253936	-0.364668
O16	O	1.202812	0.753936	0.135332
O17	O	0.843641	0.510175	-0.349850
O18	O	1.343641	1.010175	0.150150
O19	O	0.763140	0.260280	-0.475128
O20	O	1.263140	0.760280	0.024872
O21	O	0.703312	0.391346	-0.210450
O22	O	1.203312	0.891346	0.289550
O23	O	0.613414	0.399707	-0.356193
O24	O	1.113414	0.899707	0.143807
O25	O	0.685630	0.524872	-0.606019
O26	O	1.185630	1.024872	-0.106019
O27	O	0.606008	0.516499	-0.460232
O28	O	1.106008	1.016499	0.039768
O29	O	0.753365	0.414423	-0.612440
O30	O	1.253365	0.914423	-0.112440
O31	O	0.754244	0.655946	-0.341375
O32	O	1.254244	1.155946	0.158625
O33	O	0.686130	0.662282	-0.451801
O34	O	1.186130	1.162282	0.048199
C35	C	0.590740	0.458103	-0.408208
C36	C	1.090740	0.958103	0.091792
C37	C	0.532625	0.458122	-0.408213
C38	C	1.032625	0.958122	0.091787
C39	C	0.172053	0.403995	-0.469177
C40	C	0.672053	0.903995	0.030823
C41	C	0.117448	0.403995	-0.469182
C42	C	0.617448	0.903995	0.030818
O43	O	0.089035	0.357954	-0.520972
O44	O	0.589035	0.857954	-0.020972
N45	N	0.090341	0.458110	-0.408268
N46	N	0.590341	0.958110	0.091732
C47	C	0.117843	0.512222	-0.347338
C48	C	0.617843	1.012222	0.152662
O49	O	0.089772	0.558251	-0.295526
O50	O	0.589772	1.058251	0.204474
C51	C	0.172446	0.512217	-0.347329
C52	C	0.672446	1.012217	0.152671
C53	C	0.199550	0.458105	-0.408253
C54	C	0.699550	0.958105	0.091747
C55	C	0.199156	0.349887	-0.530095
C56	C	0.699156	0.849887	-0.030095
C57	C	0.253757	0.349889	-0.530090
C58	C	0.753757	0.849889	-0.030090
C59	C	0.281254	0.403999	-0.469167
C60	C	0.781254	0.903999	0.030833
C61	C	0.254150	0.458107	-0.408248
C62	C	0.754150	0.958107	0.091752
C63	C	0.199947	0.566324	-0.286395
C64	C	0.699947	1.066324	0.213605
C65	C	0.254554	0.566314	-0.286391
C66	C	0.754554	1.066314	0.213609
C67	C	0.281658	0.512202	-0.347315
C68	C	0.781658	1.012202	0.152685
C69	C	0.336248	0.512219	-0.347320
C70	C	0.836248	1.012219	0.152680
N71	N	0.363355	0.458104	-0.408234
N72	N	0.863355	0.958104	0.091766
C73	C	0.335858	0.403994	-0.469158
C74	C	0.835858	0.903994	0.030842
C75	C	0.003171	0.512227	-0.347361
C76	C	0.503171	1.012227	0.152639
C77	C	-0.051432	0.512238	-0.347373
C78	C	0.448568	1.012238	0.152627
C79	C	-0.051823	0.404009	-0.469217
C80	C	0.448177	0.904009	0.030783
C81	C	0.002781	0.404004	-0.469208
C82	C	0.502781	0.904004	0.030792
C83	C	0.030278	0.458112	-0.408275
C84	C	0.530278	0.958112	0.091725
C85	C	0.450523	0.404003	-0.469144
C86	C	0.950523	0.904003	0.030856
C87	C	0.505128	0.404012	-0.469136
C88	C	1.005128	0.904012	0.030864
C89	C	0.505514	0.512237	-0.347290
C90	C	1.005514	1.012237	0.152710
C91	C	0.450914	0.512231	-0.347300
C92	C	0.950914	1.012231	0.152700
C93	C	0.423419	0.458107	-0.408231
C94	C	0.923419	0.958107	0.091769
O95	O	0.364696	0.558233	-0.295554
O96	O	0.864696	1.058233	0.204446
O97	O	0.363935	0.357964	-0.520954
O98	O	0.863935	0.857964	-0.020954
C99	C	0.719162	0.691743	-0.394716
C100	C	1.219162	1.191743	0.105284
C101	C	0.716035	0.791693	-0.388959
C102	C	1.216035	1.291693	0.111041
C103	C	0.772924	0.985973	-0.493287
C104	C	1.272924	1.485973	0.006713
C105	C	0.769987	1.079885	-0.487881
C106	C	1.269987	1.579885	0.012119
C107	C	0.707223	1.073432	-0.372746
C108	C	1.207223	1.573432	0.127254
C109	C	0.710160	0.979520	-0.378152
C110	C	1.210160	1.479520	0.121848
C111	C	0.743012	0.935794	-0.438423
C112	C	1.243012	1.435794	0.061577
C113	C	0.745951	0.841879	-0.443824
C114	C	1.245951	1.341879	0.056176
C115	C	0.683184	0.835428	-0.328694
C116	C	1.183184	1.335428	0.171306
C117	C	0.680248	0.929340	-0.323288
C118	C	1.180248	1.429340	0.176712
C119	C	0.862953	0.458120	-0.408279
C120	C	1.362953	0.958120	0.091721
C121	C	0.921066	0.458124	-0.408294
C122	C	1.421066	0.958124	0.091706
C123	C	0.718315	0.471573	-0.642766
C124	C	1.218315	0.971573	-0.142766
C125	C	0.714793	0.477309	-0.742706
C126	C	1.214793	0.977309	-0.242706
C127	C	0.734022	1.223568	-0.421836
C128	C	1.234022	1.723568	0.078164
C129	C	0.737139	1.123618	-0.427611
C130	C	1.237139	1.623618	0.072389
C131	C	0.778705	0.373058	-0.937194
C132	C	1.278705	0.873058	-0.437194
C133	C	0.775397	0.378444	-1.031096
C134	C	1.275397	0.878444	-0.531096
C135	C	0.704866	0.493465	-1.024416
C136	C	1.204866	0.993465	-0.524416
C137	C	0.708174	0.488078	-0.930514
C138	C	1.208174	0.988078	-0.430514
C139	C	0.745095	0.427873	-0.886906
C140	C	1.245095	0.927873	-0.386906
C141	C	0.748406	0.422491	-0.793001
C142	C	1.248406	0.922491	-0.293001
C143	C	0.677873	0.537506	-0.786323
C144	C	1.177873	1.037506	-0.286323
C145	C	0.674565	0.542893	-0.880226
C146	C	1.174565	1.042893	-0.380226
C147	C	0.734848	0.444637	-0.174636
C148	C	1.234848	0.944637	0.325364
C149	C	0.738479	0.438647	-0.074711
C150	C	1.238479	0.938647	0.425289
H151	H	-0.074221	0.359947	-0.518822
H152	H	0.425779	0.859947	-0.018822
H153	H	0.650507	0.582144	-0.745368
H154	H	1.150507	1.082144	-0.245368
H155	H	0.644504	0.591908	-0.915744
H156	H	1.144504	1.091908	-0.415744
H157	H	0.778469	0.373471	-0.757497
H158	H	1.278469	0.873471	-0.257497
H159	H	0.808770	0.324041	-0.901687
H160	H	1.308770	0.824041	-0.401687
H161	H	0.653499	0.964955	-0.274219
H162	H	1.153499	1.464955	0.225781
H163	H	0.799677	0.950370	-0.542356
H164	H	1.299677	1.450370	-0.042356
H165	H	0.025555	0.556297	-0.297744
H166	H	0.525555	1.056297	0.202256
F167	F	0.811168	0.320101	-1.084614
F168	F	1.311168	0.820101	-0.584614
F169	F	0.672252	1.119985	-0.308624
F170	F	1.172252	1.619985	0.191376
H171	H	0.794342	1.120739	-0.532561
H172	H	1.294342	1.620739	-0.032561
F173	F	-0.080272	0.569840	-0.282538
F174	F	0.419728	1.069840	0.217462
F175	F	0.665572	0.557527	-1.070843
F176	F	1.165572	1.057527	-0.570843
F177	F	0.780916	0.795344	-0.507967
F178	F	1.280916	1.295344	-0.007967
F179	F	0.169899	0.292290	-0.594944
F180	F	0.669899	0.792290	-0.094944
F181	F	0.533970	0.346419	-0.533985
F182	F	1.033970	0.846419	-0.033985
H183	H	0.428144	0.359926	-0.518756
H184	H	0.928144	0.859926	-0.018756
H185	H	0.275819	0.305824	-0.579700
H186	H	0.775819	0.805824	-0.079700
F187	F	0.651351	0.782016	-0.270295
F188	F	1.151351	1.282016	0.229705
F189	F	0.031622	0.346410	-0.534050
F190	F	0.531622	0.846410	-0.034050
H191	H	0.177889	0.610387	-0.236783
H192	H	0.677889	1.110387	0.263217
F193	F	0.422066	0.569847	-0.282480
F194	F	0.922066	1.069847	0.217520
H195	H	0.527912	0.556294	-0.297689
H196	H	1.027912	1.056294	0.202311
F197	F	0.283815	0.623906	-0.221537
F198	F	0.783815	1.123906	0.278463
