data_functionalizedCrystal
_audit_creation_method	'MofGen! by Chris Wilmer'
_symmetry_space_group_name_H-M	'P1'
_symmetry_Int_Tables_number	1
_symmetry_cell_setting	triclinic
loop_
_symmetry_equiv_pos_as_xyz
  x,y,z
_cell_length_a	14.519709
_cell_length_b	11.026607
_cell_length_c	9.482900
_cell_angle_alpha	101.363848
_cell_angle_beta	99.350820
_cell_angle_gamma	83.866919
loop_
_atom_site_label
_atom_site_type_symbol
_atom_site_fract_x
_atom_site_fract_y
_atom_site_fract_z
O1	O	0.375017	-1.629894	-0.120915
O2	O	0.875017	-1.129894	0.379085
O3	O	0.331026	-1.276492	-0.120914
O4	O	0.831026	-0.776492	0.379086
O5	O	0.220328	-1.462561	-0.120901
O6	O	0.720328	-0.962561	0.379099
O7	O	0.485715	-1.443825	-0.120927
O8	O	0.985715	-0.943825	0.379073
O9	O	0.242929	-1.424766	0.120889
O10	O	0.742929	-0.924766	0.620889
O11	O	0.353627	-1.238698	0.120876
O12	O	0.853627	-0.738698	0.620876
O13	O	0.397617	-1.592099	0.120875
O14	O	0.897617	-1.092099	0.620875
Cu15	Cu	0.377686	-1.411948	0.142953
Cu16	Cu	0.877686	-0.911948	0.642953
Cu17	Cu	0.350958	-1.456644	-0.142992
Cu18	Cu	0.850958	-0.956644	0.357008
O19	O	0.508316	-1.406031	0.120862
O20	O	1.008316	-0.906031	0.620862
C21	C	0.334211	-1.212367	-0.000019
C22	C	0.834211	-0.712367	0.499981
C23	C	0.310019	-1.077600	-0.000019
C24	C	0.810019	-0.577600	0.499981
C25	C	0.197125	-1.442790	-0.000006
C26	C	0.697125	-0.942790	0.499994
C27	C	0.094312	-1.440173	-0.000005
C28	C	0.594312	-0.940173	0.499995
C29	C	0.394432	-1.656226	-0.000023
C30	C	0.894432	-1.156226	0.499977
C31	C	0.418624	-1.790994	-0.000033
C32	C	0.918624	-1.290994	0.499967
C33	C	-0.282175	-1.430544	-0.000043
C34	C	0.217825	-0.930544	0.499957
C35	C	-0.177425	-1.433218	-0.000032
C36	C	0.322575	-0.933218	0.499968
C37	C	-0.093934	-1.435358	-0.000023
C38	C	0.406066	-0.935358	0.499977
C39	C	0.010822	-1.438033	-0.000015
C40	C	0.510822	-0.938033	0.499985
C41	C	0.531518	-1.425802	-0.000036
C42	C	1.031518	-0.925802	0.499964
C43	C	0.634330	-1.428421	-0.000046
C44	C	1.134330	-0.928421	0.499954
N45	N	0.396486	-1.380519	0.344071
N46	N	0.896486	-0.880519	0.844071
C47	C	0.376817	-1.003940	-0.000026
C48	C	0.876817	-0.503940	0.499974
C49	C	0.351815	-0.864652	-0.000026
C50	C	0.851815	-0.364652	0.499974
N51	N	0.332152	-1.488082	-0.344110
N52	N	0.832152	-0.988082	0.155890
C53	C	0.356497	-1.447366	0.416275
C54	C	0.856497	-0.947366	0.916275
C55	C	0.372147	-1.421226	0.583690
C56	C	0.872147	-0.921226	1.083690
H57	H	0.452517	-1.043996	-0.000025
H58	H	0.952517	-0.543996	0.499975
N59	N	0.209744	-1.024554	-0.000021
N60	N	0.709744	-0.524554	0.499979
H61	H	0.168600	-1.092847	-0.000017
H62	H	0.668600	-0.592847	0.499983
H63	H	0.205183	-0.958614	0.089615
H64	H	0.705183	-0.458614	0.589615
N65	N	0.271453	-1.589531	0.573612
N66	N	0.771453	-1.089531	1.073612
H67	H	0.298698	-1.671673	0.600002
H68	H	0.798698	-1.171673	1.100002
H69	H	0.206131	-1.570954	0.600066
H70	H	0.706131	-1.070954	1.100066
N71	N	0.295780	-1.548782	0.333974
N72	N	0.795780	-1.048782	0.833974
H73	H	0.333993	-1.612565	0.270789
H74	H	0.833993	-1.112565	0.770789
H75	H	0.271242	-1.589710	0.405234
H76	H	0.771242	-1.089710	0.905234
H77	H	0.276108	-0.824606	-0.000055
H78	H	0.776108	-0.324606	0.499945
N79	N	0.518901	-0.844037	-0.000067
N80	N	1.018901	-0.344037	0.499933
H81	H	0.560042	-0.775743	-0.000077
H82	H	1.060042	-0.275743	0.499923
H83	H	0.540226	-0.881959	0.089563
H84	H	1.040226	-0.381959	0.589563
H85	H	0.417969	-1.344635	0.645809
H86	H	0.917969	-0.844635	1.145809
N87	N	0.457177	-1.279067	0.426345
N88	N	0.957177	-0.779067	0.926345
H89	H	0.459752	-1.274772	0.534279
H90	H	0.959752	-0.774772	1.034279
H91	H	0.522482	-1.297593	0.399810
H92	H	1.022482	-0.797593	0.899810
