data_functionalizedCrystal
_audit_creation_method	'MofGen! by Chris Wilmer'
_symmetry_space_group_name_H-M	'P1'
_symmetry_Int_Tables_number	1
_symmetry_cell_setting	triclinic
loop_
_symmetry_equiv_pos_as_xyz
  x,y,z
_cell_length_a	11.169417
_cell_length_b	18.050590
_cell_length_c	11.169409
_cell_angle_alpha	90.037983
_cell_angle_beta	90.019513
_cell_angle_gamma	90.019802
loop_
_atom_site_label
_atom_site_type_symbol
_atom_site_fract_x
_atom_site_fract_y
_atom_site_fract_z
Zn1	Zn	1.834894	-0.295575	0.678486
Zn2	Zn	1.834754	-0.419790	0.477783
Zn3	Zn	1.634180	-0.295621	0.477821
Zn4	Zn	1.634158	-0.419730	0.678429
O5	O	1.734497	-0.357679	0.578130
O6	O	2.002825	-0.312058	0.651870
O7	O	1.808098	-0.403363	0.309838
O8	O	1.660872	-0.191690	0.504480
O9	O	2.002723	-0.403318	0.504414
O10	O	1.808336	-0.191656	0.651907
O11	O	1.660737	-0.312136	0.309866
O12	O	1.466227	-0.312078	0.504424
O13	O	1.660836	-0.403216	0.846386
O14	O	1.466212	-0.403261	0.651810
O15	O	1.808315	-0.312000	0.846428
O16	O	1.808078	-0.523706	0.504359
O17	O	1.660701	-0.523662	0.651773
C18	C	1.422672	-0.357669	0.578116
C19	C	1.289272	-0.357682	0.578138
C20	C	1.734404	-0.550631	0.578082
C21	C	1.734475	-0.633177	0.578101
C22	C	1.814785	-0.832624	0.498050
C23	C	1.844109	-0.881945	0.607586
C24	C	1.734543	-0.784307	0.578149
C25	C	1.705341	-0.882068	0.468663
C26	C	1.734611	-0.930292	0.578186
C27	C	1.763923	-0.832541	0.687743
C28	C	1.625104	-0.832659	0.548746
C29	C	1.654386	-0.881958	0.658357
C30	C	1.734507	-0.700209	0.578127
C31	C	1.734647	-1.014389	0.578221
C32	C	2.047539	-0.357689	0.578144
C33	C	2.180939	-0.357694	0.578150
C34	C	1.734589	-0.357596	0.891172
C35	C	1.734628	-0.357561	1.024572
C36	C	1.734622	-0.163973	0.578204
C37	C	1.734675	-0.081427	0.578236
C38	C	1.734474	-0.357707	0.266305
C39	C	1.734667	-0.357533	0.132905
H40	H	1.882666	-0.810962	0.430382
C41	C	1.969169	-0.911200	0.641214
H42	H	2.026069	-0.894313	0.584213
H43	H	1.990490	-0.893514	0.718454
H44	H	1.968104	-0.963825	0.641693
H45	H	1.532551	-0.810992	0.523820
C46	C	1.797484	-0.803283	0.812879
H47	H	1.797297	-0.750654	0.812091
H48	H	1.740868	-0.820568	0.869837
H49	H	1.875015	-0.820568	0.833898
C50	C	1.562760	-0.911044	0.749985
H51	H	1.583725	-0.893992	0.827703
H52	H	1.485227	-0.893422	0.729749
H53	H	1.562822	-0.963672	0.749046
H54	H	1.680614	-0.903822	0.376056
