data_functionalizedCrystal
_audit_creation_method	'MofGen! by Chris Wilmer'
_symmetry_space_group_name_H-M	'P1'
_symmetry_Int_Tables_number	1
_symmetry_cell_setting	triclinic
loop_
_symmetry_equiv_pos_as_xyz
  x,y,z
_cell_length_a	16.109302
_cell_length_b	14.519709
_cell_length_c	15.186229
_cell_angle_alpha	90.002449
_cell_angle_beta	90.005299
_cell_angle_gamma	96.429037
loop_
_atom_site_label
_atom_site_type_symbol
_atom_site_fract_x
_atom_site_fract_y
_atom_site_fract_z
O1	O	1.103335	-0.118543	0.073256
O2	O	0.861299	-0.133294	0.073247
O3	O	0.988735	0.008333	0.073260
O4	O	0.975900	-0.260171	0.073243
O5	O	0.988726	0.008335	-0.073197
O6	O	0.861291	-0.133292	-0.073210
O7	O	1.103327	-0.118541	-0.073201
Zn8	Zn	0.982307	-0.125916	-0.096459
Zn9	Zn	0.982319	-0.125919	0.096505
O10	O	0.975892	-0.260169	-0.073214
C11	C	0.830319	-0.132696	0.000018
C12	C	0.738021	-0.130904	0.000015
C13	C	0.525668	-0.126760	-0.079809
C14	C	0.438945	-0.125066	-0.079806
C15	C	0.438965	-0.125073	0.079869
C16	C	0.525687	-0.126760	0.079865
C17	C	0.569036	-0.127608	0.000023
C18	C	0.395590	-0.124228	0.000031
C19	C	0.301562	-0.122391	0.000035
C20	C	0.663071	-0.129442	0.000019
C21	C	0.976494	-0.294528	0.000013
C22	C	0.978286	-0.396906	0.000007
C23	C	0.984885	-0.771788	0.000042
C24	C	0.983053	-0.667484	0.000032
C25	C	0.981586	-0.584350	0.000024
C26	C	0.979753	-0.480039	0.000015
C27	C	1.134307	-0.119140	0.000030
C28	C	1.226605	-0.120932	0.000038
C29	C	0.988132	0.042693	0.000035
C30	C	0.986340	0.145070	0.000047
N31	N	0.982306	-0.125914	-0.228152
C32	C	1.038753	-0.063222	-0.453869
C33	C	1.038756	-0.063220	-0.546059
C34	C	0.925873	-0.188609	-0.546079
C35	C	0.925867	-0.188606	-0.453891
C36	C	0.982312	-0.125914	-0.407788
C37	C	0.982321	-0.125915	-0.592166
C38	C	0.982323	-0.125913	-0.692122
C39	C	0.982309	-0.125914	-0.307826
N40	N	0.982327	-0.125914	0.228198
H41	H	0.560960	-0.127450	-0.144822
H42	H	0.879902	-0.239657	-0.416369
H43	H	0.560998	-0.127448	0.144879
H44	H	0.403639	-0.124376	-0.144814
N45	N	1.096352	0.000861	-0.406760
N46	N	1.095026	0.086094	-0.417060
H47	H	1.135686	0.131369	-0.383781
N48	N	0.394670	-0.124206	0.161414
N49	N	0.317241	-0.122701	0.161408
H50	H	0.285958	-0.122090	0.219001
H51	H	1.084715	-0.012170	-0.583575
H52	H	0.879918	-0.239653	-0.583624
