data_functionalizedCrystal
_audit_creation_method	'MofGen! by Chris Wilmer'
_symmetry_space_group_name_H-M	'P1'
_symmetry_Int_Tables_number	1
_symmetry_cell_setting	triclinic
loop_
_symmetry_equiv_pos_as_xyz
  x,y,z
_cell_length_a	21.295417
_cell_length_b	12.759401
_cell_length_c	12.759393
_cell_angle_alpha	89.980163
_cell_angle_beta	89.960780
_cell_angle_gamma	90.032032
loop_
_atom_site_label
_atom_site_type_symbol
_atom_site_fract_x
_atom_site_fract_y
_atom_site_fract_z
Zn1	Zn	-0.250546	1.606140	-0.593965
Zn2	Zn	-0.355830	1.605986	-0.418261
Zn3	Zn	-0.250582	1.430442	-0.418300
Zn4	Zn	-0.355784	1.430382	-0.593899
O5	O	-0.303186	1.518237	-0.506106
O6	O	-0.264517	1.753140	-0.570669
O7	O	-0.341903	1.582660	-0.271245
O8	O	-0.162488	1.453838	-0.441646
O9	O	-0.341869	1.753027	-0.441580
O10	O	-0.162461	1.582922	-0.570706
O11	O	-0.264577	1.453689	-0.271274
O12	O	-0.264533	1.283413	-0.441582
O13	O	-0.341790	1.453736	-0.740929
O14	O	-0.341825	1.283369	-0.570594
O15	O	-0.264472	1.582864	-0.740977
O16	O	-0.443914	1.582602	-0.441516
O17	O	-0.443880	1.453586	-0.570556
C18	C	-0.303178	1.245270	-0.506085
C19	C	-0.303190	1.128493	-0.506101
C20	C	-0.343497	1.073636	-0.573172
C21	C	-0.343499	0.963912	-0.573193
C22	C	-0.262886	0.963912	-0.439063
C23	C	-0.262881	1.073634	-0.439048
C24	C	-0.466737	1.518099	-0.506048
C25	C	-0.536705	1.518137	-0.506058
C26	C	-0.569569	1.585375	-0.438936
C27	C	-0.635311	1.585424	-0.438960
C28	C	-0.668188	1.518216	-0.506094
C29	C	-0.635317	1.450974	-0.573230
C30	C	-0.569575	1.450934	-0.573212
N31	N	-0.771454	1.426309	-0.514097
N32	N	-0.833906	1.426350	-0.514108
C33	C	-0.866262	1.518334	-0.506155
N34	N	-0.833808	1.610278	-0.498169
N35	N	-0.771351	1.610236	-0.498153
C36	C	-0.739473	1.518253	-0.506122
C37	C	-0.970411	1.585631	-0.439054
C38	C	-1.036155	1.585682	-0.439085
C39	C	-1.036159	1.451222	-0.573350
C40	C	-0.970417	1.451181	-0.573325
C41	C	-0.937547	1.518384	-0.506171
C42	C	-0.138995	1.518404	-0.506188
C43	C	-0.069027	1.518475	-0.506222
C44	C	-0.303122	1.518311	-0.780140
C45	C	-0.303095	1.518342	-0.896916
C46	C	-0.303194	1.792270	-0.506128
C47	C	-0.303197	1.909047	-0.506137
C48	C	-0.262824	1.451211	-0.951793
C49	C	-0.262805	1.451235	-1.061517
C50	C	-0.343329	1.585531	-1.061479
C51	C	-0.343351	1.585500	-0.951757
C52	C	-0.303204	1.518225	-0.233139
C53	C	-0.303053	1.518397	-0.116363
H54	H	-0.230054	1.118300	-0.384431
H55	H	-0.230068	0.919233	-0.384470
H56	H	-0.230013	1.396569	-1.106192
O57	O	-0.938409	1.650969	-0.373978
C58	C	-0.864143	1.792819	-0.359948
C59	C	-0.900331	1.718873	-0.433764
H60	H	-0.833358	1.847753	-0.408256
H61	H	-0.833379	1.744653	-0.304972
H62	H	-0.898941	1.840843	-0.311961
H63	H	-0.865578	1.670834	-0.481819
H64	H	-0.931104	1.767099	-0.488670
H65	H	-0.376147	1.640169	-0.907075
O66	O	-0.382667	1.126764	-0.638411
C67	C	-0.462646	1.115178	-0.771415
C68	C	-0.418309	1.054884	-0.697597
H69	H	-0.491484	1.057089	-0.819271
H70	H	-0.433811	1.166567	-0.826503
H71	H	-0.495499	1.166526	-0.723057
H72	H	-0.385447	1.003478	-0.745871
H73	H	-0.447183	1.003561	-0.642507
O74	O	-0.382565	0.910577	-0.638455
C75	C	-0.391145	0.786718	-0.780255
C76	C	-0.346830	0.847072	-0.706423
H77	H	-0.362271	0.735343	-0.835211
H78	H	-0.419941	0.844732	-0.828251
H79	H	-0.424039	0.735343	-0.731902
H80	H	-0.313898	0.898449	-0.754695
H81	H	-0.318079	0.789002	-0.658424
H82	H	-0.230045	1.396525	-0.907145
H83	H	-0.376103	1.640210	-1.106143
H84	H	-0.542808	1.640098	-0.384258
H85	H	-0.662074	1.640181	-0.384301
O86	O	-0.667319	1.385833	-0.638495
C87	C	-0.741452	1.371672	-0.780388
C88	C	-0.705260	1.445558	-0.706518
H89	H	-0.772126	1.419931	-0.835418
H90	H	-0.772326	1.316796	-0.732170
H91	H	-0.706656	1.323582	-0.828313
H92	H	-0.740011	1.493716	-0.658577
H93	H	-0.674377	1.500365	-0.754796
H94	H	-1.062911	1.640442	-0.384429
O95	O	-0.537620	1.385761	-0.638525
C96	C	-0.463298	1.371502	-0.780287
C97	C	-0.499460	1.445431	-0.706405
H98	H	-0.432427	1.419714	-0.835172
H99	H	-0.498057	1.323493	-0.828357
H100	H	-0.432605	1.316552	-0.731969
H101	H	-0.530154	1.500444	-0.754642
H102	H	-0.464667	1.493365	-0.658331
H103	H	-1.062927	1.396505	-0.628017
H104	H	-0.943658	1.396425	-0.627977
