data_functionalizedCrystal
_audit_creation_method	'MofGen! by Chris Wilmer'
_symmetry_space_group_name_H-M	'P1'
_symmetry_Int_Tables_number	1
_symmetry_cell_setting	triclinic
loop_
_symmetry_equiv_pos_as_xyz
  x,y,z
_cell_length_a	25.639242
_cell_length_b	29.839131
_cell_length_c	25.639233
_cell_angle_alpha	89.980415
_cell_angle_beta	89.977834
_cell_angle_gamma	90.036947
loop_
_atom_site_label
_atom_site_type_symbol
_atom_site_fract_x
_atom_site_fract_y
_atom_site_fract_z
Zn1	Zn	0.799215	-0.178962	-0.295739
Zn2	Zn	0.799134	-0.254076	-0.208302
Zn3	Zn	0.711791	-0.178955	-0.208303
Zn4	Zn	0.711732	-0.254059	-0.295692
O5	O	0.755468	-0.216513	-0.252009
O6	O	0.872370	-0.188935	-0.284160
O7	O	0.787539	-0.244115	-0.135137
O8	O	0.723447	-0.116089	-0.219922
O9	O	0.872310	-0.244122	-0.219920
O10	O	0.787677	-0.116094	-0.284161
O11	O	0.723369	-0.188924	-0.135138
O12	O	0.638618	-0.188908	-0.219876
O13	O	0.723346	-0.244093	-0.368864
O14	O	0.638575	-0.244087	-0.284081
O15	O	0.787619	-0.188919	-0.368898
O16	O	0.787482	-0.316941	-0.219875
O17	O	0.723268	-0.316929	-0.284080
C18	C	0.619626	-0.216495	-0.251974
C19	C	0.561512	-0.216499	-0.251971
C20	C	0.201135	-0.245293	-0.285409
C21	C	0.146531	-0.245295	-0.285417
O22	O	0.118282	-0.269755	-0.313817
N23	N	0.119229	-0.216525	-0.252043
C24	C	0.146535	-0.187748	-0.218663
O25	O	0.118299	-0.163276	-0.190277
C26	C	0.201138	-0.187743	-0.218658
C27	C	0.228437	-0.216518	-0.252030
C28	C	0.228434	-0.274065	-0.318778
C29	C	0.283034	-0.274063	-0.318769
C30	C	0.310336	-0.245288	-0.285390
C31	C	0.283037	-0.216516	-0.252021
C32	C	0.228443	-0.158963	-0.185281
C33	C	0.283050	-0.158961	-0.185279
C34	C	0.310349	-0.187736	-0.218651
C35	C	0.364940	-0.187739	-0.218633
N36	N	0.392241	-0.216509	-0.252006
C37	C	0.364939	-0.245283	-0.285385
C38	C	0.031864	-0.187759	-0.218677
C39	C	-0.022738	-0.187766	-0.218679
C40	C	-0.022739	-0.245313	-0.285434
C41	C	0.031865	-0.245308	-0.285429
C42	C	0.059166	-0.216529	-0.252051
C43	C	0.479604	-0.245277	-0.285363
C44	C	0.534210	-0.245273	-0.285350
C45	C	0.534206	-0.187724	-0.218597
C46	C	0.479605	-0.187729	-0.218609
C47	C	0.452306	-0.216507	-0.251996
O48	O	0.393223	-0.163290	-0.190249
O49	O	0.393182	-0.269746	-0.313771
C50	C	0.755374	-0.333236	-0.251983
C51	C	0.755381	-0.383170	-0.251990
C52	C	0.788965	-0.692807	-0.218627
C53	C	0.789030	-0.880480	-0.218647
O54	O	0.817509	-0.904740	-0.190260
N55	N	0.755577	-0.903955	-0.252049
C56	C	0.722108	-0.880509	-0.285450
O57	O	0.693659	-0.904782	-0.313865
C58	C	0.722046	-0.692837	-0.285432
C59	C	0.755498	-0.669364	-0.252024
C60	C	0.822415	-0.669335	-0.185222
C61	C	0.822396	-0.622419	-0.185215
C62	C	0.788928	-0.598976	-0.218613
C63	C	0.755479	-0.622449	-0.252018
C64	C	0.688580	-0.669391	-0.318836
C65	C	0.688568	-0.622470	-0.318829
C66	C	0.722020	-0.598998	-0.285422
C67	C	0.721993	-0.552090	-0.285409
N68	N	0.755446	-0.528615	-0.252007
C69	C	0.788914	-0.552058	-0.218609
C70	C	0.722141	-0.979039	-0.285457
C71	C	0.722156	-1.025957	-0.285461
C72	C	0.789079	-1.025925	-0.218658
C73	C	0.789062	-0.979007	-0.218652
C74	C	0.755595	-0.955565	-0.252055
C75	C	0.788872	-0.453533	-0.218597
C76	C	0.788849	-0.406613	-0.218592
C77	C	0.721928	-0.406649	-0.285396
C78	C	0.721949	-0.453564	-0.285400
C79	C	0.755425	-0.477005	-0.251999
O80	O	0.693533	-0.527802	-0.313784
O81	O	0.817366	-0.527777	-0.190207
C82	C	0.788984	-0.739723	-0.218633
C83	C	0.755535	-0.763195	-0.252038
C84	C	0.722067	-0.739752	-0.285436
C85	C	0.755549	-0.810113	-0.252042
C86	C	0.789017	-0.833556	-0.218644
C87	C	0.822470	-0.810081	-0.185242
C88	C	0.822451	-0.763166	-0.185235
C89	C	0.688614	-0.763227	-0.318838
C90	C	0.688635	-0.810143	-0.318841
C91	C	0.722102	-0.833585	-0.285443
C92	C	0.891841	-0.216531	-0.252045
C93	C	0.949955	-0.216539	-0.252060
C94	C	0.755485	-0.216505	-0.388382
C95	C	0.755492	-0.216502	-0.446496
C96	C	0.755577	-0.099335	-0.252047
C97	C	0.755624	-0.049400	-0.252063
C98	C	0.789002	-0.187687	-0.806883
C99	C	0.789008	-0.187675	-0.861488
O100	O	0.817457	-0.163229	-0.889744
N101	N	0.755550	-0.216396	-0.888779
C102	C	0.722079	-0.245129	-0.861463
O103	O	0.693621	-0.269558	-0.889691
C104	C	0.722071	-0.245139	-0.806860
C105	C	0.755535	-0.216419	-0.779571
C106	C	0.822463	-0.158969	-0.779594
C107	C	0.822457	-0.158982	-0.724994
C108	C	0.788990	-0.187714	-0.697682
C109	C	0.755529	-0.216432	-0.724971
C110	C	0.688598	-0.273869	-0.779545
C111	C	0.688592	-0.273876	-0.724938
C112	C	0.722056	-0.245156	-0.697650
C113	C	0.722056	-0.245176	-0.643058
N114	N	0.755514	-0.216455	-0.615767
C115	C	0.788981	-0.187723	-0.643079
C116	C	0.722100	-0.245106	-0.976134
C117	C	0.722110	-0.245099	-1.030736
C118	C	0.789039	-0.187644	-1.030757
C119	C	0.789030	-0.187653	-0.976153
C120	C	0.755558	-0.216384	-0.948843
C121	C	0.788967	-0.187753	-0.528414
C122	C	0.788959	-0.187770	-0.473808
C123	C	0.722029	-0.245223	-0.473793
C124	C	0.722038	-0.245208	-0.528393
C125	C	0.755509	-0.216470	-0.555702
O126	O	0.693620	-0.269609	-0.614767
O127	O	0.817430	-0.163295	-0.614845
C128	C	0.755482	-0.216488	-0.116167
C129	C	0.755576	-0.216365	-0.058053
H130	H	0.054089	-0.164324	-0.191493
H131	H	0.694677	-0.387554	-0.312587
H132	H	0.816301	-0.959898	-0.191448
N133	N	0.823268	-1.049869	-0.184537
N134	N	0.819840	-1.044653	-0.136287
H135	H	0.843987	-1.061564	-0.112192
N136	N	0.823209	-0.158320	-0.948273
N137	N	0.856508	-0.174133	-0.917808
H138	H	0.880647	-0.153415	-0.898118
H139	H	-0.044978	-0.268742	-0.312615
H140	H	0.849706	-0.135594	-0.702780
N141	N	0.823215	-0.158291	-1.058669
N142	N	0.804842	-0.129658	-1.089137
H143	H	0.828977	-0.108929	-1.108852
N144	N	0.687784	-0.477542	-0.319530
N145	N	0.706170	-0.503688	-0.352875
H146	H	0.682045	-0.520619	-0.376985
N147	N	0.451710	-0.158345	-0.184517
N148	N	0.421209	-0.174108	-0.151172
H149	H	0.401511	-0.153353	-0.127097
N150	N	0.687918	-0.274466	-0.948238
N151	N	0.706282	-0.303105	-0.917772
H152	H	0.682142	-0.323840	-0.898073
N153	N	0.856649	-0.834033	-0.151119
N154	N	0.838282	-0.860242	-0.117789
H155	H	0.862420	-0.877161	-0.093691
H156	H	0.694866	-0.268490	-1.052950
N157	N	0.654381	-0.598532	-0.352958
N158	N	0.624521	-0.619499	-0.382782
H159	H	0.600376	-0.602595	-0.406885
N160	N	0.654420	-0.303218	-0.807403
N161	N	0.624548	-0.328868	-0.783000
H162	H	0.600410	-0.349600	-0.802673
H163	H	0.816220	-0.164350	-0.550642
H164	H	0.694794	-0.268599	-0.550613
N165	N	0.200575	-0.129568	-0.151186
N166	N	0.224969	-0.103880	-0.121391
H167	H	0.205289	-0.083118	-0.097309
N168	N	0.654393	-0.303225	-0.697050
N169	N	0.624518	-0.328862	-0.721426
H170	H	0.600365	-0.349590	-0.701731
H171	H	0.694783	-0.268617	-0.451545
H172	H	0.556445	-0.164298	-0.191419
N173	N	-0.050610	-0.158370	-0.184587
N174	N	-0.044475	-0.116920	-0.188143
H175	H	-0.064157	-0.096156	-0.164065
N176	N	0.562086	-0.274673	-0.319441
N177	N	0.537698	-0.300362	-0.349240
H178	H	0.557383	-0.321125	-0.373317
H179	H	0.849637	-0.603311	-0.158013
N180	N	0.451732	-0.274674	-0.319472
N181	N	0.476121	-0.300359	-0.349261
H182	H	0.456437	-0.321122	-0.373349
N183	N	0.823021	-0.382644	-0.184459
N184	N	0.852900	-0.403585	-0.154643
H185	H	0.877034	-0.386658	-0.130537
N186	N	0.310928	-0.129555	-0.151184
N187	N	0.286544	-0.103866	-0.121395
H188	H	0.306231	-0.083098	-0.097316
H189	H	0.816133	-0.472612	-0.191400
N190	N	0.856653	-0.129613	-0.807479
N191	N	0.886522	-0.103976	-0.783097
H192	H	0.910673	-0.083242	-0.802787
N193	N	0.654419	-0.739283	-0.352947
N194	N	0.621102	-0.713139	-0.334513
H195	H	0.596949	-0.696229	-0.358604
H196	H	0.305256	-0.297494	-0.345945
H197	H	0.206210	-0.297497	-0.345962
N198	N	0.059739	-0.274705	-0.319519
N199	N	0.035349	-0.300396	-0.349315
H200	H	0.055032	-0.321159	-0.373393
N201	N	0.856610	-0.693269	-0.151103
N202	N	0.886471	-0.672297	-0.121285
H203	H	0.910622	-0.689198	-0.097184
N204	N	0.856624	-0.739200	-0.151105
N205	N	0.886500	-0.760144	-0.121290
H206	H	0.910636	-0.743221	-0.097184
N207	N	0.687974	-1.049924	-0.319581
N208	N	0.658096	-1.028981	-0.349396
H209	H	0.633955	-1.045906	-0.373496
H210	H	0.694887	-0.959956	-0.312658
H211	H	0.661390	-0.829250	-0.346045
H212	H	0.661337	-0.688495	-0.346038
H213	H	0.816212	-0.164382	-0.451592
