data_functionalizedCrystal
_audit_creation_method	'MofGen! by Chris Wilmer'
_symmetry_space_group_name_H-M	'P1'
_symmetry_Int_Tables_number	1
_symmetry_cell_setting	triclinic
loop_
_symmetry_equiv_pos_as_xyz
  x,y,z
_cell_length_a	18.101398
_cell_length_b	18.101395
_cell_length_c	19.076919
_cell_angle_alpha	92.272317
_cell_angle_beta	92.290393
_cell_angle_gamma	90.026661
loop_
_atom_site_label
_atom_site_type_symbol
_atom_site_fract_x
_atom_site_fract_y
_atom_site_fract_z
Zn1	Zn	1.115288	-0.311748	-0.397786
Zn2	Zn	1.448621	0.021586	-0.064453
Zn3	Zn	1.781955	0.354919	0.268881
Zn4	Zn	1.120164	-0.430617	-0.280094
Zn5	Zn	1.453497	-0.097284	0.053239
Zn6	Zn	1.786831	0.236050	0.386573
Zn7	Zn	0.996426	-0.306785	-0.280123
Zn8	Zn	1.329759	0.026548	0.053210
Zn9	Zn	1.663093	0.359881	0.386543
Zn10	Zn	0.991398	-0.435542	-0.397769
Zn11	Zn	1.324732	-0.102208	-0.064436
Zn12	Zn	1.658065	0.231125	0.268898
O13	O	1.055819	-0.371173	-0.338943
O14	O	1.389152	-0.037840	-0.005610
O15	O	1.722486	0.295494	0.327724
O16	O	1.219568	-0.327532	-0.382169
O17	O	1.552901	0.005802	-0.048836
O18	O	1.886235	0.339135	0.284498
O19	O	1.107895	-0.410053	-0.181608
O20	O	1.441228	-0.076719	0.151725
O21	O	1.774561	0.256614	0.485059
O22	O	1.012257	-0.203812	-0.295751
O23	O	1.345590	0.129522	0.037582
O24	O	1.678923	0.462855	0.370916
O25	O	1.223150	-0.414864	-0.295701
O26	O	1.556484	-0.081531	0.037632
O27	O	1.889817	0.251802	0.370966
O28	O	1.099584	-0.207457	-0.382197
O29	O	1.432917	0.125876	-0.048864
O30	O	1.766251	0.459209	0.284469
O31	O	1.016985	-0.319074	-0.181630
O32	O	1.350318	0.014259	0.151704
O33	O	1.683652	0.347593	0.485037
O34	O	0.892126	-0.323849	-0.295734
O35	O	1.225459	0.009484	0.037599
O36	O	1.558793	0.342817	0.370932
O37	O	1.003688	-0.423258	-0.496261
O38	O	1.337021	-0.089925	-0.162928
O39	O	1.670354	0.243409	0.170406
O40	O	0.888432	-0.418446	-0.382168
O41	O	1.221766	-0.085113	-0.048835
O42	O	1.555099	0.248221	0.284499
O43	O	1.094709	-0.332307	-0.496274
O44	O	1.428042	0.001026	-0.162940
O45	O	1.761376	0.334360	0.170393
O46	O	1.103020	-0.534902	-0.295684
O47	O	1.436353	-0.201569	0.037649
O48	O	1.769686	0.131764	0.370982
O49	O	1.008416	-0.538520	-0.382140
O50	O	1.341749	-0.205187	-0.048806
O51	O	1.675083	0.128146	0.284527
C52	C	0.863408	-0.371144	-0.338953
C53	C	1.196742	-0.037811	-0.005620
C54	C	1.530075	0.295522	0.327714
C55	C	0.781093	-0.371151	-0.338974
C56	C	1.114427	-0.037817	-0.005640
C57	C	1.447760	0.295516	0.327693
C58	C	1.055721	-0.563583	-0.338922
C59	C	1.389054	-0.230249	-0.005589
C60	C	1.722388	0.103084	0.327744
C61	C	1.055746	-0.645897	-0.338937
C62	C	1.389079	-0.312564	-0.005604
C63	C	1.722412	0.020769	0.327730
C64	C	0.482003	-0.371193	-0.338944
C65	C	0.815337	-0.037859	-0.005611
C66	C	1.148670	0.295474	0.327722
C67	C	0.511041	-0.430976	-0.393058
C68	C	0.844374	-0.097642	-0.059724
C69	C	1.177707	0.235691	0.273609
C70	C	0.596650	-0.430805	-0.393280
C71	C	0.929983	-0.097472	-0.059947
C72	C	1.263316	0.235861	0.273386
C73	C	0.630385	-0.371172	-0.338959
C74	C	0.963719	-0.037839	-0.005626
C75	C	1.297052	0.295494	0.327708
C76	C	0.598473	-0.294027	-0.359226
C77	C	0.931807	0.039306	-0.025893
C78	C	1.265140	0.372639	0.307440
C79	C	0.512812	-0.294389	-0.359611
C80	C	0.846145	0.038944	-0.026278
C81	C	1.179479	0.372278	0.307056
C82	C	0.516704	-0.387862	-0.264433
C83	C	0.850037	-0.054528	0.068900
C84	C	1.183371	0.278805	0.402233
C85	C	0.602337	-0.389590	-0.264831
C86	C	0.935670	-0.056257	0.068502
C87	C	1.269004	0.277077	0.401835
C88	C	0.714245	-0.371156	-0.338966
C89	C	1.047578	-0.037823	-0.005633
C90	C	1.380911	0.295511	0.327701
C91	C	0.398144	-0.371204	-0.338939
C92	C	0.731478	-0.037871	-0.005606
C93	C	1.064811	0.295463	0.327728
C94	C	1.055907	-0.944990	-0.338975
C95	C	1.389240	-0.611657	-0.005642
C96	C	1.722573	-0.278323	0.327692
C97	C	0.996511	-0.915978	-0.393505
C98	C	1.329845	-0.582644	-0.060172
C99	C	1.663178	-0.249311	0.273161
C100	C	0.996247	-0.830353	-0.393335
C101	C	1.329581	-0.497019	-0.060001
C102	C	1.662914	-0.163686	0.273332
C103	C	1.055827	-0.796607	-0.338957
C104	C	1.389160	-0.463273	-0.005623
C105	C	1.722493	-0.129940	0.327710
C106	C	1.037836	-0.824618	-0.264784
C107	C	1.371170	-0.491285	0.068549
C108	C	1.704503	-0.157952	0.401883
C109	C	1.037454	-0.910277	-0.265110
C110	C	1.370788	-0.576944	0.068223
C111	C	1.704121	-0.243611	0.401556
C112	C	1.133445	-0.914143	-0.357964
C113	C	1.466778	-0.580810	-0.024631
C114	C	1.800111	-0.247476	0.308702
C115	C	1.132915	-0.828561	-0.359591
C116	C	1.466248	-0.495227	-0.026258
C117	C	1.799582	-0.161894	0.307075
C118	C	1.055783	-0.712746	-0.338942
C119	C	1.389116	-0.379413	-0.005609
C120	C	1.722450	-0.046080	0.327725
C121	C	1.055949	-1.028850	-0.338985
C122	C	1.389282	-0.695516	-0.005651
C123	C	1.722615	-0.362183	0.327682
C124	C	1.248981	-0.371202	-0.338934
C125	C	1.582315	-0.037869	-0.005600
C126	C	1.915648	0.295464	0.327733
C127	C	1.331296	-0.371215	-0.338930
C128	C	1.664629	-0.037881	-0.005596
C129	C	1.997962	0.295452	0.327737
C130	C	1.048094	-0.378885	-0.522519
C131	C	1.381427	-0.045552	-0.189185
C132	C	1.714760	0.287781	0.144148
C133	C	1.044801	-0.382172	-0.600748
C134	C	1.378135	-0.048839	-0.267414
C135	C	1.711468	0.284495	0.065919
C136	C	1.055937	-0.178013	-0.338979
C137	C	1.389271	0.155321	-0.005646
C138	C	1.722604	0.488654	0.327687
C139	C	1.055988	-0.095699	-0.338995
C140	C	1.389321	0.237634	-0.005661
C141	C	1.722654	0.570968	0.327672
C142	C	1.090642	-0.336365	-0.637507
C143	C	1.423976	-0.003032	-0.304174
C144	C	1.757309	0.330302	0.029159
C145	C	1.087540	-0.339450	-0.711012
C146	C	1.420873	-0.006117	-0.377679
C147	C	1.754207	0.327216	-0.044345
C148	C	1.038600	-0.388347	-0.747755
C149	C	1.371933	-0.055014	-0.414422
C150	C	1.705267	0.278320	-0.081088
C151	C	0.992754	-0.434156	-0.710990
C152	C	1.326088	-0.100822	-0.377657
C153	C	1.659421	0.232511	-0.044323
C154	C	0.995853	-0.431066	-0.637487
C155	C	1.329187	-0.097733	-0.304154
C156	C	1.662520	0.235600	0.029180
C157	C	1.024246	-0.402661	-0.967585
C158	C	1.357580	-0.069328	-0.634252
C159	C	1.690913	0.264006	-0.300918
C160	C	1.021152	-0.405749	-1.041093
C161	C	1.354485	-0.072415	-0.707760
C162	C	1.687819	0.260918	-0.374427
C163	C	1.115937	-0.311042	-1.041110
C164	C	1.449270	0.022291	-0.707777
C165	C	1.782604	0.355625	-0.374443
C166	C	1.119035	-0.307960	-0.967605
C167	C	1.452368	0.025373	-0.634272
C168	C	1.785702	0.358707	-0.300939
C169	C	1.073187	-0.353766	-0.930847
C170	C	1.406520	-0.020433	-0.597514
C171	C	1.739853	0.312901	-0.264180
N172	N	1.035429	-0.391503	-0.822888
N173	N	1.368763	-0.058170	-0.489555
N174	N	1.702096	0.275163	-0.156222
N175	N	1.076354	-0.350605	-0.855715
N176	N	1.409687	-0.017272	-0.522382
N177	N	1.743021	0.316061	-0.189048
C178	C	1.063557	-0.363437	-0.156082
C179	C	1.396891	-0.030104	0.177252
C180	C	1.730224	0.303230	0.510585
C181	C	1.066993	-0.359942	-0.077853
C182	C	1.400326	-0.026608	0.255480
C183	C	1.733659	0.306725	0.588814
H184	H	0.618182	-0.488111	-0.380578
H185	H	0.951516	-0.154778	-0.047245
H186	H	1.284849	0.178556	0.286089
F187	F	0.963492	-0.935582	-0.244083
F188	F	1.296825	-0.602248	0.089250
F189	F	1.630159	-0.268915	0.422583
F190	F	0.627204	-0.234404	-0.309320
F191	F	0.960537	0.098929	0.024013
F192	F	1.293870	0.432262	0.357347
H193	H	0.981868	-0.802536	-0.248408
H194	H	1.315202	-0.469203	0.084925
H195	H	1.648535	-0.135870	0.418259
H196	H	0.952904	-0.473966	-0.740912
H197	H	1.286237	-0.140632	-0.407579
H198	H	1.619570	0.192701	-0.074246
F199	F	0.492454	-0.330897	-0.211732
F200	F	0.825787	0.002437	0.121601
F201	F	1.159120	0.335770	0.454935
H202	H	0.495870	-0.442989	-0.246015
H203	H	0.829203	-0.109656	0.087319
H204	H	1.162536	0.223678	0.420652
H205	H	1.146539	-0.810508	-0.414178
H206	H	1.479872	-0.477175	-0.080845
H207	H	1.813205	-0.143842	0.252488
H208	H	1.124870	-0.302151	-0.740938
H209	H	1.458203	0.031182	-0.407605
H210	H	1.791537	0.364516	-0.074272
F211	F	1.092782	-0.795691	-0.210229
F212	F	1.426115	-0.462357	0.123104
F213	F	1.759448	-0.129024	0.456438
H214	H	0.986924	-0.439971	-0.937665
H215	H	1.320257	-0.106637	-0.604332
H216	H	1.653591	0.226696	-0.270998
F217	F	0.620398	-0.416716	-0.465441
F218	F	0.953731	-0.083382	-0.132108
F219	F	1.287064	0.249951	0.201226
F220	F	1.171124	-0.255918	-0.928506
F221	F	1.504457	0.077416	-0.595172
F222	F	1.837791	0.410749	-0.261839
H223	H	1.079009	-0.929220	-0.223096
H224	H	1.412342	-0.595887	0.110237
H225	H	1.745675	-0.262553	0.443570
H226	H	1.153263	-0.273748	-1.071047
H227	H	1.486597	0.059585	-0.737713
H228	H	1.819930	0.392918	-0.404380
F229	F	1.142735	-0.284326	-0.598409
F230	F	1.476068	0.049008	-0.265076
F231	F	1.809402	0.382341	0.068258
H232	H	1.177658	-0.932716	-0.318248
H233	H	1.510991	-0.599383	0.015086
H234	H	1.844324	-0.266049	0.348419
H235	H	0.939321	-0.937034	-0.381086
H236	H	1.272655	-0.603701	-0.047753
H237	H	1.605988	-0.270368	0.285581
H238	H	0.981297	-0.445568	-1.071008
H239	H	1.314630	-0.112235	-0.737674
H240	H	1.647964	0.221099	-0.404341
H241	H	0.490957	-0.488476	-0.380498
H242	H	0.824290	-0.155143	-0.047164
H243	H	1.157624	0.178190	0.286169
F244	F	0.479877	-0.417100	-0.464800
F245	F	0.813210	-0.083766	-0.131467
F246	F	1.146543	0.249567	0.201867
H247	H	0.490546	-0.279882	-0.414082
H248	H	0.823879	0.053452	-0.080749
H249	H	1.157212	0.386785	0.252585
F250	F	0.487809	-0.234416	-0.310343
F251	F	0.821143	0.098917	0.022991
F252	F	1.154476	0.432250	0.356324
H253	H	1.179257	-0.805594	-0.322768
H254	H	1.512590	-0.472261	0.010565
H255	H	1.845923	-0.138927	0.343899
F256	F	1.155684	-0.945249	-0.427454
F257	F	1.489017	-0.611915	-0.094121
F258	F	1.822351	-0.278582	0.239212
H259	H	0.958517	-0.468360	-0.607558
H260	H	1.291851	-0.135026	-0.274225
H261	H	1.625184	0.198307	0.059109
H262	H	0.617658	-0.279192	-0.413105
H263	H	0.950991	0.054142	-0.079772
H264	H	1.284325	0.387475	0.253562
H265	H	1.007265	-0.938861	-0.448682
H266	H	1.340598	-0.605527	-0.115349
H267	H	1.673931	-0.272194	0.217985
F268	F	0.629710	-0.463774	-0.244855
F269	F	0.963043	-0.130441	0.088478
F270	F	1.296376	0.202892	0.421811
F271	F	0.632653	-0.336478	-0.209300
F272	F	0.965987	-0.003145	0.124033
F273	F	1.299320	0.330189	0.457366
F274	F	1.010482	-0.805861	-0.465222
F275	F	1.343815	-0.472527	-0.131889
F276	F	1.677149	-0.139194	0.201444
H277	H	0.938711	-0.809393	-0.380757
H278	H	1.272044	-0.476059	-0.047424
H279	H	1.605378	-0.142726	0.285909
