data_functionalizedCrystal
_audit_creation_method	'MofGen! by Chris Wilmer'
_symmetry_space_group_name_H-M	'P1'
_symmetry_Int_Tables_number	1
_symmetry_cell_setting	triclinic
loop_
_symmetry_equiv_pos_as_xyz
  x,y,z
_cell_length_a	17.077404
_cell_length_b	19.121449
_cell_length_c	17.077396
_cell_angle_alpha	92.468915
_cell_angle_beta	90.021444
_cell_angle_gamma	87.583306
loop_
_atom_site_label
_atom_site_type_symbol
_atom_site_fract_x
_atom_site_fract_y
_atom_site_fract_z
Zn1	Zn	1.213368	-0.279643	0.430556
Zn2	Zn	1.218867	-0.397098	0.293692
Zn3	Zn	1.082101	-0.279663	0.299298
Zn4	Zn	1.087657	-0.397052	0.424913
O5	O	1.150498	-0.338364	0.362115
O6	O	1.323945	-0.295234	0.412415
O7	O	1.200700	-0.381548	0.184587
O8	O	1.094887	-0.181377	0.321417
O9	O	1.327985	-0.381528	0.311862
O10	O	1.191328	-0.181362	0.417852
O11	O	1.100219	-0.295269	0.188706
O12	O	0.972990	-0.295225	0.315946
O13	O	1.104357	-0.381450	0.535510
O14	O	0.977073	-0.381470	0.408235
O15	O	1.196716	-0.295190	0.539655
O16	O	1.206088	-0.495375	0.306391
O17	O	1.109689	-0.495341	0.402798
C18	C	0.946549	-0.338345	0.362087
C19	C	0.859300	-0.338354	0.362093
C20	C	0.481384	-0.293531	0.414577
C21	C	0.563365	-0.293526	0.414568
C22	C	0.606452	-0.338379	0.362134
C23	C	0.567556	-0.383245	0.309709
C24	C	0.485578	-0.383253	0.309722
C25	C	0.738425	-0.383224	0.309685
C26	C	0.820409	-0.383215	0.309671
C27	C	0.816212	-0.293497	0.414531
C28	C	0.734234	-0.293505	0.414544
C29	C	0.695343	-0.338370	0.362119
C30	C	1.159110	-0.520842	0.353391
C31	C	1.162866	-0.598907	0.349685
C32	C	1.114406	-0.635590	0.398097
C33	C	1.117939	-0.708940	0.394612
C34	C	1.169935	-0.745606	0.342718
C35	C	1.218397	-0.708918	0.294301
C36	C	1.214860	-0.635569	0.297783
C37	C	1.183124	-0.967072	0.329693
C38	C	1.186659	-1.040426	0.326217
C39	C	1.086199	-1.040443	0.426527
C40	C	1.082670	-0.967093	0.430007
C41	C	1.131129	-0.930411	0.381587
C42	C	1.173549	-0.820582	0.339157
C43	C	1.127511	-0.855437	0.385146
C44	C	1.355243	-0.338384	0.362143
C45	C	1.442494	-0.338392	0.362155
C46	C	1.150543	-0.338312	0.566861
C47	C	1.150562	-0.338290	0.654112
C48	C	1.141874	-0.155174	0.370889
C49	C	1.138199	-0.077109	0.374629
C50	C	1.150496	-0.338365	0.158167
C51	C	1.150620	-0.338189	0.070926
C52	C	1.198655	-0.293371	0.697263
C53	C	1.198664	-0.293347	0.779244
C54	C	1.150583	-0.338248	0.818074
C55	C	1.102484	-0.383169	0.774918
C56	C	1.102472	-0.383188	0.692938
C57	C	1.102514	-0.383127	0.945790
C58	C	1.102527	-0.383109	1.027776
C59	C	1.198705	-0.293286	1.032096
C60	C	1.198693	-0.293305	0.950116
C61	C	1.150596	-0.338228	0.906966
H62	H	0.595026	-0.256998	0.457258
H63	H	1.237850	-0.256747	0.918503
H64	H	1.237828	-0.256771	0.814374
F65	F	1.072172	-0.816413	0.440371
H66	H	0.446308	-0.257002	0.457271
H67	H	1.237867	-0.256707	1.067233
H68	H	1.063373	-0.419669	1.059388
H69	H	0.602645	-0.419768	0.267019
H70	H	1.215885	-0.850443	0.296905
F71	F	1.051321	-0.430937	0.899868
F72	F	1.051309	-0.430953	0.816246
H73	H	1.046746	-1.070317	0.465947
F74	F	1.051283	-0.430996	0.647015
H75	H	0.699153	-0.256978	0.457238
H76	H	0.706763	-0.419761	0.266998
H77	H	1.040331	-0.937241	0.472263
F78	F	1.242003	-1.079447	0.270982
F79	F	0.444188	-0.431005	0.253932
H80	H	1.222582	-0.937211	0.290269
H81	H	1.072069	-0.605741	0.440358
F82	F	0.866266	-0.430968	0.253881
F83	F	0.857603	-0.245744	0.470324
F84	F	1.066368	-0.747978	0.446145
H85	H	1.260730	-0.738777	0.252045
H86	H	1.254320	-0.605702	0.258360
F87	F	1.249835	-0.245585	0.655944
