data_functionalizedCrystal
_audit_creation_method	'MofGen! by Chris Wilmer'
_symmetry_space_group_name_H-M	'P1'
_symmetry_Int_Tables_number	1
_symmetry_cell_setting	triclinic
loop_
_symmetry_equiv_pos_as_xyz
  x,y,z
_cell_length_a	14.809374
_cell_length_b	20.875492
_cell_length_c	14.809374
_cell_angle_alpha	65.493224
_cell_angle_beta	81.157713
_cell_angle_gamma	53.089510
loop_
_atom_site_label
_atom_site_type_symbol
_atom_site_fract_x
_atom_site_fract_y
_atom_site_fract_z
Zr1	Zr	0.859956	0.695083	-0.276247
O2	O	0.718303	0.816562	-0.395613
O3	O	0.909937	0.560870	-0.234109
O4	O	0.921827	0.672232	-0.414822
O5	O	0.689575	0.727667	-0.078659
O6	O	1.074911	0.668693	-0.436284
O7	O	0.706413	0.705200	-0.214900
O8	O	1.053642	0.469487	-0.113021
O9	O	0.710844	0.926872	-0.401923
O10	O	1.037576	0.618150	-0.238855
O11	O	0.910765	0.637557	-0.121164
O12	O	0.924764	0.768671	-0.333931
O13	O	0.797953	0.788079	-0.216239
Zr14	Zr	1.077252	0.725271	-0.093189
Zr15	Zr	1.104107	0.689439	-0.310477
Zr16	Zr	0.833101	0.730915	-0.058959
Zr17	Zr	0.848059	0.871016	-0.286310
Zr18	Zr	1.089149	0.549338	-0.083126
O19	O	1.027270	0.859484	-0.135327
O20	O	1.065455	0.808536	-0.444283
O21	O	0.680119	0.867510	-0.086658
O22	O	1.218905	0.603793	0.026177
O23	O	1.257089	0.552844	-0.282778
O24	O	0.871753	0.611818	0.074847
O25	O	1.247633	0.692687	-0.290777
O26	O	1.015381	0.748122	0.045386
O27	O	0.862297	0.751662	0.066848
O28	O	1.230794	0.715154	-0.154536
O29	O	0.904912	0.922386	-0.429131
O30	O	1.032296	0.497969	0.059694
O31	O	1.226364	0.493482	0.032487
O32	O	1.247710	0.465000	-0.140228
O33	O	0.689498	0.955354	-0.229208
O34	O	0.883565	0.950867	-0.256416
O35	O	1.012444	0.651683	-0.035506
O36	O	1.139255	0.632275	-0.153197
O37	O	1.026443	0.782797	-0.248273
O38	O	0.899632	0.802205	-0.130581
C39	C	0.983485	0.490112	-0.172131
C40	C	0.988535	0.415424	-0.167859
C41	C	0.911737	0.430698	-0.232577
C42	C	0.916489	0.360528	-0.228600
C43	C	0.998036	0.275085	-0.159899
C44	C	1.074842	0.259812	-0.095178
C45	C	1.070094	0.329980	-0.099161
C46	C	1.020731	0.059826	-0.140839
C47	C	1.025471	-0.010344	-0.136859
C48	C	0.867119	0.090377	-0.270283
C49	C	0.862373	0.160543	-0.274255
C50	C	0.939184	0.145264	-0.209538
N51	N	1.002893	0.203359	-0.155830
N52	N	0.934330	0.216988	-0.213613
C53	C	0.663208	0.717238	-0.141902
C54	C	0.559559	0.719634	-0.127371
C55	C	0.522165	0.708940	-0.192222
C56	C	0.415039	0.711416	-0.177205
C57	C	1.274000	0.703117	-0.227534
C58	C	1.377649	0.700720	-0.242065
C59	C	1.002195	0.665357	-0.456512
C60	C	1.013596	0.650145	-0.548757
C61	C	0.953723	0.930242	-0.197305
C62	C	0.948672	1.004930	-0.201577
C63	C	0.962716	0.718033	-0.637046
C64	C	0.974498	0.702312	-0.732387
C65	C	0.935012	0.754997	0.087076
C66	C	0.923612	0.770209	0.179321
C67	C	1.288881	0.483051	-0.214947
C68	C	1.397580	0.405967	-0.225206
C69	C	0.949893	0.534932	0.099663
C70	C	0.943543	0.475456	0.196180
C71	C	1.255289	0.527872	0.056848
C72	C	1.352588	0.465999	0.138833
C73	C	0.681918	0.892483	-0.426284
C74	C	0.584620	0.954355	-0.508269
C75	C	0.648327	0.937303	-0.154490
C76	C	0.539628	1.014387	-0.144230
C77	C	0.987314	0.885422	-0.469099
C78	C	0.993665	0.944899	-0.565616
C79	C	1.395552	0.362393	-0.274745
C80	C	1.497679	0.289970	-0.284405
C81	C	1.601832	0.261120	-0.244517
C82	C	1.603857	0.304702	-0.194976
C83	C	1.501732	0.377126	-0.185324
C84	C	0.993635	0.454900	0.286227
C85	C	0.987662	0.399026	0.376922
C86	C	0.931604	0.363705	0.377568
C87	C	0.881506	0.384267	0.287512
C88	C	0.887472	0.440144	0.196819
C89	C	1.464484	0.426812	0.115899
C90	C	1.555916	0.368684	0.192922
C91	C	1.535449	0.349739	0.292880
C92	C	1.423541	0.388933	0.315813
C93	C	1.332111	0.447065	0.238790
C94	C	0.472723	0.993551	-0.485335
C95	C	0.381289	1.051701	-0.562360
C96	C	0.401756	1.070649	-0.662318
C97	C	0.513665	1.031450	-0.685251
C98	C	0.605095	0.973307	-0.608227
C99	C	0.541656	1.057968	-0.094700
C100	C	0.439531	1.130405	-0.085066
C101	C	0.335378	1.159258	-0.124956
C102	C	0.333353	1.115673	-0.174493
C103	C	0.435477	1.043241	-0.184133
C104	C	1.049732	0.980203	-0.566230
C105	C	1.055720	1.036079	-0.656911
C106	C	1.005634	1.056655	-0.746977
C107	C	0.949565	1.021344	-0.746361
C108	C	0.943584	0.965464	-0.655681
H109	H	0.804586	0.102808	-0.322973
H110	H	0.248538	1.139176	-0.206969
C111	C	1.068716	1.073553	-0.909099
C112	C	1.012209	1.118084	-0.846650
H113	H	1.072780	1.111478	-0.970626
H114	H	1.028152	1.055482	-0.921630
H115	H	1.143546	1.023505	-0.877396
H116	H	0.937376	1.168128	-0.878350
H117	H	1.052771	1.136167	-0.834120
H118	H	1.101375	1.064825	-0.657394
H119	H	0.456037	0.978127	-0.403950
H120	H	0.441202	1.165881	-0.044725
H121	H	1.647030	0.336776	0.174232
C122	C	1.087717	0.901089	-0.387501
C123	C	1.104798	0.957591	-0.467237
H124	H	1.121714	0.887135	-0.326390
H125	H	1.121506	0.848783	-0.396352
H126	H	1.008345	0.929039	-0.385676
H127	H	1.184171	0.929638	-0.469066
H128	H	1.071013	1.009906	-0.458383
H129	H	1.503398	0.412597	-0.144978
C130	C	0.749189	0.553552	0.050816
C131	C	0.832419	0.462725	0.097840
H132	H	0.715197	0.567487	-0.010285
H133	H	0.783426	0.582582	0.037443
H134	H	0.692489	0.572183	0.093396
H135	H	0.889124	0.444095	0.055263
H136	H	0.798182	0.433685	0.111210
C137	C	0.550785	0.743882	0.019688
C138	C	0.495725	0.734468	-0.037406
H139	H	0.511380	0.753035	0.075233
H140	H	0.551480	0.792759	-0.020464
H141	H	0.626832	0.692227	0.043028
H142	H	0.419679	0.786126	-0.060752
H143	H	0.495018	0.685587	0.002753
C144	C	0.755701	0.523198	-0.364068
C145	C	0.822100	0.524615	-0.308099
H146	H	0.700369	0.581178	-0.410698
H147	H	0.718500	0.500210	-0.320441
H148	H	0.803205	0.487255	-0.399035
H149	H	0.774597	0.560554	-0.273126
H150	H	0.859303	0.547615	-0.351732
C151	C	1.099484	-0.108261	0.036032
C152	C	1.115109	-0.104269	-0.061336
H153	H	1.154821	-0.166244	0.082654
H154	H	1.025389	-0.092593	0.048568
H155	H	1.107663	-0.068660	0.042912
H156	H	1.106922	-0.143865	-0.068219
H157	H	1.189222	-0.119947	-0.073876
C158	C	0.740394	0.910389	-0.867277
C159	C	0.853021	0.864393	-0.827464
H160	H	0.696818	0.968535	-0.871471
H161	H	0.708910	0.881670	-0.825139
H162	H	0.739070	0.912166	-0.932232
H163	H	0.854345	0.862610	-0.762506
H164	H	0.884513	0.893120	-0.869603
C165	C	0.535254	0.686294	-0.329496
C166	C	0.441484	0.685878	-0.332031
H167	H	0.574659	0.677134	-0.385039
H168	H	0.585016	0.640754	-0.269123
H169	H	0.509674	0.741284	-0.332623
H170	H	0.467065	0.630885	-0.328897
H171	H	0.391713	0.731421	-0.392419
C172	C	1.268754	0.326484	-0.273957
C173	C	1.281076	0.394096	-0.318600
H174	H	1.198087	0.346055	-0.301043
H175	H	1.270511	0.310429	-0.203774
H176	H	1.329302	0.277119	-0.286796
H177	H	1.220532	0.443460	-0.305755
H178	H	1.279309	0.410163	-0.388800
H179	H	0.252230	1.218238	-0.117100
C180	C	1.097921	0.463892	0.383738
C181	C	1.055238	0.493733	0.285537
H182	H	1.135939	0.487875	0.383317
H183	H	1.149978	0.401668	0.411910
H184	H	1.036787	0.481909	0.422580
H185	H	1.116373	0.475710	0.246696
H186	H	1.003177	0.555971	0.257351
H187	H	0.908787	1.038106	-0.819705
H188	H	0.897924	0.936725	-0.655194
H189	H	0.433810	1.007759	-0.224462
H190	H	1.083275	0.047374	-0.088142
C191	C	1.552978	0.370071	-0.009227
C192	C	1.486947	0.447596	0.006017
H193	H	1.566840	0.382894	-0.077065
H194	H	1.513427	0.344882	0.005698
H195	H	1.623460	0.329867	0.033339
H196	H	1.416461	0.487798	-0.036544
H197	H	1.526497	0.472798	-0.008919
C198	C	0.706335	0.253050	-0.405748
C199	C	0.772739	0.254461	-0.349778
H200	H	0.651001	0.311031	-0.452374
H201	H	0.669135	0.230060	-0.362121
H202	H	0.753835	0.217110	-0.440720
H203	H	0.725240	0.290396	-0.314800
H204	H	0.809941	0.277463	-0.393411
C205	C	1.738494	0.255436	0.336287
C206	C	1.635960	0.285831	0.377539
H207	H	1.800546	0.215976	0.388551
H208	H	1.739617	0.303726	0.293957
H209	H	1.744863	0.225979	0.298391
H210	H	1.629587	0.315294	0.415430
H211	H	1.634836	0.237532	0.419886
C212	C	1.546053	0.154331	-0.273065
C213	C	1.495435	0.242066	-0.338849
H214	H	1.544670	0.124759	-0.306679
H215	H	1.505125	0.151936	-0.217205
H216	H	1.622700	0.126794	-0.250711
H217	H	1.418785	0.269605	-0.361198
H218	H	1.536362	0.244466	-0.394727
C219	C	1.807547	0.200199	-0.170057
C220	C	1.718349	0.272976	-0.151125
H221	H	1.878229	0.180607	-0.142975
H222	H	1.805773	0.216273	-0.240245
H223	H	1.799139	0.154356	-0.139776
H224	H	1.726752	0.318822	-0.181413
H225	H	1.720125	0.256905	-0.080924
C226	C	0.767335	0.349757	-0.243323
C227	C	0.831834	0.377458	-0.299631
H228	H	0.715006	0.360249	-0.287148
H229	H	0.726677	0.381430	-0.202696
H230	H	0.816582	0.288802	-0.201949
H231	H	0.782587	0.438415	-0.341001
H232	H	0.872494	0.345787	-0.340276
H233	H	0.926754	0.318208	0.451423
C234	C	1.230885	0.167308	0.036307
C235	C	1.164478	0.165894	-0.019656
H236	H	1.286224	0.109326	0.082930
H237	H	1.183396	0.203244	0.071274
H238	H	1.268088	0.190300	-0.007332
H239	H	1.127268	0.142908	0.023982
H240	H	1.211974	0.129944	-0.054625
C241	C	1.094192	0.360010	0.031697
C242	C	1.154509	0.313196	-0.028020
H243	H	1.146312	0.349649	0.075610
H244	H	1.050420	0.341196	0.069779
H245	H	1.044949	0.420936	-0.009801
H246	H	1.203745	0.252269	0.013478
H247	H	1.198300	0.332005	-0.066105
C248	C	0.239112	0.802394	-0.121671
C249	C	0.351205	0.726256	-0.087237
H250	H	0.199708	0.811557	-0.066129
H251	H	0.201780	0.795998	-0.160401
H252	H	0.239832	0.851266	-0.161824
H253	H	0.350486	0.677382	-0.047090
H254	H	0.388547	0.732646	-0.048491
C255	C	0.894123	0.809553	-0.548055
C256	C	0.892133	0.812209	-0.643814
H257	H	0.850540	0.867696	-0.552238
H258	H	0.970529	0.778343	-0.521061
H259	H	0.862628	0.780830	-0.505930
H260	H	0.923635	0.840926	-0.685938
H261	H	0.815711	0.843431	-0.670822
H262	H	1.028464	0.382293	0.450240
C263	C	1.042982	0.610787	-0.821352
C264	C	1.045083	0.608131	-0.725610
H265	H	1.086551	0.552644	-0.817166
H266	H	1.074425	0.639523	-0.863537
H267	H	0.966543	0.641985	-0.848275
H268	H	1.121522	0.576938	-0.698689
H269	H	1.013644	0.579382	-0.683409
H270	H	0.626452	1.034484	-0.062208
C271	C	0.729843	0.371968	0.345537
C272	C	0.819915	0.345415	0.288241
H273	H	0.691836	0.347968	0.345994
H274	H	0.677776	0.434192	0.317341
H275	H	0.758837	0.351737	0.412138
H276	H	0.790919	0.365651	0.221637
H277	H	0.871991	0.283178	0.316433
H278	H	1.406893	0.373500	0.397208
H279	H	1.241003	0.478964	0.257478
H280	H	0.569461	0.697946	-0.258859
C281	C	0.259646	1.065843	-0.433133
C282	C	0.258288	1.094771	-0.537136
H283	H	0.183712	1.092428	-0.417561
H284	H	0.295431	1.081619	-0.407865
H285	H	0.300702	1.003863	-0.403442
H286	H	0.217239	1.156751	-0.566827
H287	H	0.222487	1.079001	-0.562415
H288	H	0.327297	1.117994	-0.725026
H289	H	0.530316	1.046886	-0.766645
H290	H	1.065882	0.580387	-0.543753
H291	H	1.684981	0.202145	-0.252383
H292	H	0.696206	0.941392	-0.626912
