data_functionalizedCrystal
_audit_creation_method	'MofGen! by Chris Wilmer'
_symmetry_space_group_name_H-M	'P1'
_symmetry_Int_Tables_number	1
_symmetry_cell_setting	triclinic
loop_
_symmetry_equiv_pos_as_xyz
  x,y,z
_cell_length_a	14.908520
_cell_length_b	18.215407
_cell_length_c	18.215399
_cell_angle_alpha	90.019833
_cell_angle_beta	86.730636
_cell_angle_gamma	93.321174
loop_
_atom_site_label
_atom_site_type_symbol
_atom_site_fract_x
_atom_site_fract_y
_atom_site_fract_z
Zn1	Zn	-0.359158	1.108178	0.433017
Zn2	Zn	-0.510027	1.100989	0.317051
Zn3	Zn	-0.359188	0.985109	0.309966
Zn4	Zn	-0.509977	0.977982	0.440073
O5	O	-0.434588	1.043064	0.375027
O6	O	-0.379180	1.210208	0.417646
O7	O	-0.490052	1.085592	0.213128
O8	O	-0.232939	1.007425	0.320371
O9	O	-0.490023	1.204927	0.332446
O10	O	-0.232917	1.097843	0.410776
O11	O	-0.379230	1.000455	0.207923
O12	O	-0.379182	0.881180	0.327213
O13	O	-0.489937	0.995278	0.542120
O14	O	-0.489966	0.875943	0.422802
O15	O	-0.379131	1.090932	0.536936
O16	O	-0.636266	1.078681	0.339288
O17	O	-0.636229	0.988308	0.429672
C18	C	-0.434572	0.851859	0.375005
C19	C	-0.434587	0.770059	0.375014
C20	C	-0.668981	1.031961	0.386030
C21	C	-0.769256	1.027278	0.390762
C22	C	-0.492363	0.579154	0.424733
C23	C	-0.492366	0.502295	0.424742
C24	C	-0.376828	0.507726	0.325338
C25	C	-0.376822	0.584584	0.325333
C26	C	-0.434594	0.620295	0.375029
C27	C	-0.434604	0.466579	0.375044
C28	C	-0.434606	0.383245	0.375053
C29	C	-0.434591	0.703635	0.375021
C30	C	-0.957660	1.112681	0.305613
C31	C	-1.051877	1.108284	0.310057
C32	C	-1.051908	1.014091	0.404097
C33	C	-0.957691	1.018488	0.399653
C34	C	-0.910570	1.067784	0.350409
C35	C	-0.816352	1.072177	0.345962
C36	C	-0.816385	0.977988	0.440005
C37	C	-0.910602	0.973591	0.444449
C38	C	-0.199279	1.054231	0.363996
C39	C	-0.099004	1.058990	0.359296
C40	C	-0.434526	1.043112	0.566977
C41	C	-0.434499	1.043133	0.648775
C42	C	-0.434604	1.235017	0.375049
C43	C	-0.434611	1.316815	0.375059
C44	C	-0.434585	1.043062	0.183820
C45	C	-0.434357	1.043196	0.102011
C46	C	-0.376748	1.092959	0.834268
C47	C	-0.376722	1.092969	0.911126
C48	C	-0.492110	0.993364	0.916513
C49	C	-0.492131	0.993351	0.839656
C50	C	-0.434452	1.043153	0.798536
C51	C	-0.434404	1.043176	0.952250
C52	C	-0.434376	1.043186	1.035582
C53	C	-0.434478	1.043142	0.715198
H54	H	-0.539406	0.468801	0.465216
H55	H	-0.329780	1.133509	0.800790
O56	O	-0.314487	1.146685	0.949673
H57	H	-0.329971	1.203709	0.935669
H58	H	-0.329773	0.618083	0.284858
O59	O	-0.554322	0.939652	0.960862
H60	H	-0.544619	0.948031	1.020309
H61	H	-0.539403	0.608228	0.465200
O62	O	-0.765519	1.125352	0.292861
H63	H	-0.783658	1.111934	0.235942
O64	O	-0.765583	0.929557	0.488313
H65	H	-0.783738	0.870961	0.476476
H66	H	-1.090213	1.144846	0.273581
H67	H	-0.329793	0.478640	0.284876
O68	O	-0.961433	0.920425	0.497559
H69	H	-0.912857	0.889947	0.527964
O70	O	-0.906827	1.165846	0.252503
H71	H	-0.955401	1.196331	0.222101
O72	O	-1.102737	0.960916	0.457199
H73	H	-1.176163	0.965399	0.452755
H74	H	-0.539119	0.952788	0.810563
