data_functionalizedCrystal
_audit_creation_method	'MofGen! by Chris Wilmer'
_symmetry_space_group_name_H-M	'P1'
_symmetry_Int_Tables_number	1
_symmetry_cell_setting	triclinic
loop_
_symmetry_equiv_pos_as_xyz
  x,y,z
_cell_length_a	19.188931
_cell_length_b	11.792241
_cell_length_c	10.868271
_cell_angle_alpha	90.005281
_cell_angle_beta	89.997213
_cell_angle_gamma	96.330902
loop_
_atom_site_label
_atom_site_type_symbol
_atom_site_fract_x
_atom_site_fract_y
_atom_site_fract_z
O1	O	0.926947	-0.141694	-0.102278
O2	O	1.426947	0.358306	0.397722
O3	O	0.723744	-0.160769	-0.102291
O4	O	1.223744	0.339231	0.397709
O5	O	0.830277	0.014013	-0.102276
O6	O	1.330277	0.514013	0.397724
O7	O	0.820414	-0.316476	-0.102293
O8	O	1.320414	0.183524	0.397707
O9	O	0.830268	0.014020	0.102369
O10	O	1.330268	0.514020	0.602369
O11	O	0.723735	-0.160762	0.102354
O12	O	1.223735	0.339238	0.602354
O13	O	0.926938	-0.141688	0.102366
O14	O	1.426938	0.358312	0.602366
Zn15	Zn	0.825335	-0.151224	0.134852
Zn16	Zn	1.325335	0.348776	0.634852
Zn17	Zn	0.825347	-0.151233	-0.134776
Zn18	Zn	1.325347	0.348767	0.365224
O19	O	0.820405	-0.316469	0.102351
O20	O	1.320405	0.183531	0.602351
C21	C	0.829653	0.056298	0.000046
C22	C	1.329653	0.556298	0.500046
C23	C	0.827798	0.182284	0.000045
C24	C	1.327798	0.682284	0.500045
C25	C	0.697725	-0.160148	0.000030
C26	C	1.197725	0.339852	0.500030
C27	C	0.620210	-0.158293	0.000026
C28	C	1.120210	0.341707	0.500026
C29	C	0.952957	-0.142309	0.000043
C30	C	1.452957	0.357691	0.500043
C31	C	1.030472	-0.144163	0.000039
C32	C	1.530472	0.355837	0.500039
C33	C	1.074815	-0.041607	0.000034
C34	C	1.574815	0.458393	0.500034
C35	C	1.147649	-0.043349	0.000041
C36	C	1.647649	0.456651	0.500041
C37	C	1.176136	-0.147653	0.000029
C38	C	1.676136	0.352347	0.500029
C39	C	1.131783	-0.250222	0.000041
C40	C	1.631783	0.249778	0.500041
C41	C	1.058951	-0.248477	0.000046
C42	C	1.558951	0.251523	0.500046
N43	N	1.284586	-0.227383	-0.069640
N44	N	1.784586	0.272617	0.430360
N45	N	1.353774	-0.229033	-0.069648
N46	N	1.853774	0.270967	0.430352
C47	C	1.395575	-0.152916	0.000016
C48	C	1.895575	0.347084	0.500016
N49	N	1.365576	-0.075069	0.069673
N50	N	1.865576	0.424931	0.569673
N51	N	1.296382	-0.073415	0.069675
N52	N	1.796382	0.426585	0.569675
C53	C	1.255110	-0.149556	0.000024
C54	C	1.755110	0.350444	0.500024
C55	C	1.518893	-0.052242	0.000021
C56	C	2.018893	0.447758	0.500021
C57	C	1.591728	-0.053988	0.000036
C58	C	2.091728	0.446012	0.500036
C59	C	1.575861	-0.260865	0.000023
C60	C	2.075861	0.239135	0.500023
C61	C	1.503027	-0.259116	0.000021
C62	C	2.003027	0.240884	0.500021
C63	C	1.474548	-0.154801	0.000014
C64	C	1.974548	0.345199	0.500014
C65	C	0.821029	-0.358754	0.000027
C66	C	1.321029	0.141246	0.500027
C67	C	0.822884	-0.484740	0.000020
C68	C	1.322884	0.015260	0.500020
N69	N	0.825332	-0.151217	0.318866
N70	N	1.325332	0.348783	0.818866
C71	C	0.824389	0.412945	0.000024
C72	C	1.324389	0.912945	0.500024
C73	C	0.826283	0.284588	0.000035
C74	C	1.326283	0.784588	0.500035
N75	N	0.825355	-0.151230	-0.318790
N76	N	1.325355	0.348770	0.181210
C77	C	0.825343	-0.151230	0.569872
C78	C	1.325343	0.348770	1.069872
C79	C	0.825335	-0.151226	0.430194
C80	C	1.325335	0.348774	0.930194
H81	H	1.051633	0.043334	0.000033
H82	H	1.551633	0.543334	0.500033
H83	H	1.627832	0.029529	0.000040
H84	H	2.127832	0.529529	0.500040
H85	H	1.154983	-0.335147	0.000034
H86	H	1.654983	0.164853	0.500034
Cl87	Cl	1.203405	0.085589	0.000031
Cl88	Cl	1.703405	0.585589	0.500031
Cl89	Cl	1.483087	0.078893	0.000039
Cl90	Cl	1.983087	0.578893	0.500039
Cl91	Cl	1.003203	-0.377416	0.000049
Cl92	Cl	1.503203	0.122584	0.500049
H93	H	1.599054	-0.345791	0.000021
H94	H	2.099054	0.154209	0.500021
Cl95	Cl	1.447279	-0.388051	0.000013
Cl96	Cl	1.947279	0.111949	0.500013
