data_functionalizedCrystal
_audit_creation_method	'MofGen! by Chris Wilmer'
_symmetry_space_group_name_H-M	'P1'
_symmetry_Int_Tables_number	1
_symmetry_cell_setting	triclinic
loop_
_symmetry_equiv_pos_as_xyz
  x,y,z
_cell_length_a	10.685980
_cell_length_b	14.908579
_cell_length_c	10.686551
_cell_angle_alpha	89.140661
_cell_angle_beta	98.408259
_cell_angle_gamma	82.074563
loop_
_atom_site_label
_atom_site_type_symbol
_atom_site_fract_x
_atom_site_fract_y
_atom_site_fract_z
Zn1	Zn	1.980586	0.202208	0.881849
Zn2	Zn	1.951877	0.365643	0.681827
Zn3	Zn	1.750125	0.227318	0.655195
Zn4	Zn	1.756007	0.365555	0.877731
O5	O	1.859649	0.290181	0.774151
O6	O	2.155199	0.213417	0.868185
O7	O	1.910637	0.357838	0.501452
O8	O	1.790250	0.097736	0.675839
O9	O	2.134106	0.333491	0.721230
O10	O	1.959569	0.079289	0.842361
O11	O	1.762412	0.256212	0.481885
O12	O	1.572485	0.256127	0.671845
O13	O	1.800274	0.333342	1.055120
O14	O	1.576806	0.357689	0.835342
O15	O	1.965272	0.213332	1.058145
O16	O	1.916340	0.491881	0.717237
O17	O	1.772436	0.491817	0.861166
C18	C	1.528383	0.309624	0.750257
C19	C	1.386667	0.317961	0.740067
C20	C	1.841948	0.524581	0.791675
C21	C	1.834495	0.624849	0.799222
C22	C	1.970518	0.813252	0.663673
C23	C	1.963519	0.907462	0.670761
C24	C	1.813508	0.907482	0.820492
C25	C	1.820507	0.813271	0.813404
C26	C	1.899013	0.766160	0.734991
C27	C	1.906003	0.671948	0.727897
C28	C	1.756000	0.671969	0.877633
C29	C	1.749001	0.766179	0.884721
C30	C	2.192208	0.270663	0.798138
C31	C	2.333925	0.262345	0.808360
C32	C	1.886632	0.270526	1.103768
C33	C	1.898130	0.262150	1.244231
C34	C	1.877449	1.054861	0.756604
C35	C	1.885016	0.954581	0.749166
C36	C	1.832849	0.309690	0.445816
C37	C	1.821617	0.317797	0.305352
H38	H	1.323397	0.371958	0.673793
H39	H	1.397188	0.208346	0.874622
H40	H	1.972443	0.208101	1.299368
H41	H	1.969923	0.633591	0.664045
F42	F	1.729980	0.957635	0.903953
F43	F	2.054050	0.763112	0.580204
F44	F	1.679879	0.621845	0.953525
F45	F	2.039628	0.957578	0.594858
H46	H	1.685088	0.804550	0.948566
F47	F	1.724500	0.388448	1.233297
