data_functionalizedCrystal
_audit_creation_method	'MofGen! by Chris Wilmer'
_symmetry_space_group_name_H-M	'P1'
_symmetry_Int_Tables_number	1
_symmetry_cell_setting	triclinic
loop_
_symmetry_equiv_pos_as_xyz
  x,y,z
_cell_length_a	16.109301
_cell_length_b	9.798715
_cell_length_c	16.109301
_cell_angle_alpha	89.995181
_cell_angle_beta	96.538519
_cell_angle_gamma	90.000981
loop_
_atom_site_label
_atom_site_type_symbol
_atom_site_fract_x
_atom_site_fract_y
_atom_site_fract_z
O1	O	1.103131	0.113409	-0.106866
O2	O	1.603131	0.613409	0.393134
O3	O	0.861069	0.113431	-0.120165
O4	O	1.361069	0.613431	0.379835
O5	O	0.988750	0.113406	0.007516
O6	O	1.488750	0.613406	0.507516
O7	O	0.975450	0.113435	-0.234546
O8	O	1.475450	0.613435	0.265454
O9	O	0.988740	-0.113577	0.007517
O10	O	1.488740	0.386423	0.507517
O11	O	0.861060	-0.113551	-0.120164
O12	O	1.361060	0.386449	0.379836
O13	O	1.103122	-0.113573	-0.106865
O14	O	1.603122	0.386427	0.393135
Zn15	Zn	0.982089	-0.149600	-0.113514
Zn16	Zn	1.482089	0.350400	0.386486
Zn17	Zn	0.982102	0.149458	-0.113515
Zn18	Zn	1.482102	0.649458	0.386485
O19	O	0.975441	-0.113547	-0.234545
O20	O	1.475441	0.386453	0.265455
C21	C	0.830090	-0.000057	-0.119626
C22	C	1.330090	0.499943	0.380374
C23	C	0.737794	-0.000049	-0.118011
C24	C	1.237794	0.499951	0.381989
N25	N	0.982087	-0.353700	-0.113513
N26	N	1.482087	0.146300	0.386487
C27	C	0.515522	-0.000056	-0.190018
C28	C	1.015522	0.499944	0.309982
C29	C	0.428801	-0.000065	-0.188494
C30	C	0.928801	0.499935	0.311506
C31	C	0.448676	-0.000078	-0.037006
C32	C	0.948676	0.499922	0.462994
C33	C	0.535394	-0.000078	-0.038530
C34	C	1.035394	0.499922	0.461470
C35	C	0.568815	-0.000061	-0.115039
C36	C	1.068815	0.499939	0.384961
C37	C	0.395376	-0.000069	-0.111990
C38	C	0.895376	0.499931	0.388010
C39	C	0.301350	-0.000079	-0.110337
C40	C	0.801350	0.499921	0.389663
C41	C	0.662847	-0.000054	-0.116693
C42	C	1.162847	0.499946	0.383307
C43	C	1.030143	-0.421476	-0.161298
C44	C	1.530143	0.078524	0.338702
C45	C	1.030157	-0.578639	-0.161297
C46	C	1.530157	-0.078639	0.338703
C47	C	1.134101	-0.000082	-0.107404
C48	C	1.634101	0.499918	0.392596
C49	C	1.226397	-0.000081	-0.109019
C50	C	1.726397	0.499919	0.390981
C51	C	0.988206	-0.000086	0.038491
C52	C	1.488206	0.499914	0.538491
C53	C	0.986591	-0.000088	0.130786
C54	C	1.486591	0.499912	0.630786
N55	N	0.982111	0.353558	-0.113510
N56	N	1.482111	0.853558	0.386490
C57	C	0.975984	-0.000053	-0.265521
C58	C	1.475984	0.499947	0.234479
C59	C	0.977600	-0.000042	-0.357816
C60	C	1.477600	0.499958	0.142184
C61	C	1.058599	-0.000073	0.353059
C62	C	1.558599	0.499927	0.853059
C63	C	1.057075	-0.000061	0.439779
C64	C	1.557075	0.499939	0.939779
C65	C	0.905586	-0.000053	0.419905
C66	C	1.405586	0.499947	0.919905
C67	C	0.907111	-0.000055	0.333186
C68	C	1.407111	0.499945	0.833186
C69	C	0.983620	-0.000071	0.299766
C70	C	1.483620	0.499929	0.799766
C71	C	0.980571	-0.000058	0.473205
C72	C	1.480571	0.499942	0.973205
C73	C	0.978918	-0.000046	0.567231
C74	C	1.478918	0.499954	1.067231
C75	C	0.985273	-0.000081	0.205734
C76	C	1.485273	0.499919	0.705734
H77	H	0.542730	-0.000052	-0.252317
H78	H	1.042730	0.499948	0.247683
F79	F	0.413100	-0.000091	0.044416
F80	F	0.913100	0.499909	0.544416
F81	F	0.592117	-0.000092	0.041277
F82	F	1.092117	0.499908	0.541277
H83	H	0.385413	-0.000064	-0.249550
H84	H	0.885413	0.499936	0.250450
H85	H	0.846050	-0.000049	0.289792
H86	H	1.346050	0.499951	0.789792
F87	F	1.083913	-0.345247	-0.214770
F88	F	1.583913	0.154753	0.285230
F89	F	1.140026	-0.000089	0.317493
F90	F	1.640026	0.499911	0.817493
H91	H	1.071295	-0.636925	-0.202212
H92	H	1.571295	-0.136925	0.297788
F93	F	0.824164	-0.000034	0.455481
F94	F	1.324164	0.499966	0.955481
H95	H	0.940956	-0.412026	-0.072599
H96	H	1.440956	0.087974	0.427401
H97	H	0.940962	-0.588164	-0.072601
H98	H	1.440962	-0.088164	0.427399
F99	F	1.136878	-0.000060	0.496495
F100	F	1.636878	0.499940	0.996495
