data_functionalizedCrystal
_audit_creation_method	'MofGen! by Chris Wilmer'
_symmetry_space_group_name_H-M	'P1'
_symmetry_Int_Tables_number	1
_symmetry_cell_setting	triclinic
loop_
_symmetry_equiv_pos_as_xyz
  x,y,z
_cell_length_a	10.540514
_cell_length_b	10.540535
_cell_length_c	13.101039
_cell_angle_alpha	93.394726
_cell_angle_beta	86.608242
_cell_angle_gamma	84.519401
loop_
_atom_site_label
_atom_site_type_symbol
_atom_site_fract_x
_atom_site_fract_y
_atom_site_fract_z
O1	O	1.692825	0.171803	-0.085231
O2	O	1.323407	0.188692	-0.085230
O3	O	1.516546	-0.004459	-0.085220
O4	O	1.499686	0.364954	-0.085241
O5	O	1.502689	0.009422	0.085209
O6	O	1.309550	0.202574	0.085199
O7	O	1.678967	0.185684	0.085198
Zn8	Zn	1.492058	0.196333	0.112258
Zn9	Zn	1.510316	0.178044	-0.112290
O10	O	1.485828	0.378836	0.085188
C11	C	1.269175	0.194373	-0.000016
C12	C	1.128225	0.190604	-0.000015
C13	C	1.508354	-0.044821	-0.000005
C14	C	1.504574	-0.185769	-0.000004
C15	C	1.057518	0.328744	-0.000025
C16	C	0.910937	0.324837	-0.000417
C17	C	0.943787	0.107565	-0.097151
C18	C	1.090332	0.112413	-0.097227
C19	C	1.074976	0.126155	0.096589
C20	C	0.927894	0.124926	0.097861
C21	C	1.363559	-0.222428	-0.000011
C22	C	1.359615	-0.369061	-0.000416
C23	C	1.576845	-0.403013	-0.097161
C24	C	1.579851	-0.256253	-0.097225
C25	C	1.566143	-0.240605	0.096592
C26	C	1.559519	-0.386849	0.097850
C27	C	1.733200	0.180003	-0.000019
C28	C	1.874150	0.183772	-0.000026
C29	C	1.494021	0.419198	-0.000029
C30	C	1.497801	0.560145	-0.000037
N31	N	1.479607	0.208815	0.265506
N32	N	1.522777	0.165552	-0.265538
C33	C	1.462667	0.225808	0.474547
C34	C	1.539713	0.148563	0.525427
C35	C	1.530287	0.158018	0.641745
C36	C	1.472091	0.216354	0.358219
H37	H	0.862613	0.384224	0.069190
H38	H	0.903210	0.022581	0.104020
Cl39	Cl	1.726208	-0.206246	0.098050
Cl40	Cl	1.147843	-0.031029	0.098061
Cl41	Cl	0.855578	0.211014	0.208802
H42	H	1.516152	-0.192152	0.170238
H43	H	1.612753	0.075332	0.481629
H44	H	1.093400	0.378297	-0.069578
H45	H	1.124482	0.156357	-0.170113
H46	H	1.298302	-0.392731	0.069186
H47	H	1.389633	0.299036	0.518341
H48	H	1.080395	0.390454	0.069613
H49	H	1.533931	-0.439811	-0.169724
H50	H	0.874899	0.372620	-0.070456
Cl51	Cl	1.282930	-0.421788	-0.108554
Cl52	Cl	1.164978	-0.044770	-0.103617
Cl53	Cl	1.114353	0.206411	0.210286
Cl54	Cl	0.909759	-0.052855	-0.102302
Cl55	Cl	1.514816	-0.203371	-0.209745
Cl56	Cl	1.470565	-0.421978	0.208791
Cl57	Cl	0.887240	0.170823	-0.209184
H58	H	1.303745	-0.174788	0.069632
H59	H	1.315970	-0.184622	-0.069558
H60	H	1.683563	-0.233568	-0.101361
H61	H	1.678884	-0.450651	-0.100501
Cl62	Cl	1.714538	-0.461725	0.107320
