data_functionalizedCrystal
_audit_creation_method	'MofGen! by Chris Wilmer'
_symmetry_space_group_name_H-M	'P1'
_symmetry_Int_Tables_number	1
_symmetry_cell_setting	triclinic
loop_
_symmetry_equiv_pos_as_xyz
  x,y,z
_cell_length_a	10.685904
_cell_length_b	10.685194
_cell_length_c	17.077396
_cell_angle_alpha	94.397619
_cell_angle_beta	94.394049
_cell_angle_gamma	98.381010
loop_
_atom_site_label
_atom_site_type_symbol
_atom_site_fract_x
_atom_site_fract_y
_atom_site_fract_z
Zn1	Zn	1.901942	-0.356656	0.517659
Zn2	Zn	1.885575	-0.568957	0.375488
Zn3	Zn	1.689672	-0.372967	0.375493
Zn4	Zn	1.673412	-0.585140	0.495809
O5	O	1.787650	-0.470930	0.441112
O6	O	2.077398	-0.371220	0.507943
O7	O	1.859543	-0.543012	0.265637
O8	O	1.731485	-0.193159	0.403498
O9	O	2.065373	-0.527196	0.403490
O10	O	1.887439	-0.181176	0.507947
O11	O	1.715614	-0.399019	0.265641
O12	O	1.509888	-0.414711	0.382311
O13	O	1.703772	-0.554778	0.608559
O14	O	1.497942	-0.570594	0.470706
O15	O	1.871672	-0.386912	0.624612
O16	O	1.843776	-0.748748	0.382303
O17	O	1.687901	-0.760637	0.470702
C18	C	1.457858	-0.496179	0.424138
C19	C	1.316769	-0.507011	0.416894
C20	C	1.762333	-0.800751	0.424150
C21	C	1.751618	-0.941841	0.416925
C22	C	2.118730	-0.445583	0.458153
C23	C	2.259816	-0.434782	0.465415
C24	C	1.787734	-0.470831	0.645866
C25	C	1.787770	-0.470788	0.733119
C26	C	1.813101	-0.139819	0.458160
C27	C	1.823947	0.001281	0.465425
C28	C	1.787647	-0.470932	0.237164
C29	C	1.787884	-0.470598	0.149942
C30	C	1.875199	-0.383373	0.782470
C31	C	1.875218	-0.383330	0.864453
C32	C	1.787812	-0.470708	0.897084
C33	C	1.700373	-0.558127	0.847727
C34	C	1.700350	-0.558164	0.765745
C35	C	1.700430	-0.558047	1.018604
C36	C	1.700455	-0.558013	1.100591
C37	C	1.875298	-0.383213	1.117312
C38	C	1.875275	-0.383250	1.035330
C39	C	1.787837	-0.470671	0.985978
H40	H	1.319001	-0.364649	0.512497
H41	H	1.681480	-1.001091	0.369875
H42	H	1.629211	-0.629216	0.978423
O43	O	1.246114	-0.590812	0.360826
C44	C	1.163146	-0.678686	0.397324
H45	H	1.202610	-0.683612	0.460764
H46	H	1.065735	-0.647059	0.396989
C47	C	1.102324	-0.804696	0.274028
C48	C	1.150800	-0.810753	0.351945
H49	H	1.094702	-0.886160	0.246035
H50	H	1.158217	-0.745491	0.249437
H51	H	1.021153	-0.778335	0.273760
H52	H	1.231976	-0.837099	0.352212
H53	H	1.094920	-0.869966	0.376534
H54	H	1.946379	-0.312223	0.755909
O55	O	1.907470	-0.928118	0.521662
C56	C	1.877252	-0.962516	0.596818
H57	H	1.773095	-1.006893	0.593657
H58	H	1.939522	-1.034078	0.616987
C59	C	2.028752	-0.788974	0.659824
C60	C	1.900822	-0.843468	0.655942
H61	H	2.043296	-0.715542	0.696296
H62	H	2.049115	-0.765801	0.609191
H63	H	2.080629	-0.848621	0.676629
H64	H	1.848948	-0.783827	0.639128
H65	H	1.880451	-0.866629	0.706575
O66	O	1.615516	-0.643178	0.879331
C67	C	1.633544	-0.767586	0.854226
H68	H	1.682117	-0.766508	0.797079
H69	H	1.695533	-0.805327	0.901525
C70	C	1.444230	-0.855281	0.910294
C71	C	1.503878	-0.853958	0.840102
H72	H	1.364248	-0.908561	0.901585
H73	H	1.432086	-0.771466	0.927211
H74	H	1.495901	-0.886728	0.949703
H75	H	1.452215	-0.822495	0.800697
H76	H	1.516011	-0.937770	0.823178
H77	H	1.946414	-0.312151	0.904632
O78	O	1.959997	-0.298302	1.003547
C79	C	1.893993	-0.221850	0.956651
H80	H	1.794364	-0.274013	0.937105
H81	H	1.887264	-0.128843	0.992381
C82	C	2.087936	-0.129445	0.907567
C83	C	1.965572	-0.193517	0.883554
H84	H	2.132090	-0.111961	0.862479
H85	H	2.132406	-0.180948	0.939164
H86	H	2.082311	-0.051946	0.937343
H87	H	1.971199	-0.271020	0.853787
H88	H	1.921105	-0.142026	0.851950
O89	O	1.960098	-0.298325	1.165361
C90	C	1.941391	-0.317035	1.244718
H91	H	1.840243	-0.366114	1.248725
H92	H	2.011498	-0.378849	1.268390
C93	C	2.087121	-0.127394	1.289091
C94	C	1.962885	-0.187664	1.294013
H95	H	2.100384	-0.047594	1.319500
H96	H	2.099728	-0.114790	1.235627
H97	H	2.145529	-0.178919	1.308816
H98	H	1.904479	-0.136147	1.274279
H99	H	1.950267	-0.200256	1.347475
O100	O	1.615423	-0.642935	1.132161
C101	C	1.538257	-0.720116	1.071025
H102	H	1.537838	-0.668486	1.015035
H103	H	1.577314	-0.812981	1.059734
C104	C	1.402282	-0.812139	1.163895
C105	C	1.401760	-0.748720	1.095129
H106	H	1.318085	-0.829789	1.178763
H107	H	1.454272	-0.760144	1.205084
H108	H	1.434836	-0.889518	1.154477
H109	H	1.369221	-0.671335	1.104551
H110	H	1.349760	-0.800703	1.053941
H111	H	1.629144	-0.629334	0.725564
