data_functionalizedCrystal
_audit_creation_method	'MofGen! by Chris Wilmer'
_symmetry_space_group_name_H-M	'P1'
_symmetry_Int_Tables_number	1
_symmetry_cell_setting	triclinic
loop_
_symmetry_equiv_pos_as_xyz
  x,y,z
_cell_length_a	17.077404
_cell_length_b	17.077402
_cell_length_c	17.077396
_cell_angle_alpha	89.970216
_cell_angle_beta	89.980499
_cell_angle_gamma	90.023108
loop_
_atom_site_label
_atom_site_type_symbol
_atom_site_fract_x
_atom_site_fract_y
_atom_site_fract_z
Zn1	Zn	1.200055	-0.312503	-0.443836
Zn2	Zn	1.700055	0.187497	0.056164
Zn3	Zn	1.199962	-0.443778	-0.312567
Zn4	Zn	1.699962	0.056222	0.187433
Zn5	Zn	1.068786	-0.312531	-0.312584
Zn6	Zn	1.568786	0.187469	0.187416
Zn7	Zn	1.068754	-0.443732	-0.443790
Zn8	Zn	1.568754	0.056268	0.056210
O9	O	1.134389	-0.378136	-0.378194
O10	O	1.634389	0.121864	0.121806
O11	O	1.309889	-0.329925	-0.426434
O12	O	1.809889	0.170075	0.073566
O13	O	1.182536	-0.426399	-0.202722
O14	O	1.682536	0.073601	0.297278
O15	O	1.086252	-0.202680	-0.330021
O16	O	1.586252	0.297320	0.169979
O17	O	1.309821	-0.426372	-0.329992
O18	O	1.809821	0.073628	0.170008
O19	O	1.182694	-0.202660	-0.426451
O20	O	1.682694	0.297340	0.073549
O21	O	1.086162	-0.329972	-0.202734
O22	O	1.586162	0.170028	0.297266
O23	O	0.958935	-0.329927	-0.329976
O24	O	1.458935	0.170073	0.170024
O25	O	1.086197	-0.426293	-0.553643
O26	O	1.586197	0.073707	-0.053643
O27	O	0.958912	-0.426320	-0.426373
O28	O	1.458912	0.073680	0.073627
O29	O	1.182663	-0.329880	-0.553677
O30	O	1.682663	0.170120	-0.053677
O31	O	1.182505	-0.553619	-0.329948
O32	O	1.682505	-0.053619	0.170052
O33	O	1.086107	-0.553585	-0.426357
O34	O	1.586107	-0.053585	0.073643
C35	C	0.930441	-0.378122	-0.378172
C36	C	1.430441	0.121878	0.121828
C37	C	0.843192	-0.378135	-0.378182
C38	C	1.343192	0.121865	0.121818
C39	C	0.802210	-0.428402	-0.428295
C40	C	1.302210	0.071598	0.071705
C41	C	0.720229	-0.428404	-0.428308
C42	C	1.220229	0.071596	0.071692
C43	C	0.679232	-0.378141	-0.378202
C44	C	1.179232	0.121859	0.121798
C45	C	0.720220	-0.327869	-0.328087
C46	C	1.220220	0.172131	0.171913
C47	C	0.802199	-0.327863	-0.328079
C48	C	1.302199	0.172137	0.171921
C49	C	0.549350	-0.327884	-0.328106
C50	C	1.049350	0.172116	0.171894
C51	C	0.467365	-0.327890	-0.328112
C52	C	0.967365	0.172110	0.171888
C53	C	0.467380	-0.428424	-0.428335
C54	C	0.967380	0.071576	0.071665
C55	C	0.549359	-0.428419	-0.428327
C56	C	1.049359	0.071581	0.071673
C57	C	0.590341	-0.378147	-0.378210
C58	C	1.090341	0.121853	0.121790
C59	C	1.134314	-0.582084	-0.378163
C60	C	1.634314	-0.082084	0.121837
C61	C	1.134353	-0.669334	-0.378176
C62	C	1.634353	-0.169334	0.121824
C63	C	1.184598	-0.710316	-0.328029
C64	C	1.684598	-0.210316	0.171971
C65	C	1.184637	-0.792296	-0.328049
C66	C	1.684637	-0.292296	0.171951
C67	C	1.134425	-0.833293	-0.378212
C68	C	1.634425	-0.333293	0.121788
C69	C	1.084178	-0.792305	-0.428364
C70	C	1.584178	-0.292305	0.071636
C71	C	1.084144	-0.710327	-0.428348
C72	C	1.584144	-0.210327	0.071652
C73	C	1.084250	-0.963175	-0.428394
C74	C	1.584250	-0.463175	0.071606
C75	C	1.084283	-1.045160	-0.428410
C76	C	1.584283	-0.545160	0.071590
C77	C	1.184743	-1.045145	-0.328096
C78	C	1.684743	-0.545145	0.171904
C79	C	1.184709	-0.963166	-0.328079
C80	C	1.684709	-0.463166	0.171921
C81	C	1.134461	-0.922184	-0.378230
C82	C	1.634461	-0.422184	0.121770
C83	C	1.339134	-0.378151	-0.378216
C84	C	1.839134	0.121849	0.121784
C85	C	1.426383	-0.378157	-0.378226
C86	C	1.926383	0.121843	0.121774
C87	C	1.134437	-0.378078	-0.582938
C88	C	1.634437	0.121922	-0.082938
C89	C	1.134457	-0.378054	-0.670188
C90	C	1.634457	0.121946	-0.170188
C91	C	1.134487	-0.173392	-0.378243
C92	C	1.634487	0.326608	0.121757
C93	C	1.134528	-0.086142	-0.378263
C94	C	1.634528	0.413858	0.121737
C95	C	1.184689	-0.327847	-0.711197
C96	C	1.684689	0.172153	-0.211197
C97	C	1.184698	-0.327821	-0.793178
C98	C	1.684698	0.172179	-0.293178
C99	C	1.134479	-0.378006	-0.834148
C100	C	1.634479	0.121994	-0.334148
C101	C	1.084242	-0.428214	-0.793133
C102	C	1.584242	0.071786	-0.293133
C103	C	1.084229	-0.428236	-0.711154
C104	C	1.584229	0.071764	-0.211154
C105	C	1.084274	-0.428167	-0.964003
C106	C	1.584274	0.071833	-0.464003
C107	C	1.084288	-0.428147	-1.045988
C108	C	1.584288	0.071853	-0.545988
C109	C	1.184742	-0.327752	-1.046027
C110	C	1.684742	0.172248	-0.546027
C111	C	1.184730	-0.327774	-0.964048
C112	C	1.684730	0.172226	-0.464048
C113	C	1.134493	-0.377984	-0.923039
C114	C	1.634493	0.122016	-0.423039
C115	C	1.134387	-0.378137	-0.174246
C116	C	1.634387	0.121863	0.325754
C117	C	1.134519	-0.377941	-0.086997
C118	C	1.634519	0.122059	0.413003
H119	H	0.686866	-0.469337	-0.469114
H120	H	1.186866	0.030663	0.030886
C121	C	1.029001	-0.483418	-0.838195
C122	C	1.529001	0.016582	-0.338195
H123	H	0.999078	-0.513318	-0.802028
H124	H	1.499078	-0.013318	-0.302028
H125	H	1.059017	-0.517615	-0.870171
H126	H	1.559017	-0.017615	-0.370171
H127	H	0.994816	-0.453375	-0.870176
H128	H	1.494816	0.046625	-0.370176
H129	H	1.043230	-0.676960	-0.469183
H130	H	1.543230	-0.176960	0.030817
C131	C	1.240010	-0.272532	-1.091133
C132	C	1.740010	0.227468	-0.591133
H133	H	1.232824	-0.279702	-1.145824
H134	H	1.732824	0.220298	-0.645824
H135	H	1.292740	-0.284041	-1.077699
H136	H	1.792740	0.215959	-0.577699
H137	H	1.228554	-0.219786	-1.077712
H138	H	1.728554	0.280214	-0.577712
H139	H	1.225585	-0.286983	-0.677845
H140	H	1.725585	0.213017	-0.177845
C141	C	1.029044	-0.483344	-1.091054
C142	C	1.529044	0.016656	-0.591054
H143	H	0.999115	-0.513242	-1.054891
H144	H	1.499115	-0.013242	-0.554891
H145	H	1.059058	-0.517542	-1.123031
H146	H	1.559058	-0.017542	-0.623031
H147	H	0.994864	-0.453295	-1.123036
H148	H	1.494864	0.046705	-0.623036
H149	H	1.225483	-0.676941	-0.287177
H150	H	1.725483	-0.176941	0.212823
H151	H	1.043298	-0.825692	-0.469211
H152	H	1.543298	-0.325692	0.030789
C153	C	1.239956	-0.272598	-0.838284
C154	C	1.739956	0.227402	-0.338284
H155	H	1.269870	-0.242721	-0.802142
H156	H	1.769870	0.257279	-0.302142
H157	H	1.209955	-0.238381	-0.870267
H158	H	1.709955	0.261619	-0.370267
H159	H	1.274150	-0.302627	-0.870262
H160	H	1.774150	0.197373	-0.370262
H161	H	1.225627	-0.286913	-0.930692
H162	H	1.725627	0.213087	-0.430692
H163	H	1.043354	-0.469041	-0.930616
H164	H	1.543354	0.030959	-0.430616
H165	H	1.225660	-1.078516	-0.287263
H166	H	1.725660	-0.578516	0.212737
H167	H	0.835584	-0.469334	-0.469094
H168	H	1.335584	0.030666	0.030906
H169	H	1.043318	-0.469111	-0.677766
H170	H	1.543318	0.030889	-0.177766
H171	H	0.582737	-0.469352	-0.469122
H172	H	1.082737	0.030648	0.030878
H173	H	0.434009	-0.469355	-0.469144
H174	H	0.934009	0.030645	0.030856
H175	H	0.433988	-0.286953	-0.287321
H176	H	0.933988	0.213047	0.212679
H177	H	0.686834	-0.286941	-0.287293
H178	H	1.186834	0.213059	0.212707
C179	C	0.847279	-0.272568	-0.272955
C180	C	1.347279	0.227432	0.227045
H181	H	0.811123	-0.242638	-0.243111
H182	H	1.311123	0.257362	0.256889
H183	H	0.879282	-0.238404	-0.303045
H184	H	1.379282	0.261596	0.196955
H185	H	0.879235	-0.302551	-0.238692
H186	H	1.379235	0.197449	0.261308
C187	C	1.239903	-0.837373	-0.272884
C188	C	1.739903	-0.337373	0.227116
H189	H	1.269794	-0.801215	-0.242999
H190	H	1.769794	-0.301215	0.257001
H191	H	1.274104	-0.869303	-0.302945
H192	H	1.774104	-0.369303	0.197055
H193	H	1.209901	-0.869402	-0.238660
H194	H	1.709901	-0.369402	0.261340
C195	C	0.594428	-0.272583	-0.272981
C196	C	1.094428	0.227417	0.227019
H197	H	0.558272	-0.242654	-0.243136
H198	H	1.058272	0.257346	0.256864
H199	H	0.626433	-0.238418	-0.303068
H200	H	1.126433	0.261582	0.196932
H201	H	0.626383	-0.302568	-0.238718
H202	H	1.126383	0.197432	0.261282
H203	H	1.043411	-1.078538	-0.469272
H204	H	1.543411	-0.578538	0.030728
C205	C	1.028981	-0.918097	-0.483562
C206	C	1.528981	-0.418097	0.016438
H207	H	0.999076	-0.954253	-0.513436
H208	H	1.499076	-0.454253	-0.013436
H209	H	1.058976	-0.886068	-0.517784
H210	H	1.558976	-0.386068	-0.017784
H211	H	0.994779	-0.886166	-0.453493
H212	H	1.494779	-0.386166	0.046507
H213	H	1.225591	-0.929786	-0.287228
H214	H	1.725591	-0.429786	0.212772
