data_functionalizedCrystal
_audit_creation_method	'MofGen! by Chris Wilmer'
_symmetry_space_group_name_H-M	'P1'
_symmetry_Int_Tables_number	1
_symmetry_cell_setting	triclinic
loop_
_symmetry_equiv_pos_as_xyz
  x,y,z
_cell_length_a	13.032831
_cell_length_b	13.897448
_cell_length_c	13.033109
_cell_angle_alpha	97.153140
_cell_angle_beta	76.665514
_cell_angle_gamma	82.822399
loop_
_atom_site_label
_atom_site_type_symbol
_atom_site_fract_x
_atom_site_fract_y
_atom_site_fract_z
Zn1	Zn	1.700113	-0.678106	-0.806401
Zn2	Zn	2.200113	-0.178106	-0.306401
Zn3	Zn	1.677445	-0.815943	-0.628782
Zn4	Zn	2.177445	-0.315943	-0.128782
Zn5	Zn	1.499937	-0.631189	-0.606295
Zn6	Zn	1.999937	-0.131189	-0.106295
Zn7	Zn	1.522460	-0.815858	-0.783826
Zn8	Zn	2.022460	-0.315858	-0.283826
O9	O	1.599989	-0.735274	-0.706326
O10	O	2.099989	-0.235274	-0.206326
O11	O	1.845742	-0.716060	-0.801698
O12	O	2.345742	-0.216060	-0.301698
O13	O	1.634986	-0.771836	-0.477168
O14	O	2.134986	-0.271836	0.022832
O15	O	1.526552	-0.502443	-0.632875
O16	O	2.026552	-0.002443	-0.132875
O17	O	1.829088	-0.817329	-0.671203
O18	O	2.329088	-0.317329	-0.171203
O19	O	1.673620	-0.536912	-0.779893
O20	O	2.173620	-0.036912	-0.279893
O21	O	1.504572	-0.636098	-0.460646
O22	O	2.004572	-0.136098	0.039354
O23	O	1.354289	-0.636016	-0.610986
O24	O	1.854289	-0.136016	-0.110986
O25	O	1.564938	-0.817184	-0.935453
O26	O	2.064938	-0.317184	-0.435453
O27	O	1.370836	-0.771691	-0.741418
O28	O	1.870836	-0.271691	-0.241418
O29	O	1.695459	-0.715978	-0.952038
O30	O	2.195459	-0.215978	-0.452038
O31	O	1.656825	-0.950902	-0.649313
O32	O	2.156825	-0.450902	-0.149313
O33	O	1.542958	-0.950840	-0.763223
O34	O	2.042958	-0.450840	-0.263223
C35	C	1.324023	-0.698754	-0.671313
C36	C	1.824023	-0.198754	-0.171313
C37	C	1.205967	-0.683157	-0.656359
C38	C	1.705967	-0.183157	-0.156359
C39	C	1.161536	-0.743414	-0.714130
C40	C	1.661536	-0.243414	-0.214130
C41	C	1.039519	-0.727296	-0.698676
C42	C	1.539519	-0.227296	-0.198676
C43	C	1.599907	-0.985874	-0.706286
C44	C	2.099907	-0.485874	-0.206286
C45	C	1.599974	-1.093100	-0.706316
C46	C	2.099974	-0.593100	-0.206316
C47	C	1.600094	-1.289418	-0.706397
C48	C	2.100094	-0.789418	-0.206397
C49	C	1.600025	-1.180173	-0.706355
C50	C	2.100025	-0.680173	-0.206355
C51	C	1.877032	-0.771938	-0.741477
C52	C	2.377032	-0.271938	-0.241477
C53	C	1.995092	-0.787562	-0.756456
C54	C	2.495092	-0.287562	-0.256456
C55	C	1.635240	-0.771805	-0.983361
C56	C	2.135240	-0.271805	-0.483361
C57	C	1.650262	-0.787373	-1.101417
C58	C	2.150262	-0.287373	-0.601417
C59	C	1.600102	-0.483702	-0.706394
C60	C	2.100102	0.016298	-0.206394
C61	C	1.600151	-0.376498	-0.706423
C62	C	2.100151	0.123502	-0.206423
C63	C	1.592433	-0.727152	-1.145876
C64	C	2.092433	-0.227152	-0.645876
C65	C	1.607957	-0.743241	-1.267892
C66	C	2.107957	-0.243241	-0.767892
C67	C	1.564936	-0.698824	-0.430376
C68	C	2.064936	-0.198824	0.069624
C69	C	1.550120	-0.683012	-0.312347
C70	C	2.050120	-0.183012	0.187653
H71	H	0.987229	-0.663766	-0.637775
H72	H	1.487229	-0.163766	-0.137775
H73	H	1.668963	-0.806713	-1.320159
H74	H	2.168963	-0.306713	-0.820159
C75	C	1.232171	-0.829228	-0.796406
C76	C	1.732171	-0.329228	-0.296406
H77	H	1.304913	-0.828807	-0.795995
H78	H	1.804913	-0.328807	-0.295995
H79	H	1.223146	-0.822252	-0.865519
H80	H	1.723146	-0.322252	-0.365519
H81	H	1.212037	-0.889573	-0.778448
H82	H	1.712037	-0.389573	-0.278448
H83	H	1.531426	-0.663689	-1.093605
H84	H	2.031426	-0.163689	-0.593605
C85	C	1.732676	-0.873113	-1.172015
C86	C	2.232676	-0.373113	-0.672015
H87	H	1.766940	-0.908812	-1.128299
H88	H	2.266940	-0.408812	-0.628299
H89	H	1.784437	-0.848007	-1.221170
H90	H	2.284437	-0.348007	-0.721170
H91	H	1.697487	-0.915430	-1.210117
H92	H	2.197487	-0.415430	-0.710117
C93	C	1.065718	-0.873397	-0.838714
C94	C	1.565718	-0.373397	-0.338714
H95	H	1.138461	-0.872984	-0.838297
H96	H	1.638461	-0.372984	-0.338297
H97	H	1.056705	-0.866443	-0.907835
H98	H	1.556705	-0.366443	-0.407835
H99	H	1.045569	-0.933731	-0.820732
H100	H	1.545569	-0.433731	-0.320732
C101	C	1.135332	-0.597340	-0.574089
C102	C	1.635332	-0.097340	-0.074089
H103	H	1.062589	-0.597767	-0.574492
H104	H	1.562589	-0.097767	-0.074492
H105	H	1.155470	-0.537000	-0.592040
H106	H	1.655470	-0.037000	-0.092040
H107	H	1.144352	-0.604321	-0.504969
H108	H	1.644352	-0.104321	-0.004969
C109	C	1.467705	-0.597266	-1.241751
C110	C	1.967705	-0.097266	-0.741751
H111	H	1.468085	-0.597695	-1.169003
H112	H	1.968085	-0.097695	-0.669003
H113	H	1.398623	-0.604307	-1.250819
H114	H	1.898623	-0.104307	-0.750819
H115	H	1.485579	-0.536890	-1.261867
H116	H	1.985579	-0.036890	-0.761867
