data_functionalizedCrystal
_audit_creation_method	'MofGen! by Chris Wilmer'
_symmetry_space_group_name_H-M	'P1'
_symmetry_Int_Tables_number	1
_symmetry_cell_setting	triclinic
loop_
_symmetry_equiv_pos_as_xyz
  x,y,z
_cell_length_a	16.625547
_cell_length_b	16.625546
_cell_length_c	15.296720
_cell_angle_alpha	99.642470
_cell_angle_beta	99.657115
_cell_angle_gamma	90.022405
loop_
_atom_site_label
_atom_site_type_symbol
_atom_site_fract_x
_atom_site_fract_y
_atom_site_fract_z
Zn1	Zn	1.153714	-0.399894	-0.510148
Zn2	Zn	1.176968	-0.511408	-0.359295
Zn3	Zn	1.042225	-0.376595	-0.359304
Zn4	Zn	1.018856	-0.534678	-0.510083
O5	O	1.097941	-0.455644	-0.434708
O6	O	1.269627	-0.414699	-0.490160
O7	O	1.178606	-0.474036	-0.233063
O8	O	1.057062	-0.266858	-0.379345
O9	O	1.286712	-0.496628	-0.379329
O10	O	1.138973	-0.283976	-0.490169
O11	O	1.079611	-0.374989	-0.233069
O12	O	0.926296	-0.397553	-0.379282
O13	O	1.017234	-0.536288	-0.636326
O14	O	0.909127	-0.513696	-0.490059
O15	O	1.116313	-0.437263	-0.636373
O16	O	1.155946	-0.627323	-0.379267
O17	O	1.039782	-0.644419	-0.490050
C18	C	0.888457	-0.455622	-0.434665
C19	C	0.798835	-0.455635	-0.434668
C20	C	0.726051	-0.455638	-0.434679
C21	C	0.634739	-0.455646	-0.434702
C22	C	0.561959	-0.455657	-0.434725
C23	C	0.470641	-0.455666	-0.434747
C24	C	1.097870	-0.665129	-0.434670
C25	C	1.097909	-0.754752	-0.434684
C26	C	1.098035	-1.082942	-0.434778
C27	C	1.097997	-0.991630	-0.434754
C28	C	1.097972	-0.918850	-0.434730
C29	C	1.097935	-0.827532	-0.434708
C30	C	1.308243	-0.455667	-0.434751
C31	C	1.397861	-0.455677	-0.434769
C32	C	1.061573	-0.491970	-0.669996
C33	C	1.046075	-0.507450	-0.770261
C34	C	1.098030	-0.245344	-0.434765
C35	C	1.098069	-0.155727	-0.434790
C36	C	1.208737	-0.344864	-1.052993
C37	C	1.223303	-0.330321	-0.958788
C38	C	1.178997	-0.374602	-0.911652
C39	C	1.120123	-0.433429	-0.958729
C40	C	1.105560	-0.447977	-1.052943
C41	C	1.075820	-0.477715	-0.911602
C42	C	1.016946	-0.536542	-0.958680
C43	C	1.002385	-0.551088	-1.052884
C44	C	1.046691	-0.506807	-1.100020
C45	C	1.090383	-0.463166	-0.817388
C46	C	0.987206	-0.566280	-0.817339
C47	C	0.972640	-0.580823	-0.911543
C48	C	1.134214	-0.419401	-0.200335
C49	C	1.149868	-0.403693	-0.100070
H50	H	1.138318	-0.415268	-0.779067
H51	H	1.034834	-0.518645	-1.176730
F52	F	1.194500	-0.359121	-0.811390
F53	F	0.909984	-0.643430	-0.961658
F54	F	0.939737	-0.613709	-1.102985
H55	H	1.244809	-0.308821	-1.091380
F56	F	1.285959	-0.267716	-0.908692
F57	F	0.940053	-0.613414	-0.767178
