data_functionalizedCrystal
_audit_creation_method	'MofGen! by Chris Wilmer'
_symmetry_space_group_name_H-M	'P1'
_symmetry_Int_Tables_number	1
_symmetry_cell_setting	triclinic
loop_
_symmetry_equiv_pos_as_xyz
  x,y,z
_cell_length_a	23.532355
_cell_length_b	27.732064
_cell_length_c	22.010155
_cell_angle_alpha	90.006488
_cell_angle_beta	89.991030
_cell_angle_gamma	82.738461
loop_
_atom_site_label
_atom_site_type_symbol
_atom_site_fract_x
_atom_site_fract_y
_atom_site_fract_z
O1	O	0.755167	0.058553	-0.050437
O2	O	1.255167	0.558553	0.449563
O3	O	0.589282	0.067069	-0.050456
O4	O	1.089282	0.567069	0.449544
O5	O	0.677372	-0.007578	-0.050448
O6	O	1.177372	0.492422	0.449552
O7	O	0.667077	0.133200	-0.050445
O8	O	1.167077	0.633200	0.449555
O9	O	0.677345	-0.007568	0.050602
O10	O	1.177345	0.492432	0.550602
O11	O	0.589256	0.067079	0.050594
O12	O	1.089256	0.567079	0.550594
O13	O	0.755141	0.058562	0.050613
O14	O	1.255141	0.558562	0.550613
Cu15	Cu	0.672196	0.062822	0.059830
Cu16	Cu	1.172196	0.562822	0.559830
Cu17	Cu	0.672227	0.062810	-0.059673
Cu18	Cu	1.172227	0.562810	0.440327
O19	O	0.667051	0.133210	0.050605
O20	O	1.167051	0.633210	0.550605
C21	C	0.568053	0.066861	0.000067
C22	C	1.068053	0.566861	0.500067
C23	C	0.504835	0.066221	0.000059
C24	C	1.004835	0.566221	0.500059
C25	C	0.112815	0.062205	0.055167
C26	C	0.612815	0.562205	0.555167
C27	C	0.053417	0.061596	0.055170
C28	C	0.553417	0.561596	0.555170
O29	O	0.022687	0.061269	0.102015
O30	O	0.522687	0.561269	0.602015
N31	N	0.023724	0.061289	0.000087
N32	N	0.523724	0.561289	0.500087
C33	C	0.053432	0.061586	-0.055001
C34	C	0.553432	0.561586	0.444999
O35	O	0.022722	0.061268	-0.101853
O36	O	0.522722	0.561268	0.398147
C37	C	0.112830	0.062191	-0.055003
C38	C	0.612830	0.562191	0.444997
C39	C	0.142520	0.062503	0.000083
C40	C	0.642520	0.562503	0.500083
C41	C	0.142505	0.062517	0.110249
C42	C	0.642505	0.562517	0.610249
C43	C	0.201899	0.063126	0.110246
C44	C	0.701899	0.563126	0.610246
C45	C	0.231603	0.063425	0.055162
C46	C	0.731603	0.563425	0.555162
C47	C	0.201914	0.063113	0.000081
C48	C	0.701914	0.563113	0.500081
C49	C	0.142538	0.062484	-0.110090
C50	C	0.642538	0.562484	0.389910
C51	C	0.201940	0.063089	-0.110087
C52	C	0.701940	0.563089	0.389913
C53	C	0.231629	0.063402	-0.055001
C54	C	0.731629	0.563402	0.444999
C55	C	0.291012	0.064021	-0.055006
C56	C	0.791012	0.564021	0.444994
N57	N	0.320705	0.064328	0.000076
N58	N	0.820705	0.564328	0.500076
C59	C	0.291001	0.064030	0.055160
C60	C	0.791001	0.564030	0.555160
C61	C	-0.071307	0.060313	-0.054993
C62	C	0.428693	0.560313	0.445007
C63	C	-0.130704	0.059711	-0.054992
C64	C	0.369296	0.559711	0.445008
C65	C	-0.130714	0.059721	0.055179
C66	C	0.369286	0.559721	0.555179
C67	C	-0.071317	0.060326	0.055177
C68	C	0.428683	0.560326	0.555177
C69	C	-0.041613	0.060621	0.000089
C70	C	0.458387	0.560621	0.500089
C71	C	0.415732	0.065311	0.055151
C72	C	0.915732	0.565311	0.555151
C73	C	0.475131	0.065923	0.055143
C74	C	0.975131	0.565923	0.555143
C75	C	0.475137	0.065911	-0.055027
C76	C	0.975137	0.565911	0.444973
C77	C	0.415743	0.065302	-0.055020
C78	C	0.915743	0.565302	0.444980
C79	C	0.386042	0.065000	0.000074
C80	C	0.886042	0.565000	0.500074
O81	O	0.321780	0.064346	-0.101827
O82	O	0.821780	0.564346	0.398173
O83	O	0.321720	0.064341	0.102004
O84	O	0.821720	0.564341	0.602004
C85	C	0.677141	-0.025580	0.000075
C86	C	1.177141	0.474420	0.500075
C87	C	0.676486	-0.079236	0.000069
C88	C	1.176486	0.420764	0.500069
C89	C	0.619970	-0.456386	0.000060
C90	C	1.119970	0.043614	0.500060
C91	C	0.622381	-0.254723	0.000060
C92	C	1.122381	0.245277	0.500060
O93	O	0.578526	-0.223531	0.000031
O94	O	1.078526	0.276469	0.500031
N95	N	0.674616	-0.235523	0.000066
N96	N	1.174616	0.264477	0.500066
C97	C	0.726253	-0.266743	0.000068
C98	C	1.226253	0.233257	0.500068
O99	O	0.770738	-0.245785	0.000066
O100	O	1.270738	0.254215	0.500066
C101	C	0.723841	-0.468406	0.000064
C102	C	1.223841	0.031594	0.500064
C103	C	0.671603	-0.487602	0.000064
C104	C	1.171603	0.012398	0.500064
C105	C	0.567735	-0.475583	0.000060
C106	C	1.067735	0.024417	0.500060
C107	C	0.567133	-0.525996	0.000063
C108	C	1.067133	-0.025996	0.500063
C109	C	0.618766	-0.557212	0.000067
C110	C	1.118766	-0.057212	0.500067
C111	C	0.671000	-0.538015	0.000068
C112	C	1.171000	-0.038015	0.500068
C113	C	0.775477	-0.499625	0.000061
C114	C	1.275477	0.000375	0.500061
C115	C	0.774870	-0.550043	0.000059
C116	C	1.274870	-0.050043	0.500059
C117	C	0.722631	-0.569239	0.000059
C118	C	1.222631	-0.069239	0.500059
C119	C	0.722031	-0.619644	0.000075
C120	C	1.222031	-0.119644	0.500075
N121	N	0.669795	-0.638844	0.000069
N122	N	1.169795	-0.138844	0.500069
C123	C	0.618163	-0.607628	0.000065
C124	C	1.118163	-0.107628	0.500065
C125	C	0.727515	-0.160867	0.000071
C126	C	1.227515	0.339133	0.500071
C127	C	0.728118	-0.110451	0.000073
C128	C	1.228118	0.389549	0.500073
C129	C	0.624246	-0.098435	0.000064
C130	C	1.124246	0.401565	0.500064
C131	C	0.623644	-0.148851	0.000066
C132	C	1.123644	0.351149	0.500066
C133	C	0.675280	-0.180066	0.000065
C134	C	1.175280	0.319934	0.500065
C135	C	0.616902	-0.713499	0.000073
C136	C	1.116902	-0.213499	0.500073
C137	C	0.616304	-0.763917	0.000079
C138	C	1.116304	-0.263917	0.500079
C139	C	0.720176	-0.775929	0.000085
C140	C	1.220176	-0.275929	0.500085
C141	C	0.720774	-0.725516	0.000082
C142	C	1.220774	-0.225516	0.500082
C143	C	0.669132	-0.694301	0.000074
C144	C	1.169132	-0.194301	0.500074
O145	O	0.765862	-0.650864	0.000097
O146	O	1.265862	-0.150864	0.500097
O147	O	0.573684	-0.628595	0.000053
O148	O	1.073684	-0.128595	0.500053
C149	C	0.620572	-0.405973	0.000057
C150	C	1.120572	0.094027	0.500057
C151	C	0.672807	-0.386776	0.000057
C152	C	1.172807	0.113224	0.500057
C153	C	0.724439	-0.417992	0.000061
C154	C	1.224439	0.082008	0.500061
C155	C	0.673410	-0.336361	0.000059
C156	C	1.173410	0.163639	0.500059
C157	C	0.621777	-0.305145	0.000056
C158	C	1.121777	0.194855	0.500056
C159	C	0.569542	-0.324345	0.000050
C160	C	1.069542	0.175655	0.500050
C161	C	0.568940	-0.374758	0.000053
C162	C	1.068940	0.125242	0.500053
C163	C	0.776675	-0.398793	0.000067
C164	C	1.276675	0.101207	0.500067
C165	C	0.777273	-0.348379	0.000064
C166	C	1.277273	0.151621	0.500064
C167	C	0.725640	-0.317163	0.000060
C168	C	1.225640	0.182837	0.500060
C169	C	0.776370	0.058770	0.000089
C170	C	1.276370	0.558770	0.500089
C171	C	0.839587	0.059410	0.000092
C172	C	1.339587	0.559410	0.500092
C173	C	0.667282	0.151212	0.000081
C174	C	1.167282	0.651212	0.500081
C175	C	0.667937	0.204867	0.000083
C176	C	1.167937	0.704867	0.500083
N177	N	0.672178	0.062829	0.143883
N178	N	1.172178	0.562829	0.643883
C179	C	0.637926	0.033648	0.436483
C180	C	1.137926	0.533648	0.936483
C181	C	0.637921	0.033649	0.372875
C182	C	1.137921	0.533649	0.872875
O183	O	0.608779	0.008836	0.339974
O184	O	1.108779	0.508836	0.839974
N185	N	0.672199	0.062816	0.341067
N186	N	1.172199	0.562816	0.841067
C187	C	0.706488	0.091980	0.372870
C188	C	1.206488	0.591980	0.872870
O189	O	0.735644	0.116788	0.339974
O190	O	1.235644	0.616788	0.839974
C191	C	0.706495	0.091975	0.436476
C192	C	1.206495	0.591975	0.936476
C193	C	0.672211	0.062810	0.468281
C194	C	1.172211	0.562810	0.968281
C195	C	0.603645	0.004485	0.468288
C196	C	1.103645	0.504485	0.968288
C197	C	0.603648	0.004484	0.531891
C198	C	1.103648	0.504484	1.031891
C199	C	0.637933	0.033646	0.563689
C200	C	1.137933	0.533646	1.063689
C201	C	0.672215	0.062809	0.531884
C202	C	1.172215	0.562809	1.031884
C203	C	0.740787	0.121136	0.468278
C204	C	1.240787	0.621136	0.968278
C205	C	0.740791	0.121128	0.531888
C206	C	1.240791	0.621128	1.031888
C207	C	0.706507	0.091963	0.563693
C208	C	1.206507	0.591963	1.063693
C209	C	0.706503	0.091971	0.627286
C210	C	1.206503	0.591971	1.127286
N211	N	0.672226	0.062804	0.659094
N212	N	1.172226	0.562804	1.159094
C213	C	0.637941	0.033642	0.627296
C214	C	1.137941	0.533642	1.127296
C215	C	0.706471	0.091986	0.239292
C216	C	1.206471	0.591986	0.739292
C217	C	0.706461	0.091994	0.175687
C218	C	1.206461	0.591994	0.675687
C219	C	0.637895	0.033663	0.175697
C220	C	1.137895	0.533663	0.675697
C221	C	0.637902	0.033658	0.239303
C222	C	1.137902	0.533658	0.739303
C223	C	0.672193	0.062820	0.271100
C224	C	1.172193	0.562820	0.771100
C225	C	0.637951	0.033643	0.760867
C226	C	1.137951	0.533643	1.260867
C227	C	0.637956	0.033646	0.824476
C228	C	1.137956	0.533646	1.324476
C229	C	0.706524	0.091975	0.824460
C230	C	1.206524	0.591975	1.324460
C231	C	0.706517	0.091974	0.760857
C232	C	1.206517	0.591974	1.260857
C233	C	0.672229	0.062804	0.729062
C234	C	1.172229	0.562804	1.229062
O235	O	0.735632	0.116770	0.660228
O236	O	1.235632	0.616770	1.160228
O237	O	0.608795	0.008833	0.660200
O238	O	1.108795	0.508833	1.160200
N239	N	0.672241	0.062808	0.856274
N240	N	1.172241	0.562808	1.356274
H241	H	-0.047147	0.060581	0.100033
H242	H	0.452853	0.560581	0.600033
H243	H	0.610030	0.009890	0.734987
H244	H	1.110030	0.509890	1.234987
C245	C	0.744172	0.124081	0.140708
C246	C	1.244172	0.624081	0.640708
N247	N	0.772581	0.148248	0.114365
N248	N	1.272581	0.648248	0.614365
H249	H	0.610035	0.009896	0.850369
H250	H	1.110035	0.509896	1.350369
H251	H	0.499333	0.066156	-0.099875
H252	H	0.999333	0.566156	0.400125
C253	C	0.565935	-0.027602	0.566868
C254	C	1.065935	0.472398	1.066868
N255	N	0.537528	-0.051772	0.593209
N256	N	1.037528	0.448228	1.093209
H257	H	0.768717	0.144875	0.557774
H258	H	1.268717	0.644875	1.057774
C259	C	0.833478	-0.433124	0.000079
C260	C	1.333478	0.066876	0.500079
N261	N	0.876266	-0.458981	0.000094
N262	N	1.376266	0.041019	0.500094
H263	H	0.734393	0.115737	0.265177
H264	H	1.234393	0.615737	0.765177
H265	H	0.575725	-0.019265	0.442405
H266	H	1.075725	0.480735	0.942405
C267	C	0.600190	0.001572	0.274283
C268	C	1.100190	0.501572	0.774283
N269	N	0.571786	-0.022598	0.300626
N270	N	1.071786	0.477402	0.800626
C271	C	0.512746	-0.289998	0.000043
C272	C	1.012746	0.210002	0.500043
N273	N	0.469970	-0.264125	0.000034
N274	N	0.969970	0.235875	0.500034
H275	H	0.770657	-0.094826	0.000082
H276	H	1.270657	0.405174	0.500082
H277	H	0.526401	-0.390382	0.000054
H278	H	1.026401	0.109618	0.500054
H279	H	0.581106	-0.164477	0.000069
H280	H	1.081106	0.335523	0.500069
H281	H	0.769566	-0.186279	0.000071
H282	H	1.269566	0.313721	0.500071
C283	C	0.831675	-0.584377	0.000061
C284	C	1.331675	-0.084377	0.500061
N285	N	0.874461	-0.610237	0.000065
N286	N	1.374461	-0.110237	0.500065
C287	C	0.509666	-0.547106	0.000056
C288	C	1.009666	-0.047106	0.500056
N289	N	0.466378	-0.563001	0.000048
N290	N	0.966378	-0.063001	0.500048
C291	C	0.778508	0.153216	0.433306
C292	C	1.278508	0.653216	0.933306
N293	N	0.806925	0.177378	0.406967
N294	N	1.306925	0.677378	0.906967
C295	C	0.834744	-0.327270	0.000065
C296	C	1.334744	0.172730	0.500065
N297	N	0.878030	-0.311371	0.000060
N298	N	1.378030	0.188629	0.500060
C299	C	0.234610	0.063415	-0.170690
C300	C	0.734610	0.563415	0.329310
N301	N	0.259216	0.063661	-0.216336
N302	N	0.759216	0.563661	0.283664
H303	H	0.762214	-0.801354	0.000091
H304	H	1.262214	-0.301354	0.500091
H305	H	0.609978	0.009917	0.149795
H306	H	1.109978	0.509917	0.649795
H307	H	0.734426	0.115729	0.734960
H308	H	1.234426	0.615729	1.234960
C309	C	0.778239	-0.704399	0.000085
C310	C	1.278239	-0.204399	0.500085
N311	N	0.821523	-0.688497	0.000080
N312	N	1.321523	-0.188497	0.500080
H313	H	0.574850	-0.688090	0.000066
H314	H	1.074850	-0.188090	0.500066
H315	H	0.734437	0.115719	0.850362
H316	H	1.234437	0.615719	1.350362
H317	H	0.391556	0.065070	0.100014
H318	H	0.891556	0.565070	0.600014
C319	C	0.507787	0.066264	0.115745
C320	C	1.007787	0.566264	0.615745
N321	N	0.532381	0.066519	0.161389
N322	N	1.032381	0.566519	0.661389
H323	H	0.226068	0.063378	0.155103
H324	H	0.726068	0.563378	0.655103
C325	C	0.109894	0.062133	-0.170690
C326	C	0.609894	0.562133	0.329310
N327	N	0.085308	0.061865	-0.216338
N328	N	0.585308	0.561865	0.283662
H329	H	0.118327	0.062273	0.155107
H330	H	0.618327	0.562273	0.655107
C331	C	-0.163400	0.059388	0.115773
C332	C	0.336600	0.559388	0.615773
N333	N	-0.188020	0.059136	0.161409
N334	N	0.311980	0.559136	0.661409
C335	C	-0.163356	0.059372	-0.115591
C336	C	0.336644	0.559372	0.384409
N337	N	-0.187947	0.059112	-0.161236
N338	N	0.312053	0.559112	0.338764
C339	C	0.558835	-0.785029	0.000077
C340	C	1.058835	-0.285029	0.500077
N341	N	0.515550	-0.800930	0.000074
N342	N	1.015550	-0.300930	0.500074
H343	H	0.391567	0.065055	-0.099875
H344	H	0.891567	0.565055	0.400125
C345	C	0.510930	-0.441253	0.000056
C346	C	1.010930	0.058747	0.500056
N347	N	0.468141	-0.415398	0.000056
N348	N	0.968141	0.084602	0.500056
C349	C	0.567450	-0.064088	0.000055
C350	C	1.067450	0.435912	0.500055
N351	N	0.524673	-0.038216	0.000043
N352	N	1.024673	0.461784	0.500043
C353	C	-0.038639	0.060643	-0.115598
C354	C	0.461361	0.560643	0.384402
N355	N	-0.014036	0.060890	-0.161246
N356	N	0.485964	0.560890	0.338754
H357	H	0.818016	-0.484004	0.000061
H358	H	1.318016	0.015996	0.500061
