data_functionalizedCrystal
_audit_creation_method	'MofGen! by Chris Wilmer'
_symmetry_space_group_name_H-M	'P1'
_symmetry_Int_Tables_number	1
_symmetry_cell_setting	triclinic
loop_
_symmetry_equiv_pos_as_xyz
  x,y,z
_cell_length_a	18.101398
_cell_length_b	18.101389
_cell_length_c	19.077068
_cell_angle_alpha	92.277715
_cell_angle_beta	92.325013
_cell_angle_gamma	89.975198
loop_
_atom_site_label
_atom_site_type_symbol
_atom_site_fract_x
_atom_site_fract_y
_atom_site_fract_z
Zn1	Zn	1.120290	-0.430679	-0.280319
Zn2	Zn	1.115218	-0.311804	-0.398002
Zn3	Zn	0.996449	-0.306839	-0.280317
Zn4	Zn	0.991433	-0.435591	-0.397977
O5	O	1.055848	-0.371228	-0.339154
O6	O	1.223249	-0.414932	-0.295942
O7	O	1.099440	-0.207513	-0.382400
O8	O	1.017098	-0.319133	-0.181826
O9	O	1.219524	-0.327596	-0.382402
O10	O	1.108083	-0.410118	-0.181827
O11	O	1.012180	-0.203865	-0.295938
O12	O	0.892151	-0.323896	-0.295913
O13	O	1.008550	-0.538572	-0.382360
O14	O	0.888466	-0.418489	-0.382358
O15	O	1.103220	-0.534963	-0.295917
O16	O	1.094577	-0.332358	-0.496490
O17	O	1.003633	-0.423304	-0.496472
C18	C	0.863438	-0.371187	-0.339133
C19	C	0.781123	-0.371188	-0.339141
C20	C	0.630414	-0.371222	-0.339156
C21	C	0.601357	-0.311798	-0.284689
C22	C	0.515748	-0.311977	-0.284484
C23	C	0.482031	-0.371254	-0.339170
C24	C	0.514006	-0.448554	-0.319383
C25	C	0.599668	-0.448188	-0.318980
C26	C	0.595671	-0.354040	-0.413549
C27	C	0.510036	-0.352321	-0.413157
C28	C	0.398171	-0.371277	-0.339179
C29	C	0.714274	-0.371204	-0.339145
C30	C	1.055891	-0.564390	-0.339136
C31	C	1.055910	-0.646703	-0.339128
C32	C	1.055958	-0.945789	-0.338996
C33	C	0.996205	-0.916727	-0.393211
C34	C	0.996349	-0.831119	-0.393462
C35	C	1.055934	-0.797409	-0.339062
C36	C	1.133109	-0.829365	-0.359198
C37	C	1.132774	-0.915025	-0.359554
C38	C	1.039220	-0.911070	-0.264526
C39	C	1.037466	-0.825437	-0.264956
C40	C	1.055924	-0.713551	-0.339098
C41	C	1.055973	-1.029647	-0.338962
C42	C	1.249009	-0.371270	-0.339175
C43	C	1.331322	-0.371288	-0.339184
C44	C	1.048030	-0.378919	-0.522019
C45	C	1.044754	-0.382234	-0.600249
C46	C	1.055849	-0.178816	-0.339121
C47	C	1.055982	-0.096495	-0.338930
C48	C	1.090601	-0.336480	-0.636988
C49	C	1.087524	-0.339603	-0.710494
C50	C	1.038595	-0.388475	-0.747259
C51	C	0.992746	-0.434234	-0.710515
C52	C	0.995827	-0.431115	-0.637011
C53	C	1.024301	-0.402880	-0.967096
C54	C	1.021221	-0.405994	-1.040605
C55	C	1.116000	-0.311363	-1.040579
C56	C	1.119075	-0.308246	-0.967073
C57	C	1.073228	-0.354007	-0.930335
N58	N	1.035447	-0.391666	-0.822394
N59	N	1.076381	-0.350819	-0.855202
C60	C	1.063715	-0.363524	-0.155575
C61	C	1.067068	-0.360241	-0.077344
H62	H	0.494855	-0.463764	-0.265615
H63	H	0.621968	-0.463070	-0.264610
N64	N	1.088376	-0.796343	-0.211585
N65	N	1.065379	-0.757337	-0.161519
H66	H	1.101337	-0.736781	-0.123828
H67	H	1.082780	-0.929641	-0.224133
H68	H	1.124857	-0.302344	-0.740404
N69	N	0.486465	-0.505467	-0.367636
N70	N	0.498798	-0.502703	-0.431475
H71	H	0.479346	-0.542897	-0.465555
H72	H	0.981386	-0.445805	-1.070538
N73	N	1.140580	-0.286547	-0.599448
N74	N	1.181511	-0.245700	-0.632263
H75	H	1.216811	-0.210433	-0.605752
N76	N	0.942754	-0.484154	-0.748057
N77	N	0.901820	-0.524999	-0.715243
H78	H	0.866509	-0.560254	-0.741755
H79	H	1.147331	-0.937306	-0.413993
N80	N	1.169056	-0.258316	-0.929531
N81	N	1.209988	-0.217467	-0.962343
H82	H	1.245287	-0.182201	-0.935830
H83	H	0.616469	-0.298778	-0.431620
N84	N	1.162823	-0.264626	-1.078117
N85	N	1.160066	-0.267414	-1.143745
H86	H	1.193137	-0.234405	-1.170258
H87	H	0.958494	-0.468373	-0.607098
N88	N	0.483695	-0.280978	-0.431881
N89	N	0.444440	-0.244174	-0.390926
H90	H	0.425828	-0.193789	-0.404150
H91	H	1.006884	-0.940568	-0.448074
H92	H	1.178636	-0.934172	-0.321781
N93	N	1.190296	-0.801805	-0.311233
N94	N	1.242638	-0.765378	-0.333183
H95	H	1.283026	-0.745911	-0.299308
N96	N	0.977466	-0.449628	-0.929586
N97	N	0.933782	-0.493258	-0.962423
H98	H	0.900702	-0.526275	-0.935931
H99	H	0.625219	-0.322803	-0.229877
H100	H	0.984087	-0.931881	-0.246181
N101	N	0.488684	-0.239962	-0.299975
N102	N	0.533040	-0.189217	-0.311011
H103	H	0.513930	-0.138352	-0.321950
N104	N	1.009919	-0.808352	-0.462707
N105	N	1.019317	-0.855714	-0.510997
H106	H	1.028903	-0.839637	-0.559905
H107	H	0.939022	-0.809554	-0.380861
N108	N	0.626497	-0.239538	-0.299992
N109	N	0.666125	-0.230989	-0.351216
H110	H	0.683884	-0.179953	-0.362026
H111	H	1.147982	-0.810196	-0.413059
H112	H	0.618812	-0.493827	-0.356943
N113	N	0.493005	-0.325994	-0.215334
N114	N	0.511354	-0.384816	-0.187213
H115	H	0.495295	-0.394719	-0.138373
N116	N	0.480946	-0.402947	-0.466757
N117	N	0.438917	-0.454036	-0.451231
H118	H	0.418372	-0.489797	-0.489084
N119	N	0.618966	-0.408382	-0.464447
N120	N	0.660967	-0.459567	-0.446108
H121	H	0.677424	-0.497949	-0.482049
N122	N	0.924064	-0.941888	-0.377556
N123	N	0.915844	-0.981535	-0.326263
H124	H	0.864893	-0.999312	-0.315206
H125	H	0.980687	-0.804464	-0.249771
