data_functionalizedCrystal
_audit_creation_method	'MofGen! by Chris Wilmer'
_symmetry_space_group_name_H-M	'P1'
_symmetry_Int_Tables_number	1
_symmetry_cell_setting	triclinic
loop_
_symmetry_equiv_pos_as_xyz
  x,y,z
_cell_length_a	6.394989
_cell_length_b	17.699083
_cell_length_c	16.176319
_cell_angle_alpha	90.001389
_cell_angle_beta	90.003737
_cell_angle_gamma	84.890363
loop_
_atom_site_label
_atom_site_type_symbol
_atom_site_fract_x
_atom_site_fract_y
_atom_site_fract_z
O1	O	-0.264132	-1.006774	-0.068625
O2	O	-0.298496	-0.786747	-0.068651
O3	O	0.022766	-0.899883	-0.068638
O4	O	-0.585394	-0.893637	-0.068638
O5	O	0.022787	-0.899867	0.068855
O6	O	-0.298475	-0.786730	0.068842
O7	O	-0.264111	-1.006758	0.068868
Cu8	Cu	-0.281291	-0.896743	0.081409
Cu9	Cu	-0.281315	-0.896762	-0.081193
O10	O	-0.585373	-0.893621	0.068855
C11	C	-0.297254	-0.758529	0.000092
C12	C	-0.293560	-0.674473	0.000081
C13	C	-0.265353	-1.034976	0.000123
C14	C	-0.269047	-1.119031	0.000128
N15	N	-0.281273	-0.896735	0.195774
C16	C	0.100592	-0.898640	0.000105
C17	C	0.336808	-0.894866	0.000104
N18	N	-0.281317	-0.896776	-0.195558
C19	C	-0.482134	-0.627777	0.000082
C20	C	-0.478651	-0.548798	0.000092
C21	C	-0.286591	-0.516517	0.000097
C22	C	-0.098003	-0.563220	0.000099
C23	C	-0.101488	-0.642197	0.000094
C24	C	-0.083942	-0.244713	0.000119
C25	C	-0.080470	-0.165730	0.000122
C26	C	-0.461104	-0.151314	0.000118
C27	C	-0.464590	-0.230291	0.000113
C28	C	-0.276002	-0.276987	0.000119
C29	C	-0.279782	-0.362625	0.000109
C30	C	-0.282810	-0.430881	0.000101
C31	C	-0.139076	-0.946848	0.239044
C32	C	-0.139074	-0.946852	0.325591
C33	C	-0.281280	-0.896746	0.368867
C34	C	-0.423484	-0.846627	0.325591
C35	C	-0.423474	-0.846620	0.239045
C36	C	-0.423523	-0.846653	0.674619
C37	C	-0.423526	-0.846666	0.761171
C38	C	-0.139123	-0.946885	0.761165
C39	C	-0.139113	-0.946878	0.674620
C40	C	-0.281308	-0.896757	0.631351
C41	C	-0.281306	-0.896753	0.537507
C42	C	-0.281294	-0.896753	0.462710
H43	H	-0.638531	-0.654053	0.000078
H44	H	-0.620984	-0.256569	0.000106
O45	O	-0.561409	-0.797845	0.367591
C46	C	-0.527735	-0.722605	0.346441
H47	H	-0.360507	-0.720645	0.322656
H48	H	-0.643578	-0.701471	0.296204
C49	C	-0.765755	-0.674023	0.452542
C50	C	-0.560356	-0.671613	0.423335
H51	H	-0.785886	-0.642567	0.499972
H52	H	-0.788449	-0.724713	0.466790
H53	H	-0.862267	-0.656412	0.410671
H54	H	-0.463849	-0.689232	0.465202
H55	H	-0.537647	-0.620925	0.409096
H56	H	0.069618	-0.282724	0.000125
H57	H	-0.632207	-0.510780	0.000092
O58	O	-0.644360	-0.105983	-0.000027
C59	C	-0.761014	-0.120907	-0.071230
H60	H	-0.650610	-0.146833	-0.121000
H61	H	-0.881702	-0.162258	-0.055138
C62	C	-1.010150	-0.014489	-0.042387
C63	C	-0.874547	-0.046325	-0.103518
H64	H	-1.080191	0.031515	-0.062302
H65	H	-0.931564	-0.004436	0.005586
H66	H	-1.110704	-0.048955	-0.028982
H67	H	-0.773980	-0.011864	-0.116914
H68	H	-0.953119	-0.056371	-0.151494
O69	O	-0.561739	-0.797912	0.803082
C70	C	-0.687274	-0.753683	0.746335
H71	H	-0.601642	-0.752008	0.684645
H72	H	-0.842363	-0.779724	0.737121
C73	C	-0.835749	-0.674513	0.855896
C74	C	-0.730567	-0.672450	0.780129
H75	H	-0.862464	-0.624405	0.876743
H76	H	-0.751181	-0.704312	0.894129
H77	H	-0.964979	-0.696217	0.848208
H78	H	-0.601329	-0.650756	0.787821
H79	H	-0.815115	-0.642645	0.741899
O80	O	-0.000867	-0.995409	0.632455
C81	C	-0.031149	-0.984581	0.546789
H82	H	-0.197449	-0.958036	0.534921
H83	H	0.086658	-0.945330	0.522354
C84	C	0.205529	-1.094235	0.516829
C85	C	0.001271	-1.061638	0.502252
H86	H	0.225536	-1.141766	0.489354
H87	H	0.225938	-1.101529	0.574543
H88	H	0.303678	-1.061519	0.496466
H89	H	-0.096873	-1.094349	0.522624
H90	H	-0.019154	-1.054351	0.444539
H91	H	0.075937	-0.139450	0.000126
O92	O	-0.561898	-0.798020	0.197047
C93	C	-0.768623	-0.812278	0.218198
H94	H	-0.769443	-0.872881	0.241980
H95	H	-0.830121	-0.770919	0.268436
C96	C	-0.909248	-0.727424	0.112100
C97	C	-0.910258	-0.801860	0.141304
H98	H	-0.996620	-0.720995	0.064670
H99	H	-0.769975	-0.717816	0.097852
H100	H	-0.960492	-0.692967	0.153972
H101	H	-0.858991	-0.836316	0.099435
H102	H	-1.049527	-0.811474	0.155543
H103	H	0.058376	-0.536930	0.000114
H104	H	0.052069	-0.680217	0.000093
O105	O	-0.000733	-0.995549	0.197138
C106	C	0.124739	-1.039792	0.253893
H107	H	0.126981	-1.008746	0.315589
H108	H	0.057114	-1.096658	0.263087
C109	C	0.347368	-1.091375	0.144350
C110	C	0.350136	-1.053240	0.220124
H111	H	0.486401	-1.099674	0.123519
H112	H	0.262831	-1.061570	0.106112
H113	H	0.291004	-1.138760	0.152023
H114	H	0.406475	-1.005853	0.212449
H115	H	0.434688	-1.083038	0.258360
H116	H	-0.023285	-0.987657	0.360821
H117	H	-0.023333	-0.987694	0.796404
H118	H	-0.539307	-0.805845	0.639397
