data_functionalizedCrystal
_audit_creation_method	'MofGen! by Chris Wilmer'
_symmetry_space_group_name_H-M	'P1'
_symmetry_Int_Tables_number	1
_symmetry_cell_setting	triclinic
loop_
_symmetry_equiv_pos_as_xyz
  x,y,z
_cell_length_a	17.038278
_cell_length_b	16.098538
_cell_length_c	17.038272
_cell_angle_alpha	87.079695
_cell_angle_beta	88.888972
_cell_angle_gamma	87.064023
loop_
_atom_site_label
_atom_site_type_symbol
_atom_site_fract_x
_atom_site_fract_y
_atom_site_fract_z
O1	O	1.052037	-0.069264	-0.167251
O2	O	0.824226	-0.069265	-0.164545
O3	O	0.936777	-0.069258	-0.051993
O4	O	0.939486	-0.069271	-0.279803
O5	O	0.930201	0.069255	-0.058540
O6	O	0.817649	0.069248	-0.171092
O7	O	1.045461	0.069248	-0.173798
Zn8	Zn	0.930511	0.091240	-0.173485
Zn9	Zn	0.939176	-0.091256	-0.164859
O10	O	0.932909	0.069241	-0.286351
C11	C	0.791645	-0.000008	-0.165356
C12	C	0.704361	-0.000008	-0.158009
C13	C	0.210936	-0.000009	-0.112871
C14	C	0.292947	-0.000004	-0.119781
C15	C	0.329347	-0.000012	-0.194154
C16	C	0.283731	-0.000016	-0.261622
C17	C	0.201721	-0.000015	-0.254712
C18	C	0.576735	-0.000011	-0.218567
C19	C	0.658751	-0.000015	-0.225472
C20	C	0.667962	-0.000001	-0.083630
C21	C	0.585950	-0.000005	-0.076726
C22	C	0.540340	-0.000005	-0.144194
C23	C	0.413176	-0.000010	-0.201219
C24	C	0.456513	-0.000001	-0.137129
C25	C	0.931026	-0.000002	-0.025973
C26	C	0.923678	-0.000002	0.061310
C27	C	1.078042	-0.000010	-0.172987
C28	C	1.165326	-0.000015	-0.180334
N29	N	0.924603	0.215789	-0.179372
N30	N	0.945089	-0.215805	-0.158966
C31	C	0.972394	0.259377	-0.131619
C32	C	0.968269	0.346565	-0.135745
C33	C	0.916356	0.390165	-0.187629
C34	C	0.868560	0.346571	-0.235383
C35	C	0.872681	0.259383	-0.231252
C36	C	0.901414	0.653414	-0.202589
C37	C	0.897298	0.740607	-0.206718
C38	C	0.997007	0.740596	-0.107079
C39	C	1.001127	0.653407	-0.102956
C40	C	0.953328	0.609821	-0.150708
C41	C	0.912141	0.479286	-0.191849
C42	C	0.957540	0.520701	-0.146483
C43	C	0.938661	-0.000017	-0.312370
C44	C	0.946009	-0.000022	-0.399653
C45	C	0.991142	-0.000001	0.106920
C46	C	0.984233	-0.000009	0.188932
C47	C	0.909860	-0.000012	0.225333
C48	C	0.842392	-0.000015	0.179717
C49	C	0.849301	-0.000013	0.097706
C50	C	0.885450	-0.000023	0.472721
C51	C	0.878545	-0.000023	0.554737
C52	C	1.020388	-0.000018	0.563947
C53	C	1.027291	-0.000011	0.481934
C54	C	0.959822	-0.000019	0.436326
C55	C	0.902796	-0.000017	0.309162
C56	C	0.966887	-0.000019	0.352498
H57	H	0.426872	-0.000004	-0.076574
H58	H	0.164586	-0.000018	-0.309648
H59	H	0.442823	-0.000019	-0.261774
H60	H	0.817978	-0.000012	0.584371
C61	C	0.986917	0.161390	-0.021207
C62	C	1.029436	0.211477	-0.074550
H63	H	1.022127	0.131824	0.014035
H64	H	0.950730	0.195432	0.007583
H65	H	0.959070	0.122935	-0.049063
H66	H	1.057279	0.249936	-0.046694
H67	H	1.065637	0.177432	-0.103342
C68	C	1.067262	0.337797	-0.036866
C69	C	1.020816	0.394477	-0.083267
H70	H	1.099708	0.367377	-0.004473
H71	H	1.034308	0.303810	-0.004805
H72	H	1.099278	0.303772	-0.069855
H73	H	0.988795	0.428498	-0.050278
H74	H	1.053774	0.428478	-0.115332
C75	C	1.062142	-0.071221	0.289850
C76	C	1.058395	-0.000011	0.239062
H77	H	1.107933	-0.071225	0.320793
H78	H	1.016869	-0.071219	0.323267
H79	H	1.064179	-0.119514	0.259933
H80	H	1.056352	0.048282	0.268980
H81	H	1.103680	-0.000005	0.205642
C82	C	0.773718	0.268146	-0.330163
C83	C	0.820152	0.211468	-0.283747
H84	H	0.741291	0.238564	-0.362573
H85	H	0.741691	0.302164	-0.297189
H86	H	0.806687	0.302141	-0.362214
H87	H	0.787183	0.177478	-0.251691
H88	H	0.852182	0.177437	-0.316724
H89	H	1.043399	0.617910	-0.060709
H90	H	0.862496	0.617933	-0.241472
H91	H	0.794365	-0.000014	0.060572
H92	H	0.855022	0.776101	-0.248971
C93	C	1.002304	0.838654	-0.005987
C94	C	1.049536	0.788509	-0.054585
H95	H	1.034734	0.868230	0.026427
H96	H	0.970807	0.877093	-0.037480
H97	H	0.969346	0.804644	0.026061
H98	H	1.082490	0.822520	-0.086637
H99	H	1.081047	0.750066	-0.023088
H100	H	0.826287	0.382074	-0.277625
H101	H	0.330080	0.000005	-0.064845
C102	C	0.127440	-0.071207	-0.019439
C103	C	0.170929	-0.000003	-0.031116
H104	H	0.102749	-0.071202	0.031036
H105	H	0.088540	-0.071206	-0.058623
H106	H	0.161544	-0.119504	-0.022800
H107	H	0.136825	0.048295	-0.027761
H108	H	0.209834	0.000004	0.008078
C109	C	0.475791	0.071180	-0.296461
C110	C	0.526606	-0.000024	-0.292725
H111	H	0.444844	0.071170	-0.342248
H112	H	0.442379	0.071183	-0.251185
H113	H	0.505690	0.119477	-0.298499
H114	H	0.496706	-0.048321	-0.290681
H115	H	0.560021	-0.000035	-0.338013
H116	H	0.781835	-0.000023	0.209361
C117	C	0.297750	0.071178	-0.388016
C118	C	0.323740	-0.000023	-0.343376
H119	H	0.322453	0.071173	-0.438486
H120	H	0.242387	0.071173	-0.393553
H121	H	0.310798	0.119477	-0.362286
H122	H	0.310687	-0.048323	-0.369103
H123	H	0.379115	-0.000026	-0.337842
C124	C	0.801773	0.577370	-0.206365
C125	C	0.855085	0.527219	-0.248882
H126	H	0.766553	0.606968	-0.241575
H127	H	0.772955	0.543368	-0.170183
H128	H	0.829657	0.615797	-0.178511
H129	H	0.827201	0.488788	-0.276732
H130	H	0.883905	0.561224	-0.285077
H131	H	1.087853	-0.000008	0.452303
H132	H	0.999805	0.485200	-0.104236
H133	H	0.556319	0.000002	-0.016164
H134	H	1.051704	0.000006	0.077289
H135	H	0.688385	-0.000009	-0.286039
H136	H	0.705105	-0.000000	-0.028701
C137	C	0.807554	0.071174	0.371788
C138	C	0.811293	-0.000027	0.422589
H139	H	0.761773	0.071167	0.340832
H140	H	0.805509	0.119468	0.401691
H141	H	0.852841	0.071165	0.338377
H142	H	0.766009	-0.000014	0.456003
H143	H	0.813332	-0.048333	0.392683
C144	C	1.098286	-0.071229	0.664873
C145	C	1.094547	-0.000021	0.614081
H146	H	1.144075	-0.071234	0.695819
H147	H	1.053010	-0.071222	0.698285
H148	H	1.100324	-0.119523	0.634957
H149	H	1.092504	0.048274	0.643996
H150	H	1.139835	-0.000020	0.580664
H151	H	1.027442	-0.000035	0.322858
H152	H	0.842241	-0.000018	0.338808
