data_functionalizedCrystal
_audit_creation_method	'MofGen! by Chris Wilmer'
_symmetry_space_group_name_H-M	'P1'
_symmetry_Int_Tables_number	1
_symmetry_cell_setting	triclinic
loop_
_symmetry_equiv_pos_as_xyz
  x,y,z
_cell_length_a	14.853566
_cell_length_b	23.532407
_cell_length_c	13.930277
_cell_angle_alpha	89.999972
_cell_angle_beta	89.996241
_cell_angle_gamma	83.241546
loop_
_atom_site_label
_atom_site_type_symbol
_atom_site_fract_x
_atom_site_fract_y
_atom_site_fract_z
O1	O	1.195556	0.074342	-0.079778
O2	O	0.933000	0.083200	-0.079795
O3	O	1.072196	-0.004127	-0.079768
O4	O	1.056361	0.161668	-0.079804
O5	O	1.072175	-0.004113	0.079894
O6	O	0.932980	0.083213	0.079867
O7	O	1.195536	0.074355	0.079884
Zn8	Zn	1.064255	0.078786	0.105225
Zn9	Zn	1.064281	0.078769	-0.105136
O10	O	1.056340	0.161681	0.079858
C11	C	0.899405	0.082805	0.000034
C12	C	0.799335	0.081603	0.000029
C13	C	0.376217	0.076510	-0.086985
C14	C	0.376216	0.076525	0.087084
C15	C	0.470237	0.077654	0.087081
C16	C	0.517253	0.078212	0.000044
C17	C	0.470247	0.077641	-0.086991
C18	C	0.517250	0.078231	0.174114
C19	C	0.611277	0.079361	0.174114
C20	C	0.658295	0.079915	0.087076
C21	C	0.611283	0.079343	0.000038
C22	C	0.658299	0.079901	-0.087000
C23	C	0.611289	0.079325	-0.174039
C24	C	0.517265	0.078195	-0.174030
C25	C	0.752319	0.081045	0.087066
C26	C	0.752329	0.081032	-0.087006
C27	C	1.071782	-0.025338	0.000065
C28	C	1.070570	-0.088560	0.000073
C29	C	1.145339	-0.487337	0.000025
C30	C	1.144213	-0.546742	0.000017
O31	O	1.213524	-0.583184	-0.000013
N32	N	1.061461	-0.569729	0.000013
C33	C	0.979830	-0.533308	0.000006
O34	O	0.909340	-0.558315	0.000000
C35	C	0.980957	-0.473904	0.000006
C36	C	1.063714	-0.450920	0.000021
C37	C	1.228089	-0.464353	0.000038
C38	C	1.229215	-0.404952	0.000047
C39	C	1.147591	-0.368535	0.000043
C40	C	1.064840	-0.391519	0.000030
C41	C	0.899327	-0.437483	-0.000008
C42	C	0.900462	-0.378076	-0.000008
C43	C	0.983219	-0.355092	0.000006
C44	C	0.984341	-0.295701	0.000035
N45	N	1.067093	-0.272714	0.000039
C46	C	1.148718	-0.309131	0.000044
C47	C	0.977469	-0.658060	0.000003
C48	C	0.976341	-0.717463	0.000009
C49	C	1.140724	-0.730894	0.000019
C50	C	1.141851	-0.671490	0.000020
C51	C	1.060221	-0.635073	0.000008
C52	C	1.151076	-0.184384	0.000064
C53	C	1.152194	-0.124977	0.000077
C54	C	0.987812	-0.111552	0.000062
C55	C	0.986693	-0.170953	0.000054
C56	C	1.068332	-0.207369	0.000051
O57	O	0.915066	-0.259224	0.000062
O58	O	1.219196	-0.284115	0.000037
C59	C	1.229131	0.074750	0.000053
C60	C	1.329201	0.075952	0.000053
C61	C	1.056754	0.182892	0.000022
C62	C	1.057966	0.246115	0.000009
N63	N	1.064243	0.078798	0.248792
N64	N	1.064300	0.078752	-0.248702
C65	C	1.118659	0.113362	0.701047
C66	C	1.009932	0.044152	0.701045
C67	C	1.009918	0.044161	0.600549
C68	C	1.064277	0.078771	0.550297
C69	C	1.118649	0.113371	0.600541
C70	C	0.955554	0.009557	0.550297
C71	C	0.955539	0.009565	0.449795
C72	C	1.009893	0.044177	0.399542
C73	C	1.064267	0.078780	0.449792
C74	C	1.118625	0.113389	0.399541
C75	C	1.172994	0.147995	0.449789
C76	C	1.173003	0.147984	0.550288
C77	C	1.009884	0.044188	0.299043
C78	C	1.118615	0.113398	0.299036
H79	H	0.337929	0.076074	0.157946
F80	F	0.802360	0.081621	-0.179646
H81	H	0.911267	-0.018613	0.408891
F82	F	0.952086	0.007319	0.754528
H83	H	0.478962	0.077780	0.244975
F84	F	0.326190	0.075883	-0.179614
H85	H	0.649544	0.079828	0.244987
F86	F	1.230860	0.184811	0.603772
H87	H	0.649581	0.079783	-0.244905
F88	F	1.176514	0.150193	0.754524
H89	H	1.217555	-0.214027	0.000058
H90	H	0.790589	0.081519	0.157932
F91	F	0.897706	-0.027274	0.603783
F92	F	0.467232	0.077564	-0.266654
H93	H	1.219588	-0.106267	0.000091
F94	F	1.317297	-0.380499	0.000042
F95	F	1.314974	-0.503102	0.000042
H96	H	0.965620	0.016011	0.258135
H97	H	1.209239	-0.652781	0.000031
H98	H	1.207187	-0.760555	0.000019
F99	F	0.888260	-0.741917	0.000011
H100	H	0.919305	-0.189667	0.000069
F101	F	0.890581	-0.619308	-0.000001
H102	H	0.831938	-0.456186	-0.000025
F103	F	0.813577	-0.339322	-0.000023
F104	F	1.176467	0.150238	0.245562
H105	H	0.921355	-0.081891	0.000062
F106	F	1.230850	0.184824	0.396296
