data_functionalizedCrystal
_audit_creation_method	'MofGen! by Chris Wilmer'
_symmetry_space_group_name_H-M	'P1'
_symmetry_Int_Tables_number	1
_symmetry_cell_setting	triclinic
loop_
_symmetry_equiv_pos_as_xyz
  x,y,z
_cell_length_a	9.065218
_cell_length_b	14.971482
_cell_length_c	14.048226
_cell_angle_alpha	89.994098
_cell_angle_beta	90.004897
_cell_angle_gamma	95.685753
loop_
_atom_site_label
_atom_site_type_symbol
_atom_site_fract_x
_atom_site_fract_y
_atom_site_fract_z
O1	O	-0.192235	1.188382	-0.079145
O2	O	-0.215264	0.928153	-0.079149
O3	O	0.011002	1.063646	-0.079144
O4	O	-0.418501	1.052888	-0.079150
O5	O	0.011015	1.063630	0.079177
O6	O	-0.215251	0.928136	0.079172
O7	O	-0.192222	1.188365	0.079176
Zn8	Zn	-0.203734	1.058248	0.104311
Zn9	Zn	-0.203752	1.058270	-0.104284
O10	O	-0.418488	1.052872	0.079171
C11	C	-0.214229	0.894812	0.000011
C12	C	-0.211145	0.795492	0.000009
C13	C	-0.209686	0.748827	0.086311
C14	C	-0.206765	0.655507	0.086312
C15	C	-0.205314	0.608852	0.000010
C16	C	-0.206770	0.655524	-0.086298
C17	C	-0.209680	0.748843	-0.086299
C18	C	-0.200708	0.461017	-0.086292
C19	C	-0.197800	0.367691	-0.086293
C20	C	-0.197793	0.367681	0.086318
C21	C	-0.200703	0.461000	0.086318
C22	C	-0.202161	0.507665	0.000009
C23	C	-0.473460	1.053914	0.000010
C24	C	-0.637240	1.057005	0.000008
C25	C	0.065974	1.062604	0.000015
C26	C	0.229754	1.059513	0.000011
C27	C	-0.193257	1.221706	0.000014
C28	C	-0.196341	1.321026	0.000009
N29	N	-0.203721	1.058240	0.246672
N30	N	-0.203753	1.058285	-0.246645
C31	C	-0.103572	1.118255	0.296492
C32	C	-0.103571	1.118262	0.396150
C33	C	-0.203728	1.058255	0.445985
C34	C	-0.303882	0.998233	0.396158
C35	C	-0.303874	0.998223	0.296502
C36	C	-0.303893	0.998259	0.603872
C37	C	-0.303902	0.998269	0.703535
C38	C	-0.103589	1.118297	0.703520
C39	C	-0.103582	1.118287	0.603864
C40	C	-0.203738	1.058266	0.554043
H41	H	-0.205578	0.617531	-0.156567
C42	C	-0.196190	0.316374	-0.181227
C43	C	-0.322200	0.243099	-0.204978
C44	C	-0.320589	0.191784	-0.299914
C45	C	-0.192967	0.213745	-0.371100
C46	C	-0.066947	0.287024	-0.347351
C47	C	-0.068559	0.338338	-0.252415
H48	H	-0.416682	0.226839	-0.152280
H49	H	-0.413877	0.137539	-0.317495
H50	H	-0.191774	0.175759	-0.441378
H51	H	0.027534	0.303283	-0.400049
H52	H	0.024730	0.392584	-0.234834
H53	H	-0.210879	0.786806	0.156588
H54	H	-0.022039	1.167168	0.744089
C55	C	0.006586	1.184293	0.549040
C56	C	0.174595	1.181441	0.562748
C57	C	0.284767	1.247445	0.507922
C58	C	0.226929	1.316302	0.439388
C59	C	0.058912	1.319157	0.425677
C60	C	-0.051260	1.253153	0.480503
H61	H	0.217418	1.130466	0.613483
H62	H	0.409145	1.245331	0.518072
H63	H	0.308485	1.365162	0.398803
H64	H	0.016090	1.370132	0.374941
H65	H	-0.175637	1.255267	0.470352
H66	H	-0.385424	0.949351	0.255939
H67	H	-0.210871	0.786836	-0.156575
H68	H	-0.022019	1.167123	0.255922
C69	C	-0.414068	0.932255	0.758351
C70	C	-0.524217	0.866229	0.703548
C71	C	-0.634384	0.800212	0.758362
C72	C	-0.634402	0.800222	0.867980
C73	C	-0.524249	0.866251	0.922789
C74	C	-0.414082	0.932268	0.867975
H75	H	-0.524207	0.866219	0.622397
H76	H	-0.715926	0.751333	0.717788
H77	H	-0.715954	0.751353	0.908557
H78	H	-0.524258	0.866261	1.003940
H79	H	-0.332539	0.981147	0.908549
H80	H	-0.205552	0.617519	0.156588
C81	C	-0.202266	0.512315	0.181256
C82	C	-0.329844	0.490358	0.252475
C83	C	-0.331386	0.541670	0.347416
C84	C	-0.205351	0.614937	0.371139
C85	C	-0.077764	0.636897	0.299919
C86	C	-0.076221	0.585586	0.204977
H87	H	-0.423152	0.436118	0.234915
H88	H	-0.425836	0.525413	0.400138
H89	H	-0.206493	0.652921	0.441421
H90	H	0.015544	0.691138	0.317478
H91	H	0.018228	0.601843	0.152255
H92	H	-0.196606	0.329682	0.156594
H93	H	-0.385427	0.949370	0.436740
H94	H	-0.201895	0.499008	-0.156574
H95	H	-0.022021	1.167130	0.436713
H96	H	-0.385446	0.949380	0.563312
