data_functionalizedCrystal
_audit_creation_method	'MofGen! by Chris Wilmer'
_symmetry_space_group_name_H-M	'P1'
_symmetry_Int_Tables_number	1
_symmetry_cell_setting	triclinic
loop_
_symmetry_equiv_pos_as_xyz
  x,y,z
_cell_length_a	6.817900
_cell_length_b	16.417823
_cell_length_c	12.200875
_cell_angle_alpha	94.313526
_cell_angle_beta	107.143593
_cell_angle_gamma	103.385419
loop_
_atom_site_label
_atom_site_type_symbol
_atom_site_fract_x
_atom_site_fract_y
_atom_site_fract_z
V1	V	-4.067880	-0.116075	-0.358058
O2	O	-4.055060	0.005382	-0.350834
O3	O	-4.018684	-0.229969	-0.356002
O4	O	-4.037610	-0.114376	-0.514041
O5	O	-4.036003	-0.111012	-0.191701
V6	V	-4.549262	-0.101537	-0.338113
O7	O	-4.333835	-0.147965	-0.401810
O8	O	-4.733504	-0.069647	-0.294361
O9	O	-4.375251	0.012357	-0.340169
O10	O	-4.679479	-0.222995	-0.345337
O11	O	-4.698536	-0.106601	-0.504470
O12	O	-4.356326	-0.103237	-0.182131
C13	C	-3.862905	-0.257732	-0.350455
C14	C	-3.904089	-0.350842	-0.349814
C15	C	-3.985231	-0.640551	-0.242704
C16	C	-3.946505	-0.553061	-0.243288
C17	C	-4.051285	-0.577074	-0.453480
C18	C	-4.089996	-0.664562	-0.452894
C19	C	-4.056977	-0.696298	-0.347503
C20	C	-3.979540	-0.521320	-0.348673
C21	C	-3.937551	-0.426460	-0.349307
C22	C	-4.098964	-0.791164	-0.346868
C23	C	-3.887045	-0.110279	-0.552048
C24	C	-3.943574	-0.109643	-0.679567
C25	C	-4.047030	-0.108480	-0.913037
C26	C	-3.989451	-0.109127	-0.783117
C27	C	-4.194373	0.040115	-0.345713
C28	C	-4.132427	0.133224	-0.346362
C29	C	-4.170232	-0.107336	-0.144118
C30	C	-4.092942	-0.107968	-0.016598
H31	H	-3.958335	-0.666387	-0.156887
H32	H	-4.148413	-0.709954	-0.538239
H33	H	-3.888082	-0.507674	-0.157950
C34	C	-4.087644	-0.542162	-0.569402
H35	H	-4.054342	-0.482074	-0.554744
H36	H	-3.998606	-0.558700	-0.608822
H37	H	-4.232456	-0.564167	-0.616151
