data_functionalizedCrystal
_audit_creation_method	'MofGen! by Chris Wilmer'
_symmetry_space_group_name_H-M	'P1'
_symmetry_Int_Tables_number	1
_symmetry_cell_setting	triclinic
loop_
_symmetry_equiv_pos_as_xyz
  x,y,z
_cell_length_a	15.944551
_cell_length_b	17.699083
_cell_length_c	16.776229
_cell_angle_alpha	90.007545
_cell_angle_beta	90.002650
_cell_angle_gamma	83.390876
loop_
_atom_site_label
_atom_site_type_symbol
_atom_site_fract_x
_atom_site_fract_y
_atom_site_fract_z
O1	O	-1.114322	-0.097616	-0.066207
O2	O	-0.614322	0.402384	0.433793
O3	O	-0.869747	-0.109651	-0.066227
O4	O	-0.369747	0.390349	0.433773
O5	O	-0.998944	0.006544	-0.066209
O6	O	-0.498944	0.506544	0.433791
O7	O	-0.985125	-0.213811	-0.066224
O8	O	-0.485125	0.286189	0.433776
O9	O	-0.998927	0.006551	0.066367
O10	O	-0.498927	0.506551	0.566367
O11	O	-0.869730	-0.109643	0.066350
O12	O	-0.369730	0.390357	0.566350
O13	O	-1.114305	-0.097609	0.066370
O14	O	-0.614305	0.402391	0.566370
Zn15	Zn	-0.992015	-0.103625	0.087409
Zn16	Zn	-0.492015	0.396375	0.587409
Zn17	Zn	-0.992037	-0.103634	-0.087266
Zn18	Zn	-0.492037	0.396366	0.412734
O19	O	-0.985107	-0.213803	0.066352
O20	O	-0.485107	0.286197	0.566352
C21	C	-0.838445	-0.109147	0.000059
C22	C	-0.338445	0.390853	0.500059
C23	C	-0.745203	-0.107650	0.000052
C24	C	-0.245203	0.392350	0.500052
C25	C	-0.998440	0.034746	0.000079
C26	C	-0.498440	0.534746	0.500079
C27	C	-0.996955	0.118766	0.000079
C28	C	-0.496955	0.618766	0.500079
C29	C	-1.145606	-0.098112	0.000082
C30	C	-0.645606	0.401888	0.500082
C31	C	-1.238849	-0.099610	0.000084
C32	C	-0.738849	0.400390	0.500084
C33	C	-0.530505	-0.032046	0.000072
C34	C	-0.030505	0.467954	0.500072
C35	C	-0.469419	-0.067158	-0.065297
C36	C	0.030581	0.432842	0.434703
C37	C	-0.574482	-0.104940	0.000061
C38	C	-0.074482	0.395060	0.500061
C39	C	-0.469425	-0.067168	0.065413
C40	C	0.030575	0.432832	0.565413
C41	C	-0.409575	-0.102317	0.000074
C42	C	0.090425	0.397683	0.500074
C43	C	-0.514625	-0.140071	-0.065362
C44	C	-0.014625	0.359929	0.434638
C45	C	-0.514637	-0.140071	0.065406
C46	C	-0.014637	0.359929	0.565406
C47	C	-0.453569	-0.175235	0.000021
C48	C	0.046431	0.324765	0.500021
C49	C	-0.669481	-0.106449	0.000053
C50	C	-0.169481	0.393551	0.500053
C51	C	-0.314577	-0.100814	0.000076
C52	C	0.185423	0.399186	0.500076
C53	C	-0.985611	-0.242005	0.000062
C54	C	-0.485611	0.257995	0.500062
C55	C	-0.987097	-0.326026	0.000057
C56	C	-0.487097	0.173974	0.500057
N57	N	-0.992005	-0.103618	0.206620
N58	N	-0.492005	0.396382	0.706620
C59	C	-1.072791	0.167258	0.000087
C60	C	-0.572791	0.667258	0.500087
C61	C	-1.071390	0.246203	0.000080
C62	C	-0.571390	0.746203	0.500080
C63	C	-0.994152	0.276656	0.000071
C64	C	-0.494152	0.776656	0.500071
C65	C	-0.918310	0.228158	0.000061
C66	C	-0.418310	0.728158	0.500061
C67	C	-0.919712	0.149214	0.000063
C68	C	-0.419712	0.649214	0.500063
C69	C	-0.912656	0.546531	0.000054
C70	C	-0.412656	1.046531	0.500054
C71	C	-0.911260	0.625481	0.000055
C72	C	-0.411260	1.125481	0.500055
C73	C	-1.064334	0.643520	0.000071
C74	C	-0.564334	1.143520	0.500071
C75	C	-1.065735	0.564576	0.000073
C76	C	-0.565735	1.064576	0.500073
C77	C	-0.989894	0.516085	0.000059
C78	C	-0.489894	1.016085	0.500059
C79	C	-0.991414	0.430484	0.000065
C80	C	-0.491414	0.930484	0.500065
C81	C	-0.992632	0.362256	0.000070
C82	C	-0.492632	0.862256	0.500070
N83	N	-0.992053	-0.103635	-0.206477
N84	N	-0.492053	0.396365	0.293523
C85	C	-1.049231	-0.052188	0.248345
C86	C	-0.549231	0.447812	0.748345
C87	C	-1.049236	-0.052187	0.331797
C88	C	-0.549236	0.447813	0.831797
C89	C	-0.992018	-0.103621	0.373523
C90	C	-0.492018	0.396379	0.873523
C91	C	-0.934786	-0.155053	0.331793
C92	C	-0.434786	0.344947	0.831793
C93	C	-0.934778	-0.155050	0.248342
C94	C	-0.434778	0.344950	0.748342
C95	C	-0.934816	-0.155068	0.668340
C96	C	-0.434816	0.344932	1.168340
C97	C	-0.934830	-0.155069	0.751796
C98	C	-0.434830	0.344931	1.251796
C99	C	-1.049274	-0.052206	0.751795
C100	C	-0.549274	0.447794	1.251795
C101	C	-1.049266	-0.052202	0.668345
C102	C	-0.549266	0.447798	1.168345
C103	C	-0.992032	-0.103632	0.626621
C104	C	-0.492032	0.396368	1.126621
C105	C	-0.992026	-0.103631	0.536133
C106	C	-0.492026	0.396369	1.036133
C107	C	-0.992027	-0.103626	0.464010
C108	C	-0.492027	0.396374	0.964010
H109	H	-0.563965	0.028449	-0.000004
H110	H	-0.063965	0.528449	0.499996
Cl111	Cl	-0.438483	-0.019565	-0.150618
Cl112	Cl	0.061517	0.480435	0.349382
H113	H	-1.095861	-0.010323	0.634374
H114	H	-0.595861	0.489677	1.134374
Cl115	Cl	-1.121171	0.012472	0.195899
Cl116	Cl	-0.621171	0.512472	0.695899
H117	H	-0.850901	0.507059	0.000043
H118	H	-0.350901	1.007059	0.500043
H119	H	-0.857958	0.109733	0.000056
H120	H	-0.357958	0.609733	0.500056
H121	H	-1.095875	-0.010327	0.785775
H122	H	-0.595875	0.489673	1.285775
H123	H	-0.855422	0.252959	0.000049
H124	H	-0.355422	0.752959	0.500049
Cl125	Cl	-0.545390	-0.187640	-0.150782
Cl126	Cl	-0.045390	0.312360	0.349218
H127	H	-1.095833	-0.010309	0.365770
H128	H	-0.595833	0.489691	0.865770
Cl129	Cl	-0.814153	0.663763	0.000042
Cl130	Cl	-0.314153	1.163763	0.500042
H131	H	-0.888234	-0.196954	0.785768
H132	H	-0.388234	0.303046	1.285768
Cl133	Cl	-0.402173	-0.268730	-0.000039
Cl134	Cl	0.097827	0.231270	0.499961
H135	H	-0.534696	-0.170873	0.120670
H136	H	-0.034696	0.329127	0.620670
Cl137	Cl	-0.438504	-0.019545	0.150736
Cl138	Cl	0.061496	0.480455	0.650736
H139	H	-0.888215	-0.196945	0.634375
H140	H	-0.388215	0.303055	1.134375
H141	H	-1.135687	0.142470	0.000099
H142	H	-0.635687	0.642470	0.500099
Cl143	Cl	-1.166732	0.307161	0.000091
Cl144	Cl	-0.666732	0.807161	0.500091
H145	H	-1.126087	0.683011	0.000078
H146	H	-0.626087	1.183011	0.500078
H147	H	-0.888178	-0.196928	0.214370
H148	H	-0.388178	0.303072	0.714370
Cl149	Cl	-1.162838	0.526297	0.000081
Cl150	Cl	-0.662838	1.026297	0.500081
Cl151	Cl	-0.862849	-0.219710	0.384246
Cl152	Cl	-0.362849	0.280290	0.884246
