data_functionalizedCrystal
_audit_creation_method	'MofGen! by Chris Wilmer'
_symmetry_space_group_name_H-M	'P1'
_symmetry_Int_Tables_number	1
_symmetry_cell_setting	triclinic
loop_
_symmetry_equiv_pos_as_xyz
  x,y,z
_cell_length_a	15.944564
_cell_length_b	15.944493
_cell_length_c	9.730223
_cell_angle_alpha	90.004543
_cell_angle_beta	89.995715
_cell_angle_gamma	96.510511
loop_
_atom_site_label
_atom_site_type_symbol
_atom_site_fract_x
_atom_site_fract_y
_atom_site_fract_z
O1	O	-1.114490	0.108382	-0.114128
O2	O	-0.869939	0.121728	-0.114160
O3	O	-0.998918	-0.007223	-0.114155
O4	O	-0.985511	0.237333	-0.114134
O5	O	-0.998917	-0.007220	0.114425
O6	O	-0.869938	0.121731	0.114420
O7	O	-1.114489	0.108385	0.114452
Zn8	Zn	-0.992213	0.115059	0.150728
Zn9	Zn	-0.992215	0.115054	-0.150436
O10	O	-0.985510	0.237336	0.114446
C11	C	-0.838645	0.121173	0.000125
C12	C	-0.745400	0.119507	0.000112
C13	C	-0.530562	0.035590	0.000131
C14	C	-0.469535	0.074549	-0.112567
C15	C	-0.574675	0.116492	0.000128
C16	C	-0.469555	0.074572	0.112795
C17	C	-0.409764	0.113573	0.000150
C18	C	-0.514876	0.155473	-0.112664
C19	C	-0.514904	0.155484	0.112800
C20	C	-0.453894	0.194502	0.000073
C21	C	-0.669677	0.118171	0.000115
C22	C	-0.314764	0.111901	0.000153
C23	C	-0.998369	-0.038516	0.000129
C24	C	-0.996727	-0.131765	0.000111
C25	C	-1.072647	-0.367521	0.000147
C26	C	-1.031707	-0.418093	-0.112559
C27	C	-0.993683	-0.302486	0.000128
C28	C	-1.031687	-0.418066	0.112803
C29	C	-0.990748	-0.467396	0.000150
C30	C	-0.952764	-0.351829	-0.112672
C31	C	-0.952755	-0.351799	0.112791
C32	C	-0.911757	-0.402337	0.000058
C33	C	-0.995375	-0.207486	0.000114
C34	C	-0.989049	-0.562393	0.000154
C35	C	-0.145785	0.108928	0.000163
C36	C	-0.239034	0.110561	0.000167
C37	C	-0.986058	0.268629	0.000159
C38	C	-0.987701	0.361878	0.000168
N39	N	-0.992218	0.115061	0.356264
N40	N	-0.992217	0.115045	-0.355973
C41	C	-1.049344	0.057981	0.428192
C42	C	-1.049342	0.057971	0.572075
C43	C	-0.935084	0.172128	0.572089
C44	C	-0.935083	0.172134	0.428208
C45	C	-1.106479	0.000908	0.356248
C46	C	-1.163610	-0.056176	0.428177
C47	C	-1.163608	-0.056186	0.572059
C48	C	-1.106474	0.000888	0.644014
H49	H	-0.535027	0.189675	0.208089
C50	C	-0.907746	-0.312665	0.241508
C51	C	-0.900425	-0.216544	0.264383
C52	C	-0.855425	-0.177409	0.393113
C53	C	-0.817746	-0.234395	0.498968
C54	C	-0.825067	-0.330521	0.476096
C55	C	-0.870067	-0.369656	0.347366
H56	H	-0.928318	-0.174355	0.186020
H57	H	-0.850006	-0.106250	0.410044
H58	H	-0.784435	-0.205424	0.594262
H59	H	-0.797174	-0.372710	0.554459
H60	H	-0.875486	-0.440815	0.330435
H61	H	-0.919436	-0.323012	-0.208058
H62	H	-1.065050	-0.446994	0.208081
H63	H	-0.888565	0.218613	0.369644
C64	C	-1.226453	-0.118957	0.349035
C65	C	-1.226467	-0.118944	0.190772
C66	C	-1.289311	-0.181728	0.111635
C67	C	-1.352139	-0.244525	0.190761
C68	C	-1.352127	-0.244540	0.349032
C69	C	-1.289284	-0.181756	0.428169
H70	H	-1.179955	-0.072456	0.132191
H71	H	-1.289319	-0.181717	-0.005528
H72	H	-1.398660	-0.291001	0.132178
H73	H	-1.398639	-0.291028	0.407613
H74	H	-1.289276	-0.181768	0.545333
C75	C	-1.076751	-0.457204	-0.241272
C76	C	-1.044545	-0.429694	-0.385387
C77	C	-1.089595	-0.468803	-0.514094
C78	C	-1.166849	-0.535423	-0.498685
C79	C	-1.199059	-0.562937	-0.354563
C80	C	-1.154010	-0.523828	-0.225857
H81	H	-0.987353	-0.380375	-0.396799
H82	H	-1.065750	-0.448435	-0.620783
H83	H	-1.200197	-0.564375	-0.593962
H84	H	-1.256251	-0.612257	-0.343152
H85	H	-1.177854	-0.544196	-0.119168
C86	C	-0.575583	-0.055120	-0.000021
C87	C	-0.560232	-0.115916	0.117956
C88	C	-0.605254	-0.206623	0.117797
C89	C	-0.665627	-0.236534	-0.000340
C90	C	-0.680981	-0.175736	-0.118325
C91	C	-0.635959	-0.085029	-0.118166
H92	H	-0.515538	-0.093776	0.205416
H93	H	-0.593888	-0.251630	0.205138
H94	H	-0.698955	-0.303680	-0.000458
H95	H	-0.725675	-0.197876	-0.205785
H96	H	-0.647325	-0.040022	-0.205507
H97	H	-0.449432	0.040330	-0.207852
C98	C	-0.442429	0.028336	0.241511
C99	C	-0.509228	-0.008531	0.345991
C100	C	-0.482105	-0.054773	0.474700
C101	C	-0.388183	-0.064149	0.498929
C102	C	-0.321378	-0.027282	0.394446
C103	C	-0.348501	0.018961	0.265737
H104	H	-0.578760	-0.001591	0.328058
H105	H	-0.531559	-0.082065	0.552045
H106	H	-0.368106	-0.098381	0.594206
H107	H	-0.251846	-0.034222	0.412379
H108	H	-0.299047	0.046252	0.188392
C109	C	-0.819803	-0.423245	-0.000031
C110	C	-0.760408	-0.393196	-0.119352
C111	C	-0.668455	-0.414106	-0.119448
C112	C	-0.635897	-0.465065	-0.000223
C113	C	-0.695292	-0.495118	0.119107
C114	C	-0.787245	-0.474208	0.119203
H115	H	-0.784509	-0.355470	-0.207617
H116	H	-0.624487	-0.391859	-0.207784
H117	H	-0.567828	-0.480544	-0.000293
H118	H	-0.671191	-0.532844	0.207373
H119	H	-0.831213	-0.496455	0.207540
C120	C	-0.872246	0.234912	0.651233
C121	C	-0.872357	0.235020	0.809496
C122	C	-0.809520	0.297808	0.888638
C123	C	-0.746573	0.360488	0.809517
C124	C	-0.746459	0.360382	0.651246
C125	C	-0.809296	0.297595	0.572104
H126	H	-0.918957	0.188618	0.868074
H127	H	-0.809605	0.297886	1.005801
H128	H	-0.700057	0.406967	0.868103
H129	H	-0.699859	0.406784	0.592668
H130	H	-0.809212	0.297517	0.454941
C131	C	-0.541862	0.201652	-0.241533
C132	C	-0.635670	0.211722	-0.265390
C133	C	-0.662659	0.257895	-0.394261
C134	C	-0.595839	0.293997	-0.499274
C135	C	-0.502025	0.283928	-0.475420
C136	C	-0.475037	0.237756	-0.346549
H137	H	-0.685140	0.184996	-0.187650
H138	H	-0.732107	0.265348	-0.411919
H139	H	-0.615818	0.328177	-0.594672
H140	H	-0.452556	0.310654	-0.553160
H141	H	-0.405589	0.230302	-0.328891
H142	H	-0.420722	0.261709	0.000016
H143	H	-1.140664	-0.351890	0.000043
H144	H	-1.106487	0.000913	0.239091
H145	H	-1.210121	-0.102671	0.630622
H146	H	-1.106472	0.000869	0.761173
