data_functionalizedCrystal
_audit_creation_method	'MofGen! by Chris Wilmer'
_symmetry_space_group_name_H-M	'P1'
_symmetry_Int_Tables_number	1
_symmetry_cell_setting	triclinic
loop_
_symmetry_equiv_pos_as_xyz
  x,y,z
_cell_length_a	13.897448
_cell_length_b	11.169417
_cell_length_c	13.897433
_cell_angle_alpha	90.046319
_cell_angle_beta	90.068930
_cell_angle_gamma	90.020447
loop_
_atom_site_label
_atom_site_type_symbol
_atom_site_fract_x
_atom_site_fract_y
_atom_site_fract_z
Zn1	Zn	0.383572	-1.835199	-0.545343
Zn2	Zn	0.883572	-1.335199	-0.045343
Zn3	Zn	0.545009	-1.834963	-0.384051
Zn4	Zn	1.045009	-1.334963	0.115949
Zn5	Zn	0.383732	-1.634392	-0.384067
Zn6	Zn	0.883732	-1.134392	0.115933
Zn7	Zn	0.544829	-1.634460	-0.545310
Zn8	Zn	1.044829	-1.134460	-0.045310
O9	O	0.464286	-1.734754	-0.464693
O10	O	0.964286	-1.234754	0.035307
O11	O	0.404995	-2.003118	-0.523954
O12	O	0.904995	-1.503118	-0.023954
O13	O	0.523757	-1.808230	-0.249072
O14	O	1.023757	-1.308230	0.250928
O15	O	0.248729	-1.661100	-0.405481
O16	O	0.748729	-1.161100	0.094519
O17	O	0.523602	-2.002944	-0.405454
O18	O	1.023602	-1.502944	0.094546
O19	O	0.248612	-1.808632	-0.523970
O20	O	0.748612	-1.308632	-0.023970
O21	O	0.405268	-1.660871	-0.249083
O22	O	0.905268	-1.160871	0.250917
O23	O	0.405094	-1.466452	-0.405449
O24	O	0.905094	-0.966452	0.094551
O25	O	0.523296	-1.661216	-0.680297
O26	O	1.023296	-1.161216	-0.180297
O27	O	0.523451	-1.466502	-0.523914
O28	O	1.023451	-0.966502	-0.023914
O29	O	0.404821	-1.808698	-0.680321
O30	O	0.904821	-1.308698	-0.180321
O31	O	0.679967	-1.808296	-0.405422
O32	O	1.179967	-1.308296	0.094578
O33	O	0.679835	-1.660987	-0.523899
O34	O	1.179835	-1.160987	-0.023899
C35	C	0.714900	-1.734656	-0.464676
C36	C	1.214900	-1.234656	0.035324
C37	C	0.822114	-1.734724	-0.464702
C38	C	1.322114	-1.234724	0.035298
C39	C	0.464271	-1.422929	-0.464681
C40	C	0.964271	-0.922929	0.035319
C41	C	0.464288	-1.289529	-0.464698
C42	C	0.964288	-0.789529	0.035302
C43	C	0.464021	-1.734991	-0.716286
C44	C	0.964021	-1.234991	-0.216286
C45	C	0.463908	-1.735092	-0.823501
C46	C	0.963908	-1.235092	-0.323501
C47	C	1.018409	-1.734842	-0.464771
C48	C	1.518409	-1.234842	0.035229
C49	C	0.909176	-1.734773	-0.464735
C50	C	1.409176	-1.234773	0.035265
C51	C	1.212692	-1.734875	-0.464742
C52	C	1.712692	-1.234875	0.035258
C53	C	1.105479	-1.734900	-0.464792
C54	C	1.605479	-1.234900	0.035208
C55	C	0.464301	-2.047796	-0.464706
C56	C	0.964301	-1.547796	0.035294
C57	C	0.464307	-2.181196	-0.464712
C58	C	0.964307	-1.681196	0.035288
C59	C	0.464480	-1.734587	-0.214078
C60	C	0.964480	-1.234587	0.285922
C61	C	0.464321	-1.734718	-0.106865
C62	C	0.964321	-1.234718	0.393135
C63	C	0.464038	-1.734985	0.089430
C64	C	0.964038	-1.234985	0.589430
C65	C	0.464198	-1.734841	-0.019802
C66	C	0.964198	-1.234841	0.480198
