data_functionalizedCrystal
_audit_creation_method	'MofGen! by Chris Wilmer'
_symmetry_space_group_name_H-M	'P1'
_symmetry_Int_Tables_number	1
_symmetry_cell_setting	triclinic
loop_
_symmetry_equiv_pos_as_xyz
  x,y,z
_cell_length_a	18.101398
_cell_length_b	18.101395
_cell_length_c	15.299448
_cell_angle_alpha	80.300939
_cell_angle_beta	80.305539
_cell_angle_gamma	90.029256
loop_
_atom_site_label
_atom_site_type_symbol
_atom_site_fract_x
_atom_site_fract_y
_atom_site_fract_z
Zn1	Zn	1.204642	-0.222407	-0.510009
Zn2	Zn	1.183086	-0.367689	-0.359146
Zn3	Zn	1.059352	-0.243859	-0.359172
Zn4	Zn	1.080747	-0.346212	-0.509975
O5	O	1.131957	-0.295042	-0.434575
O6	O	1.305416	-0.241690	-0.490000
O7	O	1.148697	-0.369229	-0.232902
O8	O	1.078693	-0.137377	-0.379206
O9	O	1.289579	-0.348428	-0.379162
O10	O	1.185436	-0.121616	-0.490025
O11	O	1.057791	-0.278251	-0.232920
O12	O	0.958557	-0.257425	-0.379172
O13	O	1.115156	-0.311823	-0.636227
O14	O	0.974275	-0.332624	-0.489967
O15	O	1.206182	-0.220864	-0.636252
O16	O	1.169442	-0.468477	-0.379129
O17	O	1.094254	-0.452698	-0.489942
C18	C	0.939545	-0.295022	-0.434569
C19	C	0.857234	-0.295029	-0.434588
C20	C	0.706525	-0.295043	-0.434586
C21	C	0.685070	-0.342459	-0.504187
C22	C	0.599423	-0.342721	-0.503981
C23	C	0.558143	-0.295056	-0.434587
C24	C	0.575659	-0.329409	-0.339393
C25	C	0.661361	-0.329759	-0.339796
C26	C	0.678525	-0.213250	-0.459348
C27	C	0.593173	-0.213381	-0.461445
C28	C	0.474282	-0.295064	-0.434581
C29	C	0.790384	-0.295038	-0.434586
C30	C	1.131854	-0.487456	-0.434549
C31	C	1.131882	-0.569768	-0.434568
C32	C	1.132051	-0.868852	-0.434616
C33	C	1.084902	-0.827605	-0.504510
C34	C	1.084600	-0.742018	-0.504291
C35	C	1.131967	-0.720472	-0.434593
C36	C	1.097318	-0.765132	-0.339513
C37	C	1.097010	-0.850717	-0.339932
C38	C	1.213855	-0.833738	-0.458965
C39	C	1.213691	-0.747791	-0.461051
C40	C	1.131920	-0.636616	-0.434574
C41	C	1.132095	-0.952709	-0.434629
C42	C	1.325119	-0.295062	-0.434582
C43	C	1.407434	-0.295070	-0.434585
C44	C	1.165460	-0.261555	-0.669890
C45	C	1.179737	-0.247285	-0.770167
C46	C	1.132083	-0.101873	-0.434622
C47	C	1.132137	-0.019556	-0.434642
C48	C	1.233837	-0.193222	-0.817288
C49	C	1.247245	-0.179805	-0.911503
C50	C	1.206558	-0.220454	-0.958607
C51	C	1.152461	-0.274522	-0.911486
C52	C	1.139048	-0.287937	-0.817262
C53	C	1.111769	-0.315169	-0.958581
C54	C	1.057671	-0.369237	-0.911460
C55	C	1.044261	-0.382650	-0.817245
C56	C	1.084948	-0.342000	-0.770141
C57	C	1.125182	-0.301755	-1.052805
C58	C	1.030393	-0.396470	-1.052779
C59	C	1.016985	-0.409887	-0.958564
C60	C	1.098626	-0.328345	-0.200176
C61	C	1.084493	-0.342406	-0.099900
H62	H	0.582842	-0.187716	-0.531502
O63	O	1.004644	-0.717994	-0.482925
H64	H	1.004148	-0.656709	-0.482704
O65	O	0.986503	-0.440320	-1.103570
H66	H	1.004923	-0.421914	-1.177002
O67	O	1.183525	-0.243436	-1.103609
H68	H	1.156509	-0.199637	-1.146526
H69	H	1.291292	-0.135783	-0.949862
H70	H	1.217478	-0.209526	-1.035321
H71	H	1.000209	-0.426674	-0.778882
H72	H	1.108048	-0.838104	-0.575239
O73	O	1.139539	-0.888308	-0.268590
H74	H	1.160230	-0.845333	-0.233940
O75	O	0.958629	-0.468190	-0.907729
H76	H	0.903091	-0.452902	-0.925814
H77	H	1.239574	-0.717487	-0.531024
O78	O	1.005449	-0.859185	-0.483424
H79	H	0.966143	-0.813869	-0.469631
O80	O	0.584900	-0.312222	-0.597459
H81	H	0.612227	-0.347919	-0.645139
O82	O	0.720026	-0.175201	-0.549746
H83	H	0.679415	-0.159508	-0.596101
H84	H	1.074036	-0.352923	-0.693423
O85	O	0.725713	-0.312133	-0.597966
H86	H	0.761645	-0.262944	-0.595975
H87	H	1.266955	-0.160127	-0.778927
H88	H	0.674474	-0.297425	-0.286158
H89	H	1.251763	-0.733086	-0.413854
H90	H	0.576565	-0.403060	-0.487553
O91	O	0.710462	-0.421913	-0.482692
H92	H	0.738295	-0.427778	-0.422651
H93	H	1.249149	-0.861222	-0.408059
O94	O	0.538673	-0.285851	-0.268806
H95	H	0.582226	-0.262821	-0.236875
O96	O	1.140585	-0.748222	-0.268649
H97	H	1.114975	-0.780468	-0.202131
H98	H	0.678328	-0.389940	-0.318867
H99	H	0.551153	-0.389017	-0.318109
H100	H	0.565115	-0.175103	-0.414487
H101	H	0.691594	-0.177760	-0.408659
O102	O	1.115333	-0.700837	-0.597690
H103	H	1.130549	-0.742015	-0.643421
O104	O	1.017270	-0.881155	-0.312618
H105	H	0.979291	-0.834726	-0.299239
H106	H	1.242810	-0.845605	-0.527116
O107	O	1.018307	-0.740766	-0.311693
H108	H	1.003572	-0.696882	-0.365425
