data_functionalizedCrystal
_audit_creation_method	'MofGen! by Chris Wilmer'
_symmetry_space_group_name_H-M	'P1'
_symmetry_Int_Tables_number	1
_symmetry_cell_setting	triclinic
loop_
_symmetry_equiv_pos_as_xyz
  x,y,z
_cell_length_a	16.625548
_cell_length_b	16.625546
_cell_length_c	19.805399
_cell_angle_alpha	89.972133
_cell_angle_beta	89.981391
_cell_angle_gamma	90.023536
loop_
_atom_site_label
_atom_site_type_symbol
_atom_site_fract_x
_atom_site_fract_y
_atom_site_fract_z
Zn1	Zn	1.232665	-0.320997	-0.382701
Zn2	Zn	1.232573	-0.455835	-0.269512
Zn3	Zn	1.097831	-0.321022	-0.269527
Zn4	Zn	1.097797	-0.455794	-0.382661
O5	O	1.165216	-0.388412	-0.326100
O6	O	1.345485	-0.338890	-0.367697
O7	O	1.214675	-0.437979	-0.174798
O8	O	1.115770	-0.208186	-0.284563
O9	O	1.345417	-0.437955	-0.284537
O10	O	1.214832	-0.208168	-0.367711
O11	O	1.115681	-0.338932	-0.174809
O12	O	0.984994	-0.338893	-0.284524
O13	O	1.115712	-0.437886	-0.477383
O14	O	0.984969	-0.437910	-0.367643
O15	O	1.214799	-0.338851	-0.477412
O16	O	1.214642	-0.568662	-0.284498
O17	O	1.115622	-0.568632	-0.367628
C18	C	0.955726	-0.388401	-0.326081
C19	C	0.866105	-0.388415	-0.326089
C20	C	0.537929	-0.388420	-0.326118
C21	C	0.629237	-0.388417	-0.326108
C22	C	0.702014	-0.388418	-0.326103
C23	C	0.793328	-0.388414	-0.326094
C24	C	1.165140	-0.597903	-0.326072
C25	C	1.165181	-0.687524	-0.326082
C26	C	1.165322	-1.015700	-0.326153
C27	C	1.165280	-0.924391	-0.326135
C28	C	1.165251	-0.851615	-0.326117
C29	C	1.165211	-0.760300	-0.326100
C30	C	1.375525	-0.388424	-0.326120
C31	C	1.465146	-0.388429	-0.326128
C32	C	1.165262	-0.388361	-0.502643
C33	C	1.165281	-0.388340	-0.577875
C34	C	1.165315	-0.178103	-0.326144
C35	C	1.165357	-0.088482	-0.326162
C36	C	1.216877	-0.336770	-0.613236
C37	C	1.216885	-0.336746	-0.683924
C38	C	1.165301	-0.388297	-0.719251
C39	C	1.113700	-0.439870	-0.683885
C40	C	1.113688	-0.439888	-0.613198
C41	C	1.113745	-0.439795	-0.968959
C42	C	1.113763	-0.439774	-1.039651
C43	C	1.216942	-0.336652	-1.039685
C44	C	1.216930	-0.336671	-0.968998
C45	C	1.165326	-0.388240	-0.933638
C46	C	1.165317	-0.388264	-0.856990
C47	C	1.165314	-0.388278	-0.795898
C48	C	1.165218	-0.388404	-0.150244
C49	C	1.165355	-0.388199	-0.075013
H50	H	1.258901	-0.294755	-0.712712
H51	H	1.258938	-0.294696	-0.940238
H52	H	1.258885	-0.294793	-0.584478
H53	H	1.071738	-0.481797	-0.940178
C54	C	1.273702	-0.279917	-1.078582
C55	C	1.273718	-0.279886	-1.156335
C56	C	1.330478	-0.223154	-1.195229
C57	C	1.387222	-0.166454	-1.156371
C58	C	1.387208	-0.166483	-1.078613
C59	C	1.330448	-0.223215	-1.039719
H60	H	1.231710	-0.321861	-1.185104
H61	H	1.330487	-0.223133	-1.252791
H62	H	1.429239	-0.124458	-1.185163
H63	H	1.429215	-0.124508	-1.049844
H64	H	1.330438	-0.223236	-0.982157
C65	C	1.057011	-0.496478	-1.078511
C66	C	1.091924	-0.559775	-1.127097
C67	C	1.035177	-0.616477	-1.165957
C68	C	0.943516	-0.609882	-1.156232
C69	C	0.908598	-0.546583	-1.107644
C70	C	0.965345	-0.489881	-1.068784
H71	H	1.159781	-0.564659	-1.134298
H72	H	1.061026	-0.663335	-1.201925
H73	H	0.901508	-0.651856	-1.184999
H74	H	0.840741	-0.541699	-1.100443
H75	H	0.939496	-0.443023	-1.032816
C76	C	1.056956	-0.496577	-0.722742
C77	C	1.056969	-0.496564	-0.800495
C78	C	1.000226	-0.553275	-0.839350
C79	C	0.943469	-0.610000	-0.800453
C80	C	0.943454	-0.610016	-0.722695
C81	C	1.000197	-0.553305	-0.683840
H82	H	1.098985	-0.454571	-0.829294
H83	H	1.000237	-0.553263	-0.896912
H84	H	0.901465	-0.651981	-0.829215
H85	H	0.901438	-0.652009	-0.693897
H86	H	1.000186	-0.553317	-0.626278
C87	C	1.056936	-0.496618	-0.574296
C88	C	0.965278	-0.490032	-0.584000
C89	C	0.908523	-0.546760	-0.545098
C90	C	0.943426	-0.610074	-0.496490
C91	C	1.035088	-0.616663	-0.486784
C92	C	1.091843	-0.559935	-0.525686
H93	H	0.939437	-0.443161	-0.619984
H94	H	0.840668	-0.541883	-0.552284
H95	H	0.901412	-0.652068	-0.467692
H96	H	1.060929	-0.663534	-0.450800
H97	H	1.159698	-0.564812	-0.518500
