data_functionalizedCrystal
_audit_creation_method	'MofGen! by Chris Wilmer'
_symmetry_space_group_name_H-M	'P1'
_symmetry_Int_Tables_number	1
_symmetry_cell_setting	triclinic
loop_
_symmetry_equiv_pos_as_xyz
  x,y,z
_cell_length_a	15.944551
_cell_length_b	19.188930
_cell_length_c	15.021413
_cell_angle_alpha	89.998889
_cell_angle_beta	89.997174
_cell_angle_gamma	83.321760
loop_
_atom_site_label
_atom_site_type_symbol
_atom_site_fract_x
_atom_site_fract_y
_atom_site_fract_z
O1	O	1.114192	0.090039	-0.073949
O2	O	1.614192	0.590039	0.426051
O3	O	0.869601	0.101141	-0.073973
O4	O	1.369601	0.601141	0.426027
O5	O	0.998955	-0.006048	-0.073943
O6	O	1.498955	0.493952	0.426057
O7	O	0.984838	0.197227	-0.073979
O8	O	1.484838	0.697227	0.426021
O9	O	0.998934	-0.006033	0.074121
O10	O	1.498934	0.493967	0.574121
O11	O	0.869580	0.101156	0.074091
O12	O	1.369580	0.601156	0.574091
O13	O	1.114171	0.090054	0.074115
O14	O	1.614171	0.590054	0.574115
Zn15	Zn	0.991873	0.095607	0.097611
Zn16	Zn	1.491873	0.595607	0.597611
Zn17	Zn	0.991900	0.095587	-0.097470
Zn18	Zn	1.491900	0.595587	0.402530
O19	O	0.984817	0.197242	0.074085
O20	O	1.484817	0.697242	0.574085
C21	C	0.838298	0.100687	0.000056
C22	C	1.338298	0.600687	0.500056
C23	C	0.745057	0.099306	0.000048
C24	C	1.245057	0.599306	0.500048
C25	C	0.998487	-0.032052	0.000091
C26	C	1.498487	0.467948	0.500091
C27	C	0.997115	-0.109560	0.000099
C28	C	1.497115	0.390440	0.500099
C29	C	0.530462	0.029563	0.000078
C30	C	1.030462	0.529563	0.500078
C31	C	0.469331	0.061941	-0.072931
C32	C	0.969331	0.561941	0.427069
C33	C	0.574341	0.096806	0.000059
C34	C	1.074341	0.596806	0.500059
C35	C	0.469332	0.061972	0.073048
C36	C	0.969332	0.561972	0.573048
C37	C	0.409437	0.094386	0.000074
C38	C	0.909437	0.594386	0.500074
C39	C	0.514438	0.129203	-0.073010
C40	C	1.014438	0.629203	0.426990
C41	C	0.514446	0.129225	0.073035
C42	C	1.014446	0.629225	0.573035
C43	C	0.453332	0.161652	0.000008
C44	C	0.953332	0.661652	0.500008
C45	C	0.669338	0.098198	0.000050
C46	C	1.169338	0.598198	0.500050
C47	C	0.314441	0.093000	0.000076
C48	C	0.814441	0.593000	0.500076
C49	C	1.073016	-0.154288	0.000111
C50	C	1.573016	0.345712	0.500111
C51	C	1.071726	-0.227115	0.000096
C52	C	1.571726	0.272885	0.500096
C53	C	0.994532	-0.255211	0.000088
C54	C	1.494532	0.244789	0.500088
C55	C	0.918622	-0.210474	0.000072
C56	C	1.418622	0.289526	0.500072
C57	C	0.919913	-0.137648	0.000077
C58	C	1.419913	0.362352	0.500077
N59	N	0.935519	-0.363364	0.050472
N60	N	1.435519	0.136636	0.550472
N61	N	0.934298	-0.432546	0.050468
N62	N	1.434298	0.067454	0.550468
C63	C	0.990637	-0.474630	0.000070
C64	C	1.490637	0.025370	0.500070
N65	N	1.048256	-0.444921	-0.050314
N66	N	1.548256	0.055079	0.449686
N67	N	1.049480	-0.375733	-0.050307
N68	N	1.549480	0.124267	0.449693
C69	C	0.993123	-0.334178	0.000082
C70	C	1.493123	0.165822	0.500082
C71	C	1.065145	-0.598326	0.000064
C72	C	1.565145	-0.098326	0.500064
C73	C	1.063852	-0.671154	0.000044
C74	C	1.563852	-0.171154	0.500044
C75	C	0.910745	-0.654511	0.000029
C76	C	1.410745	-0.154511	0.500029
C77	C	0.912040	-0.581685	0.000040
C78	C	1.412040	-0.081685	0.500040
C79	C	0.989242	-0.553597	0.000062
C80	C	1.489242	-0.053597	0.500062
C81	C	1.145474	0.090507	0.000083
C82	C	1.645474	0.590507	0.500083
C83	C	1.238715	0.091889	0.000086
C84	C	1.738715	0.591889	0.500086
C85	C	0.985285	0.223247	0.000048
C86	C	1.485285	0.723247	0.500048
C87	C	0.986657	0.300755	0.000035
C88	C	1.486657	0.800755	0.500035
N89	N	0.991860	0.095621	0.230749
N90	N	1.491860	0.595621	0.730749
N91	N	0.991919	0.095568	-0.230607
N92	N	1.491919	0.595568	0.269393
C93	C	0.932038	0.145161	0.470418
C94	C	1.432038	0.645161	0.970418
C95	C	1.007887	0.158716	0.529757
C96	C	1.507887	0.658716	1.029757
C97	C	0.991882	0.095603	0.412356
C98	C	1.491882	0.595603	0.912356
C99	C	0.916053	0.082064	0.529759
C100	C	1.416053	0.582064	1.029759
C101	C	0.991896	0.095588	0.587780
C102	C	1.491896	0.595588	1.087780
C103	C	1.067770	0.109189	0.470388
C104	C	1.567770	0.609189	0.970388
C105	C	0.975885	0.032510	0.470384
C106	C	1.475885	0.532510	0.970384
C107	C	1.051789	0.046038	0.529697
C108	C	1.551789	0.546038	1.029697
C109	C	0.991872	0.095614	0.311299
C110	C	1.491872	0.595614	0.811299
C111	C	0.991914	0.095577	0.688835
C112	C	1.491914	0.595577	1.188835
H113	H	0.449335	0.033494	-0.134646
H114	H	0.949335	0.533494	0.365354
C115	C	1.159068	-0.318675	0.076228
C116	C	1.659068	0.181325	0.576228
C117	C	1.155161	-0.276293	0.000115
C118	C	1.655161	0.223707	0.500115
H119	H	1.210576	-0.349036	0.076237
H120	H	1.710576	0.150964	0.576237
H121	H	1.156382	-0.289919	0.127851
H122	H	1.656382	0.210081	0.627851
H123	H	1.112903	-0.345823	0.076206
H124	H	1.612903	0.154177	0.576206
H125	H	1.201324	-0.249141	0.000141
H126	H	1.701324	0.250859	0.500141
H127	H	1.157856	-0.305052	-0.051521
H128	H	1.657856	0.194948	0.448479
C129	C	0.830640	0.066141	0.658169
C130	C	1.330640	0.566141	1.158169
C131	C	0.829476	0.066609	0.564963
C132	C	1.329476	0.566609	1.064963
H133	H	0.777188	0.056608	0.679898
H134	H	1.277188	0.556608	1.179898
H135	H	0.873087	0.030885	0.678459
H136	H	1.373087	0.530885	1.178459
H137	H	0.842421	0.110620	0.679362
H138	H	1.342421	0.610620	1.179362
H139	H	0.817701	0.022128	0.543770
H140	H	1.317701	0.522128	1.043770
H141	H	0.787017	0.101867	0.544664
H142	H	1.287017	0.601867	1.044664
C143	C	0.848662	-0.314722	0.000070
C144	C	1.348662	0.185278	0.500070
C145	C	0.833768	-0.241354	0.000066
C146	C	1.333768	0.258646	0.500066
H147	H	0.796274	-0.333784	0.000070
H148	H	1.296274	0.166216	0.500070
H149	H	0.879905	-0.330070	-0.051556
H150	H	1.379905	0.169930	0.448444
H151	H	0.879897	-0.330069	0.051711
H152	H	1.379897	0.169931	0.551711
H153	H	0.802538	-0.226007	-0.051578
H154	H	1.302538	0.273993	0.448422
H155	H	0.802511	-0.226000	0.051698
H156	H	1.302511	0.274000	0.551698
C157	C	0.628963	0.168470	-0.155703
C158	C	1.128963	0.668470	0.344297
C159	C	0.541282	0.167555	-0.156433
C160	C	1.041282	0.667555	0.343567
H161	H	0.645535	0.192141	-0.207208
H162	H	1.145535	0.692141	0.292792
H163	H	0.644758	0.192201	-0.103937
H164	H	1.144758	0.692201	0.396063
H165	H	0.656060	0.121686	-0.155485
H166	H	1.156060	0.621686	0.344515
H167	H	0.514184	0.214339	-0.156644
H168	H	1.014184	0.714339	0.343356
H169	H	0.525479	0.143825	-0.208213
H170	H	1.025479	0.643825	0.291787
C171	C	1.171232	0.190586	0.466105
C172	C	1.671232	0.690586	0.966105
C173	C	1.154372	0.124744	0.435371
C174	C	1.654372	0.624744	0.935371
H175	H	1.224699	0.200191	0.444498
H176	H	1.724699	0.700191	0.944498
H177	H	1.128707	0.225575	0.445320
H178	H	1.628707	0.725575	0.945320
H179	H	1.171740	0.190637	0.529342
H180	H	1.671740	0.690637	1.029342
H181	H	1.153858	0.124694	0.372134
H182	H	1.653858	0.624694	0.872134
H183	H	1.196909	0.089746	0.456151
H184	H	1.696909	0.589746	0.956151
C185	C	0.625757	-0.056417	0.076489
C186	C	1.125757	0.443583	0.576489
C187	C	0.575714	-0.045783	-0.000000
C188	C	1.075714	0.454217	0.500000
H189	H	0.653690	-0.102932	0.076438
H190	H	1.153690	0.397068	0.576438
H191	H	0.666483	-0.024018	0.077045
H192	H	1.166483	0.475982	0.577045
H193	H	0.591033	-0.049524	0.127858
H194	H	1.091033	0.450476	0.627858
H195	H	0.610439	-0.052671	-0.051370
H196	H	1.110439	0.447329	0.448630
H197	H	0.534983	-0.078192	-0.000565
H198	H	1.034983	0.421808	0.499435
H199	H	0.419965	0.217516	-0.000043
H200	H	0.919965	0.717516	0.499957
C201	C	1.215319	-0.680285	0.000085
C202	C	1.715319	-0.180285	0.500085
C203	C	1.147289	-0.720323	0.000059
C204	C	1.647289	-0.220323	0.500059
H205	H	1.266829	-0.710642	0.000101
H206	H	1.766829	-0.210642	0.500101
H207	H	1.212653	-0.651533	-0.051542
H208	H	1.712653	-0.151533	0.448458
H209	H	1.212618	-0.651536	0.051725
H210	H	1.712618	-0.151536	0.551725
H211	H	1.149987	-0.749069	-0.051584
H212	H	1.649987	-0.249069	0.448416
H213	H	1.149957	-0.749087	0.051692
H214	H	1.649957	-0.249087	0.551692
H215	H	0.534463	0.157649	0.134752
H216	H	1.034463	0.657649	0.634752
C217	C	0.402094	-0.034267	0.130498
C218	C	0.902094	0.465733	0.630498
C219	C	0.442348	0.023575	0.156373
C220	C	0.942348	0.523575	0.656373
H221	H	0.385442	-0.057977	0.181936
H222	H	0.885442	0.442023	0.681936
H223	H	0.353661	-0.018686	0.095901
H224	H	0.853661	0.481314	0.595901
H225	H	0.439888	-0.065371	0.096118
H226	H	0.939888	0.434629	0.596118
H227	H	0.404552	0.054682	0.190747
H228	H	0.904552	0.554682	0.690747
H229	H	0.490787	0.007995	0.190985
H230	H	0.990787	0.507995	0.690985
H231	H	1.135880	-0.131424	0.000125
H232	H	1.635880	0.368576	0.500125
H233	H	0.858103	-0.101230	0.000068
H234	H	1.358103	0.398770	0.500068
H235	H	1.128007	-0.575456	0.000078
H236	H	1.628007	-0.075456	0.500078
H237	H	0.847892	-0.677386	0.000018
H238	H	1.347892	-0.177386	0.500018
H239	H	0.850233	-0.545266	0.000035
H240	H	1.350233	-0.045266	0.500035
H241	H	0.881481	0.187105	0.444391
H242	H	1.381481	0.687105	0.944391
C243	C	0.958444	0.259742	0.617589
C244	C	1.458444	0.759742	1.117589
C245	C	1.026168	0.230733	0.564975
C246	C	1.526168	0.730733	1.064975
H247	H	0.969728	0.304201	0.639331
H248	H	1.469728	0.804201	1.139331
H249	H	0.908367	0.265265	0.582802
H250	H	1.408367	0.765265	1.082802
H251	H	0.951316	0.229435	0.666324
H252	H	1.451316	0.729435	1.166324
H253	H	1.033292	0.261037	0.516235
H254	H	1.533292	0.761037	1.016235
H255	H	1.076259	0.225213	0.599763
H256	H	1.576259	0.725213	1.099763
C257	C	1.199497	0.003793	0.534490
C258	C	1.699497	0.503793	1.034490
C259	C	1.120186	-0.010549	0.564625
C260	C	1.620186	0.489451	1.064625
H261	H	1.241722	-0.031138	0.556061
H262	H	1.741722	0.468862	1.056061
H263	H	1.200161	0.003746	0.471263
H264	H	1.700161	0.503746	0.971263
H265	H	1.210400	0.048493	0.555725
H266	H	1.710400	0.548493	1.055725
H267	H	1.109280	-0.055247	0.543385
H268	H	1.609280	0.444753	1.043385
H269	H	1.119520	-0.010510	0.627865
H270	H	1.619520	0.489490	1.127865
H271	H	0.962318	-0.020823	0.444285
H272	H	1.462318	0.479177	0.944285
