data_functionalizedCrystal
_audit_creation_method	'MofGen! by Chris Wilmer'
_symmetry_space_group_name_H-M	'P1'
_symmetry_Int_Tables_number	1
_symmetry_cell_setting	triclinic
loop_
_symmetry_equiv_pos_as_xyz
  x,y,z
_cell_length_a	14.519731
_cell_length_b	12.996460
_cell_length_c	14.519709
_cell_angle_alpha	89.992910
_cell_angle_beta	96.315501
_cell_angle_gamma	90.005673
loop_
_atom_site_label
_atom_site_type_symbol
_atom_site_fract_x
_atom_site_fract_y
_atom_site_fract_z
O1	O	1.223857	0.085571	-0.120986
O2	O	1.473857	0.335571	0.129014
O3	O	1.723857	0.585571	0.379014
O4	O	1.973857	0.835571	0.629014
O5	O	0.955382	0.085573	-0.135203
O6	O	1.205382	0.335573	0.114797
O7	O	1.455382	0.585573	0.364797
O8	O	1.705382	0.835573	0.614797
O9	O	1.096738	0.085563	0.006143
O10	O	1.346738	0.335563	0.256143
O11	O	1.596738	0.585563	0.506143
O12	O	1.846738	0.835563	0.756143
O13	O	1.082501	0.085582	-0.262332
O14	O	1.332501	0.335582	-0.012332
O15	O	1.582501	0.585582	0.237668
O16	O	1.832501	0.835582	0.487668
O17	O	1.096723	-0.085571	0.006151
O18	O	1.346723	0.164429	0.256151
O19	O	1.596723	0.414429	0.506151
O20	O	1.846723	0.664429	0.756151
O21	O	0.955368	-0.085561	-0.135195
O22	O	1.205368	0.164439	0.114805
O23	O	1.455368	0.414439	0.364805
O24	O	1.705368	0.664439	0.614805
O25	O	1.223842	-0.085563	-0.120979
O26	O	1.473842	0.164437	0.129021
O27	O	1.723842	0.414437	0.379021
O28	O	1.973842	0.664437	0.629021
Cu29	Cu	1.089603	-0.101187	-0.128086
Cu30	Cu	1.339603	0.148813	0.121914
Cu31	Cu	1.589603	0.398813	0.371914
Cu32	Cu	1.839603	0.648813	0.621914
Cu33	Cu	1.089621	0.101198	-0.128095
Cu34	Cu	1.339621	0.351198	0.121905
Cu35	Cu	1.589621	0.601198	0.371905
Cu36	Cu	1.839621	0.851198	0.621905
O37	O	1.082487	-0.085552	-0.262325
O38	O	1.332487	0.164448	-0.012325
O39	O	1.582487	0.414448	0.237675
O40	O	1.832487	0.664448	0.487675
C41	C	0.921016	0.000006	-0.134532
C42	C	1.171016	0.250006	0.115468
C43	C	1.421016	0.500006	0.365468
C44	C	1.671016	0.750006	0.615468
C45	C	0.818635	0.000007	-0.132536
C46	C	1.068635	0.250007	0.117464
C47	C	1.318635	0.500007	0.367464
C48	C	1.568635	0.750007	0.617464
C49	C	0.735491	0.000011	-0.130915
C50	C	0.985491	0.250011	0.119085
C51	C	1.235491	0.500011	0.369085
C52	C	1.485491	0.750011	0.619085
C53	C	0.631182	0.000011	-0.128888
C54	C	0.881182	0.250011	0.121112
C55	C	1.131182	0.500011	0.371112
C56	C	1.381182	0.750011	0.621112
C57	C	0.548043	0.000011	-0.127280
C58	C	0.798043	0.250011	0.122720
C59	C	1.048043	0.500011	0.372720
C60	C	1.298043	0.750011	0.622720
C61	C	0.443728	0.000013	-0.125253
C62	C	0.693728	0.250013	0.124747
C63	C	0.943728	0.500013	0.374747
C64	C	1.193728	0.750013	0.624747
N65	N	1.089598	-0.243535	-0.128079
N66	N	1.339598	0.006465	0.121921
N67	N	1.589598	0.256465	0.371921
N68	N	1.839598	0.506465	0.621921
C69	C	1.089620	-0.663349	-0.128096
C70	C	1.339620	-0.413349	0.121904
C71	C	1.589620	-0.163349	0.371904
C72	C	1.839620	0.086651	0.621904
C73	C	1.089611	-0.546544	-0.128094
C74	C	1.339611	-0.296544	0.121906
C75	C	1.589611	-0.046544	0.371906
C76	C	1.839611	0.203456	0.621906
C77	C	1.089609	-0.453445	-0.128088
C78	C	1.339609	-0.203445	0.121912
C79	C	1.589609	0.046555	0.371912
C80	C	1.839609	0.296555	0.621912
C81	C	1.089600	-0.336633	-0.128085
C82	C	1.339600	-0.086633	0.121915
C83	C	1.589600	0.163367	0.371915
C84	C	1.839600	0.413367	0.621915
C85	C	1.258209	0.000007	-0.121649
C86	C	1.508209	0.250007	0.128351
C87	C	1.758209	0.500007	0.378351
C88	C	2.008209	0.750007	0.628351
C89	C	1.360589	0.000013	-0.123645
C90	C	1.610589	0.250013	0.126355
C91	C	1.860589	0.500013	0.376355
C92	C	2.110589	0.750013	0.626355
C93	C	1.096067	-0.000004	0.040507
C94	C	1.346067	0.249996	0.290507
C95	C	1.596067	0.499996	0.540507
C96	C	1.846067	0.749996	0.790507
C97	C	1.094079	-0.000005	0.142889
C98	C	1.344079	0.249995	0.392889
C99	C	1.594079	0.499995	0.642889
C100	C	1.844079	0.749995	0.892889
N101	N	1.089634	0.243545	-0.128095
N102	N	1.339634	0.493545	0.121905
N103	N	1.589634	0.743545	0.371905
N104	N	1.839634	0.993545	0.621905
C105	C	1.083157	0.000017	-0.296688
C106	C	1.333157	0.250017	-0.046688
C107	C	1.583157	0.500017	0.203312
C108	C	1.833157	0.750017	0.453312
C109	C	1.085146	0.000024	-0.399070
C110	C	1.335146	0.250024	-0.149070
C111	C	1.585146	0.500024	0.100930
C112	C	1.835146	0.750024	0.350930
C113	C	1.086759	0.000022	0.517785
C114	C	1.336759	0.250022	0.767785
C115	C	1.586759	0.500022	1.017785
C116	C	1.836759	0.750022	1.267785
C117	C	1.088792	0.000014	0.413477
C118	C	1.338792	0.250014	0.663477
C119	C	1.588792	0.500014	0.913477
C120	C	1.838792	0.750014	1.163477
C121	C	1.090419	0.000008	0.330340
C122	C	1.340419	0.250008	0.580340
C123	C	1.590419	0.500008	0.830340
C124	C	1.840419	0.750008	1.080340
C125	C	1.092452	0.000002	0.226025
C126	C	1.342452	0.250002	0.476025
C127	C	1.592452	0.500002	0.726025
C128	C	1.842452	0.750002	0.976025
