data_functionalizedCrystal
_audit_creation_method	'MofGen! by Chris Wilmer'
_symmetry_space_group_name_H-M	'P1'
_symmetry_Int_Tables_number	1
_symmetry_cell_setting	triclinic
loop_
_symmetry_equiv_pos_as_xyz
  x,y,z
_cell_length_a	14.628931
_cell_length_b	14.628931
_cell_length_c	14.628931
_cell_angle_alpha	59.999972
_cell_angle_beta	90.000118
_cell_angle_gamma	60.000000
loop_
_atom_site_label
_atom_site_type_symbol
_atom_site_fract_x
_atom_site_fract_y
_atom_site_fract_z
Zr1	Zr	0.880620	1.000576	-0.119961
O2	O	0.734659	1.191282	-0.265922
O3	O	0.925365	0.809870	-0.075216
O4	O	0.925365	1.000576	-0.265922
O5	O	0.734660	1.000576	0.075216
O6	O	1.075797	1.000575	-0.265921
O7	O	0.734659	1.000576	-0.075216
O8	O	1.075797	0.659438	0.075217
O9	O	0.734659	1.341714	-0.265922
O10	O	1.056714	0.888310	-0.056133
O11	O	0.944448	0.888310	0.056133
O12	O	0.944448	1.112841	-0.168399
O13	O	0.832183	1.112842	-0.056133
Zr14	Zr	1.120543	1.000575	0.119961
Zr15	Zr	1.120542	1.000575	-0.119961
Zr16	Zr	0.880621	1.000576	0.119961
Zr17	Zr	0.880621	1.240497	-0.119961
Zr18	Zr	1.120542	0.760654	0.119961
O19	O	1.075798	1.191281	0.075216
O20	O	1.075797	1.191281	-0.265922
O21	O	0.734660	1.191282	0.075215
O22	O	1.266504	0.809869	0.265922
O23	O	1.266503	0.809869	-0.075215
O24	O	0.925366	0.809870	0.265922
O25	O	1.266503	1.000575	-0.075216
O26	O	1.075798	1.000575	0.265922
O27	O	0.925366	1.000576	0.265921
O28	O	1.266503	1.000575	0.075216
O29	O	0.925365	1.341713	-0.265922
O30	O	1.075797	0.659438	0.265922
O31	O	1.266503	0.659437	0.265922
O32	O	1.266503	0.659437	0.075217
O33	O	0.734660	1.341714	-0.075217
O34	O	0.925366	1.341713	-0.075217
O35	O	1.056714	0.888310	0.168399
O36	O	1.168980	0.888309	0.056133
O37	O	1.056714	1.112841	-0.056133
O38	O	0.944449	1.112841	0.056133
C39	C	1.000581	0.700470	0.000000
C40	C	1.000581	0.598617	0.000001
C41	C	1.056272	0.553208	-0.055691
C42	C	1.056273	0.447938	-0.055692
C43	C	0.700476	1.000576	-0.000000
C44	C	0.598623	1.000577	-0.000001
C45	C	0.608905	0.889194	0.055691
C46	C	0.503635	0.889192	0.055692
C47	C	1.300687	1.000575	0.000000
C48	C	1.402540	1.000574	0.000001
C49	C	1.000581	1.000576	-0.300105
C50	C	1.000581	1.000576	-0.401958
C51	C	1.000582	1.300681	-0.000000
C52	C	1.000582	1.402534	-0.000001
C53	C	1.079340	1.000575	-0.447367
C54	C	1.079342	1.000575	-0.552638
C55	C	1.000582	1.000576	0.300105
C56	C	1.000582	1.000576	0.401958
C57	C	1.300687	0.700469	0.000001
C58	C	1.402540	0.598616	0.000001
C59	C	1.000582	0.700470	0.300106
C60	C	1.000582	0.598617	0.401959
C61	C	1.300687	0.700469	0.300106
C62	C	1.402540	0.598616	0.401959
C63	C	0.700476	1.300682	-0.300106
C64	C	0.598622	1.402535	-0.401959
C65	C	0.700476	1.300682	-0.000001
C66	C	0.598623	1.402535	-0.000001
C67	C	1.000581	1.300681	-0.300106
C68	C	1.000581	1.402534	-0.401959
C69	C	1.392257	0.553207	-0.055690
C70	C	1.497526	0.447936	-0.055691
C71	C	1.056273	0.553208	0.503060
C72	C	1.056275	0.447938	0.608331
C73	C	1.503641	0.553207	0.391677
C74	C	1.608913	0.447936	0.496947
H75	H	1.103948	0.408893	-0.103376
H76	H	1.512264	0.592268	0.304942
O77	O	1.608995	0.448900	0.057068
C78	C	1.668017	0.346828	0.171476
H79	H	1.660120	0.265424	0.192244
H80	H	1.631563	0.383378	0.224436
H81	H	1.760092	0.309146	0.190262
O82	O	0.712352	0.775395	0.112755
C83	C	0.724694	0.704036	0.227165
H84	H	0.664053	0.772567	0.247932
H85	H	0.814202	0.650990	0.280121
H86	H	0.705807	0.630848	0.245955
O87	O	0.495127	1.114309	-0.057030
C88	C	0.436299	1.121203	-0.139206
H89	H	0.498430	1.054743	-0.161011
H90	H	0.383285	1.224863	-0.217468
H91	H	0.379612	1.089578	-0.105589
O92	O	1.712461	0.401267	0.486841
C93	C	1.794517	0.306543	0.594196
H94	H	1.757115	0.322336	0.657555
H95	H	1.868340	0.314262	0.593242
H96	H	1.824448	0.206438	0.618602
O97	O	0.943774	0.448886	0.057048
C98	C	0.986861	0.346832	0.171467
H99	H	1.029716	0.251064	0.181121
H100	H	0.915536	0.361363	0.207372
H101	H	1.050169	0.345544	0.218431
O102	O	1.392101	0.552012	0.505370
C103	C	1.333133	0.496560	0.517738
H104	H	1.280220	0.539818	0.431625
H105	H	1.276341	0.517450	0.568174
H106	H	1.395154	0.387575	0.563416
O107	O	0.392084	1.114431	-0.056805
C108	C	0.333116	1.185760	-0.013716
H109	H	0.280205	1.152556	0.029139
H110	H	0.276322	1.292990	-0.085038
H111	H	0.395137	1.169415	0.049594
O112	O	1.159773	1.000460	-0.400602
C113	C	1.220369	0.889117	-0.289556
H114	H	1.166994	0.851936	-0.256743
H115	H	1.242768	0.914222	-0.234759
H116	H	1.300343	0.811158	-0.287372
O117	O	1.487080	0.401578	-0.112737
C118	C	1.428113	0.503631	-0.227157
H119	H	1.375200	0.599399	-0.236811
H120	H	1.371320	0.489100	-0.263061
H121	H	1.490133	0.504919	-0.274120
O122	O	1.495141	0.449309	0.608298
C123	C	1.436311	0.583420	0.556366
H124	H	1.498440	0.609556	0.552033
H125	H	1.383302	0.611031	0.607017
H126	H	1.379619	0.638117	0.468056
H127	H	1.103956	0.592259	-0.103365
H128	H	0.952905	0.559557	0.047682
H129	H	0.933156	1.000569	-0.441012
O130	O	0.943777	0.552007	0.391530
C131	C	0.986856	0.496547	0.332568
H132	H	1.029705	0.539806	0.279643
H133	H	0.915528	0.517427	0.275786
H134	H	1.050167	0.387564	0.394592
O135	O	0.513741	0.775538	0.112560
C136	C	0.406386	0.800838	0.099886
H137	H	0.343028	0.901592	0.078291
H138	H	0.407342	0.726050	0.181421
H139	H	0.381979	0.795328	0.029701
H140	H	0.933146	1.000583	-0.559001
H141	H	1.103947	0.592271	0.511680
H142	H	1.305521	0.592270	-0.103374
O143	O	1.159879	1.000345	-0.599144
C144	C	1.220425	0.889005	-0.598855
H145	H	1.212346	0.811174	-0.531040
H146	H	1.312415	0.851624	-0.581346
H147	H	1.185477	0.914183	-0.683945
H148	H	1.103956	0.408885	0.695062
O149	O	1.505986	0.552230	0.056743
C150	C	1.518331	0.654294	0.013699
H151	H	1.457698	0.735702	-0.075603
H152	H	1.607842	0.617737	0.013798
H153	H	1.499439	0.691973	0.068094
H154	H	0.952907	0.441573	0.511317
