data_functionalizedCrystal
_audit_creation_method	'MofGen! by Chris Wilmer'
_symmetry_space_group_name_H-M	'P1'
_symmetry_Int_Tables_number	1
_symmetry_cell_setting	triclinic
loop_
_symmetry_equiv_pos_as_xyz
  x,y,z
_cell_length_a	18.426585
_cell_length_b	14.809374
_cell_length_c	14.809374
_cell_angle_alpha	88.612464
_cell_angle_beta	67.427935
_cell_angle_gamma	67.425339
loop_
_atom_site_label
_atom_site_type_symbol
_atom_site_fract_x
_atom_site_fract_y
_atom_site_fract_z
Zr1	Zr	0.904377	0.811314	-0.189214
O2	O	1.013553	0.691945	-0.308577
O3	O	0.765921	0.847908	-0.152627
O4	O	0.889737	0.865279	-0.325954
O5	O	0.911496	0.660870	0.001479
O6	O	0.911496	1.002006	-0.339657
O7	O	0.889737	0.674574	-0.135249
O8	O	0.690011	0.970932	-0.029606
O9	O	1.132981	0.691944	-0.308571
O10	O	0.849952	0.965551	-0.147244
O11	O	0.849952	0.853286	-0.034979
O12	O	0.995730	0.873738	-0.239049
O13	O	0.995730	0.761473	-0.126784
Zr14	Zr	0.973782	1.007522	0.006998
Zr15	Zr	0.939080	1.029378	-0.211068
Zr16	Zr	0.939080	0.789457	0.028853
Zr17	Zr	1.094850	0.811312	-0.189206
Zr18	Zr	0.783310	1.007524	0.006990
O19	O	1.112238	0.970928	-0.029588
O20	O	1.062896	1.002005	-0.339651
O21	O	1.062896	0.660868	0.001486
O22	O	0.864606	1.126891	0.126361
O23	O	0.815263	1.157967	-0.183701
O24	O	0.815263	0.816831	0.157435
O25	O	0.966663	1.157966	-0.183695
O26	O	0.988422	0.953557	0.143739
O27	O	0.966663	0.816829	0.157442
O28	O	0.988422	1.144262	-0.046966
O29	O	1.160564	0.865276	-0.325943
O30	O	0.717595	0.953560	0.143727
O31	O	0.745179	1.126892	0.126356
O32	O	0.717595	1.144265	-0.046978
O33	O	1.160564	0.674571	-0.135238
O34	O	1.188148	0.847903	-0.152609
O35	O	0.882429	0.945097	0.056834
O36	O	0.882429	1.057363	-0.055431
O37	O	1.028207	0.965550	-0.147236
O38	O	1.028207	0.853284	-0.034971
C39	C	0.700827	0.909420	-0.091118
C40	C	0.619967	0.909421	-0.091122
C41	C	0.895672	0.636652	-0.063771
C42	C	0.880940	0.544078	-0.054494
C43	C	0.946687	0.457260	-0.095899
C44	C	0.931463	0.361579	-0.086311
C45	C	0.323861	0.909412	-0.091091
C46	C	0.406247	0.909412	-0.091097
C47	C	0.471912	0.909416	-0.091107
C48	C	0.554302	0.909417	-0.091112
C49	C	1.177332	0.909415	-0.091097
C50	C	1.258192	0.909415	-0.091094
C51	C	0.895672	0.936757	-0.363876
C52	C	0.880940	0.946035	-0.456451
C53	C	0.982487	1.182183	-0.118444
C54	C	0.997219	1.274758	-0.127722
C55	C	0.946687	0.904626	-0.543265
C56	C	0.931463	0.914215	-0.638947
C57	C	0.982487	0.882079	0.181660
C58	C	0.997219	0.872801	0.274235
C59	C	0.744235	1.182186	-0.118454
C60	C	0.678107	1.274761	-0.127736
C61	C	0.744235	0.882081	0.181650
C62	C	0.678107	0.872804	0.274221
C63	C	0.787643	1.154847	0.154314
C64	C	0.736246	1.238144	0.237607
C65	C	1.090517	0.663988	-0.336529
C66	C	1.141913	0.580692	-0.419823
C67	C	1.133924	0.636650	-0.063761
C68	C	1.200053	0.544075	-0.054480
C69	C	1.133924	0.936754	-0.363865
C70	C	1.200053	0.946032	-0.456437
C71	C	0.630098	1.270311	-0.180029
C72	C	0.567969	1.357289	-0.188769
C73	C	0.553846	1.448715	-0.145209
C74	C	0.601862	1.453162	-0.092915
C75	C	0.663994	1.366186	-0.084181
C76	C	0.664006	0.916370	0.365628
C77	C	0.601882	0.907648	0.452618
C78	C	0.553856	0.855365	0.448198
C79	C	0.567962	0.811793	0.356781
C80	C	0.630089	0.820510	0.269794
C81	C	0.712111	1.335871	0.218121
C82	C	0.663830	1.414146	0.296375
C83	C	0.639678	1.394692	0.394115
C84	C	0.663819	1.296954	0.413600
C85	C	0.712105	1.218681	0.335347
C86	C	1.166057	0.482965	-0.400336
C87	C	1.214362	0.404690	-0.478590
C88	C	1.238517	0.424144	-0.576330
C89	C	1.214372	0.521881	-0.595816
C90	C	1.166073	0.600154	-0.517562
C91	C	1.248068	0.548525	-0.002196
C92	C	1.310213	0.461550	0.006520
C93	C	1.324339	0.370125	-0.037042
C94	C	1.276320	0.365677	-0.089333
C95	C	1.214180	0.452652	-0.098054
C96	C	1.248061	0.998322	-0.451985
C97	C	1.310190	1.007059	-0.538959
C98	C	1.324314	0.963498	-0.630384
C99	C	1.276298	0.911206	-0.634834
C100	C	1.214166	0.902476	-0.547861
H101	H	1.014247	0.453768	-0.138450
H102	H	1.349302	0.465190	0.049104
F103	F	1.240085	0.542571	-0.699845
H104	H	0.600361	1.458436	0.457825
H105	H	1.374940	0.299311	-0.029933
F106	F	1.233043	1.044691	-0.354693
F107	F	1.163078	0.447900	-0.153698
F108	F	0.737781	1.114673	0.356102
H109	H	1.349281	1.049637	-0.535317
F110	F	1.291361	0.268366	-0.135688
H111	H	0.813380	0.988588	-0.452962
F112	F	0.843148	0.366157	-0.030700
F113	F	1.390445	0.972795	-0.722941
F114	F	1.291344	0.864843	-0.732143
H115	H	0.703077	1.369822	-0.041593
H116	H	1.175081	0.859892	-0.551499
F117	F	1.140356	0.462237	-0.296319
H118	H	0.528880	1.353649	-0.231352
F119	F	1.085531	0.270179	-0.183357
H120	H	1.146414	0.679727	-0.533441
F121	F	1.233050	0.645818	0.044172
H122	H	1.234012	0.325114	-0.462705
F123	F	1.085534	0.817185	-0.730341
F124	F	0.792630	0.548650	0.001114
H125	H	1.014248	0.862081	-0.546754
H126	H	0.863898	0.956771	-0.635452
F127	F	0.737811	1.356598	0.114104
F128	F	0.638109	1.276264	0.517630
H129	H	0.641594	1.195878	-0.215514
H130	H	0.590407	0.943135	0.527044
F131	F	0.487715	1.541275	-0.154512
H132	H	0.703104	0.958944	0.369247
F133	F	0.586819	1.550472	-0.046557
H134	H	0.503272	0.848275	0.519035
F135	F	1.289922	0.340828	-0.659606
H136	H	0.644179	1.493722	0.280492
H137	H	0.528851	0.769224	0.353197
F138	F	0.645083	0.774141	0.172514
