data_functionalizedCrystal
_audit_creation_method	'MofGen! by Chris Wilmer'
_symmetry_space_group_name_H-M	'P1'
_symmetry_Int_Tables_number	1
_symmetry_cell_setting	triclinic
loop_
_symmetry_equiv_pos_as_xyz
  x,y,z
_cell_length_a	16.992695
_cell_length_b	16.992695
_cell_length_c	15.455313
_cell_angle_alpha	87.142836
_cell_angle_beta	87.137745
_cell_angle_gamma	89.331777
loop_
_atom_site_label
_atom_site_type_symbol
_atom_site_fract_x
_atom_site_fract_y
_atom_site_fract_z
O1	O	1.047611	-0.170142	0.072098
O2	O	0.819210	-0.168311	0.072108
O3	O	0.932495	-0.055026	0.072096
O4	O	0.934326	-0.283427	0.072110
O5	O	0.938967	-0.048568	-0.072167
O6	O	0.825682	-0.161853	-0.072155
O7	O	1.054083	-0.163684	-0.072164
Cu8	Cu	0.940473	-0.162179	-0.085332
Cu9	Cu	0.932820	-0.169816	0.085275
O10	O	0.940798	-0.276969	-0.072153
C11	C	0.793086	-0.162726	-0.000023
C12	C	0.705601	-0.155698	-0.000019
N13	N	0.927437	-0.175182	0.205271
C14	C	1.080207	-0.169269	-0.000032
C15	C	1.167691	-0.176298	-0.000030
C16	C	0.933375	-0.022437	-0.000035
C17	C	0.926347	0.065048	-0.000035
C18	C	1.213682	-0.108480	-0.000031
C19	C	1.295883	-0.115088	-0.000034
C20	C	1.332091	-0.189516	-0.000029
C21	C	1.286094	-0.257339	-0.000031
C22	C	1.203895	-0.250729	-0.000034
C23	C	1.577405	-0.216911	-0.000024
C24	C	1.659610	-0.223516	-0.000018
C25	C	1.669394	-0.081264	-0.000023
C26	C	1.587192	-0.074661	-0.000021
C27	C	1.541203	-0.142484	-0.000027
N28	N	1.416114	-0.196273	-0.000029
N29	N	1.457182	-0.135726	-0.000033
C30	C	0.939917	-0.309558	-0.000020
C31	C	0.946946	-0.397043	-0.000015
C32	C	0.994165	0.111039	-0.000038
C33	C	0.987555	0.193239	-0.000030
C34	C	0.913128	0.229447	-0.000024
C35	C	0.845304	0.183450	-0.000018
C36	C	0.851914	0.101251	-0.000020
C37	C	0.885732	0.474761	-0.000011
C38	C	0.879128	0.556966	-0.000011
C39	C	1.021380	0.566750	-0.000022
C40	C	1.027983	0.484549	-0.000029
C41	C	0.960160	0.438558	-0.000018
N42	N	0.906370	0.313469	-0.000018
N43	N	0.966918	0.354538	-0.000018
N44	N	0.945862	-0.156807	-0.205328
C45	C	0.975668	-0.127160	0.250661
C46	C	0.971595	-0.131216	0.341469
C47	C	0.919287	-0.183291	0.386886
C48	C	0.871053	-0.231318	0.341491
C49	C	0.875131	-0.227266	0.250684
C50	C	0.901706	-0.200782	0.658469
C51	C	0.897631	-0.204830	0.749282
C52	C	0.998174	-0.104728	0.749254
C53	C	1.002243	-0.100676	0.658446
C54	C	0.954013	-0.148707	0.613058
N55	N	0.915121	-0.187436	0.479707
N56	N	0.958184	-0.144564	0.520239
H57	H	1.333326	-0.059863	-0.000038
C58	C	0.863307	-0.239024	0.519290
C59	C	0.848685	-0.253569	0.608586
H60	H	0.830574	-0.271617	0.488493
H61	H	0.852238	-0.185266	0.504399
H62	H	0.917026	-0.250337	0.504418
H63	H	0.794967	-0.242250	0.623459
H64	H	0.859748	-0.307339	0.623483
H65	H	1.539970	-0.272138	-0.000025
H66	H	1.037442	-0.065624	0.786217
H67	H	1.076597	0.604203	-0.000029
C68	C	0.785856	0.640421	0.074155
C69	C	0.797313	0.596773	-0.000001
H70	H	0.735352	0.665001	0.074155
H71	H	0.789128	0.606304	0.124455
H72	H	0.825311	0.679568	0.074139
H73	H	0.757861	0.557622	0.000018
H74	H	0.794033	0.630893	-0.050313
C75	C	0.744462	0.473360	-0.000020
C76	C	0.811182	0.424216	-0.000016
H77	H	0.698437	0.442151	-0.000031
H78	H	0.742584	0.503365	0.050286
H79	H	0.747113	0.507883	-0.050330
H80	H	0.808534	0.389697	0.050297
H81	H	0.813060	0.394197	-0.050327
C82	C	1.167930	0.502479	-0.000038
C83	C	1.109797	0.444752	-0.000037
H84	H	1.218438	0.477908	-0.000043
H85	H	1.164646	0.536592	-0.050340
H86	H	1.160135	0.532080	0.050276
H87	H	1.117588	0.415155	-0.050355
H88	H	1.113083	0.410625	0.050269
C89	C	1.102439	-0.329136	0.074125
C90	C	1.153336	-0.325275	-0.000030
H91	H	1.071223	-0.375157	0.074120
H92	H	1.132448	-0.331015	0.124425
H93	H	1.069117	-0.283859	0.074111
H94	H	1.186661	-0.370550	-0.000013
H95	H	1.123323	-0.323403	-0.050343
H96	H	1.315582	-0.317940	-0.000032
C97	C	1.670806	0.060006	-0.000023
C98	C	1.719946	-0.006716	-0.000020
H99	H	1.702016	0.106030	-0.000017
H100	H	1.640805	0.061877	-0.050330
H101	H	1.636278	0.057366	0.050286
H102	H	1.754470	-0.004078	-0.050333
H103	H	1.749960	-0.008587	0.050292
H104	H	1.042781	0.230682	-0.000035
C105	C	1.673257	-0.350132	0.074132
C106	C	1.699417	-0.305330	-0.000021
H107	H	1.697832	-0.400638	0.074126
H108	H	1.686477	-0.324246	0.124433
H109	H	1.617721	-0.355905	0.074117
H110	H	1.754953	-0.299552	-0.000004
H111	H	1.686203	-0.331222	-0.050336
C112	C	0.798666	-0.303388	0.740194
C113	C	0.840135	-0.262081	0.799207
H114	H	0.763177	-0.338733	0.771018
H115	H	0.769950	-0.267199	0.704769
H116	H	0.834750	-0.332257	0.704782
H117	H	0.804051	-0.233208	0.834615
H118	H	0.868854	-0.298276	0.834647
C119	C	1.053132	-0.050015	0.519236
C120	C	1.059743	-0.043434	0.608525
H121	H	1.088625	-0.014670	0.488418
H122	H	1.065542	-0.102444	0.504370
H123	H	1.000746	-0.037381	0.504363
H124	H	1.112127	-0.056074	0.623399
H125	H	1.047338	0.009007	0.623396
H126	H	1.010870	-0.092113	0.378424
H127	H	0.784703	0.212936	-0.000007
C128	C	0.855891	-0.341904	0.443643
C129	C	0.813554	-0.288559	0.391414
H130	H	0.820389	-0.377237	0.474466
H131	H	0.891956	-0.370776	0.408227
H132	H	0.884029	-0.313873	0.483668
H133	H	0.785420	-0.316589	0.351384
H134	H	0.777475	-0.259684	0.426834
H135	H	0.796689	0.063805	-0.000017
C136	C	1.134108	0.128973	-0.000033
C137	C	1.075979	0.071243	-0.000039
H138	H	1.184617	0.104405	-0.000025
H139	H	1.130832	0.163082	-0.050338
H140	H	1.126304	0.158577	0.050277
H141	H	1.083780	0.041642	-0.050353
H142	H	1.079258	0.037120	0.050271
C143	C	1.074640	-0.028621	0.259763
C144	C	1.033165	-0.069913	0.200742
H145	H	1.110140	0.006717	0.228946
H146	H	1.038566	0.000246	0.295174
H147	H	1.103352	-0.064826	0.295189
H148	H	1.004448	-0.033709	0.165321
H149	H	1.069244	-0.098783	0.165316
C150	C	0.742932	-0.263366	0.222725
C151	C	0.822110	-0.280047	0.200785
H152	H	0.710201	-0.295951	0.191914
H153	H	0.733021	-0.273237	0.283297
H154	H	0.731874	-0.209600	0.207828
H155	H	0.833169	-0.333812	0.215688
H156	H	0.832024	-0.270182	0.140199
C157	C	1.193392	0.011486	0.074120
C158	C	1.173888	-0.026664	-0.000035
H159	H	1.168830	0.061998	0.074111
H160	H	1.175646	-0.018904	0.124420
H161	H	1.248931	0.017247	0.074111
H162	H	1.118349	-0.032431	-0.000024
H163	H	1.191630	0.003732	-0.050348
H164	H	1.557718	-0.014054	-0.000025
