data_functionalizedCrystal
_audit_creation_method	'MofGen! by Chris Wilmer'
_symmetry_space_group_name_H-M	'P1'
_symmetry_Int_Tables_number	1
_symmetry_cell_setting	triclinic
loop_
_symmetry_equiv_pos_as_xyz
  x,y,z
_cell_length_a	19.288864
_cell_length_b	17.699083
_cell_length_c	18.366186
_cell_angle_alpha	89.986732
_cell_angle_beta	90.022894
_cell_angle_gamma	96.790371
loop_
_atom_site_label
_atom_site_type_symbol
_atom_site_fract_x
_atom_site_fract_y
_atom_site_fract_z
O1	O	0.921465	-0.094417	0.060794
O2	O	1.254798	0.238916	0.394128
O3	O	1.588131	0.572249	0.727461
O4	O	0.719219	-0.107154	0.060746
O5	O	1.052552	0.226179	0.394079
O6	O	1.385886	0.559513	0.727413
O7	O	0.826056	0.009412	0.060754
O8	O	1.159389	0.342745	0.394087
O9	O	1.492722	0.676078	0.727420
O10	O	0.814628	-0.210983	0.060787
O11	O	1.147961	0.122351	0.394120
O12	O	1.481294	0.455684	0.727453
O13	O	0.826038	0.009417	-0.060346
O14	O	1.159371	0.342751	0.272988
O15	O	1.492704	0.676084	0.606321
O16	O	0.719201	-0.107148	-0.060353
O17	O	1.052534	0.226185	0.272980
O18	O	1.385867	0.559518	0.606313
O19	O	0.921446	-0.094412	-0.060305
O20	O	1.254780	0.238922	0.273028
O21	O	1.588113	0.572255	0.606362
Zn22	Zn	0.820321	-0.100779	-0.079556
Zn23	Zn	1.153654	0.232554	0.253777
Zn24	Zn	1.486987	0.565888	0.587110
Zn25	Zn	0.820345	-0.100786	0.079997
Zn26	Zn	1.153678	0.232547	0.413331
Zn27	Zn	1.487011	0.565880	0.746664
O28	O	0.814610	-0.210977	-0.060313
O29	O	1.147943	0.122356	0.273021
O30	O	1.481276	0.455690	0.606354
C31	C	0.693333	-0.106741	0.000190
C32	C	1.026666	0.226592	0.333523
C33	C	1.360000	0.559925	0.666857
C34	C	0.616228	-0.105511	0.000171
C35	C	0.949561	0.227822	0.333504
C36	C	1.282895	0.561156	0.666837
C37	C	0.825637	0.037611	0.000201
C38	C	1.158970	0.370944	0.333534
C39	C	1.492304	0.704278	0.666868
C40	C	0.824409	0.121627	0.000192
C41	C	1.157742	0.454961	0.333525
C42	C	1.491075	0.788294	0.666858
C43	C	0.571613	-0.173906	0.000192
C44	C	0.904946	0.159427	0.333526
C45	C	1.238279	0.492760	0.666859
C46	C	0.499164	-0.172751	0.000200
C47	C	0.832497	0.160583	0.333533
C48	C	1.165831	0.493916	0.666867
C49	C	0.471334	-0.103196	0.000201
C50	C	0.804668	0.230138	0.333534
C51	C	1.138001	0.563471	0.666868
C52	C	0.515959	-0.034791	0.000175
C53	C	0.849293	0.298542	0.333509
C54	C	1.182626	0.631876	0.666842
C55	C	0.588406	-0.035949	0.000160
C56	C	0.921740	0.297384	0.333493
C57	C	1.255073	0.630718	0.666827
C58	C	0.363014	-0.048520	0.042644
C59	C	0.696347	0.284814	0.375977
C60	C	1.029681	0.618147	0.709310
C61	C	0.290568	-0.047365	0.042663
C62	C	0.623901	0.285969	0.375997
C63	C	0.957235	0.619302	0.709330
C64	C	0.247884	-0.099622	0.000245
C65	C	0.581218	0.233711	0.333578
C66	C	0.914551	0.567045	0.666911
C67	C	0.277654	-0.153047	-0.042185
C68	C	0.610987	0.180287	0.291149
C69	C	0.944321	0.513620	0.624482
C70	C	0.350101	-0.154205	-0.042200
C71	C	0.683434	0.179129	0.291133
C72	C	1.016768	0.512462	0.624467
C73	C	0.392779	-0.101932	0.000217
C74	C	0.726112	0.231401	0.333550
C75	C	1.059445	0.564734	0.666884
C76	C	0.124712	-0.166769	0.000274
C77	C	0.458045	0.166565	0.333607
C78	C	0.791378	0.499898	0.666940
C79	C	0.052262	-0.165610	0.000277
C80	C	0.385596	0.167723	0.333610
C81	C	0.718929	0.501057	0.666944
C82	C	0.069059	-0.027649	0.000260
C83	C	0.402393	0.305685	0.333593
C84	C	0.735726	0.639018	0.666926
C85	C	0.141507	-0.028809	0.000249
C86	C	0.474840	0.304524	0.333582
C87	C	0.808174	0.637857	0.666915
C88	C	0.169329	-0.098371	0.000259
C89	C	0.502662	0.234962	0.333593
C90	C	0.835995	0.568295	0.666926
C91	C	0.887120	0.170336	0.000201
C92	C	1.220453	0.503670	0.333534
C93	C	1.553786	0.837003	0.666868
C94	C	0.885961	0.249278	0.000199
C95	C	1.219294	0.582611	0.333532
C96	C	1.552628	0.915945	0.666866
C97	C	0.822091	0.279509	0.000183
C98	C	1.155424	0.612842	0.333516
C99	C	1.488758	0.946176	0.666849
C100	C	0.759375	0.230794	0.000175
C101	C	1.092709	0.564127	0.333509
C102	C	1.426042	0.897460	0.666842
C103	C	0.760535	0.151854	0.000183
C104	C	1.093868	0.485187	0.333516
C105	C	1.427201	0.818520	0.666849
C106	C	0.754699	0.549150	0.000147
C107	C	1.088033	0.882484	0.333481
C108	C	1.421366	1.215817	0.666814
C109	C	0.753545	0.628097	0.000138
C110	C	1.086878	0.961430	0.333471
C111	C	1.420212	1.294763	0.666805
C112	C	0.880126	0.646575	0.000164
C113	C	1.213459	0.979908	0.333497
C114	C	1.546793	1.313241	0.666830
C115	C	0.881285	0.567635	0.000171
C116	C	1.214618	0.900968	0.333504
C117	C	1.547952	1.234301	0.666838
C118	C	0.818570	0.518926	0.000168
C119	C	1.151903	0.852260	0.333501
C120	C	1.485236	1.185593	0.666834
C121	C	0.819827	0.433329	0.000171
C122	C	1.153160	0.766662	0.333505
C123	C	1.486493	1.099995	0.666838
C124	C	0.820834	0.365105	0.000174
C125	C	1.154167	0.698438	0.333507
C126	C	1.487500	1.031772	0.666840
C127	C	0.947332	-0.094824	0.000253
C128	C	1.280666	0.238509	0.333586
C129	C	1.613999	0.571842	0.666919
C130	C	1.024437	-0.096054	0.000277
C131	C	1.357771	0.237279	0.333610
C132	C	1.691104	0.570612	0.666943
N133	N	0.820310	-0.100773	-0.188447
N134	N	1.153643	0.232560	0.144886
N135	N	1.486976	0.565893	0.478219
C136	C	0.815028	0.760824	0.000216
C137	C	1.148362	1.094157	0.333549
C138	C	1.481695	1.427490	0.666882
C139	C	0.816257	0.676807	0.000152
C140	C	1.149590	1.010141	0.333486
C141	C	1.482923	1.343474	0.666819
C142	C	0.867632	-0.049183	-0.226544
C143	C	1.200966	0.284150	0.106789
C144	C	1.534299	0.617483	0.440122
C145	C	0.867637	-0.049180	-0.302772
C146	C	1.200970	0.284153	0.030561
C147	C	1.534303	0.617487	0.363894
C148	C	0.820325	-0.100780	-0.340900
C149	C	1.153658	0.232554	-0.007567
C150	C	1.486992	0.565887	0.325766
C151	C	0.772993	-0.152374	-0.302794
C152	C	1.106327	0.180960	0.030539
C153	C	1.439660	0.514293	0.363873
C154	C	0.772986	-0.152370	-0.226568
C155	C	1.106319	0.180963	0.106766
C156	C	1.439652	0.514296	0.440099
C157	C	0.811108	-0.169742	-0.461652
C158	C	1.144442	0.163592	-0.128318
C159	C	1.477775	0.496925	0.205015
C160	C	0.811121	-0.169746	-0.537877
C161	C	1.144454	0.163588	-0.204543
C162	C	1.477788	0.496921	0.128790
C163	C	0.820345	-0.100789	-0.576008
C164	C	1.153678	0.232544	-0.242674
C165	C	1.487011	0.565878	0.090659
C166	C	0.829571	-0.031825	-0.537905
C167	C	1.162904	0.301508	-0.204571
C168	C	1.496237	0.634841	0.128762
C169	C	0.829563	-0.031822	-0.461678
C170	C	1.162896	0.301511	-0.128345
C171	C	1.496230	0.634844	0.204989
C172	C	0.820328	-0.100788	-0.423555
C173	C	1.153661	0.232545	-0.090222
C174	C	1.486994	0.565878	0.243112
C175	C	0.867675	-0.049191	-0.696760
C176	C	1.201008	0.284142	-0.363426
C177	C	1.534341	0.617476	-0.030093
C178	C	0.867674	-0.049187	-0.772989
C179	C	1.201008	0.284147	-0.439656
C180	C	1.534341	0.617480	-0.106322
C181	C	0.773034	-0.152387	-0.773009
C182	C	1.106368	0.180946	-0.439676
C183	C	1.439701	0.514280	-0.106343
C184	C	0.773031	-0.152385	-0.696781
C185	C	1.106365	0.180949	-0.363448
C186	C	1.439698	0.514282	-0.030115
C187	C	0.820355	-0.100788	-0.658661
C188	C	1.153689	0.232546	-0.325328
C189	C	1.487022	0.565879	0.008005
N190	N	0.820361	-0.100786	0.188888
N191	N	1.153695	0.232547	0.522222
N192	N	1.487028	0.565881	0.855555
H193	H	0.594260	-0.230549	0.000202
H194	H	0.927593	0.102784	0.333536
H195	H	1.260927	0.436117	0.666869
Cl196	Cl	0.644497	0.050041	0.000134
Cl197	Cl	0.977831	0.383375	0.333467
Cl198	Cl	1.311164	0.716708	0.666800
Cl199	Cl	0.841153	0.054871	-0.413779
Cl200	Cl	1.174486	0.388204	-0.080446
Cl201	Cl	1.507819	0.721537	0.252887
Cl202	Cl	0.673245	0.666100	0.000119
Cl203	Cl	1.006578	0.999433	0.333452
Cl204	Cl	1.339912	1.332766	0.666785
H205	H	0.046401	0.028984	0.000305
H206	H	0.379734	0.362318	0.333639
H207	H	0.713068	0.695651	0.666972
H208	H	0.709469	0.112195	0.000175
H209	H	1.042802	0.445528	0.333508
H210	H	1.376135	0.778861	0.666842
H211	H	0.933295	0.543025	0.000181
H212	H	1.266628	0.876359	0.333514
H213	H	1.599961	1.209692	0.666848
Cl214	Cl	0.927134	0.015681	-0.350674
Cl215	Cl	1.260468	0.349015	-0.017340
Cl216	Cl	1.593801	0.682348	0.315993
Cl217	Cl	0.679081	0.268799	0.000164
Cl218	Cl	1.012414	0.602132	0.333497
Cl219	Cl	1.345748	0.935465	0.666830
Cl220	Cl	0.967418	0.132340	0.000214
Cl221	Cl	1.300751	0.465673	0.333548
Cl222	Cl	1.634085	0.799007	0.666881
H223	H	0.931192	0.686243	0.000170
H224	H	1.264525	1.019576	0.333504
H225	H	1.597858	1.352910	0.666837
Cl226	Cl	0.964802	0.310510	0.000209
Cl227	Cl	1.298135	0.643843	0.333542
Cl228	Cl	1.631468	0.977176	0.666875
Cl229	Cl	0.224003	-0.218747	-0.095515
Cl230	Cl	0.557336	0.114586	0.237818
Cl231	Cl	0.890669	0.447920	0.571152
Cl232	Cl	0.387524	-0.221361	-0.095540
Cl233	Cl	0.720857	0.111973	0.237793
Cl234	Cl	1.054191	0.445306	0.571126
Cl235	Cl	0.841172	0.054869	-0.585832
Cl236	Cl	1.174506	0.388203	-0.252499
Cl237	Cl	1.507839	0.721536	0.080835
H238	H	0.906165	-0.007168	-0.195509
H239	H	1.239498	0.326165	0.137824
H240	H	1.572831	0.659498	0.471157
Cl241	Cl	0.799528	-0.256442	-0.585770
Cl242	Cl	1.132861	0.076892	-0.252437
Cl243	Cl	1.466194	0.410225	0.080897
Cl244	Cl	0.675857	0.487927	0.000145
Cl245	Cl	1.009190	0.821260	0.333478
Cl246	Cl	1.342523	1.154594	0.666812
H247	H	0.906207	-0.007175	-0.665721
H248	H	1.239540	0.326158	-0.332388
H249	H	1.572874	0.659491	0.000946
Cl250	Cl	0.927167	0.015679	-0.820885
Cl251	Cl	1.260500	0.349012	-0.487552
Cl252	Cl	1.593833	0.682346	-0.154219
Cl253	Cl	0.713551	-0.217249	-0.820936
Cl254	Cl	1.046885	0.116084	-0.487603
Cl255	Cl	1.380218	0.449417	-0.154269
H256	H	0.734500	-0.194397	-0.665761
H257	H	1.067833	0.138936	-0.332427
H258	H	1.401166	0.472270	0.000906
H259	H	0.803585	-0.225898	-0.430612
H260	H	1.136919	0.107435	-0.097278
H261	H	1.470252	0.440769	0.236055
H262	H	0.734470	-0.194386	-0.333842
H263	H	1.067804	0.138948	-0.000508
H264	H	1.401137	0.472281	0.332825
H265	H	0.462831	-0.228448	0.000216
H266	H	0.796165	0.104885	0.333549
H267	H	1.129498	0.438219	0.666882
Cl268	Cl	0.159691	-0.254216	0.000280
Cl269	Cl	0.493024	0.079117	0.333613
Cl270	Cl	0.826358	0.412450	0.666946
Cl271	Cl	0.713490	-0.217232	-0.178671
Cl272	Cl	1.046823	0.116101	0.154662
Cl273	Cl	1.380157	0.449434	0.487996
H274	H	0.177834	0.026886	0.000235
H275	H	0.511167	0.360219	0.333569
H276	H	0.844501	0.693552	0.666902
Cl277	Cl	-0.003827	-0.251601	0.000301
Cl278	Cl	0.329506	0.081732	0.333634
Cl279	Cl	0.662839	0.415065	0.666967
H280	H	0.493296	0.021841	0.000186
H281	H	0.826629	0.355174	0.333519
H282	H	1.159962	0.688508	0.666853
H283	H	0.266335	-0.003866	0.077215
H284	H	0.599669	0.329467	0.410548
H285	H	0.933002	0.662801	0.743882
Cl286	Cl	0.416666	0.017182	0.095976
Cl287	Cl	0.750000	0.350515	0.429309
Cl288	Cl	1.083333	0.683849	0.762642
