data_functionalizedCrystal
_audit_creation_method	'MofGen! by Chris Wilmer'
_symmetry_space_group_name_H-M	'P1'
_symmetry_Int_Tables_number	1
_symmetry_cell_setting	triclinic
loop_
_symmetry_equiv_pos_as_xyz
  x,y,z
_cell_length_a	15.995292
_cell_length_b	14.472311
_cell_length_c	15.995350
_cell_angle_alpha	90.007428
_cell_angle_beta	83.480495
_cell_angle_gamma	90.005304
loop_
_atom_site_label
_atom_site_type_symbol
_atom_site_fract_x
_atom_site_fract_y
_atom_site_fract_z
O1	O	1.111015	0.076861	0.107701
O2	O	0.867233	0.076857	0.121079
O3	O	0.995788	0.076858	-0.007499
O4	O	0.982460	0.076860	0.236279
O5	O	0.995779	-0.076824	-0.007515
O6	O	0.867224	-0.076825	0.121063
O7	O	1.111006	-0.076821	0.107685
Cu8	Cu	0.989114	-0.090855	0.114372
Cu9	Cu	0.989125	0.090892	0.114392
O10	O	0.982451	-0.076822	0.236263
C11	C	0.836033	0.000016	0.120527
C12	C	0.743080	0.000014	0.118894
N13	N	0.989113	-0.218686	0.114358
C14	C	0.405341	0.000025	0.112893
C15	C	0.428654	0.000368	0.205697
C16	C	0.525329	0.000018	0.207461
C17	C	0.572897	0.000020	0.115871
C18	C	0.543790	-0.087737	0.069464
C19	C	0.447000	-0.087807	0.068347
C20	C	0.447155	0.086958	0.066470
C21	C	0.543647	0.088114	0.069909
C22	C	0.667593	0.000014	0.117549
C23	C	0.310646	0.000024	0.111212
C24	C	0.989125	-0.592777	0.114385
C25	C	1.058136	-0.553582	0.045815
C26	C	1.057956	-0.446494	0.045563
C27	C	0.989120	-0.407186	0.114372
C28	C	0.901760	-0.446079	0.095309
C29	C	0.902169	-0.553200	0.094824
C30	C	1.006687	-0.553281	0.202220
C31	C	1.008671	-0.446153	0.201632
C32	C	0.989111	-0.302298	0.114366
C33	C	0.989128	-0.697665	0.114389
C34	C	1.142206	0.000023	0.108237
C35	C	1.235159	0.000030	0.109870
C36	C	0.995232	0.000019	-0.038702
C37	C	0.993580	0.000024	-0.131652
N38	N	0.989132	0.218722	0.114399
C39	C	0.987648	0.000021	-0.469398
C40	C	0.896094	0.000364	-0.421945
C41	C	0.897746	0.000018	-0.325255
C42	C	0.990591	0.000023	-0.301838
C43	C	1.035744	-0.087734	-0.342934
C44	C	1.033444	-0.087808	-0.439569
C45	C	1.035345	0.086958	-0.439910
C46	C	1.035323	0.088117	-0.342964
C47	C	0.992259	0.000021	-0.207141
C48	C	0.985983	0.000017	-0.564095
C49	C	0.983006	0.000019	0.267466
C50	C	0.984658	0.000020	0.360416
H51	H	0.400661	0.063303	0.241475
H52	H	1.122894	-0.420197	0.056911
H53	H	1.047079	-0.580513	-0.018998
H54	H	0.399632	-0.062213	0.241263
H55	H	0.562220	0.153037	0.103698
H56	H	1.123292	-0.579335	0.056980
N57	N	1.043963	-0.414365	-0.036235
N58	N	1.034290	-0.471056	-0.093312
H59	H	1.024437	-0.448367	-0.151094
N60	N	0.548437	-0.079040	0.253289
N61	N	0.623945	-0.093039	0.262557
H62	H	0.640266	-0.148880	0.294922
H63	H	0.885902	-0.419260	0.031982
N64	N	0.549217	0.078894	0.253098
N65	N	0.624871	0.092112	0.262236
H66	H	0.641737	0.147809	0.294486
N67	N	1.084889	-0.587149	0.225231
N68	N	1.086301	-0.633202	0.291161
H69	H	1.141533	-0.657122	0.307407
N70	N	1.089291	-0.414260	0.219772
N71	N	1.132233	-0.363019	0.168669
H72	H	1.189172	-0.340489	0.181478
H73	H	0.859504	0.063297	-0.440462
H74	H	0.859659	-0.062219	-0.441538
N75	N	0.949699	-0.412578	0.268636
N76	N	0.892041	-0.359150	0.253098
H77	H	0.850386	-0.335437	0.300418
H78	H	0.886690	-0.578196	0.030768
N79	N	0.428724	-0.092820	-0.017006
N80	N	0.354042	-0.093768	-0.033034
H81	H	0.341135	-0.097314	-0.093313
H82	H	0.576618	0.093416	0.003058
N83	N	0.413361	-0.170106	0.108648
N84	N	0.461393	-0.227092	0.137404
H85	H	0.437640	-0.285218	0.165868
N86	N	0.568954	-0.169663	0.109878
N87	N	0.608316	-0.163647	0.172848
H88	H	0.626088	-0.221505	0.201395
H89	H	0.433161	0.087553	-0.001840
N90	N	0.835783	-0.414155	0.156298
N91	N	0.837226	-0.432972	0.232388
H92	H	0.790630	-0.410426	0.275464
H93	H	0.862007	-0.062999	-0.297389
N94	N	0.835804	-0.585721	0.155088
N95	N	0.789330	-0.529301	0.197366
H96	H	0.742454	-0.552264	0.239921
H97	H	0.956364	-0.578633	0.253248
H98	H	1.004375	-0.153044	-0.314553
H99	H	0.862252	0.062926	-0.296819
N100	N	0.583769	-0.091821	-0.015087
N101	N	0.634281	-0.029952	-0.042149
H102	H	0.662517	-0.032832	-0.101863
N103	N	0.992128	-0.170109	-0.462521
N104	N	0.965189	-0.227092	-0.407196
H105	H	0.936008	-0.285220	-0.423401
H106	H	1.100661	-0.091786	-0.471832
N107	N	1.121313	-0.091815	-0.325232
N108	N	1.150040	-0.029943	-0.282026
H109	H	1.210474	-0.032822	-0.269522
N110	N	0.997799	0.170394	-0.465672
N111	N	0.935423	0.166795	-0.506085
H112	H	0.908899	0.225718	-0.524282
H113	H	1.002311	0.153038	-0.315702
N114	N	1.120260	0.094755	-0.323704
N115	N	1.171543	0.031728	-0.345610
H116	H	1.231533	0.036407	-0.332005
N117	N	1.120028	0.087686	-0.479763
N118	N	1.145242	0.024524	-0.529678
H119	H	1.205048	0.025028	-0.557825
H120	H	0.418831	0.153473	0.095484
