data_functionalizedCrystal
_audit_creation_method	'MofGen! by Chris Wilmer'
_symmetry_space_group_name_H-M	'P1'
_symmetry_Int_Tables_number	1
_symmetry_cell_setting	triclinic
loop_
_symmetry_equiv_pos_as_xyz
  x,y,z
_cell_length_a	19.188905
_cell_length_b	19.188930
_cell_length_c	9.130307
_cell_angle_alpha	89.991600
_cell_angle_beta	89.991361
_cell_angle_gamma	83.139668
loop_
_atom_site_label
_atom_site_type_symbol
_atom_site_fract_x
_atom_site_fract_y
_atom_site_fract_z
O1	O	0.926153	0.087083	-0.122057
O2	O	0.722839	0.098836	-0.122009
O3	O	0.830363	-0.008697	-0.122006
O4	O	0.818629	0.194616	-0.122060
O5	O	0.830360	-0.008698	0.121593
O6	O	0.722836	0.098835	0.121590
O7	O	0.926150	0.087082	0.121542
Cu8	Cu	0.824492	0.092958	0.143808
Cu9	Cu	0.824496	0.092960	-0.144276
O10	O	0.818625	0.194615	0.121539
C11	C	0.696826	0.098458	-0.000203
C12	C	0.619321	0.097324	-0.000184
C13	C	0.582931	0.096780	-0.132973
C14	C	0.510107	0.095707	-0.132991
C15	C	0.473678	0.095164	-0.000212
C16	C	0.510076	0.095712	0.132595
C17	C	0.582898	0.096792	0.132609
N18	N	0.364657	0.053735	0.098614
N19	N	0.295480	0.052707	0.098591
C20	C	0.254272	0.091911	-0.000246
N21	N	0.284855	0.132173	-0.099083
N22	N	0.354039	0.133197	-0.099065
C23	C	0.394716	0.093993	-0.000212
C24	C	0.138918	0.090205	-0.133065
C25	C	0.066092	0.089136	-0.133077
C26	C	0.066064	0.089134	0.132513
C27	C	0.138887	0.090210	0.132522
C28	C	0.175310	0.090742	-0.000271
C29	C	0.829982	-0.034708	-0.000202
C30	C	0.828841	-0.112213	-0.000189
C31	C	0.891933	-0.157142	-0.000197
C32	C	0.890861	-0.229966	-0.000220
C33	C	0.826694	-0.257857	-0.000206
C34	C	0.763594	-0.212917	-0.000207
C35	C	0.764668	-0.140095	-0.000198
N36	N	0.777645	-0.365858	0.082707
N37	N	0.776629	-0.435036	0.082702
C38	C	0.823456	-0.477265	-0.000235
N39	N	0.871347	-0.447703	-0.083148
N40	N	0.872364	-0.378519	-0.083137
C41	C	0.825523	-0.336819	-0.000216
C42	C	0.885390	-0.601159	-0.000270
C43	C	0.884315	-0.673984	-0.000302
C44	C	0.757047	-0.656933	-0.000274
C45	C	0.758123	-0.584110	-0.000257
C46	C	0.822296	-0.556228	-0.000248
C47	C	0.952163	0.087460	-0.000267
C48	C	1.029668	0.088594	-0.000296
C49	C	0.819007	0.220626	-0.000268
C50	C	0.820148	0.298131	-0.000291
N51	N	0.824495	0.092957	0.346431
N52	N	0.824500	0.092955	-0.346898
C53	C	0.919746	-0.002236	0.346424
C54	C	0.967376	-0.049830	0.423087
C55	C	0.967383	-0.049831	0.576421
C56	C	0.919753	-0.002233	0.653094
C57	C	0.872123	0.045361	0.576431
C58	C	0.872122	0.045358	0.423094
C59	C	0.776870	0.140550	0.576438
C60	C	0.776865	0.140555	0.423105
C61	C	0.729240	0.188147	0.653112
C62	C	0.681612	0.235746	0.576449
C63	C	0.681608	0.235745	0.423106
C64	C	0.729235	0.188149	0.346442
H65	H	0.036403	0.088696	0.240625
F66	F	0.958014	-0.277792	-0.000231
H67	H	0.937644	-0.578456	-0.000270
F68	F	0.695303	-0.242601	-0.000201
H69	H	0.642819	0.274500	0.360695
H70	H	0.944187	-0.134445	-0.000195
F71	F	1.018073	-0.100489	0.658012
H72	H	0.168517	0.090648	0.240653
F73	F	0.697514	-0.092276	-0.000191
H74	H	0.612582	0.097213	-0.241104
H75	H	0.935694	-0.710565	-0.000317
H76	H	0.729245	0.188142	0.777964
F77	F	0.729237	0.188147	0.183250
H78	H	0.480473	0.095265	-0.241128
H79	H	0.704801	-0.679641	-0.000270
F80	F	0.690971	-0.536291	-0.000242
H81	H	0.919750	-0.002234	0.221572
F82	F	1.018063	-0.100487	0.341479
H83	H	0.919756	-0.002242	0.777947
H84	H	0.642832	0.274494	0.638886
F85	F	0.621628	0.097371	0.273948
H86	H	0.480411	0.095271	0.240705
H87	H	0.168574	0.090645	-0.241192
H88	H	0.036464	0.088697	-0.241215
