data_functionalizedCrystal
_audit_creation_method	'MofGen! by Chris Wilmer'
_symmetry_space_group_name_H-M	'P1'
_symmetry_Int_Tables_number	1
_symmetry_cell_setting	triclinic
loop_
_symmetry_equiv_pos_as_xyz
  x,y,z
_cell_length_a	14.044220
_cell_length_b	16.992694
_cell_length_c	16.053802
_cell_angle_alpha	92.750953
_cell_angle_beta	92.799619
_cell_angle_gamma	88.071450
loop_
_atom_site_label
_atom_site_type_symbol
_atom_site_fract_x
_atom_site_fract_y
_atom_site_fract_z
O1	O	0.198305	-1.057564	-0.069327
O2	O	0.698305	-0.557564	0.430673
O3	O	0.196087	-0.829125	-0.069352
O4	O	0.696087	-0.329125	0.430648
O5	O	0.058952	-0.939916	-0.069331
O6	O	0.558952	-0.439916	0.430669
O7	O	0.335440	-0.946774	-0.069347
O8	O	0.835440	-0.446774	0.430653
O9	O	0.066468	-0.933815	0.069526
O10	O	0.566468	-0.433815	0.569526
O11	O	0.203602	-0.823025	0.069506
O12	O	0.703602	-0.323025	0.569506
O13	O	0.205821	-1.051464	0.069531
O14	O	0.705821	-0.551464	0.569531
Zn15	Zn	0.205905	-0.936276	0.091565
Zn16	Zn	0.705905	-0.436276	0.591565
Zn17	Zn	0.196003	-0.944313	-0.091386
Zn18	Zn	0.696003	-0.444313	0.408614
O19	O	0.342955	-0.940673	0.069511
O20	O	0.842955	-0.440673	0.569511
C21	C	0.027168	-0.933863	0.000098
C22	C	0.527168	-0.433863	0.500098
C23	C	-0.078736	-0.924909	0.000098
C24	C	0.421264	-0.424909	0.500098
C25	C	0.196993	-0.796663	0.000074
C26	C	0.696993	-0.296663	0.500074
C27	C	0.188484	-0.709024	0.000065
C28	C	0.688484	-0.209024	0.500065
C29	C	0.204915	-1.083926	0.000103
C30	C	0.704915	-0.583926	0.500103
C31	C	0.213424	-1.171565	0.000107
C32	C	0.713424	-0.671565	0.500107
C33	C	-0.272638	-0.908540	0.000084
C34	C	0.227362	-0.408540	0.500084
C35	C	-0.325460	-0.972046	0.000088
C36	C	0.174540	-0.472046	0.500088
C37	C	-0.433354	-0.962938	0.000080
C38	C	0.066646	-0.462938	0.500080
C39	C	-0.164734	-0.917647	0.000091
C40	C	0.335266	-0.417647	0.500091
C41	C	0.374740	-0.946726	0.000080
C42	C	0.874740	-0.446726	0.500080
C43	C	0.480643	-0.955680	0.000074
C44	C	0.980643	-0.455680	0.500074
N45	N	0.212662	-0.930796	0.216425
N46	N	0.712662	-0.430796	0.716425
C47	C	0.270580	-0.664526	0.000061
C48	C	0.770580	-0.164526	0.500061
C49	C	0.262581	-0.582179	0.000073
C50	C	0.762581	-0.082179	0.500073
C51	C	0.172483	-0.544333	0.000083
C52	C	0.672483	-0.044333	0.500083
C53	C	0.090381	-0.588837	0.000090
C54	C	0.590381	-0.088837	0.500090
C55	C	0.098382	-0.671182	0.000084
C56	C	0.598382	-0.171182	0.500084
C57	C	0.139322	-0.298414	0.000107
C58	C	0.639322	0.201586	0.500107
C59	C	0.131327	-0.216063	0.000111
C60	C	0.631327	0.283937	0.500111
C61	C	0.303528	-0.209412	0.000096
C62	C	0.803528	0.290588	0.500096
C63	C	0.311521	-0.291759	0.000085
C64	C	0.811521	0.208241	0.500085
C65	C	0.229419	-0.336255	0.000096
C66	C	0.729419	0.163745	0.500096
N67	N	0.164304	-0.460161	0.000093
N68	N	0.664304	0.039839	0.500093
N69	N	0.237599	-0.420425	0.000092
N70	N	0.737599	0.079575	0.500092
N71	N	0.189239	-0.949799	-0.216245
N72	N	0.689239	-0.449799	0.283755
C73	C	0.154335	-0.977958	0.260127
C74	C	0.654335	-0.477958	0.760127
C75	C	0.159071	-0.974132	0.347533
C76	C	0.659071	-0.474132	0.847533
C77	C	0.222140	-0.923149	0.391235
C78	C	0.722140	-0.423149	0.891235
C79	C	0.280470	-0.875982	0.347526
C80	C	0.780470	-0.375982	0.847526
C81	C	0.275728	-0.879804	0.260122
C82	C	0.775728	-0.379804	0.760122
C83	C	0.242827	-0.906453	0.652642
C84	C	0.742827	-0.406453	1.152642
C85	C	0.247566	-0.902637	0.740052
C86	C	0.747566	-0.402637	1.240052
C87	C	0.126165	-1.000787	0.740053
C88	C	0.626165	-0.500787	1.240053
C89	C	0.121433	-1.004608	0.652647
C90	C	0.621433	-0.504608	1.152647
C91	C	0.179759	-0.957438	0.608946
C92	C	0.679759	-0.457438	1.108946
N93	N	0.226985	-0.919240	0.480578
N94	N	0.726985	-0.419240	0.980578
N95	N	0.174909	-0.961343	0.519604
N96	N	0.674909	-0.461343	1.019604
H97	H	-0.289655	-1.033258	0.000039
H98	H	0.210345	-0.533258	0.500039
O99	O	0.338638	-0.828925	0.212993
O100	O	0.838638	-0.328925	0.712993
H101	H	0.293424	-0.789544	0.173198
H102	H	0.793424	-0.289544	0.673198
H103	H	0.102981	-1.019477	0.224551
H104	H	0.602981	-0.519477	0.724551
O105	O	-0.320068	-0.827466	0.000084
O106	O	0.179932	-0.327466	0.500084
H107	H	-0.301264	-0.797475	-0.056514
H108	H	0.198736	-0.297475	0.443486
O109	O	0.367758	-0.705345	0.000058
O110	O	0.867758	-0.205345	0.500058
H111	H	0.423500	-0.660565	0.000069
H112	H	0.923500	-0.160565	0.500069
O113	O	0.351126	-0.534182	0.000069
O114	O	0.851126	-0.034182	0.500069
H115	H	0.415120	-0.574333	0.000051
H116	H	0.915120	-0.074333	0.500051
O117	O	0.408698	-0.332579	0.000095
O118	O	0.908698	0.167421	0.500095
H119	H	0.464444	-0.287801	0.000107
H120	H	0.964444	0.212199	0.500107
O121	O	0.315586	-0.847642	0.787198
O122	O	0.815586	-0.347642	1.287198
H123	H	0.297822	-0.786075	0.770445
H124	H	0.797822	-0.286075	1.270445
O125	O	0.392080	-0.161421	0.000101
O126	O	0.892080	0.338579	0.500101
H127	H	0.371385	-0.097802	0.000117
H128	H	0.871385	0.402198	0.500117
O129	O	0.034147	-0.175238	0.000130
O130	O	0.534147	0.324762	0.500130
H131	H	-0.021600	-0.220012	0.000145
H132	H	0.478400	0.279988	0.500145
H133	H	0.072468	-0.334634	0.000117
H134	H	0.572468	0.165366	0.500117
O135	O	-0.006800	-0.548022	0.000104
O136	O	0.493200	-0.048022	0.500104
H137	H	0.001427	-0.483287	0.000099
H138	H	0.501427	0.016713	0.500099
O139	O	0.009837	-0.719183	0.000091
O140	O	0.509837	-0.219183	0.500091
H141	H	-0.036049	-0.707462	-0.056504
H142	H	0.463951	-0.207462	0.443496
O143	O	0.096180	-1.025015	0.394673
O144	O	0.596180	-0.525015	0.894673
H145	H	0.051542	-1.061121	0.349600
H146	H	0.551542	-0.561121	0.849600
O147	O	0.348502	-0.820999	0.394663
O148	O	0.848502	-0.320999	0.894663
H149	H	0.388261	-0.788843	0.349587
H150	H	0.888261	-0.288843	0.849587
H151	H	0.070077	-1.046122	0.617066
H152	H	0.570077	-0.546122	1.117066
O153	O	0.063249	-1.051655	0.787185
O154	O	0.563249	-0.551655	1.287185
H155	H	0.077133	-1.040430	0.855305
H156	H	0.577133	-0.540430	1.355305
H157	H	0.290320	-0.868047	0.617067
H158	H	0.790320	-0.368047	1.117067
