data_functionalizedCrystal
_audit_creation_method	'MofGen! by Chris Wilmer'
_symmetry_space_group_name_H-M	'P1'
_symmetry_Int_Tables_number	1
_symmetry_cell_setting	triclinic
loop_
_symmetry_equiv_pos_as_xyz
  x,y,z
_cell_length_a	23.532407
_cell_length_b	10.654550
_cell_length_c	22.010155
_cell_angle_alpha	90.005492
_cell_angle_beta	90.006286
_cell_angle_gamma	96.333210
loop_
_atom_site_label
_atom_site_type_symbol
_atom_site_fract_x
_atom_site_fract_y
_atom_site_fract_z
O1	O	0.079972	-1.665306	-0.050582
O2	O	0.087592	-1.299586	-0.050573
O3	O	0.000922	-1.493474	-0.050567
O4	O	0.166642	-1.471417	-0.050588
O5	O	0.000945	-1.493460	0.050484
O6	O	0.087615	-1.299572	0.050477
O7	O	0.079995	-1.665292	0.050468
Cu8	Cu	0.083807	-1.482431	0.059700
Cu9	Cu	0.083780	-1.482447	-0.059804
O10	O	0.166665	-1.471404	0.050462
C11	C	0.087044	-1.252799	-0.000046
C12	C	0.085370	-1.113408	-0.000042
C13	C	-0.020286	-1.492905	-0.000040
C14	C	-0.083514	-1.491217	-0.000035
N15	N	0.083826	-1.482429	0.143752
C16	C	-0.481938	-1.595364	-0.000071
C17	C	-0.541349	-1.593795	-0.000076
O18	O	-0.577464	-1.690341	-0.000100
N19	N	-0.564726	-1.478529	-0.000072
C20	C	-0.528689	-1.364824	-0.000071
O21	O	-0.554029	-1.266636	-0.000069
C22	C	-0.469280	-1.366394	-0.000070
C23	C	-0.445906	-1.481668	-0.000068
C24	C	-0.458564	-1.710629	-0.000069
C25	C	-0.399158	-1.712197	-0.000063
C26	C	-0.363126	-1.598500	-0.000060
C27	C	-0.386500	-1.483236	-0.000062
C28	C	-0.433244	-1.252690	-0.000073
C29	C	-0.373832	-1.254270	-0.000073
C30	C	-0.350458	-1.369544	-0.000070
C31	C	-0.291061	-1.371107	-0.000053
N32	N	-0.267684	-1.486374	-0.000056
C33	C	-0.303716	-1.600070	-0.000059
C34	C	-0.653453	-1.361535	-0.000072
C35	C	-0.712861	-1.359964	-0.000068
C36	C	-0.725517	-1.588936	-0.000074
C37	C	-0.666108	-1.590506	-0.000074
C38	C	-0.630076	-1.476802	-0.000075
C39	C	-0.178958	-1.603355	-0.000047
C40	C	-0.119546	-1.604913	-0.000039
C41	C	-0.106896	-1.375942	-0.000036
C42	C	-0.166303	-1.374383	-0.000041
C43	C	-0.202333	-1.488100	-0.000048
O44	O	-0.254911	-1.274613	-0.000030
O45	O	-0.278369	-1.698241	-0.000069
C46	C	0.187873	-1.471972	-0.000066
C47	C	0.251101	-1.473661	-0.000075
C48	C	0.080543	-1.712079	-0.000059
C49	C	0.082217	-1.851469	-0.000067
C50	C	0.136400	-1.032306	-0.000058
C51	C	0.134824	-0.901335	-0.000068
C52	C	0.031183	-0.932582	-0.000050
C53	C	0.032760	-1.063550	-0.000035
C54	C	0.189010	-1.082164	-0.000065
C55	C	0.240045	-1.001060	-0.000081
C56	C	0.238468	-0.870089	-0.000092
C57	C	0.185858	-0.820222	-0.000086
N58	N	0.083757	-1.482459	-0.143857
C59	C	0.122158	-1.396546	0.436361
C60	C	0.122163	-1.396543	0.372754
O61	O	0.154778	-1.323485	0.339860
N62	N	0.083804	-1.482419	0.340936
C63	C	0.045434	-1.568295	0.372730
O64	O	0.012807	-1.641339	0.339826
C65	C	0.045427	-1.568292	0.436336
C66	C	0.083792	-1.482418	0.468150
C67	C	0.160520	-1.310679	0.468175
C68	C	0.160515	-1.310684	0.531779
C69	C	0.122149	-1.396556	0.563568
C70	C	0.083787	-1.482423	0.531754
C71	C	0.007054	-1.654161	0.468129
C72	C	0.007049	-1.654149	0.531739
C73	C	0.045415	-1.568276	0.563553
C74	C	0.045416	-1.568301	0.627146
N75	N	0.083775	-1.482425	0.658963
C76	C	0.122142	-1.396552	0.627174
C77	C	0.045452	-1.568295	0.239152
C78	C	0.045461	-1.568306	0.175547
C79	C	0.122190	-1.396551	0.175575
C80	C	0.122183	-1.396548	0.239181
C81	C	0.083811	-1.482419	0.270969
C82	C	0.122129	-1.396570	0.760745
C83	C	0.122123	-1.396587	0.824354
C84	C	0.045393	-1.568336	0.824321
C85	C	0.045401	-1.568325	0.760717
C86	C	0.083771	-1.482432	0.728931
O87	O	0.012817	-1.641318	0.660080
O88	O	0.154758	-1.323510	0.660086
H89	H	-0.100519	-1.698787	-0.000035
H90	H	0.153373	-1.326627	0.734872
Cl91	Cl	0.302624	-0.768134	-0.000106
Cl92	Cl	0.183878	-0.655571	-0.000090
Cl93	Cl	-0.369783	-1.857121	-0.000077
Cl94	Cl	-0.002825	-1.676297	0.720724
Cl95	Cl	0.190996	-1.246811	-0.000055
H96	H	-0.754865	-1.681514	-0.000079
H97	H	0.282878	-1.041671	-0.000081
H98	H	-0.647081	-1.684372	-0.000072
Cl99	Cl	-0.742238	-1.215042	-0.000060
H100	H	-0.624119	-1.268937	-0.000068
Cl101	Cl	-0.034951	-0.869890	-0.000046
Cl102	Cl	-0.031393	-1.165514	-0.000015
H103	H	-0.452264	-1.158822	-0.000079
H104	H	0.153367	-1.326658	0.850255
H105	H	-0.185334	-1.280517	-0.000026
Cl106	Cl	-0.503852	-1.853582	-0.000072
H107	H	-0.344497	-1.161675	-0.000075
H108	H	0.014157	-1.638256	0.850213
Cl109	Cl	0.208744	-1.202717	0.571767
H110	H	0.191762	-1.240745	0.442298
H111	H	0.153429	-1.326627	0.149681
Cl112	Cl	-0.224244	-1.746316	-0.000055
Cl113	Cl	0.170414	-1.288586	0.279169
Cl114	Cl	-0.002763	-1.676282	0.135559
Cl115	Cl	-0.002788	-1.676269	0.279108
H116	H	-0.077548	-1.283373	-0.000031
Cl117	Cl	-0.041180	-1.762118	0.428147
Cl118	Cl	-0.041194	-1.762108	0.571697
