data_functionalizedCrystal
_audit_creation_method	'MofGen! by Chris Wilmer'
_symmetry_space_group_name_H-M	'P1'
_symmetry_Int_Tables_number	1
_symmetry_cell_setting	triclinic
loop_
_symmetry_equiv_pos_as_xyz
  x,y,z
_cell_length_a	13.033293
_cell_length_b	16.120297
_cell_length_c	13.032721
_cell_angle_alpha	80.345876
_cell_angle_beta	74.815879
_cell_angle_gamma	85.311971
loop_
_atom_site_label
_atom_site_type_symbol
_atom_site_fract_x
_atom_site_fract_y
_atom_site_fract_z
Zn1	Zn	1.522678	-0.652702	0.264378
Zn2	Zn	1.509004	-0.528985	0.433009
Zn3	Zn	1.356339	-0.497566	0.275649
Zn4	Zn	1.322463	-0.652606	0.464477
O5	O	1.427621	-0.582965	0.359378
O6	O	1.668545	-0.649480	0.268861
O7	O	1.497208	-0.408156	0.403681
O8	O	1.398303	-0.505036	0.124556
O9	O	1.658500	-0.558586	0.392753
O10	O	1.520511	-0.619014	0.116276
O11	O	1.385045	-0.385073	0.288070
O12	O	1.204163	-0.504943	0.318584
O13	O	1.340568	-0.769280	0.446386
O14	O	1.179275	-0.618851	0.457315
O15	O	1.487664	-0.769351	0.299375
O16	O	1.464360	-0.558493	0.586780
O17	O	1.327309	-0.649317	0.609900
C18	C	1.153427	-0.558478	0.392588
C19	C	1.036121	-0.548024	0.406823
C20	C	0.988773	-0.588423	0.351976
C21	C	0.867531	-0.577620	0.366687
C22	C	1.411862	-0.800410	0.375134
C23	C	1.405147	-0.893072	0.381848
C24	C	1.392851	-1.062722	0.394087
C25	C	1.462641	-1.104051	0.324324
C26	C	1.455800	-1.198449	0.331134
C27	C	1.399691	-0.968314	0.387278
C28	C	1.702885	-0.607549	0.326039
C29	C	1.820187	-0.618025	0.311832
C30	C	1.390702	-0.607325	0.637127
C31	C	1.375003	-0.617782	0.755940
C32	C	1.443389	-0.366365	0.343600
C33	C	1.450349	-0.273695	0.336560
C34	C	1.464711	-0.558531	0.080542
C35	C	1.480517	-0.548119	-0.038281
C36	C	1.435868	-0.577550	0.797432
C37	C	1.419643	-0.588357	0.920231
H38	H	1.527528	-1.068538	0.259483
O39	O	1.315543	-1.105215	0.471405
C40	C	1.238103	-1.239410	0.548699
C41	C	1.325716	-1.191379	0.461099
H42	H	1.246284	-1.309079	0.540383
H43	H	1.246381	-1.231637	0.631477
H44	H	1.156724	-1.213051	0.539044
H45	H	1.407135	-1.217706	0.470654
H46	H	1.317344	-1.199150	0.378356
H47	H	0.869406	-0.660609	0.253975
H48	H	1.037997	-0.631005	0.294125
H49	H	1.499992	-0.535107	0.742046
O50	O	1.343161	-0.638939	0.986451
C51	C	1.257333	-0.695897	1.169216
C52	C	1.343968	-0.638573	1.094347
H53	H	1.257973	-0.695634	1.256465
H54	H	1.176141	-0.671703	1.156745
H55	H	1.273800	-0.762846	1.149851
H56	H	1.327602	-0.571610	1.113666
H57	H	1.425132	-0.662837	1.106832
H58	H	1.310887	-0.660232	0.811328
O59	O	0.808658	-0.526873	0.435696
C60	C	0.634152	-0.469772	0.513195
C61	C	0.700695	-0.527281	0.435027
H62	H	0.546854	-0.470069	0.512663
H63	H	0.643176	-0.493776	0.597905
H64	H	0.663184	-0.402841	0.486826
H65	H	0.671707	-0.594226	0.461297
H66	H	0.691667	-0.503207	0.350335
O67	O	0.977244	-0.497280	0.475828
C68	C	0.802738	-0.440179	0.553327
C69	C	0.869281	-0.497688	0.475159
H70	H	0.715440	-0.440476	0.552795
H71	H	0.811762	-0.464183	0.638037
H72	H	0.831770	-0.373248	0.526958
H73	H	0.840293	-0.564633	0.501429
H74	H	0.860253	-0.473614	0.390467
H75	H	1.544645	-0.505674	0.906335
