data_functionalizedCrystal
_audit_creation_method	'MofGen! by Chris Wilmer'
_symmetry_space_group_name_H-M	'P1'
_symmetry_Int_Tables_number	1
_symmetry_cell_setting	triclinic
loop_
_symmetry_equiv_pos_as_xyz
  x,y,z
_cell_length_a	17.699077
_cell_length_b	15.995350
_cell_length_c	16.176319
_cell_angle_alpha	89.995430
_cell_angle_beta	89.993140
_cell_angle_gamma	83.386476
loop_
_atom_site_label
_atom_site_type_symbol
_atom_site_fract_x
_atom_site_fract_y
_atom_site_fract_z
O1	O	1.004258	0.105862	-0.068731
O2	O	0.783902	0.119643	-0.068735
O3	O	0.900103	-0.009148	-0.068732
O4	O	0.888056	0.234652	-0.068734
O5	O	0.900087	-0.009156	0.068761
O6	O	0.783886	0.119634	0.068758
O7	O	1.004242	0.105853	0.068762
Cu8	Cu	0.894062	0.112743	0.081314
Cu9	Cu	0.894081	0.112753	-0.081287
O10	O	0.888040	0.234644	0.068759
C11	C	0.755696	0.119146	0.000011
C12	C	0.671675	0.117667	0.000010
C13	C	0.632198	0.116965	0.074958
C14	C	0.553253	0.115562	0.074959
C15	C	0.513786	0.114867	0.000010
C16	C	0.553269	0.115566	-0.074944
C17	C	0.632213	0.116963	-0.074944
C18	C	0.234896	0.109931	-0.074945
C19	C	0.155946	0.108537	-0.074939
C20	C	0.155936	0.108531	0.074957
C21	C	0.234880	0.109928	0.074957
C22	C	0.274357	0.110622	0.000004
C23	C	0.359958	0.112142	0.000004
C24	C	0.428185	0.113353	0.000010
C25	C	0.899597	-0.040346	0.000013
C26	C	0.898104	-0.133293	0.000008
C27	C	0.892742	-0.471030	0.000011
C28	C	0.809985	-0.423425	-0.000299
C29	C	0.811478	-0.326738	0.000011
C30	C	0.895401	-0.303474	0.000009
C31	C	0.936211	-0.344641	0.078523
C32	C	0.934132	-0.441272	0.078589
C33	C	0.935860	-0.441624	-0.077766
C34	C	0.935840	-0.344679	-0.078804
C35	C	0.896909	-0.208780	0.000011
C36	C	0.891237	-0.565724	0.000014
C37	C	1.032448	0.106350	0.000014
C38	C	1.116468	0.107829	0.000010
C39	C	0.888546	0.265842	0.000012
C40	C	0.890039	0.358789	0.000011
N41	N	0.894054	0.112736	0.195679
N42	N	0.894095	0.112754	-0.195653
C43	C	0.945524	0.055731	0.238945
C44	C	0.945528	0.055730	0.325492
C45	C	0.894065	0.112739	0.368772
C46	C	0.842590	0.169747	0.325501
C47	C	0.842583	0.169743	0.238955
C48	C	0.842616	0.169762	0.674529
C49	C	0.842628	0.169763	0.761080
C50	C	0.945561	0.055749	0.761066
C51	C	0.945554	0.055745	0.674520
C52	C	0.894076	0.112750	0.631256
C53	C	0.894072	0.112749	0.537412
C54	C	0.894073	0.112744	0.462615
H55	H	0.123785	0.107962	0.135988
C56	C	1.031100	-0.281852	0.155401
C57	C	1.019444	-0.325746	0.082475
H58	H	1.082487	-0.270192	0.157840
H59	H	0.998290	-0.230501	0.156122
H60	H	1.020440	-0.315104	0.201698
H61	H	1.030099	-0.292491	0.036177
H62	H	1.052265	-0.377105	0.081747
H63	H	0.907854	-0.316204	0.136952
H64	H	0.987474	0.009330	0.796300
H65	H	0.777048	-0.442955	0.055691
H66	H	0.779399	-0.298247	-0.056271
C67	C	1.047294	-0.056948	0.316784
C68	C	1.002117	-0.006920	0.373049
H69	H	1.082236	-0.095620	0.346146
H70	H	1.015796	-0.087034	0.283045
H71	H	1.074500	-0.022116	0.283012
H72	H	0.974907	-0.041751	0.406817
H73	H	1.033619	0.023169	0.406802
C74	C	0.163884	0.108664	-0.223119
C75	C	0.112563	0.107764	-0.157329
H76	H	0.137100	0.108183	-0.273979
H77	H	0.188900	0.158013	-0.220011
H78	H	0.200450	0.060396	-0.219993
H79	H	0.076000	0.156036	-0.160452
H80	H	0.087535	0.058410	-0.160440
H81	H	0.521115	0.114977	0.135989
C82	C	0.226939	0.109771	0.223130
C83	C	0.278262	0.110688	0.157343
H84	H	0.253723	0.110233	0.273991
H85	H	0.190377	0.158033	0.220016
H86	H	0.201921	0.060416	0.220005
H87	H	0.303276	0.160047	0.160465
H88	H	0.314837	0.062422	0.160458
C89	C	0.947268	-0.268973	-0.205518
C90	C	0.895623	-0.307734	-0.157220
H91	H	0.922438	-0.246164	-0.253929
H92	H	0.965849	-0.225118	-0.174688
H93	H	0.988538	-0.309354	-0.220704
H94	H	0.854356	-0.267351	-0.142028
H95	H	0.877031	-0.351594	-0.188056
H96	H	0.664325	0.117539	0.135990
C97	C	0.315161	0.183454	-0.161915
C98	C	0.278280	0.110704	-0.157334
H99	H	0.341949	0.183928	-0.212780
H100	H	0.278591	0.231709	-0.158797
H101	H	0.349967	0.184056	-0.117280
H102	H	0.243470	0.110106	-0.201966
H103	H	0.314854	0.062437	-0.160460
C104	C	0.742925	-0.376679	-0.123954
C105	C	0.765338	-0.448346	-0.076308
H106	H	0.715367	-0.392071	-0.170883
H107	H	0.711518	-0.337026	-0.091707
H108	H	0.786692	-0.352345	-0.141596
H109	H	0.721570	-0.472676	-0.058661
H110	H	0.796746	-0.488013	-0.108561
C111	C	1.047296	-0.056964	0.683201
C112	C	1.002120	-0.006923	0.626948
H113	H	1.082213	-0.095658	0.653830
H114	H	1.074523	-0.022149	0.716942
H115	H	1.015788	-0.087033	0.716971
H116	H	1.033628	0.023150	0.593181
H117	H	0.974892	-0.041743	0.593192
C118	C	0.624297	0.116844	-0.223115
C119	C	0.675608	0.117743	-0.157330
H120	H	0.651088	0.117329	-0.273977
H121	H	0.599283	0.067493	-0.220000
H122	H	0.587728	0.165109	-0.219989
H123	H	0.712174	0.069474	-0.160452
H124	H	0.700635	0.167099	-0.160446
C125	C	0.711569	0.219089	0.352180
C126	C	0.786018	0.232407	0.373076
H127	H	0.676645	0.257771	0.381555
H128	H	0.704202	0.227250	0.294452
H129	H	0.703368	0.163214	0.366376
H130	H	0.794221	0.288280	0.358874
H131	H	0.793388	0.224253	0.430816
H132	H	0.779170	-0.298810	0.056388
H133	H	0.997041	-0.329443	-0.083546
C134	C	0.891539	-0.553096	0.158895
C135	C	0.893931	-0.465907	0.157813
H136	H	0.866722	-0.568300	0.207807
H137	H	0.864375	-0.569126	0.111947
H138	H	0.941901	-0.580993	0.157679
H139	H	0.843569	-0.438011	0.159023
H140	H	0.921094	-0.449869	0.204774
H141	H	0.994890	-0.473646	0.082150
H142	H	0.996876	-0.473511	-0.078295
H143	H	0.908809	-0.462105	-0.137276
H144	H	0.521129	0.114993	-0.135968
C145	C	0.740859	0.282455	0.752407
C146	C	0.786049	0.232425	0.808656
H147	H	0.705929	0.321132	0.781780
H148	H	0.772351	0.312535	0.718641
H149	H	0.713640	0.247625	0.718660
H150	H	0.813272	0.267254	0.842399
H151	H	0.754553	0.202342	0.842436
C152	C	0.826184	0.283742	0.577208
C153	C	0.786043	0.232435	0.626984
H154	H	0.791256	0.322434	0.547851
H155	H	0.857688	0.313806	0.610961
H156	H	0.856821	0.249781	0.539043
H157	H	0.755409	0.266396	0.665152
H158	H	0.754525	0.202369	0.593227
H159	H	0.987434	0.009311	0.203712
H160	H	0.800670	0.216161	0.203729
