data_functionalizedCrystal
_audit_creation_method	'MofGen! by Chris Wilmer'
_symmetry_space_group_name_H-M	'P1'
_symmetry_Int_Tables_number	1
_symmetry_cell_setting	triclinic
loop_
_symmetry_equiv_pos_as_xyz
  x,y,z
_cell_length_a	21.883469
_cell_length_b	21.882911
_cell_length_c	21.879399
_cell_angle_alpha	60.006540
_cell_angle_beta	60.013207
_cell_angle_gamma	59.992231
loop_
_atom_site_label
_atom_site_type_symbol
_atom_site_fract_x
_atom_site_fract_y
_atom_site_fract_z
O1	O	0.084645	-0.892842	0.746620
O2	O	0.031867	-0.695139	0.601571
O3	O	0.157054	-0.820237	0.601476
O4	O	-0.040542	-0.767744	0.746716
O5	O	0.198586	-0.778715	0.642912
O6	O	0.073399	-0.653617	0.643007
O7	O	0.126177	-0.851320	0.788056
Cu8	Cu	0.103580	-0.748677	0.719315
Cu9	Cu	0.054464	-0.797782	0.670313
O10	O	0.000990	-0.726222	0.788151
N11	N	0.138128	-0.714145	0.753785
N12	N	0.019923	-0.832320	0.635843
C13	C	0.190018	-0.547369	0.805644
C14	C	0.190029	-0.662289	0.805630
C15	C	0.218780	-0.633565	0.834353
C16	C	0.344122	-0.611968	0.768360
C17	C	0.422474	-0.638085	0.742222
C18	C	0.422504	-0.764859	0.790561
C19	C	0.344154	-0.738739	0.816702
C20	C	0.208899	-0.508180	0.728617
C21	C	0.182748	-0.429822	0.702522
C22	C	0.118843	-0.429847	0.830485
C23	C	0.144993	-0.508205	0.856580
C24	C	0.112994	-0.643364	0.824587
C25	C	0.086865	-0.669476	0.798467
C26	C	0.214799	-0.733437	0.734451
C27	C	0.240932	-0.707325	0.760562
C28	C	0.113084	-0.643389	0.959747
C29	C	0.087018	-0.669524	1.038102
C30	C	0.214996	-0.733501	1.038048
C31	C	0.241061	-0.707367	0.959690
C32	C	0.190103	-0.662308	0.920542
C33	C	0.304966	-0.662293	0.805598
C34	C	-0.117460	-0.854702	0.612901
C35	C	-0.002405	-0.854864	0.498145
C36	C	-0.002621	-0.969735	0.613108
C37	C	-0.002603	-0.854858	0.613180
C38	C	-0.031272	-0.883541	0.584334
N39	N	0.460550	-0.714150	0.753681
O40	O	0.699805	-0.721060	0.574973
O41	O	0.700047	-0.866553	0.772482
O42	O	0.699952	-0.866219	0.647213
O43	O	0.699900	-0.721394	0.700242
O44	O	0.575478	-0.824800	0.688791
O45	O	0.575573	-0.825134	0.814060
O46	O	0.575331	-0.679641	0.616551
Cu47	Cu	0.564087	-0.748606	0.719102
Cu48	Cu	0.711292	-0.797588	0.669931
O49	O	0.575426	-0.679975	0.741820
N50	N	0.814828	-0.832044	0.635345
N51	N	0.138106	-0.391772	0.753815
O52	O	-0.040520	-0.152377	0.746758
O53	O	0.156993	-0.152371	0.601281
O54	O	0.031698	-0.152390	0.601639
O55	O	0.084775	-0.152358	0.746401
O56	O	0.073234	-0.276876	0.643130
O57	O	0.198529	-0.276856	0.642772
O58	O	0.001015	-0.276863	0.788249
Cu59	Cu	0.103564	-0.288226	0.719299
Cu60	Cu	0.054444	-0.141007	0.670231
O61	O	0.126310	-0.276844	0.787892
N62	N	0.019892	-0.037461	0.635717
N63	N	0.138332	-0.714192	1.076133
O64	O	0.131293	-0.892804	1.315506
O65	O	-0.014162	-0.695219	1.315533
O66	O	-0.013826	-0.820490	1.315480
O67	O	0.130957	-0.767533	1.315559
O68	O	0.027651	-0.778981	1.191001
O69	O	0.027314	-0.653710	1.191054
O70	O	0.172770	-0.851295	1.191026
Cu71	Cu	0.103829	-0.748713	1.179674
Cu72	Cu	0.054778	-0.797802	1.326885
O73	O	0.172434	-0.726024	1.191079
N74	N	0.020275	-0.832331	1.430426
C75	C	0.047687	-0.649466	0.602306
C76	C	0.202716	-0.804385	0.602188
C77	C	0.110357	-0.896993	0.787321
C78	C	-0.044672	-0.742074	0.787439
C79	C	0.637839	-0.865879	0.818154
C80	C	0.637724	-0.865466	0.663023
C81	C	0.637536	-0.680313	0.570880
C82	C	0.637655	-0.680728	0.726010
C83	C	0.202592	-0.214459	0.601942
C84	C	0.047481	-0.214636	0.602435
C85	C	-0.044635	-0.214620	0.787537
C86	C	0.110528	-0.214598	0.787096
C87	C	-0.013455	-0.649572	1.253296
C88	C	-0.013030	-0.804697	1.253206
C89	C	0.172063	-0.896942	1.253263
C90	C	0.171648	-0.741808	1.253325
H91	H	0.071582	-0.606692	0.927876
O92	O	0.124158	-0.214732	0.841381
C93	C	0.184795	-0.279194	0.858546
H94	H	0.190684	-0.324254	0.842102
H95	H	0.238451	-0.264615	0.826249
C96	C	0.163365	-0.253092	0.963333
C97	C	0.170594	-0.308438	0.943142
H98	H	0.154608	-0.271130	1.015515
H99	H	0.122514	-0.209661	0.951768
H100	H	0.208080	-0.240948	0.936413
H101	H	0.125876	-0.320574	0.970055
H102	H	0.211437	-0.351872	0.954714
O103	O	-0.067867	-0.581845	1.253337
C104	C	-0.040921	-0.535270	1.253347
H105	H	0.007126	-0.571270	1.276922
H106	H	-0.020146	-0.497471	1.193635
C107	C	-0.163468	-0.442610	1.273216
C108	C	-0.104459	-0.486826	1.302178
H109	H	-0.202661	-0.412724	1.303334
H110	H	-0.181622	-0.473987	1.273207
H111	H	-0.146145	-0.411117	1.223457
H112	H	-0.121780	-0.518324	1.351932
H113	H	-0.086309	-0.455453	1.302197
H114	H	0.303660	-0.722726	0.745118
H115	H	0.637644	-0.635235	0.737357
O116	O	-0.067180	-0.818295	1.253082
C117	C	-0.039918	-0.891871	1.253059
H118	H	0.023834	-0.911590	1.229542
H119	H	-0.058873	-0.930598	1.312759
C120	C	-0.148950	-0.869071	1.233042
C121	C	-0.070650	-0.893288	1.204151
H122	H	-0.167909	-0.869946	1.202877
H123	H	-0.167319	-0.819502	1.233060
H124	H	-0.164737	-0.901346	1.282792
H125	H	-0.054865	-0.861007	1.154407
H126	H	-0.052279	-0.942851	1.204124
H127	H	0.637900	-0.911553	0.874882
O128	O	0.034322	-0.581685	0.547974
C129	C	0.085686	-0.548452	0.527802
H130	H	0.107588	-0.573240	0.575782
H131	H	0.134426	-0.559750	0.475738
C132	C	0.019463	-0.432956	0.452356
C133	C	0.046360	-0.463397	0.511288
H134	H	-0.004792	-0.380490	0.442166
H135	H	-0.015140	-0.455347	0.465944
H136	H	0.060086	-0.442379	0.408976
H137	H	0.005737	-0.453983	0.554669
H138	H	0.080956	-0.441003	0.497708
H139	H	0.637745	-0.910963	0.651673
H140	H	0.637457	-0.634634	0.514159
H141	H	0.217732	-0.953686	1.253245
O142	O	0.225844	-0.728163	1.253309
C143	C	0.198577	-0.654593	1.253347
H144	H	0.150526	-0.619169	1.229777
H145	H	0.177709	-0.655697	1.313072
C146	C	0.320904	-0.664096	1.233496
C147	C	0.261892	-0.620586	1.204541
H148	H	0.359959	-0.643119	1.203393
H149	H	0.339274	-0.713663	1.233473
H150	H	0.303504	-0.665013	1.283267
H151	H	0.279289	-0.619677	1.154775
H152	H	0.243525	-0.571018	1.204554
H153	H	0.259199	-0.214112	0.556156
H154	H	0.036114	-0.214639	0.556956
O155	O	-0.112361	-0.214574	0.841929
C156	C	-0.158954	-0.214599	0.815005
H157	H	-0.138703	-0.191050	0.751249
H158	H	-0.156932	-0.274321	0.834047
C159	C	-0.264810	-0.194688	0.924298
C160	C	-0.239941	-0.165757	0.845993
H161	H	-0.314767	-0.164563	0.943415
H162	H	-0.233419	-0.194674	0.942439
H163	H	-0.263119	-0.244455	0.940157
H164	H	-0.241623	-0.115995	0.830135
H165	H	-0.271333	-0.165762	0.827849
H166	H	0.121632	-0.953785	0.832877
O167	O	0.012172	-0.651035	1.076063
C168	C	-0.027209	-0.605676	1.024703
H169	H	0.010135	-0.577190	0.968843
H170	H	-0.044116	-0.641816	1.016373
C171	C	-0.143699	-0.580776	1.123915
C172	C	-0.097835	-0.545784	1.055309
H173	H	-0.187267	-0.543833	1.142795
H174	H	-0.117169	-0.611337	1.158518
H175	H	-0.157781	-0.610891	1.116965
H176	H	-0.083747	-0.515677	1.062262
H177	H	-0.124365	-0.515216	1.020708
H178	H	0.303780	-0.722782	0.927774
O179	O	0.264600	-0.777276	1.075955
C180	C	0.338167	-0.788347	1.024545
H181	H	0.337989	-0.779587	0.968699
H182	H	0.360603	-0.746635	1.016206
C183	C	0.388682	-0.879379	1.123681
C184	C	0.388463	-0.868626	1.055092
H185	H	0.419708	-0.928897	1.142525
H186	H	0.339118	-0.871919	1.158318
H187	H	0.407376	-0.844614	1.116723
H188	H	0.369761	-0.903384	1.062053
H189	H	0.438025	-0.876094	1.020458
H190	H	-0.101428	-0.730886	0.833046
H191	H	0.071542	-0.606694	0.861281
H192	H	0.256252	-0.770113	0.697763
O193	O	0.012008	-0.651059	0.816980
C194	C	-0.027318	-0.605700	0.862348
H195	H	0.010078	-0.615701	0.890814
H196	H	-0.044255	-0.544319	0.826223
C197	C	-0.143846	-0.613274	0.887290
C198	C	-0.097917	-0.625563	0.922257
H199	H	-0.187396	-0.625523	0.924243
H200	H	-0.117351	-0.643831	0.856722
H201	H	-0.157951	-0.562123	0.857187
H202	H	-0.083805	-0.676714	0.952352
H203	H	-0.124411	-0.595014	0.952831
H204	H	0.454413	-0.827107	0.799589
O205	O	0.306232	-0.787724	0.852829
C206	C	0.357625	-0.860800	0.857033
H207	H	0.413458	-0.857818	0.810744
H208	H	0.365996	-0.890715	0.913809
C209	C	0.258459	-0.907902	0.904312
C210	C	0.327033	-0.904240	0.847455
H211	H	0.239588	-0.934700	0.898408
H212	H	0.223834	-0.858671	0.901483
H213	H	0.265444	-0.932830	0.951620
H214	H	0.320045	-0.879304	0.800150
H215	H	0.361656	-0.953469	0.850276
H216	H	0.454353	-0.597104	0.711898
H217	H	0.245557	-0.540066	0.687141
O218	O	0.306174	-0.537689	0.757541
C219	C	0.357542	-0.498872	0.719049
H220	H	0.413409	-0.539091	0.728073
H221	H	0.365839	-0.474518	0.656712
C222	C	0.258359	-0.385641	0.737936
C223	C	0.326975	-0.435037	0.749025
H224	H	0.239504	-0.346262	0.756423
H225	H	0.223751	-0.411791	0.763866
H226	H	0.265283	-0.365353	0.685988
H227	H	0.320049	-0.455331	0.800972
H228	H	0.361581	-0.408889	0.723104
H229	H	0.129609	-0.540114	0.919306
H230	H	0.198119	-0.397913	0.639797
H231	H	0.082193	-0.397958	0.871963
H232	H	0.259468	-0.815577	0.556577
