data_functionalizedCrystal
_audit_creation_method	'MofGen! by Chris Wilmer'
_symmetry_space_group_name_H-M	'P1'
_symmetry_Int_Tables_number	1
_symmetry_cell_setting	triclinic
loop_
_symmetry_equiv_pos_as_xyz
  x,y,z
_cell_length_a	16.109301
_cell_length_b	14.519709
_cell_length_c	14.586319
_cell_angle_alpha	89.995260
_cell_angle_beta	89.999213
_cell_angle_gamma	83.570813
loop_
_atom_site_label
_atom_site_type_symbol
_atom_site_fract_x
_atom_site_fract_y
_atom_site_fract_z
O1	O	1.103336	0.118540	-0.076184
O2	O	1.353336	0.368540	0.173816
O3	O	1.603336	0.618540	0.423816
O4	O	1.853336	0.868540	0.673816
O5	O	0.861300	0.133292	-0.076199
O6	O	1.111300	0.383292	0.173801
O7	O	1.361300	0.633292	0.423801
O8	O	1.611300	0.883292	0.673801
O9	O	0.988735	-0.008336	-0.076183
O10	O	1.238735	0.241664	0.173817
O11	O	1.488735	0.491664	0.423817
O12	O	1.738735	0.741664	0.673817
O13	O	0.975901	0.260168	-0.076200
O14	O	1.225901	0.510168	0.173800
O15	O	1.475901	0.760168	0.423800
O16	O	1.725901	1.010168	0.673800
O17	O	0.988726	-0.008338	0.076298
O18	O	1.238726	0.241662	0.326298
O19	O	1.488726	0.491662	0.576298
O20	O	1.738726	0.741662	0.826298
O21	O	0.861291	0.133290	0.076282
O22	O	1.111291	0.383290	0.326282
O23	O	1.361291	0.633290	0.576282
O24	O	1.611291	0.883290	0.826282
O25	O	1.103327	0.118538	0.076296
O26	O	1.353327	0.368538	0.326296
O27	O	1.603327	0.618538	0.576296
O28	O	1.853327	0.868538	0.826296
Cu29	Cu	0.982308	0.125914	0.090212
Cu30	Cu	1.232308	0.375914	0.340212
Cu31	Cu	1.482308	0.625914	0.590212
Cu32	Cu	1.732308	0.875914	0.840212
Cu33	Cu	0.982319	0.125916	-0.090114
Cu34	Cu	1.232319	0.375916	0.159886
Cu35	Cu	1.482319	0.625916	0.409886
Cu36	Cu	1.732319	0.875916	0.659886
O37	O	0.975892	0.260166	0.076280
O38	O	1.225892	0.510166	0.326280
O39	O	1.475892	0.760166	0.576280
O40	O	1.725892	1.010166	0.826280
C41	C	0.830319	0.132693	0.000039
C42	C	1.080319	0.382693	0.250039
C43	C	1.330319	0.632693	0.500039
C44	C	1.580319	0.882693	0.750039
C45	C	0.738021	0.130902	0.000034
C46	C	0.988021	0.380902	0.250034
C47	C	1.238021	0.630902	0.500034
C48	C	1.488021	0.880902	0.750034
C49	C	0.988132	-0.042696	0.000057
C50	C	1.238132	0.207304	0.250057
C51	C	1.488132	0.457304	0.500057
C52	C	1.738132	0.707304	0.750057
C53	C	0.986340	-0.145073	0.000058
C54	C	1.236340	0.104927	0.250058
C55	C	1.486340	0.354927	0.500058
C56	C	1.736340	0.604927	0.750058
C57	C	0.515887	0.210775	0.000040
C58	C	0.765887	0.460775	0.250040
C59	C	1.015887	0.710775	0.500040
C60	C	1.265887	0.960775	0.750040
C61	C	0.429163	0.209085	0.000046
C62	C	0.679163	0.459085	0.250046
C63	C	0.929163	0.709085	0.500046
C64	C	1.179163	0.959085	0.750046
C65	C	0.448747	0.041048	0.000053
C66	C	0.698747	0.291048	0.250053
C67	C	0.948747	0.541048	0.500053
C68	C	1.198747	0.791048	0.750053
C69	C	0.535468	0.042739	0.000053
C70	C	0.785468	0.292739	0.250053
C71	C	1.035468	0.542739	0.500053
C72	C	1.285468	0.792739	0.750053
C73	C	0.569036	0.127606	0.000042
C74	C	0.819036	0.377606	0.250042
C75	C	1.069036	0.627606	0.500042
C76	C	1.319036	0.877606	0.750042
C77	C	0.395591	0.124224	0.000047
C78	C	0.645591	0.374224	0.250047
C79	C	0.895591	0.624224	0.500047
C80	C	1.145591	0.874224	0.750047
C81	C	0.301562	0.122390	0.000054
C82	C	0.551562	0.372390	0.250054
C83	C	0.801562	0.622390	0.500054
C84	C	1.051562	0.872390	0.750054
C85	C	0.663071	0.129440	0.000037
C86	C	0.913071	0.379440	0.250037
C87	C	1.163071	0.629440	0.500037
C88	C	1.413071	0.879440	0.750037
C89	C	0.979741	-0.519955	0.000034
C90	C	1.229741	-0.269955	0.250034
C91	C	1.479741	-0.019955	0.500034
C92	C	1.729741	0.230045	0.750034
C93	C	0.981574	-0.415651	0.000041
C94	C	1.231574	-0.165651	0.250041
C95	C	1.481574	0.084349	0.500041
C96	C	1.731574	0.334349	0.750041
C97	C	0.983041	-0.332517	0.000047
C98	C	1.233041	-0.082517	0.250047
C99	C	1.483041	0.167483	0.500047
C100	C	1.733041	0.417483	0.750047
C101	C	0.984873	-0.228207	0.000052
C102	C	1.234873	0.021793	0.250052
C103	C	1.484873	0.271793	0.500052
C104	C	1.734873	0.521793	0.750052
C105	C	1.134307	0.119136	0.000056
C106	C	1.384307	0.369136	0.250056
C107	C	1.634307	0.619136	0.500056
C108	C	1.884307	0.869136	0.750056
C109	C	1.226606	0.120928	0.000055
C110	C	1.476606	0.370928	0.250055
C111	C	1.726606	0.620928	0.500055
C112	C	1.976606	0.870928	0.750055
C113	C	0.976494	0.294526	0.000038
C114	C	1.226494	0.544526	0.250038
C115	C	1.476494	0.794526	0.500038
C116	C	1.726494	1.044526	0.750038
C117	C	0.978287	0.396903	0.000031
C118	C	1.228287	0.646903	0.250031
C119	C	1.478287	0.896903	0.500031
C120	C	1.728287	1.146903	0.750031
N121	N	0.982307	0.125911	0.217044
N122	N	1.232307	0.375911	0.467044
N123	N	1.482307	0.625911	0.717044
N124	N	1.732307	0.875911	0.967044
N125	N	0.982326	0.125911	-0.216946
N126	N	1.232326	0.375911	0.033054
N127	N	1.482326	0.625911	0.283054
N128	N	1.732326	0.875911	0.533054
C129	C	1.038754	0.063219	0.452057
C130	C	1.288754	0.313219	0.702057
C131	C	1.538754	0.563219	0.952057
C132	C	1.788754	0.813219	1.202057
C133	C	1.038756	0.063217	0.548038
C134	C	1.288756	0.313217	0.798038
C135	C	1.538756	0.563217	1.048038
C136	C	1.788756	0.813217	1.298038
C137	C	0.925873	0.188606	0.548034
C138	C	1.175873	0.438606	0.798034
C139	C	1.425873	0.688606	1.048034
C140	C	1.675873	0.938606	1.298034
C141	C	0.925868	0.188603	0.452054
C142	C	1.175868	0.438603	0.702054
C143	C	1.425868	0.688603	0.952054
C144	C	1.675868	0.938603	1.202054
C145	C	0.982313	0.125911	0.404068
C146	C	1.232313	0.375911	0.654068
C147	C	1.482313	0.625911	0.904068
C148	C	1.732313	0.875911	1.154068
C149	C	0.982321	0.125912	0.596029
C150	C	1.232321	0.375912	0.846029
C151	C	1.482321	0.625912	1.096029
C152	C	1.732321	0.875912	1.346029
C153	C	0.982323	0.125910	0.700096
C154	C	1.232323	0.375910	0.950096
C155	C	1.482323	0.625910	1.200096
C156	C	1.732323	0.875910	1.450096
C157	C	0.982310	0.125911	0.299995
C158	C	1.232310	0.375911	0.549995
C159	C	1.482310	0.625911	0.799995
C160	C	1.732310	0.875911	1.049995
H161	H	0.543214	0.279879	0.000037
H162	H	0.793214	0.529879	0.250037
H163	H	1.043214	0.779879	0.500037
H164	H	1.293214	1.029879	0.750037
H165	H	1.084714	0.012170	0.412989
H166	H	1.334714	0.262170	0.662989
H167	H	1.584714	0.512170	0.912989
H168	H	1.834714	0.762170	1.162989
H169	H	0.879918	0.239650	0.587113
H170	H	1.129918	0.489650	0.837113
H171	H	1.379918	0.739650	1.087113
H172	H	1.629918	0.989650	1.337113
Br173	Br	0.607606	-0.070142	0.000068
Br174	Br	0.857606	0.179858	0.250068
Br175	Br	1.107606	0.429858	0.500068
Br176	Br	1.357606	0.679858	0.750068
Br177	Br	0.357035	0.321963	0.000047
Br178	Br	0.607035	0.571963	0.250047
Br179	Br	0.857035	0.821963	0.500047
Br180	Br	1.107035	1.071963	0.750047
Br181	Br	1.115354	-0.021872	0.613164
Br182	Br	1.365354	0.228128	0.863164
Br183	Br	1.615354	0.478128	1.113164
Br184	Br	1.865354	0.728128	1.363164
Br185	Br	0.403185	-0.074122	0.000064
Br186	Br	0.653185	0.175878	0.250064
Br187	Br	0.903185	0.425878	0.500064
Br188	Br	1.153185	0.675878	0.750064
Br189	Br	0.849257	0.273683	0.386919
Br190	Br	1.099257	0.523683	0.636919
Br191	Br	1.349257	0.773683	0.886919
Br192	Br	1.599257	1.023683	1.136919
