data_functionalizedCrystal
_audit_creation_method	'MofGen! by Chris Wilmer'
_symmetry_space_group_name_H-M	'P1'
_symmetry_Int_Tables_number	1
_symmetry_cell_setting	triclinic
loop_
_symmetry_equiv_pos_as_xyz
  x,y,z
_cell_length_a	19.188879
_cell_length_b	15.944545
_cell_length_c	14.421503
_cell_angle_alpha	89.995153
_cell_angle_beta	90.005508
_cell_angle_gamma	96.689875
loop_
_atom_site_label
_atom_site_type_symbol
_atom_site_fract_x
_atom_site_fract_y
_atom_site_fract_z
O1	O	-0.090020	1.114176	-0.077072
O2	O	0.409980	1.614176	0.422928
O3	O	-0.101126	0.869582	-0.077090
O4	O	0.398874	1.369582	0.422910
O5	O	0.006067	0.998960	-0.077051
O6	O	0.506067	1.498960	0.422949
O7	O	-0.197213	0.984798	-0.077110
O8	O	0.302787	1.484798	0.422890
O9	O	0.006051	0.998938	0.077172
O10	O	0.506051	1.498938	0.577172
O11	O	-0.101142	0.869560	0.077134
O12	O	0.398858	1.369560	0.577134
O13	O	-0.090035	1.114155	0.077151
O14	O	0.409965	1.614155	0.577151
Cu15	Cu	-0.095590	0.991855	0.091224
Cu16	Cu	0.404410	1.491855	0.591224
Cu17	Cu	-0.095571	0.991881	-0.091163
Cu18	Cu	0.404429	1.491881	0.408837
O19	O	-0.197229	0.984777	0.077113
O20	O	0.302771	1.484777	0.577113
C21	C	-0.100674	0.838279	0.000020
C22	C	0.399326	1.338279	0.500020
C23	C	-0.099294	0.745038	0.000015
C24	C	0.400706	1.245038	0.500015
C25	C	-0.028727	0.474685	0.000045
C26	C	0.471273	0.974685	0.500045
C27	C	-0.062757	0.525121	0.076078
C28	C	0.437243	1.025121	0.576078
C29	C	-0.094372	0.409414	0.000032
C30	C	0.405628	0.909414	0.500032
C31	C	-0.062758	0.525123	-0.075974
C32	C	0.437242	1.025123	0.424026
C33	C	-0.096787	0.574318	0.000022
C34	C	0.403213	1.074318	0.500022
C35	C	-0.128385	0.458622	0.076128
C36	C	0.371615	0.958622	0.576128
C37	C	-0.128377	0.458620	-0.075993
C38	C	0.371623	0.958620	0.424007
C39	C	-0.162455	0.509023	0.000058
C40	C	0.337545	1.009023	0.500058
C41	C	-0.092980	0.314417	0.000039
C42	C	0.407020	0.814417	0.500039
C43	C	-0.098185	0.669311	0.000022
C44	C	0.401815	1.169311	0.500022
C45	C	-0.223234	0.985239	-0.000006
C46	C	0.276766	1.485239	0.499994
C47	C	-0.300744	0.986594	-0.000029
C48	C	0.199256	1.486594	0.499971
C49	C	-0.337136	0.987240	0.084043
C50	C	0.162864	1.487240	0.584043
C51	C	-0.409963	0.988537	0.084060
C52	C	0.090037	1.488537	0.584060
C53	C	-0.446392	0.989204	-0.000001
C54	C	0.053608	1.489204	0.499999
C55	C	-0.409990	0.988553	-0.084084
C56	C	0.090010	1.488553	0.415916
C57	C	-0.337166	0.987248	-0.084098
C58	C	0.162834	1.487248	0.415902
N59	N	-0.555533	1.039063	-0.062550
N60	N	-0.055533	1.539063	0.437450
N61	N	-0.624712	1.040304	-0.062531
N62	N	-0.124712	1.540304	0.437469
C63	C	-0.665806	0.993134	0.000036
C64	C	-0.165806	1.493134	0.500036
N65	N	-0.635106	0.944686	0.062597
N66	N	-0.135106	1.444686	0.562597
N67	N	-0.565920	0.943449	0.062580
N68	N	-0.065920	1.443449	0.562580
C69	C	-0.525357	0.990619	0.000005
C70	C	-0.025357	1.490619	0.500005
C71	C	-0.781166	0.995185	0.084131
C72	C	-0.281166	1.495185	0.584131
C73	C	-0.853994	0.996476	0.084144
C74	C	-0.353994	1.496476	0.584144
C75	C	-0.854020	0.996501	-0.084002
C76	C	-0.354020	1.496501	0.415998
C77	C	-0.781194	0.995201	-0.084013
C78	C	-0.281194	1.495201	0.415987
C79	C	-0.744771	0.994547	0.000056
C80	C	-0.244771	1.494547	0.500056
C81	C	0.032072	0.998497	0.000066
C82	C	0.532072	1.498497	0.500066
C83	C	0.109582	0.997142	0.000082
C84	C	0.609582	1.497142	0.500082
C85	C	-0.090488	1.145458	0.000039
C86	C	0.409512	1.645458	0.500039
C87	C	-0.091868	1.238698	0.000039
C88	C	0.408132	1.738698	0.500039
N89	N	-0.095603	0.991844	0.219506
N90	N	0.404397	1.491844	0.719506
N91	N	-0.095553	0.991899	-0.219444
N92	N	0.404447	1.491899	0.280556
C93	C	-0.145147	0.932009	0.469142
C94	C	0.354853	1.432009	0.969142
C95	C	-0.158701	1.007856	0.530945
C96	C	0.341299	1.507856	1.030945
C97	C	-0.095586	0.991864	0.408667
C98	C	0.404414	1.491864	0.908667
C99	C	-0.082049	0.916037	0.530958
C100	C	0.417951	1.416037	1.030958
C101	C	-0.095572	0.991877	0.591388
C102	C	0.404428	1.491877	1.091388
C103	C	-0.109172	1.067749	0.469110
C104	C	0.390828	1.567749	0.969110
C105	C	-0.032492	0.975881	0.469117
C106	C	0.467508	1.475881	0.969117
C107	C	-0.046019	1.051782	0.530892
C108	C	0.453981	1.551782	1.030892
C109	C	-0.095597	0.991856	0.303406
C110	C	0.404403	1.491856	0.803406
C111	C	-0.095561	0.991895	0.696647
C112	C	0.404439	1.491895	1.196647
H113	H	-0.156070	0.429573	-0.140291
H114	H	0.343930	0.929573	0.359709
N115	N	-0.066889	0.831088	0.566937
N116	N	0.433111	1.331088	1.066937
H117	H	-0.019603	0.818543	0.543481
H118	H	0.480397	1.318543	1.043481
H119	H	-0.066582	0.831941	0.636962
H120	H	0.433418	1.331941	1.136962
N121	N	-0.449232	0.989239	0.174736
N122	N	0.050768	1.489239	0.674736
H123	H	-0.442230	0.936952	0.211494
H124	H	0.057770	1.436952	0.711494
H125	H	-0.430861	1.041104	0.211413
H126	H	0.069139	1.541104	0.711413
N127	N	0.046157	0.454242	0.000155
N128	N	0.546157	0.954242	0.500155
H129	H	0.070867	0.478570	0.057657
H130	H	0.570867	0.978570	0.557657
H131	H	0.046500	0.390952	-0.000470
H132	H	0.546500	0.890952	0.499530
H133	H	0.020842	0.962326	0.441937
H134	H	0.520842	1.462326	0.941937
H135	H	-0.883624	0.997000	0.152608
H136	H	-0.383624	1.497000	0.652608
H137	H	-0.035039	0.554153	0.140374
H138	H	0.464961	1.054153	0.640374
N139	N	-0.200705	0.865035	0.433210
N140	N	0.299295	1.365035	0.933210
H141	H	-0.177883	0.822927	0.394670
H142	H	0.322117	1.322927	0.894670
H143	H	-0.226189	0.835072	0.487236
H144	H	0.273811	1.335072	0.987236
H145	H	-0.156094	0.429694	0.140476
H146	H	0.343906	0.929694	0.640476
H147	H	-0.219033	0.524291	0.000086
H148	H	0.280967	1.024291	0.500086
H149	H	-0.307485	0.986707	0.152499
H150	H	0.192515	1.486707	0.652499
H151	H	-0.035017	0.554159	-0.140250
H152	H	0.464983	1.054159	0.359750
H153	H	-0.751510	0.994645	0.152585
H154	H	-0.251510	1.494645	0.652585
N155	N	-0.229369	1.025772	0.566926
N156	N	0.270631	1.525772	1.066926
H157	H	-0.228697	1.026189	0.636954
H158	H	0.271303	1.526189	1.136954
H159	H	-0.239937	1.082599	0.543396
H160	H	0.260063	1.582599	1.043396
N161	N	-0.124411	1.152720	0.433286
N162	N	0.375589	1.652720	0.933286
H163	H	-0.124343	1.152183	0.363255
H164	H	0.375657	1.652183	0.863255
H165	H	-0.171892	1.164888	0.456390
H166	H	0.328108	1.664888	0.956390
H167	H	-0.883680	0.997034	-0.152446
H168	H	-0.383680	1.497034	0.347554
H169	H	-0.751562	0.994681	-0.152473
H170	H	-0.251562	1.494681	0.347527
H171	H	-0.439656	0.989093	-0.152527
H172	H	0.060344	1.489093	0.347473
N173	N	-0.297904	0.986600	-0.174779
N174	N	0.202096	1.486600	0.325221
H175	H	-0.332027	0.987233	-0.228031
H176	H	0.167973	1.487233	0.271969
H177	H	-0.262032	1.038138	-0.178404
H178	H	0.237968	1.538138	0.321596
H179	H	-0.004099	1.102461	0.557835
H180	H	0.495901	1.602461	1.057835
