data_functionalizedCrystal
_audit_creation_method	'MofGen! by Chris Wilmer'
_symmetry_space_group_name_H-M	'P1'
_symmetry_Int_Tables_number	1
_symmetry_cell_setting	triclinic
loop_
_symmetry_equiv_pos_as_xyz
  x,y,z
_cell_length_a	10.654554
_cell_length_b	23.532357
_cell_length_c	9.730223
_cell_angle_alpha	89.992258
_cell_angle_beta	89.996366
_cell_angle_gamma	83.657567
loop_
_atom_site_label
_atom_site_type_symbol
_atom_site_fract_x
_atom_site_fract_y
_atom_site_fract_z
O1	O	1.665270	0.079997	-0.114314
O2	O	1.299548	0.087615	-0.114318
O3	O	1.493470	0.000945	-0.114288
O4	O	1.471348	0.166668	-0.114344
O5	O	1.493456	0.000946	0.114292
O6	O	1.299534	0.087616	0.114262
O7	O	1.665256	0.079999	0.114266
Zn8	Zn	1.482393	0.083808	0.150556
Zn9	Zn	1.482411	0.083806	-0.150608
O10	O	1.471334	0.166669	0.114236
C11	C	1.252761	0.087056	-0.000028
C12	C	1.113372	0.085381	-0.000028
C13	C	0.932548	0.031201	-0.000021
C14	C	1.063519	0.032774	-0.000011
C15	C	1.032246	0.136417	-0.000039
C16	C	0.901277	0.134843	-0.000039
C17	C	0.882703	-0.021409	-0.000018
C18	C	0.963820	-0.072446	-0.000004
C19	C	1.094791	-0.070872	0.000005
C20	C	1.144645	-0.018262	0.000000
C21	C	1.492910	-0.020275	0.000007
C22	C	1.491246	-0.083504	0.000019
C23	C	1.480810	-0.475584	-0.124654
C24	C	1.479228	-0.534994	-0.124662
O25	O	1.478374	-0.565717	-0.230628
N26	N	1.478436	-0.564710	-0.000064
C27	C	1.479213	-0.535012	0.124549
O28	O	1.478393	-0.565742	0.230528
C29	C	1.480786	-0.475603	0.124555
C30	C	1.481590	-0.445891	-0.000050
C31	C	1.481613	-0.445872	-0.249249
C32	C	1.483196	-0.386467	-0.249241
C33	C	1.483977	-0.356773	-0.124637
C34	C	1.483174	-0.386485	-0.000042
C35	C	1.481554	-0.445905	0.249167
C36	C	1.483125	-0.386492	0.249163
C37	C	1.483930	-0.356780	0.124557
C38	C	1.485538	-0.297386	0.124570
N39	N	1.486330	-0.267671	-0.000027
C40	C	1.485550	-0.297364	-0.124631
C41	C	1.475909	-0.659775	0.124526
C42	C	1.474346	-0.719184	0.124521
C43	C	1.474358	-0.719162	-0.124690
C44	C	1.475931	-0.659752	-0.124684
C45	C	1.476701	-0.630059	-0.000071
C46	C	1.488877	-0.172608	-0.124604
C47	C	1.490466	-0.113198	-0.124584
C48	C	1.490446	-0.113225	0.124626
C49	C	1.488864	-0.172630	0.124607
C50	C	1.488075	-0.202320	-0.000019
O51	O	1.486388	-0.266626	0.230483
O52	O	1.486353	-0.266625	-0.230592
C53	C	1.712043	0.080558	-0.000027
C54	C	1.851432	0.082233	-0.000037
C55	C	1.471894	0.187889	-0.000062
C56	C	1.473558	0.251118	-0.000084
N57	N	1.482390	0.083809	0.356092
C58	C	1.568294	0.045441	0.571916
C59	C	1.568284	0.045444	0.428033
C60	C	1.396508	0.122177	0.428042
C61	C	1.396524	0.122176	0.571923
C62	C	1.654185	0.007070	0.643848
C63	C	1.740069	-0.031297	0.571908
C64	C	1.740059	-0.031294	0.428025
C65	C	1.654166	0.007076	0.356083
N66	N	1.482416	0.083805	0.643856
H67	H	1.251292	-0.016985	0.000021
H68	H	0.923220	-0.115279	-0.000012
H69	H	1.654198	0.007063	0.761005
C70	C	0.812046	0.190977	-0.000072
H71	H	0.860487	0.222535	-0.000097
H72	H	0.760295	0.192519	0.079634
H73	H	0.760316	0.192512	-0.079798
C74	C	1.834548	-0.073501	0.651032
H75	H	1.885700	-0.096345	0.587576
H76	H	1.789689	-0.097399	0.707173
H77	H	1.886562	-0.052793	0.707146
C78	C	1.184022	-0.127007	0.000027
H79	H	1.269162	-0.118537	0.000040
H80	H	1.168989	-0.148556	-0.079680
H81	H	1.168973	-0.148557	0.079752
H82	H	1.326596	0.153416	0.630497
C83	C	1.491343	-0.080518	-0.261655
H84	H	1.490637	-0.106713	-0.335862
H85	H	1.565198	-0.061399	-0.266839
H86	H	1.418711	-0.053285	-0.266833
C87	C	1.480644	-0.478577	0.386232
H88	H	1.479597	-0.518213	0.368404
H89	H	1.407652	-0.464779	0.437403
H90	H	1.554138	-0.472900	0.437445
C91	C	1.488043	-0.205261	-0.261688
H92	H	1.488768	-0.179052	-0.335882
H93	H	1.414198	-0.224385	-0.266909
H94	H	1.560685	-0.232488	-0.266854
H95	H	1.483734	-0.362318	0.350639
C96	C	1.834526	-0.073495	0.348894
H97	H	1.885672	-0.096348	0.412346
H98	H	1.886530	-0.052791	0.292750
H99	H	1.789646	-0.097392	0.292785
C100	C	1.654157	0.007083	0.197814
H101	H	1.590707	0.035430	0.165276
H102	H	1.637446	-0.029387	0.165272
H103	H	1.734314	0.015222	0.165257
H104	H	0.776062	-0.022696	-0.000030
H105	H	1.483847	-0.362281	-0.350707
C106	C	1.087084	0.194282	-0.000064
H107	H	1.176702	0.187911	-0.000076
H108	H	1.059195	0.215320	0.079637
H109	H	1.059199	0.215313	-0.079795
C110	C	1.480767	-0.478527	-0.386325
H111	H	1.481481	-0.452316	-0.460516
H112	H	1.406922	-0.497650	-0.391536
H113	H	1.553408	-0.505754	-0.391505
H114	H	1.476540	-0.635603	0.226006
H115	H	1.476584	-0.635565	-0.226148
H116	H	1.473718	-0.743349	-0.226149
C117	C	1.302027	0.164376	0.348909
H118	H	1.314310	0.158878	0.252915
H119	H	1.315169	0.202442	0.372469
H120	H	1.218302	0.157833	0.372508
H121	H	1.473710	-0.743371	0.225987
C122	C	1.487983	-0.205315	0.261668
H123	H	1.488668	-0.179119	0.335878
H124	H	1.560595	-0.232553	0.266857
H125	H	1.414109	-0.224426	0.266838
H126	H	1.491088	-0.089038	0.226075
