data_functionalizedCrystal
_audit_creation_method	'MofGen! by Chris Wilmer'
_symmetry_space_group_name_H-M	'P1'
_symmetry_Int_Tables_number	1
_symmetry_cell_setting	triclinic
loop_
_symmetry_equiv_pos_as_xyz
  x,y,z
_cell_length_a	18.215407
_cell_length_b	18.050589
_cell_length_c	18.215399
_cell_angle_alpha	89.976397
_cell_angle_beta	89.980167
_cell_angle_gamma	90.028669
loop_
_atom_site_label
_atom_site_type_symbol
_atom_site_fract_x
_atom_site_fract_y
_atom_site_fract_z
Zn1	Zn	1.125055	-0.295658	-0.416138
Zn2	Zn	1.625055	0.204342	0.083862
Zn3	Zn	1.124956	-0.419853	-0.293081
Zn4	Zn	1.624956	0.080147	0.206919
Zn5	Zn	1.001987	-0.295682	-0.293085
Zn6	Zn	1.501987	0.204318	0.206915
Zn7	Zn	1.001946	-0.419812	-0.416106
Zn8	Zn	1.501946	0.080188	0.083894
O9	O	1.063486	-0.357751	-0.354603
O10	O	1.563486	0.142249	0.145397
O11	O	1.228026	-0.312140	-0.399826
O12	O	1.728026	0.187860	0.100174
O13	O	1.108620	-0.403409	-0.190097
O14	O	1.608620	0.096591	0.309903
O15	O	1.018371	-0.191755	-0.309424
O16	O	1.518371	0.308245	0.190576
O17	O	1.227953	-0.403386	-0.309417
O18	O	1.727953	0.096614	0.190583
O19	O	1.108788	-0.191737	-0.399830
O20	O	1.608788	0.308263	0.100170
O21	O	1.018275	-0.312181	-0.190101
O22	O	1.518275	0.187819	0.309899
O23	O	0.898998	-0.312141	-0.309393
O24	O	1.398998	0.187859	0.190607
O25	O	1.018301	-0.403315	-0.519095
O26	O	1.518301	0.096685	-0.019095
O27	O	0.898967	-0.403339	-0.399775
O28	O	1.398967	0.096661	0.100225
O29	O	1.108748	-0.312100	-0.519118
O30	O	1.608748	0.187900	-0.019118
O31	O	1.108580	-0.523772	-0.309385
O32	O	1.608580	-0.023772	0.190615
O33	O	1.018205	-0.523742	-0.399771
O34	O	1.518205	-0.023742	0.100229
C35	C	0.872280	-0.357739	-0.354582
C36	C	1.372280	0.142261	0.145418
C37	C	0.790481	-0.357751	-0.354590
C38	C	1.290481	0.142249	0.145410
C39	C	1.063397	-0.550704	-0.354590
C40	C	1.563397	-0.050704	0.145410
C41	C	1.063427	-0.633249	-0.354610
C42	C	1.563427	-0.133249	0.145390
C43	C	0.602291	-0.405312	-0.401593
C44	C	1.102291	0.094688	0.098407
C45	C	0.525432	-0.405315	-0.401602
C46	C	1.025432	0.094685	0.098398
C47	C	0.525434	-0.310204	-0.307628
C48	C	1.025434	0.189796	0.192372
C49	C	0.602291	-0.310199	-0.307623
C50	C	1.102291	0.189801	0.192377
C51	C	0.640718	-0.357757	-0.354605
C52	C	1.140718	0.142243	0.145395
C53	C	0.487001	-0.357765	-0.354619
C54	C	0.987001	0.142235	0.145381
C55	C	0.403668	-0.357767	-0.354628
C56	C	0.903668	0.142233	0.145372
C57	C	0.724056	-0.357754	-0.354596
C58	C	1.224056	0.142246	0.145404
C59	C	1.014329	-0.832710	-0.403744
C60	C	1.514329	-0.332710	0.096256
C61	C	0.996389	-0.882151	-0.336590
C62	C	1.496389	-0.382151	0.163410
C63	C	1.063499	-0.784380	-0.354619
C64	C	1.563499	-0.284380	0.145381
C65	C	1.081475	-0.882021	-0.421781
C66	C	1.581475	-0.382021	0.078219
C67	C	1.063567	-0.930365	-0.354635
C68	C	1.563567	-0.430365	0.145365
C69	C	1.045524	-0.832733	-0.287430
C70	C	1.545524	-0.332733	0.212570
C71	C	1.130641	-0.832599	-0.372666
C72	C	1.630641	-0.332599	0.127334
C73	C	1.112726	-0.882017	-0.305466
C74	C	1.612726	-0.382017	0.194534
C75	C	1.063458	-0.700281	-0.354612
C76	C	1.563458	-0.200281	0.145388
C77	C	1.063609	-1.014461	-0.354635
C78	C	1.563609	-0.514461	0.145365
C79	C	1.255439	-0.357765	-0.354624
C80	C	1.755439	0.142235	0.145376
C81	C	1.337238	-0.357770	-0.354634
C82	C	1.837238	0.142230	0.145366
C83	C	1.063531	-0.357700	-0.546556
C84	C	1.563531	0.142300	-0.046556
C85	C	1.063550	-0.357678	-0.628355
C86	C	1.563550	0.142322	-0.128355
C87	C	1.063595	-0.164046	-0.354631
C88	C	1.563595	0.335954	0.145369
C89	C	1.063642	-0.081500	-0.354643
C90	C	1.563642	0.418500	0.145357
C91	C	1.110663	-0.310138	-0.816562
C92	C	1.610663	0.189862	-0.316562
C93	C	1.110672	-0.310117	-0.893421
C94	C	1.610672	0.189883	-0.393421
C95	C	1.016489	-0.405104	-0.893385
C96	C	1.516489	0.094896	-0.393385
C97	C	1.016477	-0.405121	-0.816528
C98	C	1.516477	0.094879	-0.316528
C99	C	1.063568	-0.357639	-0.778118
C100	C	1.563568	0.142361	-0.278118
C101	C	1.063589	-0.357600	-0.931834
C102	C	1.563589	0.142400	-0.431834
C103	C	1.063598	-0.357577	-1.015168
C104	C	1.563598	0.142423	-0.515168
C105	C	1.063558	-0.357661	-0.694779
C106	C	1.563558	0.142339	-0.194779
C107	C	1.063484	-0.357749	-0.163396
C108	C	1.563484	0.142251	0.336604
C109	C	1.063607	-0.357561	-0.081598
C110	C	1.563607	0.142439	0.418402
H111	H	0.633575	-0.444035	-0.439850
H112	H	1.133575	0.055965	0.060150
C113	C	1.168898	-0.988638	-0.250215
C114	C	1.668898	-0.488638	0.249785
C115	C	1.168898	-0.911070	-0.249332
C116	C	1.668898	-0.411070	0.250668
H117	H	1.203577	-1.006574	-0.215561
H118	H	1.703577	-0.506574	0.284439
H119	H	1.121375	-1.006347	-0.237806
H120	H	1.621375	-0.506347	0.262194
H121	H	1.181756	-1.005596	-0.297875
H122	H	1.681756	-0.505596	0.202125
H123	H	1.156034	-0.894112	-0.201673
H124	H	1.656034	-0.394112	0.298327
H125	H	1.216431	-0.893353	-0.261737
H126	H	1.716431	-0.393353	0.238263
H127	H	1.149020	-0.271435	-0.924718
H128	H	1.649020	0.228565	-0.424718
H129	H	0.978151	-0.443763	-0.924667
H130	H	1.478151	0.056237	-0.424667
C131	C	1.225909	-0.828020	-0.463678
C132	C	1.725909	-0.328020	0.036322
C133	C	1.207228	-0.803186	-0.393296
C134	C	1.707228	-0.303186	0.106704
H135	H	1.273189	-0.809856	-0.476420
H136	H	1.773189	-0.309856	0.023580
H137	H	1.226383	-0.880634	-0.464272
H138	H	1.726383	-0.380634	0.035728
H139	H	1.190828	-0.810400	-0.498075
H140	H	1.690828	-0.310400	0.001925
H141	H	1.242306	-0.820811	-0.358897
H142	H	1.742306	-0.320811	0.141103
H143	H	1.206759	-0.750562	-0.392696
H144	H	1.706759	-0.250562	0.107304
H145	H	1.096652	-0.903671	-0.478573
H146	H	1.596652	-0.403671	0.021427
H147	H	0.494138	-0.271485	-0.269377
H148	H	0.994138	0.228515	0.230623
C149	C	0.533155	-0.499333	-0.494482
C150	C	1.033155	0.000667	0.005518
C151	C	0.483193	-0.457592	-0.453251
C152	C	0.983193	0.042408	0.046749
H153	H	0.507077	-0.531610	-0.526366
H154	H	1.007077	-0.031610	-0.026366
H155	H	0.563157	-0.467011	-0.522683
H156	H	1.063157	0.032989	-0.022683
H157	H	0.563107	-0.527694	-0.462359
H158	H	1.063107	-0.027694	0.037641
H159	H	0.453245	-0.429227	-0.485374
H160	H	0.953245	0.070773	0.014626
H161	H	0.453178	-0.489918	-0.425048
H162	H	0.953178	0.010082	0.074952
C163	C	0.923386	-0.499021	-0.824206
C164	C	1.423386	0.000979	-0.324206
C165	C	0.964710	-0.457342	-0.774264
C166	C	1.464710	0.042658	-0.274264
H167	H	0.891432	-0.531260	-0.798113
H168	H	1.391432	-0.031260	-0.298113
H169	H	0.895257	-0.466659	-0.854182
H170	H	1.395257	0.033341	-0.354182
H171	H	0.955447	-0.527422	-0.854186
H172	H	1.455447	-0.027422	-0.354186
H173	H	0.932649	-0.428937	-0.744288
H174	H	1.432649	0.071063	-0.244288
H175	H	0.992841	-0.489708	-0.744276
H176	H	1.492841	0.010292	-0.244276
C177	C	0.594579	-0.216188	-0.214724
C178	C	1.094579	0.283812	0.285276
C179	C	0.644536	-0.257924	-0.255967
C180	C	1.144536	0.242076	0.244033
H181	H	0.620661	-0.183921	-0.182834
H182	H	1.120661	0.316079	0.317166
H183	H	0.564629	-0.187823	-0.246835
H184	H	1.064629	0.312177	0.253165
H185	H	0.564575	-0.248519	-0.186523
H186	H	1.064575	0.251481	0.313477
H187	H	0.674537	-0.225593	-0.284172
H188	H	1.174537	0.274407	0.215828
H189	H	0.674499	-0.286291	-0.223852
H190	H	1.174499	0.213709	0.276148
C191	C	0.887877	-0.828493	-0.440673
C192	C	1.387877	-0.328493	0.059327
C193	C	0.958118	-0.803474	-0.459746
C194	C	1.458118	-0.303474	0.040254
H195	H	0.853175	-0.810438	-0.475241
H196	H	1.353175	-0.310438	0.024759
H197	H	0.887209	-0.881109	-0.440756
H198	H	1.387209	-0.381109	0.059244
H199	H	0.875607	-0.810888	-0.393088
H200	H	1.375607	-0.310888	0.106912
H201	H	0.970390	-0.821084	-0.507329
H202	H	1.470390	-0.321084	-0.007329
H203	H	0.958788	-0.750847	-0.459671
H204	H	1.458788	-0.250847	0.040329
H205	H	0.939642	-0.903933	-0.321340
H206	H	1.439642	-0.403933	0.178660
H207	H	1.030282	-0.811172	-0.230622
H208	H	1.530282	-0.311172	0.269378
C209	C	1.203752	-0.216239	-0.824320
C210	C	1.703752	0.283761	-0.324320
C211	C	1.162417	-0.257940	-0.774342
C212	C	1.662417	0.242060	-0.274342
H213	H	1.235698	-0.184009	-0.798255
H214	H	1.735698	0.315991	-0.298255
H215	H	1.231890	-0.248589	-0.854294
H216	H	1.731890	0.251411	-0.354294
H217	H	1.171697	-0.187829	-0.854298
H218	H	1.671697	0.312171	-0.354298
H219	H	1.194472	-0.286355	-0.744367
H220	H	1.694472	0.213645	-0.244367
H221	H	1.134277	-0.225586	-0.744355
H222	H	1.634277	0.274414	-0.244355
