data_functionalizedCrystal
_audit_creation_method	'MofGen! by Chris Wilmer'
_symmetry_space_group_name_H-M	'P1'
_symmetry_Int_Tables_number	1
_symmetry_cell_setting	triclinic
loop_
_symmetry_equiv_pos_as_xyz
  x,y,z
_cell_length_a	17.699097
_cell_length_b	15.995350
_cell_length_c	16.776229
_cell_angle_alpha	89.991668
_cell_angle_beta	90.007172
_cell_angle_gamma	83.390403
loop_
_atom_site_label
_atom_site_type_symbol
_atom_site_fract_x
_atom_site_fract_y
_atom_site_fract_z
O1	O	1.004246	0.105923	0.066350
O2	O	1.504246	0.605923	0.566350
O3	O	0.783892	0.119687	0.066337
O4	O	1.283892	0.619687	0.566337
O5	O	0.900092	-0.009095	0.066343
O6	O	1.400092	0.490905	0.566343
O7	O	0.888045	0.234705	0.066344
O8	O	1.388045	0.734705	0.566344
O9	O	0.900082	-0.009072	-0.066233
O10	O	1.400082	0.490928	0.433767
O11	O	0.783881	0.119710	-0.066239
O12	O	1.283881	0.619710	0.433761
O13	O	1.004235	0.105945	-0.066226
O14	O	1.504235	0.605945	0.433774
Zn15	Zn	0.894056	0.112831	-0.087282
Zn16	Zn	1.394056	0.612831	0.412718
Zn17	Zn	0.894071	0.112801	0.087393
Zn18	Zn	1.394071	0.612801	0.587393
O19	O	0.888035	0.234727	-0.066232
O20	O	1.388035	0.734727	0.433768
C21	C	0.755689	0.119203	0.000047
C22	C	1.255689	0.619203	0.500047
C23	C	0.671669	0.117718	0.000042
C24	C	1.171669	0.617718	0.500042
C25	C	0.155941	0.108602	0.072342
C26	C	0.655941	0.608602	0.572342
C27	C	0.234888	0.109992	0.072338
C28	C	0.734888	0.609992	0.572338
C29	C	0.274349	0.110700	0.000067
C30	C	0.774349	0.610700	0.500067
C31	C	0.234861	0.110010	-0.072204
C32	C	0.734861	0.610010	0.427796
C33	C	0.155916	0.108614	-0.072200
C34	C	0.655916	0.608614	0.427800
C35	C	0.553234	0.115638	-0.072225
C36	C	1.053234	0.615638	0.427775
C37	C	0.632184	0.117037	-0.072225
C38	C	1.132184	0.617037	0.427775
C39	C	0.632205	0.117015	0.072312
C40	C	1.132205	0.617015	0.572312
C41	C	0.553261	0.115620	0.072317
C42	C	1.053261	0.615620	0.572317
C43	C	0.513780	0.114925	0.000046
C44	C	1.013780	0.614925	0.500046
C45	C	0.428178	0.113417	0.000051
C46	C	0.928178	0.613417	0.500051
C47	C	0.359949	0.112215	0.000061
C48	C	0.859949	0.612215	0.500061
C49	C	0.899589	-0.040277	0.000057
C50	C	1.399589	0.459723	0.500057
C51	C	0.898096	-0.133225	0.000061
C52	C	1.398096	0.366775	0.500061
C53	C	0.892734	-0.470961	0.000058
C54	C	1.392734	0.029039	0.500058
C55	C	0.809978	-0.423363	0.000350
C56	C	1.309978	0.076637	0.500350
C57	C	0.811471	-0.326676	0.000052
C58	C	1.311471	0.173324	0.500052
C59	C	0.895393	-0.303406	0.000060
C60	C	1.395393	0.196594	0.500060
C61	C	0.936205	-0.344552	-0.075644
C62	C	1.436205	0.155448	0.424356
C63	C	0.934127	-0.441183	-0.075707
C64	C	1.434127	0.058817	0.424293
C65	C	0.935848	-0.441570	0.075057
C66	C	1.435848	0.058430	0.575057
C67	C	0.935829	-0.344625	0.076058
C68	C	1.435829	0.155375	0.576058
C69	C	0.896901	-0.208712	0.000058
C70	C	1.396901	0.291288	0.500058
C71	C	0.891228	-0.565656	0.000054
C72	C	1.391228	-0.065656	0.500054
C73	C	1.032438	0.106429	0.000066
C74	C	1.532438	0.606429	0.500066
C75	C	1.116458	0.107914	0.000076
C76	C	1.616458	0.607914	0.500076
C77	C	0.888538	0.265910	0.000056
C78	C	1.388538	0.765910	0.500056
C79	C	0.890031	0.358857	0.000057
C80	C	1.390031	0.858857	0.500057
N81	N	0.894052	0.112851	-0.206493
N82	N	1.394052	0.612851	0.293507
C83	C	0.848179	0.062060	-0.751668
C84	C	1.348179	0.562060	-0.251668
C85	C	0.848177	0.062067	-0.668216
C86	C	1.348177	0.562067	-0.168216
C87	C	0.894074	0.112794	-0.626493
C88	C	1.394074	0.612794	-0.126493
C89	C	0.939981	0.163511	-0.668226
C90	C	1.439981	0.663511	-0.168226
C91	C	0.939986	0.163499	-0.751677
C92	C	1.439986	0.663499	-0.251677
C93	C	0.939961	0.163561	-0.331679
C94	C	1.439961	0.663561	0.168321
C95	C	0.939951	0.163571	-0.248222
C96	C	1.439951	0.663571	0.251778
C97	C	0.848152	0.062129	-0.248218
C98	C	1.348152	0.562129	0.251782
C99	C	0.848158	0.062116	-0.331669
C100	C	1.348158	0.562116	0.168331
C101	C	0.894067	0.112830	-0.373395
C102	C	1.394067	0.612830	0.126605
C103	C	0.894070	0.112820	-0.463883
C104	C	1.394070	0.612820	0.036117
C105	C	0.894068	0.112809	-0.536006
C106	C	1.394068	0.612809	-0.036006
N107	N	0.894081	0.112775	0.206604
N108	N	1.394081	0.612775	0.706604
H109	H	0.664361	0.117577	0.131159
H110	H	1.164361	0.617577	0.631159
H111	H	0.776905	-0.441839	0.054639
H112	H	1.276905	0.058161	0.554639
H113	H	0.997029	-0.329385	0.080635
H114	H	1.497029	0.170615	0.580635
H115	H	0.810800	0.020757	-0.785634
H116	H	1.310800	0.520757	-0.285634
O117	O	0.674744	0.117799	-0.150181
O118	O	1.174744	0.617799	0.349819
H119	H	0.736271	0.118897	-0.138039
H120	H	1.236271	0.618897	0.361961
H121	H	0.521100	0.115061	-0.131073
H122	H	1.021100	0.615061	0.368927
H123	H	0.266997	0.110582	-0.131048
H124	H	0.766997	0.610582	0.368952
H125	H	0.123769	0.108063	-0.131046
H126	H	0.623769	0.608063	0.368954
H127	H	0.779165	-0.298738	-0.054312
H128	H	1.279165	0.201262	0.445688
O129	O	0.894687	-0.465345	-0.150667
O130	O	1.394687	0.034655	0.349333
H131	H	0.877272	-0.408036	-0.186528
H132	H	1.377272	0.091964	0.313472
H133	H	0.123817	0.108031	0.131193
H134	H	0.623817	0.608031	0.631193
O135	O	0.798638	0.007408	-0.203231
O136	O	1.298638	0.507408	0.296769
H137	H	0.815114	-0.059532	-0.219253
H138	H	1.315114	0.440468	0.280747
O139	O	0.766348	-0.449200	-0.071170
O140	O	1.266348	0.050800	0.428830
H141	H	0.803348	-0.495793	-0.106925
H142	H	1.303348	0.004207	0.393075
O143	O	0.896360	-0.308400	0.150247
O144	O	1.396360	0.191600	0.650247
H145	H	0.937328	-0.277697	0.187140
H146	H	1.437328	0.222303	0.687140
O147	O	0.798657	0.007379	-0.623210
O148	O	1.298657	0.507379	-0.123210
H149	H	0.834932	-0.037676	-0.585175
H150	H	1.334932	0.462324	-0.085175
H151	H	0.810781	0.020812	-0.365636
H152	H	1.310781	0.520812	0.134364
H153	H	0.907851	-0.316104	-0.131986
H154	H	1.407851	0.183896	0.368014
O155	O	1.016669	-0.483803	0.075752
O156	O	1.516669	0.016197	0.575752
H157	H	1.026121	-0.525530	0.022972
H158	H	1.526121	-0.025530	0.522972
O159	O	0.768962	-0.288943	0.071922
O160	O	1.268962	0.211057	0.571922
H161	H	0.747148	-0.339749	0.107205
H162	H	1.247148	0.160251	0.607205
H163	H	0.994884	-0.473551	-0.079136
H164	H	1.494884	0.026449	0.420864
O165	O	1.017873	-0.325998	-0.079382
O166	O	1.517873	0.174002	0.420618
H167	H	1.030268	-0.287158	-0.027198
H168	H	1.530268	0.212842	0.472802
H169	H	0.977364	0.204796	-0.785650
H170	H	1.477364	0.704796	-0.285650
H171	H	0.267032	0.110546	0.131184
H172	H	0.767032	0.610546	0.631184
O173	O	0.900016	-0.468708	0.151068
O174	O	1.400016	0.031292	0.651068
H175	H	0.851072	-0.503450	0.136235
H176	H	1.351072	-0.003450	0.636235
H177	H	0.977327	0.204881	-0.214253
H178	H	1.477327	0.704881	0.285747
O179	O	0.510700	0.114827	0.150265
O180	O	1.010700	0.614827	0.650265
H181	H	0.551421	0.115521	0.200517
H182	H	1.051421	0.615521	0.700517
H183	H	0.977343	0.204855	-0.365642
H184	H	1.477343	0.704855	0.134358
O185	O	0.989481	0.218233	-0.623230
O186	O	1.489481	0.718233	-0.123230
H187	H	0.981758	0.209731	-0.558191
H188	H	1.481758	0.709731	-0.058191
