data_functionalizedCrystal
_audit_creation_method	'MofGen! by Chris Wilmer'
_symmetry_space_group_name_H-M	'P1'
_symmetry_Int_Tables_number	1
_symmetry_cell_setting	triclinic
loop_
_symmetry_equiv_pos_as_xyz
  x,y,z
_cell_length_a	18.215407
_cell_length_b	12.645330
_cell_length_c	18.215399
_cell_angle_alpha	89.972426
_cell_angle_beta	89.985195
_cell_angle_gamma	90.007159
loop_
_atom_site_label
_atom_site_type_symbol
_atom_site_fract_x
_atom_site_fract_y
_atom_site_fract_z
Zn1	Zn	1.125113	-0.422180	-0.416090
Zn2	Zn	1.125054	-0.599470	-0.293030
Zn3	Zn	1.002052	-0.422204	-0.293042
Zn4	Zn	1.002037	-0.599385	-0.416059
O5	O	1.063564	-0.510810	-0.354556
O6	O	1.228089	-0.445724	-0.399774
O7	O	1.108719	-0.576001	-0.190047
O8	O	1.018407	-0.273854	-0.309383
O9	O	1.228046	-0.575978	-0.309362
O10	O	1.108819	-0.273836	-0.399786
O11	O	1.018350	-0.445764	-0.190056
O12	O	0.899066	-0.445682	-0.309353
O13	O	1.018382	-0.575833	-0.519048
O14	O	0.899055	-0.575856	-0.399733
O15	O	1.108805	-0.445641	-0.519071
O16	O	1.108705	-0.747806	-0.309332
O17	O	1.018325	-0.747744	-0.399721
C18	C	0.872358	-0.510763	-0.354541
C19	C	0.790559	-0.510769	-0.354552
C20	C	0.525518	-0.443117	-0.401708
C21	C	0.602377	-0.443100	-0.401706
C22	C	0.602351	-0.578537	-0.307419
C23	C	0.525494	-0.578558	-0.307426
C24	C	0.487079	-0.510843	-0.354569
C25	C	0.640795	-0.510804	-0.354560
C26	C	0.724129	-0.510786	-0.354557
C27	C	0.403740	-0.510862	-0.354573
C28	C	1.063527	-0.786240	-0.354538
C29	C	1.063579	-0.904070	-0.354555
C30	C	1.120345	-1.071629	-0.297576
C31	C	1.120530	-0.949068	-0.297716
C32	C	1.084605	-0.948454	-0.432129
C33	C	1.085056	-1.071052	-0.431827
C34	C	0.985763	-1.071387	-0.334725
C35	C	0.986136	-0.948782	-0.332986
C36	C	1.255517	-0.510857	-0.354570
C37	C	1.337316	-0.510878	-0.354577
C38	C	1.063599	-0.510725	-0.546509
C39	C	1.063613	-0.510689	-0.628307
C40	C	1.063621	-0.234305	-0.354589
C41	C	1.063645	-0.116475	-0.354603
C42	C	1.016598	-0.442829	-0.816507
C43	C	1.016611	-0.442808	-0.893366
C44	C	1.110717	-0.578423	-0.893346
C45	C	1.110700	-0.578448	-0.816488
C46	C	1.063642	-0.510646	-0.778071
C47	C	1.063671	-0.510598	-0.931787
C48	C	1.063686	-0.510576	-1.015121
C49	C	1.063626	-0.510670	-0.694732
C50	C	1.063572	-0.510818	-0.163349
C51	C	1.063699	-0.510555	-0.081551
H52	H	0.633670	-0.387952	-0.440092
N53	N	0.484086	-0.370098	-0.452564
H54	H	0.429564	-0.380384	-0.445416
H55	H	0.497514	-0.294363	-0.441199
N56	N	0.643784	-0.651564	-0.256569
H57	H	0.698306	-0.641271	-0.263714
H58	H	0.630327	-0.634974	-0.204031
N59	N	0.965873	-0.369657	-0.934820
H60	H	0.973020	-0.379929	-0.989339
H61	H	0.913309	-0.386151	-0.921376
H62	H	1.177721	-1.102367	-0.310577
N63	N	1.160465	-1.108841	-0.454113
H64	H	1.193102	-1.045860	-0.464041
H65	H	1.182231	-1.152707	-0.413202
N66	N	0.484028	-0.651612	-0.256583
H67	H	0.520024	-0.694501	-0.226713
H68	H	0.452124	-0.608410	-0.222580
H69	H	1.107375	-0.919064	-0.240196
H70	H	1.107355	-1.101180	-0.239888
N71	N	1.032732	-1.110353	-0.490028
H72	H	1.009479	-1.048034	-0.515768
H73	H	1.060531	-1.154563	-0.526888
H74	H	1.149031	-0.633624	-0.924635
H75	H	0.970282	-0.919784	-0.275898
H76	H	1.140890	-0.917673	-0.449248
H77	H	1.044565	-0.919302	-0.475757
N78	N	0.960438	-1.112435	-0.261094
H79	H	0.910372	-1.082518	-0.249420
H80	H	0.957585	-1.192163	-0.262690
H81	H	1.178215	-0.919668	-0.310863
N82	N	0.927149	-0.908203	-0.383953
H83	H	0.949894	-0.860051	-0.421921
H84	H	0.902665	-0.969869	-0.409271
H85	H	0.943517	-1.100388	-0.376261
H86	H	1.149010	-0.633677	-0.785193
H87	H	0.978280	-0.387620	-0.785230
