data_functionalizedCrystal
_audit_creation_method	'MofGen! by Chris Wilmer'
_symmetry_space_group_name_H-M	'P1'
_symmetry_Int_Tables_number	1
_symmetry_cell_setting	triclinic
loop_
_symmetry_equiv_pos_as_xyz
  x,y,z
_cell_length_a	21.395362
_cell_length_b	16.994747
_cell_length_c	21.395355
_cell_angle_alpha	89.989768
_cell_angle_beta	90.043940
_cell_angle_gamma	90.014147
loop_
_atom_site_label
_atom_site_type_symbol
_atom_site_fract_x
_atom_site_fract_y
_atom_site_fract_z
Zn1	Zn	0.958001	-0.313785	0.354711
Zn2	Zn	0.957963	-0.445671	0.249986
Zn3	Zn	0.853216	-0.313822	0.249912
Zn4	Zn	0.853244	-0.445688	0.354691
O5	O	0.905606	-0.379741	0.302325
O6	O	1.045674	-0.331258	0.340858
O7	O	0.944040	-0.428190	0.162298
O8	O	0.867120	-0.203436	0.263791
O9	O	1.045646	-0.428154	0.263917
O10	O	0.944105	-0.203409	0.340787
O11	O	0.867083	-0.331320	0.162244
O12	O	0.765542	-0.331336	0.263772
O13	O	0.867168	-0.428182	0.442371
O14	O	0.765562	-0.428217	0.340752
O15	O	0.944132	-0.331274	0.442386
O16	O	0.944067	-0.556055	0.263898
O17	O	0.867131	-0.556067	0.340824
C18	C	0.742818	-0.379783	0.302252
C19	C	0.673177	-0.379820	0.302236
C20	C	0.640491	-0.430333	0.342260
C21	C	0.575056	-0.430314	0.342288
C22	C	0.542309	-0.379790	0.302281
C23	C	0.575002	-0.329267	0.262254
C24	C	0.640436	-0.329282	0.262232
C25	C	0.438581	-0.373435	0.245873
C26	C	0.373148	-0.373425	0.245894
C27	C	0.340488	-0.379738	0.302350
C28	C	0.373269	-0.386077	0.358786
C29	C	0.438703	-0.386092	0.358764
C30	C	0.471356	-0.379767	0.302301
C31	C	0.236850	-0.430233	0.342407
C32	C	0.171413	-0.430208	0.342436
C33	C	0.171361	-0.329165	0.262397
C34	C	0.236796	-0.329186	0.262374
C35	C	0.269537	-0.379724	0.302378
C36	C	0.905606	-0.584681	0.302365
C37	C	0.905626	-0.674003	0.302368
Zn38	Zn	0.853228	-0.813854	0.354642
Zn39	Zn	0.957975	-0.945703	0.354730
Zn40	Zn	0.958027	-0.813753	0.250018
Zn41	Zn	0.853271	-0.945656	0.249850
O42	O	0.905625	-0.879741	0.302310
O43	O	0.867084	-0.831406	0.442332
O44	O	1.045660	-0.928178	0.340947
O45	O	0.944130	-0.703385	0.263931
O46	O	0.944041	-0.928275	0.442396
O47	O	0.867134	-0.703459	0.340797
O48	O	1.045698	-0.831234	0.264016
O49	O	0.944171	-0.831188	0.162318
O50	O	0.765587	-0.928194	0.263644
O51	O	0.867207	-0.928096	0.162195
O52	O	0.765556	-0.831360	0.340635
O53	O	0.944082	-1.056078	0.340784
O54	O	0.867156	-1.056043	0.263729
C55	C	1.069029	-0.379700	0.302398
C56	C	1.138670	-0.379682	0.302429
C57	C	0.905658	-0.379725	0.465748
C58	C	0.905680	-0.379719	0.535389
C59	C	0.905609	-0.174001	0.302281
C60	C	0.905612	-0.084679	0.302263
C61	C	0.905590	-0.379700	0.139537
C62	C	0.905689	-0.379485	0.069896
C63	C	0.945753	-0.329256	0.568111
C64	C	0.945753	-0.329222	0.633547
C65	C	0.905685	-0.379665	0.666258
C66	C	0.865603	-0.430131	0.633528
C67	C	0.865601	-0.430157	0.568094
C68	C	0.900741	-0.450690	0.769950
C69	C	0.900748	-0.450665	0.835383
C70	C	0.905689	-0.379581	0.868079
C71	C	0.910636	-0.308522	0.835333
C72	C	0.910634	-0.308549	0.769899
C73	C	0.905683	-0.379641	0.737210
C74	C	0.945763	-0.329078	0.971753
C75	C	0.945758	-0.329043	1.037190
C76	C	0.865612	-0.429958	1.037170
C77	C	0.865614	-0.429986	0.971734
C78	C	0.905693	-0.379547	0.939030
C79	C	0.905699	-0.879627	0.139523
C80	C	0.905715	-0.879596	0.069881
C81	C	0.742202	-0.879783	0.302111
C82	C	0.672561	-0.879800	0.302026
C83	C	0.905551	-0.879857	0.465733
C84	C	0.905520	-0.879906	0.535375
C85	C	1.068413	-0.879645	0.302544
C86	C	1.138054	-0.879410	0.302746
C87	C	0.865709	-0.930115	0.037127
C88	C	0.865712	-0.930087	-0.028308
C89	C	0.905724	-0.879543	-0.060988
C90	C	0.945732	-0.829018	-0.028229
C91	C	0.945726	-0.829043	0.037205
C92	C	0.639837	-0.829386	0.342071
C93	C	0.574401	-0.829387	0.341991
C94	C	0.541691	-0.879807	0.301870
C95	C	0.574420	-0.930223	0.261820
C96	C	0.639854	-0.930218	0.261897
C97	C	0.865433	-0.829494	0.568049
C98	C	0.865391	-0.829540	0.633484
C99	C	0.905440	-0.879994	0.666244
C100	C	0.945529	-0.930412	0.633565
C101	C	0.945567	-0.930370	0.568131
C102	C	1.170751	-0.829188	0.262497
C103	C	1.236186	-0.828951	0.262688
C104	C	1.268923	-0.878941	0.303124
C105	C	1.236221	-0.929166	0.343378
C106	C	1.170787	-0.929398	0.343190
H107	H	0.346678	-0.391216	0.404758
H108	H	1.144170	-0.970299	0.375964
F109	F	0.822959	-0.483813	0.668342
F110	F	0.823129	-0.983866	-0.063161
H111	H	0.263508	-0.471380	0.374984
H112	H	1.262803	-0.788051	0.229907
H113	H	0.666461	-0.788326	0.374744
F114	F	0.675332	-0.484118	0.384838
F115	F	0.823118	-0.983914	0.071895
F116	F	0.539581	-0.775727	0.384621
H117	H	1.322203	-0.878744	0.303271
F118	F	0.988407	-0.275571	0.533309
H119	H	0.144699	-0.288024	0.229825
H120	H	0.832966	-0.471249	0.541452
H121	H	0.548438	-0.471447	0.374882
F122	F	0.988317	-0.775281	0.072058
F123	F	0.822720	-0.775879	0.668252
H124	H	0.905404	-0.880020	0.719525
H125	H	0.905724	-0.879531	-0.114269
F126	F	0.822964	-0.483699	0.936908
H127	H	0.666493	-0.971275	0.229289
H128	H	0.978384	-0.288126	0.660194
F129	F	1.271071	-0.982374	0.386404
H130	H	0.488411	-0.879800	0.301811
F131	F	0.988303	-0.775216	-0.063018
F132	F	0.915896	-0.232924	0.735051
F133	F	0.539598	-0.983881	0.219123
H134	H	0.465390	-0.391251	0.404716
H135	H	0.832821	-0.788404	0.541384
H136	H	0.978134	-0.971492	0.660249
H137	H	0.144801	-0.471340	0.375032
F138	F	0.271584	-0.275425	0.219773
H139	H	0.978215	-0.971419	0.541533
H140	H	0.346463	-0.368269	0.199940
H141	H	0.832982	-0.471021	1.063803
F142	F	0.895488	-0.526292	0.870227
F143	F	0.473334	-0.366718	0.185781
H144	H	1.144105	-0.788475	0.229569
F145	F	0.540150	-0.275493	0.219678
H146	H	0.667049	-0.288146	0.229639
H147	H	0.978394	-0.288003	0.945124
F148	F	0.915897	-0.232864	0.870125
H149	H	0.978390	-0.287946	1.063831
F150	F	0.895496	-0.526353	0.735159
