data_functionalizedCrystal
_audit_creation_method	'MofGen! by Chris Wilmer'
_symmetry_space_group_name_H-M	'P1'
_symmetry_Int_Tables_number	1
_symmetry_cell_setting	triclinic
loop_
_symmetry_equiv_pos_as_xyz
  x,y,z
_cell_length_a	19.805407
_cell_length_b	12.594516
_cell_length_c	19.805399
_cell_angle_alpha	89.979203
_cell_angle_beta	89.980427
_cell_angle_gamma	90.016053
loop_
_atom_site_label
_atom_site_type_symbol
_atom_site_fract_x
_atom_site_fract_y
_atom_site_fract_z
Zn1	Zn	1.034784	-0.423767	-0.382752
Zn2	Zn	1.034720	-0.601760	-0.269577
Zn3	Zn	0.921599	-0.423796	-0.269576
Zn4	Zn	0.921583	-0.601704	-0.382723
O5	O	0.978172	-0.512757	-0.326157
O6	O	1.129492	-0.447389	-0.367751
O7	O	1.019694	-0.578189	-0.174860
O8	O	0.936647	-0.274846	-0.284601
O9	O	1.129445	-0.578160	-0.284602
O10	O	1.019804	-0.274825	-0.367750
O11	O	0.936584	-0.447439	-0.174860
O12	O	0.826880	-0.447385	-0.284573
O13	O	0.936620	-0.578064	-0.477444
O14	O	0.826869	-0.578092	-0.367702
O15	O	1.019788	-0.447335	-0.477464
O16	O	1.019678	-0.750698	-0.284574
O17	O	0.936557	-0.750657	-0.367703
C18	C	0.802316	-0.512736	-0.326135
C19	C	0.727084	-0.512753	-0.326142
C20	C	0.978127	-0.789298	-0.326150
C21	C	0.978170	-0.907603	-0.326170
C22	C	0.691751	-0.580915	-0.369357
C23	C	0.621063	-0.580917	-0.369366
C24	C	0.585708	-0.512762	-0.326157
C25	C	0.621045	-0.444592	-0.282940
C26	C	0.691733	-0.444586	-0.282934
C27	C	0.335972	-0.444615	-0.282962
C28	C	0.265280	-0.444629	-0.282970
C29	C	0.265302	-0.580947	-0.369394
C30	C	0.335989	-0.580941	-0.369389
C31	C	0.371321	-0.512768	-0.326175
C32	C	0.447969	-0.512765	-0.326166
C33	C	0.509061	-0.512769	-0.326162
C34	C	0.932956	-0.976872	-0.371352
C35	C	0.916467	-1.047728	-0.309590
C36	C	0.994721	-1.047546	-0.387943
C37	C	0.961649	-0.976901	-0.264375
C38	C	1.039931	-0.976712	-0.342770
C39	C	1.023465	-1.047536	-0.280965
C40	C	1.154714	-0.512778	-0.326179
C41	C	1.229946	-0.512787	-0.326189
C42	C	0.978209	-0.512690	-0.502700
C43	C	0.978226	-0.512661	-0.577932
C44	C	0.978235	-0.235136	-0.326178
C45	C	0.978261	-0.116830	-0.326188
C46	C	1.021533	-0.444587	-0.613288
C47	C	1.021539	-0.444556	-0.683976
C48	C	0.978242	-0.512605	-0.719307
C49	C	0.934931	-0.580683	-0.683947
C50	C	0.934921	-0.580707	-0.613259
C51	C	0.934969	-0.580583	-0.969020
C52	C	0.934984	-0.580556	-1.039712
C53	C	1.021588	-0.444432	-1.039737
C54	C	1.021578	-0.444457	-0.969050
C55	C	0.978264	-0.512530	-0.933695
C56	C	0.978256	-0.512561	-0.857046
C57	C	0.978253	-0.512580	-0.795955
C58	C	0.978173	-0.512747	-0.150301
C59	C	0.978288	-0.512475	-0.075069
H60	H	0.720532	-0.636419	-0.404541
O61	O	0.892855	-0.646692	-1.073929
C62	C	0.806973	-0.781750	-1.066449
C63	C	0.854632	-0.706893	-1.027615
H64	H	0.776067	-0.830458	-1.029021
H65	H	0.771558	-0.732911	-1.099524
H66	H	0.838050	-0.837354	-1.099562
H67	H	0.823609	-0.651273	-0.994466
H68	H	0.890049	-0.755798	-0.994582
O69	O	0.892989	-0.646766	-0.934615
C70	C	0.883819	-0.790557	-0.854839
C71	C	0.931442	-0.715650	-0.893747
H72	H	0.914889	-0.846283	-0.821799
H73	H	0.848438	-0.741760	-0.821700
H74	H	0.852868	-0.839132	-0.892256
H75	H	0.962437	-0.667058	-0.856378
H76	H	0.966778	-0.764507	-0.926896
H77	H	0.364771	-0.636444	-0.404572
H78	H	0.236496	-0.389122	-0.247783
O79	O	0.370321	-0.378291	-0.241080
C80	C	0.450175	-0.234604	-0.232117
C81	C	0.411300	-0.309634	-0.279629
H82	H	0.483327	-0.179090	-0.263264
H83	H	0.412796	-0.185818	-0.201243
H84	H	0.483218	-0.283419	-0.196659
H85	H	0.378256	-0.260901	-0.315127
H86	H	0.448716	-0.358423	-0.310455
H87	H	0.592254	-0.389094	-0.247761
H88	H	1.092106	-0.945498	-0.356826
O89	O	1.063755	-0.378408	-1.074052
C90	C	1.178902	-0.326707	-1.095675
C91	C	1.131226	-0.401556	-1.056786
H92	H	1.233461	-0.345380	-1.081719
H93	H	1.171531	-0.338374	-1.152274
H94	H	1.167000	-0.240893	-1.081786
H95	H	1.143098	-0.487398	-1.070618
H96	H	1.138606	-0.389796	-1.000196
O97	O	0.892933	-0.646996	-0.578939
C98	C	0.860023	-0.828053	-0.557310
C99	C	0.907626	-0.753103	-0.596210
H100	H	0.871875	-0.913856	-0.571271
H101	H	0.867460	-0.816470	-0.500713
H102	H	0.805453	-0.809307	-0.571185
H103	H	0.962214	-0.771803	-0.582392
H104	H	0.900130	-0.764700	-0.652798
O105	O	1.063520	-0.378328	-0.579002
C106	C	1.096438	-0.197287	-0.557434
C107	C	1.048836	-0.272209	-0.596289
H108	H	1.084592	-0.111476	-0.571407
H109	H	1.088993	-0.208902	-0.500830
H110	H	1.151008	-0.216033	-0.571335
H111	H	0.994247	-0.253509	-0.582444
H112	H	1.056339	-0.260581	-0.652884
H113	H	0.720500	-0.389075	-0.247748
O114	O	0.892775	-0.646674	-0.718234
C115	C	0.777635	-0.698365	-0.739803
C116	C	0.825298	-0.623543	-0.700945
H117	H	0.723071	-0.679705	-0.725828
H118	H	0.785022	-0.686656	-0.796407
H119	H	0.789535	-0.784189	-0.725904
H120	H	0.813428	-0.537690	-0.714787
H121	H	0.817902	-0.635344	-0.644351
H122	H	0.894652	-0.945843	-0.409505
O123	O	1.063509	-0.378306	-0.718346
C124	C	1.072654	-0.234591	-0.798180
C125	C	1.025047	-0.309549	-0.759291
H126	H	1.041577	-0.178997	-0.831304
H127	H	1.103583	-0.185888	-0.760811
H128	H	1.108055	-0.283458	-0.831253
H129	H	0.989605	-0.260765	-0.726217
H130	H	0.994166	-0.358256	-0.796697
H131	H	0.864280	-1.078946	-0.295564
H132	H	0.592298	-0.636423	-0.404556
H133	H	0.236527	-0.636453	-0.404584
H134	H	0.947627	-0.945998	-0.212128
O135	O	1.069051	-1.084280	-0.235251
C136	C	1.103159	-1.089725	-0.118524
C137	C	1.051482	-1.048060	-0.170223
H138	H	1.088981	-1.060440	-0.065940
H139	H	1.103178	-1.180238	-0.119118
H140	H	1.155611	-1.059279	-0.132253
H141	H	0.999005	-1.078427	-0.156529
H142	H	1.051522	-0.957548	-0.169619
H143	H	1.008682	-1.078577	-0.440176
H144	H	1.056837	-0.389047	-0.940287
