data_functionalizedCrystal
_audit_creation_method	'MofGen! by Chris Wilmer'
_symmetry_space_group_name_H-M	'P1'
_symmetry_Int_Tables_number	1
_symmetry_cell_setting	triclinic
loop_
_symmetry_equiv_pos_as_xyz
  x,y,z
_cell_length_a	12.759401
_cell_length_b	16.120444
_cell_length_c	12.759393
_cell_angle_alpha	92.863624
_cell_angle_beta	89.980563
_cell_angle_gamma	92.926494
loop_
_atom_site_label
_atom_site_type_symbol
_atom_site_fract_x
_atom_site_fract_y
_atom_site_fract_z
Zn1	Zn	1.584964	-0.331858	-0.615177
Zn2	Zn	1.575912	-0.471296	-0.448392
Zn3	Zn	1.409263	-0.331901	-0.439517
Zn4	Zn	1.400313	-0.471231	-0.624027
O5	O	1.492613	-0.401571	-0.531778
O6	O	1.730784	-0.350363	-0.593064
O7	O	1.553764	-0.452850	-0.300197
O8	O	1.440104	-0.215229	-0.455400
O9	O	1.724133	-0.452808	-0.470528
O10	O	1.569191	-0.215198	-0.584457
O11	O	1.431327	-0.350437	-0.293676
O12	O	1.261055	-0.350374	-0.463981
O13	O	1.424849	-0.452698	-0.769871
O14	O	1.254480	-0.452740	-0.599540
O15	O	1.560512	-0.350301	-0.763370
O16	O	1.545085	-0.587953	-0.479109
O17	O	1.416072	-0.587906	-0.608147
C18	C	1.219647	-0.401556	-0.531759
C19	C	1.102869	-0.401569	-0.531776
C20	C	0.934880	-0.454965	-0.602280
C21	C	1.044604	-0.454954	-0.602263
C22	C	1.051403	-0.348197	-0.461296
C23	C	0.941680	-0.348212	-0.461310
C24	C	0.876621	-0.508348	-0.672778
C25	C	0.928079	-0.561721	-0.743258
C26	C	1.037804	-0.561711	-0.743240
C27	C	1.096070	-0.508326	-0.672743
C28	C	1.478653	-0.618179	-0.545574
C29	C	1.472778	-0.710845	-0.551511
C30	C	1.523351	-0.921790	-0.501206
C31	C	1.462069	-0.880501	-0.562362
C32	C	1.468029	-0.786096	-0.556323
C33	C	1.517393	-1.016204	-0.507243
C34	C	1.766645	-0.401588	-0.531799
C35	C	1.883421	-0.401595	-0.531808
C36	C	1.492692	-0.401487	-0.805806
C37	C	1.492726	-0.401451	-0.922581
C38	C	1.506656	-0.184118	-0.517952
C39	C	1.512640	-0.091452	-0.512060
C40	C	1.563375	-0.348128	-0.974059
C41	C	1.563402	-0.348098	-1.083781
C42	C	1.422127	-0.454722	-1.090538
C43	C	1.422096	-0.454747	-0.980818
C44	C	1.634004	-0.294833	-0.915822
C45	C	1.704660	-0.241506	-0.967300
C46	C	1.704687	-0.241475	-1.077022
C47	C	1.634058	-0.294772	-1.135267
C48	C	1.492599	-0.401595	-0.258812
C49	C	1.492784	-0.401396	-0.142024
H50	H	1.185415	-0.508327	-0.672729
O51	O	0.891854	-0.296289	-0.392817
C52	C	0.910165	-0.190434	-0.252953
C53	C	0.966727	-0.249177	-0.330486
H54	H	0.970674	-0.152341	-0.202523
H55	H	0.861646	-0.146838	-0.298457
H56	H	0.856286	-0.228684	-0.200429
H57	H	1.020659	-0.210994	-0.383029
H58	H	1.015180	-0.292775	-0.284917
O59	O	1.353386	-0.506408	-1.147062
C60	C	1.172074	-0.546897	-1.183153
C61	C	1.249804	-0.488294	-1.119091
H62	H	1.088312	-0.532284	-1.160546
H63	H	1.184145	-0.537717	-1.270428
H64	H	1.186233	-0.614122	-1.165858
H65	H	1.235693	-0.421046	-1.136296
H66	H	1.237715	-0.497546	-1.031835
H67	H	1.364552	-0.498155	-0.938903
H68	H	0.880631	-0.605189	-0.800648
O69	O	1.591213	-0.879475	-0.433187
C70	C	1.643892	-0.852659	-0.252828
C71	C	1.566995	-0.900660	-0.329747
H72	H	1.624326	-0.869756	-0.169178
H73	H	1.727571	-0.869650	-0.272316
H74	H	1.636664	-0.782979	-0.260047
H75	H	1.574129	-0.970351	-0.322570
H76	H	1.483348	-0.883599	-0.310236
H77	H	1.634074	-0.294734	-1.224609
H78	H	1.079697	-0.605176	-0.800621
H79	H	0.787277	-0.508361	-0.672803
H80	H	1.098853	-0.304733	-0.403902
H81	H	1.405127	-0.916053	-0.619255
H82	H	1.633993	-0.294853	-0.826481
O83	O	1.773117	-0.189690	-0.910610
C84	C	1.794488	-0.077127	-0.779637
C85	C	1.716846	-0.135772	-0.843747
H86	H	1.749023	-0.033507	-0.725579
H87	H	1.846927	-0.115371	-0.730631
H88	H	1.845004	-0.039046	-0.835305
H89	H	1.666261	-0.173865	-0.788156
H90	H	1.664479	-0.097479	-0.892766
O91	O	1.773270	-0.189557	-1.126903
C92	C	1.833406	-0.047736	-1.151509
C93	C	1.755686	-0.106439	-1.094935
H94	H	1.819202	0.019478	-1.125701
H95	H	1.917190	-0.062323	-1.130848
H96	H	1.821315	-0.056908	-1.239932
H97	H	1.767682	-0.097300	-1.006501
H98	H	1.671930	-0.091837	-1.115683
