data_functionalizedCrystal
_audit_creation_method	'MofGen! by Chris Wilmer'
_symmetry_space_group_name_H-M	'P1'
_symmetry_Int_Tables_number	1
_symmetry_cell_setting	triclinic
loop_
_symmetry_equiv_pos_as_xyz
  x,y,z
_cell_length_a	15.995343
_cell_length_b	15.995292
_cell_length_c	9.730223
_cell_angle_alpha	89.998793
_cell_angle_beta	90.001030
_cell_angle_gamma	83.478900
loop_
_atom_site_label
_atom_site_type_symbol
_atom_site_fract_x
_atom_site_fract_y
_atom_site_fract_z
O1	O	1.110966	0.107898	-0.114142
O2	O	0.867187	0.121233	-0.114174
O3	O	0.995765	-0.007326	-0.114159
O4	O	0.982387	0.236457	-0.114157
O5	O	0.995757	-0.007329	0.114421
O6	O	0.867178	0.121229	0.114406
O7	O	1.110957	0.107895	0.114438
Zn8	Zn	0.989067	0.114561	0.150714
Zn9	Zn	0.989077	0.114566	-0.150450
O10	O	0.982379	0.236453	0.114423
C11	C	0.835988	0.120681	0.000112
C12	C	0.743037	0.119032	0.000099
C13	C	0.572852	0.116038	0.000118
C14	C	0.549525	0.023238	0.000116
C15	C	0.452848	0.021493	0.000643
C16	C	0.405292	0.113089	0.000134
C17	C	0.434370	0.159749	0.130405
C18	C	0.531162	0.160849	0.130507
C19	C	0.531081	0.162212	-0.129440
C20	C	0.434587	0.158786	-0.131145
C21	C	0.310595	0.111428	0.000148
C22	C	0.667549	0.117702	0.000113
C23	C	0.995217	-0.038523	0.000127
C24	C	0.993584	-0.131476	0.000117
C25	C	0.987583	-0.469214	0.000128
C26	C	1.080388	-0.445904	0.000651
C27	C	1.082152	-0.349229	0.000131
C28	C	0.990561	-0.301658	0.000123
C29	C	0.944168	-0.330756	-0.130409
C30	C	0.943051	-0.427547	-0.130513
C31	C	0.941146	-0.427408	0.129425
C32	C	0.944585	-0.330915	0.131145
C33	C	0.992239	-0.206962	0.000116
C34	C	0.985902	-0.563910	0.000127
C35	C	1.142156	0.108447	0.000149
C36	C	1.235107	0.110096	0.000153
C37	C	0.982927	0.267650	0.000134
C38	C	0.984560	0.360603	0.000135
N39	N	0.989065	0.114558	0.356250
N40	N	0.989085	0.114563	-0.355986
C41	C	1.046019	0.057656	0.428183
C42	C	1.046028	0.057656	0.572066
C43	C	0.932126	0.171468	0.572071
C44	C	0.932114	0.171463	0.428191
H45	H	0.545080	0.230518	-0.130696
N46	N	1.107465	-0.003710	0.649647
H47	H	1.098832	0.004924	0.751711
H48	H	1.097813	-0.063119	0.624504
N49	N	1.127773	-0.482983	0.124651
H50	H	1.089546	-0.515255	0.181693
H51	H	1.178103	-0.522242	0.093412
N52	N	0.392171	0.249044	0.136366
H53	H	0.407317	0.280554	0.051640
H54	H	0.329147	0.248499	0.140583
N55	N	1.130256	-0.324019	0.124092
H56	H	1.150507	-0.375753	0.179564
H57	H	1.180184	-0.295560	0.092846
H58	H	0.545721	0.228901	0.136078
H59	H	1.115964	-0.474922	-0.092425
H60	H	0.875006	-0.442095	-0.136433
N61	N	0.870679	0.232843	0.350609
H62	H	0.902657	0.269934	0.290897
H63	H	0.833627	0.200760	0.291008
N64	N	1.130572	-0.324839	-0.124013
H65	H	1.150848	-0.376919	-0.178618
H66	H	1.092731	-0.284924	-0.183392
H67	H	0.872835	-0.441396	0.130298
N68	N	0.586648	-0.024413	-0.123596
H69	H	0.539946	-0.044176	-0.180678
H70	H	0.618952	0.013734	-0.180733
N71	N	0.979642	-0.464830	0.260490
H72	H	0.974912	-0.527251	0.262329
H73	H	1.040894	-0.455151	0.264728
N74	N	0.587916	-0.023637	0.123676
H75	H	0.572628	-0.083188	0.122891
H76	H	0.651133	-0.024659	0.120391
N77	N	0.428421	-0.026662	0.125061
H78	H	0.480486	-0.046832	0.179782
H79	H	0.388499	0.011312	0.184224
N80	N	0.407778	0.117336	0.259319
H81	H	0.344489	0.118839	0.260804
H82	H	0.434310	0.056955	0.260855
H83	H	0.559361	0.132935	-0.228213
H84	H	0.975187	-0.454362	-0.228083
N85	N	1.107441	-0.003718	0.350587
H86	H	1.143521	-0.039765	0.417994
H87	H	1.075394	-0.040756	0.290900
N88	N	0.856025	-0.287255	0.141558
H89	H	0.849573	-0.254213	0.230114
H90	H	0.844467	-0.247764	0.061069
N91	N	0.854889	-0.288549	-0.136857
H92	H	0.843631	-0.250066	-0.055030
H93	H	0.846755	-0.254616	-0.224338
H94	H	0.885758	0.217799	0.630659
H95	H	0.557951	0.128911	0.228256
N96	N	0.986857	-0.304195	-0.259076
H97	H	1.007418	-0.355622	-0.315056
H98	H	0.945485	-0.265832	-0.315160
N99	N	0.410023	0.113784	-0.258815
H100	H	0.380042	0.064004	-0.231744
H101	H	0.371408	0.153724	-0.316954
H102	H	0.433839	-0.015032	-0.092722
N103	N	0.989323	-0.306319	0.259062
H104	H	0.949324	-0.267653	0.317024
H105	H	1.009454	-0.358513	0.313488
N106	N	0.390931	0.247323	-0.142096
H107	H	0.351371	0.259121	-0.061751
H108	H	0.434309	0.288539	-0.141210
