data_functionalizedCrystal
_audit_creation_method	'MofGen! by Chris Wilmer'
_symmetry_space_group_name_H-M	'P1'
_symmetry_Int_Tables_number	1
_symmetry_cell_setting	triclinic
loop_
_symmetry_equiv_pos_as_xyz
  x,y,z
_cell_length_a	12.837932
_cell_length_b	17.019294
_cell_length_c	11.892095
_cell_angle_alpha	90.016651
_cell_angle_beta	85.688545
_cell_angle_gamma	89.098799
loop_
_atom_site_label
_atom_site_type_symbol
_atom_site_fract_x
_atom_site_fract_y
_atom_site_fract_z
O1	O	1.383158	0.199571	-0.113429
O2	O	1.883158	0.699571	0.386571
O3	O	1.081298	0.189488	-0.112449
O4	O	1.581298	0.689488	0.387551
O5	O	1.239865	0.080865	-0.101870
O6	O	1.739865	0.580865	0.398130
O7	O	1.224590	0.308194	-0.124009
O8	O	1.724590	0.808194	0.375991
O9	O	1.226644	0.089906	0.085257
O10	O	1.726644	0.589906	0.585257
O11	O	1.068076	0.198529	0.074677
O12	O	1.568076	0.698529	0.574677
O13	O	1.369936	0.208613	0.073698
O14	O	1.869936	0.708613	0.573698
Zn15	Zn	1.216907	0.205007	0.103898
Zn16	Zn	1.716907	0.705007	0.603898
Zn17	Zn	1.234327	0.193094	-0.142650
Zn18	Zn	1.734327	0.693094	0.357350
O19	O	1.211369	0.317236	0.063118
O20	O	1.711369	0.817236	0.563118
C21	C	1.036048	0.190603	-0.018555
C22	C	1.536048	0.690603	0.481445
C23	C	0.920916	0.180445	-0.017567
C24	C	1.420916	0.680445	0.482433
C25	C	1.232415	0.056086	-0.005455
C26	C	1.732415	0.556086	0.494545
C27	C	1.229900	-0.031218	0.003040
C28	C	1.729900	0.468782	0.503040
C29	C	0.770616	0.095543	-0.009296
C30	C	1.270616	0.595543	0.490704
C31	C	0.878793	0.105082	-0.010225
C32	C	1.378793	0.605082	0.489775
C33	C	0.854853	0.246273	-0.023975
C34	C	1.354853	0.746273	0.476025
C35	C	0.746675	0.236734	-0.023046
C36	C	1.246675	0.736734	0.476954
C37	C	0.704561	0.161366	-0.015708
C38	C	1.204561	0.661366	0.484292
C39	C	0.596382	0.151827	-0.014786
C40	C	1.096382	0.651827	0.485214
C41	C	0.572443	0.293018	-0.028528
C42	C	1.072443	0.793018	0.471472
C43	C	0.680620	0.302557	-0.029457
C44	C	1.180620	0.802557	0.470543
C45	C	1.235927	-0.077157	-0.094971
C46	C	1.735927	0.422843	0.405029
C47	C	1.233557	-0.159188	-0.086985
C48	C	1.733557	0.340812	0.413015
C49	C	1.225167	-0.195278	0.019012
C50	C	1.725167	0.304722	0.519012
C51	C	1.219136	-0.149332	0.117031
C52	C	1.719136	0.350668	0.617031
C53	C	1.221499	-0.067303	0.109044
C54	C	1.721499	0.432697	0.609044
C55	C	1.217666	-0.442707	0.048230
C56	C	1.717666	0.057293	0.548230
C57	C	1.215307	-0.524743	0.056210
C58	C	1.715307	-0.024743	0.556210
C59	C	1.229727	-0.534592	-0.147808
C60	C	1.729727	-0.034592	0.352192
C61	C	1.232095	-0.452561	-0.155785
C62	C	1.732095	0.047439	0.344215
C63	C	1.226058	-0.406623	-0.057767
C64	C	1.726058	0.093377	0.442233
C65	C	1.222748	-0.279127	0.027177
C66	C	1.722748	0.220873	0.527177
C67	C	1.228470	-0.322776	-0.065933
C68	C	1.728470	0.177224	0.434067
C69	C	1.415186	0.207498	-0.020199
C70	C	1.915186	0.707498	0.479801
C71	C	1.530319	0.217655	-0.021195
C72	C	2.030319	0.717655	0.478805
C73	C	1.218819	0.342014	-0.033299
C74	C	1.718819	0.842014	0.466701
C75	C	1.221335	0.429318	-0.041802
C76	C	1.721335	0.929318	0.458198
N77	N	1.205027	0.213136	0.272160
N78	N	1.705027	0.713136	0.772160
N79	N	1.246216	0.184959	-0.310911
N80	N	1.746216	0.684959	0.189089
C81	C	1.328887	0.128342	0.517067
C82	C	1.828887	0.628342	1.017067
C83	C	1.320590	0.134031	0.634855
C84	C	1.820590	0.634031	1.134855
C85	C	1.180131	0.230199	0.625526
C86	C	1.680131	0.730199	1.125526
C87	C	1.188428	0.224510	0.507738
C88	C	1.688428	0.724510	1.007738
C89	C	1.262810	0.173581	0.453513
C90	C	1.762810	0.673581	0.953513
C91	C	1.271111	0.167896	0.335723
C92	C	1.771111	0.667896	0.835723
C93	C	1.130648	0.264060	0.326397
C94	C	1.630648	0.764060	0.826397
C95	C	1.122351	0.269749	0.444184
C96	C	1.622351	0.769749	0.944184
H97	H	0.562095	0.090459	-0.008815
H98	H	1.062095	0.590459	0.491185
N99	N	0.504982	0.360269	-0.035066
N100	N	1.004982	0.860269	0.464934
N101	N	0.542603	0.427553	-0.041616
N102	N	1.042603	0.927553	0.458384
H103	H	0.494960	0.475049	-0.046236
H104	H	0.994960	0.975049	0.453764
H105	H	1.215920	-0.308520	0.113481
H106	H	1.715920	0.191480	0.613481
H107	H	0.714925	0.363920	-0.035428
H108	H	1.214925	0.863920	0.464572
N109	N	0.897879	0.323254	-0.031481
N110	N	1.397879	0.823254	0.468519
N111	N	0.883365	0.365650	-0.114858
N112	N	1.383365	0.865650	0.385142
H113	H	0.913751	0.420019	-0.120158
H114	H	1.413751	0.920019	0.379842
N115	N	1.244512	-0.040308	-0.203256
N116	N	1.744512	0.459692	0.296744
N117	N	1.249894	-0.081339	-0.290756
N118	N	1.749894	0.418661	0.209244
H119	H	1.255956	-0.055318	-0.367237
H120	H	1.755956	0.444682	0.132763
H121	H	0.932572	0.051482	-0.005004
H122	H	1.432572	0.551482	0.494996
H123	H	1.374395	0.097192	0.686598
H124	H	1.874395	0.597192	1.186598
H125	H	1.119565	0.271659	0.669693
H126	H	1.619565	0.771659	1.169693
H127	H	1.238470	-0.196588	-0.166797
H128	H	1.738470	0.303412	0.333203
H129	H	1.238929	-0.423183	-0.242100
H130	H	1.738929	0.076817	0.257900
H131	H	1.331678	0.126429	0.291573
H132	H	1.831678	0.626429	0.791573
H133	H	1.234640	-0.572004	-0.227608
H134	H	1.734640	-0.072004	0.272392
N135	N	1.206711	-0.561600	0.164496
N136	N	1.706711	-0.061600	0.664496
N137	N	1.129122	-0.547372	0.231718
N138	N	1.629122	-0.047372	0.731718
H139	H	1.123049	-0.573404	0.308191
H140	H	1.623049	-0.073404	0.808191
N141	N	1.063161	0.310289	0.261479
N142	N	1.563161	0.810289	0.761479
N143	N	1.100964	0.358323	0.190770
N144	N	1.600964	0.858323	0.690770
H145	H	1.053306	0.390976	0.144922
H146	H	1.553306	0.890976	0.644922
H147	H	1.061788	0.311212	0.488349
H148	H	1.561788	0.811212	0.988349
H149	H	1.389458	0.086879	0.472916
H150	H	1.889458	0.586879	0.972916
H151	H	1.212771	-0.405314	0.128044
H152	H	1.712771	0.094686	0.628044
N153	N	0.727608	0.018556	-0.001817
N154	N	1.227608	0.518556	0.498183
N155	N	0.786600	-0.040211	0.003896
N156	N	1.286600	0.459789	0.503896
H157	H	0.756228	-0.094586	0.009177
H158	H	1.256228	0.405414	0.509177
H159	H	1.216576	-0.029899	0.188855
H160	H	1.716576	0.470101	0.688855
N161	N	1.210554	-0.186207	0.225297
N162	N	1.710554	0.313793	0.725297
N163	N	1.208446	-0.259448	0.232416
N164	N	1.708446	0.240552	0.732416
H165	H	1.202387	-0.285491	0.308881
H166	H	1.702387	0.214509	0.808881
N167	N	1.237053	-0.285901	-0.174194
N168	N	1.737053	0.214099	0.325806
N169	N	1.312995	-0.242995	-0.201217
N170	N	1.812995	0.257005	0.298783
H171	H	1.319062	-0.216945	-0.277677
H172	H	1.819062	0.283055	0.222323
