data_functionalizedCrystal
_audit_creation_method	'MofGen! by Chris Wilmer'
_symmetry_space_group_name_H-M	'P1'
_symmetry_Int_Tables_number	1
_symmetry_cell_setting	triclinic
loop_
_symmetry_equiv_pos_as_xyz
  x,y,z
_cell_length_a	14.971487
_cell_length_b	15.455313
_cell_length_c	14.971486
_cell_angle_alpha	87.331922
_cell_angle_beta	96.385734
_cell_angle_gamma	87.321674
loop_
_atom_site_label
_atom_site_type_symbol
_atom_site_fract_x
_atom_site_fract_y
_atom_site_fract_z
O1	O	-1.190854	0.072007	0.112664
O2	O	-0.930455	0.072036	0.126621
O3	O	-1.067634	0.072014	-0.010557
O4	O	-1.053676	0.072028	0.249842
O5	O	-1.059789	-0.072247	-0.002745
O6	O	-0.922611	-0.072225	0.134433
O7	O	-1.183009	-0.072254	0.120476
Cu8	Cu	-1.052094	-0.085412	0.128168
Cu9	Cu	-1.061371	0.085193	0.118929
O10	O	-1.045831	-0.072233	0.257654
C11	C	-0.893209	-0.000091	0.129902
C12	C	-0.793912	-0.000080	0.128031
N13	N	-1.045575	-0.205406	0.134665
C14	C	-0.736687	-0.000076	0.208619
C15	C	-0.643387	-0.000087	0.206857
C16	C	-0.607314	-0.000096	0.124504
C17	C	-0.664547	-0.000103	0.043909
C18	C	-0.757844	-0.000098	0.045673
C19	C	-0.470084	-0.000111	0.040238
C20	C	-0.376780	-0.000114	0.038473
C21	C	-0.355626	-0.000100	0.201422
C22	C	-0.448924	-0.000095	0.203186
C23	C	-0.506150	-0.000100	0.122590
C24	C	-1.103874	-0.250810	0.076409
C25	C	-1.098953	-0.341617	0.081331
C26	C	-1.035736	-0.387019	0.144514
C27	C	-0.977432	-0.341609	0.202773
C28	C	-0.982349	-0.250804	0.197846
C29	C	-1.014510	-0.658597	0.165757
C30	C	-1.009598	-0.749409	0.170681
C31	C	-1.131118	-0.749410	0.049237
C32	C	-1.136034	-0.658603	0.044319
C33	C	-1.077726	-0.613201	0.102575
N34	N	-1.030706	-0.479838	0.149549
N35	N	-1.082753	-0.520383	0.097535
C36	C	-0.220257	-0.000120	0.117194
C37	C	-0.319554	-0.000110	0.119062
C38	C	-1.063087	-0.000116	-0.039976
C39	C	-1.061217	-0.000115	-0.139273
N40	N	-1.067896	0.205188	0.112424
C41	C	-1.141805	-0.000125	-0.196498
C42	C	-1.140043	-0.000116	-0.289798
C43	C	-1.057690	-0.000103	-0.325871
C44	C	-0.977095	-0.000091	-0.268639
C45	C	-0.978859	-0.000094	-0.175341
C46	C	-0.973424	-0.000088	-0.463102
C47	C	-0.971660	-0.000086	-0.556406
C48	C	-1.134608	-0.000109	-0.577558
C49	C	-1.136372	-0.000112	-0.484260
C50	C	-1.055776	-0.000101	-0.427035
C51	C	-1.050378	-0.000101	0.287073
C52	C	-1.052249	-0.000096	0.386370
H53	H	-0.766050	-0.000068	0.275681
H54	H	-0.904601	-0.000090	-0.585772
Cl55	Cl	-1.215507	-0.601526	-0.035111
H56	H	-1.178589	-0.786384	0.001807
Cl57	Cl	-0.897954	-0.398684	0.282201
H58	H	-0.910043	-0.000076	-0.298017
Cl59	Cl	-1.245340	-0.000149	-0.151158
H60	H	-0.635168	-0.000123	-0.023144
H61	H	-1.200232	-0.000115	-0.624156
H62	H	-0.907795	-0.000077	-0.416511
H63	H	-0.804437	-0.000101	-0.019951
Cl64	Cl	-0.930120	-0.806480	0.250121
H65	H	-0.934876	-0.213837	0.245284
H66	H	-1.155355	-0.213849	0.024962
Cl67	Cl	-1.172242	-0.398697	0.008092
Cl68	Cl	-0.941214	-0.601527	0.238994
Cl69	Cl	-0.877543	-0.000078	-0.103401
H70	H	-0.516675	-0.000117	-0.025392
H71	H	-0.596798	-0.000083	0.272480
H72	H	-1.205666	-0.000125	-0.336387
H73	H	-1.203430	-0.000128	-0.454893
H74	H	-0.347412	-0.000123	-0.028585
H75	H	-0.309028	-0.000100	0.267046
Cl76	Cl	-0.494272	-0.000074	0.306716
