data_functionalizedCrystal
_audit_creation_method	'MofGen! by Chris Wilmer'
_symmetry_space_group_name_H-M	'P1'
_symmetry_Int_Tables_number	1
_symmetry_cell_setting	triclinic
loop_
_symmetry_equiv_pos_as_xyz
  x,y,z
_cell_length_a	16.974885
_cell_length_b	14.853567
_cell_length_c	15.455425
_cell_angle_alpha	87.020188
_cell_angle_beta	90.646018
_cell_angle_gamma	83.513424
loop_
_atom_site_label
_atom_site_type_symbol
_atom_site_fract_x
_atom_site_fract_y
_atom_site_fract_z
O1	O	1.049198	0.114801	0.001459
O2	O	1.382531	0.448134	0.334792
O3	O	1.715865	0.781467	0.668125
O4	O	0.819701	0.130225	-0.014637
O5	O	1.153034	0.463558	0.318696
O6	O	1.486367	0.796891	0.652030
O7	O	0.940580	-0.008754	-0.006162
O8	O	1.273913	0.324579	0.327171
O9	O	1.607246	0.657912	0.660505
O10	O	0.928319	0.253780	-0.007016
O11	O	1.261652	0.587113	0.326317
O12	O	1.594986	0.920446	0.659650
O13	O	0.934400	-0.015739	0.137664
O14	O	1.267734	0.317594	0.470998
O15	O	1.601067	0.650927	0.804331
O16	O	0.813521	0.123240	0.129189
O17	O	1.146855	0.456573	0.462523
O18	O	1.480188	0.789906	0.795856
O19	O	1.043019	0.107816	0.145285
O20	O	1.376352	0.441149	0.478618
O21	O	1.709685	0.774482	0.811952
Cu22	Cu	0.927706	0.114890	0.150370
Cu23	Cu	1.261039	0.448223	0.483703
Cu24	Cu	1.594372	0.781557	0.817036
Cu25	Cu	0.935014	0.123150	-0.019722
Cu26	Cu	1.268347	0.456484	0.313612
Cu27	Cu	1.601680	0.789817	0.646945
O28	O	0.922140	0.246795	0.136810
O29	O	1.255473	0.580128	0.470143
O30	O	1.588806	0.913462	0.803476
C31	C	0.787241	0.126276	0.055216
C32	C	1.120574	0.459610	0.388549
C33	C	1.453907	0.792943	0.721883
C34	C	0.699726	0.124908	0.049078
C35	C	1.033060	0.458241	0.382411
C36	C	1.366393	0.791574	0.715745
C37	C	0.207482	0.117583	0.006052
C38	C	0.540816	0.450917	0.339385
C39	C	0.874149	0.784250	0.672719
C40	C	0.289711	0.118869	0.011831
C41	C	0.623044	0.452203	0.345164
C42	C	0.956377	0.785536	0.678498
C43	C	0.327448	0.115711	0.093121
C44	C	0.660781	0.449045	0.426454
C45	C	0.994114	0.782378	0.759788
C46	C	0.282953	0.111258	0.168637
C47	C	0.616286	0.444591	0.501970
C48	C	0.949619	0.777925	0.835304
C49	C	0.200727	0.109966	0.162857
C50	C	0.534060	0.443299	0.496190
C51	C	0.867393	0.776632	0.829524
C52	C	0.573006	0.119162	0.118814
C53	C	0.906339	0.452495	0.452147
C54	C	1.239672	0.785829	0.785481
C55	C	0.655237	0.120457	0.124588
C56	C	0.988571	0.453791	0.457922
C57	C	1.321904	0.787124	0.791255
C58	C	0.661990	0.128067	-0.032218
C59	C	0.995323	0.461400	0.301115
C60	C	1.328656	0.794733	0.634448
C61	C	0.579761	0.126780	-0.037991
C62	C	0.913094	0.460113	0.295342
C63	C	1.246428	0.793446	0.628676
C64	C	0.535274	0.122322	0.037525
C65	C	0.868607	0.455655	0.370858
C66	C	1.201941	0.788988	0.704192
N67	N	0.411498	0.117028	0.099030
N68	N	0.744831	0.450362	0.432363
N69	N	1.078164	0.783695	0.765697
N70	N	0.451226	0.120998	0.031615
N71	N	0.784559	0.454332	0.364948
N72	N	1.117893	0.787665	0.698282
C73	C	0.936935	-0.045832	0.065710
C74	C	1.270268	0.287501	0.399043
C75	C	1.603601	0.620835	0.732376
C76	C	0.935270	-0.145905	0.065586
C77	C	1.268603	0.187428	0.398919
C78	C	1.601937	0.520761	0.732252
C79	C	0.856428	-0.557958	0.060072
C80	C	1.189761	-0.224625	0.393406
C81	C	1.523094	0.108709	0.726739
C82	C	1.000034	-0.580117	0.070144
C83	C	1.333368	-0.246783	0.403478
C84	C	1.666701	0.086550	0.736811
C85	C	1.001600	-0.486092	0.070249
C86	C	1.334933	-0.152759	0.403582
C87	C	1.668267	0.180574	0.736916
C88	C	0.930578	-0.427996	0.065267
C89	C	1.263911	-0.094663	0.398600
C90	C	1.597245	0.238670	0.731933
C91	C	0.857991	-0.463925	0.060180
C92	C	1.191324	-0.130591	0.393513
C93	C	1.524658	0.202742	0.726846
C94	C	1.074186	-0.450157	0.075345
C95	C	1.407519	-0.116824	0.408678
C96	C	1.740852	0.216510	0.742011
C97	C	1.075754	-0.356127	0.075450
C98	C	1.409087	-0.022794	0.408784
C99	C	1.742421	0.310539	0.742117
C100	C	1.004732	-0.298029	0.070462
C101	C	1.338065	0.035304	0.403795
C102	C	1.671398	0.368637	0.737129
C103	C	0.932141	-0.333963	0.065374
C104	C	1.265475	-0.000630	0.398707
C105	C	1.598808	0.332704	0.732040
C106	C	0.861120	-0.275867	0.060391
C107	C	1.194453	0.057466	0.393725
C108	C	1.527786	0.390800	0.727058
C109	C	0.788529	-0.311798	0.055297
C110	C	1.121862	0.021535	0.388630
C111	C	1.455195	0.354868	0.721964
C112	C	0.786968	-0.405827	0.055191
C113	C	1.120302	-0.072493	0.388524
C114	C	1.453635	0.260840	0.721858
C115	C	1.006292	-0.204001	0.070568
C116	C	1.339625	0.129332	0.403901
C117	C	1.672959	0.462665	0.737234
C118	C	0.862683	-0.181834	0.060499
C119	C	1.196016	0.151500	0.393832
C120	C	1.529349	0.484833	0.727165
C121	C	1.075479	0.111764	0.075430
C122	C	1.408812	0.445097	0.408763
C123	C	1.742145	0.778431	0.742097
C124	C	1.162993	0.113133	0.081562
C125	C	1.496326	0.446467	0.414896
C126	C	1.829660	0.779800	0.748229
C127	C	0.925785	0.283873	0.064936
C128	C	1.259118	0.617206	0.398270
C129	C	1.592451	0.950539	0.731603
C130	C	0.927449	0.383946	0.065055
C131	C	1.260783	0.717279	0.398388
C132	C	1.594116	1.050613	0.731721
N133	N	0.922571	0.109079	0.270003
N134	N	1.255905	0.442413	0.603336
N135	N	1.589238	0.775746	0.936670
N136	N	0.940154	0.128954	-0.139355
N137	N	1.273487	0.462287	0.193979
N138	N	1.606821	0.795621	0.527312
C139	C	0.894228	0.076682	0.812012
C140	C	1.227561	0.410015	1.145345
C141	C	1.560895	0.743348	1.478678
C142	C	0.898106	0.081111	0.721477
C143	C	1.231439	0.414444	1.054811
C144	C	1.564773	0.747777	1.388144
C145	C	0.947906	0.137818	0.679578
C146	C	1.281239	0.471151	1.012911
C147	C	1.614573	0.804484	1.346245
C148	C	0.993837	0.190092	0.728219
C149	C	1.327170	0.523425	1.061552
C150	C	1.660504	0.856759	1.394885
C151	C	0.989963	0.185657	0.818752
C152	C	1.323296	0.518991	1.152085
C153	C	1.656630	0.852324	1.485418
C154	C	0.964629	0.156919	0.409176
C155	C	1.297962	0.490252	0.742510
C156	C	1.631295	0.823586	1.075843
C157	C	0.968497	0.161352	0.318637
C158	C	1.301831	0.494685	0.651970
C159	C	1.635164	0.828018	0.985303
C160	C	0.872767	0.052369	0.311902
C161	C	1.206100	0.385702	0.645235
C162	C	1.539433	0.719035	0.978568
C163	C	0.868894	0.047943	0.402436
C164	C	1.202227	0.381277	0.735770
C165	C	1.535560	0.714610	1.069103
C166	C	0.914828	0.100214	0.451069
C167	C	1.248161	0.433547	0.784403
C168	C	1.581495	0.766881	1.117736
N169	N	0.951869	0.142348	0.587037
N170	N	1.285202	0.475682	0.920371
N171	N	1.618536	0.809015	1.253704
N172	N	0.910869	0.095678	0.543609
N173	N	1.244202	0.429011	0.876942
N174	N	1.577535	0.762344	1.210275
H175	H	0.698220	0.131695	-0.093699
H176	H	1.031553	0.465028	0.239634
H177	H	1.364887	0.798362	0.572968
Cl178	Cl	0.702677	0.116486	0.226789
Cl179	Cl	1.036010	0.449819	0.560122
Cl180	Cl	1.369344	0.783152	0.893456
H181	H	1.027361	0.228223	0.858348
H182	H	1.360695	0.561556	1.191682
H183	H	1.694028	0.894889	1.525015
H184	H	1.057857	-0.627424	0.074207
H185	H	1.391190	-0.294090	0.407541
H186	H	1.724523	0.039243	0.740874
Cl187	Cl	1.167009	-0.310964	0.081840
Cl188	Cl	1.500343	0.022369	0.415173
Cl189	Cl	1.833676	0.355703	0.748507
Cl190	Cl	0.517087	0.113582	0.213749
Cl191	Cl	0.850420	0.446916	0.547082
Cl192	Cl	1.183753	0.780249	0.880416
H193	H	0.176762	0.120162	-0.060143
H194	H	0.510096	0.453495	0.273190
H195	H	0.843429	0.786828	0.606524
Cl196	Cl	0.815028	-0.013342	0.250759
Cl197	Cl	1.148361	0.319991	0.584092
Cl198	Cl	1.481694	0.653325	0.917426
Cl199	Cl	0.765176	-0.603126	0.053660
Cl200	Cl	1.098509	-0.269793	0.386993
Cl201	Cl	1.431842	0.063541	0.720327
H202	H	1.132007	-0.497465	0.079409
H203	H	1.465341	-0.164132	0.412742
H204	H	1.798674	0.169201	0.746076
H205	H	0.804847	-0.134537	0.056438
H206	H	1.138181	0.198797	0.389771
H207	H	1.471514	0.532130	0.723104
Cl208	Cl	0.699248	-0.238753	0.049041
Cl209	Cl	1.032581	0.094580	0.382375
Cl210	Cl	1.365915	0.427913	0.715708
H211	H	1.034389	0.236260	0.694097
H212	H	1.367723	0.569593	1.027431
H213	H	1.701056	0.902926	1.360764
Cl214	Cl	0.330394	0.107286	0.270831
Cl215	Cl	0.663727	0.440620	0.604164
Cl216	Cl	0.997060	0.773953	0.937498
Cl217	Cl	1.031130	0.232620	0.265966
Cl218	Cl	1.364464	0.565953	0.599299
Cl219	Cl	1.697797	0.899287	0.932633
H220	H	0.325931	0.122487	-0.049657
H221	H	0.659264	0.455821	0.283676
H222	H	0.992598	0.789154	0.617009
Cl223	Cl	0.695720	-0.451004	0.048785
Cl224	Cl	1.029054	-0.117671	0.382118
Cl225	Cl	1.362387	0.215663	0.715452
H226	H	1.065394	-0.174750	0.074721
H227	H	1.398727	0.158583	0.408055
H228	H	1.732061	0.491917	0.741388
H229	H	0.853671	0.030510	0.846119
H230	H	1.187005	0.363843	1.179452
H231	H	1.520338	0.697176	1.512786
H232	H	0.860710	0.038542	0.681884
H233	H	1.194044	0.371876	1.015217
H234	H	1.527377	0.705209	1.348550
H235	H	1.002031	0.199482	0.448762
H236	H	1.335364	0.532816	0.782096
H237	H	1.668698	0.866149	1.115429
Cl238	Cl	0.806281	-0.023344	0.455103
Cl239	Cl	1.139614	0.309990	0.788436
Cl240	Cl	1.472948	0.643323	1.121769
Cl241	Cl	0.532326	0.130751	-0.140188
Cl242	Cl	0.865660	0.464084	0.193145
Cl243	Cl	1.198993	0.797418	0.526478
Cl244	Cl	0.144798	0.104363	0.257789
Cl245	Cl	0.478131	0.437696	0.591122
Cl246	Cl	0.811465	0.771029	0.924455
