data_functionalizedCrystal
_audit_creation_method	'MofGen! by Chris Wilmer'
_symmetry_space_group_name_H-M	'P1'
_symmetry_Int_Tables_number	1
_symmetry_cell_setting	triclinic
loop_
_symmetry_equiv_pos_as_xyz
  x,y,z
_cell_length_a	12.594517
_cell_length_b	12.594516
_cell_length_c	12.594509
_cell_angle_alpha	89.973801
_cell_angle_beta	89.978673
_cell_angle_gamma	90.015853
loop_
_atom_site_label
_atom_site_type_symbol
_atom_site_fract_x
_atom_site_fract_y
_atom_site_fract_z
Zn1	Zn	1.627267	-0.423716	-0.601875
Zn2	Zn	2.127267	0.076284	-0.101875
Zn3	Zn	1.627158	-0.601726	-0.423903
Zn4	Zn	2.127158	-0.101726	0.076097
Zn5	Zn	1.449271	-0.423761	-0.423904
Zn6	Zn	1.949271	0.076239	0.076096
Zn7	Zn	1.449253	-0.601652	-0.601833
Zn8	Zn	1.949253	-0.101652	-0.101833
O9	O	1.538237	-0.512714	-0.512879
O10	O	2.038237	-0.012714	-0.012879
O11	O	1.776198	-0.447341	-0.578284
O12	O	2.276198	0.052659	-0.078284
O13	O	1.603522	-0.578169	-0.274957
O14	O	2.103522	-0.078169	0.225043
O15	O	1.472936	-0.274809	-0.447530
O16	O	1.972936	0.225191	0.052470
O17	O	1.776118	-0.578124	-0.447528
O18	O	2.276118	-0.078124	0.052472
O19	O	1.603709	-0.274776	-0.578285
O20	O	2.103709	0.225224	-0.078285
O21	O	1.472830	-0.447419	-0.274958
O22	O	1.972830	0.052581	0.225042
O23	O	1.300323	-0.447347	-0.447489
O24	O	1.800323	0.052653	0.052511
O25	O	1.472905	-0.577998	-0.750784
O26	O	1.972905	-0.077998	-0.250784
O27	O	1.300310	-0.578042	-0.578213
O28	O	1.800310	-0.078042	-0.078213
O29	O	1.603691	-0.447269	-0.750815
O30	O	2.103691	0.052731	-0.250815
O31	O	1.603505	-0.750662	-0.447488
O32	O	2.103505	-0.250662	0.052512
O33	O	1.472799	-0.750608	-0.578212
O34	O	1.972799	-0.250608	-0.078212
C35	C	1.261696	-0.512692	-0.512847
C36	C	1.761696	-0.012692	-0.012847
C37	C	1.143391	-0.512709	-0.512859
C38	C	1.643391	-0.012709	-0.012859
C39	C	1.074114	-0.441526	-0.441894
C40	C	1.574114	0.058474	0.058106
C41	C	1.003303	-0.538615	-0.415718
C42	C	1.503303	-0.038615	0.084282
C43	C	1.003403	-0.415668	-0.539054
C44	C	1.503403	0.084332	-0.039054
C45	C	1.074138	-0.609849	-0.486632
C46	C	1.574138	-0.109849	0.013368
C47	C	1.074244	-0.486836	-0.610013
C48	C	1.574244	0.013164	-0.110013
C49	C	1.003465	-0.583991	-0.583874
C50	C	1.503465	-0.083991	-0.083874
C51	C	1.538167	-0.789255	-0.512868
C52	C	2.038167	-0.289255	-0.012868
C53	C	1.538235	-0.907560	-0.512899
C54	C	2.038235	-0.407560	-0.012899
C55	C	1.467137	-0.976822	-0.583950
C56	C	1.967137	-0.476822	-0.083950
C57	C	1.441204	-1.047688	-0.486827
C58	C	1.941204	-0.547688	0.013173
C59	C	1.564265	-1.047494	-0.610039
C60	C	2.064265	-0.547494	-0.110039
C61	C	1.512250	-0.976867	-0.415725
C62	C	2.012250	-0.476867	0.084275
C63	C	1.635357	-0.976667	-0.539002
C64	C	2.135357	-0.476667	-0.039002
C65	C	1.609460	-1.047500	-0.441812
C66	C	2.109460	-0.547500	0.058188
C67	C	1.815858	-0.512736	-0.512911
C68	C	2.315858	-0.012736	-0.012911
C69	C	1.934163	-0.512745	-0.512924
C70	C	2.434163	-0.012745	-0.012924
C71	C	1.538308	-0.512620	-0.790500
C72	C	2.038308	-0.012620	-0.290500
C73	C	1.538339	-0.512581	-0.908805
C74	C	2.038339	-0.012581	-0.408805
C75	C	1.538336	-0.235093	-0.512912
C76	C	2.038336	0.264907	-0.012912
C77	C	1.538378	-0.116787	-0.512927
C78	C	2.038378	0.383213	-0.012927
C79	C	1.467227	-0.583644	-0.978042
C80	C	1.967227	-0.083644	-0.478042
C81	C	1.564347	-0.609650	-1.048833
C82	C	2.064347	-0.109650	-0.548833
C83	C	1.441294	-0.486510	-1.048813
C84	C	1.941294	0.013490	-0.548813
C85	C	1.635510	-0.538638	-0.978038
C86	C	2.135510	-0.038638	-0.478038
C87	C	1.512391	-0.415453	-0.978012
C88	C	2.012391	0.084547	-0.478012
C89	C	1.609579	-0.441422	-1.048772
C90	C	2.109579	0.058578	-0.548772
C91	C	1.538227	-0.512730	-0.236338
C92	C	2.038227	-0.012730	0.263662
C93	C	1.538403	-0.512470	-0.118033
C94	C	2.038403	-0.012470	0.381967
H95	H	1.105135	-0.381389	-0.381807
H96	H	1.605135	0.118611	0.118193
H97	H	1.407136	-0.643833	-0.946986
H98	H	1.907136	-0.143833	-0.446986
H99	H	1.717631	-0.560736	-0.947080
H100	H	2.217631	-0.060736	-0.447080
H101	H	0.972276	-0.333597	-0.561146
H102	H	1.472276	0.166403	-0.061146
H103	H	1.359136	-1.078906	-0.464772
H104	H	1.859136	-0.578906	0.035228
H105	H	1.717406	-0.945451	-0.561104
H106	H	2.217406	-0.445451	-0.061104
H107	H	0.972639	-0.644273	-0.643914
H108	H	1.472639	-0.144273	-0.143914
H109	H	1.105429	-0.464899	-0.692122
H110	H	1.605429	0.035101	-0.192122
H111	H	0.972144	-0.560522	-0.333584
H112	H	1.472144	-0.060522	0.166416
H113	H	1.490197	-0.945972	-0.333563
H114	H	1.990197	-0.445972	0.166437
H115	H	1.586329	-0.691742	-1.079941
H116	H	2.086329	-0.191742	-0.579941
H117	H	1.669647	-1.078338	-0.381669
H118	H	2.169647	-0.578338	0.118331
H119	H	1.669813	-0.381279	-1.079632
H120	H	2.169813	0.118721	-0.579632
H121	H	1.586224	-1.078518	-0.692178
H122	H	2.086224	-0.578518	-0.192178
H123	H	1.490382	-0.333385	-0.946881
H124	H	1.990382	0.166615	-0.446881
H125	H	1.359198	-0.464506	-1.079902
H126	H	1.859198	0.035494	-0.579902
H127	H	1.105080	-0.691955	-0.464413
H128	H	1.605080	-0.191955	0.035587
H129	H	1.406905	-0.945788	-0.643949
H130	H	1.906905	-0.445788	-0.143949
