data_functionalizedCrystal
_audit_creation_method	'MofGen! by Chris Wilmer'
_symmetry_space_group_name_H-M	'P1'
_symmetry_Int_Tables_number	1
_symmetry_cell_setting	triclinic
loop_
_symmetry_equiv_pos_as_xyz
  x,y,z
_cell_length_a	25.639242
_cell_length_b	25.639240
_cell_length_c	14.908308
_cell_angle_alpha	86.744551
_cell_angle_beta	86.722498
_cell_angle_gamma	90.025061
loop_
_atom_site_label
_atom_site_type_symbol
_atom_site_fract_x
_atom_site_fract_y
_atom_site_fract_z
Zn1	Zn	0.782209	-0.225305	0.510043
Zn2	Zn	0.787182	-0.307700	0.359162
Zn3	Zn	0.699824	-0.220270	0.359201
Zn4	Zn	0.694743	-0.312697	0.509966
O5	O	0.740990	-0.266493	0.434593
O6	O	0.856034	-0.236250	0.490044
O7	O	0.779802	-0.291903	0.232927
O8	O	0.710799	-0.147774	0.379259
O9	O	0.859687	-0.296786	0.379192
O10	O	0.771327	-0.151473	0.490082
O11	O	0.715620	-0.227669	0.232956
O12	O	0.625986	-0.232514	0.379184
O13	O	0.702137	-0.305302	0.636216
O14	O	0.622252	-0.300420	0.489950
O15	O	0.766399	-0.241096	0.636273
O16	O	0.774874	-0.381526	0.379118
O17	O	0.706959	-0.385197	0.489913
C18	C	0.605148	-0.266463	0.434564
C19	C	0.547034	-0.266464	0.434573
C20	C	0.293942	-0.235035	0.492419
C21	C	0.348546	-0.235029	0.492413
O22	O	0.375169	-0.208284	0.541590
N23	N	0.377759	-0.266487	0.434603
C24	C	0.352364	-0.297956	0.376801
O25	O	0.382225	-0.324712	0.327629
C26	C	0.297760	-0.297963	0.376811
C27	C	0.268551	-0.266500	0.434619
C28	C	0.264732	-0.203574	0.550222
C29	C	0.210132	-0.203579	0.550226
C30	C	0.184740	-0.235044	0.492426
C31	C	0.213950	-0.266505	0.434622
C32	C	0.272366	-0.329434	0.319014
C33	C	0.217758	-0.329440	0.319030
C34	C	0.188549	-0.297976	0.376837
C35	C	0.133958	-0.297974	0.376826
N36	N	0.104746	-0.266517	0.434636
C37	C	0.130137	-0.235052	0.492436
C38	C	0.467035	-0.297938	0.376784
C39	C	0.521638	-0.297927	0.376769
C40	C	0.517817	-0.235002	0.492383
C41	C	0.463213	-0.235010	0.492393
C42	C	0.437823	-0.266480	0.434595
C43	C	0.015472	-0.235064	0.492439
C44	C	-0.039134	-0.235070	0.492435
C45	C	-0.035308	-0.297997	0.376825
C46	C	0.019293	-0.297989	0.376825
C47	C	0.044681	-0.266521	0.434640
O48	O	0.107300	-0.324708	0.327678
O49	O	0.100269	-0.208305	0.541608
C50	C	0.740918	-0.402333	0.434522
C51	C	0.740934	-0.460447	0.434522
C52	C	0.772520	-0.822703	0.492402
C53	C	0.772534	-0.877308	0.492421
O54	O	0.799304	-0.907153	0.541560
N55	N	0.741059	-0.902735	0.434680
C56	C	0.709563	-0.873553	0.376924
O57	O	0.682792	-0.900194	0.327813
C58	C	0.709546	-0.818949	0.376910
C59	C	0.741027	-0.793526	0.434649
C60	C	0.803998	-0.797280	0.550137
C61	C	0.803984	-0.742679	0.550117
C62	C	0.772491	-0.713501	0.492363
C63	C	0.741013	-0.738925	0.434629
C64	C	0.678047	-0.789769	0.319159
C65	C	0.678033	-0.735162	0.319152
C66	C	0.709514	-0.709738	0.376890
C67	C	0.709506	-0.655146	0.376855
N68	N	0.740982	-0.629720	0.434596
C69	C	0.772474	-0.658897	0.492350
C70	C	0.709601	-0.988225	0.376957
C71	C	0.709621	-1.042827	0.376964
C72	C	0.772591	-1.046579	0.492463
C73	C	0.772574	-0.991975	0.492450
C74	C	0.741076	-0.962799	0.434697
C75	C	0.772442	-0.544231	0.492303
C76	C	0.772427	-0.489624	0.492276
C77	C	0.709454	-0.485878	0.376781
C78	C	0.709471	-0.540479	0.376805
C79	C	0.740967	-0.569654	0.434573
O80	O	0.682749	-0.625268	0.327744
O81	O	0.799235	-0.632250	0.541461
C82	C	0.877362	-0.266522	0.434623
C83	C	0.935475	-0.266535	0.434635
C84	C	0.733147	-0.274318	0.669892
C85	C	0.729805	-0.277653	0.770162
C86	C	0.741075	-0.130123	0.434683
C87	C	0.741111	-0.072010	0.434722
C88	C	0.748832	-0.258660	0.200209
C89	C	0.752275	-0.255178	0.099939
C90	C	0.790438	-0.217049	0.958642
C91	C	0.787300	-0.220181	1.052855
C92	C	0.720386	-0.287045	1.052803
C93	C	0.723525	-0.283913	0.958590
C94	C	0.758553	-0.248915	0.911513
C95	C	0.761694	-0.245786	0.817298
C96	C	0.694778	-0.312647	0.817248
C97	C	0.691639	-0.315779	0.911461
H98	H	-0.062914	-0.209446	0.539509
H99	H	0.043077	-0.323605	0.329745
H100	H	0.446366	-0.323563	0.329710
H101	H	0.652382	-0.711409	0.272123
H102	H	0.683815	-0.462113	0.329756
O103	O	0.663776	-0.343654	0.771606
C104	C	0.597047	-0.410275	0.781500
C105	C	0.632133	-0.375201	0.833302
H106	H	0.571447	-0.435782	0.831359
H107	H	0.622476	-0.436189	0.737403
H108	H	0.571217	-0.384789	0.737379
H109	H	0.657969	-0.400647	0.877472
H110	H	0.606674	-0.349284	0.877342
H111	H	0.036136	-0.209439	0.539517
H112	H	0.186354	-0.177961	0.597303
O113	O	0.289310	-0.172957	0.606401
C114	C	0.279738	-0.110561	0.721099
C115	C	0.251843	-0.145208	0.657510
H116	H	0.249458	-0.088125	0.762451
H117	H	0.306664	-0.081771	0.679813
H118	H	0.303748	-0.136170	0.768155
H119	H	0.227805	-0.119640	0.610442
H120	H	0.224948	-0.174002	0.698852
H121	H	0.296139	-0.355055	0.271941
H122	H	0.683991	-1.063522	0.329939
O123	O	0.803151	-1.074874	0.548698
C124	C	0.823320	-1.096651	0.702199
C125	C	0.788685	-1.064568	0.638621
H126	H	0.811629	-1.088339	0.774915
H127	H	0.866016	-1.085361	0.686502
H128	H	0.817930	-1.140040	0.692241
H129	H	0.794029	-1.021171	0.648543
H130	H	0.746001	-1.075902	0.654333
H131	H	-0.055991	-0.323613	0.329762
O132	O	0.434919	-0.204436	0.548638
C133	C	0.436908	-0.141999	0.663271
C134	C	0.469010	-0.176607	0.599630
H135	H	0.464458	-0.119482	0.704501
H136	H	0.409788	-0.167592	0.710431
H137	H	0.412708	-0.113273	0.621942
H138	H	0.493241	-0.205339	0.640886
H139	H	0.496097	-0.150982	0.552468
H140	H	0.538500	-0.209381	0.539447
H141	H	0.545416	-0.323542	0.329686
O142	O	0.803021	-0.465013	0.548454
C143	C	0.865503	-0.474505	0.662977
C144	C	0.830874	-0.502442	0.599418
H145	H	0.888039	-0.504754	0.704185
H146	H	0.839922	-0.450526	0.710161
H147	H	0.894213	-0.447545	0.621584
H148	H	0.802159	-0.529428	0.640739
H149	H	0.856487	-0.526388	0.552232
H150	H	0.197089	-0.355069	0.271964
H151	H	0.683954	-0.964471	0.329920
O152	O	0.802959	-0.572595	0.548511
C153	C	0.805903	-0.638267	0.670310
C154	C	0.771279	-0.606170	0.606733
H155	H	0.780305	-0.665427	0.717386
H156	H	0.828386	-0.610737	0.711634
H157	H	0.834659	-0.662425	0.628927
H158	H	0.742494	-0.582008	0.648046
H159	H	0.748833	-0.633727	0.565407
H160	H	0.829617	-0.721982	0.597135
H161	H	0.829643	-0.821031	0.597172
O162	O	0.803077	-0.967225	0.548586
C163	C	0.805971	-0.909618	0.670427
C164	C	0.771367	-0.937603	0.606891
H165	H	0.780347	-0.885671	0.717595
H166	H	0.834691	-0.882634	0.629103
H167	H	0.828495	-0.939864	0.711661
H168	H	0.748810	-0.907394	0.565643
H169	H	0.742679	-0.964597	0.648267
H170	H	0.652412	-0.810459	0.272142
H171	H	0.818962	-0.188555	0.920311
O172	O	0.678846	-0.565097	0.320686
C173	C	0.616407	-0.555605	0.206093
C174	C	0.651061	-0.527665	0.269608
H175	H	0.593942	-0.525353	0.164766
H176	H	0.587641	-0.582531	0.247435
H177	H	0.642015	-0.579620	0.159010
H178	H	0.625495	-0.503622	0.316703
H179	H	0.679831	-0.500770	0.228209
O180	O	0.795772	-0.211862	0.771523
C181	C	0.869887	-0.201291	0.665125
C182	C	0.831338	-0.239772	0.716923
H183	H	0.898645	-0.223840	0.620954
H184	H	0.892175	-0.179059	0.714955
H185	H	0.847351	-0.172477	0.621072
H186	H	0.853833	-0.268618	0.760977
H187	H	0.809049	-0.261966	0.667044
O188	O	0.818328	-0.189206	1.098498
C189	C	0.885006	-0.122533	1.088603
C190	C	0.849904	-0.157592	1.036802
H191	H	0.910536	-0.096956	1.038744
H192	H	0.910898	-0.147981	1.132676
H193	H	0.859538	-0.096681	1.132749
H194	H	0.875331	-0.183450	0.992607
H195	H	0.824009	-0.132113	0.992785
O196	O	0.686400	-0.321019	1.098682
C197	C	0.651872	-0.355429	1.243805
C198	C	0.690397	-0.316944	1.191961
H199	H	0.655082	-0.352140	1.319230
H200	H	0.661635	-0.396992	1.225341
H201	H	0.610346	-0.345621	1.225216
H202	H	0.731935	-0.326704	1.210522
H203	H	0.680589	-0.275392	1.210429
H204	H	0.663120	-0.344272	0.949804
