data_functionalizedCrystal
_audit_creation_method	'MofGen! by Chris Wilmer'
_symmetry_space_group_name_H-M	'P1'
_symmetry_Int_Tables_number	1
_symmetry_cell_setting	triclinic
loop_
_symmetry_equiv_pos_as_xyz
  x,y,z
_cell_length_a	18.101398
_cell_length_b	18.101395
_cell_length_c	18.101389
_cell_angle_alpha	90.016841
_cell_angle_beta	90.024802
_cell_angle_gamma	90.028835
loop_
_atom_site_label
_atom_site_type_symbol
_atom_site_fract_x
_atom_site_fract_y
_atom_site_fract_z
Zn1	Zn	1.132121	-0.294952	0.418856
Zn2	Zn	1.465454	0.038381	0.752190
Zn3	Zn	1.798788	0.371715	1.085523
Zn4	Zn	1.132017	-0.418778	0.295018
Zn5	Zn	1.465350	-0.085444	0.628351
Zn6	Zn	1.798684	0.247889	0.961685
Zn7	Zn	1.008280	-0.294950	0.295016
Zn8	Zn	1.341613	0.038384	0.628350
Zn9	Zn	1.674947	0.371717	0.961683
Zn10	Zn	1.008231	-0.418751	0.418806
Zn11	Zn	1.341564	-0.085418	0.752139
Zn12	Zn	1.674897	0.247915	1.085472
O13	O	1.070162	-0.356858	0.356924
O14	O	1.403495	-0.023524	0.690257
O15	O	1.736829	0.309809	1.023591
O16	O	1.235740	-0.311390	0.402451
O17	O	1.569073	0.021943	0.735784
O18	O	1.902407	0.355277	1.069117
O19	O	1.115580	-0.402362	0.191385
O20	O	1.448913	-0.069028	0.524718
O21	O	1.782247	0.264305	0.858052
O22	O	1.024772	-0.191317	0.311464
O23	O	1.358105	0.142016	0.644798
O24	O	1.691439	0.475350	0.978131
O25	O	1.235664	-0.402364	0.311467
O26	O	1.568997	-0.069031	0.644801
O27	O	1.902330	0.264303	0.978134
O28	O	1.115757	-0.191319	0.402449
O29	O	1.449091	0.142014	0.735782
O30	O	1.782424	0.475348	1.069116
O31	O	1.024671	-0.311386	0.191384
O32	O	1.358004	0.021948	0.524717
O33	O	1.691338	0.355281	0.858050
O34	O	0.904641	-0.311360	0.311415
O35	O	1.237974	0.021973	0.644749
O36	O	1.571307	0.355306	0.978082
O37	O	1.024688	-0.402319	0.522445
O38	O	1.358021	-0.068986	0.855779
O39	O	1.691355	0.264348	1.189112
O40	O	0.904604	-0.402317	0.402363
O41	O	1.237938	-0.068983	0.735696
O42	O	1.571271	0.264350	1.069030
O43	O	1.115710	-0.311364	0.522482
O44	O	1.449043	0.021969	0.855816
O45	O	1.782376	0.355302	1.189149
O46	O	1.115532	-0.522407	0.311418
O47	O	1.448866	-0.189074	0.644752
O48	O	1.782199	0.144259	0.978085
O49	O	1.024587	-0.522388	0.402365
O50	O	1.357920	-0.189054	0.735698
O51	O	1.691254	0.144279	1.069031
C52	C	0.877752	-0.356836	0.356884
C53	C	1.211085	-0.023503	0.690217
C54	C	1.544418	0.309831	1.023551
C55	C	0.795437	-0.356844	0.356884
C56	C	1.128771	-0.023511	0.690218
C57	C	1.462104	0.309822	1.023551
C58	C	0.644729	-0.356860	0.356918
C59	C	0.978062	-0.023526	0.690251
C60	C	1.311396	0.309807	1.023584
C61	C	0.613373	-0.299550	0.299791
C62	C	0.946707	0.033783	0.633124
C63	C	1.280040	0.367117	0.966458
C64	C	0.527755	-0.299335	0.299979
C65	C	0.861089	0.033999	0.633312
C66	C	1.194422	0.367332	0.966645
C67	C	0.496347	-0.356875	0.356949
C68	C	0.829680	-0.023541	0.690282
C69	C	1.163013	0.309792	1.023616
C70	C	0.527486	-0.336055	0.435084
C71	C	0.860820	-0.002722	0.768417
C72	C	1.194153	0.330611	1.101750
C73	C	0.613131	-0.335631	0.434735
C74	C	0.946465	-0.002298	0.768068
C75	C	1.279798	0.331036	1.101402
C76	C	0.613125	-0.435137	0.336598
C77	C	0.946459	-0.101803	0.669932
C78	C	1.279792	0.231530	1.003265
C79	C	0.527474	-0.434724	0.334895
C80	C	0.860807	-0.101390	0.668229
C81	C	1.194141	0.231943	1.001562
C82	C	0.412487	-0.356884	0.356972
C83	C	0.745820	-0.023551	0.690305
C84	C	1.079154	0.309782	1.023638
C85	C	0.728589	-0.356848	0.356900
C86	C	1.061922	-0.023515	0.690233
C87	C	1.395255	0.309819	1.023567
C88	C	1.070063	-0.549268	0.356902
C89	C	1.403396	-0.215935	0.690236
C90	C	1.736730	0.117398	1.023569
C91	C	1.070088	-0.631582	0.356918
C92	C	1.403422	-0.298249	0.690251
C93	C	1.736755	0.035084	1.023584
C94	C	1.070251	-0.930673	0.356958
C95	C	1.403584	-0.597340	0.690291
C96	C	1.736918	-0.264007	1.023624
C97	C	1.013163	-0.899367	0.414321
C98	C	1.346497	-0.566033	0.747654
C99	C	1.679830	-0.232700	1.080987
C100	C	1.012892	-0.813749	0.414141
C101	C	1.346225	-0.480415	0.747474
C102	C	1.679559	-0.147082	1.080808
C103	C	1.070170	-0.782291	0.356938
C104	C	1.403504	-0.448957	0.690272
C105	C	1.736837	-0.115624	1.023605
C106	C	1.049041	-0.813427	0.278887
C107	C	1.382374	-0.480094	0.612220
C108	C	1.715708	-0.146760	0.945554
C109	C	1.048673	-0.899072	0.279230
C110	C	1.382006	-0.565739	0.612563
C111	C	1.715340	-0.232406	0.945897
C112	C	1.148593	-0.899024	0.376959
C113	C	1.481926	-0.565690	0.710293
C114	C	1.815259	-0.232357	1.043626
C115	C	1.148132	-0.813373	0.378671
C116	C	1.481465	-0.480040	0.712004
C117	C	1.814799	-0.146706	1.045338
C118	C	1.070126	-0.698431	0.356923
C119	C	1.403459	-0.365098	0.690256
C120	C	1.736793	-0.031765	1.023590
C121	C	1.070293	-1.014533	0.356968
C122	C	1.403627	-0.681199	0.690301
C123	C	1.736960	-0.347866	1.023635
C124	C	1.263324	-0.356880	0.356965
C125	C	1.596657	-0.023547	0.690298
C126	C	1.929991	0.309787	1.023632
C127	C	1.345638	-0.356890	0.356982
C128	C	1.678971	-0.023556	0.690316
C129	C	2.012305	0.309777	1.023649
C130	C	1.070205	-0.356839	0.550086
C131	C	1.403538	-0.023506	0.883419
C132	C	1.736872	0.309828	1.216753
C133	C	1.070223	-0.356831	0.632400
C134	C	1.403557	-0.023498	0.965734
C135	C	1.736890	0.309836	1.299067
C136	C	1.070282	-0.163696	0.356962
C137	C	1.403615	0.169638	0.690296
C138	C	1.736948	0.502971	1.023629
C139	C	1.070333	-0.081382	0.356978
C140	C	1.403666	0.251952	0.690312
C141	C	1.736999	0.585285	1.023645
C142	C	1.070162	-0.356823	0.164514
C143	C	1.403495	-0.023490	0.497847
C144	C	1.736829	0.309844	0.831180
C145	C	1.070287	-0.356622	0.082200
C146	C	1.403621	-0.023289	0.415533
C147	C	1.736954	0.310044	0.748867
C148	C	1.070266	-0.356692	0.931491
C149	C	1.403600	-0.023359	1.264825
C150	C	1.736933	0.309974	1.598158
C151	C	1.012801	-0.413737	0.900143
C152	C	1.346134	-0.080403	1.233476
C153	C	1.679467	0.252930	1.566809
C154	C	1.012956	-0.414001	0.814524
C155	C	1.346289	-0.080668	1.147858
C156	C	1.679623	0.252666	1.481191
C157	C	1.070244	-0.356761	0.783109
C158	C	1.403578	-0.023428	1.116442
C159	C	1.736911	0.309906	1.449775
C160	C	1.148270	-0.377948	0.814216
C161	C	1.481603	-0.044615	1.147549
C162	C	1.814936	0.288718	1.480882
C163	C	1.147949	-0.378323	0.899861
C164	C	1.481283	-0.044989	1.233194
C165	C	1.814616	0.288344	1.566527
C166	C	1.050385	-0.278334	0.899913
C167	C	1.383718	0.054999	1.233247
C168	C	1.717052	0.388333	1.566580
C169	C	1.048649	-0.278787	0.814262
C170	C	1.381982	0.054547	1.147596
C171	C	1.715315	0.387880	1.480929
C172	C	1.070237	-0.356799	0.699249
C173	C	1.403570	-0.023465	1.032583
C174	C	1.736903	0.309868	1.365916
C175	C	1.070279	-0.356656	1.015351
C176	C	1.403613	-0.023323	1.348684
C177	C	1.736946	0.310010	1.682018
H178	H	0.507118	-0.450428	0.277392
H179	H	0.840451	-0.117095	0.610725
H180	H	1.173785	0.216238	0.944058
Cl181	Cl	1.217278	-0.780301	0.318873
Cl182	Cl	1.550612	-0.446968	0.652206
Cl183	Cl	1.883945	-0.113635	0.985540
H184	H	1.026082	-0.472083	0.794044
H185	H	1.359415	-0.138749	1.127377
H186	H	1.692749	0.194584	1.460710
H187	H	0.634921	-0.241876	0.313108
H188	H	0.968254	0.091457	0.646441
H189	H	1.301588	0.424790	0.979775
H190	H	1.164066	-0.793021	0.436113
H191	H	1.497399	-0.459688	0.769446
H192	H	1.830732	-0.126354	1.102779
H193	H	1.191125	-0.919268	0.335180
H194	H	1.524458	-0.585934	0.668513
H195	H	1.857792	-0.252601	1.001847
H196	H	0.633136	-0.278423	0.451910
H197	H	0.966469	0.054911	0.785243
H198	H	1.299803	0.388244	1.118577
Cl199	Cl	0.924056	-0.932703	0.394138
Cl200	Cl	1.257390	-0.599369	0.727472
Cl201	Cl	1.590723	-0.266036	1.060805
Cl202	Cl	0.494417	-0.248708	0.462072
Cl203	Cl	0.827751	0.084625	0.795405
Cl204	Cl	1.161084	0.417958	1.128739
Cl205	Cl	0.645165	-0.397300	0.502724
Cl206	Cl	0.978499	-0.063966	0.836057
Cl207	Cl	1.311832	0.269367	1.169391
Cl208	Cl	0.964066	-0.248533	0.933234
Cl209	Cl	1.297400	0.084800	1.266568
Cl210	Cl	1.630733	0.418133	1.599901
Cl211	Cl	0.646409	-0.464492	0.250098
Cl212	Cl	0.979742	-0.131159	0.583432
Cl213	Cl	1.313076	0.202175	0.916765
H214	H	1.192236	-0.337705	0.793869
H215	H	1.525569	-0.004372	1.127202
H216	H	1.858902	0.328961	1.460536
H217	H	0.954823	-0.793321	0.400891
H218	H	1.288157	-0.459988	0.734225
H219	H	1.621490	-0.126654	1.067558
Cl220	Cl	0.496085	-0.398537	0.502622
Cl221	Cl	0.829418	-0.065203	0.835955
Cl222	Cl	1.162751	0.268130	1.169288
H223	H	1.192217	-0.338578	0.920600
H224	H	1.525550	-0.005245	1.253934
H225	H	1.858884	0.328089	1.587267
Cl226	Cl	0.959992	-0.254120	0.782880
Cl227	Cl	1.293326	0.079214	1.116214
Cl228	Cl	1.626659	0.412547	1.449547
H229	H	1.088449	-0.919783	0.235032
H230	H	1.421783	-0.586450	0.568366
H231	H	1.755116	-0.253116	0.901699
Cl232	Cl	0.496158	-0.209789	0.320809
Cl233	Cl	0.829491	0.123544	0.654143
Cl234	Cl	1.162824	0.456877	0.987476
Cl235	Cl	1.111215	-0.781969	0.211096
Cl236	Cl	1.444549	-0.448636	0.544430
Cl237	Cl	1.777882	-0.115303	0.877763
H238	H	0.506086	-0.479685	0.373442
H239	H	0.839419	-0.146352	0.706776
H240	H	1.172753	0.186981	1.040109
Cl241	Cl	1.174744	-0.465446	0.781117
Cl242	Cl	1.508078	-0.132113	1.114450
Cl243	Cl	1.841411	0.201220	1.447783
Cl244	Cl	1.108563	-0.209683	0.781258
Cl245	Cl	1.441896	0.123651	1.114591
Cl246	Cl	1.775230	0.456984	1.447925
H247	H	0.954768	-0.400614	0.920728
H248	H	1.288101	-0.067280	1.254061
H249	H	1.621434	0.266053	1.587394
Cl250	Cl	1.115005	-0.212715	0.931215
Cl251	Cl	1.448338	0.120618	1.264549
Cl252	Cl	1.781672	0.453951	1.597882
H253	H	0.991406	-0.919110	0.262288
H254	H	1.324739	-0.585777	0.595621
H255	H	1.658072	-0.252443	0.928954
Cl256	Cl	1.033365	-0.931111	0.503966
Cl257	Cl	1.366698	-0.597777	0.837300
Cl258	Cl	1.700031	-0.264444	1.170633
H259	H	0.633399	-0.477831	0.378206
H260	H	0.966733	-0.144497	0.711540
H261	H	1.300066	0.188836	1.044873
Cl262	Cl	1.033298	-0.781241	0.503495
Cl263	Cl	1.366631	-0.447908	0.836829
Cl264	Cl	1.699965	-0.114575	1.170162
H265	H	0.992380	-0.792037	0.261641
H266	H	1.325714	-0.458704	0.594974
H267	H	1.659047	-0.125370	0.928308
Cl268	Cl	0.495241	-0.319376	0.210543
Cl269	Cl	0.828574	0.013958	0.543876
Cl270	Cl	1.161908	0.347291	0.877209
H271	H	1.167856	-0.920583	0.432905
H272	H	1.501190	-0.587249	0.766238
H273	H	1.834523	-0.253916	1.099572
H274	H	1.025796	-0.471464	0.921670
H275	H	1.359130	-0.138130	1.255003
H276	H	1.692463	0.195203	1.588337
Cl277	Cl	0.645115	-0.319348	0.210062
Cl278	Cl	0.978449	0.013985	0.543395
Cl279	Cl	1.311782	0.347319	0.876729
H280	H	1.164804	-0.435604	0.919846
H281	H	1.498137	-0.102270	1.253179
H282	H	1.831471	0.231063	1.586512
Cl283	Cl	0.923627	-0.393528	0.782047
Cl284	Cl	1.256960	-0.060194	1.115380
Cl285	Cl	1.590294	0.273139	1.448714
