data_functionalizedCrystal
_audit_creation_method	'MofGen! by Chris Wilmer'
_symmetry_space_group_name_H-M	'P1'
_symmetry_Int_Tables_number	1
_symmetry_cell_setting	triclinic
loop_
_symmetry_equiv_pos_as_xyz
  x,y,z
_cell_length_a	23.532407
_cell_length_b	14.044220
_cell_length_c	13.101039
_cell_angle_alpha	86.332523
_cell_angle_beta	86.666253
_cell_angle_gamma	91.981188
loop_
_atom_site_label
_atom_site_type_symbol
_atom_site_fract_x
_atom_site_fract_y
_atom_site_fract_z
O1	O	0.764357	-0.109755	-0.085152
O2	O	1.264357	0.390245	0.414848
O3	O	0.599396	-0.126395	-0.085169
O4	O	1.099396	0.373605	0.414831
O5	O	0.679400	0.019885	-0.085150
O6	O	1.179400	0.519885	0.414850
O7	O	0.684353	-0.256036	-0.085170
O8	O	1.184353	0.243964	0.414830
O9	O	0.673661	0.009373	0.085278
O10	O	1.173661	0.509373	0.585278
O11	O	0.593657	-0.136908	0.085260
O12	O	1.093657	0.363092	0.585260
O13	O	0.758617	-0.120268	0.085277
O14	O	1.258617	0.379732	0.585277
Zn15	Zn	0.675226	-0.130257	0.112327
Zn16	Zn	1.175226	0.369743	0.612327
Zn17	Zn	0.682788	-0.116406	-0.112219
Zn18	Zn	1.182788	0.383594	0.387781
O19	O	0.678613	-0.266549	0.085258
O20	O	1.178613	0.233451	0.585258
C21	C	0.575287	-0.131228	0.000044
C22	C	1.075287	0.368772	0.500044
C23	C	0.512001	-0.129953	0.000038
C24	C	1.012001	0.370047	0.500038
C25	C	0.240856	-0.038135	0.000072
C26	C	0.740856	0.461865	0.500072
C27	C	0.300320	-0.039318	0.000072
C28	C	0.800320	0.460682	0.500072
O29	O	0.333116	0.033519	0.000113
O30	O	0.833116	0.533519	0.500113
N31	N	0.327661	-0.126282	0.000059
N32	N	0.827661	0.373718	0.500059
C33	C	0.295533	-0.212068	0.000056
C34	C	0.795533	0.287932	0.500056
O35	O	0.324248	-0.286146	0.000046
O36	O	0.824248	0.213854	0.500046
C37	C	0.236069	-0.210884	0.000064
C38	C	0.736069	0.289116	0.500064
C39	C	0.208733	-0.123914	0.000067
C40	C	0.708733	0.376086	0.500067
C41	C	0.213519	0.048828	0.000076
C42	C	0.713519	0.548828	0.500076
C43	C	0.154059	0.050011	0.000075
C44	C	0.654059	0.550011	0.500075
C45	C	0.121936	-0.035768	0.000069
C46	C	0.621936	0.464232	0.500069
C47	C	0.149273	-0.122731	0.000065
C48	C	0.649273	0.377269	0.500065
C49	C	0.203943	-0.296670	0.000069
C50	C	0.703943	0.203330	0.500069
C51	C	0.144475	-0.295478	0.000077
C52	C	0.644475	0.204522	0.500077
C53	C	0.117139	-0.208509	0.000080
C54	C	0.617139	0.291491	0.500080
C55	C	0.057689	-0.207327	0.000058
C56	C	0.557689	0.292673	0.500058
N57	N	0.030349	-0.120364	0.000071
N58	N	0.530349	0.379636	0.500071
C59	C	0.062472	-0.034584	0.000077
C60	C	0.562472	0.465416	0.500077
C61	C	0.420410	-0.214548	0.000042
C62	C	0.920410	0.285452	0.500042
C63	C	0.479873	-0.215733	0.000027
C64	C	0.979873	0.284267	0.500027
C65	C	0.484657	-0.042983	0.000044
C66	C	0.984657	0.457017	0.500044
C67	C	0.425193	-0.041799	0.000052
C68	C	0.925193	0.458201	0.500052
C69	C	0.393070	-0.127585	0.000055
C70	C	0.893070	0.372415	0.500055
C71	C	-0.062399	-0.032106	0.000073
C72	C	0.437601	0.467894	0.500073
C73	C	-0.121864	-0.030930	0.000067
C74	C	0.378136	0.469070	0.500067
C75	C	-0.126643	-0.203680	0.000055
C76	C	0.373357	0.296320	0.500055
C77	C	-0.067182	-0.204856	0.000055
C78	C	0.432818	0.295144	0.500055
C79	C	-0.035062	-0.119062	0.000067
C80	C	0.464938	0.380938	0.500067
O81	O	0.024857	-0.280127	0.000022
O82	O	0.524857	0.219873	0.500022
O83	O	0.033749	0.039481	0.000101
O84	O	0.533749	0.539481	0.500101
C85	C	0.674363	0.049923	0.000064
C86	C	1.174363	0.549923	0.500064
C87	C	0.667897	0.155088	0.000065
C88	C	1.167897	0.655088	0.500065
C89	C	0.782726	-0.115436	0.000062
C90	C	1.282726	0.384564	0.500062
C91	C	0.846012	-0.116710	0.000061
C92	C	1.346012	0.383290	0.500061
C93	C	0.683651	-0.296586	0.000042
C94	C	1.183651	0.203414	0.500042
C95	C	0.690117	-0.401751	0.000034
C96	C	1.190117	0.098249	0.500034
N97	N	0.670069	-0.139709	0.265575
N98	N	1.170069	0.360291	0.765575
C99	C	0.656076	0.347639	0.000049
C100	C	1.156076	0.847639	0.500049
C101	C	0.701935	0.405704	0.000050
C102	C	1.201935	0.905704	0.500050
C103	C	0.695358	0.512846	0.000041
C104	C	1.195358	1.012846	0.500041
C105	C	0.662652	0.240487	0.000058
C106	C	1.162652	0.740487	0.500058
N107	N	0.687948	-0.106946	-0.265467
N108	N	1.187948	0.393054	0.234533
C109	C	0.663054	-0.152578	0.474616
C110	C	1.163054	0.347422	0.974616
C111	C	0.694962	-0.094081	0.525499
C112	C	1.194962	0.405919	1.025499
C113	C	0.691059	-0.101241	0.641816
C114	C	1.191059	0.398759	1.141816
C115	C	0.666957	-0.145419	0.358288
C116	C	1.166957	0.354581	0.858288
H117	H	0.226190	-0.367490	0.000062
H118	H	0.726190	0.132510	0.500062
H119	H	0.611879	0.378393	0.000042
H120	H	1.111879	0.878393	0.500042
H121	H	0.725211	-0.038622	0.481703
H122	H	1.225211	0.461378	0.981703
H123	H	0.118323	-0.365338	0.000084
H124	H	0.618323	0.134662	0.500084
H125	H	0.632807	-0.208034	0.518406
H126	H	1.132807	0.291966	1.018406
H127	H	0.746138	0.374953	-0.000014
H128	H	1.246138	0.874953	0.499986
H129	H	0.394260	-0.284410	0.000037
H130	H	0.894260	0.215590	0.500037
H131	H	-0.144119	0.039894	0.000066
H132	H	0.355881	0.539894	0.500066
H133	H	-0.036253	0.037756	0.000082
H134	H	0.463747	0.537756	0.500082
H135	H	-0.152808	-0.273519	0.000045
H136	H	0.347192	0.226481	0.500045
H137	H	0.131807	0.120831	0.000081
H138	H	0.631807	0.620831	0.500081
H139	H	0.402940	0.029020	0.000055
H140	H	0.902940	0.529020	0.500055
H141	H	0.510822	0.026864	0.000049
H142	H	1.010822	0.526864	0.500049
H143	H	0.239668	0.118684	0.000084
H144	H	0.739668	0.618684	0.500084
H145	H	0.502126	-0.286551	0.000010
H146	H	1.002126	0.213449	0.500010
H147	H	-0.044924	-0.275674	0.000052
H148	H	0.455076	0.224326	0.500052
