data_functionalizedCrystal
_audit_creation_method	'MofGen! by Chris Wilmer'
_symmetry_space_group_name_H-M	'P1'
_symmetry_Int_Tables_number	1
_symmetry_cell_setting	triclinic
loop_
_symmetry_equiv_pos_as_xyz
  x,y,z
_cell_length_a	14.044220
_cell_length_b	14.044220
_cell_length_c	12.503552
_cell_angle_alpha	93.839891
_cell_angle_beta	93.839943
_cell_angle_gamma	86.811122
loop_
_atom_site_label
_atom_site_type_symbol
_atom_site_fract_x
_atom_site_fract_y
_atom_site_fract_z
O1	O	0.225121	-1.282207	-0.089210
O2	O	0.725121	-0.782207	0.410790
O3	O	0.216814	-1.005537	-0.089237
O4	O	0.716814	-0.505537	0.410763
O5	O	0.082632	-1.139718	-0.089214
O6	O	0.582632	-0.639718	0.410786
O7	O	0.359303	-1.148025	-0.089234
O8	O	0.859303	-0.648025	0.410766
O9	O	0.092732	-1.129615	0.089427
O10	O	0.592732	-0.629615	0.589427
O11	O	0.226914	-0.995434	0.089403
O12	O	0.726914	-0.495434	0.589403
O13	O	0.235221	-1.272104	0.089430
O14	O	0.735221	-0.772104	0.589430
Cu15	Cu	0.231989	-1.132846	0.105728
Cu16	Cu	0.731989	-0.632846	0.605728
Cu17	Cu	0.220045	-1.144794	-0.105535
Cu18	Cu	0.720045	-0.644794	0.394465
O19	O	0.369402	-1.137922	0.089407
O20	O	0.869402	-0.637922	0.589407
C21	C	0.052060	-1.131031	0.000107
C22	C	0.552060	-0.631031	0.500107
C23	C	-0.054082	-1.120187	0.000107
C24	C	0.445918	-0.620187	0.500107
C25	C	0.218228	-0.964864	0.000080
C26	C	0.718228	-0.464864	0.500080
C27	C	0.207383	-0.858721	0.000070
C28	C	0.707383	-0.358721	0.500070
C29	C	0.233807	-1.312777	0.000111
C30	C	0.733807	-0.812777	0.500111
C31	C	0.244651	-1.418920	0.000114
C32	C	0.744651	-0.918920	0.500114
C33	C	-0.248421	-1.100361	0.000090
C34	C	0.251579	-0.600361	0.500090
C35	C	-0.299551	-1.177275	0.000094
C36	C	0.200449	-0.677275	0.500094
C37	C	-0.407687	-1.166244	0.000084
C38	C	0.092313	-0.666244	0.500084
C39	C	-0.140274	-1.111391	0.000099
C40	C	0.359726	-0.611391	0.500099
C41	C	0.399974	-1.146609	0.000084
C42	C	0.899974	-0.646609	0.500084
C43	C	0.506117	-1.157454	0.000077
C44	C	1.006117	-0.657454	0.500077
N45	N	0.240390	-1.124449	0.254319
N46	N	0.740390	-0.624449	0.754319
C47	C	0.187558	-0.664382	0.000092
C48	C	0.687558	-0.164382	0.500092
C49	C	0.264472	-0.613253	0.000091
C50	C	0.764472	-0.113253	0.500091
C51	C	0.253441	-0.505116	0.000104
C52	C	0.753441	-0.005116	0.500104
C53	C	0.198587	-0.772529	0.000080
C54	C	0.698587	-0.272529	0.500080
N55	N	0.211637	-1.153198	-0.254126
N56	N	0.711637	-0.653198	0.245874
C57	C	0.199276	-1.165545	0.526760
C58	C	0.699276	-0.665545	1.026760
C59	C	0.252749	-1.112106	0.473426
C60	C	0.752749	-0.612106	0.973426
C61	C	0.245871	-1.118975	0.351504
C62	C	0.745871	-0.618975	0.851504
C63	C	0.206153	-1.158676	0.648693
C64	C	0.706153	-0.658676	1.148693
H65	H	-0.285859	-1.026234	0.000080
H66	H	0.214141	-0.526234	0.500080
O67	O	0.352942	-0.657863	0.000255
O68	O	0.852942	-0.157863	0.500255
C69	C	0.408083	-0.625902	0.092750
C70	C	0.908083	-0.125902	0.592750
H71	H	0.358663	-0.597111	0.157437
H72	H	0.858663	-0.097111	0.657437
H73	H	0.455456	-0.687986	0.123780
H74	H	0.955456	-0.187986	0.623780
H75	H	0.454718	-0.566767	0.071829
H76	H	0.954718	-0.066767	0.571829
O77	O	0.099189	-0.619578	0.000049
O78	O	0.599189	-0.119578	0.500049
C79	C	0.107712	-0.520018	0.000084
C80	C	0.607712	-0.020018	0.500084
H81	H	0.178365	-0.504967	-0.033732
H82	H	0.678365	-0.004967	0.466268
H83	H	0.046034	-0.487519	-0.051780
H84	H	0.546034	0.012481	0.448220
H85	H	0.105627	-0.487063	0.085789
H86	H	0.605627	0.012937	0.585789
O87	O	0.138565	-1.226418	0.472133
O88	O	0.638565	-0.726418	0.972133
C89	C	0.163626	-1.320725	0.499504
C90	C	0.663626	-0.820725	0.999504
H91	H	0.204954	-1.319191	0.581190
H92	H	0.704954	-0.819191	1.081190
H93	H	0.096053	-1.361441	0.503217
H94	H	0.596053	-0.861441	1.003217
H95	H	0.210136	-1.357801	0.436241
H96	H	0.710136	-0.857801	0.936241
O97	O	0.313407	-1.051316	0.528300
O98	O	0.813407	-0.551316	1.028300
C99	C	0.260923	-0.984434	0.593341
C100	C	0.760923	-0.484434	1.093341
H101	H	0.190355	-1.015162	0.610058
H102	H	0.690355	-0.515162	1.110058
H103	H	0.303896	-0.968338	0.672475
H104	H	0.803896	-0.468338	1.172475
H105	H	0.246078	-0.915719	0.550086
H106	H	0.746078	-0.415719	1.050086
O107	O	-0.254739	-1.265645	0.000161
O108	O	0.245261	-0.765645	0.500161
C109	C	-0.155181	-1.257134	0.000142
C110	C	0.344819	-0.757134	0.500142
H111	H	-0.136309	-1.182658	0.033949
H112	H	0.363691	-0.682658	0.533949
H113	H	-0.116835	-1.312948	0.052022
H114	H	0.383165	-0.812948	0.552022
H115	H	-0.131895	-1.268914	-0.085557
H116	H	0.368105	-0.768914	0.414443
