data_functionalizedCrystal
_audit_creation_method	'MofGen! by Chris Wilmer'
_symmetry_space_group_name_H-M	'P1'
_symmetry_Int_Tables_number	1
_symmetry_cell_setting	triclinic
loop_
_symmetry_equiv_pos_as_xyz
  x,y,z
_cell_length_a	16.974800
_cell_length_b	13.262508
_cell_length_c	16.053948
_cell_angle_alpha	71.230523
_cell_angle_beta	83.471203
_cell_angle_gamma	82.923469
loop_
_atom_site_label
_atom_site_type_symbol
_atom_site_fract_x
_atom_site_fract_y
_atom_site_fract_z
O1	O	1.050976	0.135536	-0.032389
O2	O	1.550976	0.635536	0.467611
O3	O	0.820316	0.151917	-0.020516
O4	O	1.320316	0.651917	0.479484
O5	O	0.939943	-0.011050	0.008400
O6	O	1.439943	0.488950	0.508400
O7	O	0.931349	0.298503	-0.061305
O8	O	1.431349	0.798503	0.438695
O9	O	0.945986	-0.003041	-0.132683
O10	O	1.445986	0.496959	0.367317
O11	O	0.826359	0.159926	-0.161599
O12	O	1.326359	0.659926	0.338401
O13	O	1.057019	0.143545	-0.173472
O14	O	1.557019	0.643545	0.326528
Zn15	Zn	0.942648	0.153007	-0.189935
Zn16	Zn	1.442648	0.653007	0.310065
Zn17	Zn	0.934687	0.142455	-0.004052
Zn18	Zn	1.434687	0.642455	0.495948
O19	O	0.937392	0.306512	-0.202388
O20	O	1.437392	0.806512	0.297612
C21	C	0.793784	0.155152	-0.088885
C22	C	1.293784	0.655152	0.411115
C23	C	0.705723	0.152847	-0.082409
C24	C	1.205723	0.652847	0.417591
C25	C	0.667650	0.156127	-0.156272
C26	C	1.167650	0.656127	0.343728
C27	C	0.584909	0.153944	-0.150185
C28	C	1.084909	0.653944	0.349815
C29	C	0.540241	0.148488	-0.070237
C30	C	1.040241	0.648488	0.429763
C31	C	0.578319	0.145205	0.003633
C32	C	1.078319	0.645205	0.503633
C33	C	0.661060	0.147380	-0.002453
C34	C	1.161060	0.647380	0.497547
C35	C	0.292431	0.141507	-0.043788
C36	C	0.792431	0.641507	0.456212
C37	C	0.209685	0.139335	-0.037708
C38	C	0.709685	0.639335	0.462292
C39	C	0.216280	0.148072	-0.191527
C40	C	0.716280	0.648072	0.308473
C41	C	0.299021	0.150254	-0.197607
C42	C	0.799021	0.650254	0.302393
C43	C	0.337093	0.146964	-0.123736
C44	C	0.837093	0.646964	0.376264
N45	N	0.455666	0.146260	-0.064014
N46	N	0.955666	0.646260	0.435986
N47	N	0.421667	0.149185	-0.129958
N48	N	0.921667	0.649185	0.370042
C49	C	0.941927	-0.046662	-0.053074
C50	C	1.441927	0.453338	0.446926
C51	C	0.938826	-0.164709	-0.026056
C52	C	1.438826	0.335291	0.473944
C53	C	0.943257	-0.480011	-0.257523
C54	C	1.443257	0.019989	0.242477
C55	C	0.946164	-0.369100	-0.282909
C56	C	1.446164	0.130900	0.217091
C57	C	0.944330	-0.317996	-0.218698
C58	C	1.444330	0.182004	0.281302
C59	C	0.939588	-0.377816	-0.129097
C60	C	1.439588	0.122184	0.370903
C61	C	0.936674	-0.488737	-0.103709
C62	C	1.436674	0.011263	0.396291
C63	C	0.937747	-0.326722	-0.064883
C64	C	1.437747	0.173278	0.435117
C65	C	0.933005	-0.386542	0.024717
C66	C	1.433005	0.113458	0.524717
C67	C	0.930092	-0.497452	0.050101
C68	C	1.430092	0.002548	0.550101
C69	C	0.931926	-0.548555	-0.014110
C70	C	1.431926	-0.048555	0.485890
C71	C	0.940661	-0.215801	-0.090272
C72	C	1.440661	0.284199	0.409728
C73	C	0.934078	-0.224527	0.063543
C74	C	1.434078	0.275473	0.563543
C75	C	0.931170	-0.335439	0.088928
C76	C	1.431170	0.164561	0.588928
C77	C	1.083551	0.140310	-0.105101
C78	C	1.583551	0.640310	0.394899
C79	C	1.171612	0.142615	-0.111571
C80	C	1.671612	0.642615	0.388429
C81	C	0.935408	0.342124	-0.140912
C82	C	1.435408	0.842124	0.359088
C83	C	0.938509	0.460171	-0.167924
C84	C	1.438509	0.960171	0.332076
N85	N	0.948088	0.160209	-0.316796
N86	N	1.448088	0.660209	0.183204
C87	C	0.901074	0.098087	-0.343230
C88	C	1.401074	0.598087	0.156770
C89	C	0.904899	0.103137	-0.432040
C90	C	1.404899	0.603137	0.067960
C91	C	0.955743	0.170304	-0.494413
C92	C	1.455743	0.670304	0.005587
C93	C	1.002758	0.232432	-0.467974
C94	C	1.502758	0.732432	0.032026
C95	C	0.998929	0.227387	-0.379166
C96	C	1.498929	0.727387	0.120834
C97	C	0.972439	0.192329	-0.761944
C98	C	1.472439	0.692329	-0.261944
C99	C	0.976267	0.197367	-0.850756
C100	C	1.476267	0.697367	-0.350756
C101	C	0.878406	0.068072	-0.814817
C102	C	1.378406	0.568072	-0.314817
C103	C	0.874585	0.063028	-0.726008
C104	C	1.374585	0.563028	-0.226008
C105	C	0.921597	0.125161	-0.699577
C106	C	1.421597	0.625161	-0.199577
N107	N	0.959656	0.175465	-0.585191
N108	N	1.459656	0.675465	-0.085191
N109	N	0.917680	0.120005	-0.608801
N110	N	1.417680	0.620005	-0.108801
N111	N	0.929253	0.135245	0.122809
N112	N	1.429253	0.635245	0.622809
H113	H	0.541945	0.140755	0.068730
H114	H	1.041945	0.640755	0.568730
C115	C	0.758009	0.053428	0.100155
C116	C	1.258009	0.553428	0.600155
C117	C	0.702909	0.143776	0.078741
C118	C	1.202909	0.643776	0.578741
H119	H	0.783840	0.051199	0.150287
H120	H	1.283840	0.551199	0.650287
H121	H	0.796449	0.056996	0.051675
H122	H	1.296449	0.556996	0.551675
H123	H	0.731102	-0.009184	0.113041
H124	H	1.231102	0.490816	0.613041
H125	H	0.729817	0.206390	0.065849
H126	H	1.229817	0.706390	0.565849
H127	H	0.664464	0.140218	0.127231
H128	H	1.164464	0.640218	0.627231
C129	C	0.416329	0.140960	0.015192
C130	C	0.916329	0.640960	0.515192
C131	C	0.334272	0.137905	0.037406
C132	C	0.834272	0.637905	0.537406
H133	H	0.442161	0.138732	0.065322
H134	H	0.942161	0.638732	0.565322
H135	H	0.425997	0.205058	-0.031112
H136	H	0.925997	0.705058	0.468888
H137	H	0.436482	0.081149	-0.003687
H138	H	0.936482	0.581149	0.496313
H139	H	0.314119	0.197721	0.056279
H140	H	0.814119	0.697721	0.556279
H141	H	0.324599	0.073799	0.083725
H142	H	0.824599	0.573799	0.583725
H143	H	0.185274	0.150748	-0.251667
H144	H	0.685274	0.650748	0.248333
C145	C	0.487938	0.247871	-0.252778
C146	C	0.987938	0.747871	0.247222
C147	C	0.543052	0.157539	-0.231370
C148	C	1.043052	0.657539	0.268630
H149	H	0.462093	0.250079	-0.302894
H150	H	0.962093	0.750079	0.197106
H151	H	0.514830	0.310488	-0.265678
H152	H	1.014830	0.810488	0.234322
H153	H	0.449504	0.244298	-0.204281
H154	H	0.949504	0.744298	0.295719
H155	H	0.581489	0.161115	-0.279864
H156	H	1.081489	0.661115	0.220136
H157	H	0.516158	0.094906	-0.218474
H158	H	1.016158	0.594906	0.281526
H159	H	1.037210	0.277977	-0.357646
H160	H	1.537210	0.777977	0.142354
C161	C	0.879190	-0.162438	-0.227261
C162	C	1.379190	0.337562	0.272739
C163	C	0.945874	-0.150054	-0.188756
C164	C	1.445874	0.349946	0.311244
H165	H	0.882412	-0.121852	-0.288065
H166	H	1.382412	0.378148	0.211935
H167	H	0.832215	-0.138051	-0.198519
H168	H	1.332215	0.361949	0.301481
H169	H	0.877727	-0.235812	-0.221323
H170	H	1.377727	0.264188	0.278677
H171	H	0.947333	-0.076680	-0.194687
H172	H	1.447333	0.423320	0.305313
H173	H	0.992860	-0.174435	-0.217506
H174	H	1.492860	0.325565	0.282494
C175	C	0.665851	0.164529	-0.307698
C176	C	1.165851	0.664529	0.192302
C177	C	0.716746	0.162118	-0.244154
C178	C	1.216746	0.662118	0.255846
H179	H	0.696162	0.168218	-0.361951
H180	H	1.196162	0.668218	0.138049
H181	H	0.628202	0.225451	-0.315840
H182	H	1.128202	0.725451	0.184160
H183	H	0.638684	0.101540	-0.288401
H184	H	1.138684	0.601540	0.211599
H185	H	0.743909	0.225111	-0.263448
H186	H	1.243909	0.725111	0.236552
H187	H	0.754409	0.101190	-0.236013
H188	H	1.254409	0.601190	0.263987
H189	H	0.927308	-0.384159	0.161883
H190	H	1.427308	0.115841	0.661883
H191	H	0.929563	-0.638869	0.006555
H192	H	1.429563	-0.138869	0.506555
H193	H	0.335385	0.154691	-0.262708
H194	H	0.835385	0.654691	0.237292
H195	H	0.173318	0.134895	0.027398
H196	H	0.673318	0.634895	0.527398
H197	H	0.946696	-0.227687	-0.239372
H198	H	1.446696	0.272313	0.260628
C199	C	0.807795	-0.025186	-0.387605
C200	C	1.307795	0.474814	0.112395
C201	C	0.853227	0.034847	-0.461102
C202	C	1.353227	0.534847	0.038898
H203	H	0.775898	-0.067350	-0.405549
H204	H	1.275898	0.432650	0.094451
H205	H	0.774440	0.021674	-0.361909
H206	H	1.274440	0.521674	0.138091
H207	H	0.842239	-0.070609	-0.345519
H208	H	1.342239	0.429391	0.154481
H209	H	0.818782	0.080275	-0.503186
H210	H	1.318782	0.580275	-0.003186
H211	H	0.886585	-0.012018	-0.486812
H212	H	1.386585	0.487982	0.013188
H213	H	0.833185	0.008331	-0.675228
H214	H	1.333185	0.508331	-0.175228
H215	H	0.950034	-0.320404	-0.355862
H216	H	1.450034	0.179596	0.144138
H217	H	0.932578	-0.182919	0.115829
H218	H	1.432578	0.317081	0.615829
C219	C	1.037384	0.412217	-0.538032
C220	C	1.537384	0.912217	-0.038032
C221	C	1.058648	0.306264	-0.536532
C222	C	1.558648	0.806264	-0.036532
H223	H	1.071888	0.457795	-0.580360
H224	H	1.571888	0.957795	-0.080360
H225	H	1.041833	0.418097	-0.481364
H226	H	1.541833	0.918097	0.018636
H227	H	0.984012	0.432618	-0.553406
H228	H	1.484012	0.932618	-0.053406
H229	H	1.112018	0.285860	-0.521153
H230	H	1.612018	0.785860	-0.021153
H231	H	1.054206	0.300379	-0.593213
H232	H	1.554206	0.800379	-0.093213
H233	H	0.859674	0.043389	-0.292450
H234	H	1.359674	0.543389	0.207550
C235	C	0.941725	-0.646172	-0.286888
C236	C	1.441725	-0.146172	0.213112
C237	C	0.945281	-0.536186	-0.328096
C238	C	1.445281	-0.036186	0.171904
H239	H	0.942981	-0.680851	-0.330463
H240	H	1.442981	-0.180851	0.169537
H241	H	0.893786	-0.658134	-0.249839
H242	H	1.393786	-0.158134	0.250161
H243	H	0.986005	-0.674123	-0.252428
H244	H	1.486005	-0.174123	0.247572
H245	H	0.900997	-0.508233	-0.362552
H246	H	1.400997	-0.008233	0.137448
H247	H	0.993225	-0.524217	-0.365161
H248	H	1.493225	-0.024217	0.134839
C249	C	0.923909	-0.494940	0.199590
C250	C	1.423909	0.005060	0.699590
C251	C	0.924893	-0.563210	0.148590
C252	C	1.424893	-0.063210	0.648590
H253	H	0.920710	-0.535539	0.260392
H254	H	1.420710	-0.035539	0.760392
H255	H	0.879069	-0.443512	0.187810
H256	H	1.379069	0.056488	0.687810
H257	H	0.971291	-0.459484	0.185166
H258	H	1.471291	0.040516	0.685166
H259	H	0.877508	-0.598661	0.163010
H260	H	1.377508	-0.098661	0.663010
H261	H	0.969737	-0.614658	0.160377
H262	H	1.469737	-0.114658	0.660377
H263	H	0.840130	0.017489	-0.836347
H264	H	1.340130	0.517489	-0.336347
C265	C	1.072612	0.324678	-0.877368
C266	C	1.572612	0.824678	-0.377368
C267	C	1.032158	0.271204	-0.919320
C268	C	1.532158	0.771204	-0.419320
H269	H	1.107112	0.370261	-0.919698
H270	H	1.607112	0.870261	-0.419698
H271	H	1.102977	0.273883	-0.833787
H272	H	1.602977	0.773883	-0.333787
H273	H	1.035181	0.366171	-0.850181
H274	H	1.535181	0.866171	-0.350181
H275	H	1.069588	0.229705	-0.946502
H276	H	1.569588	0.729705	-0.446502
H277	H	1.001791	0.322006	-0.962917
H278	H	1.501791	0.822006	-0.462917
C279	C	0.974936	0.329717	-0.695037
C280	C	1.474936	0.829717	-0.195037
C281	C	1.024116	0.260631	-0.732907
C282	C	1.524116	0.760631	-0.232907
H283	H	1.006841	0.371893	-0.677117
H284	H	1.506841	0.871893	-0.177117
H285	H	0.944120	0.288998	-0.645178
H286	H	1.444120	0.788998	-0.145178
H287	H	0.940500	0.375126	-0.737140
H288	H	1.440500	0.875126	-0.237140
H289	H	1.058548	0.215217	-0.690801
H290	H	1.558548	0.715217	-0.190801
H291	H	1.054945	0.301354	-0.782771
H292	H	1.554945	0.801354	-0.282771
