data_functionalizedCrystal
_audit_creation_method	'MofGen! by Chris Wilmer'
_symmetry_space_group_name_H-M	'P1'
_symmetry_Int_Tables_number	1
_symmetry_cell_setting	triclinic
loop_
_symmetry_equiv_pos_as_xyz
  x,y,z
_cell_length_a	14.519709
_cell_length_b	12.837942
_cell_length_c	11.892095
_cell_angle_alpha	85.697431
_cell_angle_beta	93.900636
_cell_angle_gamma	89.254543
loop_
_atom_site_label
_atom_site_type_symbol
_atom_site_fract_x
_atom_site_fract_y
_atom_site_fract_z
O1	O	-1.240918	-0.129302	-0.093854
O2	O	-0.973826	-0.145304	-0.093888
O3	O	-1.101449	0.013610	-0.093865
O4	O	-1.113295	-0.288216	-0.093877
O5	O	-1.090807	0.000381	0.094141
O6	O	-0.963184	-0.158534	0.094118
O7	O	-1.230275	-0.142531	0.094152
Zn8	Zn	-1.095040	-0.152633	0.123985
Zn9	Zn	-1.109062	-0.135203	-0.123721
O10	O	-1.102652	-0.301446	0.094129
C11	C	-1.092127	0.045624	0.000137
C12	C	-1.080193	0.160723	0.000134
C13	C	-0.934081	-0.151173	0.000110
C14	C	-0.831507	-0.148937	0.000097
C15	C	-1.270021	-0.136663	0.000151
C16	C	-1.372595	-0.138898	0.000157
C17	C	-0.455897	-0.140712	0.000149
C18	C	-0.560404	-0.142996	0.000134
C19	C	-0.643699	-0.144824	0.000122
C20	C	-0.748212	-0.147109	0.000110
C21	C	-1.111975	-0.333459	0.000124
C22	C	-1.123910	-0.448558	0.000120
N23	N	-1.085477	-0.164528	0.293037
C24	C	-1.223663	0.401416	0.000129
C25	C	-1.212455	0.509563	0.000125
C26	C	-1.046568	0.485166	0.000116
C27	C	-1.057777	0.377019	0.000119
C28	C	-1.146327	0.335148	0.000127
C29	C	-1.157535	0.226999	0.000139
C30	C	-0.991649	0.202605	0.000121
C31	C	-0.980440	0.310752	0.000118
N32	N	-1.118632	-0.123299	-0.292773
C33	C	-1.185172	-0.040467	0.529703
C34	C	-1.178494	-0.048789	0.648044
C35	C	-1.065441	-0.189489	0.648061
C36	C	-1.072118	-0.181167	0.529721
C37	C	-1.131986	-0.106655	0.470546
C38	C	-1.138668	-0.098338	0.352203
C39	C	-1.025610	-0.239032	0.352222
C40	C	-1.018933	-0.247355	0.470563
H41	H	-1.229637	0.192909	0.000149
H42	H	-0.928675	0.148637	0.000129
C43	C	-1.297525	0.582458	0.000132
C44	C	-1.318156	0.667025	-0.097495
C45	C	-1.403231	0.739921	-0.097491
C46	C	-1.467675	0.728251	0.000141
C47	C	-1.447046	0.643680	0.097776
C48	C	-1.361971	0.570784	0.097771
H49	H	-1.270449	0.675667	-0.169775
H50	H	-1.418501	0.802525	-0.169767
H51	H	-1.530652	0.782213	0.000145
H52	H	-1.494753	0.635038	0.170055
H53	H	-1.346701	0.508180	0.170047
H54	H	-1.187418	-0.037669	0.304024
C55	C	-1.251028	0.041488	0.464605
C56	C	-1.238196	0.158415	0.480875
C57	C	-1.304055	0.240371	0.415779
C58	C	-1.382745	0.205402	0.334414
C59	C	-1.395581	0.088470	0.318140
C60	C	-1.329722	0.006513	0.383236
H61	H	-1.179941	0.184307	0.541110
H62	H	-1.294552	0.326933	0.427827
H63	H	-1.431498	0.266071	0.286226
H64	H	-1.453836	0.062578	0.257905
H65	H	-1.339225	-0.080048	0.371188
C66	C	-0.949175	0.531250	0.000079
C67	C	-0.913129	0.595403	0.097679
C68	C	-0.815738	0.641493	0.097632
C69	C	-0.754392	0.623429	-0.000016
C70	C	-0.790437	0.559273	-0.097624
C71	C	-0.887828	0.513183	-0.097576
H72	H	-0.958541	0.608777	0.169971
H73	H	-0.789055	0.688985	0.169888
H74	H	-0.682297	0.657548	-0.000051
H75	H	-0.745024	0.545899	-0.169915
H76	H	-0.914510	0.465691	-0.169832
C77	C	-0.883040	0.356820	0.000105
C78	C	-0.847002	0.420955	0.097724
C79	C	-0.749601	0.467022	0.097712
C80	C	-0.688238	0.448953	0.000081
C81	C	-0.724276	0.384815	-0.097545
C82	C	-0.821677	0.338748	-0.097533
H83	H	-0.892427	0.434333	0.170002
H84	H	-0.722924	0.514501	0.169981
H85	H	-0.616136	0.483055	0.000072
H86	H	-0.678851	0.371437	-0.169823
H87	H	-0.848354	0.291269	-0.169802
C88	C	-1.321063	0.355347	0.000148
C89	C	-1.382418	0.373413	0.097786
C90	C	-1.479818	0.327344	0.097807
C91	C	-1.515863	0.263210	0.000191
C92	C	-1.454507	0.245141	-0.097454
C93	C	-1.357107	0.291209	-0.097476
H94	H	-1.355736	0.420891	0.170054
H95	H	-1.525238	0.340720	0.170092
H96	H	-1.587964	0.229107	0.000207
H97	H	-1.481188	0.197662	-0.169722
H98	H	-1.311687	0.277833	-0.169760
H99	H	-0.982306	-0.292930	0.304043
H100	H	-1.221802	0.005108	0.696207
H101	H	-1.016690	-0.250149	0.696257
H102	H	-0.970186	-0.308019	0.518757
