data_functionalizedCrystal
_audit_creation_method	'MofGen! by Chris Wilmer'
_symmetry_space_group_name_H-M	'P1'
_symmetry_Int_Tables_number	1
_symmetry_cell_setting	triclinic
loop_
_symmetry_equiv_pos_as_xyz
  x,y,z
_cell_length_a	14.908571
_cell_length_b	14.908178
_cell_length_c	12.827885
_cell_angle_alpha	86.668630
_cell_angle_beta	86.685814
_cell_angle_gamma	89.820760
loop_
_atom_site_label
_atom_site_type_symbol
_atom_site_fract_x
_atom_site_fract_y
_atom_site_fract_z
Zn1	Zn	1.354014	-0.437398	-0.651962
Zn2	Zn	1.345238	-0.587788	-0.466567
Zn3	Zn	1.203644	-0.428752	-0.467775
Zn4	Zn	1.194952	-0.579035	-0.631819
O5	O	1.274462	-0.508243	-0.554531
O6	O	1.478675	-0.464629	-0.635293
O7	O	1.326419	-0.566736	-0.320486
O8	O	1.230901	-0.304066	-0.501143
O9	O	1.472227	-0.575120	-0.499084
O10	O	1.341377	-0.310419	-0.636464
O11	O	1.222391	-0.449893	-0.321373
O12	O	1.076665	-0.441406	-0.481612
O13	O	1.216088	-0.560202	-0.780733
O14	O	1.070280	-0.551818	-0.602134
O15	O	1.332950	-0.456142	-0.795531
O16	O	1.317992	-0.712460	-0.479553
O17	O	1.207577	-0.706029	-0.600963
C18	C	1.040847	-0.494725	-0.539819
C19	C	0.940904	-0.488963	-0.533549
C20	C	0.746490	-0.593287	-0.647073
C21	C	0.652585	-0.587876	-0.641185
C22	C	0.659187	-0.472727	-0.515890
C23	C	0.753093	-0.478137	-0.521778
C24	C	0.796741	-0.538421	-0.587371
C25	C	0.890647	-0.543835	-0.593253
C26	C	0.897248	-0.428682	-0.467964
C27	C	0.803343	-0.423271	-0.462076
C28	C	1.260913	-0.741873	-0.537965
C29	C	1.255200	-0.841825	-0.530918
C30	C	1.359415	-1.036106	-0.658725
C31	C	1.354049	-1.130021	-0.652108
C32	C	1.239099	-1.123570	-0.511072
C33	C	1.244465	-1.029655	-0.517690
C34	C	1.304625	-0.985927	-0.591517
C35	C	1.309995	-0.892011	-0.598129
C36	C	1.195041	-0.885562	-0.457099
C37	C	1.189675	-0.979476	-0.450482
C38	C	1.508989	-0.521815	-0.569301
C39	C	1.608930	-0.527599	-0.575595
C40	C	1.274528	-0.508161	-0.827111
C41	C	1.274556	-0.508125	-0.943269
C42	C	1.288088	-0.273703	-0.571185
C43	C	1.293894	-0.173756	-0.578283
C44	C	1.332390	-0.456623	-1.002377
C45	C	1.332420	-0.456585	-1.122432
C46	C	1.274451	-0.508264	-0.283019
C47	C	1.274612	-0.508056	-0.166891
H48	H	0.782029	-0.642377	-0.700476
C49	C	0.938660	-0.610140	-0.665405
H50	H	0.895280	-0.642034	-0.700126
H51	H	0.973012	-0.651394	-0.624885
H52	H	0.977297	-0.577889	-0.715737
C53	C	0.952521	-0.368328	-0.402282
H54	H	0.913073	-0.331659	-0.362369
H55	H	0.991441	-0.331298	-0.447392
H56	H	0.987138	-0.404804	-0.356542
H57	H	0.611675	-0.632553	-0.689803
C58	C	0.611163	-0.406432	-0.443735
H59	H	0.548040	-0.411076	-0.448775
H60	H	0.630049	-0.346911	-0.464371
H61	H	0.625764	-0.420426	-0.373530
C62	C	0.755325	-0.356970	-0.389924
H63	H	0.692201	-0.361609	-0.394961
H64	H	0.774215	-0.297452	-0.410566
H65	H	0.769926	-0.370961	-0.319719
H66	H	1.381878	-0.412554	-0.964102
H67	H	1.358983	-0.856409	-0.658240
C68	C	1.425575	-0.988002	-0.739942
H69	H	1.457431	-1.031338	-0.779029
H70	H	1.466868	-0.953614	-0.705072
H71	H	1.393229	-0.949385	-0.785852
C72	C	1.172920	-1.171677	-0.429879
H73	H	1.141050	-1.128343	-0.390803
H74	H	1.205240	-1.210310	-0.383969
H75	H	1.131627	-1.206047	-0.464782
C76	C	1.414322	-1.185215	-0.726030
H77	H	1.450923	-1.145719	-0.770938
H78	H	1.377814	-1.219865	-0.766778
H79	H	1.451432	-1.224105	-0.685973
C80	C	1.123502	-1.027578	-0.369278
H81	H	1.091636	-0.984240	-0.330203
H82	H	1.155827	-1.066207	-0.323369
H83	H	1.082204	-1.061952	-0.404170
H84	H	1.150430	-0.844695	-0.402371
H85	H	1.381937	-0.412495	-1.173236
H86	H	1.225099	-0.552155	-1.116093
H87	H	1.225060	-0.552184	-0.981544
