data_functionalizedCrystal
_audit_creation_method	'MofGen! by Chris Wilmer'
_symmetry_space_group_name_H-M	'P1'
_symmetry_Int_Tables_number	1
_symmetry_cell_setting	triclinic
loop_
_symmetry_equiv_pos_as_xyz
  x,y,z
_cell_length_a	18.215407
_cell_length_b	19.805405
_cell_length_c	18.215399
_cell_angle_alpha	90.030610
_cell_angle_beta	90.019833
_cell_angle_gamma	90.026858
loop_
_atom_site_label
_atom_site_type_symbol
_atom_site_fract_x
_atom_site_fract_y
_atom_site_fract_z
Zn1	Zn	1.125064	-0.269462	0.416102
Zn2	Zn	1.124969	-0.382653	0.293030
Zn3	Zn	1.001997	-0.269484	0.293050
Zn4	Zn	1.001959	-0.382615	0.416055
O5	O	1.063497	-0.326054	0.354559
O6	O	1.228036	-0.284484	0.399788
O7	O	1.108633	-0.367666	0.190049
O8	O	1.018377	-0.174765	0.309401
O9	O	1.227966	-0.367644	0.309368
O10	O	1.108794	-0.174748	0.399807
O11	O	1.018285	-0.284521	0.190063
O12	O	0.899008	-0.284485	0.309355
O13	O	1.018313	-0.367580	0.519046
O14	O	0.898980	-0.367602	0.399727
O15	O	1.108758	-0.284447	0.519080
O16	O	1.108596	-0.477365	0.309322
O17	O	1.018221	-0.477337	0.399708
C18	C	0.872291	-0.326042	0.354538
C19	C	0.790492	-0.326053	0.354547
C20	C	1.063415	-0.501910	0.354524
C21	C	1.063446	-0.577142	0.354533
C22	C	0.602303	-0.369400	0.401544
C23	C	0.525444	-0.369403	0.401553
C24	C	0.525444	-0.282719	0.307591
C25	C	0.602301	-0.282714	0.307586
C26	C	0.640729	-0.326059	0.354561
C27	C	0.487013	-0.326066	0.354575
C28	C	0.403679	-0.326068	0.354585
C29	C	0.724068	-0.326056	0.354553
C30	C	1.110550	-0.612478	0.307518
C31	C	1.110582	-0.683166	0.307535
C32	C	1.063505	-0.718517	0.354562
C33	C	1.016399	-0.683176	0.401582
C34	C	1.016372	-0.612489	0.401569
C35	C	1.016507	-0.968249	0.401637
C36	C	1.016536	-1.038941	0.401645
C37	C	1.110717	-1.038927	0.307602
C38	C	1.110690	-0.968239	0.307589
C39	C	1.063587	-0.932905	0.354611
C40	C	1.063555	-0.856256	0.354594
C41	C	1.063533	-0.795164	0.354577
C42	C	1.255450	-0.326066	0.354581
C43	C	1.337249	-0.326071	0.354590
C44	C	1.063542	-0.326007	0.546512
C45	C	1.063561	-0.325987	0.628311
C46	C	1.063601	-0.149511	0.354611
C47	C	1.063645	-0.074279	0.354633
C48	C	1.063495	-0.326051	0.163353
C49	C	1.063619	-0.325880	0.081555
C50	C	1.110673	-0.282659	0.816524
C51	C	1.110682	-0.282639	0.893383
C52	C	1.016502	-0.369210	0.893336
C53	C	1.016490	-0.369226	0.816479
C54	C	1.063580	-0.325952	0.778075
C55	C	1.063600	-0.325916	0.931791
C56	C	1.063609	-0.325895	1.015125
C57	C	1.063570	-0.325972	0.694736
H58	H	0.633589	-0.404693	0.439797
O59	O	0.970730	-1.073313	0.447230
C60	C	0.923246	-1.114276	0.405298
H61	H	0.918716	-1.093011	0.347331
H62	H	0.946025	-1.167832	0.402787
C63	C	0.852289	-1.141521	0.512389
C64	C	0.846721	-1.115400	0.441194
H65	H	0.805086	-1.142217	0.534532
H66	H	0.884281	-1.113926	0.540640
H67	H	0.871274	-1.186149	0.510286
H68	H	0.827745	-1.070771	0.443298
H69	H	0.814724	-1.142988	0.412944
H70	H	1.149028	-0.247385	0.924686
H71	H	0.978071	-0.711965	0.439876
H72	H	1.149014	-0.247420	0.785258
O73	O	1.156570	-1.073276	0.262041
C74	C	1.204086	-1.114104	0.303998
H75	H	1.208573	-1.092761	0.361961
H76	H	1.181366	-1.167697	0.306515
C77	C	1.275108	-1.141348	0.196937
C78	C	1.280624	-1.115132	0.268127
H79	H	1.322319	-1.141986	0.174809
H80	H	1.243094	-1.113844	0.168669
H81	H	1.256171	-1.186008	0.199045
H82	H	1.299551	-1.070471	0.266018
H83	H	1.312643	-1.142629	0.296394
O84	O	0.970834	-0.411227	0.930757
C85	C	0.980930	-0.401919	1.006838
H86	H	1.037738	-0.379752	1.017354
H87	H	0.937301	-0.365869	1.028654
C88	C	0.904381	-0.497622	1.033357
C89	C	0.974157	-0.470401	1.046273
H90	H	0.900200	-0.539863	1.057684
H91	H	0.897577	-0.503891	0.982100
H92	H	0.868032	-0.467573	1.051537
H93	H	1.010504	-0.500445	1.028086
H94	H	0.980967	-0.464138	1.097529
H95	H	0.494162	-0.404695	0.439812
O96	O	0.488078	-0.240716	0.261881
C97	C	0.443570	-0.279198	0.214289
H98	H	0.466708	-0.332499	0.209634
H99	H	0.385331	-0.281561	0.237044
C100	C	0.413950	-0.180574	0.143566
C101	C	0.442372	-0.246038	0.137845
H102	H	0.413208	-0.160118	0.096413
H103	H	0.443934	-0.154647	0.175632
H104	H	0.365420	-0.182553	0.162532
H105	H	0.490905	-0.244057	0.118888
H106	H	0.412397	-0.271963	0.105775
O107	O	0.970821	-0.411381	0.779156
C108	C	0.986857	-0.478838	0.797927
H109	H	1.045650	-0.482254	0.819068
H110	H	0.947397	-0.496522	0.842523
C111	C	0.906051	-0.519824	0.703667
C112	C	0.978263	-0.524021	0.729627
H113	H	0.900746	-0.547696	0.661538
H114	H	0.895244	-0.474378	0.691022
H115	H	0.873175	-0.534560	0.740837
H116	H	1.011136	-0.509277	0.692460
H117	H	0.989075	-0.569466	0.742264
H118	H	0.633588	-0.247416	0.269327
H119	H	1.148883	-0.583700	0.269220
H120	H	1.149022	-0.939459	0.269292
O121	O	1.156360	-0.717387	0.261793
C122	C	1.197914	-0.671027	0.220292
H123	H	1.167750	-0.620665	0.217708
H124	H	1.253789	-0.663448	0.247288
C125	C	1.245620	-0.760514	0.145154
C126	C	1.208569	-0.698659	0.141976
H127	H	1.252196	-0.777559	0.096846
H128	H	1.217626	-0.791748	0.173115
H129	H	1.292179	-0.754189	0.167654
H130	H	1.162007	-0.704986	0.119485
H131	H	1.236555	-0.667427	0.114009
H132	H	0.978016	-0.583719	0.439854
H133	H	0.978153	-0.939485	0.439923
