data_functionalizedCrystal
_audit_creation_method	'MofGen! by Chris Wilmer'
_symmetry_space_group_name_H-M	'P1'
_symmetry_Int_Tables_number	1
_symmetry_cell_setting	triclinic
loop_
_symmetry_equiv_pos_as_xyz
  x,y,z
_cell_length_a	10.967926
_cell_length_b	13.596369
_cell_length_c	11.026607
_cell_angle_alpha	89.996407
_cell_angle_beta	83.619246
_cell_angle_gamma	77.876068
loop_
_atom_site_label
_atom_site_type_symbol
_atom_site_fract_x
_atom_site_fract_y
_atom_site_fract_z
O1	O	1.693950	-0.205332	-0.170501
O2	O	2.193950	0.294668	0.329499
O3	O	1.334330	-0.144375	-0.186827
O4	O	1.834330	0.355625	0.313173
O5	O	1.484335	-0.169805	-0.001763
O6	O	1.984335	0.330195	0.498237
O7	O	1.543945	-0.179902	-0.355565
O8	O	2.043945	0.320098	0.144435
O9	O	1.484314	-0.333384	-0.001753
O10	O	1.984314	0.166616	0.498247
O11	O	1.334309	-0.307955	-0.186817
O12	O	1.834309	0.192045	0.313183
O13	O	1.693929	-0.368911	-0.170490
O14	O	2.193929	0.131089	0.329510
Zn15	Zn	1.514116	-0.364405	-0.178652
Zn16	Zn	2.014116	0.135595	0.321348
Zn17	Zn	1.514144	-0.148882	-0.178665
Zn18	Zn	2.014144	0.351118	0.321335
O19	O	1.543924	-0.343481	-0.355555
O20	O	2.043924	0.156519	0.144445
C21	C	1.287565	-0.218240	-0.185635
C22	C	1.787565	0.281760	0.314365
C23	C	1.148247	-0.194625	-0.182083
C24	C	1.648247	0.305375	0.317917
C25	C	1.086124	-0.268836	-0.180494
C26	C	1.586124	0.231164	0.319506
C27	C	0.942132	-0.244431	-0.176823
C28	C	1.442132	0.255569	0.323177
N29	N	1.514105	-0.511495	-0.178643
N30	N	2.014105	-0.011495	0.321357
C31	C	1.514142	-0.912792	-0.178667
C32	C	2.014142	-0.412792	0.321333
C33	C	1.514129	-0.801138	-0.178664
C34	C	2.014129	-0.301138	0.321336
C35	C	1.514125	-0.712147	-0.178656
C36	C	2.014125	-0.212147	0.321344
C37	C	1.514110	-0.600486	-0.178651
C38	C	2.014110	-0.100486	0.321349
C39	C	1.740694	-0.295044	-0.171683
C40	C	2.240694	0.204956	0.328317
C41	C	1.880012	-0.318652	-0.175235
C42	C	2.380012	0.181348	0.324765
C43	C	1.473328	-0.249730	0.043544
C44	C	1.973328	0.250270	0.543544
C45	C	1.440545	-0.244169	0.178531
C46	C	1.940545	0.255831	0.678531
N47	N	1.514162	-0.001793	-0.178666
N48	N	2.014162	0.498207	0.321334
C49	C	1.554932	-0.263555	-0.400862
C50	C	2.054932	0.236445	0.099138
C51	C	1.587714	-0.269108	-0.535848
C52	C	2.087714	0.230892	-0.035848
C53	C	1.531063	-0.259511	0.251584
C54	C	2.031063	0.240489	0.751584
C55	C	1.497183	-0.253765	0.391100
C56	C	1.997183	0.246235	0.891100
H57	H	1.094832	-0.113023	-0.180722
H58	H	1.594832	0.386977	0.319278
N59	N	1.659743	-0.281312	0.200464
N60	N	2.159743	0.218688	0.700464
N61	N	1.687083	-0.285944	0.087203
N62	N	2.187083	0.214056	0.587203
H63	H	1.777966	-0.301339	0.051100
H64	H	2.277966	0.198661	0.551100
N65	N	0.946982	-0.421036	-0.176920
N66	N	1.446982	0.078964	0.323080
N67	N	0.924729	-0.476984	-0.090993
N68	N	1.424729	0.023016	0.409007
H69	H	0.972025	-0.549293	-0.092181
H70	H	1.472025	-0.049293	0.407819
N71	N	1.153104	-0.371215	-0.182237
N72	N	1.653104	0.128785	0.317763
N73	N	1.094774	-0.440998	-0.180769
N74	N	1.594774	0.059002	0.319231
H75	H	1.142076	-0.513307	-0.182011
H76	H	1.642076	-0.013307	0.317989
N77	N	1.368496	-0.231939	0.442214
N78	N	1.868496	0.268061	0.942214
N79	N	1.341157	-0.227298	0.555475
N80	N	1.841157	0.272702	1.055475
H81	H	1.250273	-0.211883	0.591578
H82	H	1.750273	0.288117	1.091578
H83	H	1.690299	-0.286423	0.423415
H84	H	2.190299	0.213577	0.923415
N85	N	1.311865	-0.222345	0.229650
N86	N	1.811865	0.277655	0.729650
N87	N	1.284526	-0.217704	0.342911
N88	N	1.784526	0.282296	0.842911
H89	H	1.193642	-0.202289	0.379014
H90	H	1.693642	0.297711	0.879014
H91	H	0.888721	-0.162823	-0.175463
H92	H	1.388721	0.337177	0.324537
