data_functionalizedCrystal
_audit_creation_method	'MofGen! by Chris Wilmer'
_symmetry_space_group_name_H-M	'P1'
_symmetry_Int_Tables_number	1
_symmetry_cell_setting	triclinic
loop_
_symmetry_equiv_pos_as_xyz
  x,y,z
_cell_length_a	14.044220
_cell_length_b	10.654550
_cell_length_c	9.730223
_cell_angle_alpha	90.003749
_cell_angle_beta	89.997406
_cell_angle_gamma	91.163110
loop_
_atom_site_label
_atom_site_type_symbol
_atom_site_fract_x
_atom_site_fract_y
_atom_site_fract_z
O1	O	0.133227	-1.681222	-0.114408
O2	O	0.145921	-1.317019	-0.114387
O3	O	0.001554	-1.493654	-0.114384
O4	O	0.277595	-1.504587	-0.114411
O5	O	0.001557	-1.493652	0.114196
O6	O	0.145925	-1.317017	0.114193
O7	O	0.133231	-1.681220	0.114172
Zn8	Zn	0.139578	-1.499118	0.150474
Zn9	Zn	0.139574	-1.499121	-0.150689
O10	O	0.277598	-1.504585	0.114169
C11	C	0.144991	-1.270127	-0.000094
C12	C	0.142202	-1.130403	-0.000085
C13	C	-0.033790	-1.488867	-0.000093
C14	C	-0.139110	-1.474592	-0.000090
C15	C	0.134161	-1.728113	-0.000124
C16	C	0.136950	-1.867836	-0.000142
C17	C	-0.331943	-1.448493	-0.000108
C18	C	-0.388911	-1.549741	-0.000119
C19	C	-0.496210	-1.535219	-0.000129
C20	C	-0.224634	-1.463013	-0.000098
C21	C	0.312942	-1.509372	-0.000125
C22	C	0.418262	-1.523648	-0.000137
N23	N	0.139581	-1.499126	0.356011
C24	C	0.227203	-1.059459	-0.000114
C25	C	0.224578	-0.928175	-0.000137
C26	C	0.051942	-0.938790	-0.000109
C27	C	0.054569	-1.070072	-0.000076
C28	C	0.314837	-1.119790	-0.000123
C29	C	0.399845	-1.048846	-0.000153
C30	C	0.397219	-0.917561	-0.000177
C31	C	0.309585	-0.857221	-0.000170
N32	N	0.139563	-1.499123	-0.356226
C33	C	0.075677	-1.577364	0.427938
C34	C	0.075666	-1.577359	0.571821
C35	C	0.203470	-1.420876	0.571837
C36	C	0.203477	-1.420875	0.427956
C37	C	0.011782	-1.655615	0.355993
C38	C	-0.052127	-1.733861	0.427920
C39	C	-0.052138	-1.733856	0.571803
C40	C	0.011759	-1.655606	0.643759
H41	H	-0.357098	-1.647328	-0.000217
Br42	Br	0.011801	-1.655633	0.160724
H43	H	0.316985	-1.226688	-0.000110
H44	H	-0.363754	-1.350913	-0.000106
H45	H	0.255494	-1.357169	0.630432
H46	H	0.471193	-1.097984	-0.000147
Br47	Br	-0.138851	-1.840036	0.330273
Br48	Br	0.512584	-0.821282	-0.000199
H49	H	-0.104181	-1.797557	0.630365
H50	H	0.011737	-1.655600	0.760918
H51	H	0.255512	-1.357165	0.369392
H52	H	0.307454	-0.750320	-0.000168
H53	H	-0.019405	-0.889650	-0.000126
Br54	Br	-0.060791	-1.166362	-0.000029
