data_functionalizedCrystal
_audit_creation_method	'MofGen! by Chris Wilmer'
_symmetry_space_group_name_H-M	'P1'
_symmetry_Int_Tables_number	1
_symmetry_cell_setting	triclinic
loop_
_symmetry_equiv_pos_as_xyz
  x,y,z
_cell_length_a	14.628931
_cell_length_b	18.760492
_cell_length_c	14.628931
_cell_angle_alpha	89.997565
_cell_angle_beta	59.999836
_cell_angle_gamma	59.998570
loop_
_atom_site_label
_atom_site_type_symbol
_atom_site_fract_x
_atom_site_fract_y
_atom_site_fract_z
Zr1	Zr	1.000578	-0.093543	0.880622
O2	O	1.191284	-0.207359	0.734667
O3	O	0.809872	-0.058652	0.925365
O4	O	1.000577	-0.207359	0.925373
O5	O	1.000578	0.058651	0.734653
O6	O	1.000577	-0.207359	1.075805
O7	O	1.000578	-0.058652	0.734659
O8	O	0.659439	0.058652	1.075791
O9	O	1.341716	-0.207360	0.734667
O10	O	0.888312	-0.043771	1.056713
O11	O	0.888312	0.043770	0.944443
O12	O	1.112843	-0.131313	0.944452
O13	O	1.112844	-0.043772	0.832181
Zr14	Zr	1.000577	0.093542	1.120534
Zr15	Zr	1.000577	-0.093542	1.120544
Zr16	Zr	1.000578	0.093542	0.880612
Zr17	Zr	1.240500	-0.093543	0.880622
Zr18	Zr	0.760655	0.093542	1.120534
O19	O	1.191284	0.058651	1.075790
O20	O	1.191283	-0.207359	1.075805
O21	O	1.191284	0.058650	0.734652
O22	O	0.809871	0.207359	1.266489
O23	O	0.809871	-0.058651	1.266503
O24	O	0.809872	0.207358	0.925351
O25	O	1.000577	-0.058652	1.266503
O26	O	1.000578	0.207358	1.075782
O27	O	1.000578	0.207358	0.925350
O28	O	1.000577	0.058651	1.266497
O29	O	1.341716	-0.207359	0.925373
O30	O	0.659440	0.207359	1.075783
O31	O	0.659439	0.207359	1.266489
O32	O	0.659439	0.058652	1.266497
O33	O	1.341716	-0.058653	0.734658
O34	O	1.341716	-0.058652	0.925364
O35	O	0.888312	0.131312	1.056704
O36	O	0.888311	0.043771	1.168974
O37	O	1.112843	-0.043771	1.056713
O38	O	1.112844	0.043770	0.944442
C39	C	0.700472	0.000000	1.000578
C40	C	0.598619	0.000000	1.000579
C41	C	0.369186	0.061414	1.079333
C42	C	0.474455	0.061415	1.079335
C43	C	1.000577	-0.234014	1.000591
C44	C	1.000577	-0.313437	1.000595
C45	C	0.883370	-0.603554	1.059165
C46	C	1.117785	-0.694946	0.941962
C47	C	1.117787	-0.620325	0.941970
C48	C	1.000578	-0.537315	1.000575
C49	C	0.883368	-0.528925	1.059172
C50	C	1.234995	-0.628708	0.883364
C51	C	1.235002	-0.554085	0.883368
C52	C	1.117792	-0.471073	0.941980
C53	C	1.000577	-0.462686	1.000581
C54	C	0.883368	-0.379676	1.059186
C55	C	0.766152	-0.371287	1.117794
C56	C	0.766158	-0.445914	1.117784
C57	C	1.117786	-0.396447	0.941990
C58	C	0.883367	-0.305047	1.059193
C59	C	1.300683	-0.000001	1.000577
C60	C	1.402537	-0.000001	1.000577
C61	C	1.000578	-0.000001	0.700472
C62	C	1.000579	-0.000001	0.598619
C63	C	1.000578	0.234013	1.000565
C64	C	1.000578	0.313436	1.000561
C65	C	0.889196	0.043426	0.608899
C66	C	0.889194	0.043427	0.503630
C67	C	1.000577	-0.000000	1.300684
C68	C	1.000576	-0.000000	1.402537
C69	C	0.700471	0.000000	1.300684
C70	C	0.598617	0.000001	1.402537
C71	C	0.700472	0.234014	1.000566
C72	C	0.598619	0.313436	1.000561
C73	C	0.700471	0.234014	1.300671
C74	C	0.598618	0.313437	1.402520
C75	C	1.300684	-0.234015	0.700485
C76	C	1.402537	-0.313438	0.598636
C77	C	1.300684	-0.000001	0.700472
C78	C	1.402538	-0.000002	0.598618
C79	C	1.300683	-0.234015	1.000590
C80	C	1.402536	-0.313437	1.000594
C81	C	0.550788	0.396438	1.059158
C82	C	0.455099	0.471070	1.059150
C83	C	0.407238	0.462700	1.000551
C84	C	0.455078	0.379690	0.941947
C85	C	0.550772	0.305059	0.941949
C86	C	0.550786	0.305039	1.508964
C87	C	0.455098	0.379657	1.604671
C88	C	0.407236	0.462673	1.593932
C89	C	0.455077	0.471070	1.487477
C90	C	0.550770	0.396452	1.391772
C91	C	1.450381	-0.305039	0.492192
C92	C	1.546099	-0.379658	0.396485
C93	C	1.593966	-0.462674	0.407224
C94	C	1.546119	-0.471071	0.513679
C95	C	1.450408	-0.396453	0.609383
C96	C	1.450368	-0.305039	1.059205
C97	C	1.546057	-0.379657	1.059231
C98	C	1.593919	-0.462673	1.000639
C99	C	1.546078	-0.471070	0.942026
C100	C	1.450384	-0.396452	0.942008
C101	C	0.553208	-0.043426	1.392258
C102	C	0.447937	-0.043427	1.497527
H103	H	0.627006	-0.052580	0.933147
H104	H	0.793839	0.080608	0.695634
N105	N	0.604923	-0.092668	1.277375
H106	H	0.672788	-0.085682	1.218459
H107	H	0.531868	-0.068674	1.268463
N108	N	0.602407	0.405482	1.122355
H109	H	0.670289	0.345614	1.113474
H110	H	0.529319	0.438489	1.204306
H111	H	1.411450	-0.403303	0.894275
N112	N	1.398806	-0.405517	0.724189
H113	H	1.443656	-0.469432	0.716459
H114	H	1.302740	-0.376556	0.766441
H115	H	0.509023	-0.052582	0.933156
H116	H	0.589741	0.237449	1.517729
H117	H	0.793835	0.080600	0.512256
N118	N	0.403508	0.560595	1.122366
H119	H	0.448343	0.554566	1.159496
H120	H	0.307438	0.593552	1.181277
H121	H	0.416155	0.372805	1.691342
H122	H	0.329318	0.523477	1.000558
H123	H	1.584999	-0.372804	1.106959
H124	H	0.787920	-0.237459	1.106920
H125	H	0.416095	0.372888	0.894236
H126	H	1.095940	-0.037185	0.393902
N127	N	1.126894	-0.049243	0.483732
H128	H	1.132048	-0.095200	0.441445
H129	H	1.201155	-0.078169	0.491425
H130	H	1.585062	-0.538672	0.894322
H131	H	0.589703	0.237478	0.894236
N132	N	1.697184	-0.543146	0.303987
H133	H	1.663881	-0.579064	0.303934
H134	H	1.776572	-0.579002	0.303987
N135	N	0.304016	0.543156	1.697154
H136	H	0.337325	0.543185	1.743215
H137	H	0.224647	0.543133	1.743123
H138	H	0.670721	-0.303691	1.165504
H139	H	0.589703	0.403302	1.305105
H140	H	1.330420	-0.696298	0.835649
H141	H	0.416094	0.538671	1.478750
H142	H	0.262700	0.113989	1.146762
N143	N	1.398760	-0.215507	0.480593
H144	H	1.443607	-0.221522	0.398632
H145	H	1.415405	-0.182551	0.517752
N146	N	0.436848	0.131070	1.168651
H147	H	0.517378	0.121198	1.155992
H148	H	0.383955	0.128229	1.244718
N149	N	0.639749	-0.436878	1.180984
H150	H	0.634534	-0.465799	1.127226
H151	H	0.565564	-0.372955	1.218116
H152	H	1.585040	-0.372805	0.309814
H153	H	1.585104	-0.538671	0.522409
N154	N	1.398758	-0.215506	1.122404
H155	H	1.443587	-0.221522	1.159536
H156	H	1.302688	-0.182554	1.181313
N157	N	0.756947	-0.594501	1.122384
H158	H	0.774726	-0.654369	1.113494
H159	H	0.705762	-0.561499	1.091615
H160	H	1.671840	-0.523425	1.000663
H161	H	0.408882	-0.080603	1.488901
N162	N	0.454299	0.049217	1.610049
H163	H	0.437681	0.095174	1.572906
H164	H	0.550353	0.007187	1.572918
N165	N	1.244197	-0.784471	0.878746
H166	H	1.226412	-0.830473	0.887631
H167	H	1.295379	-0.791390	0.909520
N168	N	0.546890	0.049246	1.517424
H169	H	0.507137	0.113185	1.526453
H170	H	0.619919	0.025216	1.526376
H171	H	1.213221	-0.403279	0.894264
N172	N	1.361420	-0.563131	0.820169
H173	H	1.435669	-0.627042	0.783045
H174	H	1.366517	-0.534166	0.873990
