data_functionalizedCrystal
_audit_creation_method	'MofGen! by Chris Wilmer'
_symmetry_space_group_name_H-M	'P1'
_symmetry_Int_Tables_number	1
_symmetry_cell_setting	triclinic
loop_
_symmetry_equiv_pos_as_xyz
  x,y,z
_cell_length_a	14.908783
_cell_length_b	12.759387
_cell_length_c	14.908520
_cell_angle_alpha	86.736825
_cell_angle_beta	83.208414
_cell_angle_gamma	86.677293
loop_
_atom_site_label
_atom_site_type_symbol
_atom_site_fract_x
_atom_site_fract_y
_atom_site_fract_z
Zn1	Zn	1.363087	-0.704627	0.280554
Zn2	Zn	1.354237	-0.538512	0.431949
Zn3	Zn	1.211704	-0.519358	0.289324
Zn4	Zn	1.202947	-0.704544	0.440600
O5	O	1.282994	-0.616760	0.360607
O6	O	1.488583	-0.690643	0.293347
O7	O	1.335290	-0.388951	0.413079
O8	O	1.239153	-0.535954	0.161491
O9	O	1.482081	-0.568599	0.404576
O10	O	1.350374	-0.672070	0.155049
O11	O	1.230572	-0.374879	0.308293
O12	O	1.083872	-0.535872	0.316681
O13	O	1.224230	-0.851575	0.419320
O14	O	1.077439	-0.671927	0.427823
O15	O	1.341884	-0.851637	0.301735
O16	O	1.326799	-0.568518	0.559765
O17	O	1.215648	-0.690500	0.566121
C18	C	1.047812	-0.601813	0.374143
C19	C	0.947199	-0.595445	0.379956
C20	C	0.764896	-0.710778	0.275214
C21	C	0.670361	-0.704798	0.280672
C22	C	0.663593	-0.577499	0.396326
C23	C	0.758127	-0.583479	0.390868
C24	C	0.808776	-0.650122	0.330310
C25	C	0.903312	-0.656107	0.324857
C26	C	0.896542	-0.528804	0.440506
C27	C	0.802008	-0.522823	0.445964
C28	C	1.283067	-0.890793	0.360514
C29	C	1.283099	-1.007569	0.360475
C30	C	1.405619	-1.007654	0.238041
C31	C	1.466893	-1.062557	0.176809
C32	C	1.466917	-1.172278	0.176775
C33	C	1.405659	-1.227098	0.237977
C34	C	1.344385	-1.172195	0.299208
C35	C	1.344369	-1.062472	0.299238
C36	C	1.221862	-1.172110	0.421636
C37	C	1.221840	-1.062389	0.421676
C38	C	1.160603	-1.226930	0.482838
C39	C	1.099332	-1.172027	0.544075
C40	C	1.099312	-1.062299	0.544107
C41	C	1.160567	-1.007486	0.482907
C42	C	1.519094	-0.631767	0.347018
C43	C	1.619706	-0.638162	0.341227
C44	C	1.269338	-0.631603	0.595786
C45	C	1.263578	-0.637993	0.696391
C46	C	1.282976	-0.343793	0.360631
C47	C	1.283135	-0.227013	0.360405
C48	C	1.296728	-0.601885	0.124508
C49	C	1.302581	-0.595545	0.023897
C50	C	1.368617	-0.523096	0.878754
C51	C	1.363209	-0.529097	0.973282
C52	C	1.247358	-0.656000	0.979977
C53	C	1.252767	-0.649999	0.885449
C54	C	1.313397	-0.583544	0.834841
C55	C	1.318800	-0.577538	0.740311
C56	C	1.202955	-0.704447	0.747007
C57	C	1.197547	-0.710447	0.841535
H58	H	0.944549	-0.710373	0.275549
F59	F	1.433132	-0.452356	0.824892
H60	H	1.405614	-0.918314	0.238070
F61	F	0.609675	-0.506567	0.460760
F62	F	0.818801	-0.781712	0.210773
F63	F	1.532069	-1.004204	0.111661
F64	F	0.748095	-0.451898	0.510407
F65	F	1.383324	-0.506807	0.686452
H66	H	1.408176	-0.479876	1.009033
H67	H	1.198002	-0.710112	1.021197
H68	H	1.049406	-1.017603	0.593960
H69	H	1.160559	-0.918146	0.482932
F70	F	1.133026	-0.781174	0.895405
F71	F	0.943249	-0.464251	0.499152
F72	F	0.623664	-0.769354	0.222029
H73	H	1.516806	-1.216979	0.126910
H74	H	1.160624	-1.316270	0.482802
F75	F	1.405680	-1.343872	0.237930
H76	H	1.049457	-1.216670	0.593896
H77	H	1.157989	-0.753664	0.711243
