data_functionalizedCrystal
_audit_creation_method	'MofGen! by Chris Wilmer'
_symmetry_space_group_name_H-M	'P1'
_symmetry_Int_Tables_number	1
_symmetry_cell_setting	triclinic
loop_
_symmetry_equiv_pos_as_xyz
  x,y,z
_cell_length_a	11.026607
_cell_length_b	8.559649
_cell_length_c	7.088929
_cell_angle_alpha	84.674985
_cell_angle_beta	82.408099
_cell_angle_gamma	90.817659
loop_
_atom_site_label
_atom_site_type_symbol
_atom_site_fract_x
_atom_site_fract_y
_atom_site_fract_z
O1	O	-0.026458	-2.096118	-0.158957
O2	O	0.034577	-1.648469	-0.158966
O3	O	-0.169136	-1.835194	-0.158955
O4	O	0.177256	-1.909394	-0.158968
O5	O	-0.196415	-1.860132	0.159021
O6	O	0.007298	-1.673407	0.159011
O7	O	-0.053737	-2.121056	0.159019
Cu8	Cu	-0.025710	-1.899509	0.188049
Cu9	Cu	0.006551	-1.870017	-0.187995
O10	O	0.149977	-1.934332	0.159009
C11	C	0.025563	-1.602739	0.000021
C12	C	0.039332	-1.429319	0.000018
C13	C	-0.226711	-1.833974	0.000030
C14	C	-0.357621	-1.793166	0.000023
C15	C	-0.044723	-2.166786	0.000028
C16	C	-0.058490	-2.340205	0.000019
C17	C	-0.441927	-1.905841	0.000022
C18	C	-0.577231	-1.863667	0.000014
C19	C	0.207551	-1.935551	0.000019
C20	C	0.338463	-1.976358	0.000014
N21	N	-0.048402	-1.920263	0.452538
N22	N	0.029232	-1.849272	-0.452485
H23	H	-0.413937	-2.033528	0.000036
C24	C	-0.185862	-1.416349	0.000017
H25	H	-0.245385	-1.337190	0.000001
H26	H	-0.204912	-1.488113	0.110898
H27	H	-0.185875	-1.470708	-0.110887
C28	C	-0.395415	-1.620666	0.000006
H29	H	-0.324975	-1.555442	-0.000008
H30	H	-0.451805	-1.608751	0.110883
H31	H	-0.432762	-1.591373	-0.110902
H32	H	0.133621	-1.372932	0.000004
H33	H	-0.605215	-1.735971	-0.000001
H34	H	0.109685	-1.775696	0.465865
C35	C	-0.157092	-2.019669	0.562839
H36	H	-0.155539	-2.018248	0.696346
H37	H	-0.151224	-2.124679	0.530105
H38	H	-0.231573	-1.977379	0.530135
H39	H	-0.633542	-2.104043	-0.000127
