data_functionalizedCrystal
_audit_creation_method	'MofGen! by Chris Wilmer'
_symmetry_space_group_name_H-M	'P1'
_symmetry_Int_Tables_number	1
_symmetry_cell_setting	triclinic
loop_
_symmetry_equiv_pos_as_xyz
  x,y,z
_cell_length_a	12.594516
_cell_length_b	12.759401
_cell_length_c	12.759393
_cell_angle_alpha	90.020459
_cell_angle_beta	89.971717
_cell_angle_gamma	89.980303
loop_
_atom_site_label
_atom_site_type_symbol
_atom_site_fract_x
_atom_site_fract_y
_atom_site_fract_z
Zn1	Zn	-0.423654	-1.606236	-0.594032
Zn2	Zn	0.076346	-1.106236	-0.094032
Zn3	Zn	-0.601668	-1.606118	-0.418357
Zn4	Zn	-0.101668	-1.106118	0.081643
Zn5	Zn	-0.423709	-1.430536	-0.418367
Zn6	Zn	0.076291	-0.930536	0.081633
Zn7	Zn	-0.601596	-1.430516	-0.593994
Zn8	Zn	-0.101596	-0.930516	-0.093994
O9	O	-0.512657	-1.518352	-0.506187
O10	O	-0.012657	-1.018352	-0.006187
O11	O	-0.447275	-1.753241	-0.570740
O12	O	0.052725	-1.253241	-0.070740
O13	O	-0.578114	-1.582786	-0.271337
O14	O	-0.078114	-1.082786	0.228663
O15	O	-0.274756	-1.453901	-0.441689
O16	O	0.225244	-0.953901	0.058311
O17	O	-0.578061	-1.753155	-0.441672
O18	O	-0.078061	-1.253155	0.058328
O19	O	-0.274715	-1.582987	-0.570749
O20	O	0.225285	-1.082987	-0.070749
O21	O	-0.447369	-1.453787	-0.271344
O22	O	0.052631	-0.953787	0.228656
O23	O	-0.447298	-1.283513	-0.441653
O24	O	0.052702	-0.783513	0.058347
O25	O	-0.577938	-1.453867	-0.741020
O26	O	-0.077938	-0.953867	-0.241020
O27	O	-0.577991	-1.283498	-0.570685
O28	O	-0.077991	-0.783498	-0.070685
O29	O	-0.447205	-1.582967	-0.741048
O30	O	0.052795	-1.082967	-0.241048
O31	O	-0.750604	-1.582766	-0.441635
O32	O	-0.250604	-1.082766	0.058365
O33	O	-0.750551	-1.453752	-0.570675
O34	O	-0.250551	-0.953752	-0.070675
C35	C	-0.789198	-1.518273	-0.506173
C36	C	-0.289198	-1.018273	-0.006173
C37	C	-0.907503	-1.518335	-0.506202
C38	C	-0.407503	-1.018335	-0.006202
C39	C	-0.512644	-1.245384	-0.506166
C40	C	-0.012644	-0.745384	-0.006166
C41	C	-0.512664	-1.128608	-0.506182
C42	C	-0.012664	-0.628608	-0.006182
C43	C	-0.512557	-1.518428	-0.780221
C44	C	-0.012557	-1.018428	-0.280221
C45	C	-0.512515	-1.518460	-0.896997
C46	C	-0.012515	-1.018460	-0.396997
C47	C	-1.047529	-1.448221	-0.576351
C48	C	-0.547529	-0.948221	-0.076351
C49	C	-0.976615	-1.544003	-0.602124
C50	C	-0.476615	-1.044003	-0.102124
C51	C	-0.976846	-1.422563	-0.480475
C52	C	-0.476846	-0.922563	0.019525
C53	C	-1.047374	-1.614339	-0.532064
C54	C	-0.547374	-1.114339	-0.032064
C55	C	-1.047611	-1.492834	-0.410370
C56	C	-0.547611	-0.992834	0.089630
C57	C	-0.976729	-1.588682	-0.436107
C58	C	-0.476729	-1.088682	0.063893
C59	C	-0.235036	-1.518459	-0.506225
C60	C	0.264964	-1.018459	-0.006225
C61	C	-0.116730	-1.518505	-0.506241
C62	C	0.383270	-1.018505	-0.006241
C63	C	-0.512670	-1.792385	-0.506209
C64	C	-0.012670	-1.292385	-0.006209
C65	C	-0.512676	-1.909161	-0.506218
C66	C	-0.012676	-1.409161	-0.006218
C67	C	-0.580819	-1.073765	-0.573264
C68	C	-0.080819	-0.573765	-0.073264
C69	C	-0.580823	-0.964041	-0.573285
C70	C	-0.080823	-0.464041	-0.073285
C71	C	-0.444513	-0.964011	-0.439134
C72	C	0.055487	-0.464011	0.060866
C73	C	-0.444505	-1.073733	-0.439119
C74	C	0.055495	-0.573733	0.060881
C75	C	-0.580516	-1.585658	-1.061591
C76	C	-0.080516	-1.085658	-0.561591
C77	C	-0.580566	-1.585632	-0.951867
C78	C	-0.080566	-1.085632	-0.451867
C79	C	-0.444417	-1.451302	-0.951858
C80	C	0.055583	-0.951302	-0.451858
C81	C	-0.444373	-1.451323	-1.061580
C82	C	0.055627	-0.951323	-0.561580
C83	C	-0.512678	-1.518336	-0.233220
C84	C	-0.012678	-1.018336	0.266780
C85	C	-0.512421	-1.518507	-0.116444
C86	C	-0.012421	-1.018507	0.383556
H87	H	-1.078613	-1.388930	-0.635703
H88	H	-0.578613	-0.888930	-0.135703
Cl89	Cl	-0.929006	-1.297405	-0.446852
Cl90	Cl	-0.429006	-0.797405	0.053148
Cl91	Cl	-0.358836	-0.895019	-0.354827
Cl92	Cl	0.141164	-0.395019	0.145173
H93	H	-0.388921	-1.396635	-1.106242
H94	H	0.111079	-0.896635	-0.606242
Cl95	Cl	-0.666499	-1.142746	-0.657576
Cl96	Cl	-0.166499	-0.642746	-0.157576
Cl97	Cl	-0.928471	-1.577427	-0.727272
Cl98	Cl	-0.428471	-1.077427	-0.227272
H99	H	-0.388998	-1.118387	-0.384493
H100	H	0.111002	-0.618387	0.115507
Cl101	Cl	-0.358853	-1.366871	-0.882879
Cl102	Cl	0.141147	-0.866871	-0.382879
Cl103	Cl	-0.666506	-0.895101	-0.657622
Cl104	Cl	-0.166506	-0.395101	-0.157622
H105	H	-0.635926	-1.640362	-1.106258
H106	H	-0.135926	-1.140362	-0.606258
H107	H	-0.945839	-1.648114	-0.376800
H108	H	-0.445839	-1.148114	0.123200
Cl109	Cl	-1.095003	-1.739536	-0.565830
Cl110	Cl	-0.595003	-1.239536	-0.065830
Cl111	Cl	-1.095795	-1.459369	-0.285256
Cl112	Cl	-0.595795	-0.959369	0.214744
H113	H	-0.636015	-1.640314	-0.907211
H114	H	-0.136015	-1.140314	-0.407211
