data_functionalizedCrystal
_audit_creation_method	'MofGen! by Chris Wilmer'
_symmetry_space_group_name_H-M	'P1'
_symmetry_Int_Tables_number	1
_symmetry_cell_setting	triclinic
loop_
_symmetry_equiv_pos_as_xyz
  x,y,z
_cell_length_a	11.026607
_cell_length_b	10.268362
_cell_length_c	11.026607
_cell_angle_alpha	89.996950
_cell_angle_beta	71.413983
_cell_angle_gamma	90.003722
loop_
_atom_site_label
_atom_site_type_symbol
_atom_site_fract_x
_atom_site_fract_y
_atom_site_fract_z
O1	O	1.726734	0.108297	-0.533625
O2	O	2.226734	0.608297	-0.033625
O3	O	1.360154	0.108299	-0.472861
O4	O	1.860154	0.608299	0.027139
O5	O	1.513062	0.108294	-0.319953
O6	O	2.013062	0.608294	0.180047
O7	O	1.573825	0.108303	-0.686533
O8	O	2.073825	0.608303	-0.186533
O9	O	1.513043	-0.108307	-0.319941
O10	O	2.013043	0.391693	0.180059
O11	O	1.360135	-0.108302	-0.472849
O12	O	1.860135	0.391698	0.027151
O13	O	1.726715	-0.108304	-0.533613
O14	O	2.226715	0.391696	-0.033613
Cu15	Cu	1.543423	-0.128080	-0.503230
Cu16	Cu	2.043423	0.371920	-0.003230
Cu17	Cu	1.543445	0.128075	-0.503244
Cu18	Cu	2.043445	0.628075	-0.003244
O19	O	1.573807	-0.108298	-0.686521
O20	O	2.073807	0.391702	-0.186521
C21	C	1.312485	-0.000001	-0.461645
C22	C	1.812485	0.499999	0.038355
C23	C	1.170471	-0.000000	-0.428228
C24	C	1.670471	0.500000	0.071772
C25	C	1.116821	0.000003	-0.520498
C26	C	1.616821	0.500003	-0.020498
C27	C	0.970043	0.000004	-0.485962
C28	C	1.470043	0.500004	0.014038
N29	N	1.543417	-0.308246	-0.503221
N30	N	2.043417	0.191754	-0.003221
C31	C	1.543438	-0.573916	-0.503240
C32	C	2.043438	-0.073916	-0.003240
C33	C	1.543423	-0.426078	-0.503233
C34	C	2.043423	0.073922	-0.003233
C35	C	1.774384	-0.000001	-0.544828
C36	C	2.274384	0.499999	-0.044828
C37	C	1.916398	0.000007	-0.578245
C38	C	2.416398	0.500007	-0.078245
C39	C	1.501843	-0.000005	-0.272287
C40	C	2.001843	0.499995	0.227713
C41	C	1.468426	-0.000000	-0.130273
C42	C	1.968426	0.500000	0.369727
N43	N	1.543460	0.308241	-0.503244
N44	N	2.043460	0.808241	-0.003244
C45	C	1.585026	0.000004	-0.734187
C46	C	2.085026	0.500004	-0.234187
C47	C	1.618443	0.000007	-0.876200
C48	C	2.118443	0.500007	-0.376200
C49	C	1.560695	0.000001	-0.076624
C50	C	2.060695	0.500001	0.423376
C51	C	1.526160	0.000006	0.070155
C52	C	2.026160	0.500006	0.570155
H53	H	1.179555	-0.000002	-0.625061
H54	H	1.679555	0.499998	-0.125061
C55	C	1.384895	0.000008	0.154886
C56	C	1.884895	0.500008	0.654886
H57	H	1.380215	0.000003	0.242422
H58	H	1.880215	0.500003	0.742422
H59	H	1.343667	0.075539	0.137252
H60	H	1.843667	0.575539	0.637252
H61	H	1.343660	-0.075537	0.137270
H62	H	1.843660	0.424463	0.637270
H63	H	1.363863	0.000009	-0.067540
H64	H	1.863863	0.500009	0.432460
C65	C	1.001121	0.000006	-0.719513
C66	C	1.501121	0.500006	-0.219513
H67	H	0.948425	-0.000002	-0.772921
H68	H	1.448425	0.499998	-0.272921
H69	H	1.053608	0.075536	-0.736394
H70	H	1.553608	0.575536	-0.236394
H71	H	1.053584	-0.075541	-0.736378
H72	H	1.553584	0.424459	-0.236378
C73	C	1.085736	0.000004	-0.286971
C74	C	1.585736	0.500004	0.213029
H75	H	0.998200	0.000015	-0.282290
H76	H	1.498200	0.500015	0.217710
H77	H	1.103352	-0.075527	-0.245727
H78	H	1.603352	0.424473	0.254273
H79	H	1.103369	0.075549	-0.245751
H80	H	1.603369	0.575549	0.254249
C81	C	1.701953	-0.000005	-0.161359
C82	C	2.201953	0.499995	0.338641
H83	H	1.706633	-0.000017	-0.248895
H84	H	2.206633	0.499983	0.251105
H85	H	1.743197	0.075526	-0.143742
H86	H	2.243197	0.575526	0.356258
H87	H	1.743173	-0.075550	-0.143726
H88	H	2.243173	0.424450	0.356274
C89	C	1.759710	0.000008	0.039077
C90	C	2.259710	0.500008	0.539077
H91	H	1.813118	0.000019	0.091772
H92	H	2.313118	0.500019	0.591772
H93	H	1.776580	-0.075524	-0.013396
H94	H	2.276580	0.424476	0.486604
H95	H	1.776587	0.075552	-0.013402
H96	H	2.276587	0.575552	0.486598
C97	C	0.885312	0.000008	-0.344698
C98	C	1.385312	0.500008	0.155302
H99	H	0.797776	0.000019	-0.340017
H100	H	1.297776	0.500019	0.159983
H101	H	0.902928	-0.075523	-0.303454
H102	H	1.402928	0.424477	0.196546
H103	H	0.902945	0.075553	-0.303478
H104	H	1.402945	0.575553	0.196522
