data_functionalizedCrystal
_audit_creation_method	'MofGen! by Chris Wilmer'
_symmetry_space_group_name_H-M	'P1'
_symmetry_Int_Tables_number	1
_symmetry_cell_setting	triclinic
loop_
_symmetry_equiv_pos_as_xyz
  x,y,z
_cell_length_a	21.395362
_cell_length_b	19.121063
_cell_length_c	21.395356
_cell_angle_alpha	92.411537
_cell_angle_beta	89.957023
_cell_angle_gamma	92.485681
loop_
_atom_site_label
_atom_site_type_symbol
_atom_site_fract_x
_atom_site_fract_y
_atom_site_fract_z
Zn1	Zn	0.947237	-0.279338	-0.365202
Zn2	Zn	1.447237	0.220662	0.134798
Zn3	Zn	0.942677	-0.396791	-0.264889
Zn4	Zn	1.442677	0.103209	0.235111
Zn5	Zn	0.842452	-0.279389	-0.260406
Zn6	Zn	1.342452	0.220611	0.239594
Zn7	Zn	0.837958	-0.396787	-0.369593
Zn8	Zn	1.337958	0.103213	0.130407
O9	O	0.892581	-0.338076	-0.315023
O10	O	1.392581	0.161924	0.184977
O11	O	1.034311	-0.294898	-0.351934
O12	O	1.534311	0.205102	0.148066
O13	O	0.929355	-0.381241	-0.176617
O14	O	1.429355	0.118759	0.323383
O15	O	0.860141	-0.181097	-0.270593
O16	O	1.360141	0.318903	0.229407
O17	O	1.030961	-0.381191	-0.278234
O18	O	1.530961	0.118809	0.221766
O19	O	0.937126	-0.181059	-0.347587
O20	O	1.437126	0.318941	0.152413
O21	O	0.855720	-0.294986	-0.173323
O22	O	1.355720	0.205014	0.326677
O23	O	0.754177	-0.294982	-0.274851
O24	O	1.254177	0.205018	0.225149
O25	O	0.852481	-0.381184	-0.456688
O26	O	1.352481	0.118816	0.043312
O27	O	0.750875	-0.381234	-0.355071
O28	O	1.250875	0.118766	0.144929
O29	O	0.932768	-0.294894	-0.453462
O30	O	1.432768	0.205106	0.046538
O31	O	0.924997	-0.495077	-0.282492
O32	O	1.424997	0.004923	0.217508
O33	O	0.848060	-0.495073	-0.359418
O34	O	1.348060	0.004927	0.140582
C35	C	0.729792	-0.338113	-0.314951
C36	C	1.229792	0.161887	0.185049
C37	C	0.660149	-0.338146	-0.314936
C38	C	1.160149	0.161854	0.185064
C39	C	0.625731	-0.383117	-0.356649
C40	C	1.125731	0.116883	0.143351
C41	C	0.560296	-0.383100	-0.356676
C42	C	1.060296	0.116900	0.143324
C43	C	0.529282	-0.338119	-0.314980
C44	C	1.029282	0.161881	0.185020
C45	C	0.563709	-0.293140	-0.273264
C46	C	1.063709	0.206860	0.226736
C47	C	0.629142	-0.293153	-0.273242
C48	C	1.129142	0.206847	0.226758
C49	C	0.425773	-0.332471	-0.258360
C50	C	0.925773	0.167529	0.241640
C51	C	0.360340	-0.332463	-0.258381
C52	C	0.860340	0.167537	0.241619
C53	C	0.327463	-0.338073	-0.315047
C54	C	0.827463	0.161927	0.184953
C55	C	0.360026	-0.343708	-0.371695
C56	C	0.860026	0.156292	0.128305
C57	C	0.425460	-0.343721	-0.371673
C58	C	0.925460	0.156279	0.128327
C59	C	0.458331	-0.338099	-0.314999
C60	C	0.958331	0.161901	0.185001
C61	C	0.222093	-0.383028	-0.356793
C62	C	0.722093	0.116972	0.143207
C63	C	0.156657	-0.383006	-0.356821
C64	C	0.656657	0.116994	0.143179
C65	C	0.160071	-0.293049	-0.273403
C66	C	0.660071	0.206951	0.226597
C67	C	0.225505	-0.293068	-0.273381
C68	C	0.725505	0.206932	0.226619
C69	C	0.256512	-0.338061	-0.315075
C70	C	0.756512	0.161939	0.184925
C71	C	0.885563	-0.520559	-0.321932
C72	C	1.385563	-0.020559	0.178068
C73	C	0.882618	-0.598626	-0.324908
C74	C	1.382618	-0.098626	0.175092
C75	C	0.921323	-0.635281	-0.286289
C76	C	1.421323	-0.135281	0.213711
C77	C	0.918556	-0.708633	-0.289092
C78	C	1.418556	-0.208633	0.210908
C79	C	0.877082	-0.745330	-0.330512
C80	C	1.377082	-0.245330	0.169488
C81	C	0.838376	-0.708670	-0.369136
C82	C	1.338376	-0.208670	0.130864
C83	C	0.841145	-0.635319	-0.366336
C84	C	1.341145	-0.135319	0.133664
C85	C	0.866717	-0.966803	-0.340973
C86	C	1.366717	-0.466803	0.159027
C87	C	0.863949	-1.040159	-0.343770
C88	C	1.363949	-0.540159	0.156230
C89	C	0.944130	-1.040117	-0.263726
C90	C	1.444130	-0.540117	0.236274
C91	C	0.946894	-0.966765	-0.260927
C92	C	1.446894	-0.466765	0.239073
C93	C	0.908190	-0.930112	-0.299553
C94	C	1.408190	-0.430112	0.200447
C95	C	0.874252	-0.820307	-0.333377
C96	C	1.374252	-0.320307	0.166623
C97	C	0.911023	-0.855135	-0.296690
C98	C	1.411023	-0.355135	0.203310
C99	C	1.056006	-0.338039	-0.315094
C100	C	1.556006	0.161961	0.184906
C101	C	1.125648	-0.338024	-0.315125
C102	C	1.625648	0.161976	0.184875
C103	C	0.892632	-0.338033	-0.478444
C104	C	1.392632	0.161967	0.021556
C105	C	0.892654	-0.338014	-0.548085
C106	C	1.392654	0.161986	-0.048085
C107	C	0.899644	-0.154881	-0.308100
C108	C	1.399644	0.345119	0.191900
C109	C	0.902653	-0.076814	-0.305150
C110	C	1.402653	0.423186	0.194850
C111	C	0.854323	-0.293096	-0.579073
C112	C	1.354323	0.206904	-0.079073
C113	C	0.854321	-0.293083	-0.644508
C114	C	1.354321	0.206917	-0.144508
C115	C	0.892662	-0.337981	-0.678952
C116	C	1.392662	0.162019	-0.178952
C117	C	0.930995	-0.382907	-0.647956
C118	C	1.430995	0.117093	-0.147956
C119	C	0.930991	-0.382924	-0.582523
C120	C	1.430991	0.117076	-0.082523
C121	C	0.948905	-0.343485	-0.782867
C122	C	1.448905	0.156515	-0.282867
C123	C	0.948910	-0.343463	-0.848299
C124	C	1.448910	0.156537	-0.348299
C125	C	0.892674	-0.337933	-0.880771
C126	C	1.392674	0.162067	-0.380771
C127	C	0.836431	-0.332410	-0.847802
C128	C	1.336431	0.167590	-0.347802
C129	C	0.836427	-0.332427	-0.782369
C130	C	1.336427	0.167573	-0.282369
C131	C	0.892670	-0.337968	-0.749904
C132	C	1.392670	0.162032	-0.249904
C133	C	0.854338	-0.292999	-0.982711
C134	C	1.354338	0.207001	-0.482711
C135	C	0.854335	-0.292991	-1.048147
C136	C	1.354335	0.207009	-0.548147
C137	C	0.931015	-0.382811	-1.051595
C138	C	1.431015	0.117189	-0.551595
C139	C	0.931012	-0.382823	-0.986160
C140	C	1.431012	0.117177	-0.486160
C141	C	0.892675	-0.337913	-0.951722
C142	C	1.392675	0.162087	-0.451722
C143	C	0.892568	-0.338069	-0.152235
C144	C	1.392568	0.161931	0.347765
C145	C	0.892675	-0.337890	-0.082587
C146	C	1.392675	0.162110	0.417413
H147	H	0.657166	-0.256531	-0.239274
H148	H	1.157166	0.243469	0.260726
H149	H	0.452536	-0.327899	-0.212212
H150	H	0.952536	0.172101	0.287788
Br151	Br	0.760106	-0.324897	-0.891863
Br152	Br	1.260106	0.175103	-0.391863
H153	H	0.955093	-0.605407	-0.252558
H154	H	1.455093	-0.105407	0.247442
H155	H	0.823121	-0.256431	-0.954670
H156	H	1.323121	0.243569	-0.454670
H157	H	0.830183	-1.070035	-0.377510
H158	H	1.330183	-0.570035	0.122490
H159	H	0.950073	-0.738474	-0.257644
H160	H	1.450073	-0.238474	0.242356
Br161	Br	0.760102	-0.324934	-0.737628
Br162	Br	1.260102	0.175066	-0.237628
Br163	Br	0.782094	-0.758472	-0.425355
Br164	Br	1.282094	-0.258472	0.074645
H165	H	0.333259	-0.348275	-0.417838
H166	H	0.833259	0.151725	0.082162
Br167	Br	1.003191	-0.916967	-0.204720
Br168	Br	1.503191	-0.416967	0.295280
H169	H	0.975642	-1.069968	-0.232280
H170	H	1.475642	-0.569968	0.267720
Br171	Br	0.814190	-0.917069	-0.393395
Br172	Br	1.314190	-0.417069	0.106605
H173	H	0.823117	-0.256415	-1.073376
H174	H	1.323117	0.243585	-0.573376
Br175	Br	0.788620	-0.585573	-0.418754
Br176	Br	1.288620	-0.085573	0.081246
Br177	Br	0.983044	-0.443752	-1.098333
Br178	Br	1.483044	0.056248	-0.598333
H179	H	0.944794	-0.825255	-0.262968
H180	H	1.444794	-0.325255	0.237032
H181	H	0.840482	-0.850194	-0.367101
H182	H	1.340482	-0.350194	0.132899
Br183	Br	1.025231	-0.350999	-0.738804
Br184	Br	1.525231	0.149001	-0.238804
Br185	Br	0.802291	-0.232150	-0.532338
Br186	Br	1.302291	0.267850	-0.032338
Br187	Br	0.513576	-0.444134	-0.413292
Br188	Br	1.013576	0.055866	0.086708
H189	H	0.823109	-0.256502	-0.669743
H190	H	1.323109	0.243498	-0.169743
H191	H	0.962227	-0.419398	-0.960929
H192	H	1.462227	0.080602	-0.460929
H193	H	0.994706	-0.347958	-0.875137
H194	H	1.494706	0.152042	-0.375137
H195	H	0.962213	-0.419463	-0.676005
H196	H	1.462213	0.080537	-0.176005
H197	H	0.128635	-0.419625	-0.390793
H198	H	0.628635	0.080375	0.109207
H199	H	0.650973	-0.419753	-0.390600
H200	H	1.150973	0.080247	0.109400
Br201	Br	0.264178	-0.444085	-0.413379
Br202	Br	0.764178	0.055915	0.086621
Br203	Br	0.469651	-0.351364	-0.448548
Br204	Br	0.969651	0.148636	0.051452
Br205	Br	0.117988	-0.231996	-0.216820
Br206	Br	0.617988	0.268004	0.283180
H207	H	0.962208	-0.419501	-0.557293
H208	H	1.462208	0.080499	-0.057293
Br209	Br	0.316154	-0.324818	-0.181503
Br210	Br	0.816154	0.175182	0.318497
H211	H	0.538453	-0.256515	-0.239316
H212	H	1.038453	0.243485	0.260684
Br213	Br	0.272219	-0.232033	-0.216767
Br214	Br	0.772219	0.267967	0.283233
