data_functionalizedCrystal
_audit_creation_method	'MofGen! by Chris Wilmer'
_symmetry_space_group_name_H-M	'P1'
_symmetry_Int_Tables_number	1
_symmetry_cell_setting	triclinic
loop_
_symmetry_equiv_pos_as_xyz
  x,y,z
_cell_length_a	12.827893
_cell_length_b	18.101395
_cell_length_c	12.827885
_cell_angle_alpha	90.032375
_cell_angle_beta	90.019272
_cell_angle_gamma	90.031075
loop_
_atom_site_label
_atom_site_type_symbol
_atom_site_fract_x
_atom_site_fract_y
_atom_site_fract_z
Zn1	Zn	1.597556	-0.294794	0.590830
Zn2	Zn	2.097556	0.205206	1.090830
Zn3	Zn	1.597402	-0.418654	0.416082
Zn4	Zn	2.097402	0.081346	0.916082
Zn5	Zn	1.422797	-0.294830	0.416103
Zn6	Zn	1.922797	0.205170	0.916103
Zn7	Zn	1.422734	-0.418598	0.590782
Zn8	Zn	1.922734	0.081402	1.090782
O9	O	1.510122	-0.356719	0.503449
O10	O	2.010122	0.143281	1.003449
O11	O	1.743771	-0.311233	0.567660
O12	O	2.243771	0.188767	1.067660
O13	O	1.574202	-0.402266	0.269849
O14	O	2.074202	0.097734	0.769849
O15	O	1.446070	-0.191193	0.439310
O16	O	1.946070	0.308807	0.939310
O17	O	1.743658	-0.402231	0.439274
O18	O	2.243658	0.097769	0.939274
O19	O	1.574464	-0.191166	0.567681
O20	O	2.074464	0.308834	1.067681
O21	O	1.445920	-0.311294	0.269865
O22	O	1.945920	0.188706	0.769865
O23	O	1.276553	-0.311241	0.439264
O24	O	1.776553	0.188759	0.939264
O25	O	1.445963	-0.402137	0.737025
O26	O	1.945963	0.097863	1.237025
O27	O	1.276507	-0.402172	0.567600
O28	O	1.776507	0.097828	1.067600
O29	O	1.574403	-0.311179	0.737060
O30	O	2.074403	0.188821	1.237060
O31	O	1.574141	-0.522279	0.439228
O32	O	2.074141	-0.022279	0.939228
O33	O	1.445814	-0.522239	0.567579
O34	O	1.945814	-0.022239	1.067579
C35	C	1.238612	-0.356705	0.503430
C36	C	1.738612	0.143295	1.003430
C37	C	1.122459	-0.356717	0.503446
C38	C	1.622459	0.143283	1.003446
C39	C	1.070679	-0.401783	0.566852
C40	C	1.570679	0.098217	1.066852
C41	C	0.950629	-0.401796	0.566871
C42	C	1.450629	0.098204	1.066871
C43	C	1.509982	-0.549130	0.503419
C44	C	2.009982	-0.049130	1.003419
C45	C	1.510018	-0.631444	0.503440
C46	C	2.010018	-0.131444	1.003440
C47	C	1.510247	-0.930535	0.503497
C48	C	2.010247	-0.430535	1.003497
C49	C	1.429695	-0.899215	0.584452
C50	C	1.929695	-0.399215	1.084452
C51	C	1.429312	-0.813597	0.584199
C52	C	1.929312	-0.313597	1.084199
C53	C	1.510134	-0.782152	0.503470
C54	C	2.010134	-0.282152	1.003470
C55	C	1.480314	-0.813311	0.393335
C56	C	1.980314	-0.313311	0.893335
C57	C	1.479795	-0.898956	0.393820
C58	C	1.979795	-0.398956	0.893820
C59	C	1.620796	-0.898877	0.531706
C60	C	2.120796	-0.398877	1.031706
C61	C	1.620146	-0.813226	0.534121
C62	C	2.120146	-0.313226	1.034121
C63	C	1.510071	-0.698293	0.503448
C64	C	2.010071	-0.198293	1.003448
C65	C	1.510307	-1.014394	0.503511
C66	C	2.010307	-0.514394	1.003511
C67	C	1.782692	-0.356734	0.503470
C68	C	2.282692	0.143266	1.003470
C69	C	1.898845	-0.356740	0.503479
C70	C	2.398845	0.143260	1.003479
C71	C	1.510193	-0.356648	0.776020
C72	C	2.010193	0.143352	1.276020
C73	C	1.510224	-0.356618	0.892173
C74	C	2.010224	0.143382	1.392173
C75	C	1.510291	-0.163557	0.503503
C76	C	2.010291	0.336443	1.003503
C77	C	1.510363	-0.081243	0.503526
C78	C	2.010363	0.418757	1.003526
C79	C	1.510111	-0.356737	0.231940
C80	C	2.010111	0.143263	0.731940
C81	C	1.510284	-0.356558	0.115787
C82	C	2.010284	0.143442	0.615787
C83	C	1.573787	-0.311600	0.943975
C84	C	2.073787	0.188400	1.443975
C85	C	1.573820	-0.311568	1.064025
C86	C	2.073820	0.188432	1.564025
H87	H	1.077913	-0.318141	0.449179
H88	H	1.577913	0.181859	0.949179
Br89	Br	1.293953	-0.935214	0.553730
Br90	Br	1.793953	-0.435214	1.053730
H91	H	0.943368	-0.318158	0.449188
H92	H	1.443368	0.181842	0.949188
H93	H	1.447969	-0.792528	0.665863
H94	H	1.947969	-0.292528	1.165863
Br95	Br	1.460474	-0.933455	0.721011
Br96	Br	1.960474	-0.433455	1.221011
H97	H	1.400359	-0.791927	0.369010
H98	H	1.900359	-0.291927	0.869010
Br99	Br	1.664422	-0.247375	0.869771
Br100	Br	2.164422	0.252625	1.369771
H101	H	1.347370	-0.793175	0.565514
H102	H	1.847370	-0.293175	1.065514
Br103	Br	0.876418	-0.466114	0.657346
Br104	Br	1.376418	0.033886	1.157346
H105	H	1.398984	-0.919000	0.369923
H106	H	1.898984	-0.419000	0.869923
Br107	Br	1.575024	-0.779370	0.290054
Br108	Br	2.075024	-0.279370	0.790054
Br109	Br	1.573328	-0.933497	0.289852
Br110	Br	2.073328	-0.433497	0.789852
H111	H	1.647982	-0.920420	0.610647
H112	H	2.147982	-0.420420	1.110647
H113	H	1.642633	-0.792857	0.615174
H114	H	2.142633	-0.292857	1.115174
Br115	Br	1.725478	-0.777536	0.443017
Br116	Br	2.225478	-0.277536	0.943017
Br117	Br	1.144914	-0.466080	0.657311
Br118	Br	1.644914	0.033920	1.157311
H119	H	1.680811	-0.919130	0.472743
H120	H	2.180811	-0.419130	0.972743
Br121	Br	1.664536	-0.247331	1.138268
Br122	Br	2.164536	0.252669	1.638268
Br123	Br	1.419582	-0.420809	1.041551
Br124	Br	1.919582	0.079191	1.541551
H125	H	1.455822	-0.395130	0.936700
H126	H	1.955822	0.104870	1.436700
