data_functionalizedCrystal
_audit_creation_method	'MofGen! by Chris Wilmer'
_symmetry_space_group_name_H-M	'P1'
_symmetry_Int_Tables_number	1
_symmetry_cell_setting	triclinic
loop_
_symmetry_equiv_pos_as_xyz
  x,y,z
_cell_length_a	16.625548
_cell_length_b	19.805406
_cell_length_c	19.805399
_cell_angle_alpha	90.014352
_cell_angle_beta	90.018609
_cell_angle_gamma	90.001035
loop_
_atom_site_label
_atom_site_type_symbol
_atom_site_fract_x
_atom_site_fract_y
_atom_site_fract_z
Zn1	Zn	1.232791	-0.269460	0.382764
Zn2	Zn	1.732791	0.230540	0.882764
Zn3	Zn	1.232752	-0.382648	0.269602
Zn4	Zn	1.732752	0.117352	0.769602
Zn5	Zn	1.097957	-0.269480	0.269591
Zn6	Zn	1.597957	0.230520	0.769591
Zn7	Zn	1.097976	-0.382614	0.382751
Zn8	Zn	1.597976	0.117386	0.882751
O9	O	1.165369	-0.326050	0.326177
O10	O	1.665369	0.173950	0.826177
O11	O	1.345618	-0.284480	0.367764
O12	O	1.845618	0.215520	0.867764
O13	O	1.214847	-0.367659	0.174884
O14	O	1.714847	0.132341	0.674884
O15	O	1.115852	-0.174761	0.284605
O16	O	1.615852	0.325239	0.784605
O17	O	1.345589	-0.367639	0.284624
O18	O	1.845589	0.132361	0.784624
O19	O	1.214914	-0.174746	0.367753
O20	O	1.714914	0.325254	0.867753
O21	O	1.115814	-0.284515	0.174876
O22	O	1.615814	0.215485	0.674876
O23	O	0.985127	-0.284482	0.284592
O24	O	1.485127	0.215518	0.784592
O25	O	1.115884	-0.367581	0.477469
O26	O	1.615884	0.132419	0.977469
O27	O	0.985141	-0.367601	0.367730
O28	O	1.485141	0.132399	0.867730
O29	O	1.214932	-0.284447	0.477479
O30	O	1.714932	0.215553	0.977479
O31	O	1.214865	-0.477360	0.284611
O32	O	1.714865	0.022640	0.784611
O33	O	1.115846	-0.477335	0.367741
O34	O	1.615846	0.022665	0.867741
C35	C	1.165375	-0.501906	0.326190
C36	C	1.665375	-0.001906	0.826190
C37	C	1.165451	-0.577138	0.326219
C38	C	1.665451	-0.077138	0.826219
C39	C	0.955878	-0.326041	0.326158
C40	C	1.455878	0.173959	0.826158
C41	C	0.866257	-0.326053	0.326166
C42	C	1.366257	0.173947	0.826166
C43	C	1.165414	-0.326008	0.502720
C44	C	1.665414	0.173992	1.002720
C45	C	1.165434	-0.325990	0.577952
C46	C	1.665434	0.174010	1.077952
C47	C	0.538081	-0.326057	0.326195
C48	C	1.038081	0.173943	0.826195
C49	C	0.629390	-0.326054	0.326185
C50	C	1.129390	0.173946	0.826185
C51	C	0.702166	-0.326055	0.326180
C52	C	1.202166	0.173945	0.826180
C53	C	0.793481	-0.326052	0.326171
C54	C	1.293481	0.173948	0.826171
C55	C	1.375678	-0.326061	0.326197
C56	C	1.875678	0.173939	0.826197
C57	C	1.465299	-0.326065	0.326205
C58	C	1.965299	0.173935	0.826205
C59	C	1.165385	-0.149508	0.326179
C60	C	1.665385	0.350492	0.826179
C61	C	1.165392	-0.074276	0.326180
C62	C	1.665392	0.425724	0.826180
C63	C	1.113822	-0.038938	0.282891
C64	C	1.613822	0.461062	0.782891
C65	C	1.113827	0.031750	0.282898
C66	C	1.613827	0.531750	0.782898
C67	C	1.165407	0.067100	0.326191
C68	C	1.665407	0.567100	0.826191
C69	C	1.216979	0.031758	0.369485
C70	C	1.716979	0.531758	0.869485
C71	C	1.216969	-0.038930	0.369481
C72	C	1.716969	0.461070	0.869481
C73	C	1.217018	0.316831	0.369505
C74	C	1.717018	0.816831	0.869505
C75	C	1.217026	0.387523	0.369505
C76	C	1.717026	0.887523	0.869505
C77	C	1.113877	0.387510	0.282922
C78	C	1.613877	0.887510	0.782922
C79	C	1.113867	0.316823	0.282918
C80	C	1.613867	0.816823	0.782918
C81	C	1.165435	0.281487	0.326214
C82	C	1.665435	0.781487	0.826214
C83	C	1.165428	0.204839	0.326206
C84	C	1.665428	0.704839	0.826206
C85	C	1.165418	0.143747	0.326196
C86	C	1.665418	0.643747	0.826196
C87	C	1.165370	-0.326044	0.150321
C88	C	1.665370	0.173956	0.650321
C89	C	1.165507	-0.325872	0.075090
C90	C	1.665507	0.174128	0.575090
C91	C	1.217009	-0.282700	0.613302
C92	C	1.717009	0.217300	1.113302
C93	C	1.217017	-0.282680	0.683991
C94	C	1.717017	0.217320	1.183991
C95	C	1.165454	-0.325954	0.719328
C96	C	1.665454	0.174046	1.219328
C97	C	1.113872	-0.369246	0.683972
C98	C	1.613872	0.130754	1.183972
C99	C	1.113861	-0.369262	0.613285
C100	C	1.613861	0.130738	1.113285
C101	C	1.113918	-0.369183	0.969046
C102	C	1.613918	0.130817	1.469046
C103	C	1.113935	-0.369166	1.039738
C104	C	1.613935	0.130834	1.539738
C105	C	1.217074	-0.282601	1.039752
C106	C	1.717074	0.217399	1.539752
C107	C	1.217063	-0.282617	0.969064
C108	C	1.717063	0.217383	1.469064
C109	C	1.165479	-0.325906	0.933715
C110	C	1.665479	0.174094	1.433715
C111	C	1.165470	-0.325926	0.857067
C112	C	1.665470	0.174074	1.357067
C113	C	1.165466	-0.325938	0.795975
C114	C	1.665466	0.174062	1.295975
H115	H	1.071823	-0.067715	0.247634
H116	H	1.571823	0.432285	0.747634
H117	H	1.071943	-0.404406	1.068507
H118	H	1.571943	0.095594	1.568507
H119	H	1.259029	0.416304	0.404762
H120	H	1.759029	0.916304	0.904762
H121	H	1.259074	-0.247351	1.068541
H122	H	1.759074	0.252649	1.568541
H123	H	1.258973	0.060544	0.404739
H124	H	1.758973	0.560544	0.904739
H125	H	1.259018	0.288069	0.404752
H126	H	1.759018	0.788069	0.904752
N127	N	1.269680	-0.238485	0.577221
N128	N	1.769680	0.261515	1.077221
N129	N	1.264335	-0.176028	0.585120
N130	N	1.764335	0.323972	1.085120
H131	H	1.301533	-0.144797	0.559639
H132	H	1.801533	0.355203	1.059639
H133	H	1.071927	-0.404442	0.940273
H134	H	1.571927	0.095558	1.440273
H135	H	1.071886	-0.404479	0.712749
H136	H	1.571886	0.095521	1.212749
N137	N	1.061167	-0.413482	0.577184
N138	N	1.561167	0.086518	1.077184
N139	N	1.015130	-0.452115	0.608740
N140	N	1.515130	0.047885	1.108740
H141	H	0.977909	-0.483345	0.583245
H142	H	1.477909	0.016655	1.083245
H143	H	1.259017	-0.247430	0.712770
H144	H	1.759017	0.252570	1.212770
H145	H	1.258956	-0.067700	0.404736
H146	H	1.758956	0.432300	0.904736
N147	N	1.269744	-0.238414	0.932980
N148	N	1.769744	0.261586	1.432980
N149	N	1.315791	-0.199764	0.964552
N150	N	1.815791	0.300236	1.464552
H151	H	1.352998	-0.168543	0.939069
H152	H	1.852998	0.331457	1.439069
H153	H	1.071835	0.060521	0.247649
H154	H	1.571835	0.560521	0.747649
N155	N	1.061179	0.280726	0.238686
N156	N	1.561179	0.780726	0.738686
N157	N	1.015136	0.312286	0.200039
N158	N	1.515136	0.812286	0.700039
H159	H	0.977922	0.286793	0.168800
H160	H	1.477922	0.786793	0.668800
H161	H	1.071884	0.416289	0.247670
H162	H	1.571884	0.916289	0.747670
