data_functionalizedCrystal
_audit_creation_method	'MofGen! by Chris Wilmer'
_symmetry_space_group_name_H-M	'P1'
_symmetry_Int_Tables_number	1
_symmetry_cell_setting	triclinic
loop_
_symmetry_equiv_pos_as_xyz
  x,y,z
_cell_length_a	16.109295
_cell_length_b	9.730223
_cell_length_c	16.109301
_cell_angle_alpha	89.997247
_cell_angle_beta	83.460334
_cell_angle_gamma	90.002726
loop_
_atom_site_label
_atom_site_type_symbol
_atom_site_fract_x
_atom_site_fract_y
_atom_site_fract_z
O1	O	-1.103130	0.114201	-0.106841
O2	O	-0.861067	0.114225	-0.120146
O3	O	-0.988748	0.114198	0.007538
O4	O	-0.975449	0.114227	-0.234525
O5	O	-0.988747	-0.114382	0.007534
O6	O	-0.861066	-0.114355	-0.120149
O7	O	-1.103129	-0.114379	-0.106845
Zn8	Zn	-0.982097	-0.150659	-0.113497
Zn9	Zn	-0.982099	0.150505	-0.113493
O10	O	-0.975448	-0.114353	-0.234528
C11	C	-0.830092	-0.000063	-0.119609
C12	C	-0.737796	-0.000054	-0.117996
C13	C	-0.515523	-0.000060	-0.190008
C14	C	-0.428803	-0.000068	-0.188486
C15	C	-0.448677	-0.000081	-0.036996
C16	C	-0.535396	-0.000082	-0.038520
C17	C	-0.568816	-0.000065	-0.115028
C18	C	-0.395377	-0.000072	-0.111982
C19	C	-0.301351	-0.000081	-0.110331
C20	C	-0.662849	-0.000058	-0.116679
N21	N	-0.982102	-0.356196	-0.113499
C22	C	-1.038653	-0.428134	-0.056980
C23	C	-1.038651	-0.572016	-0.056970
C24	C	-0.925543	-0.572011	-0.170006
C25	C	-0.925542	-0.428131	-0.170011
C26	C	-1.095213	-0.356198	-0.000469
C27	C	-1.151770	-0.428136	0.056054
C28	C	-1.151768	-0.572019	0.056065
C29	C	-1.095209	-0.643964	-0.000448
C30	C	-0.134104	-0.000088	-0.107386
C31	C	-0.226397	-0.000083	-0.109014
C32	C	-0.988209	-0.000093	0.038511
C33	C	-0.986594	-0.000094	0.130806
N34	N	-0.982101	0.356041	-0.113484
C35	C	-0.975987	-0.000059	-0.265501
C36	C	-0.977602	-0.000048	-0.357796
C37	C	-1.058602	-0.000080	0.353080
C38	C	-1.057078	-0.000068	0.439800
C39	C	-0.905588	-0.000059	0.419923
C40	C	-0.907113	-0.000060	0.333204
C41	C	-0.983622	-0.000078	0.299785
C42	C	-0.980573	-0.000065	0.473225
C43	C	-0.978920	-0.000052	0.567251
C44	C	-0.985276	-0.000088	0.205754
H45	H	-0.385414	-0.000067	-0.249542
H46	H	-0.879492	-0.369558	-0.216034
H47	H	-0.846052	-0.000055	0.289809
H48	H	-1.197812	-0.630590	0.102093
O49	O	-1.129857	-0.000255	0.491656
C50	C	-1.216078	-0.118710	0.601073
C51	C	-1.133613	-0.118659	0.542408
H52	H	-1.219150	-0.214443	0.642108
H53	H	-1.219162	-0.023110	0.642219
H54	H	-1.271006	-0.118653	0.562271
H55	H	-1.078639	-0.118764	0.581143
H56	H	-1.130602	-0.214251	0.501258
O57	O	-1.095336	-0.783733	-0.000347
C58	C	-1.157349	-0.990211	0.061732
C59	C	-1.157307	-0.831930	0.061694
H60	H	-1.207435	-1.029226	0.111899
H61	H	-1.171029	-1.029367	-0.002010
H62	H	-1.093564	-1.029220	0.075372
H63	H	-1.221075	-0.792804	0.048090
H64	H	-1.143580	-0.792868	0.125441
H65	H	-0.843297	-0.000047	0.447144
O66	O	-1.206577	-0.358131	0.111013
C67	C	-1.224266	-0.195827	0.224627
C68	C	-1.162114	-0.274975	0.162400
H69	H	-1.188342	-0.128599	0.266201
H70	H	-1.265799	-0.128357	0.188800
H71	H	-1.264678	-0.272020	0.264986
H72	H	-1.121648	-0.198882	0.122024
H73	H	-1.120639	-0.342467	0.198277
O74	O	-0.416307	0.000101	0.037371
C75	C	-0.406716	0.118567	0.167287
C76	C	-0.443444	0.118509	0.083103
H77	H	-0.428628	0.214304	0.204278
H78	H	-0.428690	0.022971	0.204400
H79	H	-0.335583	0.118508	0.155475
H80	H	-0.514578	0.118617	0.094838
H81	H	-0.421405	0.214097	0.046016
O82	O	-0.547851	-0.000115	-0.264397
C83	C	-0.518981	-0.000031	-0.414492
C84	C	-0.482263	0.000005	-0.330304
H85	H	-0.465971	0.000095	-0.467800
H86	H	-0.559056	-0.095714	-0.419048
H87	H	-0.559109	0.095607	-0.418951
H88	H	-0.442097	-0.095568	-0.325788
H89	H	-0.442235	0.095751	-0.325784
H90	H	-0.578790	-0.000090	0.022542
H91	H	-1.095221	-0.239042	-0.000473
H92	H	-0.879496	-0.630598	-0.216017
O93	O	-1.132992	-0.000019	0.320754
C94	C	-1.283087	-0.000088	0.349627
C95	C	-1.198897	-0.000133	0.386343
H96	H	-1.336393	-0.000209	0.402637
H97	H	-1.287640	0.095596	0.309552
H98	H	-1.287550	-0.095725	0.309499
H99	H	-1.194377	0.095439	0.426509
H100	H	-1.194380	-0.095880	0.426370
