data_functionalizedCrystal
_audit_creation_method	'MofGen! by Chris Wilmer'
_symmetry_space_group_name_H-M	'P1'
_symmetry_Int_Tables_number	1
_symmetry_cell_setting	triclinic
loop_
_symmetry_equiv_pos_as_xyz
  x,y,z
_cell_length_a	21.395364
_cell_length_b	21.295418
_cell_length_c	21.395355
_cell_angle_alpha	89.981445
_cell_angle_beta	89.974323
_cell_angle_gamma	90.027752
loop_
_atom_site_label
_atom_site_type_symbol
_atom_site_fract_x
_atom_site_fract_y
_atom_site_fract_z
Zn1	Zn	-0.957846	0.250782	0.354280
Zn2	Zn	-0.957743	0.356034	0.249502
Zn3	Zn	-0.853061	0.250771	0.249515
Zn4	Zn	-0.853025	0.356007	0.354241
O5	O	-0.905419	0.303399	0.301884
O6	O	-1.045510	0.264760	0.340392
O7	O	-0.943829	0.342077	0.161826
O8	O	-0.867019	0.162684	0.263434
O9	O	-1.045434	0.342088	0.263413
O10	O	-0.944004	0.162692	0.340404
O11	O	-0.866919	0.264742	0.161835
O12	O	-0.765378	0.264715	0.263395
O13	O	-0.866957	0.342042	0.441924
O14	O	-0.765351	0.342031	0.340337
O15	O	-0.943969	0.264734	0.441953
O16	O	-0.943793	0.444120	0.263375
O17	O	-0.866857	0.444100	0.340325
C18	C	-0.742631	0.303369	0.301864
C19	C	-0.672990	0.303372	0.301870
C20	C	-0.171232	0.263207	0.342027
C21	C	-0.236668	0.263204	0.342028
C22	C	-0.269351	0.303399	0.301886
C23	C	-0.236594	0.343610	0.261750
C24	C	-0.171160	0.343616	0.261755
C25	C	-0.372988	0.308276	0.245420
C26	C	-0.438421	0.308266	0.245415
C27	C	-0.471172	0.303384	0.301872
C28	C	-0.438483	0.298499	0.358337
C29	C	-0.373049	0.298505	0.358341
C30	C	-0.340304	0.303397	0.301877
C31	C	-0.574874	0.263175	0.342010
C32	C	-0.640311	0.263177	0.342012
C33	C	-0.640236	0.343579	0.261728
C34	C	-0.574800	0.343581	0.261732
C35	C	-0.542123	0.303375	0.301871
C36	C	-0.905327	0.466950	0.301858
C37	C	-0.905346	0.536918	0.301868
C38	C	-0.905471	0.303386	0.465308
C39	C	-0.905493	0.303380	0.534949
C40	C	-0.068842	0.303421	0.301901
C41	C	-0.138483	0.303411	0.301894
C42	C	-0.945515	1.036327	0.342027
C43	C	-0.945503	0.970585	0.342019
C44	C	-0.905445	0.937758	0.301910
C45	C	-0.865408	0.970679	0.261794
C46	C	-0.865426	1.036420	0.261800
N47	N	-0.850575	0.834582	0.297043
N48	N	-0.850560	0.772130	0.297042
C49	C	-0.905390	0.739683	0.301891
N50	N	-0.960237	0.772047	0.306753
N51	N	-0.960251	0.834504	0.306758
C52	C	-0.905422	0.866472	0.301899
C53	C	-0.945414	0.635484	0.341991
C54	C	-0.945403	0.569741	0.341978
C55	C	-0.865303	0.569836	0.261757
C56	C	-0.865320	0.635578	0.261766
C57	C	-0.905374	0.668399	0.301887
C58	C	-0.905504	1.139208	0.301919
C59	C	-0.905481	1.069240	0.301920
C60	C	-0.905403	0.303366	0.139097
C61	C	-0.905502	0.303194	0.069456
C62	C	-0.945591	0.263125	0.567678
C63	C	-0.945590	0.263097	0.633114
C64	C	-0.905498	0.303338	0.665817
C65	C	-0.865392	0.343596	0.633080
C66	C	-0.865389	0.343618	0.567646
C67	C	-0.900519	0.360017	0.769483
C68	C	-0.900526	0.359997	0.834916
C69	C	-0.905501	0.303271	0.867638
C70	C	-0.910484	0.246564	0.834920
C71	C	-0.910481	0.246585	0.769486
C72	C	-0.905496	0.303318	0.736770
C73	C	-0.945601	0.262982	0.971320
C74	C	-0.945596	0.262954	1.036757
C75	C	-0.865400	0.343459	1.036722
C76	C	-0.865402	0.343481	0.971287
C77	C	-0.905506	0.303244	0.938590
H78	H	-0.548267	0.230437	0.374694
H79	H	-0.978242	0.230313	0.659767
H80	H	-0.666974	0.230440	0.374697
O81	O	-0.915854	0.185428	0.734195
H82	H	-0.876033	0.154509	0.746730
O83	O	-0.988615	0.670894	0.385255
H84	H	-1.037793	0.658252	0.374552
O85	O	-0.988842	0.219722	0.532416
H86	H	-0.982109	0.226502	0.481416
O87	O	-0.271998	0.219832	0.385311
H88	H	-0.301814	0.248043	0.417143
H89	H	-0.896299	0.406198	0.742846
O90	O	-0.988600	0.534243	0.385229
H91	H	-0.977833	0.546840	0.434396
H92	H	-0.832690	0.543109	0.229097
O93	O	-0.988685	0.935076	0.385279
H94	H	-0.960613	0.905129	0.417119
O95	O	-0.822138	0.387041	0.532344
H96	H	-0.828870	0.380293	0.481350
O97	O	-0.271845	0.386960	0.218452
H98	H	-0.238076	0.414922	0.190548
O99	O	-0.822245	1.071920	0.218536
H100	H	-0.828990	1.123149	0.225275
H101	H	-0.832717	0.662377	0.229109
H102	H	-0.346435	0.294529	0.404317
H103	H	-0.978135	1.063045	0.374692
H104	H	-0.666846	0.376311	0.229048
O105	O	-0.337675	0.313526	0.184516
H106	H	-0.307882	0.271344	0.178209
O107	O	-0.822207	0.935277	0.218529
H108	H	-0.773029	0.947932	0.229220
H109	H	-0.978248	0.230169	1.063404
H110	H	-0.914537	0.200372	0.861561
O111	O	-0.988845	0.219580	0.936046
H112	H	-1.016721	0.191573	0.969801
H113	H	-0.832750	0.376216	1.063349
H114	H	-0.832754	0.376266	0.944638
H115	H	-0.896472	0.406171	0.861550
O116	O	-0.822145	0.386994	0.668351
H117	H	-0.832849	0.436406	0.655794
H118	H	-0.144631	0.230471	0.374715
H119	H	-0.548136	0.376317	0.229049
O120	O	-0.473793	0.293233	0.419239
H121	H	-0.503584	0.335413	0.425564
O122	O	-0.473680	0.313535	0.184520
H123	H	-0.461098	0.358296	0.161076
O124	O	-0.135831	0.386973	0.218460
H125	H	-0.169548	0.414921	0.190542
