data_functionalizedCrystal
_audit_creation_method	'MofGen! by Chris Wilmer'
_symmetry_space_group_name_H-M	'P1'
_symmetry_Int_Tables_number	1
_symmetry_cell_setting	triclinic
loop_
_symmetry_equiv_pos_as_xyz
  x,y,z
_cell_length_a	16.974897
_cell_length_b	23.532357
_cell_length_c	15.455313
_cell_angle_alpha	92.642146
_cell_angle_beta	83.675220
_cell_angle_gamma	83.114936
loop_
_atom_site_label
_atom_site_type_symbol
_atom_site_fract_x
_atom_site_fract_y
_atom_site_fract_z
O1	O	1.055609	0.067575	-0.146163
O2	O	0.824548	0.077372	-0.129964
O3	O	0.947066	-0.010453	-0.138535
O4	O	0.933091	0.155401	-0.137591
O5	O	0.940060	-0.005451	0.006217
O6	O	0.817542	0.082374	0.014789
O7	O	1.048603	0.072577	-0.001411
Cu8	Cu	0.932433	0.077932	0.019906
Cu9	Cu	0.940718	0.072017	-0.151280
O10	O	0.926085	0.160402	0.007161
C11	C	0.791489	0.079592	-0.055515
C12	C	0.703424	0.078747	-0.049340
C13	C	0.665862	0.075625	-0.125337
C14	C	0.583113	0.074841	-0.119522
C15	C	0.537928	0.077175	-0.037709
C16	C	0.575495	0.080298	0.038293
C17	C	0.658242	0.081086	0.032478
C18	C	0.290041	0.075114	-0.011855
C19	C	0.207289	0.074323	-0.006045
C20	C	0.214912	0.068868	-0.163861
C21	C	0.297661	0.069653	-0.169670
C22	C	0.335221	0.072779	-0.093667
N23	N	0.453345	0.076371	-0.031764
N24	N	0.419801	0.073586	-0.099613
C25	C	0.943213	-0.029169	-0.066132
C26	C	0.942162	-0.092388	-0.066050
C27	C	0.939384	-0.487134	-0.144539
C28	C	0.938385	-0.546534	-0.144474
O29	O	0.941090	-0.579570	-0.211541
N30	N	0.934071	-0.573519	-0.065536
C31	C	0.930747	-0.541100	0.013343
O32	O	0.926985	-0.569507	0.080492
C33	C	0.931740	-0.481700	0.013277
C34	C	0.936063	-0.454719	-0.065666
C35	C	0.943706	-0.460152	-0.223476
C36	C	0.944706	-0.400756	-0.223541
C37	C	0.941385	-0.368341	-0.144669
C38	C	0.937063	-0.395323	-0.065731
C39	C	0.928411	-0.449281	0.092156
C40	C	0.929404	-0.389878	0.092083
C41	C	0.933727	-0.362896	0.013139
C42	C	0.934743	-0.303512	0.013076
N43	N	0.939057	-0.276526	-0.065862
C44	C	0.942378	-0.308941	-0.144734
C45	C	0.928660	-0.665844	0.013475
C46	C	0.927673	-0.725243	0.013541
C47	C	0.935309	-0.730673	-0.144276
C48	C	0.936303	-0.671273	-0.144342
C49	C	0.932975	-0.638859	-0.065463
C50	C	0.944479	-0.184204	-0.144865
C51	C	0.945483	-0.124803	-0.144923
C52	C	0.937842	-0.119378	0.012894
C53	C	0.936843	-0.178775	0.012953
C54	C	0.940159	-0.211186	-0.065934
O55	O	0.932037	-0.270439	0.080109
O56	O	0.946129	-0.280525	-0.211871
C57	C	1.081661	0.070357	-0.075861
C58	C	1.169727	0.071202	-0.082042
C59	C	0.929938	0.179118	-0.065244
C60	C	0.930989	0.242337	-0.065332
N61	N	0.926611	0.082092	0.140309
N62	N	0.946546	0.067853	-0.271684
C63	C	0.978679	0.044794	0.182060
C64	C	0.974283	0.047946	0.273175
C65	C	0.917823	0.088398	0.322538
C66	C	0.865750	0.125697	0.280781
C67	C	0.870142	0.122542	0.189667
C68	C	0.898865	0.101997	0.595446
C69	C	0.894478	0.105150	0.686565
C70	C	1.003011	0.027398	0.678954
C71	C	1.007402	0.024249	0.587839
C72	C	0.955326	0.061547	0.546090
N73	N	0.913331	0.091621	0.415672
N74	N	0.959815	0.058320	0.452957
H75	H	0.702646	0.073723	-0.191958
H76	H	0.538698	0.082202	0.104907
C77	C	0.173597	0.065441	-0.247458
H78	H	0.212359	0.064163	-0.297015
H79	H	0.135162	0.098232	-0.248029
H80	H	0.147790	0.031808	-0.248914
H81	H	0.948223	-0.378793	-0.287825
C82	C	0.947368	-0.495800	-0.310244
H83	H	0.950090	-0.471216	-0.357258
H84	H	0.900872	-0.514597	-0.310273
H85	H	0.993421	-0.523573	-0.316743
C86	C	0.699563	0.084507	0.116074
H87	H	0.660804	0.085775	0.165632
H88	H	0.725375	0.118135	0.117531
H89	H	0.737995	0.051710	0.116639
C90	C	0.347360	0.067098	-0.259661
H91	H	0.402022	0.068012	-0.252240
H92	H	0.329045	0.099061	-0.290687
H93	H	0.341685	0.032636	-0.291572
H94	H	1.024658	0.011857	0.141875
H95	H	0.949005	-0.102838	-0.209211
C96	C	1.069541	-0.020222	0.533540
H97	H	1.064715	-0.016746	0.473295
H98	H	1.060559	-0.057704	0.549044
H99	H	1.121704	-0.013632	0.544771
C100	C	0.541800	0.071394	-0.203119
H101	H	0.580564	0.070106	-0.252676
H102	H	0.503360	0.104179	-0.203712
H103	H	0.516001	0.037756	-0.204552
C104	C	0.941050	-0.641598	-0.231178
H105	H	0.942881	-0.669415	-0.278138
H106	H	0.987866	-0.623029	-0.237733
H107	H	0.895316	-0.614050	-0.231243
C108	C	0.922924	-0.754920	0.100376
H109	H	0.922809	-0.794940	0.089127
H110	H	0.875247	-0.739572	0.136028
H111	H	0.967796	-0.748562	0.129541
H112	H	0.827742	0.152913	0.155674
H113	H	1.016681	0.017575	0.307169
H114	H	0.170498	0.076240	0.060580
H115	H	0.320613	0.077656	0.050032
H116	H	0.926682	-0.363487	0.156318
H117	H	1.045408	-0.002968	0.712954
C118	C	0.934184	-0.083717	0.099650
H119	H	0.931471	-0.108290	0.146678
H120	H	0.888141	-0.055940	0.106137
H121	H	0.980690	-0.064925	0.099662
H122	H	0.856464	0.132367	0.561461
H123	H	0.938011	-0.757076	-0.208498
H124	H	0.925952	-0.639456	0.077711
H125	H	0.924892	-0.471239	0.156440
C126	C	0.803647	0.170194	0.335076
H127	H	0.808493	0.166736	0.395320
H128	H	0.751468	0.163639	0.323871
H129	H	0.812678	0.207665	0.319541
C130	C	0.832328	0.149619	0.740865
H131	H	0.801925	0.171369	0.702954
H132	H	0.858916	0.174493	0.774430
H133	H	0.797778	0.130416	0.778705
C134	C	0.948149	-0.219851	-0.231639
H135	H	0.950878	-0.195269	-0.278655
H136	H	0.901654	-0.238649	-0.231673
H137	H	0.994202	-0.247624	-0.238128
C138	C	0.932090	-0.208456	0.099788
H139	H	0.930252	-0.180641	0.146751
H140	H	0.977807	-0.236013	0.099856
H141	H	0.885259	-0.227014	0.106334
