data_functionalizedCrystal
_audit_creation_method	'MofGen! by Chris Wilmer'
_symmetry_space_group_name_H-M	'P1'
_symmetry_Int_Tables_number	1
_symmetry_cell_setting	triclinic
loop_
_symmetry_equiv_pos_as_xyz
  x,y,z
_cell_length_a	17.699083
_cell_length_b	17.699082
_cell_length_c	16.176319
_cell_angle_alpha	89.995130
_cell_angle_beta	90.006703
_cell_angle_gamma	96.717418
loop_
_atom_site_label
_atom_site_type_symbol
_atom_site_fract_x
_atom_site_fract_y
_atom_site_fract_z
O1	O	-1.004079	0.095710	-0.068729
O2	O	-0.783700	0.108163	-0.068733
O3	O	-0.900116	-0.008252	-0.068730
O4	O	-0.887663	0.212126	-0.068733
O5	O	-0.900100	-0.008260	0.068764
O6	O	-0.783684	0.108156	0.068760
O7	O	-1.004063	0.095703	0.068764
Cu8	Cu	-0.893872	0.101929	0.081316
Cu9	Cu	-0.893891	0.101937	-0.081285
O10	O	-0.887647	0.212119	0.068761
C11	C	-0.755495	0.107714	0.000013
C12	C	-0.671477	0.106375	0.000011
C13	C	-0.899662	-0.036453	0.000016
C14	C	-0.898324	-0.120471	0.000011
N15	N	-0.893864	0.101922	0.195681
C16	C	-0.632001	0.105741	0.074959
C17	C	-0.553059	0.104471	0.074960
C18	C	-0.513593	0.103841	0.000011
C19	C	-0.553075	0.104474	-0.074943
C20	C	-0.632017	0.105738	-0.074942
C21	C	-0.234712	0.099375	-0.074945
C22	C	-0.155765	0.098113	-0.074940
C23	C	-0.155755	0.098107	0.074957
C24	C	-0.234696	0.099372	0.074958
C25	C	-0.274172	0.100000	0.000004
C26	C	-0.359770	0.101375	0.000004
C27	C	-0.427995	0.102472	0.000010
C28	C	-0.032268	0.096148	0.000016
C29	C	-0.116288	0.097473	0.000010
C30	C	-0.888101	0.240319	0.000014
C31	C	-0.889439	0.324338	0.000012
C32	C	-0.890077	0.363811	-0.074936
C33	C	-0.891344	0.442753	-0.074937
C34	C	-0.891968	0.482222	0.000011
C35	C	-0.891332	0.442743	0.074965
C36	C	-0.890070	0.363801	0.074966
C37	C	-0.896421	0.761107	0.074967
C38	C	-0.897680	0.840055	0.074961
C39	C	-0.897695	0.840059	-0.074936
C40	C	-0.896433	0.761117	-0.074936
C41	C	-0.895802	0.721645	0.000018
C42	C	-0.894429	0.636046	0.000018
C43	C	-0.893335	0.567820	0.000012
N44	N	-0.893905	0.101938	-0.195651
C45	C	-0.945429	0.050394	0.238947
C46	C	-0.945433	0.050393	0.325494
C47	C	-0.893875	0.101925	0.368774
C48	C	-0.842305	0.153455	0.325502
C49	C	-0.842298	0.153452	0.238957
C50	C	-0.842331	0.153469	0.674530
C51	C	-0.842343	0.153470	0.761082
C52	C	-0.945465	0.050411	0.761068
C53	C	-0.945458	0.050408	0.674523
C54	C	-0.893886	0.101935	0.631258
C55	C	-0.893882	0.101934	0.537414
C56	C	-0.893882	0.101930	0.462617
H57	H	-0.664127	0.106259	0.135991
C58	C	-0.112354	0.097417	-0.157387
H59	H	-0.147171	0.097966	-0.202027
H60	H	-0.075705	0.141044	-0.160504
H61	H	-0.087415	0.052800	-0.160495
C62	C	-0.509637	0.103779	0.157403
H63	H	-0.544447	0.104345	0.202039
H64	H	-0.484698	0.059167	0.160527
H65	H	-0.472986	0.147411	0.160513
H66	H	-0.800308	0.195410	0.203730
C67	C	-0.892016	0.486153	0.157409
H68	H	-0.891462	0.451335	0.202046
H69	H	-0.848388	0.522802	0.160525
H70	H	-0.936632	0.511093	0.160526
C71	C	-1.002184	-0.006261	0.626915
H72	H	-0.994802	0.001125	0.569175
H73	H	-0.994077	-0.056770	0.641099
H74	H	-1.052676	0.001914	0.641093
H75	H	-0.895922	0.728986	-0.135967
C76	C	-0.892051	0.486174	-0.157378
H77	H	-0.892903	0.538840	-0.146647
H78	H	-0.847729	0.479097	-0.188178
H79	H	-0.935973	0.467377	-0.188168
H80	H	-0.889562	0.331682	-0.135968
C81	C	-0.889367	0.320377	0.157407
H82	H	-0.888534	0.267709	0.146673
H83	H	-0.845452	0.339166	0.188205
H84	H	-0.933696	0.327458	0.188199
H85	H	-0.266825	0.099888	0.135988
C86	C	-0.278125	0.100074	-0.157390
H87	H	-0.243311	0.099528	-0.202024
H88	H	-0.314776	0.056449	-0.160511
H89	H	-0.303062	0.144693	-0.160507
H90	H	-0.520936	0.103956	-0.135967
C91	C	-0.675440	0.106441	-0.157385
H92	H	-0.640629	0.105893	-0.202023
H93	H	-0.712092	0.062816	-0.160502
H94	H	-0.700376	0.151060	-0.160500
C95	C	-0.898402	0.883479	-0.157385
H96	H	-0.899252	0.936146	-0.146655
H97	H	-0.854079	0.876400	-0.188182
H98	H	-0.942323	0.864684	-0.188177
C99	C	-0.785625	0.210165	0.626947
H100	H	-0.793000	0.202785	0.569204
H101	H	-0.793765	0.260662	0.641130
H102	H	-0.735124	0.202019	0.641138
H103	H	-0.800322	0.195410	0.360746
H104	H	-0.898184	0.872189	0.135996
C105	C	-1.002187	-0.006277	0.808661
H106	H	-0.994804	0.001097	0.866403
H107	H	-1.052680	0.001880	0.794466
H108	H	-0.994058	-0.056782	0.794482
C109	C	-0.785614	0.210144	0.808689
H110	H	-0.754890	0.240823	0.770527
H111	H	-0.812769	0.241623	0.842444
H112	H	-0.754171	0.182938	0.842456
H113	H	-0.123605	0.097592	0.135988
C114	C	-0.895707	0.717696	0.157410
H115	H	-0.894871	0.665027	0.146681
H116	H	-0.851787	0.736492	0.188195
H117	H	-0.940031	0.724776	0.188212
C118	C	-1.002142	-0.006292	0.191347
H119	H	-1.032847	-0.036985	0.229513
H120	H	-1.033593	0.020891	0.157573
H121	H	-0.974968	-0.037769	0.157599
H122	H	-0.987420	0.008435	0.360721
