data_functionalizedCrystal
_audit_creation_method	'MofGen! by Chris Wilmer'
_symmetry_space_group_name_H-M	'P1'
_symmetry_Int_Tables_number	1
_symmetry_cell_setting	triclinic
loop_
_symmetry_equiv_pos_as_xyz
  x,y,z
_cell_length_a	18.215407
_cell_length_b	21.295417
_cell_length_c	18.215399
_cell_angle_alpha	89.967650
_cell_angle_beta	90.017368
_cell_angle_gamma	89.966979
loop_
_atom_site_label
_atom_site_type_symbol
_atom_site_fract_x
_atom_site_fract_y
_atom_site_fract_z
Zn1	Zn	1.125017	0.250659	0.416045
Zn2	Zn	1.458351	0.583992	0.749378
Zn3	Zn	1.791684	0.917325	1.082712
Zn4	Zn	1.124903	0.355930	0.292969
Zn5	Zn	1.458236	0.689263	0.626303
Zn6	Zn	1.791569	1.022596	0.959636
Zn7	Zn	1.001950	0.250674	0.292998
Zn8	Zn	1.335283	0.584007	0.626331
Zn9	Zn	1.668616	0.917340	0.959664
Zn10	Zn	1.001893	0.355889	0.415999
Zn11	Zn	1.335226	0.689223	0.749333
Zn12	Zn	1.668559	1.022556	1.082666
O13	O	1.063441	0.303288	0.354503
O14	O	1.396774	0.636621	0.687836
O15	O	1.730107	0.969954	1.021169
O16	O	1.227986	0.264634	0.399726
O17	O	1.561320	0.597967	0.733059
O18	O	1.894653	0.931300	1.066392
O19	O	1.108569	0.341991	0.189989
O20	O	1.441902	0.675324	0.523322
O21	O	1.775235	1.008657	0.856655
O22	O	1.018347	0.162582	0.309351
O23	O	1.351680	0.495916	0.642684
O24	O	1.685013	0.829249	0.976018
O25	O	1.227902	0.341976	0.309303
O26	O	1.561235	0.675309	0.642636
O27	O	1.894569	1.008643	0.975969
O28	O	1.108764	0.162571	0.399753
O29	O	1.442097	0.495905	0.733087
O30	O	1.775431	0.829238	1.066420
O31	O	1.018236	0.264659	0.190010
O32	O	1.351569	0.597993	0.523343
O33	O	1.684902	0.931326	0.856676
O34	O	0.898958	0.264620	0.309307
O35	O	1.232291	0.597953	0.642640
O36	O	1.565625	0.931287	0.975974
O37	O	1.018249	0.341907	0.518990
O38	O	1.351583	0.675240	0.852323
O39	O	1.684916	1.008574	1.185656
O40	O	0.898916	0.341921	0.399676
O41	O	1.232249	0.675255	0.733009
O42	O	1.565583	1.008588	1.066342
O43	O	1.108709	0.264594	0.519023
O44	O	1.442042	0.597928	0.852357
O45	O	1.775375	0.931261	1.185690
O46	O	1.108513	0.444014	0.309258
O47	O	1.441847	0.777347	0.642592
O48	O	1.775180	1.110680	0.975925
O49	O	1.018138	0.443984	0.399648
O50	O	1.351472	0.777317	0.732982
O51	O	1.684805	1.110651	1.066315
C52	C	0.872234	0.303268	0.354490
C53	C	1.205568	0.636602	0.687823
C54	C	1.538901	0.969935	1.021157
C55	C	0.790435	0.303275	0.354502
C56	C	1.123769	0.636609	0.687835
C57	C	1.457102	0.969942	1.021168
C58	C	0.602284	0.263086	0.401660
C59	C	0.935618	0.596419	0.734993
C60	C	1.268951	0.929753	1.068326
C61	C	0.525426	0.263092	0.401662
C62	C	0.858759	0.596425	0.734995
C63	C	1.192092	0.929758	1.068329
C64	C	0.525349	0.343507	0.307359
C65	C	0.858682	0.676841	0.640692
C66	C	1.192016	1.010174	0.974026
C67	C	0.602206	0.343498	0.307353
C68	C	0.935540	0.676831	0.640687
C69	C	1.268873	1.010165	0.974020
C70	C	0.640672	0.303289	0.354508
C71	C	0.974005	0.636622	0.687841
C72	C	1.307339	0.969955	1.021174
C73	C	0.486956	0.303303	0.354516
C74	C	0.820289	0.636636	0.687849
C75	C	1.153623	0.969970	1.021183
C76	C	0.403622	0.303309	0.354518
C77	C	0.736956	0.636642	0.687852
C78	C	1.070289	0.969976	1.021185
C79	C	0.724011	0.303281	0.354505
C80	C	1.057344	0.636615	0.687838
C81	C	1.390678	0.969948	1.021171
C82	C	1.063327	0.466839	0.354461
C83	C	1.396661	0.800173	0.687795
C84	C	1.729994	1.133506	1.021128
C85	C	1.063346	0.536808	0.354468
C86	C	1.396679	0.870141	0.687802
C87	C	1.730013	1.203474	1.021135
C88	C	1.110395	0.569611	0.401574
C89	C	1.443729	0.902945	0.734907
C90	C	1.777062	1.236278	1.068240
C91	C	1.110413	0.635354	0.401590
C92	C	1.443747	0.968687	0.734923
C93	C	1.777080	1.302020	1.068257
C94	C	1.063390	0.668290	0.354488
C95	C	1.396723	1.001623	0.687821
C96	C	1.730057	1.334957	1.021155
C97	C	1.016331	0.635478	0.307379
C98	C	1.349665	0.968812	0.640713
C99	C	1.682998	1.302145	0.974046
C100	C	1.016309	0.569737	0.307370
C101	C	1.349643	0.903071	0.640703
C102	C	1.682976	1.236404	0.974036
N103	N	1.057819	0.771552	0.290079
N104	N	1.391152	1.104886	0.623413
N105	N	1.724485	1.438219	0.956746
N106	N	1.057844	0.834004	0.290091
N107	N	1.391177	1.167337	0.623424
N108	N	1.724511	1.500670	0.956758
C109	C	1.063452	0.866365	0.354516
C110	C	1.396785	1.199698	0.687850
C111	C	1.730119	1.533031	1.021183
N112	N	1.069049	0.833915	0.418931
N113	N	1.402382	1.167248	0.752264
N114	N	1.735715	1.500582	1.085598
N115	N	1.069027	0.771458	0.418919
N116	N	1.402361	1.104791	0.752252
N117	N	1.735694	1.438125	1.085585
C118	C	1.063408	0.739575	0.354494
C119	C	1.396742	1.072909	0.687827
C120	C	1.730075	1.406242	1.021161
C121	C	1.110524	0.970454	0.401643
C122	C	1.443857	1.303787	0.734977
C123	C	1.777190	1.637121	1.068310
C124	C	1.110536	1.036198	0.401661
C125	C	1.443870	1.369531	0.734994
C126	C	1.777203	1.702864	1.068328
C127	C	1.016458	1.036321	0.307444
C128	C	1.349792	1.369654	0.640777
C129	C	1.683125	1.702988	0.974111
C130	C	1.016442	0.970579	0.307433
C131	C	1.349775	1.303912	0.640766
C132	C	1.683108	1.637245	0.974100
C133	C	1.063478	0.937649	0.354532
C134	C	1.396811	1.270982	0.687865
C135	C	1.730145	1.604316	1.021198
C136	C	1.255393	0.303308	0.354516
C137	C	1.588727	0.636641	0.687849
C138	C	1.922060	0.969974	1.021183
C139	C	1.337192	0.303316	0.354522
C140	C	1.670526	0.636650	0.687855
C141	C	2.003859	0.969983	1.021188
C142	C	1.063485	0.303244	0.546456
C143	C	1.396819	0.636578	0.879789
C144	C	1.730152	0.969911	1.213122
C145	C	1.063505	0.303226	0.628255
C146	C	1.396838	0.636559	0.961588
C147	C	1.730171	0.969893	1.294921
C148	C	1.063544	1.139098	0.354554
C149	C	1.396878	1.472431	0.687887
C150	C	1.730211	1.805764	1.021221
C151	C	1.063512	1.069129	0.354560
C152	C	1.396845	1.402463	0.687893
C153	C	1.730178	1.735796	1.021226
C154	C	1.063438	0.303286	0.163297
C155	C	1.396772	0.636619	0.496630
C156	C	1.730105	0.969952	0.829963
C157	C	1.063562	0.303127	0.081498
C158	C	1.396895	0.636460	0.414831
C159	C	1.730228	0.969793	0.748165
C160	C	1.110624	0.262932	0.816467
C161	C	1.443957	0.596265	1.149801
C162	C	1.777290	0.929598	1.483134
C163	C	1.110632	0.262913	0.893326
C164	C	1.443966	0.596247	1.226659
C165	C	1.777299	0.929580	1.559993
C166	C	1.016438	0.343423	0.893280
C167	C	1.349771	0.676756	1.226613
C168	C	1.683104	1.010090	1.559947
C169	C	1.016426	0.343438	0.816423
C170	C	1.349759	0.676771	1.149756
C171	C	1.683092	1.010104	1.483089
C172	C	1.063523	0.303193	0.778018
C173	C	1.396856	0.636526	1.111352
C174	C	1.730189	0.969860	1.444685
C175	C	1.063544	0.303160	0.931734
C176	C	1.396877	0.636493	1.265068
C177	C	1.730210	0.969827	1.598401
C178	C	1.063553	0.303140	1.015068
C179	C	1.396886	0.636474	1.348402
C180	C	1.730219	0.969807	1.681735
C181	C	1.063513	0.303211	0.694679
C182	C	1.396846	0.636545	1.028013
C183	C	1.730180	0.969878	1.361346
H184	H	0.494174	0.230354	0.440057
H185	H	0.827507	0.563687	0.773390
H186	H	1.160840	0.897020	1.106723
O187	O	1.161161	0.670750	0.452395
O188	O	1.494494	1.004083	0.785729
O189	O	1.827828	1.337417	1.119062
H190	H	1.218923	0.658104	0.439813
H191	H	1.552256	0.991437	0.773146
H192	H	1.885590	1.324771	1.106480
H193	H	0.978094	0.376190	0.924558
H194	H	1.311428	0.709523	1.257892
H195	H	1.644761	1.042857	1.591225
H196	H	0.633462	0.376236	0.268953
H197	H	0.966796	0.709570	0.602286
H198	H	1.300129	1.042903	0.935619
H199	H	1.148971	0.230160	0.785201
H200	H	1.482304	0.563494	1.118534
H201	H	1.815638	0.896827	1.451867
H202	H	1.148985	0.230128	0.924628
H203	H	1.482319	0.563461	1.257961
H204	H	1.815652	0.896794	1.591295
O205	O	0.965601	0.386846	0.774944
O206	O	1.298934	0.720179	1.108277
O207	O	1.632268	1.053512	1.441610
H208	H	0.932853	0.414828	0.814559
H209	H	1.266186	0.748161	1.147893
H210	H	1.599520	1.081494	1.481226
O211	O	0.483856	0.386875	0.256505
O212	O	0.817189	0.720209	0.589839
O213	O	1.150523	1.053542	0.923172
H214	H	0.523464	0.414824	0.223711
H215	H	0.856797	0.748158	0.557044
H216	H	1.190131	1.081491	0.890377
O217	O	0.965613	0.671002	0.256578
O218	O	1.298947	1.004335	0.589911
O219	O	1.632280	1.337669	0.923244
H220	H	0.932887	0.637144	0.223823
H221	H	1.266221	0.970477	0.557157
H222	H	1.599554	1.303810	0.890490
O223	O	0.643776	0.219711	0.452506
O224	O	0.977109	0.553044	0.785839
O225	O	1.310443	0.886378	1.119172
H226	H	0.604167	0.191751	0.485287
H227	H	0.937500	0.525085	0.818620
H228	H	1.270834	0.858418	1.151953
H229	H	0.977995	0.543028	0.269010
H230	H	1.311329	0.876361	0.602343
H231	H	1.644662	1.209694	0.935677
O232	O	1.161138	0.534093	0.452357
O233	O	1.494471	0.867426	0.785691
O234	O	1.827804	1.200759	1.119024
H235	H	1.193860	0.567953	0.485113
H236	H	1.527193	0.901286	0.818447
H237	H	1.860527	1.234619	1.151780
H238	H	1.148821	0.943642	0.439996
H239	H	1.482155	1.276975	0.773330
H240	H	1.815488	1.610308	1.106663
H241	H	1.148850	1.062905	0.440023
H242	H	1.482183	1.396239	0.773357
H243	H	1.815516	1.729572	1.106690
O244	O	0.965741	1.071834	0.256635
O245	O	1.299075	1.405168	0.589968
O246	O	1.632408	1.738501	0.923302
H247	H	0.973664	1.123060	0.264551
H248	H	1.306997	1.456394	0.597884
H249	H	1.640330	1.789727	0.931217
H250	H	0.978133	0.943868	0.269072
H251	H	1.311466	1.277201	0.602405
H252	H	1.644799	1.610535	0.935739
