data_functionalizedCrystal
_audit_creation_method	'MofGen! by Chris Wilmer'
_symmetry_space_group_name_H-M	'P1'
_symmetry_Int_Tables_number	1
_symmetry_cell_setting	triclinic
loop_
_symmetry_equiv_pos_as_xyz
  x,y,z
_cell_length_a	17.077404
_cell_length_b	16.625545
_cell_length_c	17.077396
_cell_angle_alpha	90.026422
_cell_angle_beta	90.017244
_cell_angle_gamma	90.027175
loop_
_atom_site_label
_atom_site_type_symbol
_atom_site_fract_x
_atom_site_fract_y
_atom_site_fract_z
Zn1	Zn	-1.200015	0.320990	-0.443858
Zn2	Zn	-0.950015	0.570990	-0.193858
Zn3	Zn	-0.700015	0.820990	0.056142
Zn4	Zn	-0.450015	1.070990	0.306142
Zn5	Zn	-1.199918	0.455835	-0.312599
Zn6	Zn	-0.949918	0.705835	-0.062599
Zn7	Zn	-0.699918	0.955835	0.187401
Zn8	Zn	-0.449918	1.205835	0.437401
Zn9	Zn	-1.068752	0.321020	-0.312606
Zn10	Zn	-0.818752	0.571020	-0.062606
Zn11	Zn	-0.568752	0.821020	0.187394
Zn12	Zn	-0.318752	1.071020	0.437394
Zn13	Zn	-1.068705	0.455785	-0.443823
Zn14	Zn	-0.818705	0.705785	-0.193823
Zn15	Zn	-0.568705	0.955785	0.056177
Zn16	Zn	-0.318705	1.205785	0.306177
O17	O	-1.134348	0.388408	-0.378222
O18	O	-0.884348	0.638408	-0.128222
O19	O	-0.634348	0.888408	0.121778
O20	O	-0.384348	1.138408	0.371778
O21	O	-1.309849	0.338886	-0.426459
O22	O	-1.059849	0.588886	-0.176459
O23	O	-0.809849	0.838886	0.073541
O24	O	-0.559849	1.088886	0.323541
O25	O	-1.182497	0.437985	-0.202753
O26	O	-0.932497	0.687985	0.047247
O27	O	-0.682497	0.937985	0.297247
O28	O	-0.432497	1.187985	0.547247
O29	O	-1.086224	0.208184	-0.330035
O30	O	-0.836224	0.458184	-0.080035
O31	O	-0.586224	0.708184	0.169965
O32	O	-0.336224	0.958184	0.419965
O33	O	-1.309778	0.437956	-0.330023
O34	O	-1.059778	0.687956	-0.080023
O35	O	-0.809778	0.937956	0.169977
O36	O	-0.559778	1.187956	0.419977
O37	O	-1.182663	0.208162	-0.426466
O38	O	-0.932663	0.458162	-0.176466
O39	O	-0.682663	0.708162	0.073534
O40	O	-0.432663	0.958162	0.323534
O41	O	-1.086130	0.338937	-0.202758
O42	O	-0.836130	0.588937	0.047242
O43	O	-0.586130	0.838937	0.297242
O44	O	-0.336130	1.088937	0.547242
O45	O	-0.958899	0.338889	-0.330001
O46	O	-0.708899	0.588889	-0.080001
O47	O	-0.458899	0.838889	0.169999
O48	O	-0.208899	1.088889	0.419999
O49	O	-1.086145	0.437871	-0.553674
O50	O	-0.836145	0.687871	-0.303674
O51	O	-0.586145	0.937871	-0.053674
O52	O	-0.336145	1.187871	0.196326
O53	O	-0.958865	0.437900	-0.426405
O54	O	-0.708865	0.687900	-0.176405
O55	O	-0.458865	0.937900	0.073595
O56	O	-0.208865	1.187900	0.323595
O57	O	-1.182618	0.338837	-0.553701
O58	O	-0.932618	0.588837	-0.303701
O59	O	-0.682618	0.838837	-0.053701
O60	O	-0.432618	1.088837	0.196299
O61	O	-1.182452	0.568661	-0.329988
O62	O	-0.932452	0.818661	-0.079988
O63	O	-0.682452	1.068661	0.170012
O64	O	-0.432452	1.318661	0.420012
O65	O	-1.086051	0.568624	-0.426398
O66	O	-0.836051	0.818624	-0.176398
O67	O	-0.586051	1.068624	0.073602
O68	O	-0.336051	1.318624	0.323602
C69	C	-0.930400	0.388393	-0.378200
C70	C	-0.680400	0.638393	-0.128200
C71	C	-0.430400	0.888393	0.121800
C72	C	-0.180400	1.138393	0.371800
C73	C	-0.843150	0.388406	-0.378209
C74	C	-0.593150	0.638406	-0.128209
C75	C	-0.343150	0.888406	0.121791
C76	C	-0.093150	1.138406	0.371791
C77	C	-1.134257	0.597898	-0.378205
C78	C	-0.884257	0.847898	-0.128205
C79	C	-0.634257	1.097898	0.121795
C80	C	-0.384257	1.347898	0.371795
C81	C	-1.134291	0.687520	-0.378225
C82	C	-0.884291	0.937520	-0.128225
C83	C	-0.634291	1.187520	0.121775
C84	C	-0.384291	1.437520	0.371775
C85	C	-1.134387	0.388345	-0.582966
C86	C	-0.884387	0.638345	-0.332966
C87	C	-0.634387	0.888345	-0.082966
C88	C	-0.384387	1.138345	0.167034
C89	C	-1.134404	0.388319	-0.670216
C90	C	-0.884404	0.638319	-0.420216
C91	C	-0.634404	0.888319	-0.170216
C92	C	-0.384404	1.138319	0.079784
C93	C	-1.339092	0.388423	-0.378244
C94	C	-1.089092	0.638423	-0.128244
C95	C	-0.839092	0.888423	0.121756
C96	C	-0.589092	1.138423	0.371756
C97	C	-1.426342	0.388429	-0.378253
C98	C	-1.176342	0.638429	-0.128253
C99	C	-0.926342	0.888429	0.121747
C100	C	-0.676342	1.138429	0.371747
C101	C	-0.802163	0.440039	-0.428326
C102	C	-0.552163	0.690039	-0.178326
C103	C	-0.302163	0.940039	0.071674
C104	C	-0.052163	1.190039	0.321674
C105	C	-0.720182	0.440041	-0.428339
C106	C	-0.470182	0.690041	-0.178339
C107	C	-0.220182	0.940041	0.071661
C108	C	0.029818	1.190041	0.321661
C109	C	-0.679191	0.388413	-0.378230
C110	C	-0.429191	0.638413	-0.128230
C111	C	-0.179191	0.888413	0.121770
C112	C	0.070809	1.138413	0.371770
C113	C	-0.720184	0.336775	-0.328111
C114	C	-0.470184	0.586775	-0.078111
C115	C	-0.220184	0.836775	0.171889
C116	C	0.029816	1.086775	0.421889
C117	C	-0.802163	0.336769	-0.328103
C118	C	-0.552163	0.586769	-0.078103
C119	C	-0.302163	0.836769	0.171897
C120	C	-0.052163	1.086769	0.421897
C121	C	-0.549314	0.336791	-0.328130
C122	C	-0.299314	0.586791	-0.078130
C123	C	-0.049314	0.836791	0.171870
C124	C	0.200686	1.086791	0.421870
C125	C	-0.467329	0.336797	-0.328136
C126	C	-0.217329	0.586797	-0.078136
C127	C	0.032671	0.836797	0.171864
C128	C	0.282671	1.086797	0.421864
C129	C	-0.467333	0.440062	-0.428366
C130	C	-0.217333	0.690062	-0.178366
C131	C	0.032667	0.940062	0.071634
C132	C	0.282667	1.190062	0.321634
C133	C	-0.549312	0.440057	-0.428358
C134	C	-0.299312	0.690057	-0.178358
C135	C	-0.049312	0.940057	0.071642
C136	C	0.200688	1.190057	0.321642
C137	C	-0.590300	0.388419	-0.378237
C138	C	-0.340300	0.638419	-0.128237
C139	C	-0.090300	0.888419	0.121763
C140	C	0.159700	1.138419	0.371763
C141	C	-1.134319	0.760302	-0.378243
C142	C	-0.884319	1.010302	-0.128243
C143	C	-0.634319	1.260302	0.121757
C144	C	-0.384319	1.510302	0.371757
C145	C	-1.134363	0.851610	-0.378264
C146	C	-0.884363	1.101610	-0.128264
C147	C	-0.634363	1.351610	0.121736
C148	C	-0.384363	1.601610	0.371736
C149	C	-1.134402	0.924387	-0.378277
C150	C	-0.884402	1.174387	-0.128277
C151	C	-0.634402	1.424387	0.121723
C152	C	-0.384402	1.674387	0.371723
C153	C	-1.134445	1.015701	-0.378297
C154	C	-0.884445	1.265701	-0.128297
C155	C	-0.634445	1.515701	0.121703
C156	C	-0.384445	1.765701	0.371703
C157	C	-1.134454	1.178099	-0.378265
C158	C	-0.884454	1.428099	-0.128265
C159	C	-0.634454	1.678099	0.121735
C160	C	-0.384454	1.928099	0.371735
C161	C	-1.134484	1.088478	-0.378309
C162	C	-0.884484	1.338478	-0.128309
C163	C	-0.634484	1.588478	0.121691
C164	C	-0.384484	1.838478	0.371691
C165	C	-1.084241	0.336738	-0.711208
C166	C	-0.834241	0.586738	-0.461208
C167	C	-0.584241	0.836738	-0.211208
C168	C	-0.334241	1.086738	0.038792
C169	C	-1.084254	0.336720	-0.793189
C170	C	-0.834254	0.586720	-0.543189
C171	C	-0.584254	0.836720	-0.293189
C172	C	-0.334254	1.086720	-0.043189
C173	C	-1.134434	0.388278	-0.834175
C174	C	-0.884434	0.638278	-0.584175
C175	C	-0.634434	0.888278	-0.334175
C176	C	-0.384434	1.138278	-0.084175
C177	C	-1.184599	0.439864	-0.793177
C178	C	-0.934599	0.689864	-0.543177
C179	C	-0.684599	0.939864	-0.293177
C180	C	-0.434599	1.189864	-0.043177
C181	C	-1.184582	0.439886	-0.711198
C182	C	-0.934582	0.689886	-0.461198
C183	C	-0.684582	0.939886	-0.211198
C184	C	-0.434582	1.189886	0.038802
C185	C	-1.184633	0.439814	-0.964047
C186	C	-0.934633	0.689814	-0.714047
C187	C	-0.684633	0.939814	-0.464047
C188	C	-0.434633	1.189814	-0.214047
C189	C	-1.184652	0.439791	-1.046032
C190	C	-0.934652	0.689791	-0.796032
C191	C	-0.684652	0.939791	-0.546032
C192	C	-0.434652	1.189791	-0.296032
C193	C	-1.084305	0.336648	-1.046038
C194	C	-0.834305	0.586648	-0.796038
C195	C	-0.584305	0.836648	-0.546038
C196	C	-0.334305	1.086648	-0.296038
C197	C	-1.084288	0.336670	-0.964059
C198	C	-0.834288	0.586670	-0.714059
C199	C	-0.584288	0.836670	-0.464059
C200	C	-0.334288	1.086670	-0.214059
C201	C	-1.134454	0.388255	-0.923066
C202	C	-0.884454	0.638255	-0.673066
C203	C	-0.634454	0.888255	-0.423066
C204	C	-0.384454	1.138255	-0.173066
C205	C	-1.134353	0.388412	-0.174274
C206	C	-0.884353	0.638412	0.075726
C207	C	-0.634353	0.888412	0.325726
C208	C	-0.384353	1.138412	0.575726
C209	C	-1.134489	0.388211	-0.087024
C210	C	-0.884489	0.638211	0.162976
C211	C	-0.634489	0.888211	0.412976
C212	C	-0.384489	1.138211	0.662976
H213	H	-0.835532	0.482083	-0.469129
H214	H	-0.585532	0.732083	-0.219129
H215	H	-0.335532	0.982083	0.030871
H216	H	-0.085532	1.232083	0.280871
Cl217	Cl	-1.021208	0.271847	-0.912534
Cl218	Cl	-0.771208	0.521847	-0.662534
Cl219	Cl	-0.521208	0.771847	-0.412534
Cl220	Cl	-0.271208	1.021847	-0.162534
Cl221	Cl	-1.021240	0.271796	-1.097571
Cl222	Cl	-0.771240	0.521796	-0.847571
Cl223	Cl	-0.521240	0.771796	-0.597571
Cl224	Cl	-0.271240	1.021796	-0.347571
Cl225	Cl	-1.247698	0.504668	-0.912515
Cl226	Cl	-0.997698	0.754668	-0.662515
Cl227	Cl	-0.747698	1.004668	-0.412515
Cl228	Cl	-0.497698	1.254668	-0.162515
H229	H	-0.433956	0.294747	-0.287342
H230	H	-0.183956	0.544747	-0.037342
H231	H	0.066044	0.794747	0.212658
H232	H	0.316044	1.044747	0.462658
Cl233	Cl	-1.021152	0.271911	-0.844719
Cl234	Cl	-0.771152	0.521911	-0.594719
Cl235	Cl	-0.521152	0.771911	-0.344719
Cl236	Cl	-0.271152	1.021911	-0.094719
Cl237	Cl	-1.021157	0.271914	-0.659690
Cl238	Cl	-0.771157	0.521914	-0.409690
Cl239	Cl	-0.521157	0.771914	-0.159690
Cl240	Cl	-0.271157	1.021914	0.090310
H241	H	-0.686814	0.482086	-0.469149
H242	H	-0.436814	0.732086	-0.219149
H243	H	-0.186814	0.982086	0.030851
H244	H	0.063186	1.232086	0.280851
H245	H	-1.225513	0.481775	-1.079401
H246	H	-0.975513	0.731775	-0.829401
H247	H	-0.725513	0.981775	-0.579401
H248	H	-0.475513	1.231775	-0.329401
Cl249	Cl	-1.247643	0.504736	-0.659665
Cl250	Cl	-0.997643	0.754736	-0.409665
Cl251	Cl	-0.747643	1.004736	-0.159665
Cl252	Cl	-0.497643	1.254736	0.090335
Cl253	Cl	-0.600843	0.504966	-0.491348
Cl254	Cl	-0.350843	0.754966	-0.241348
Cl255	Cl	-0.100843	1.004966	0.008652
Cl256	Cl	0.149157	1.254966	0.258652
Cl257	Cl	-0.415807	0.504966	-0.491386
Cl258	Cl	-0.165807	0.754966	-0.241386
Cl259	Cl	0.084193	1.004966	0.008614
Cl260	Cl	0.334193	1.254966	0.258614
Cl261	Cl	-0.600839	0.271873	-0.265120
Cl262	Cl	-0.350839	0.521873	-0.015120
Cl263	Cl	-0.100839	0.771873	0.234880
Cl264	Cl	0.149161	1.021873	0.484880
Cl265	Cl	-0.668651	0.271866	-0.265121
Cl266	Cl	-0.418651	0.521866	-0.015121
Cl267	Cl	-0.168651	0.771866	0.234879
Cl268	Cl	0.081349	1.021866	0.484879
H269	H	-0.835534	0.294720	-0.287296
H270	H	-0.585534	0.544720	-0.037296
H271	H	-0.335534	0.794720	0.212704
H272	H	-0.085534	1.044720	0.462704
Cl273	Cl	-1.247679	0.504686	-0.844704
Cl274	Cl	-0.997679	0.754686	-0.594704
Cl275	Cl	-0.747679	1.004686	-0.344704
Cl276	Cl	-0.497679	1.254686	-0.094704
