data_functionalizedCrystal
_audit_creation_method	'MofGen! by Chris Wilmer'
_symmetry_space_group_name_H-M	'P1'
_symmetry_Int_Tables_number	1
_symmetry_cell_setting	triclinic
loop_
_symmetry_equiv_pos_as_xyz
  x,y,z
_cell_length_a	12.759401
_cell_length_b	16.625546
_cell_length_c	16.625539
_cell_angle_alpha	90.028532
_cell_angle_beta	90.013884
_cell_angle_gamma	90.022629
loop_
_atom_site_label
_atom_site_type_symbol
_atom_site_fract_x
_atom_site_fract_y
_atom_site_fract_z
Zn1	Zn	1.606151	-0.321012	0.455829
Zn2	Zn	1.856151	-0.071012	0.705829
Zn3	Zn	2.106151	0.178988	0.955829
Zn4	Zn	2.356151	0.428988	1.205829
Zn5	Zn	1.606035	-0.455850	0.320992
Zn6	Zn	1.856035	-0.205850	0.570992
Zn7	Zn	2.106035	0.044150	0.820992
Zn8	Zn	2.356035	0.294150	1.070992
Zn9	Zn	1.430467	-0.321036	0.321017
Zn10	Zn	1.680467	-0.071036	0.571017
Zn11	Zn	1.930467	0.178964	0.821017
Zn12	Zn	2.180467	0.428964	1.071017
Zn13	Zn	1.430418	-0.455806	0.455789
Zn14	Zn	1.680418	-0.205806	0.705789
Zn15	Zn	1.930418	0.044194	0.955789
Zn16	Zn	2.180418	0.294194	1.205789
O17	O	1.518268	-0.388426	0.388407
O18	O	1.768268	-0.138426	0.638407
O19	O	2.018268	0.111574	0.888407
O20	O	2.268268	0.361574	1.138407
O21	O	1.753157	-0.338907	0.437949
O22	O	2.003157	-0.088907	0.687949
O23	O	2.253157	0.161093	0.937949
O24	O	2.503157	0.411093	1.187949
O25	O	1.582718	-0.437995	0.208163
O26	O	1.832718	-0.187995	0.458163
O27	O	2.082718	0.062005	0.708163
O28	O	2.332718	0.312005	0.958163
O29	O	1.453841	-0.208200	0.338928
O30	O	1.703841	0.041800	0.588928
O31	O	1.953841	0.291800	0.838928
O32	O	2.203841	0.541800	1.088928
O33	O	1.753072	-0.437972	0.338884
O34	O	2.003072	-0.187972	0.588884
O35	O	2.253072	0.062028	0.838884
O36	O	2.503072	0.312028	1.088884
O37	O	1.582915	-0.208182	0.437974
O38	O	1.832915	0.041818	0.687974
O39	O	2.082915	0.291818	0.937974
O40	O	2.332915	0.541818	1.187974
O41	O	1.453729	-0.338948	0.208182
O42	O	1.703729	-0.088948	0.458182
O43	O	1.953729	0.161052	0.708182
O44	O	2.203729	0.411052	0.958182
O45	O	1.283439	-0.338905	0.338889
O46	O	1.533439	-0.088905	0.588889
O47	O	1.783439	0.161095	0.838889
O48	O	2.033439	0.411095	1.088889
O49	O	1.453757	-0.437897	0.568627
O50	O	1.703757	-0.187897	0.818627
O51	O	1.953757	0.062103	1.068627
O52	O	2.203757	0.312103	1.318627
O53	O	1.283403	-0.437920	0.437905
O54	O	1.533403	-0.187920	0.687905
O55	O	1.783403	0.062080	0.937905
O56	O	2.033403	0.312080	1.187905
O57	O	1.582867	-0.338864	0.568656
O58	O	1.832867	-0.088864	0.818656
O59	O	2.082867	0.161136	1.068656
O60	O	2.332867	0.411136	1.318656
O61	O	1.582670	-0.568677	0.338845
O62	O	1.832670	-0.318677	0.588845
O63	O	2.082670	-0.068677	0.838845
O64	O	2.332670	0.181323	1.088845
O65	O	1.453645	-0.568645	0.437880
O66	O	1.703645	-0.318645	0.687880
O67	O	1.953645	-0.068645	0.937880
O68	O	2.203645	0.181355	1.187880
C69	C	1.245300	-0.388411	0.388396
C70	C	1.495300	-0.138411	0.638396
C71	C	1.745300	0.111589	0.888396
C72	C	1.995300	0.361589	1.138396
C73	C	1.128524	-0.388424	0.388410
C74	C	1.378524	-0.138424	0.638410
C75	C	1.628524	0.111576	0.888410
C76	C	1.878524	0.361576	1.138410
C77	C	1.073670	-0.440064	0.439883
C78	C	1.323670	-0.190064	0.689883
C79	C	1.573670	0.059936	0.939883
C80	C	1.823670	0.309936	1.189883
C81	C	0.963946	-0.440074	0.439892
C82	C	1.213946	-0.190074	0.689892
C83	C	1.463946	0.059926	0.939892
C84	C	1.713946	0.309926	1.189892
C85	C	0.963939	-0.336803	0.336949
C86	C	1.213939	-0.086803	0.586949
C87	C	1.463939	0.163197	0.836949
C88	C	1.713939	0.413197	1.086949
C89	C	1.073661	-0.336789	0.336944
C90	C	1.323661	-0.086789	0.586944
C91	C	1.573661	0.163211	0.836944
C92	C	1.823661	0.413211	1.086944
C93	C	1.073674	-0.499690	0.499314
C94	C	1.323674	-0.249690	0.749314
C95	C	1.573674	0.000310	0.999314
C96	C	1.823674	0.250310	1.249314
C97	C	0.963950	-0.499700	0.499322
C98	C	1.213950	-0.249700	0.749322
C99	C	1.463950	0.000300	0.999322
C100	C	1.713950	0.250300	1.249322
C101	C	1.518168	-0.597917	0.388373
C102	C	1.768168	-0.347917	0.638373
C103	C	2.018168	-0.097917	0.888373
C104	C	2.268168	0.152083	1.138373
C105	C	1.518222	-0.687538	0.388386
C106	C	1.768222	-0.437538	0.638386
C107	C	2.018222	-0.187538	0.888386
C108	C	2.268222	0.062462	1.138386
C109	C	1.518405	-1.015714	0.388470
C110	C	1.768405	-0.765714	0.638470
C111	C	2.018405	-0.515714	0.888470
C112	C	2.268405	-0.265714	1.138470
C113	C	1.518351	-0.924405	0.388448
C114	C	1.768351	-0.674405	0.638448
C115	C	2.018351	-0.424405	0.888448
C116	C	2.268351	-0.174405	1.138448
C117	C	1.518313	-0.851629	0.388427
C118	C	1.768313	-0.601629	0.638427
C119	C	2.018313	-0.351629	0.888427
C120	C	2.268313	-0.101629	1.138427
C121	C	1.518260	-0.760314	0.388407
C122	C	1.768260	-0.510314	0.638407
C123	C	2.018260	-0.260314	0.888407
C124	C	2.268260	-0.010314	1.138407
C125	C	1.792301	-0.388441	0.388418
C126	C	2.042301	-0.138441	0.638418
C127	C	2.292301	0.111559	0.888418
C128	C	2.542301	0.361559	1.138418
C129	C	1.909078	-0.388448	0.388423
C130	C	2.159078	-0.138448	0.638423
C131	C	2.409078	0.111552	0.888423
C132	C	2.659078	0.361552	1.138423
C133	C	1.518319	-0.388373	0.598716
C134	C	1.768319	-0.138373	0.848716
C135	C	2.018319	0.111627	1.098716
C136	C	2.268319	0.361627	1.348716
C137	C	1.518341	-0.388350	0.688337
C138	C	1.768341	-0.138350	0.938337
C139	C	2.018341	0.111650	1.188337
C140	C	2.268341	0.361650	1.438337
C141	C	1.518396	-0.178117	0.388458
C142	C	1.768396	0.071883	0.638458
C143	C	2.018396	0.321883	0.888458
C144	C	2.268396	0.571883	1.138458
C145	C	1.518451	-0.088496	0.388480
C146	C	1.768451	0.161504	0.638480
C147	C	2.018451	0.411504	0.888480
C148	C	2.268451	0.661504	1.138480
C149	C	1.518277	-0.388421	0.178916
C150	C	1.768277	-0.138421	0.428916
C151	C	2.018277	0.111579	0.678916
C152	C	2.268277	0.361579	0.928916
C153	C	1.518458	-0.388216	0.089295
C154	C	1.768458	-0.138216	0.339295
C155	C	2.018458	0.111784	0.589295
C156	C	2.268458	0.361784	0.839295
C157	C	1.518358	-0.388332	0.761120
C158	C	1.768358	-0.138332	1.011120
C159	C	2.018358	0.111668	1.261120
C160	C	2.268358	0.361668	1.511120
C161	C	1.518383	-0.388302	0.852428
C162	C	1.768383	-0.138302	1.102428
C163	C	2.018383	0.111698	1.352428
C164	C	2.268383	0.361698	1.602428
C165	C	1.518408	-0.388274	0.925205
C166	C	1.768408	-0.138274	1.175205
C167	C	2.018408	0.111726	1.425205
C168	C	2.268408	0.361726	1.675205
C169	C	1.518434	-0.388245	1.016519
C170	C	1.768434	-0.138245	1.266519
C171	C	2.018434	0.111755	1.516519
C172	C	2.268434	0.361755	1.766519
H173	H	0.934145	-0.562130	0.482485
H174	H	1.184145	-0.312130	0.732485
H175	H	1.434145	-0.062130	0.982485
H176	H	1.684145	0.187870	1.232485
H177	H	1.103478	-0.483045	0.561791
H178	H	1.353478	-0.233045	0.811791
H179	H	1.603478	0.016955	1.061791
H180	H	1.853478	0.266955	1.311791
H181	H	0.929950	-0.477418	0.558689
H182	H	1.179950	-0.227418	0.808689
H183	H	1.429950	0.022582	1.058689
H184	H	1.679950	0.272582	1.308689
C185	C	1.133996	-0.279983	0.280327
C186	C	1.383996	-0.029983	0.530327
C187	C	1.633996	0.220017	0.780327
C188	C	1.883996	0.470017	1.030327
H189	H	1.085605	-0.249241	0.249673
H190	H	1.335605	0.000759	0.499673
H191	H	1.585605	0.250759	0.749673
H192	H	1.835605	0.500759	0.999673
H193	H	1.176824	-0.244889	0.311233
H194	H	1.426824	0.005111	0.561233
H195	H	1.676824	0.255111	0.811233
H196	H	1.926824	0.505111	1.061233
H197	H	1.176772	-0.310780	0.245132
H198	H	1.426772	-0.060780	0.495132
H199	H	1.676772	0.189220	0.745132
H200	H	1.926772	0.439220	0.995132
C201	C	0.903586	-0.280011	0.280338
C202	C	1.153586	-0.030011	0.530338
C203	C	1.403586	0.219989	0.780338
C204	C	1.653586	0.469989	1.030338
H205	H	0.830383	-0.287416	0.287710
H206	H	1.080383	-0.037416	0.537710
H207	H	1.330383	0.212584	0.787710
H208	H	1.580383	0.462584	1.037710
H209	H	0.921593	-0.225850	0.292236
H210	H	1.171593	0.024150	0.542236
H211	H	1.421593	0.274150	0.792236
H212	H	1.671593	0.524150	1.042236
H213	H	0.921540	-0.291742	0.226137
H214	H	1.171540	-0.041742	0.476137
H215	H	1.421540	0.208258	0.726137
H216	H	1.671540	0.458258	0.976137
C217	C	1.119627	-0.579776	0.468956
C218	C	1.369627	-0.329776	0.718956
C219	C	1.619627	-0.079776	0.968956
C220	C	1.869627	0.170224	1.218956
H221	H	1.193988	-0.577034	0.469984
H222	H	1.443988	-0.327034	0.719984
H223	H	1.693988	-0.077034	0.969984
H224	H	1.943988	0.172966	1.219984
H225	H	1.096636	-0.622365	0.502696
H226	H	1.346636	-0.372365	0.752696
H227	H	1.596636	-0.122365	1.002696
H228	H	1.846636	0.127635	1.252696
H229	H	1.096617	-0.589328	0.415448
H230	H	1.346617	-0.339328	0.665448
H231	H	1.596617	-0.089328	0.915448
H232	H	1.846617	0.160672	1.165448
