data_functionalizedCrystal
_audit_creation_method	'MofGen! by Chris Wilmer'
_symmetry_space_group_name_H-M	'P1'
_symmetry_Int_Tables_number	1
_symmetry_cell_setting	triclinic
loop_
_symmetry_equiv_pos_as_xyz
  x,y,z
_cell_length_a	11.792241
_cell_length_b	11.792241
_cell_length_c	12.376457
_cell_angle_alpha	101.354533
_cell_angle_beta	78.632725
_cell_angle_gamma	84.193416
loop_
_atom_site_label
_atom_site_type_symbol
_atom_site_fract_x
_atom_site_fract_y
_atom_site_fract_z
O1	O	1.528516	0.133972	-0.093894
O2	O	1.198181	0.149999	-0.093920
O3	O	1.371363	-0.023183	-0.093899
O4	O	1.355334	0.307154	-0.093916
O5	O	1.328083	0.020053	0.094108
O6	O	1.154901	0.193235	0.094086
O7	O	1.485236	0.177208	0.094113
Zn8	Zn	1.313197	0.192086	0.123950
Zn9	Zn	1.370220	0.135121	-0.123757
O10	O	1.312054	0.350390	0.094091
C11	C	1.134251	0.170609	0.000080
C12	C	1.008239	0.167593	0.000070
C13	C	1.348716	-0.043856	0.000104
C14	C	1.345702	-0.169870	0.000103
C15	C	0.777520	0.162057	0.000103
C16	C	0.905909	0.165133	0.000085
C17	C	1.340163	-0.400587	0.000084
C18	C	1.343241	-0.272199	0.000094
C19	C	1.549167	0.156598	0.000110
C20	C	1.675180	0.159613	0.000113
C21	C	1.334702	0.371063	0.000086
C22	C	1.337717	0.497075	0.000079
N23	N	1.274288	0.230963	0.293003
N24	N	1.409138	0.096235	-0.292811
C25	C	1.499458	0.005967	0.648016
C26	C	1.526684	-0.021243	0.529680
C27	C	1.463587	0.041806	0.470505
C28	C	1.373260	0.132070	0.529678
C29	C	1.346037	0.159289	0.648026
C30	C	1.310166	0.195128	0.470514
C31	C	1.219839	0.285393	0.529687
C32	C	1.192620	0.312606	0.648024
C33	C	1.255717	0.249557	0.707199
C34	C	1.337389	0.167909	0.352166
C35	C	1.183968	0.321231	0.352176
C36	C	1.156742	0.348442	0.470512
H37	H	1.485759	0.019647	0.374150
H38	H	1.119079	0.386113	0.696203
N39	N	1.563914	-0.058392	0.708478
N40	N	1.539609	-0.034061	0.814139
H41	H	1.585142	-0.079511	0.856843
H42	H	1.600228	-0.094734	0.481506
N43	N	1.429608	0.075684	0.291702
N44	N	1.408312	-0.010178	0.225683
H45	H	1.473436	-0.075323	0.182968
N46	N	1.227913	0.277331	0.828080
N47	N	1.284253	0.221017	0.880894
H48	H	1.264618	0.240628	0.966268
N49	N	1.064478	0.440635	0.530980
N50	N	1.040186	0.464916	0.636641
H51	H	0.975024	0.530027	0.679348
H52	H	1.132590	0.372574	0.303997
