data_functionalizedCrystal
_audit_creation_method	'MofGen! by Chris Wilmer'
_symmetry_space_group_name_H-M	'P1'
_symmetry_Int_Tables_number	1
_symmetry_cell_setting	triclinic
loop_
_symmetry_equiv_pos_as_xyz
  x,y,z
_cell_length_a	12.837942
_cell_length_b	19.288864
_cell_length_c	18.366186
_cell_angle_alpha	90.023212
_cell_angle_beta	89.994944
_cell_angle_gamma	91.017407
loop_
_atom_site_label
_atom_site_type_symbol
_atom_site_fract_x
_atom_site_fract_y
_atom_site_fract_z
O1	O	0.129276	-0.930181	-0.060785
O2	O	0.146715	-0.729111	-0.060736
O3	O	-0.012887	-0.825187	-0.060755
O4	O	0.288877	-0.834104	-0.060766
O5	O	-0.012894	-0.825168	0.060345
O6	O	0.146707	-0.729091	0.060364
O7	O	0.129268	-0.930161	0.060314
Zn8	Zn	0.137987	-0.829623	0.079566
Zn9	Zn	0.137997	-0.829649	-0.079987
O10	O	0.288870	-0.834085	0.060334
C11	C	0.146150	-0.703186	-0.000179
C12	C	0.144466	-0.625968	-0.000160
C13	C	-0.051497	-0.822165	-0.000205
C14	C	-0.166532	-0.813181	-0.000204
N15	N	0.137979	-0.829611	0.188457
C16	C	-0.407995	-0.921187	-0.000245
C17	C	-0.516081	-0.912748	-0.000245
C18	C	-0.490793	-0.787867	-0.000206
C19	C	-0.382707	-0.796305	-0.000207
C20	C	-0.341312	-0.862967	-0.000226
C21	C	-0.233223	-0.871405	-0.000221
C22	C	-0.207938	-0.746524	-0.000188
C23	C	-0.316024	-0.738086	-0.000187
C24	C	0.327480	-0.837107	-0.000218
C25	C	0.442515	-0.846091	-0.000224
C26	C	0.129833	-0.956086	-0.000243
C27	C	0.131518	-1.033304	-0.000267
C28	C	0.238113	-0.587666	-0.000175
C29	C	0.236530	-0.515111	-0.000183
C30	C	0.141295	-0.480860	-0.000191
C31	C	0.047636	-0.519171	-0.000172
C32	C	0.049221	-0.591725	-0.000157
C33	C	0.066433	-0.367493	-0.042639
C34	C	0.064852	-0.294941	-0.042659
C35	C	0.136402	-0.257081	-0.000235
C36	C	0.209552	-0.291782	0.042200
C37	C	0.211137	-0.364335	0.042215
C38	C	0.139566	-0.402188	-0.000207
C39	C	0.228340	-0.140106	-0.000257
C40	C	0.226753	-0.067550	-0.000261
C41	C	0.037857	-0.071611	-0.000257
C42	C	0.039446	-0.144166	-0.000246
C43	C	0.134690	-0.178409	-0.000250
C44	C	0.067343	-0.872171	0.226549
C45	C	0.067338	-0.872175	0.302777
C46	C	0.137988	-0.829626	0.340910
C47	C	0.208631	-0.787057	0.302809
C48	C	0.208626	-0.787050	0.226583
C49	C	0.232411	-0.826775	0.461668
C50	C	0.232417	-0.826787	0.537893
C51	C	0.138002	-0.829646	0.576018
C52	C	0.043577	-0.832506	0.537908
C53	C	0.043572	-0.832498	0.461681
C54	C	0.138001	-0.829629	0.423565
C55	C	0.067355	-0.872212	0.696764
C56	C	0.067349	-0.872211	0.772994
C57	C	0.208650	-0.787097	0.773024
C58	C	0.208647	-0.787095	0.696796
C59	C	0.138000	-0.829656	0.658671
N60	N	0.137999	-0.829661	0.811121
H61	H	-0.199522	-0.925684	-0.000234
C62	C	-0.010358	-0.919025	0.814898
H63	H	-0.000249	-0.912928	0.865757
H64	H	0.000722	-0.966111	0.802384
H65	H	-0.079497	-0.906905	0.802415
C66	C	-0.057119	-0.481499	-0.000185
H67	H	-0.044652	-0.432802	-0.000204
H68	H	-0.095671	-0.494196	0.042048
H69	H	-0.095658	-0.494250	-0.042417
C70	C	0.333099	-0.177780	-0.000252
H71	H	0.320632	-0.226476	-0.000251
H72	H	0.371642	-0.165034	0.041975
H73	H	0.371647	-0.165077	-0.042490
C74	C	-0.010362	-0.919018	0.654824
H75	H	-0.052444	-0.944359	0.688430
H76	H	0.026803	-0.950388	0.625068
H77	H	-0.053409	-0.891178	0.625106
C78	C	-0.066900	-0.033945	-0.000270
H79	H	-0.054433	0.014752	-0.000286
H80	H	-0.105455	-0.046644	0.041961
H81	H	-0.105436	-0.046694	-0.042504
H82	H	0.005293	-0.266693	-0.077214
C83	C	-0.012270	-0.409132	-0.089315
H84	H	-0.056048	-0.378076	-0.114599
H85	H	-0.053502	-0.438321	-0.058729
H86	H	0.024194	-0.436680	-0.123426
C87	C	0.286364	-0.740294	0.814961
H88	H	0.276255	-0.746396	0.865815
H89	H	0.275287	-0.693206	0.802494
H90	H	0.355502	-0.752415	0.802457
H91	H	-0.374291	-0.975465	-0.000253
C92	C	0.342877	-0.625330	-0.000166
H93	H	0.398423	-0.592123	-0.000168
H94	H	0.347431	-0.653577	-0.042387
H95	H	0.347415	-0.653520	0.042078
H96	H	0.312791	-0.483920	-0.000193
C97	C	0.286365	-0.740293	0.654890
H98	H	0.276243	-0.746381	0.604031
H99	H	0.355497	-0.752416	0.667373
H100	H	0.275291	-0.693202	0.667404
H101	H	-0.570371	-0.960157	-0.000263
C102	C	-0.536341	-0.714548	-0.000186
H103	H	-0.610264	-0.717864	-0.000186
H104	H	-0.513426	-0.690277	-0.042407
H105	H	-0.513446	-0.690272	0.042059
H106	H	0.270695	-0.392586	0.076769
H107	H	-0.027040	-0.622910	-0.000145
C108	C	-0.063564	-0.186303	-0.000240
H109	H	-0.048981	-0.234419	-0.000225
H110	H	-0.102627	-0.175271	-0.042472
H111	H	-0.102632	-0.175224	0.041994
H112	H	0.266154	-0.752412	0.333861
H113	H	0.303015	-0.036366	-0.000269
C114	C	-0.361565	-0.664764	-0.000162
H115	H	-0.435488	-0.668076	-0.000160
H116	H	-0.338649	-0.640492	-0.042381
H117	H	-0.338664	-0.640493	0.042084
H118	H	-0.153632	-0.699118	-0.000166
C119	C	0.288267	-0.250146	0.088864
H120	H	0.276844	-0.201966	0.082784
H121	H	0.357088	-0.260572	0.073944
H122	H	0.279417	-0.262204	0.138656
C123	C	-0.010359	-0.918995	0.344690
H124	H	-0.000240	-0.912900	0.395548
H125	H	0.000725	-0.966079	0.332172
H126	H	-0.079502	-0.906878	0.332214
H127	H	0.009816	-0.906825	0.195510
H128	H	-0.033312	-0.834825	0.430655
H129	H	0.266148	-0.752391	0.195568
H130	H	-0.033305	-0.834833	0.568947
H131	H	0.309304	-0.824463	0.568917
H132	H	0.309301	-0.824436	0.430634
