data_functionalizedCrystal
_audit_creation_method	'MofGen! by Chris Wilmer'
_symmetry_space_group_name_H-M	'P1'
_symmetry_Int_Tables_number	1
_symmetry_cell_setting	triclinic
loop_
_symmetry_equiv_pos_as_xyz
  x,y,z
_cell_length_a	17.019282
_cell_length_b	19.188930
_cell_length_c	15.500369
_cell_angle_alpha	92.832382
_cell_angle_beta	83.300600
_cell_angle_gamma	83.267516
loop_
_atom_site_label
_atom_site_type_symbol
_atom_site_fract_x
_atom_site_fract_y
_atom_site_fract_z
O1	O	1.046683	0.088629	-0.006053
O2	O	1.546683	0.588629	0.493947
O3	O	0.816101	0.100757	0.011134
O4	O	1.316101	0.600757	0.511134
O5	O	0.938047	-0.006975	0.002027
O6	O	1.438047	0.493025	0.502027
O7	O	0.924737	0.196361	0.003053
O8	O	1.424737	0.696361	0.503053
O9	O	0.945408	-0.013490	-0.142408
O10	O	1.445408	0.486510	0.357592
O11	O	0.823462	0.094242	-0.133301
O12	O	1.323462	0.594242	0.366699
O13	O	1.054044	0.082114	-0.150489
O14	O	1.554044	0.582114	0.349511
Cu15	Cu	0.939425	0.087583	-0.155083
Cu16	Cu	1.439425	0.587583	0.344917
Cu17	Cu	0.930720	0.095288	0.015728
Cu18	Cu	1.430720	0.595288	0.515728
O19	O	0.932098	0.189846	-0.141382
O20	O	1.432098	0.689846	0.358618
C21	C	0.790282	0.097170	-0.058885
C22	C	1.290282	0.597170	0.441115
C23	C	0.702382	0.096180	-0.052333
C24	C	1.202382	0.596180	0.447667
C25	C	0.665103	0.092161	-0.127989
C26	C	1.165103	0.592161	0.372011
C27	C	0.582513	0.091219	-0.121836
C28	C	1.082513	0.591219	0.378164
C29	C	0.537203	0.094301	-0.040026
C30	C	1.037203	0.594301	0.459974
C31	C	0.574487	0.098318	0.035635
C32	C	1.074487	0.598318	0.535635
C33	C	0.657076	0.099255	0.029481
C34	C	1.157076	0.599255	0.529481
C35	C	0.287637	0.091645	-0.017506
C36	C	0.787637	0.591645	0.482494
C37	C	0.205042	0.090710	-0.011358
C38	C	0.705042	0.590710	0.488642
C39	C	0.213074	0.083611	-0.168830
C40	C	0.713074	0.583611	0.331170
C41	C	0.295664	0.084552	-0.174976
C42	C	0.795664	0.584552	0.325024
C43	C	0.332941	0.088565	-0.099315
C44	C	0.832941	0.588565	0.400685
C45	C	0.452782	0.093341	-0.033735
C46	C	0.952782	0.593341	0.466265
C47	C	0.417361	0.089520	-0.105608
C48	C	0.917361	0.589520	0.394392
C49	C	0.941297	-0.036242	-0.070161
C50	C	1.441297	0.463758	0.429839
C51	C	0.940003	-0.113745	-0.070072
C52	C	1.440003	0.386255	0.429928
C53	C	1.011557	-0.158792	-0.075409
C54	C	1.511557	0.341208	0.424591
C55	C	1.010341	-0.231613	-0.075305
C56	C	1.510341	0.268387	0.424695
C57	C	0.937568	-0.259385	-0.069880
C58	C	1.437568	0.240615	0.430120
C59	C	0.866005	-0.214328	-0.064536
C60	C	1.366005	0.285672	0.435464
C61	C	0.867223	-0.141508	-0.064632
C62	C	1.367223	0.358492	0.435368
N63	N	0.884447	-0.369512	-0.114887
N64	N	1.384447	0.130488	0.385113
N65	N	0.883295	-0.438688	-0.114798
N66	N	1.383295	0.061312	0.385202
C67	C	0.933895	-0.478786	-0.069588
C68	C	1.433895	0.021214	0.430412
N69	N	0.985702	-0.447097	-0.024482
N70	N	1.485702	0.052903	0.475518
N71	N	0.986856	-0.377914	-0.024575
N72	N	1.486856	0.122086	0.475425
C73	C	0.936239	-0.338345	-0.069774
C74	C	1.436239	0.161655	0.430226
C75	C	1.004134	-0.602794	-0.074812
C76	C	1.504134	-0.102794	0.425188
C77	C	1.002915	-0.675616	-0.074702
C78	C	1.502915	-0.175616	0.425298
C79	C	0.858577	-0.658331	-0.063942
C80	C	1.358577	-0.158331	0.436058
C81	C	0.859798	-0.585510	-0.064043
C82	C	1.359798	-0.085510	0.435957
C83	C	0.932579	-0.557747	-0.069483
C84	C	1.432579	-0.057747	0.430517
C85	C	1.079863	0.085701	-0.080468
C86	C	1.579863	0.585701	0.419532
C87	C	1.167763	0.086692	-0.087013
C88	C	1.667763	0.586692	0.412987
C89	C	0.928848	0.219114	-0.069192
C90	C	1.428848	0.719114	0.430808
C91	C	0.930141	0.296617	-0.069275
C92	C	1.430141	0.796617	0.430725
N93	N	0.945554	0.082164	-0.275223
N94	N	1.445554	0.582164	0.224777
C95	C	0.976280	0.055070	-0.822692
C96	C	1.476280	0.555070	-0.322692
C97	C	0.971627	0.059178	-0.731774
C98	C	1.471627	0.559178	-0.231774
C99	C	0.915288	0.108914	-0.682297
C100	C	1.415288	0.608914	-0.182297
C101	C	0.863603	0.154551	-0.723743
C102	C	1.363603	0.654551	-0.223743
C103	C	0.868261	0.150446	-0.814660
C104	C	1.368261	0.650446	-0.314660
C105	C	0.898527	0.123696	-0.407586
C106	C	1.398527	0.623696	0.092414
C107	C	0.893872	0.127796	-0.316662
C108	C	1.393872	0.627796	0.183338
C109	C	1.001897	0.032423	-0.324700
C110	C	1.501897	0.532423	0.175300
C111	C	1.006546	0.028320	-0.415618
C112	C	1.506546	0.528320	0.084382
C113	C	0.954864	0.073959	-0.457057
C114	C	1.454864	0.573959	0.042943
C115	C	0.910528	0.113112	-0.589363
C116	C	1.410528	0.613112	-0.089363
C117	C	0.959628	0.069764	-0.549989
C118	C	1.459628	0.569764	-0.049989
N119	N	0.924598	0.100702	0.135868
N120	N	1.424598	0.600702	0.635868
H121	H	0.701989	0.089658	-0.194608
H122	H	1.201989	0.589658	0.305392
F123	F	0.803646	0.207489	-0.671085
F124	F	1.303646	0.707489	-0.171085
H125	H	0.552167	0.087936	-0.183443
H126	H	1.052167	0.587936	0.316557
H127	H	1.070821	-0.136192	-0.079835
H128	H	1.570821	0.363808	0.420165
F129	F	0.343881	0.081276	-0.262050
F130	F	0.843881	0.581276	0.237950
H131	H	0.415881	0.095849	0.032875
H132	H	0.915881	0.595849	0.532875
H133	H	1.068610	-0.268296	-0.079648
H134	H	1.568610	0.231704	0.420352
F135	F	1.066507	-0.024616	-0.468275
F136	F	1.566507	0.475384	0.031725
H137	H	0.801532	-0.548832	-0.059702
H138	H	1.301532	-0.048832	0.440298
F139	F	0.788555	-0.243886	-0.058757
F140	F	1.288555	0.256114	0.441243
F141	F	0.843522	0.172266	-0.451680
F142	F	1.343522	0.672266	0.048320
F143	F	0.526265	0.101576	0.122704
F144	F	1.026265	0.601576	0.622704
F145	F	1.079076	-0.723559	-0.080378
F146	F	1.579076	-0.223559	0.419622
F147	F	0.813255	0.199017	-0.858761
F148	F	1.313255	0.699017	-0.358761
F149	F	1.026633	0.010612	-0.687671
F150	F	1.526633	0.510612	-0.187671
H151	H	1.043974	-0.004734	-0.290953
H152	H	1.543974	0.495266	0.209047
H153	H	0.799324	-0.680942	-0.059520
H154	H	1.299324	-0.180942	0.440480
H155	H	0.454257	0.087008	-0.172217
H156	H	0.954257	0.587008	0.327783
F157	F	1.019589	0.016834	-0.602647
F158	F	1.519589	0.516834	-0.102647
H159	H	0.808953	-0.104831	-0.060286
H160	H	1.308953	0.395169	0.439714
H161	H	1.063397	-0.580188	-0.079237
H162	H	1.563397	-0.080188	0.420763
F163	F	0.833903	0.180735	-0.264010
F164	F	1.333903	0.680735	0.235990
H165	H	0.864654	0.153608	-0.549071
H166	H	1.364654	0.653608	-0.049071
H167	H	1.022154	0.014567	-0.862971
H168	H	1.522154	0.514567	-0.362971
H169	H	0.182714	0.080342	-0.230429
H170	H	0.682714	0.580342	0.269571
F171	F	0.156819	0.093992	0.075720
F172	F	0.656819	0.593992	0.575720
H173	H	0.317978	0.094911	0.044103
H174	H	0.817978	0.594911	0.544103
H175	H	0.687426	0.102528	0.091088
H176	H	1.187426	0.602528	0.591088
