data_functionalizedCrystal
_audit_creation_method	'MofGen! by Chris Wilmer'
_symmetry_space_group_name_H-M	'P1'
_symmetry_Int_Tables_number	1
_symmetry_cell_setting	triclinic
loop_
_symmetry_equiv_pos_as_xyz
  x,y,z
_cell_length_a	16.974829
_cell_length_b	15.500215
_cell_length_c	16.974755
_cell_angle_alpha	96.838510
_cell_angle_beta	83.158103
_cell_angle_gamma	96.836845
loop_
_atom_site_label
_atom_site_type_symbol
_atom_site_fract_x
_atom_site_fract_y
_atom_site_fract_z
O1	O	1.056014	0.153430	0.107793
O2	O	0.825095	0.138114	0.119926
O3	O	0.946631	0.138104	-0.001602
O4	O	0.934477	0.153439	0.229320
O5	O	0.940029	-0.006709	-0.008197
O6	O	0.818492	-0.006700	0.113330
O7	O	1.049411	0.008616	0.101197
Cu8	Cu	0.933349	-0.012265	0.106661
Cu9	Cu	0.941157	0.158995	0.114462
O10	O	0.927874	0.008626	0.222725
C11	C	0.792240	0.063597	0.116043
C12	C	0.704179	0.057309	0.114290
N13	N	0.927862	-0.132719	0.101175
C14	C	0.208098	0.013444	0.104062
C15	C	0.290841	0.019354	0.105709
C16	C	0.335812	0.101248	0.110122
C17	C	0.298036	0.177238	0.112896
C18	C	0.215294	0.171327	0.111255
C19	C	0.583660	0.127389	0.115422
C20	C	0.666408	0.133293	0.117061
C21	C	0.659207	-0.024591	0.109875
C22	C	0.576464	-0.030494	0.108229
C23	C	0.538695	0.045496	0.111008
N24	N	0.420389	0.107290	0.111804
N25	N	0.454119	0.039453	0.109332
C26	C	0.973992	-0.171526	0.147343
C27	C	0.969854	-0.262680	0.143189
C28	C	0.919580	-0.315025	0.092869
C29	C	0.873448	-0.276212	0.046695
C30	C	0.877592	-0.185059	0.050846
C31	C	0.904662	-0.590586	0.077919
C32	C	0.900520	-0.681744	0.073773
C33	C	0.996927	-0.668206	0.170266
C34	C	1.001062	-0.577052	0.174416
C35	C	0.954934	-0.538247	0.128239
C36	C	0.915346	-0.408200	0.088623
C37	C	0.959172	-0.445074	0.132481
C38	C	1.082266	0.083135	0.105080
C39	C	1.170327	0.089428	0.106834
C40	C	0.942748	0.063587	-0.034454
C41	C	0.941003	0.057298	-0.122517
N42	N	0.946650	0.279449	0.119942
C43	C	0.930727	0.013453	-0.618594
C44	C	0.932373	0.019359	-0.535851
C45	C	0.936802	0.101252	-0.490876
C46	C	0.939576	0.177244	-0.528647
C47	C	0.937924	0.171337	-0.611388
C48	C	0.942125	0.127383	-0.243029
C49	C	0.943780	0.133284	-0.160283
C50	C	0.936575	-0.024602	-0.167492
C51	C	0.934928	-0.030501	-0.250235
C52	C	0.937698	0.045490	-0.287998
N53	N	0.938488	0.107291	-0.406299
N54	N	0.936006	0.039451	-0.372573
C55	C	0.931758	0.083145	0.255577
C56	C	0.933503	0.089440	0.343640
H57	H	0.171487	-0.053242	0.100472
H58	H	0.943178	0.243923	-0.492021
H59	H	1.000107	-0.402451	0.173448
H60	H	1.014926	-0.128912	0.188324
H61	H	0.321590	-0.042520	0.103450
H62	H	0.931325	-0.097187	-0.286849
H63	H	0.539856	-0.097182	0.104619
H64	H	0.940180	0.233213	-0.642135
H65	H	0.184542	0.233202	0.113514
H66	H	0.689968	-0.086457	0.107615
H67	H	0.703022	0.199985	0.120661
H68	H	0.934319	-0.086470	-0.136736
H69	H	1.007419	-0.294272	0.180783
H70	H	0.927124	-0.053233	-0.655207
H71	H	0.930124	-0.042516	-0.505107
H72	H	0.552919	0.189265	0.117682
H73	H	0.947385	0.199975	-0.123666
H74	H	0.334658	0.243918	0.116495
H75	H	0.944387	0.189261	-0.273767
H76	H	0.874413	-0.450829	0.047653
H77	H	1.042003	-0.534438	0.215389
H78	H	1.034483	-0.699811	0.207860
H79	H	0.867101	-0.559002	0.040318
H80	H	0.832518	-0.318839	0.005720
H81	H	0.859577	-0.724362	0.032797
H82	H	0.840027	-0.153464	0.013251
