data_functionalizedCrystal
_audit_creation_method	'MofGen! by Chris Wilmer'
_symmetry_space_group_name_H-M	'P1'
_symmetry_Int_Tables_number	1
_symmetry_cell_setting	triclinic
loop_
_symmetry_equiv_pos_as_xyz
  x,y,z
_cell_length_a	15.944551
_cell_length_b	15.944551
_cell_length_c	9.198806
_cell_angle_alpha	89.995864
_cell_angle_beta	90.000547
_cell_angle_gamma	83.498738
loop_
_atom_site_label
_atom_site_type_symbol
_atom_site_fract_x
_atom_site_fract_y
_atom_site_fract_z
O1	O	1.114524	0.108330	-0.120744
O2	O	0.869974	0.121686	-0.120781
O3	O	0.998927	-0.007267	-0.120748
O4	O	0.985571	0.237283	-0.120776
O5	O	0.998917	-0.007267	0.121037
O6	O	0.869964	0.121686	0.121005
O7	O	1.114513	0.108330	0.121041
Cu8	Cu	0.992238	0.115008	0.143100
Cu9	Cu	0.992250	0.115008	-0.142839
O10	O	0.985561	0.237283	0.121009
C11	C	0.838675	0.121132	0.000107
C12	C	0.745429	0.119470	0.000094
C13	C	0.530572	0.035565	0.000132
C14	C	0.469557	0.074528	-0.119086
C15	C	0.574703	0.116462	0.000111
C16	C	0.469569	0.074547	0.119296
C17	C	0.409790	0.113551	0.000135
C18	C	0.514916	0.155447	-0.119204
C19	C	0.514935	0.155455	0.119284
C20	C	0.453937	0.194476	0.000038
C21	C	0.669705	0.118137	0.000097
C22	C	0.314789	0.111883	0.000139
C23	C	0.998367	-0.038561	0.000145
C24	C	0.996705	-0.131807	0.000145
C25	C	0.912801	-0.346663	0.000113
C26	C	0.951758	-0.407681	0.119333
C27	C	0.993698	-0.302533	0.000133
C28	C	0.951787	-0.407664	-0.119048
C29	C	0.990787	-0.467445	0.000116
C30	C	1.032677	-0.362322	0.119452
C31	C	1.032695	-0.362299	-0.119036
C32	C	1.071711	-0.423298	0.000214
C33	C	0.995372	-0.207530	0.000145
C34	C	0.989119	-0.562446	0.000115
C35	C	1.145813	0.108885	0.000150
C36	C	1.239059	0.110547	0.000154
C37	C	0.986120	0.268577	0.000113
C38	C	0.987782	0.361823	0.000103
N39	N	0.992235	0.115007	0.344214
N40	N	0.992259	0.115002	-0.343953
C41	C	1.046381	0.060627	0.416424
C42	C	1.046394	0.060624	0.583837
H43	H	0.534908	0.189638	-0.220103
H44	H	0.449479	0.040315	0.220081
O45	O	0.911085	-0.431603	-0.239443
C46	C	0.906746	-0.434449	-0.501228
C47	C	0.952940	-0.407314	-0.365013
H48	H	0.940557	-0.414807	-0.602785
H49	H	0.906437	-0.505913	-0.500743
H50	H	0.839002	-0.402662	-0.500988
H51	H	1.020703	-0.439042	-0.365164
H52	H	0.953181	-0.335843	-0.365550
H53	H	0.945886	0.161559	0.406330
O54	O	1.101662	0.004962	0.657750
C55	C	1.150420	-0.141130	0.704682
C56	C	1.087794	-0.078183	0.620855
H57	H	1.139218	-0.208367	0.674906
H58	H	1.217778	-0.130425	0.674801
H59	H	1.140587	-0.131193	0.826493
H60	H	1.097550	-0.088084	0.499025
H61	H	1.020458	-0.088905	0.650857
O62	O	1.101806	0.005119	0.342524
C63	C	1.247747	-0.044318	0.295674
C64	C	1.185059	0.018580	0.379455
H65	H	1.315070	-0.033445	0.325479
H66	H	1.236707	-0.111586	0.325567
H67	H	1.237866	-0.034449	0.173856
H68	H	1.194903	0.008788	0.501293
H69	H	1.196114	0.085825	0.349441
H70	H	0.917538	-0.427789	0.220114
O71	O	0.937067	0.170586	0.581826
C72	C	0.919588	0.285250	0.409868
C73	C	0.982184	0.222336	0.493819
H74	H	0.956041	0.327118	0.338717
H75	H	0.877559	0.249096	0.338517
H76	H	0.878815	0.326153	0.490312
H77	H	1.023013	0.181416	0.413479
H78	H	1.024155	0.258542	0.565191
H79	H	0.449451	0.040312	-0.219868
H80	H	0.845652	-0.313356	0.000221
H81	H	0.563905	-0.031573	-0.000008
O82	O	1.151944	-0.462719	0.000378
C83	C	1.300395	-0.446606	0.001681
C84	C	1.209577	-0.401861	0.001513
H85	H	1.347017	-0.397423	0.002568
H86	H	1.310530	-0.488165	0.102427
H87	H	1.310871	-0.487367	-0.099941
H88	H	1.199038	-0.361057	0.103067
H89	H	1.199486	-0.360354	-0.099299
H90	H	0.535062	0.189642	0.220071
O91	O	0.414410	0.274665	-0.000301
C92	C	0.392734	0.407874	-0.126256
C93	C	0.437538	0.317079	-0.126063
H94	H	0.411431	0.442198	-0.227909
H95	H	0.321461	0.406079	-0.125384
H96	H	0.412188	0.442582	-0.025546
H97	H	0.418154	0.282318	-0.226757
H98	H	0.508802	0.318935	-0.126861
H99	H	1.066861	-0.342331	0.220355
H100	H	1.066886	-0.342168	-0.219822
