data_functionalizedCrystal
_audit_creation_method	'MofGen! by Chris Wilmer'
_symmetry_space_group_name_H-M	'P1'
_symmetry_Int_Tables_number	1
_symmetry_cell_setting	triclinic
loop_
_symmetry_equiv_pos_as_xyz
  x,y,z
_cell_length_a	6.817900
_cell_length_b	9.514072
_cell_length_c	11.168136
_cell_angle_alpha	88.684742
_cell_angle_beta	108.508683
_cell_angle_gamma	118.843421
loop_
_atom_site_label
_atom_site_type_symbol
_atom_site_fract_x
_atom_site_fract_y
_atom_site_fract_z
V1	V	-4.169138	-0.222229	-0.394689
O2	O	-4.066626	0.010654	-0.386157
O3	O	-4.203658	-0.440618	-0.392968
O4	O	-4.144520	-0.218821	-0.566379
O5	O	-4.126173	-0.212678	-0.211546
V6	V	-4.638940	-0.194372	-0.372664
O7	O	-4.460495	-0.283335	-0.443001
O8	O	-4.797780	-0.133266	-0.324352
O9	O	-4.381213	0.024018	-0.374385
O10	O	-4.858849	-0.427254	-0.381196
O11	O	-4.799302	-0.203922	-0.555807
O12	O	-4.440351	-0.197779	-0.200974
C13	C	-4.068062	-0.493856	-0.386994
C14	C	-4.177731	-0.672392	-0.386732
C15	C	-3.992623	-0.210930	-0.608196
C16	C	-4.054327	-0.209589	-0.748560
C17	C	-4.258707	-0.216609	-0.817283
C18	C	-4.322486	-0.215223	-0.962357
C19	C	-4.180154	0.077247	-0.380355
C20	C	-4.049725	0.255782	-0.380625
C21	C	-4.255591	-0.205675	-0.159150
C22	C	-4.173123	-0.207008	-0.018785
H23	H	-4.371263	-0.747502	-0.391804
O24	O	-3.964472	-0.200098	-0.948236
C25	C	-3.777386	-0.332143	-0.809556
C26	C	-4.013847	-0.340134	-0.889377
H27	H	-3.817225	-0.445364	-0.761968
H28	H	-3.664983	-0.219512	-0.733044
H29	H	-3.674883	-0.325679	-0.874646
H30	H	-4.116545	-0.346659	-0.824389
H31	H	-4.126073	-0.452748	-0.965900
O32	O	-4.531440	-0.222602	-1.032990
C33	C	-4.906847	-0.370312	-1.207269
C34	C	-4.670272	-0.362131	-1.127394
H35	H	-5.019181	-0.483130	-1.283595
H36	H	-4.867285	-0.257281	-1.255091
H37	H	-5.009289	-0.376633	-1.142181
H38	H	-4.567712	-0.355863	-1.192394
H39	H	-4.709999	-0.475160	-1.079558
H40	H	-3.926560	-0.202543	-0.797125
H41	H	-3.856197	-0.669113	-0.375535
H42	H	-4.386460	-0.223633	-0.768716
