data_functionalizedCrystal
_audit_creation_method	'MofGen! by Chris Wilmer'
_symmetry_space_group_name_H-M	'P1'
_symmetry_Int_Tables_number	1
_symmetry_cell_setting	triclinic
loop_
_symmetry_equiv_pos_as_xyz
  x,y,z
_cell_length_a	15.995350
_cell_length_b	15.995350
_cell_length_c	15.072220
_cell_angle_alpha	90.001101
_cell_angle_beta	89.991149
_cell_angle_gamma	83.492375
loop_
_atom_site_label
_atom_site_type_symbol
_atom_site_fract_x
_atom_site_fract_y
_atom_site_fract_z
O1	O	1.110996	0.107921	-0.073703
O2	O	0.867221	0.121249	-0.073721
O3	O	0.995772	-0.007303	-0.073710
O4	O	0.982444	0.236472	-0.073713
O5	O	0.995740	-0.007296	0.073855
O6	O	0.867189	0.121256	0.073844
O7	O	1.110964	0.107928	0.073862
Zn8	Zn	0.989071	0.114593	0.097283
Zn9	Zn	0.989113	0.114584	-0.097141
O10	O	0.982413	0.236480	0.073852
C11	C	0.836010	0.120701	0.000060
C12	C	0.743060	0.119049	0.000053
C13	C	0.405312	0.113117	0.000071
C14	C	0.452746	0.021565	0.000401
C15	C	0.549436	0.023217	0.000063
C16	C	0.572873	0.116060	0.000063
C17	C	0.531804	0.161212	-0.084201
C18	C	0.435168	0.158912	-0.084266
C19	C	0.434793	0.160812	0.083543
C20	C	0.531738	0.160790	0.084651
C21	C	0.667570	0.117727	0.000055
C22	C	0.310614	0.111452	0.000073
C23	C	0.995205	-0.038494	0.000070
C24	C	0.993553	-0.131444	0.000065
C25	C	0.987621	-0.469192	0.000068
C26	C	0.896069	-0.421758	-0.000270
C27	C	0.897721	-0.325068	0.000063
C28	C	0.990564	-0.301631	0.000066
C29	C	1.035702	-0.342705	0.084335
C30	C	1.033402	-0.439341	0.084405
C31	C	1.035330	-0.439707	-0.083404
C32	C	1.035308	-0.342761	-0.084518
C33	C	0.992231	-0.206934	0.000068
C34	C	0.985956	-0.563890	0.000072
C35	C	1.142175	0.108476	0.000080
C36	C	1.235125	0.110127	0.000081
C37	C	0.982980	0.267671	0.000069
C38	C	0.984631	0.360621	0.000069
N39	N	0.989049	0.114599	0.229971
N40	N	0.989142	0.114571	-0.229830
C41	C	0.989112	0.114580	0.589173
C42	C	0.920095	0.183135	0.551560
C43	C	0.920254	0.183385	0.448735
C44	C	0.989080	0.114590	0.410969
C45	C	1.076445	0.133671	0.448266
C46	C	1.076058	0.134159	0.551124
C47	C	0.971542	0.026741	0.551272
C48	C	0.969537	0.027327	0.448409
C49	C	0.989067	0.114593	0.310255
C50	C	0.989130	0.114579	0.689886
H51	H	0.545929	0.229421	-0.087335
H52	H	1.004325	-0.314320	0.147042
C53	C	0.410451	0.114412	-0.169356
N54	N	0.391840	0.080890	-0.233447
C55	C	1.147486	0.068013	0.415214
N56	N	1.200994	0.018558	0.390317
H57	H	0.560191	0.129845	-0.146912
C58	C	0.935041	0.270702	0.586466
N59	N	0.946301	0.336657	0.612758
H60	H	0.559041	0.127829	0.146989
H61	H	0.854945	0.171953	0.576317
H62	H	0.855314	0.172016	0.423519
C63	C	0.994907	-0.467455	-0.169691
N64	N	0.964452	-0.488353	-0.234677
H65	H	0.861974	-0.297200	0.060568
H66	H	0.547102	0.228494	0.089741
C67	C	1.097856	0.219234	0.413467
N68	N	1.113977	0.283685	0.387261
C69	C	0.846845	-0.448198	0.080926
N70	N	0.809775	-0.468106	0.142091
H71	H	0.403031	0.228312	0.084113
C72	C	0.935415	0.271446	0.415479
N73	N	0.946840	0.337775	0.390432
C74	C	0.407041	0.120375	0.169830
N75	N	0.386139	0.089909	0.234816
C76	C	1.096957	0.220707	0.583525
N77	N	1.112693	0.285901	0.607925
C78	C	1.147540	0.069290	0.584737
N79	N	1.201389	0.020443	0.610051
H80	H	0.862238	-0.296649	-0.060344
H81	H	1.103910	-0.328579	0.087471
C82	C	0.846645	-0.446806	-0.081903
N83	N	0.809416	-0.465681	-0.143390
C84	C	0.990766	-0.305906	-0.168739
N85	N	0.957209	-0.278149	-0.232174
C86	C	0.988890	-0.464062	0.169496
N87	N	0.955358	-0.482677	0.233587
H88	H	0.909219	0.008392	0.577258
H89	H	1.103014	-0.327400	-0.089603
H90	H	0.433165	-0.014865	-0.059694
H91	H	1.100617	-0.471588	0.088231
C92	C	0.391601	0.249715	-0.089451
N93	N	0.358790	0.318106	-0.093366
C94	C	1.126518	-0.482619	-0.084170
N95	N	1.195198	-0.514946	-0.084742
C96	C	0.882713	0.007764	0.415483
N97	N	0.817315	-0.006967	0.390680
C98	C	1.033049	-0.044821	0.413702
N99	N	1.080899	-0.099161	0.387569
H100	H	1.021872	-0.024275	0.575595
H101	H	0.577852	-0.012275	0.060467
H102	H	0.577307	-0.012521	-0.060446
C103	C	0.427697	-0.027871	0.082036
N104	N	0.408823	-0.065108	0.143525
