data_functionalizedCrystal
_audit_creation_method	'MofGen! by Chris Wilmer'
_symmetry_space_group_name_H-M	'P1'
_symmetry_Int_Tables_number	1
_symmetry_cell_setting	triclinic
loop_
_symmetry_equiv_pos_as_xyz
  x,y,z
_cell_length_a	16.109301
_cell_length_b	16.109301
_cell_length_c	8.140239
_cell_angle_alpha	89.995060
_cell_angle_beta	89.999641
_cell_angle_gamma	83.461532
loop_
_atom_site_label
_atom_site_type_symbol
_atom_site_fract_x
_atom_site_fract_y
_atom_site_fract_z
O1	O	1.103130	0.106867	-0.136528
O2	O	1.353130	0.356867	0.113472
O3	O	1.603130	0.606867	0.363472
O4	O	1.853130	0.856867	0.613472
O5	O	0.861068	0.120166	-0.136552
O6	O	1.111068	0.370166	0.113448
O7	O	1.361068	0.620166	0.363448
O8	O	1.611068	0.870166	0.613448
O9	O	0.988748	-0.007515	-0.136523
O10	O	1.238748	0.242485	0.113477
O11	O	1.488748	0.492485	0.363477
O12	O	1.738748	0.742485	0.613477
O13	O	0.975449	0.234547	-0.136558
O14	O	1.225449	0.484547	0.113442
O15	O	1.475449	0.734547	0.363442
O16	O	1.725449	0.984547	0.613442
O17	O	0.988741	-0.007516	0.136704
O18	O	1.238741	0.242484	0.386704
O19	O	1.488741	0.492484	0.636704
O20	O	1.738741	0.742484	0.886704
O21	O	0.861061	0.120165	0.136675
O22	O	1.111061	0.370165	0.386675
O23	O	1.361061	0.620165	0.636675
O24	O	1.611061	0.870165	0.886675
O25	O	1.103123	0.106865	0.136699
O26	O	1.353123	0.356865	0.386699
O27	O	1.603123	0.606865	0.636699
O28	O	1.853123	0.856865	0.886699
Zn29	Zn	0.982091	0.113515	0.180067
Zn30	Zn	1.232091	0.363515	0.430067
Zn31	Zn	1.482091	0.613515	0.680067
Zn32	Zn	1.732091	0.863515	0.930067
Zn33	Zn	0.982100	0.113517	-0.179921
Zn34	Zn	1.232100	0.363517	0.070079
Zn35	Zn	1.482100	0.613517	0.320079
Zn36	Zn	1.732100	0.863517	0.570079
O37	O	0.975442	0.234546	0.136669
O38	O	1.225442	0.484546	0.386669
O39	O	1.475442	0.734546	0.636669
O40	O	1.725442	0.984546	0.886669
C41	C	0.830089	0.119627	0.000059
C42	C	1.080089	0.369627	0.250059
C43	C	1.330089	0.619627	0.500059
C44	C	1.580089	0.869627	0.750059
C45	C	0.737794	0.118011	0.000050
C46	C	0.987794	0.368011	0.250050
C47	C	1.237794	0.618011	0.500050
C48	C	1.487794	0.868011	0.750050
C49	C	0.428796	0.188494	0.000069
C50	C	0.678796	0.438494	0.250069
C51	C	0.928796	0.688494	0.500069
C52	C	1.178796	0.938494	0.750069
C53	C	0.515516	0.190020	0.000059
C54	C	0.765516	0.440020	0.250059
C55	C	1.015516	0.690020	0.500059
C56	C	1.265516	0.940020	0.750059
C57	C	0.535389	0.038531	0.000059
C58	C	0.785389	0.288531	0.250059
C59	C	1.035389	0.538531	0.500059
C60	C	1.285389	0.788531	0.750059
C61	C	0.448671	0.037007	0.000057
C62	C	0.698671	0.287007	0.250057
C63	C	0.948671	0.537007	0.500057
C64	C	1.198671	0.787007	0.750057
C65	C	0.395376	0.111991	0.000070
C66	C	0.645376	0.361991	0.250070
C67	C	0.895376	0.611991	0.500070
C68	C	1.145376	0.861991	0.750070
C69	C	0.568815	0.115041	0.000062
C70	C	0.818815	0.365041	0.250062
C71	C	1.068815	0.615041	0.500062
C72	C	1.318815	0.865041	0.750062
C73	C	0.662841	0.116694	0.000052
C74	C	0.912841	0.366694	0.250052
C75	C	1.162841	0.616694	0.500052
C76	C	1.412841	0.866694	0.750052
C77	C	0.301344	0.110338	0.000077
C78	C	0.551344	0.360338	0.250077
C79	C	0.801344	0.610338	0.500077
C80	C	1.051344	0.860338	0.750077
C81	C	0.988206	-0.038490	0.000091
C82	C	1.238206	0.211510	0.250091
C83	C	1.488206	0.461510	0.500091
C84	C	1.738206	0.711510	0.750091
C85	C	0.986591	-0.130785	0.000094
C86	C	1.236591	0.119215	0.250094
C87	C	1.486591	0.369215	0.500094
C88	C	1.736591	0.619215	0.750094
C89	C	1.058599	-0.353058	0.000075
C90	C	1.308599	-0.103058	0.250075
C91	C	1.558599	0.146942	0.500075
C92	C	1.808599	0.396942	0.750075
C93	C	1.057075	-0.439778	0.000061
C94	C	1.307075	-0.189778	0.250061
C95	C	1.557075	0.060222	0.500061
C96	C	1.807075	0.310222	0.750061
C97	C	0.905586	-0.419904	0.000053
C98	C	1.155586	-0.169904	0.250053
C99	C	1.405586	0.080096	0.500053
C100	C	1.655586	0.330096	0.750053
C101	C	0.907111	-0.333185	0.000054
C102	C	1.157111	-0.083185	0.250054
C103	C	1.407111	0.166815	0.500054
C104	C	1.657111	0.416815	0.750054
C105	C	0.983620	-0.299765	0.000074
C106	C	1.233620	-0.049765	0.250074
C107	C	1.483620	0.200235	0.500074
C108	C	1.733620	0.450235	0.750074
C109	C	0.980571	-0.473204	0.000058
C110	C	1.230571	-0.223204	0.250058
C111	C	1.480571	0.026796	0.500058
C112	C	1.730571	0.276796	0.750058
C113	C	0.978918	-0.567230	0.000043
C114	C	1.228918	-0.317230	0.250043
C115	C	1.478918	-0.067230	0.500043
C116	C	1.728918	0.182770	0.750043
C117	C	0.985273	-0.205733	0.000086
C118	C	1.235273	0.044267	0.250086
C119	C	1.485273	0.294267	0.500086
C120	C	1.735273	0.544267	0.750086
C121	C	1.134101	0.107405	0.000084
C122	C	1.384101	0.357405	0.250084
C123	C	1.634101	0.607405	0.500084
C124	C	1.884101	0.857405	0.750084
C125	C	1.226396	0.109020	0.000082
C126	C	1.476396	0.359020	0.250082
C127	C	1.726396	0.609020	0.500082
C128	C	1.976396	0.859020	0.750082
C129	C	0.975984	0.265522	0.000051
C130	C	1.225984	0.515522	0.250051
C131	C	1.475984	0.765522	0.500051
C132	C	1.725984	1.015522	0.750051
C133	C	0.977599	0.357817	0.000038
C134	C	1.227599	0.607817	0.250038
C135	C	1.477599	0.857817	0.500038
C136	C	1.727599	1.107817	0.750038
N137	N	0.982090	0.113513	0.425750
N138	N	1.232090	0.363513	0.675750
N139	N	1.482090	0.613513	0.925750
N140	N	1.732090	0.863513	1.175750
N141	N	0.982107	0.113512	-0.425604
N142	N	1.232107	0.363512	-0.175604
N143	N	1.482107	0.613512	0.074396
N144	N	1.732107	0.863512	0.324396
H145	H	0.421461	-0.025296	0.000052
H146	H	0.671461	0.224704	0.250052
H147	H	0.921461	0.474704	0.500052
H148	H	1.171461	0.724704	0.750052
H149	H	0.578792	-0.022518	0.000052
H150	H	0.828792	0.227482	0.250052
H151	H	1.078792	0.477482	0.500052
H152	H	1.328792	0.727482	0.750052
H153	H	0.542722	0.252317	0.000056
H154	H	0.792722	0.502317	0.250056
H155	H	1.042722	0.752317	0.500056
H156	H	1.292722	1.002317	0.750056
Cl157	Cl	1.154781	-0.311046	0.000095
Cl158	Cl	1.404781	-0.061046	0.250095
Cl159	Cl	1.654781	0.188954	0.500095
Cl160	Cl	1.904781	0.438954	0.750095
H161	H	1.118130	-0.483167	0.000058
H162	H	1.368130	-0.233167	0.250058
H163	H	1.618130	0.016833	0.500058
H164	H	1.868130	0.266833	0.750058
Cl165	Cl	0.809409	-0.461925	0.000029
Cl166	Cl	1.059409	-0.211925	0.250029
Cl167	Cl	1.309409	0.038075	0.500029
Cl168	Cl	1.559409	0.288075	0.750029
H169	H	0.385405	0.249551	0.000078
H170	H	0.635405	0.499551	0.250078
H171	H	0.885405	0.749551	0.500078
H172	H	1.135405	0.999551	0.750078
H173	H	0.846050	-0.289791	0.000049
H174	H	1.096050	-0.039791	0.250049
H175	H	1.346050	0.210209	0.500049
H176	H	1.596050	0.460209	0.750049
