data_functionalizedCrystal
_audit_creation_method	'MofGen! by Chris Wilmer'
_symmetry_space_group_name_H-M	'P1'
_symmetry_Int_Tables_number	1
_symmetry_cell_setting	triclinic
loop_
_symmetry_equiv_pos_as_xyz
  x,y,z
_cell_length_a	14.853566
_cell_length_b	13.330367
_cell_length_c	14.853567
_cell_angle_alpha	89.999156
_cell_angle_beta	96.365328
_cell_angle_gamma	90.004705
loop_
_atom_site_label
_atom_site_type_symbol
_atom_site_fract_x
_atom_site_fract_y
_atom_site_fract_z
O1	O	1.196370	0.083349	-0.117698
O2	O	1.696370	0.583349	0.382302
O3	O	0.933910	0.083364	-0.131721
O4	O	1.433910	0.583364	0.368279
O5	O	1.072150	0.083359	0.006520
O6	O	1.572150	0.583359	0.506520
O7	O	1.058129	0.083354	-0.255939
O8	O	1.558129	0.583354	0.244061
O9	O	1.072130	-0.083488	0.006523
O10	O	1.572130	0.416512	0.506523
O11	O	0.933890	-0.083483	-0.131718
O12	O	1.433890	0.416517	0.368282
O13	O	1.196349	-0.083499	-0.117695
O14	O	1.696349	0.416501	0.382305
Cu15	Cu	1.065118	-0.098725	-0.124706
Cu16	Cu	1.565118	0.401275	0.375294
Cu17	Cu	1.065142	0.098591	-0.124710
Cu18	Cu	1.565142	0.598591	0.375290
O19	O	1.058109	-0.083493	-0.255936
O20	O	1.558109	0.416507	0.244064
C21	C	0.900311	-0.000057	-0.131084
C22	C	1.400311	0.499943	0.368916
C23	C	0.800227	-0.000051	-0.129181
C24	C	1.300227	0.499949	0.370819
C25	C	0.377053	0.090880	-0.121132
C26	C	0.877053	0.590880	0.378868
C27	C	0.377053	-0.091023	-0.121129
C28	C	0.877053	0.408977	0.378871
C29	C	0.471087	-0.091020	-0.122916
C30	C	0.971087	0.408980	0.377084
C31	C	0.518108	-0.000066	-0.123813
C32	C	1.018108	0.499934	0.376187
C33	C	0.471096	0.090886	-0.122922
C34	C	0.971096	0.590886	0.377078
C35	C	0.518105	-0.181970	-0.123816
C36	C	1.018105	0.318030	0.376184
C37	C	0.612145	-0.181971	-0.125605
C38	C	1.112145	0.318029	0.374395
C39	C	0.659169	-0.091015	-0.126495
C40	C	1.159169	0.408985	0.373505
C41	C	0.612151	-0.000060	-0.125603
C42	C	1.112151	0.499940	0.374397
C43	C	0.659172	0.090895	-0.126500
C44	C	1.159172	0.590895	0.373500
C45	C	0.612157	0.181851	-0.125601
C46	C	1.112157	0.681851	0.374399
C47	C	0.518120	0.181841	-0.123812
C48	C	1.018120	0.681841	0.376188
C49	C	0.753206	-0.091006	-0.128284
C50	C	1.253206	0.408994	0.371716
C51	C	0.753215	0.090900	-0.128290
C52	C	1.253215	0.590900	0.371710
N53	N	1.065108	-0.237507	-0.124703
N54	N	1.565108	0.262493	0.375297
C55	C	1.003926	-0.710127	-0.185899
C56	C	1.503926	-0.210127	0.314101
C57	C	1.126381	-0.710100	-0.063514
C58	C	1.626381	-0.210100	0.436486
C59	C	1.126371	-0.605082	-0.063511
C60	C	1.626371	-0.105082	0.436489
C61	C	1.065138	-0.552581	-0.124704
C62	C	1.565138	-0.052581	0.375296
C63	C	1.003916	-0.605099	-0.185900
C64	C	1.503916	-0.105099	0.314100
C65	C	1.187599	-0.552556	-0.002322
C66	C	1.687599	-0.052556	0.497678
C67	C	1.187592	-0.447531	-0.002318
C68	C	1.687592	0.052469	0.497682
C69	C	1.126354	-0.395029	-0.063507
C70	C	1.626354	0.104971	0.436493
C71	C	1.065128	-0.447553	-0.124705
C72	C	1.565128	0.052447	0.375295
C73	C	1.003895	-0.395053	-0.185898
C74	C	1.503895	0.104947	0.314102
C75	C	0.942664	-0.447575	-0.247092
C76	C	1.442664	0.052425	0.252908
C77	C	0.942678	-0.552597	-0.247089
C78	C	1.442678	-0.052597	0.252911
C79	C	1.126340	-0.290007	-0.063510
C80	C	1.626340	0.209993	0.436490
C81	C	1.003885	-0.290025	-0.185899
C82	C	1.503885	0.209975	0.314101
C83	C	1.229948	-0.000075	-0.118332
C84	C	1.729948	0.499925	0.381668
C85	C	1.330032	-0.000075	-0.120235
C86	C	1.830032	0.499925	0.379765
C87	C	1.071505	-0.000062	0.040111
C88	C	1.571505	0.499938	0.540111
C89	C	1.069601	-0.000053	0.140194
C90	C	1.569601	0.499947	0.640194
N91	N	1.065159	0.237372	-0.124706
N92	N	1.565159	0.737372	0.375294
C93	C	1.058754	-0.000071	-0.289526
C94	C	1.558754	0.499929	0.210474
C95	C	1.060658	-0.000073	-0.389610
C96	C	1.560658	0.499927	0.110390
C97	C	0.979435	-0.000067	0.552728
C98	C	1.479435	0.499933	1.052728
C99	C	1.143668	-0.000076	0.574009
C100	C	1.643668	0.499924	1.074009
C101	C	1.145458	-0.000070	0.479976
C102	C	1.645458	0.499930	0.979976
C103	C	1.064236	-0.000064	0.422313
C104	C	1.564236	0.499936	0.922313
C105	C	0.981223	-0.000064	0.458685
C106	C	1.481223	0.499936	0.958685
C107	C	1.228470	-0.000081	0.443597
C108	C	1.728470	0.499919	0.943597
C109	C	1.230263	-0.000076	0.349558
C110	C	1.730263	0.499924	0.849558
C111	C	1.149040	-0.000063	0.291894
C112	C	1.649040	0.499937	0.791894
C113	C	1.066023	-0.000061	0.328271
C114	C	1.566023	0.499939	0.828271
C115	C	0.984801	-0.000055	0.270608
C116	C	1.484801	0.499945	0.770608
C117	C	0.901784	-0.000047	0.306984
C118	C	1.401784	0.499953	0.806984
C119	C	0.899999	-0.000050	0.401021
C120	C	1.399999	0.499950	0.901021
C121	C	1.150824	-0.000059	0.197856
C122	C	1.650824	0.499941	0.697856
C123	C	0.986588	-0.000052	0.176566
C124	C	1.486588	0.499948	0.676566
H125	H	0.338762	-0.165074	-0.120405
H126	H	0.838762	0.334926	0.379595
F127	F	0.877518	-0.608499	-0.312213
F128	F	1.377518	-0.108499	0.187787
H129	H	0.650453	0.255906	-0.126337
H130	H	1.150453	0.755906	0.373663
F131	F	0.803252	0.187709	-0.129237
F132	F	1.303252	0.687709	0.370763
F133	F	0.662174	-0.278773	-0.126560
F134	F	1.162174	0.221227	0.373440
H135	H	1.209796	-0.000089	0.620963
H136	H	1.709796	0.499911	1.120963
H137	H	0.954018	-0.247285	-0.235727
H138	H	1.454018	0.252715	0.264273
H139	H	0.791481	-0.165061	-0.129025
H140	H	1.291481	0.334939	0.370975
H141	H	1.218415	-0.000073	0.168244
H142	H	1.718415	0.499927	0.668244
F143	F	0.938759	-0.766023	-0.251020
F144	F	1.438759	-0.266023	0.248980
H145	H	1.176198	-0.247248	-0.013691
H146	H	1.676198	0.252752	0.486309
H147	H	0.338770	0.164934	-0.120397
H148	H	0.838770	0.664934	0.379603
F149	F	1.252755	-0.391640	0.062810
F150	F	1.752755	0.108360	0.562810
H151	H	1.294597	-0.000095	0.490552
H152	H	1.794597	0.499905	0.990552
H153	H	1.176240	-0.752849	-0.013696
H154	H	1.676240	-0.252849	0.486304
F155	F	1.318616	-0.000073	0.310853
F156	F	1.818616	0.499927	0.810853
H157	H	0.832411	-0.000044	0.430646
H158	H	1.332411	0.499956	0.930646
H159	H	0.835653	-0.000048	0.260023
H160	H	1.335653	0.499952	0.760023
F161	F	0.468056	-0.278763	-0.122872
F162	F	0.968056	0.221237	0.377128
H163	H	0.892812	-0.404818	-0.296920
H164	H	1.392812	0.095182	0.203080
F165	F	1.252770	-0.608430	0.062795
F166	F	1.752770	-0.108430	0.562795
F167	F	0.900138	-0.000039	0.115204
F168	F	1.400138	0.499961	0.615204
F169	F	0.468080	0.278634	-0.122828
F170	F	0.968080	0.778634	0.377172
H171	H	0.911845	-0.000056	0.582349
H172	H	1.411845	0.499944	1.082349
