data_functionalizedCrystal
_audit_creation_method	'MofGen! by Chris Wilmer'
_symmetry_space_group_name_H-M	'P1'
_symmetry_Int_Tables_number	1
_symmetry_cell_setting	triclinic
loop_
_symmetry_equiv_pos_as_xyz
  x,y,z
_cell_length_a	23.532407
_cell_length_b	26.809956
_cell_length_c	23.532407
_cell_angle_alpha	90.010827
_cell_angle_beta	82.848678
_cell_angle_gamma	90.018553
loop_
_atom_site_label
_atom_site_type_symbol
_atom_site_fract_x
_atom_site_fract_y
_atom_site_fract_z
O1	O	0.755276	0.041422	0.069134
O2	O	0.589412	0.041438	0.079137
O3	O	0.677346	0.041420	-0.008796
O4	O	0.667342	0.041440	0.157067
O5	O	0.677306	-0.041539	-0.008797
O6	O	0.589372	-0.041522	0.079136
O7	O	0.755236	-0.041537	0.069133
Zn8	Zn	0.672298	-0.054701	0.074134
Zn9	Zn	0.672350	0.054602	0.074136
O10	O	0.667303	-0.041520	0.157066
C11	C	0.568176	-0.000040	0.078882
C12	C	0.504959	-0.000035	0.078116
N13	N	0.672266	-0.129297	0.074133
C14	C	0.105856	-0.000052	0.125350
C15	C	0.046456	-0.000055	0.124638
O16	O	0.009711	-0.000068	0.168424
N17	N	0.023830	-0.000060	0.072362
C18	C	0.060607	-0.000067	0.020794
O19	O	0.035908	-0.000072	-0.023737
C20	C	0.120006	-0.000068	0.021506
C21	C	0.142629	-0.000057	0.073785
C22	C	0.128479	-0.000042	0.177625
C23	C	0.187876	-0.000038	0.178336
C24	C	0.224648	-0.000044	0.126772
C25	C	0.202025	-0.000053	0.074496
C26	C	0.156783	-0.000078	-0.030062
C27	C	0.216185	-0.000079	-0.029345
C28	C	0.238808	-0.000069	0.022934
C29	C	0.298194	-0.000055	0.023643
N30	N	0.320820	-0.000050	0.075920
C31	C	0.284048	-0.000044	0.127484
C32	C	-0.064135	-0.000067	0.019302
C33	C	-0.123533	-0.000063	0.018589
C34	C	-0.137680	-0.000052	0.122434
C35	C	-0.078281	-0.000052	0.123146
C36	C	-0.041509	-0.000062	0.071578
C37	C	0.408784	-0.000035	0.128974
C38	C	0.468186	-0.000029	0.129680
C39	C	0.482329	-0.000043	0.025836
C40	C	0.422932	-0.000047	0.025129
C41	C	0.386160	-0.000044	0.076702
O42	O	0.334974	-0.000044	-0.020119
O43	O	0.308755	-0.000045	0.172007
C44	C	0.633374	-0.526172	0.113054
C45	C	0.633345	-0.317295	0.113054
O46	O	0.600205	-0.290288	0.146141
N47	N	0.672286	-0.291175	0.074131
C48	C	0.711236	-0.317279	0.035203
O49	O	0.744353	-0.290270	0.002093
C50	C	0.711262	-0.526155	0.035200
C51	C	0.672322	-0.552272	0.074130
C52	C	0.594437	-0.552289	0.151980
C53	C	0.594446	-0.604506	0.151982
C54	C	0.633394	-0.630605	0.113057
C55	C	0.672332	-0.604488	0.074132
C56	C	0.750208	-0.552257	-0.003730
C57	C	0.750211	-0.604480	-0.003728
C58	C	0.711270	-0.630597	0.035201
C59	C	0.711289	-0.682804	0.035209
N60	N	0.672347	-0.708924	0.074132
C61	C	0.633400	-0.682824	0.113056
C62	C	0.711220	-0.207615	0.035208
C63	C	0.711214	-0.155396	0.035209
C64	C	0.633322	-0.155416	0.113060
C65	C	0.633331	-0.207636	0.113061
C66	C	0.672278	-0.233735	0.074131
C67	C	0.633424	-0.792482	0.113057
C68	C	0.633439	-0.844703	0.113057
C69	C	0.711328	-0.844678	0.035204
C70	C	0.711316	-0.792462	0.035206
C71	C	0.672359	-0.766365	0.074135
O72	O	0.744407	-0.709843	0.002136
O73	O	0.600279	-0.709842	0.146153
C74	C	0.633364	-0.473956	0.113053
C75	C	0.672302	-0.447839	0.074127
C76	C	0.711249	-0.473939	0.035202
C77	C	0.672296	-0.395620	0.074128
C78	C	0.633349	-0.369521	0.113052
C79	C	0.594407	-0.395640	0.151975
C80	C	0.594417	-0.447857	0.151977
C81	C	0.750191	-0.447819	-0.003721
C82	C	0.750179	-0.395603	-0.003719
C83	C	0.711231	-0.369504	0.035206
C84	C	0.776472	-0.000058	0.069388
C85	C	0.839689	-0.000060	0.070154
C86	C	0.677071	-0.000060	-0.030013
C87	C	0.676305	-0.000064	-0.093230
N88	N	0.672386	0.129198	0.074132
C89	C	0.723539	-0.000041	-0.492333
C90	C	0.722827	-0.000037	-0.551733
O91	O	0.766613	-0.000023	-0.588478
N92	N	0.670551	-0.000033	-0.574359
C93	C	0.618983	-0.000027	-0.537582
O94	O	0.574452	-0.000023	-0.562281
C95	C	0.619695	-0.000027	-0.478182
C96	C	0.671974	-0.000037	-0.455560
C97	C	0.775814	-0.000050	-0.469710
C98	C	0.776525	-0.000055	-0.410313
C99	C	0.724961	-0.000051	-0.373540
C100	C	0.672685	-0.000042	-0.396164
C101	C	0.568127	-0.000018	-0.441406
C102	C	0.568844	-0.000018	-0.382004
C103	C	0.621123	-0.000028	-0.359381
C104	C	0.621832	-0.000042	-0.299995
N105	N	0.674109	-0.000047	-0.277368
C106	C	0.725673	-0.000051	-0.314141
C107	C	0.617491	-0.000026	-0.662324
C108	C	0.616778	-0.000029	-0.721722
C109	C	0.720623	-0.000038	-0.735869
C110	C	0.721335	-0.000039	-0.676470
C111	C	0.669767	-0.000030	-0.639698
C112	C	0.727163	-0.000062	-0.189405
C113	C	0.727869	-0.000068	-0.130003
C114	C	0.624025	-0.000057	-0.115860
C115	C	0.623318	-0.000052	-0.175257
C116	C	0.674891	-0.000053	-0.212029
O117	O	0.578070	-0.000055	-0.263215
O118	O	0.770196	-0.000049	-0.289433
C119	C	0.667577	-0.000038	0.178283
C120	C	0.668343	-0.000031	0.241500
H121	H	0.486602	-0.000020	0.172255
Br122	Br	0.798825	-0.000082	-0.099305
H123	H	-0.141947	-0.000064	-0.023982
H124	H	0.763906	-0.000046	-0.658056
Br125	Br	0.764073	-0.119958	-0.017616
Br126	Br	0.580553	-0.757073	0.165889
Br127	Br	-0.047586	-0.000038	0.194099
H128	H	0.575496	-0.000023	-0.632386
H129	H	0.562736	-0.625767	0.183680
H130	H	0.378851	-0.000035	0.170970
H131	H	0.246123	-0.000088	-0.071339
Br132	Br	0.764082	-0.243029	-0.017630
Br133	Br	0.078583	-0.000034	0.247615
Br134	Br	0.797156	-0.000062	-0.239299
Br135	Br	0.532245	-0.000052	-0.044141
H136	H	-0.167632	-0.000050	0.164421
Br137	Br	0.764172	-0.757019	-0.017621
Br138	Br	0.580465	-0.119985	0.165885
Br139	Br	0.847480	-0.000054	-0.379621
Br140	Br	0.580590	-0.880145	0.165895
Br141	Br	0.803068	-0.639896	-0.056568
Br142	Br	0.218568	-0.000026	0.249291
H143	H	0.404512	-0.000048	-0.017441
Br144	Br	0.803058	-0.516824	-0.056566
Br145	Br	0.541572	-0.516877	0.204812
H146	H	0.743041	-0.865937	0.003514
Br147	Br	0.580481	-0.243074	0.165895
Br148	Br	0.545825	-0.000028	-0.752416
Br149	Br	0.552367	-0.000051	-0.205961
H150	H	0.781893	-0.374342	-0.035419
H151	H	0.817806	-0.000052	-0.499645
Br152	Br	0.541553	-0.360209	0.204803
H153	H	-0.034198	-0.000071	-0.022693
H154	H	0.138374	-0.000087	-0.072634
Br155	Br	0.790604	-0.000042	-0.785787
Br156	Br	0.497171	-0.000003	-0.472092
Br157	Br	0.498854	-0.000005	-0.332101
H158	H	0.562708	-0.469117	0.183677
H159	H	0.781906	-0.469066	-0.035418
H160	H	0.582043	-0.000055	-0.085909
