data_functionalizedCrystal
_audit_creation_method	'MofGen! by Chris Wilmer'
_symmetry_space_group_name_H-M	'P1'
_symmetry_Int_Tables_number	1
_symmetry_cell_setting	triclinic
loop_
_symmetry_equiv_pos_as_xyz
  x,y,z
_cell_length_a	10.489716
_cell_length_b	10.489741
_cell_length_c	9.565339
_cell_angle_alpha	90.000516
_cell_angle_beta	89.996780
_cell_angle_gamma	84.534155
loop_
_atom_site_label
_atom_site_type_symbol
_atom_site_fract_x
_atom_site_fract_y
_atom_site_fract_z
O1	O	1.694071	0.179810	-0.116248
O2	O	1.322871	0.196735	-0.116253
O3	O	1.516918	0.002674	-0.116242
O4	O	1.500025	0.373871	-0.116259
O5	O	1.516902	0.002686	0.116278
O6	O	1.322856	0.196747	0.116267
O7	O	1.694056	0.179822	0.116272
Zn8	Zn	1.508453	0.188286	0.153187
Zn9	Zn	1.508474	0.188271	-0.153168
O10	O	1.500009	0.373883	0.116261
C11	C	1.275332	0.195470	0.000006
C12	C	1.133701	0.191665	0.000005
C13	C	1.036027	0.310669	-0.000004
C14	C	0.958673	0.247791	0.114650
C15	C	0.958695	0.247751	-0.114597
C16	C	1.058213	0.128836	0.114753
C17	C	1.058240	0.128814	-0.114597
C18	C	0.980935	0.065848	0.000085
C19	C	1.515634	-0.044852	0.000017
C20	C	1.511817	-0.186481	0.000015
C21	C	1.388351	-0.254610	0.000003
C22	C	1.446668	-0.346732	0.114648
C23	C	1.446712	-0.346718	-0.114599
C24	C	1.570184	-0.276737	0.114754
C25	C	1.570212	-0.276714	-0.114595
C26	C	1.628618	-0.368808	0.000078
C27	C	1.741596	0.181087	0.000010
C28	C	1.883227	0.184892	0.000002
C29	C	1.501293	0.421409	-0.000001
C30	C	1.505110	0.563038	-0.000008
N31	N	1.508449	0.188297	0.362267
N32	N	1.508488	0.188250	-0.362247
C33	C	1.418681	0.278013	0.453465
C34	C	1.534180	0.303814	0.546644
C35	C	1.393001	0.162506	0.546643
C36	C	1.624006	0.214155	0.453394
C37	C	1.482750	0.072797	0.453385
C38	C	1.598332	0.098549	0.546522
H39	H	1.101522	0.078633	0.211779
H40	H	1.460952	-0.024827	0.412389
C41	C	1.640685	-0.235088	0.245845
N42	N	1.693780	-0.203713	0.344585
H43	H	1.730222	-0.418241	0.000143
H44	H	1.622415	-0.245679	-0.211523
C45	C	0.947916	-0.074095	0.000185
N46	N	0.923040	-0.179498	0.000268
C47	C	1.069375	0.450507	0.000142
N48	N	1.094498	0.555829	0.000260
C49	C	1.376119	-0.388568	-0.245538
N50	N	1.322940	-0.420083	-0.344157
H51	H	1.342838	0.353954	0.412605
H52	H	1.555942	0.401469	0.587607
C53	C	1.117011	0.060989	-0.245546
N54	N	1.161273	0.009909	-0.344188
C55	C	1.251217	-0.187510	0.000159
N56	N	1.147931	-0.136967	0.000285
C57	C	1.376083	-0.388621	0.245583
N58	N	1.322910	-0.420168	0.344198
H59	H	0.915218	0.298007	-0.211514
C60	C	1.701023	-0.003969	0.601399
N61	N	1.778373	-0.081177	0.642742
C62	C	0.899908	0.315668	0.245582
N63	N	0.855645	0.366801	0.344194
C64	C	1.755955	0.243762	0.398296
N65	N	1.855335	0.266067	0.356793
C66	C	1.261081	0.133057	0.601972
N67	N	1.161715	0.110885	0.643640
