data_functionalizedCrystal
_audit_creation_method	'MofGen! by Chris Wilmer'
_symmetry_space_group_name_H-M	'P1'
_symmetry_Int_Tables_number	1
_symmetry_cell_setting	triclinic
loop_
_symmetry_equiv_pos_as_xyz
  x,y,z
_cell_length_a	12.759401
_cell_length_b	17.077402
_cell_length_c	12.759393
_cell_angle_alpha	89.965312
_cell_angle_beta	89.979062
_cell_angle_gamma	90.024408
loop_
_atom_site_label
_atom_site_type_symbol
_atom_site_fract_x
_atom_site_fract_y
_atom_site_fract_z
Zn1	Zn	1.606207	-0.312438	-0.593990
Zn2	Zn	1.939540	0.020895	-0.260656
Zn3	Zn	2.272873	0.354228	0.072677
Zn4	Zn	1.606073	-0.443724	-0.418297
Zn5	Zn	1.939406	-0.110391	-0.084963
Zn6	Zn	2.272739	0.222942	0.248370
Zn7	Zn	1.430505	-0.312480	-0.418325
Zn8	Zn	1.763839	0.020853	-0.084991
Zn9	Zn	2.097172	0.354187	0.248342
Zn10	Zn	1.430472	-0.443669	-0.593934
Zn11	Zn	1.763805	-0.110336	-0.260601
Zn12	Zn	2.097139	0.222997	0.072733
O13	O	1.518314	-0.378078	-0.506136
O14	O	1.851648	-0.044745	-0.172803
O15	O	2.184981	0.288589	0.160530
O16	O	1.753210	-0.329859	-0.570695
O17	O	2.086543	0.003474	-0.237362
O18	O	2.419877	0.336808	0.095972
O19	O	1.582741	-0.426355	-0.271279
O20	O	1.916074	-0.093022	0.062054
O21	O	2.249408	0.240312	0.395387
O22	O	1.453882	-0.202628	-0.441662
O23	O	1.787216	0.130706	-0.108329
O24	O	2.120549	0.464039	0.225005
O25	O	1.753111	-0.426314	-0.441614
O26	O	2.086445	-0.092981	-0.108281
O27	O	2.419778	0.240352	0.225052
O28	O	1.582969	-0.202597	-0.570722
O29	O	1.916303	0.130737	-0.237389
O30	O	2.249636	0.464070	0.095945
O31	O	1.453753	-0.329930	-0.271300
O32	O	1.787086	0.003403	0.062033
O33	O	2.120419	0.336736	0.395367
O34	O	1.283480	-0.329877	-0.441608
O35	O	1.616813	0.003456	-0.108275
O36	O	1.950147	0.336790	0.225059
O37	O	1.453826	-0.426221	-0.740962
O38	O	1.787159	-0.092888	-0.407629
O39	O	2.120493	0.240446	-0.074296
O40	O	1.283456	-0.426261	-0.570627
O41	O	1.616789	-0.092928	-0.237294
O42	O	1.950122	0.240405	0.096039
O43	O	1.582937	-0.329806	-0.741003
O44	O	1.916271	0.003527	-0.407670
O45	O	2.249604	0.336861	-0.074337
O46	O	1.582709	-0.553564	-0.441560
O47	O	1.916042	-0.220231	-0.108227
O48	O	2.249376	0.113103	0.225106
O49	O	1.453696	-0.553524	-0.570600
O50	O	1.787029	-0.220190	-0.237267
O51	O	2.120363	0.113143	0.096066
C52	C	1.245347	-0.378068	-0.506115
C53	C	1.578680	-0.044735	-0.172782
C54	C	1.912013	0.288598	0.160551
C55	C	1.128570	-0.378083	-0.506131
C56	C	1.461904	-0.044750	-0.172798
C57	C	1.795237	0.288583	0.160535
C58	C	1.073723	-0.428347	-0.573206
C59	C	1.407056	-0.095014	-0.239873
C60	C	1.740390	0.238320	0.093461
C61	C	0.963999	-0.428350	-0.573227
C62	C	1.297332	-0.095017	-0.239894
C63	C	1.630666	0.238317	0.093440
C64	C	0.963979	-0.327823	-0.439089
C65	C	1.297312	0.005510	-0.105756
C66	C	1.630646	0.338843	0.227577
C67	C	1.073701	-0.327817	-0.439075
C68	C	1.407034	0.005516	-0.105741
C69	C	1.740368	0.338850	0.227592
C70	C	1.518213	-0.582026	-0.506094
C71	C	1.851546	-0.248693	-0.172761
C72	C	2.184879	0.084641	0.160572
C73	C	1.518266	-0.669276	-0.506111
C74	C	1.851599	-0.335942	-0.172778
C75	C	2.184932	-0.002609	0.160555
C76	C	1.585511	-0.710261	-0.438993
C77	C	1.918844	-0.376927	-0.105659
C78	C	2.252178	-0.043594	0.227674
C79	C	1.585563	-0.792241	-0.439019
C80	C	1.918896	-0.458908	-0.105686
C81	C	2.252229	-0.125574	0.227647
C82	C	1.518362	-0.833235	-0.506161
C83	C	1.851696	-0.499902	-0.172827
C84	C	2.185029	-0.166568	0.160506
C85	C	1.451114	-0.792244	-0.573287
C86	C	1.784447	-0.458911	-0.239954
C87	C	2.117780	-0.125578	0.093380
C88	C	1.451068	-0.710265	-0.573265
C89	C	1.784402	-0.376932	-0.239931
C90	C	2.117735	-0.043599	0.093402
C91	C	1.451211	-0.963114	-0.573327
C92	C	1.784544	-0.629781	-0.239993
C93	C	2.117878	-0.296448	0.093340
C94	C	1.451255	-1.045099	-0.573348
C95	C	1.784588	-0.711765	-0.240015
C96	C	2.117921	-0.378432	0.093319
C97	C	1.585705	-1.045090	-0.439082
C98	C	1.919039	-0.711757	-0.105748
C99	C	2.252372	-0.378423	0.227585
C100	C	1.585660	-0.963111	-0.439059
C101	C	1.918993	-0.629778	-0.105726
C102	C	2.252327	-0.296444	0.227607
C103	C	1.518410	-0.922126	-0.506184
C104	C	1.851743	-0.588793	-0.172851
C105	C	2.185076	-0.255459	0.160482
C106	C	1.792347	-0.378088	-0.506158
C107	C	2.125681	-0.044755	-0.172824
C108	C	2.459014	0.288578	0.160509
C109	C	1.909124	-0.378093	-0.506167
C110	C	2.242457	-0.044759	-0.172834
C111	C	2.575791	0.288574	0.160500
C112	C	1.518393	-0.378003	-0.780170
C113	C	1.851726	-0.044669	-0.446836
C114	C	2.185059	0.288664	-0.113503
C115	C	1.518426	-0.377971	-0.896946
C116	C	1.851760	-0.044637	-0.563613
C117	C	2.185093	0.288696	-0.230280
C118	C	1.518445	-0.173334	-0.506201
C119	C	1.851778	0.160000	-0.172868
C120	C	2.185111	0.493333	0.160465
C121	C	1.518500	-0.086084	-0.506229
C122	C	1.851834	0.247249	-0.172896
C123	C	2.185167	0.580583	0.160438
C124	C	1.585660	-0.327759	-0.951831
C125	C	1.918993	0.005574	-0.618498
C126	C	2.252326	0.338907	-0.285165
C127	C	1.585677	-0.327725	-1.061555
C128	C	1.919011	0.005608	-0.728222
C129	C	2.252344	0.338941	-0.394889
C130	C	1.451226	-0.428121	-1.061500
C131	C	1.784559	-0.094788	-0.728167
C132	C	2.117892	0.238546	-0.394833
C133	C	1.451203	-0.428150	-0.951778
C134	C	1.784537	-0.094817	-0.618445
C135	C	2.117870	0.238516	-0.285111
C136	C	1.518296	-0.378096	-0.233169
C137	C	1.851630	-0.044763	0.100164
C138	C	2.184963	0.288570	0.433498
C139	C	1.518466	-0.377907	-0.116393
C140	C	1.851800	-0.044574	0.216941
C141	C	2.185133	0.288759	0.550274
H142	H	1.640229	-0.676889	-0.384314
H143	H	1.973562	-0.343556	-0.050981
H144	H	2.306895	-0.010222	0.282353
Br145	Br	0.889567	-0.496564	-0.664266
Br146	Br	1.222900	-0.163231	-0.330932
Br147	Br	1.556234	0.170102	0.002401
Br148	Br	1.148186	-0.496563	-0.664213
Br149	Br	1.481519	-0.163230	-0.330880
Br150	Br	1.814852	0.170104	0.002453
H151	H	0.919291	-0.286900	-0.384493
H152	H	1.252624	0.046434	-0.051159
H153	H	1.585958	0.379767	0.282174
Br154	Br	1.676934	-0.259584	-1.136039
Br155	Br	2.010268	0.073749	-0.802705
Br156	Br	2.343601	0.407083	-0.469372
Br157	Br	1.148144	-0.259589	-0.348048
Br158	Br	1.481477	0.073744	-0.014715
Br159	Br	1.814810	0.407078	0.318619
H160	H	1.640320	-0.825608	-0.384364
H161	H	1.973653	-0.492274	-0.051030
H162	H	2.306987	-0.158941	0.282303
Br163	Br	1.676859	-0.907476	-0.347936
Br164	Br	2.010192	-0.574143	-0.014603
Br165	Br	2.343526	-0.240810	0.318731
H166	H	1.396452	-0.929747	-0.627991
H167	H	1.729785	-0.596414	-0.294658
H168	H	2.063119	-0.263080	0.038676
Br169	Br	1.359921	-0.847878	-0.664418
Br170	Br	1.693254	-0.514544	-0.331084
Br171	Br	2.026587	-0.181211	0.002249
H172	H	1.396311	-0.676896	-0.627921
H173	H	1.729645	-0.343563	-0.294588
H174	H	2.062978	-0.010229	0.038746
Br175	Br	1.676960	-1.100711	-0.347969
Br176	Br	2.010293	-0.767378	-0.014635
Br177	Br	2.343626	-0.434045	0.318698
H178	H	1.396447	-0.469038	-0.907090
H179	H	1.729780	-0.135704	-0.573756
H180	H	2.063113	0.197629	-0.240423
Br181	Br	1.676888	-0.259657	-0.877420
Br182	Br	2.010221	0.073676	-0.544087
Br183	Br	2.343555	0.407010	-0.210753
H184	H	1.396554	-1.078474	-0.628040
H185	H	1.729887	-0.745141	-0.294707
H186	H	2.063220	-0.411807	0.038627
Br187	Br	1.360003	-0.496221	-1.135921
Br188	Br	1.693336	-0.162888	-0.802588
Br189	Br	2.026670	0.170445	-0.469254
