data_functionalizedCrystal
_audit_creation_method	'MofGen! by Chris Wilmer'
_symmetry_space_group_name_H-M	'P1'
_symmetry_Int_Tables_number	1
_symmetry_cell_setting	triclinic
loop_
_symmetry_equiv_pos_as_xyz
  x,y,z
_cell_length_a	14.044202
_cell_length_b	13.101039
_cell_length_c	14.044190
_cell_angle_alpha	93.663707
_cell_angle_beta	93.192239
_cell_angle_gamma	86.337612
loop_
_atom_site_label
_atom_site_type_symbol
_atom_site_fract_x
_atom_site_fract_y
_atom_site_fract_z
O1	O	-1.281982	0.085183	-0.225388
O2	O	-1.005311	0.085196	-0.217072
O3	O	-1.139489	0.085170	-0.082895
O4	O	-1.147804	0.085210	-0.359565
O5	O	-1.129863	-0.085258	-0.092539
O6	O	-0.995685	-0.085232	-0.226717
O7	O	-1.272357	-0.085244	-0.235032
Zn8	Zn	-1.132493	-0.112297	-0.232406
Zn9	Zn	-1.145175	0.112249	-0.219699
O10	O	-1.138178	-0.085218	-0.369210
C11	C	-0.964876	-0.000016	-0.218257
C12	C	-0.858733	-0.000013	-0.207409
C13	C	-0.613276	-0.000014	-0.264508
C14	C	-0.664399	-0.000024	-0.187592
C15	C	-0.772536	-0.000017	-0.198621
C16	C	-0.505128	-0.000020	-0.253480
N17	N	-1.123844	-0.265544	-0.241078
C18	C	-1.112078	-0.474584	-0.252885
C19	C	-1.165593	-0.525471	-0.199215
C20	C	-1.159046	-0.641788	-0.205785
C21	C	-1.118624	-0.358257	-0.246317
C22	C	-0.312792	-0.000029	-0.233845
C23	C	-0.418936	-0.000025	-0.244687
C24	C	-1.131039	-0.000047	-0.052095
C25	C	-1.120192	-0.000055	0.054048
N26	N	-1.153830	0.265496	-0.211019
C27	C	-1.146628	0.000001	-0.400009
C28	C	-1.157476	0.000016	-0.506152
C29	C	-1.177294	-0.000018	0.299507
C30	C	-1.100378	-0.000021	0.248384
C31	C	-1.111405	-0.000040	0.140245
C32	C	-1.166269	0.000001	0.407655
H33	H	-0.626957	0.000038	-0.113456
C34	C	-0.663862	0.000011	-0.364651
N35	N	-0.701975	0.000034	-0.440077
H36	H	-1.216325	-0.481678	-0.148333
H37	H	-1.251420	-0.000032	0.262062
C38	C	-1.043545	-0.533743	-0.321620
N39	N	-0.991926	-0.578313	-0.373391
C40	C	-1.000227	-0.000016	0.298970
N41	N	-0.924796	-0.000016	0.337075
