data_functionalizedCrystal
_audit_creation_method	'MofGen! by Chris Wilmer'
_symmetry_space_group_name_H-M	'P1'
_symmetry_Int_Tables_number	1
_symmetry_cell_setting	triclinic
loop_
_symmetry_equiv_pos_as_xyz
  x,y,z
_cell_length_a	15.944551
_cell_length_b	12.837942
_cell_length_c	11.295501
_cell_angle_alpha	85.830212
_cell_angle_beta	85.405910
_cell_angle_gamma	89.163839
loop_
_atom_site_label
_atom_site_type_symbol
_atom_site_fract_x
_atom_site_fract_y
_atom_site_fract_z
O1	O	-1.130758	-0.139917	0.098899
O2	O	-0.630758	0.360083	0.598899
O3	O	-0.887528	-0.156402	0.098928
O4	O	-0.387528	0.343598	0.598928
O5	O	-1.003749	0.002744	0.098907
O6	O	-0.503749	0.502744	0.598907
O7	O	-1.014537	-0.299063	0.098920
O8	O	-0.514537	0.200937	0.598920
O9	O	-0.992646	0.015206	-0.099143
O10	O	-0.492646	0.515206	0.400857
O11	O	-0.876425	-0.143940	-0.099122
O12	O	-0.376425	0.356060	0.400878
O13	O	-1.119655	-0.127455	-0.099151
O14	O	-0.619655	0.372545	0.400849
Cu15	Cu	-0.997026	-0.134559	-0.117220
Cu16	Cu	-0.497026	0.365441	0.382780
Cu17	Cu	-1.010157	-0.149297	0.116997
Cu18	Cu	-0.510157	0.350703	0.616997
O19	O	-1.003434	-0.286601	-0.099130
O20	O	-0.503434	0.213399	0.400870
C21	C	-0.850628	-0.149487	-0.000093
C22	C	-0.350628	0.350513	0.499907
C23	C	-0.757219	-0.147436	-0.000082
C24	C	-0.257219	0.352564	0.499918
C25	C	-0.994554	0.047596	-0.000117
C26	C	-0.494554	0.547596	0.499883
C27	C	-0.983686	0.162674	-0.000114
C28	C	-0.483686	0.662674	0.499886
C29	C	-1.156555	-0.134370	-0.000127
C30	C	-0.656555	0.365630	0.499873
C31	C	-1.249965	-0.136421	-0.000130
C32	C	-0.749965	0.363579	0.499870
C33	C	-0.534077	-0.043885	-0.000109
C34	C	-0.034077	0.456115	0.499891
C35	C	-0.482378	-0.098114	0.097542
C36	C	0.017622	0.401886	0.597542
C37	C	-0.586195	-0.143724	-0.000096
C38	C	-0.086195	0.356276	0.499904
C39	C	-0.471456	-0.085852	-0.097720
C40	C	0.028544	0.414148	0.402280
C41	C	-0.420994	-0.140130	-0.000115
C42	C	0.079006	0.359870	0.499885
C43	C	-0.535731	-0.197985	0.097636
C44	C	-0.035731	0.302015	0.597636
C45	C	-0.524809	-0.185703	-0.097714
C46	C	-0.024809	0.314297	0.402286
C47	C	-0.473135	-0.240006	-0.000038
C48	C	0.026865	0.259994	0.499962
C49	C	-0.681364	-0.145791	-0.000084
C50	C	-0.181364	0.354209	0.499916
C51	C	-0.325828	-0.138071	-0.000118
C52	C	0.174172	0.361929	0.499882
C53	C	-1.012629	-0.331453	-0.000103
C54	C	-0.512629	0.168547	0.499897
C55	C	-1.023498	-0.446531	-0.000099
C56	C	-0.523498	0.053469	0.499901
N57	N	-0.987797	-0.124193	-0.281955
N58	N	-0.487797	0.375807	0.218045
C59	C	-1.114339	0.403623	-0.000105
C60	C	-0.614339	0.903623	0.499895
C61	C	-1.104132	0.511749	-0.000101
C62	C	-0.604132	1.011749	0.499899
C63	C	-0.953066	0.487054	-0.000095
C64	C	-0.453066	0.987054	0.499905
C65	C	-0.963273	0.378928	-0.000099
C66	C	-0.463273	0.878928	0.499901
C67	C	-1.043912	0.337217	-0.000105
C68	C	-0.543912	0.837217	0.499895
C69	C	-1.054118	0.229089	-0.000117
C70	C	-0.554118	0.729089	0.499883
C71	C	-0.903053	0.204396	-0.000102
C72	C	-0.403053	0.704396	0.499898
C73	C	-0.892846	0.312522	-0.000099
C74	C	-0.392846	0.812522	0.499901
C75	C	-1.085824	-0.234328	-0.531252
C76	C	-0.585824	0.265672	-0.031252
C77	C	-1.078855	-0.226485	-0.655915
C78	C	-0.578855	0.273515	-0.155915
C79	C	-0.966896	-0.100661	-0.655947
C80	C	-0.466896	0.399339	-0.155947
C81	C	-0.973864	-0.108503	-0.531284
C82	C	-0.473864	0.391497	-0.031284
C83	C	-1.033330	-0.175340	-0.468941
C84	C	-0.533330	0.324660	0.031059
C85	C	-1.040294	-0.183187	-0.344275
C86	C	-0.540294	0.316813	0.155725
C87	C	-0.928339	-0.057358	-0.344309
C88	C	-0.428339	0.442642	0.155691
C89	C	-0.921370	-0.049515	-0.468973
C90	C	-0.421370	0.450485	0.031027
N91	N	-1.019392	-0.159655	0.281733
N92	N	-0.519392	0.340345	0.781733
H93	H	-0.560789	0.038965	0.000008
H94	H	-0.060789	0.538965	0.500008
Cl95	Cl	-1.144853	-0.300642	-0.734246
Cl96	Cl	-0.644853	0.199358	-0.234246
Cl97	Cl	-0.892147	-0.016643	-0.734341
Cl98	Cl	-0.392147	0.483357	-0.234341
Cl99	Cl	-0.453261	-0.040943	0.225001
Cl100	Cl	0.046739	0.459057	0.725001
H101	H	-1.161482	0.565814	-0.000097
H102	H	-0.661482	1.065814	0.499903
Cl103	Cl	-0.553960	-0.242825	-0.225177
Cl104	Cl	-0.053960	0.257175	0.274823
H105	H	-0.885590	-0.009331	-0.293562
H106	H	-0.385590	0.490669	0.206438
H107	H	-0.872957	0.004905	-0.519749
H108	H	-0.372957	0.504905	-0.019749
Cl109	Cl	-0.791477	0.364970	-0.000081
Cl110	Cl	-0.291477	0.864970	0.499919
H111	H	-0.446614	-0.322952	0.000020
H112	H	0.053386	0.177048	0.500020
H113	H	-1.119779	0.195130	-0.000126
H114	H	-0.619779	0.695130	0.499874
H115	H	-0.563727	-0.245381	0.180282
H116	H	-0.063727	0.254619	0.680282
Cl117	Cl	-0.428083	-0.012611	-0.225179
Cl118	Cl	0.071917	0.487389	0.274821
Cl119	Cl	-1.215709	0.351183	-0.000142
Cl120	Cl	-0.715709	0.851183	0.499858
Cl121	Cl	-0.851701	0.539509	-0.000052
Cl122	Cl	-0.351701	1.039509	0.499948
Cl123	Cl	-1.115050	-0.267208	-0.265903
Cl124	Cl	-0.615050	0.232792	0.234097
Cl125	Cl	-0.814510	0.120908	-0.000118
Cl126	Cl	-0.314510	0.620908	0.499882
H127	H	-1.134236	-0.288759	-0.480491
H128	H	-0.634236	0.211241	0.019509
