data_functionalizedCrystal
_audit_creation_method	'MofGen! by Chris Wilmer'
_symmetry_space_group_name_H-M	'P1'
_symmetry_Int_Tables_number	1
_symmetry_cell_setting	triclinic
loop_
_symmetry_equiv_pos_as_xyz
  x,y,z
_cell_length_a	9.198806
_cell_length_b	10.723024
_cell_length_c	10.723023
_cell_angle_alpha	84.467709
_cell_angle_beta	90.002743
_cell_angle_gamma	90.004288
loop_
_atom_site_label
_atom_site_type_symbol
_atom_site_fract_x
_atom_site_fract_y
_atom_site_fract_z
O1	O	-0.120902	-1.657187	-0.175025
O2	O	-0.120902	-1.294035	-0.191778
O3	O	-0.120895	-1.483988	-0.001825
O4	O	-0.120909	-1.467234	-0.364978
O5	O	0.120890	-1.483973	-0.001824
O6	O	0.120883	-1.294020	-0.191777
O7	O	0.120883	-1.657172	-0.175024
Cu8	Cu	0.142960	-1.475595	-0.183400
Cu9	Cu	-0.142979	-1.475612	-0.183402
O10	O	0.120876	-1.467219	-0.364976
C11	C	-0.000009	-1.247528	-0.190558
C12	C	-0.000009	-1.108973	-0.186911
N13	N	0.344074	-1.475591	-0.183398
N14	N	-0.344093	-1.475626	-0.183394
C15	C	-0.000014	-1.033991	-0.293198
C16	C	-0.000014	-0.890787	-0.289431
C17	C	0.416269	-1.548356	-0.255759
C18	C	0.583681	-1.548375	-0.255758
C19	C	-0.000004	-1.482762	0.044675
C20	C	-0.000007	-1.479114	0.183229
C21	C	-0.000009	-0.703679	-0.176243
C22	C	-0.000009	-0.842234	-0.179891
C23	C	-0.125261	-1.473727	0.388190
C24	C	-0.125260	-1.477496	0.244987
C25	C	-0.000015	-1.468445	0.588523
C26	C	-0.000011	-1.472093	0.449969
H27	H	-0.000010	-1.075812	-0.386984
H28	H	-0.000023	-0.826354	-0.380421
C29	C	-0.268158	-1.479136	0.173991
C30	C	-0.275707	-1.373926	0.086125
C31	C	-0.407324	-1.375385	0.020695
H32	H	-0.346844	-1.477559	0.231178
H33	H	-0.273619	-1.553069	0.131999
H34	H	-0.270260	-1.300012	0.128116
H35	H	-0.197051	-1.375482	0.028912
H36	H	-0.412785	-1.449318	-0.021298
H37	H	-0.486000	-1.373810	0.077892
H38	H	-0.412458	-1.304008	-0.038937
H39	H	-0.000015	-0.906659	-0.088896
C40	C	-0.000306	-1.053153	-0.061886
C41	C	-0.124717	-0.979239	-0.053370
C42	C	-0.125051	-0.927816	0.061795
H43	H	0.083911	-1.002840	-0.055767
H44	H	-0.000384	-1.118732	0.004347
H45	H	-0.124627	-0.913669	-0.119585
H46	H	-0.208955	-1.029524	-0.059467
H47	H	-0.125129	-0.993395	0.128028
H48	H	-0.040829	-0.877509	0.067903
H49	H	-0.209468	-0.877669	0.067592
C50	C	0.333624	-1.631325	-0.338579
C51	C	0.370568	-1.598365	-0.464100
C52	C	0.294482	-1.674781	-0.540430
H53	H	0.232091	-1.620345	-0.327765
H54	H	0.358509	-1.716507	-0.316034
H55	H	0.345673	-1.513203	-0.486637
H56	H	0.472088	-1.609350	-0.474953
H57	H	0.319367	-1.759963	-0.517885
H58	H	0.192953	-1.663796	-0.529605
H59	H	0.319548	-1.652436	-0.625603
C60	C	0.142885	-1.477030	0.254178
C61	C	0.150452	-1.367898	0.315822
C62	C	0.282055	-1.365938	0.381213
H63	H	0.221584	-1.478464	0.196986
H64	H	0.148312	-1.548294	0.313935
H65	H	0.145039	-1.296653	0.256073
H66	H	0.071784	-1.366441	0.373035
H67	H	0.287482	-1.437202	0.440969
H68	H	0.360744	-1.367375	0.324011
H69	H	0.287201	-1.291899	0.423055
C70	C	0.666266	-1.631654	-0.338285
C71	C	0.629292	-1.757066	-0.304714
C72	C	0.705328	-1.833820	-0.380723
H73	H	0.767806	-1.620794	-0.327376
H74	H	0.641361	-1.609519	-0.423534
H75	H	0.654207	-1.779194	-0.219485
H76	H	0.527765	-1.767966	-0.315628
H77	H	0.680422	-1.811684	-0.465972
H78	H	0.806864	-1.822949	-0.369809
H79	H	0.680241	-1.918919	-0.357964
C80	C	-0.268195	-1.471597	0.459068
C81	C	-0.275762	-1.362436	0.520663
C82	C	-0.407416	-1.360416	0.585960
H83	H	-0.273735	-1.542813	0.518848
H84	H	-0.346835	-1.473037	0.401786
H85	H	-0.197143	-1.361007	0.577940
H86	H	-0.270246	-1.291201	0.460912
H87	H	-0.486056	-1.361856	0.528678
H88	H	-0.412945	-1.431637	0.645733
H89	H	-0.412574	-1.286346	0.627750
H90	H	0.593831	-1.413320	-0.121446
H91	H	0.406205	-1.413312	-0.121443
H92	H	0.107220	-1.473491	0.396843
