data_functionalizedCrystal
_audit_creation_method	'MofGen! by Chris Wilmer'
_symmetry_space_group_name_H-M	'P1'
_symmetry_Int_Tables_number	1
_symmetry_cell_setting	triclinic
loop_
_symmetry_equiv_pos_as_xyz
  x,y,z
_cell_length_a	15.298068
_cell_length_b	29.839131
_cell_length_c	15.296720
_cell_angle_alpha	99.631078
_cell_angle_beta	88.354818
_cell_angle_gamma	99.692747
loop_
_atom_site_label
_atom_site_type_symbol
_atom_site_fract_x
_atom_site_fract_y
_atom_site_fract_z
Zn1	Zn	1.253329	-0.133644	-0.727299
Zn2	Zn	1.753329	0.366356	-0.227299
Zn3	Zn	1.278569	-0.193979	-0.580800
Zn4	Zn	1.778569	0.306021	-0.080800
Zn5	Zn	1.132211	-0.129279	-0.555468
Zn6	Zn	1.632211	0.370721	-0.055468
Zn7	Zn	1.106789	-0.219165	-0.701811
Zn8	Zn	1.606789	0.280835	-0.201811
O9	O	1.192725	-0.169017	-0.641345
O10	O	1.692725	0.330983	-0.141345
O11	O	1.379256	-0.132934	-0.729134
O12	O	1.879256	0.367066	-0.229134
O13	O	1.280356	-0.173030	-0.454884
O14	O	1.780356	0.326970	0.045116
O15	O	1.148354	-0.066990	-0.578326
O16	O	1.648354	0.433010	-0.078326
O17	O	1.397800	-0.177263	-0.621502
O18	O	1.897800	0.322737	-0.121502
O19	O	1.237339	-0.070197	-0.704570
O20	O	1.737339	0.429803	-0.204570
O21	O	1.172828	-0.125494	-0.436273
O22	O	1.672828	0.374506	0.063727
O23	O	1.006260	-0.149915	-0.553612
O24	O	1.506260	0.350085	-0.053612
O25	O	1.105026	-0.220187	-0.827748
O26	O	1.605026	0.279813	-0.327748
O27	O	0.987582	-0.215954	-0.661130
O28	O	1.487582	0.284046	-0.161130
O29	O	1.212688	-0.157355	-0.846473
O30	O	1.712688	0.342645	-0.346473
O31	O	1.255706	-0.260188	-0.596788
O32	O	1.755706	0.239812	-0.096788
O33	O	1.129500	-0.278692	-0.685694
O34	O	1.629500	0.221308	-0.185694
C35	C	0.965137	-0.185194	-0.601857
C36	C	1.465137	0.314806	-0.101857
C37	C	0.867771	-0.192128	-0.584985
C38	C	1.367771	0.307872	-0.084985
C39	C	0.554634	-0.119572	-0.761934
C40	C	1.054634	0.380428	-0.261934
C41	C	0.646113	-0.113059	-0.777791
C42	C	1.146113	0.386941	-0.277791
C43	C	0.701532	-0.132826	-0.729591
C44	C	1.201532	0.367174	-0.229591
C45	C	0.665463	-0.159107	-0.665531
C46	C	1.165463	0.340893	-0.165531
C47	C	0.573973	-0.165623	-0.649677
C48	C	1.073973	0.334377	-0.149677
C49	C	0.720872	-0.178877	-0.617334
C50	C	1.220872	0.321123	-0.117334
C51	C	0.684802	-0.205158	-0.553274
C52	C	1.184802	0.294842	-0.053274
C53	C	0.593321	-0.211673	-0.537422
C54	C	1.093321	0.288327	-0.037422
C55	C	0.537902	-0.191906	-0.585623
C56	C	1.037902	0.308094	-0.085623
C57	C	0.812361	-0.172360	-0.633188
C58	C	1.312361	0.327640	-0.133188
C59	C	0.831700	-0.218411	-0.520931
C60	C	1.331700	0.281589	-0.020931
C61	C	0.740221	-0.224924	-0.505074
C62	C	1.240221	0.275076	-0.005074
C63	C	1.192604	-0.285741	-0.641248
C64	C	1.692604	0.214259	-0.141248
C65	C	1.192627	-0.335674	-0.641249
C66	C	1.692627	0.164326	-0.141249
C67	C	1.239033	-0.646961	-0.707157
C68	C	1.739033	-0.146961	-0.207157
C69	C	1.239119	-0.834633	-0.707226
C70	C	1.739119	-0.334633	-0.207226
O71	O	1.278454	-0.860299	-0.763186
O72	O	1.778454	-0.360299	-0.263186
N73	N	1.192857	-0.856458	-0.641468
N74	N	1.692857	-0.356458	-0.141468
C75	C	1.146564	-0.831363	-0.575690
C76	C	1.646564	-0.331363	-0.075690
O77	O	1.107210	-0.854234	-0.519765
O78	O	1.607210	-0.354234	-0.019765
C79	C	1.146474	-0.643693	-0.575625
C80	C	1.646474	-0.143693	-0.075625
C81	C	1.192747	-0.621869	-0.641383
C82	C	1.692747	-0.121869	-0.141383
C83	C	1.285302	-0.625137	-0.772911
C84	C	1.785302	-0.125137	-0.272911
C85	C	1.285284	-0.578221	-0.772890
C86	C	1.785284	-0.078221	-0.272890
C87	C	1.238997	-0.553130	-0.707116
C88	C	1.738997	-0.053130	-0.207116
C89	C	1.192729	-0.574954	-0.641363
C90	C	1.692729	-0.074954	-0.141363
C91	C	1.100177	-0.618600	-0.509852
C92	C	1.600177	-0.118600	-0.009852
C93	C	1.100157	-0.571680	-0.509843
C94	C	1.600157	-0.071680	-0.009843
C95	C	1.146430	-0.549856	-0.575601
C96	C	1.646430	-0.049856	-0.075601
C97	C	1.146424	-0.502946	-0.575568
C98	C	1.646424	-0.002946	-0.075568
N99	N	1.192687	-0.481121	-0.641327
N100	N	1.692687	0.018879	-0.141327
C101	C	1.238973	-0.506213	-0.707101
C102	C	1.738973	-0.006213	-0.207101
C103	C	1.146617	-0.929892	-0.575728
C104	C	1.646617	-0.429892	-0.075728
C105	C	1.146640	-0.976809	-0.575743
C106	C	1.646640	-0.476809	-0.075743
C107	C	1.239194	-0.980076	-0.707280
C108	C	1.739194	-0.480076	-0.207280
C109	C	1.239175	-0.933157	-0.707261
C110	C	1.739175	-0.433157	-0.207261
C111	C	1.192879	-0.908067	-0.641487
C112	C	1.692879	-0.408067	-0.141487
C113	C	1.238933	-0.407686	-0.707052
C114	C	1.738933	0.092314	-0.207052
C115	C	1.238914	-0.360766	-0.707023
C116	C	1.738914	0.139234	-0.207023
C117	C	1.146357	-0.357504	-0.575489
C118	C	1.646357	0.142496	-0.075489
C119	C	1.146379	-0.404420	-0.575514
C120	C	1.646379	0.095580	-0.075514
C121	C	1.192669	-0.429510	-0.641303
C122	C	1.692669	0.070490	-0.141303
O123	O	1.107102	-0.477253	-0.519643
O124	O	1.607102	0.022747	-0.019643
O125	O	1.278306	-0.483336	-0.763029
O126	O	1.778306	0.016664	-0.263029
C127	C	1.239051	-0.693877	-0.707178
C128	C	1.739051	-0.193877	-0.207178
C129	C	1.192783	-0.715701	-0.641425
C130	C	1.692783	-0.215701	-0.141425
C131	C	1.146496	-0.690609	-0.575651
C132	C	1.646496	-0.190609	-0.075651
C133	C	1.192807	-0.762618	-0.641440
C134	C	1.692807	-0.262618	-0.141440
C135	C	1.239093	-0.787709	-0.707214
C136	C	1.739093	-0.287709	-0.207214
C137	C	1.285356	-0.765884	-0.772973
C138	C	1.785356	-0.265884	-0.272973
C139	C	1.285338	-0.718968	-0.772952
C140	C	1.785338	-0.218968	-0.272952
C141	C	1.100234	-0.712434	-0.509892
C142	C	1.600234	-0.212434	-0.009892
C143	C	1.100256	-0.759350	-0.509918
C144	C	1.600256	-0.259350	-0.009918
C145	C	1.146543	-0.784442	-0.575691
C146	C	1.646543	-0.284442	-0.075691
C147	C	1.421200	-0.152776	-0.680987
C148	C	1.921200	0.347224	-0.180987
C149	C	1.518563	-0.145855	-0.697880
C150	C	2.018563	0.354145	-0.197880
C151	C	1.153206	-0.192067	-0.869777
C152	C	1.653206	0.307933	-0.369777
C153	C	1.136366	-0.201890	-0.967121
C154	C	1.636366	0.298110	-0.467121
C155	C	1.192866	-0.051836	-0.641465
C156	C	1.692866	0.448164	-0.141465
C157	C	1.192927	-0.001901	-0.641517
C158	C	1.692927	0.498099	-0.141517
C159	C	1.313119	-0.098730	-1.280516
C160	C	1.813119	0.401270	-0.780516
C161	C	1.328947	-0.089501	-1.189058
C162	C	1.828947	0.410499	-0.689058
C163	C	1.280803	-0.117598	-1.133569
C164	C	1.780803	0.382402	-0.633569
C165	C	1.216828	-0.154925	-1.169548
C166	C	1.716828	0.345075	-0.669548
C167	C	1.201004	-0.164156	-1.261016
C168	C	1.701004	0.335844	-0.761016
C169	C	1.168687	-0.183024	-1.114069
C170	C	1.668687	0.316976	-0.614069
C171	C	1.104713	-0.220351	-1.150048
C172	C	1.604713	0.279649	-0.650048
C173	C	1.088891	-0.229581	-1.241507
C174	C	1.588891	0.270419	-0.741507
C175	C	1.137035	-0.201484	-1.296996
C176	C	1.637035	0.298516	-0.796996
C177	C	1.184512	-0.173792	-1.022600
C178	C	1.684512	0.326208	-0.522600
C179	C	1.072397	-0.239218	-1.003100
C180	C	1.572397	0.260782	-0.503100
C181	C	1.056569	-0.248447	-1.094559
C182	C	1.556569	0.251553	-0.594559
C183	C	1.232140	-0.146020	-0.413810
C184	C	1.732140	0.353980	0.086190
C185	C	1.249150	-0.136058	-0.316496
C186	C	1.749150	0.363942	0.183504
H187	H	0.463410	-0.197211	-0.572721
H188	H	0.963410	0.302789	-0.072721
Cl189	Cl	1.300699	-0.105994	-1.018590
Cl190	Cl	1.800699	0.394006	-0.518590
H191	H	1.236600	-0.143400	-0.993316
H192	H	1.736600	0.356600	-0.493316
H193	H	1.276854	-0.915391	-0.760807
H194	H	1.776854	-0.415391	-0.260807
H195	H	1.322992	-0.645563	-0.826477
H196	H	1.822992	-0.145563	-0.326477
H197	H	0.563955	-0.233077	-0.485267
H198	H	1.063955	0.266923	0.014733
Cl199	Cl	0.484960	-0.094733	-0.822531
Cl200	Cl	0.984960	0.405267	-0.322531
H201	H	1.381037	-0.059111	-1.159771
H202	H	1.881037	0.440889	-0.659771
H203	H	1.352316	-0.075860	-1.325703
H204	H	1.852316	0.424140	-0.825703
Cl205	Cl	1.011874	-0.274544	-0.933350
Cl206	Cl	1.511874	0.225456	-0.433350
H207	H	1.062497	-0.636361	-0.456305
H208	H	1.562497	-0.136361	0.043695
H209	H	0.876822	-0.234509	-0.481686
H210	H	1.376822	0.265491	0.018314
Cl211	Cl	1.041953	-0.540141	-0.427150
Cl212	Cl	1.541953	-0.040141	0.072850
H213	H	0.776019	-0.127520	-0.742503
H214	H	1.276019	0.372480	-0.242503
Cl215	Cl	0.691451	-0.080024	-0.858323
Cl216	Cl	1.191451	0.419976	-0.358323
Cl217	Cl	1.343546	-0.797437	-0.855657
Cl218	Cl	1.843546	-0.297437	-0.355657
H219	H	1.276884	-1.000514	-0.760835
H220	H	1.776884	-0.500514	-0.260835
H221	H	1.004480	-0.278839	-1.123866
H222	H	1.504480	0.221161	-0.623866
H223	H	0.841720	-0.150962	-0.685345
H224	H	1.341720	0.349038	-0.185345
Cl225	Cl	1.088480	-1.004237	-0.493062
Cl226	Cl	1.588480	-0.504237	0.006938
H227	H	1.124151	-0.208996	-1.371470
H228	H	1.624151	0.291004	-0.871470
H229	H	1.108674	-0.337066	-0.521934
H230	H	1.608674	0.162934	-0.021934
Cl231	Cl	1.297091	-0.333333	-0.789696
Cl232	Cl	1.797091	0.166667	-0.289696
Cl233	Cl	1.088220	-0.431854	-0.492837
Cl234	Cl	1.588220	0.068146	0.007163
H235	H	1.036806	-0.259978	-1.270799
H236	H	1.536806	0.240022	-0.770799
H237	H	0.710840	-0.246323	-0.452916
H238	H	1.210840	0.253677	0.047084
H239	H	1.323017	-0.701203	-0.826498
H240	H	1.823017	-0.201203	-0.326498
H241	H	1.276619	-0.428110	-0.760629
H242	H	1.776619	0.071890	-0.260629
H243	H	1.108916	-0.909467	-0.522164
H244	H	1.608916	-0.409467	-0.022164
H245	H	1.062578	-0.777114	-0.456361
H246	H	1.562578	-0.277114	0.043639
Cl247	Cl	1.343450	-0.550794	-0.855568
Cl248	Cl	1.843450	-0.050794	-0.355568
Cl249	Cl	1.042034	-0.680898	-0.427199
Cl250	Cl	1.542034	-0.180898	0.072801
