data_functionalizedCrystal
_audit_creation_method	'MofGen! by Chris Wilmer'
_symmetry_space_group_name_H-M	'P1'
_symmetry_Int_Tables_number	1
_symmetry_cell_setting	triclinic
loop_
_symmetry_equiv_pos_as_xyz
  x,y,z
_cell_length_a	10.489741
_cell_length_b	10.489741
_cell_length_c	10.065875
_cell_angle_alpha	98.879541
_cell_angle_beta	81.165139
_cell_angle_gamma	84.539174
loop_
_atom_site_label
_atom_site_type_symbol
_atom_site_fract_x
_atom_site_fract_y
_atom_site_fract_z
O1	O	1.712531	0.161403	-0.113407
O2	O	1.341339	0.178293	-0.113428
O3	O	1.535380	-0.015748	-0.113409
O4	O	1.518490	0.355444	-0.113426
O5	O	1.498380	0.021402	0.113576
O6	O	1.304339	0.215444	0.113557
O7	O	1.675532	0.198554	0.113578
Zn8	Zn	1.484061	0.212897	0.149606
Zn9	Zn	1.532810	0.163950	-0.149457
O10	O	1.481490	0.392595	0.113559
C11	C	1.275308	0.195592	0.000061
C12	C	1.133680	0.191773	0.000054
C13	C	1.065537	0.068312	0.000072
C14	C	0.991652	0.108318	-0.111843
C15	C	0.955208	0.144975	0.111946
C16	C	1.061676	0.231815	-0.111954
C17	C	1.025224	0.268472	0.111936
C18	C	0.951372	0.308563	-0.000007
C19	C	1.515604	-0.044705	0.000082
C20	C	1.511788	-0.186335	0.000080
C21	C	1.388326	-0.254478	0.000063
C22	C	1.428406	-0.328282	0.111981
C23	C	1.464914	-0.364885	-0.111808
C24	C	1.551904	-0.258259	0.112091
C25	C	1.588411	-0.294868	-0.111799
C26	C	1.628576	-0.368641	0.000147
C27	C	1.741563	0.181255	0.000085
C28	C	1.883193	0.185072	0.000084
C29	C	1.501266	0.421551	0.000064
C30	C	1.505085	0.563180	0.000058
N31	N	1.450801	0.246302	0.353708
N32	N	1.566080	0.130535	-0.353559
C33	C	1.521229	0.175564	0.421494
C34	C	1.495641	0.201283	0.578659
H35	H	0.901959	0.410156	-0.000073
Br36	Br	1.318713	0.378973	0.450897
Br37	Br	1.315636	-0.354159	0.269680
H38	H	0.908807	0.108198	0.206562
Br39	Br	1.363548	0.333959	0.675842
Br40	Br	1.698465	-0.001851	0.549262
H41	H	1.115248	-0.033206	-0.000063
H42	H	1.040847	0.336156	0.206553
Br43	Br	0.965670	-0.004556	-0.269544
Br44	Br	1.652980	0.042560	0.324306
H45	H	1.107944	0.268512	-0.206677
Br46	Br	1.219107	-0.171697	0.000227
Br47	Br	1.613172	-0.181041	0.269970
Br48	Br	1.701119	-0.268933	-0.269504
H49	H	1.730169	-0.418054	0.000215
Br50	Br	1.403512	-0.442343	-0.269501
