data_functionalizedCrystal
_audit_creation_method	'MofGen! by Chris Wilmer'
_symmetry_space_group_name_H-M	'P1'
_symmetry_Int_Tables_number	1
_symmetry_cell_setting	triclinic
loop_
_symmetry_equiv_pos_as_xyz
  x,y,z
_cell_length_a	10.654550
_cell_length_b	12.811415
_cell_length_c	9.130313
_cell_angle_alpha	84.564622
_cell_angle_beta	89.999724
_cell_angle_gamma	84.263450
loop_
_atom_site_label
_atom_site_type_symbol
_atom_site_fract_x
_atom_site_fract_y
_atom_site_fract_z
O1	O	1.667074	0.147427	-0.141269
O2	O	1.301522	0.161472	-0.143161
O3	O	1.493494	0.001724	-0.121922
O4	O	1.475102	0.307175	-0.162508
O5	O	1.493481	0.001719	0.121677
O6	O	1.301509	0.161468	0.100438
O7	O	1.667061	0.147422	0.102331
Cu8	Cu	1.484284	0.154444	0.123627
Cu9	Cu	1.484299	0.154450	-0.164457
O10	O	1.475089	0.307171	0.081092
C11	C	1.254723	0.160439	-0.021228
C12	C	1.115296	0.157353	-0.020828
C13	C	1.035322	0.251411	-0.033321
C14	C	0.904316	0.248505	-0.032910
C15	C	0.933271	0.057477	-0.007517
C16	C	1.064275	0.060383	-0.007918
C17	C	1.492457	-0.037390	0.005071
C18	C	1.489370	-0.153931	0.020546
C19	C	1.483562	-0.372907	-0.215978
C20	C	1.480662	-0.482407	-0.201445
C21	C	1.480660	-0.482433	0.064143
C22	C	1.483561	-0.372933	0.049610
C23	C	1.485013	-0.318174	-0.090455
C24	C	1.487922	-0.208672	-0.104986
C25	C	1.487912	-0.208699	0.160600
C26	C	1.485012	-0.318200	0.175133
C27	C	1.713860	0.148456	-0.019606
C28	C	1.853287	0.151541	-0.020015
C29	C	1.476126	0.346285	-0.045905
C30	C	1.479213	0.462825	-0.061389
N31	N	1.484282	0.154440	0.326250
N32	N	1.484311	0.154446	-0.367080
C33	C	1.569316	0.083733	0.412303
C34	C	1.569328	0.083733	0.565640
C35	C	1.399268	0.225156	0.546857
C36	C	1.399251	0.225150	0.393524
H37	H	0.839205	0.325096	-0.043080
Cl38	Cl	1.478833	-0.551211	-0.359253
H39	H	1.076859	0.330370	-0.043822
Cl40	Cl	0.869120	-0.064422	0.008703
Cl41	Cl	1.164821	-0.057871	0.007801
H42	H	1.489109	-0.164089	-0.219035
Cl43	Cl	1.478798	-0.551287	0.240209
Cl44	Cl	1.485407	-0.304065	-0.392054
H45	H	1.483825	-0.362799	0.289170
Cl46	Cl	1.676207	-0.005164	0.327738
H47	H	1.489099	-0.164124	0.262811
Cl48	Cl	1.676229	-0.005161	0.673816
Cl49	Cl	1.292381	0.314049	0.631435
Cl50	Cl	1.292337	0.314040	0.285334
