data_functionalizedCrystal
_audit_creation_method	'MofGen! by Chris Wilmer'
_symmetry_space_group_name_H-M	'P1'
_symmetry_Int_Tables_number	1
_symmetry_cell_setting	triclinic
loop_
_symmetry_equiv_pos_as_xyz
  x,y,z
_cell_length_a	25.639243
_cell_length_b	25.639239
_cell_length_c	12.594509
_cell_angle_alpha	90.034128
_cell_angle_beta	90.023577
_cell_angle_gamma	90.041410
loop_
_atom_site_label
_atom_site_type_symbol
_atom_site_fract_x
_atom_site_fract_y
_atom_site_fract_z
Zn1	Zn	0.799264	-0.208097	0.601880
Zn2	Zn	0.799176	-0.295539	0.423883
Zn3	Zn	0.711829	-0.208124	0.423902
Zn4	Zn	0.711786	-0.295507	0.601806
O5	O	0.755514	-0.251817	0.512868
O6	O	0.872418	-0.219699	0.578292
O7	O	0.787571	-0.283968	0.274940
O8	O	0.723483	-0.134955	0.447550
O9	O	0.872353	-0.283942	0.447518
O10	O	0.787721	-0.134935	0.578310
O11	O	0.723397	-0.219744	0.274954
O12	O	0.638658	-0.219713	0.447478
O13	O	0.723409	-0.283888	0.750762
O14	O	0.638626	-0.283914	0.578184
O15	O	0.787679	-0.219668	0.750816
O16	O	0.787529	-0.368700	0.447447
O17	O	0.723323	-0.368677	0.578166
C18	C	0.619671	-0.251813	0.512826
C19	C	0.561557	-0.251824	0.512833
C20	C	0.201222	-0.218418	0.581075
C21	C	0.146618	-0.218417	0.581082
O22	O	0.118405	-0.190004	0.639052
N23	N	0.119275	-0.251815	0.512897
C24	C	0.146539	-0.285212	0.444694
O25	O	0.118267	-0.313619	0.386698
C26	C	0.201142	-0.285210	0.444683
C27	C	0.228482	-0.251813	0.512880
C28	C	0.228563	-0.185024	0.649266
C29	C	0.283163	-0.185025	0.649260
C30	C	0.310423	-0.218420	0.581064
C31	C	0.283083	-0.251814	0.512874
C32	C	0.228405	-0.318603	0.376475
C33	C	0.283012	-0.318598	0.376469
C34	C	0.310352	-0.285201	0.444666
C35	C	0.364944	-0.285211	0.444673
N36	N	0.392287	-0.251813	0.512857
C37	C	0.365027	-0.218418	0.581053
C38	C	0.031868	-0.285214	0.444721
C39	C	-0.022734	-0.285220	0.444737
C40	C	-0.022651	-0.218424	0.581124
C41	C	0.031952	-0.218422	0.581113
C42	C	0.059211	-0.251816	0.512906
C43	C	0.479692	-0.218423	0.581037
C44	C	0.534297	-0.218429	0.581029
C45	C	0.534209	-0.285222	0.444639
C46	C	0.479609	-0.285219	0.444650
C47	C	0.452351	-0.251815	0.512853
O48	O	0.393191	-0.313608	0.386730
O49	O	0.393305	-0.190011	0.639030
C50	C	0.755426	-0.387659	0.512819
C51	C	0.755436	-0.445774	0.512834
C52	C	0.789033	-0.806136	0.444919
C53	C	0.789053	-0.860740	0.444933
O54	O	0.817527	-0.888977	0.387135
N55	N	0.755606	-0.888056	0.512939
C56	C	0.722140	-0.860764	0.580942
O57	O	0.693692	-0.889012	0.638789
C58	C	0.722123	-0.806161	0.580933
C59	C	0.755568	-0.778848	0.512915
C60	C	0.822476	-0.778823	0.376907
C61	C	0.822455	-0.724223	0.376892
C62	C	0.788991	-0.696935	0.444888
C63	C	0.755547	-0.724248	0.512899
C64	C	0.688659	-0.778870	0.648941
C65	C	0.688645	-0.724263	0.648926
C66	C	0.722091	-0.696951	0.580908
C67	C	0.722062	-0.642359	0.580880
N68	N	0.755509	-0.615044	0.512874
C69	C	0.788973	-0.642332	0.444878
C70	C	0.722179	-0.975435	0.580959
C71	C	0.722193	-1.030037	0.580964
C72	C	0.789108	-1.030010	0.444955
C73	C	0.789090	-0.975406	0.444946
C74	C	0.755626	-0.948119	0.512953
C75	C	0.788926	-0.527667	0.444850
C76	C	0.788901	-0.473061	0.444838
C77	C	0.721989	-0.473094	0.580850
C78	C	0.722012	-0.527694	0.580859
C79	C	0.755485	-0.554979	0.512856
O80	O	0.693604	-0.614088	0.638651
O81	O	0.817421	-0.614077	0.387052
C82	C	0.891887	-0.251821	0.512911
C83	C	0.950001	-0.251823	0.512929
C84	C	0.755549	-0.251771	0.790489
C85	C	0.755564	-0.251752	0.908795
C86	C	0.755616	-0.115444	0.512940
C87	C	0.755660	-0.057330	0.512971
C88	C	0.755509	-0.251825	0.236327
C89	C	0.755596	-0.251697	0.118022
C90	C	0.720618	-0.286661	0.978018
C91	C	0.768321	-0.299433	1.048810
C92	C	0.707899	-0.238948	1.048802
C93	C	0.803291	-0.264549	0.978028
C94	C	0.742837	-0.204041	0.978014
C95	C	0.790572	-0.216795	1.048774
H96	H	0.054059	-0.312413	0.389182
H97	H	0.816358	-1.052237	0.389593
N98	N	-0.052218	-0.321241	0.371181
H99	H	-0.090947	-0.316177	0.381524
H100	H	-0.042696	-0.358592	0.387608
H101	H	0.843626	-0.275402	0.947070
N102	N	0.829777	-0.177665	1.089695
H103	H	0.865763	-0.187385	1.063817
H104	H	0.829311	-0.177667	1.169880
N105	N	0.728538	-0.150645	0.936773
H106	H	0.692494	-0.141025	0.962467
H107	H	0.729001	-0.151026	0.856592
H108	H	0.849691	-0.701988	0.321509
H109	H	0.816184	-0.549876	0.389478
H110	H	0.667575	-0.228141	1.079891
H111	H	0.556555	-0.191233	0.636567
H112	H	0.661396	-0.702049	0.704309
N113	N	0.686119	-1.059496	0.654318
H114	H	0.661908	-1.082192	0.611023
H115	H	0.664952	-1.033887	0.697375
H116	H	0.849730	-0.801035	0.321536
N117	N	0.686080	-0.946006	0.654305
H118	H	0.664895	-0.971599	0.697381
H119	H	0.661887	-0.923392	0.610927
N120	N	0.312409	-0.354617	0.302896
H121	H	0.302882	-0.391984	0.319286
H122	H	0.351140	-0.349508	0.313264
H123	H	0.816325	-0.953171	0.389560
H124	H	0.556414	-0.312413	0.389117
N125	N	0.450297	-0.182394	0.654592
H126	H	0.475910	-0.161242	0.697784
H127	H	0.427638	-0.203702	0.703778
N128	N	0.681508	-0.325826	0.936853
H129	H	0.681538	-0.325334	0.856667
H130	H	0.645598	-0.316523	0.963777
H131	H	0.206154	-0.345798	0.320941
H132	H	0.816136	-0.450825	0.389446
H133	H	0.661422	-0.801099	0.704323
H134	H	0.305419	-0.157829	0.704792
N135	N	0.685934	-0.557157	0.654206
H136	H	0.664730	-0.531582	0.697276
H137	H	0.707213	-0.579768	0.703515
H138	H	0.054209	-0.191226	0.636642
N139	N	0.199166	-0.148996	0.722815
H140	H	0.224780	-0.127842	0.766000
H141	H	0.176508	-0.170303	0.772006
H142	H	0.779103	-0.339758	1.079907
N143	N	-0.052058	-0.182403	0.654681
H144	H	-0.090797	-0.187474	0.644331
H145	H	-0.042494	-0.145052	0.638249
H146	H	0.694741	-0.450867	0.636208
N147	N	0.450116	-0.321245	0.371113
H148	H	0.475673	-0.342403	0.327915
H149	H	0.427468	-0.299933	0.321932
