data_functionalizedCrystal
_audit_creation_method	'MofGen! by Chris Wilmer'
_symmetry_space_group_name_H-M	'P1'
_symmetry_Int_Tables_number	1
_symmetry_cell_setting	triclinic
loop_
_symmetry_equiv_pos_as_xyz
  x,y,z
_cell_length_a	13.897449
_cell_length_b	12.645330
_cell_length_c	13.897441
_cell_angle_alpha	89.972699
_cell_angle_beta	89.976606
_cell_angle_gamma	90.018519
loop_
_atom_site_label
_atom_site_type_symbol
_atom_site_fract_x
_atom_site_fract_y
_atom_site_fract_z
Zn1	Zn	1.474703	-0.421982	-0.545472
Zn2	Zn	1.974703	0.078018	-0.045472
Zn3	Zn	1.474597	-0.599278	-0.384182
Zn4	Zn	1.974597	-0.099278	0.115818
Zn5	Zn	1.313392	-0.422031	-0.384183
Zn6	Zn	1.813392	0.077969	0.115817
Zn7	Zn	1.313374	-0.599207	-0.545428
Zn8	Zn	1.813374	-0.099207	-0.045428
O9	O	1.394016	-0.510624	-0.464816
O10	O	1.894016	-0.010624	0.035184
O11	O	1.609670	-0.445510	-0.524095
O12	O	2.109670	0.054490	-0.024095
O13	O	1.453176	-0.575816	-0.249201
O14	O	1.953176	-0.075816	0.250799
O15	O	1.334842	-0.273677	-0.405597
O16	O	1.834842	0.226323	0.094403
O17	O	1.609592	-0.575768	-0.405596
O18	O	2.109592	-0.075768	0.094404
O19	O	1.453356	-0.273641	-0.524095
O20	O	1.953356	0.226359	-0.024095
O21	O	1.334739	-0.445594	-0.249201
O22	O	1.834739	0.054406	0.250799
O23	O	1.178408	-0.445525	-0.405554
O24	O	1.678408	0.054475	0.094446
O25	O	1.334811	-0.575647	-0.680415
O26	O	1.834811	-0.075647	-0.180415
O27	O	1.178394	-0.575695	-0.524020
O28	O	1.678394	-0.075695	-0.024020
O29	O	1.453339	-0.445441	-0.680448
O30	O	1.953339	0.054559	-0.180448
O31	O	1.453158	-0.747615	-0.405553
O32	O	1.953158	-0.247615	0.094447
O33	O	1.334708	-0.747563	-0.524019
O34	O	1.834708	-0.247563	-0.024019
C35	C	1.143402	-0.510608	-0.464782
C36	C	1.643402	-0.010608	0.035218
C37	C	1.036188	-0.510627	-0.464791
C38	C	1.536188	-0.010627	0.035209
C39	C	0.949118	-0.510630	-0.464807
C40	C	1.449118	-0.010630	0.035193
C41	C	0.839886	-0.510638	-0.464836
C42	C	1.339886	-0.010638	0.035164
C43	C	1.393946	-0.786054	-0.464803
C44	C	1.893946	-0.286054	0.035197
C45	C	1.394004	-0.903884	-0.464829
C46	C	1.894004	-0.403884	0.035171
C47	C	1.319794	-1.071459	-0.539586
C48	C	1.819794	-0.571459	-0.039586
C49	C	1.319415	-0.948900	-0.539346
C50	C	1.819415	-0.448900	-0.039346
C51	C	1.366485	-0.948483	-0.363172
C52	C	1.866485	-0.448483	0.136828
C53	C	1.366032	-1.071082	-0.363626
C54	C	1.866032	-0.571082	0.136374
C55	C	1.496187	-1.070971	-0.490905
C56	C	1.996187	-0.570971	0.009095
C57	C	1.495561	-0.948364	-0.493127
C58	C	1.995561	-0.448364	0.006873
C59	C	1.645609	-0.510642	-0.464850
C60	C	2.145609	-0.010642	0.035150
C61	C	1.752823	-0.510649	-0.464865
C62	C	2.252823	-0.010649	0.035135
C63	C	1.394085	-0.510531	-0.716409
C64	C	1.894085	-0.010531	-0.216409
C65	C	1.394114	-0.510491	-0.823623
C66	C	1.894114	-0.010491	-0.323623
C67	C	1.394113	-0.234119	-0.464851
C68	C	1.894113	0.265881	0.035149
C69	C	1.394154	-0.116289	-0.464866
C70	C	1.894154	0.383711	0.035134
C71	C	1.394140	-0.510419	-1.019918
C72	C	1.894140	-0.010419	-0.519918
C73	C	1.394122	-0.510462	-0.910686
C74	C	1.894122	-0.010462	-0.410686
C75	C	1.394003	-0.510641	-0.214202
C76	C	1.894003	-0.010641	0.285798
C77	C	1.394161	-0.510383	-0.106988
C78	C	1.894161	-0.010383	0.393012
H79	H	1.336632	-0.918742	-0.614723
H80	H	1.836632	-0.418742	-0.114723
H81	H	1.551587	-1.099960	-0.436483
H82	H	2.051587	-0.599960	0.063517
C83	C	1.272649	-1.171551	-0.250505
C84	C	1.772649	-0.671551	0.249495
C85	C	1.265343	-1.109827	-0.333857
C86	C	1.765343	-0.609827	0.166143
H87	H	1.210484	-1.195460	-0.232128
H88	H	1.710484	-0.695460	0.267872
H89	H	1.312914	-1.230709	-0.262778
H90	H	1.812914	-0.730709	0.237222
H91	H	1.299490	-1.130335	-0.200075
H92	H	1.799490	-0.630335	0.299925
H93	H	1.238508	-1.151045	-0.384289
H94	H	1.738508	-0.651045	0.115711
H95	H	1.225063	-1.050659	-0.321589
H96	H	1.725063	-0.550659	0.178411
C97	C	1.424124	-1.176442	-0.638731
C98	C	1.924124	-0.676442	-0.138731
C99	C	1.342808	-1.111169	-0.641680
C100	C	1.842808	-0.611169	-0.141680
H101	H	1.438326	-1.200969	-0.701761
H102	H	1.938326	-0.700969	-0.201761
H103	H	1.477346	-1.137500	-0.614602
H104	H	1.977346	-0.637500	-0.114602
H105	H	1.411839	-1.235137	-0.597841
H106	H	1.911839	-0.735137	-0.097841
H107	H	1.355096	-1.052470	-0.682564
H108	H	1.855096	-0.552470	-0.182564
H109	H	1.289574	-1.150113	-0.665822
H110	H	1.789574	-0.650113	-0.165822
H111	H	1.243773	-0.919667	-0.522094
H112	H	1.743773	-0.419667	-0.022094
H113	H	1.244625	-1.102362	-0.522555
H114	H	1.744625	-0.602362	-0.022555
H115	H	1.417842	-1.100741	-0.306055
H116	H	1.917842	-0.600741	0.193945
H117	H	1.418928	-0.919327	-0.305978
H118	H	1.918928	-0.419327	0.194022
H119	H	1.553880	-0.917715	-0.442668
H120	H	2.053880	-0.417715	0.057332
H121	H	1.292676	-0.917874	-0.340715
H122	H	1.792676	-0.417874	0.159285
C123	C	1.614192	-0.949139	-0.618776
C124	C	2.114192	-0.449139	-0.118776
C125	C	1.523561	-0.909061	-0.594146
C126	C	2.023561	-0.409061	-0.094146
H127	H	1.631463	-0.924892	-0.681151
H128	H	2.131463	-0.424892	-0.181151
H129	H	1.660508	-0.925485	-0.573383
H130	H	2.160508	-0.425485	-0.073383
H131	H	1.612062	-1.024226	-0.618514
H132	H	2.112062	-0.524226	-0.118514
H133	H	1.525693	-0.833974	-0.594401
H134	H	2.025693	-0.333974	-0.094401
H135	H	1.477234	-0.932710	-0.639552
H136	H	1.977234	-0.432710	-0.139552
H137	H	1.521290	-1.101811	-0.563773
H138	H	2.021290	-0.601811	-0.063773
