data_functionalizedCrystal
_audit_creation_method	'MofGen! by Chris Wilmer'
_symmetry_space_group_name_H-M	'P1'
_symmetry_Int_Tables_number	1
_symmetry_cell_setting	triclinic
loop_
_symmetry_equiv_pos_as_xyz
  x,y,z
_cell_length_a	19.121102
_cell_length_b	19.121063
_cell_length_c	19.076919
_cell_angle_alpha	94.606347
_cell_angle_beta	89.940198
_cell_angle_gamma	90.126902
loop_
_atom_site_label
_atom_site_type_symbol
_atom_site_fract_x
_atom_site_fract_y
_atom_site_fract_z
Zn1	Zn	1.040759	-0.342423	-0.457002
Zn2	Zn	1.540759	0.157577	0.042998
Zn3	Zn	1.040381	-0.455333	-0.344111
Zn4	Zn	1.540381	0.044667	0.155889
Zn5	Zn	0.928655	-0.332726	-0.334121
Zn6	Zn	1.428655	0.167274	0.165879
Zn7	Zn	0.918504	-0.454595	-0.456531
Zn8	Zn	1.418504	0.045405	0.043469
O9	O	0.982075	-0.396269	-0.397941
O10	O	1.482075	0.103731	0.102059
O11	O	1.138631	-0.361768	-0.446405
O12	O	1.638631	0.138232	0.053595
O13	O	1.029650	-0.435320	-0.244312
O14	O	1.529650	0.064680	0.255688
O15	O	0.947932	-0.235756	-0.346437
O16	O	1.447932	0.264244	0.153563
O17	O	1.138354	-0.444723	-0.363465
O18	O	1.638354	0.055277	0.136535
O19	O	1.030295	-0.242880	-0.436718
O20	O	1.530295	0.257120	0.063282
O21	O	0.947566	-0.345241	-0.236972
O22	O	1.447566	0.154759	0.263028
O23	O	0.829386	-0.344525	-0.345981
O24	O	1.329386	0.155475	0.154019
O25	O	0.930631	-0.443464	-0.555068
O26	O	1.430631	0.056536	-0.055068
O27	O	0.821928	-0.434062	-0.435915
O28	O	1.321928	0.065938	0.064085
O29	O	1.020452	-0.361052	-0.555414
O30	O	1.520452	0.138948	-0.055414
O31	O	1.019808	-0.553492	-0.363008
O32	O	1.519808	-0.053492	0.136992
O33	O	0.930265	-0.552949	-0.445603
O34	O	1.430265	-0.052949	0.054397
C35	C	0.800267	-0.388161	-0.389813
C36	C	1.300267	0.111839	0.110187
C37	C	0.722488	-0.384710	-0.386353
C38	C	1.222488	0.115290	0.113647
C39	C	0.682082	-0.429771	-0.431484
C40	C	1.182082	0.070229	0.068516
C41	C	0.609000	-0.426519	-0.428236
C42	C	1.109000	0.073481	0.071764
C43	C	0.576325	-0.378210	-0.379853
C44	C	1.076325	0.121790	0.120147
C45	C	0.616736	-0.333144	-0.334721
C46	C	1.116736	0.166856	0.165279
C47	C	0.689817	-0.336393	-0.337973
C48	C	1.189817	0.163607	0.162027
C49	C	0.355862	-0.366062	-0.367699
C50	C	0.855862	0.133938	0.132301
C51	C	0.282776	-0.362818	-0.364449
C52	C	0.782776	0.137182	0.135551
C53	C	0.275045	-0.456192	-0.457965
C54	C	0.775045	0.043808	0.042035
C55	C	0.348128	-0.459440	-0.461210
C56	C	0.848128	0.040560	0.038790
C57	C	0.388532	-0.414372	-0.416080
C58	C	0.888532	0.085628	0.083920
C59	C	0.501624	-0.374886	-0.376531
C60	C	1.001624	0.125114	0.123469
C61	C	0.463232	-0.417692	-0.419406
C62	C	0.963232	0.082308	0.080594
C63	C	0.973912	-0.578699	-0.405354
C64	C	1.473912	-0.078699	0.094646
C65	C	0.970483	-0.656746	-0.408552
C66	C	1.470483	-0.156746	0.091448
C67	C	1.015525	-0.693676	-0.367091
C68	C	1.515525	-0.193676	0.132909
C69	C	1.012304	-0.767010	-0.370103
C70	C	1.512304	-0.267010	0.129897
C71	C	0.964037	-0.803414	-0.414572
C72	C	1.464037	-0.303414	0.085428
C73	C	0.918993	-0.766480	-0.456038
C74	C	1.418993	-0.266480	0.043962
C75	C	0.922218	-0.693147	-0.453030
C76	C	1.422218	-0.193147	0.046970
C77	C	0.951969	-1.024819	-0.425809
C78	C	1.451969	-0.524819	0.074191
C79	C	0.948746	-1.098157	-0.428813
C80	C	1.448746	-0.598157	0.071187
C81	C	1.042059	-1.098682	-0.342877
C82	C	1.542059	-0.598682	0.157123
C83	C	1.045276	-1.025348	-0.339870
C84	C	1.545276	-0.525348	0.160130
C85	C	1.000235	-0.988420	-0.381339
C86	C	1.500235	-0.488420	0.118661
C87	C	0.960742	-0.878373	-0.417650
C88	C	1.460742	-0.378373	0.082350
C89	C	1.003534	-0.913462	-0.378264
C90	C	1.503534	-0.413462	0.121736
C91	C	1.164593	-0.404409	-0.406102
C92	C	1.664593	0.095591	0.093898
C93	C	1.242371	-0.407878	-0.409579
C94	C	1.742371	0.092122	0.090421
C95	C	0.974452	-0.403258	-0.581488
C96	C	1.474452	0.096742	-0.081488
C97	C	0.971203	-0.406235	-0.659705
C98	C	1.471203	0.093765	-0.159705
C99	C	0.990288	-0.213129	-0.390516
C100	C	1.490288	0.286871	0.109484
C101	C	0.993788	-0.135086	-0.387351
C102	C	1.493788	0.364914	0.112649
C103	C	1.016439	-0.364729	-0.696633
C104	C	1.516439	0.135271	-0.196633
C105	C	1.013378	-0.367524	-0.770125
C106	C	1.513378	0.132476	-0.270125
C107	C	0.965084	-0.411830	-0.806689
C108	C	1.465084	0.088170	-0.306689
C109	C	0.919843	-0.453338	-0.769756
C110	C	1.419843	0.046662	-0.269756
C111	C	0.922901	-0.450539	-0.696265
C112	C	1.422901	0.049461	-0.196265
C113	C	0.950921	-0.424799	-1.026465
C114	C	1.450921	0.075201	-0.526465
C115	C	0.947868	-0.427597	-1.099962
C116	C	1.447868	0.072403	-0.599962
C117	C	1.041402	-0.341781	-1.100326
C118	C	1.541402	0.158219	-0.600326
C119	C	1.044459	-0.338989	-1.026834
C120	C	1.544459	0.161011	-0.526834
C121	C	0.999216	-0.380494	-0.989907
C122	C	1.499216	0.119506	-0.489907
N123	N	0.961956	-0.414689	-0.881811
N124	N	1.461956	0.085311	-0.381811
N125	N	1.002341	-0.377630	-0.914787
N126	N	1.502341	0.122370	-0.414787
C127	C	0.989711	-0.389259	-0.215108
C128	C	1.489711	0.110741	0.284892
C129	C	0.993104	-0.386090	-0.136890
C130	C	1.493104	0.113910	0.363110
H131	H	0.708680	-0.469112	-0.470880
H132	H	1.208680	0.030888	0.029120
O133	O	0.584963	-0.286310	-0.287653
O134	O	1.084963	0.213690	0.212347
C135	C	0.542773	-0.322599	-0.241886
C136	C	1.042773	0.177401	0.258114
H137	H	0.562509	-0.378703	-0.240670
H138	H	1.062509	0.121297	0.259330
H139	H	0.486379	-0.323421	-0.261277
H140	H	0.986379	0.176579	0.238723
C141	C	0.521967	-0.216436	-0.168834
C142	C	1.021967	0.283564	0.331166
C143	C	0.546211	-0.285342	-0.167336
C144	C	1.046211	0.214658	0.332664
H145	H	0.524084	-0.193453	-0.122848
H146	H	1.024084	0.306547	0.377152
H147	H	0.550389	-0.191986	-0.199669
H148	H	1.050389	0.308014	0.300331
H149	H	0.474974	-0.217130	-0.184996
H150	H	0.974974	0.282870	0.315004
H151	H	0.593206	-0.284647	-0.151183
H152	H	1.093206	0.215353	0.348817
H153	H	0.517797	-0.309791	-0.136497
H154	H	1.017797	0.190209	0.363503
H155	H	1.078730	-1.128756	-0.309117
H156	H	1.578730	-0.628756	0.190883
H157	H	0.374726	-0.498780	-0.500607
H158	H	0.874726	0.001220	-0.000607
H159	H	0.879695	-0.796126	-0.492250
H160	H	1.379695	-0.296126	0.007750
H161	H	0.909449	-1.127795	-0.465038
H162	H	1.409449	-0.627795	0.034962
H163	H	0.914090	-0.458606	-0.996409
H164	H	1.414090	0.041394	-0.496409
O165	O	0.235868	-0.499933	-0.501908
O166	O	0.735868	0.000067	-0.001908
C167	C	0.251499	-0.488142	-0.572242
C168	C	0.751499	0.011858	-0.072242
H169	H	0.305706	-0.463572	-0.575005
H170	H	0.805706	0.036428	-0.075005
H171	H	0.211001	-0.451151	-0.592704
H172	H	0.711001	0.048849	-0.092704
C173	C	0.183473	-0.588602	-0.614306
C174	C	0.683473	-0.088602	-0.114306
C175	C	0.250054	-0.558429	-0.617699
C176	C	0.750054	-0.058429	-0.117699
H177	H	0.182579	-0.631957	-0.642347
H178	H	0.682579	-0.131957	-0.142347
H179	H	0.172940	-0.596545	-0.566920
H180	H	0.672940	-0.096545	-0.066920
H181	H	0.149733	-0.557769	-0.631356
H182	H	0.649733	-0.057769	-0.131356
H183	H	0.283792	-0.589258	-0.600641
H184	H	0.783792	-0.089258	-0.100641
H185	H	0.260593	-0.550494	-0.665083
H186	H	0.760593	-0.050494	-0.165083
H187	H	0.915293	-0.994758	-0.459573
H188	H	1.415293	-0.494758	0.040427
O189	O	1.085246	-0.301382	-1.136221
O190	O	1.585246	0.198618	-0.636221
C191	C	1.045670	-0.255886	-1.175122
C192	C	1.545670	0.244114	-0.675122
H193	H	0.991673	-0.248251	-1.150331
H194	H	1.491673	0.251749	-0.650331
H195	H	1.039971	-0.279608	-1.231592
H196	H	1.539971	0.220392	-0.731592
C197	C	1.149401	-0.193838	-1.205268
C198	C	1.649401	0.306162	-0.705268
C199	C	1.083082	-0.184455	-1.174816
C200	C	1.583082	0.315545	-0.674816
H201	H	1.172479	-0.149777	-1.205083
H202	H	1.672479	0.350223	-0.705083
H203	H	1.176064	-0.224491	-1.179062
H204	H	1.676064	0.275509	-0.679062
H205	H	1.144642	-0.213608	-1.252324
H206	H	1.644642	0.286392	-0.752324
H207	H	1.087842	-0.164694	-1.127759
H208	H	1.587842	0.335306	-0.627759
H209	H	1.056420	-0.153797	-1.201014
H210	H	1.556420	0.346203	-0.701014
O211	O	0.900888	-0.470652	-1.135371
O212	O	1.400888	0.029348	-0.635371
C213	C	0.861622	-0.506699	-1.087021
C214	C	1.361622	-0.006699	-0.587021
H215	H	0.862664	-0.475836	-1.033359
H216	H	1.362664	0.024164	-0.533359
H217	H	0.885178	-0.560872	-1.082511
H218	H	1.385178	-0.060872	-0.582511
C219	C	0.784223	-0.552492	-1.178694
C220	C	1.284223	-0.052492	-0.678694
C221	C	0.785498	-0.514583	-1.112788
C222	C	1.285498	-0.014583	-0.612788
H223	H	0.737266	-0.557359	-1.194589
H224	H	1.237266	-0.057359	-0.694589
H225	H	0.810678	-0.528209	-1.211269
H226	H	1.310678	-0.028209	-0.711269
H227	H	0.803856	-0.597633	-1.174928
H228	H	1.303856	-0.097633	-0.674928
H229	H	0.765873	-0.469442	-1.116557
H230	H	1.265873	0.030558	-0.616557
H231	H	0.759037	-0.538859	-1.080214
H232	H	1.259037	-0.038859	-0.580214
H233	H	0.885540	-0.663080	-0.486793
H234	H	1.385540	-0.163080	0.013207
O235	O	0.569855	-0.470371	-0.472098
O236	O	1.069855	0.029629	0.027902
C237	C	0.614365	-0.513701	-0.515503
C238	C	1.114365	-0.013701	-0.015503
H239	H	0.667546	-0.517296	-0.489091
H240	H	1.167546	-0.017296	0.010909
H241	H	0.621069	-0.490466	-0.568302
H242	H	1.121069	0.009534	-0.068302
C243	C	0.516775	-0.583149	-0.559713
C244	C	1.016775	-0.083149	-0.059713
C245	C	0.582090	-0.587569	-0.527270
C246	C	1.082090	-0.087569	-0.027270
H247	H	0.496866	-0.628713	-0.566975
H248	H	0.996866	-0.128713	-0.066975
H249	H	0.486786	-0.553955	-0.530472
H250	H	0.986786	-0.053955	-0.030472
H251	H	0.522371	-0.563784	-0.603709
H252	H	1.022371	-0.063784	-0.103709
H253	H	0.576493	-0.606926	-0.483272
H254	H	1.076493	-0.106926	0.016728
H255	H	0.612077	-0.616768	-0.556504
H256	H	1.112077	-0.116768	-0.056504
H257	H	1.054827	-0.664040	-0.330875
H258	H	1.554827	-0.164040	0.169125
H259	H	0.256175	-0.323470	-0.325054
H260	H	0.756175	0.176530	0.174946
H261	H	0.388751	-0.329369	-0.330946
H262	H	0.888751	0.170631	0.169054
H263	H	0.880519	-0.489410	-0.799532
H264	H	1.380519	0.010590	-0.299532
O265	O	0.469920	-0.327863	-0.329601
O266	O	0.969920	0.172137	0.170399
C267	C	0.490283	-0.259292	-0.343035
C268	C	0.990283	0.240708	0.156965
H269	H	0.508206	-0.258868	-0.400011
H270	H	1.008206	0.241132	0.099989
H271	H	0.535084	-0.241333	-0.306474
H272	H	1.035084	0.258667	0.193526
C273	C	0.405784	-0.209741	-0.260150
C274	C	0.905784	0.290259	0.239850
C275	C	0.427791	-0.209219	-0.330132
C276	C	0.927791	0.290781	0.169868
H277	H	0.367238	-0.178853	-0.252188
H278	H	0.867238	0.321147	0.247812
H279	H	0.392066	-0.255939	-0.251098
H280	H	0.892066	0.244061	0.248902
H281	H	0.443124	-0.194777	-0.229691
H282	H	0.943124	0.305223	0.270309
H283	H	0.390455	-0.224192	-0.360589
H284	H	0.890455	0.275808	0.139411
H285	H	0.441501	-0.163023	-0.339189
H286	H	0.941501	0.336977	0.160811
H287	H	1.083787	-0.302912	-0.997069
H288	H	1.583787	0.197088	-0.497069
H289	H	1.042835	-0.883820	-0.342059
H290	H	1.542835	-0.383820	0.157941
O291	O	0.728965	-0.292595	-0.294057
O292	O	1.228965	0.207405	0.205943
C293	C	0.684456	-0.249249	-0.250665
C294	C	1.184456	0.250751	0.249335
H295	H	0.631178	-0.275594	-0.247034
H296	H	1.131178	0.224406	0.252966
H297	H	0.677999	-0.196600	-0.274009
H298	H	1.177999	0.303400	0.225991
C299	C	0.781967	-0.205076	-0.181099
C300	C	1.281967	0.294924	0.318901
C301	C	0.716531	-0.237436	-0.176634
C302	C	1.216531	0.262564	0.323366
H303	H	0.801753	-0.197785	-0.135434
H304	H	1.301753	0.302215	0.364566
H305	H	0.811954	-0.234277	-0.210334
H306	H	1.311954	0.265723	0.289666
H307	H	0.776577	-0.161205	-0.200555
H308	H	1.276577	0.338795	0.299445
H309	H	0.721923	-0.281309	-0.157187
H310	H	1.221923	0.218691	0.342813
H311	H	0.686545	-0.208241	-0.147394
H312	H	1.186545	0.291759	0.352606
O313	O	0.913944	-0.913821	-0.460884
O314	O	1.413944	-0.413821	0.039116
C315	C	0.949998	-0.959678	-0.509895
C316	C	1.449998	-0.459678	-0.009895
H317	H	1.003599	-0.972041	-0.487944
H318	H	1.503599	-0.472041	0.012056
H319	H	0.956713	-0.933717	-0.561235
H320	H	1.456713	-0.433717	-0.061235
C321	C	0.842068	-1.012953	-0.550693
C322	C	1.342068	-0.512953	-0.050693
C323	C	0.907900	-1.028143	-0.523730
C324	C	1.407900	-0.528143	-0.023730
H325	H	0.816099	-1.055185	-0.559230
H326	H	1.316099	-0.555185	-0.059230
H327	H	0.817777	-0.982057	-0.517676
H328	H	1.317777	-0.482057	-0.017676
H329	H	0.847674	-0.991318	-0.593474
H330	H	1.347674	-0.491318	-0.093474
H331	H	0.902293	-1.049770	-0.480946
H332	H	1.402293	-0.549770	0.019054
H333	H	0.932188	-1.059045	-0.556741
H334	H	1.432188	-0.559045	-0.056741
H335	H	1.055768	-0.328652	-0.666868
H336	H	1.555768	0.171348	-0.166868
H337	H	1.050216	-0.333726	-0.800189
H338	H	1.550216	0.166274	-0.300189
H339	H	0.489839	-0.457023	-0.458802
H340	H	0.989839	0.042977	0.041198
H341	H	1.048982	-0.797074	-0.336340
H342	H	1.548982	-0.297074	0.163660
O343	O	1.092232	-0.990098	-0.296663
O344	O	1.592232	-0.490098	0.203337
C345	C	1.131288	-1.038418	-0.260702
C346	C	1.631288	-0.538418	0.239298
H347	H	1.130189	-1.091884	-0.291775
H348	H	1.630189	-0.591884	0.208225
H349	H	1.107587	-1.043084	-0.206411
H350	H	1.607587	-0.543084	0.293589
C351	C	1.208802	-0.947008	-0.214617
C352	C	1.708802	-0.447008	0.285383
C353	C	1.207457	-1.012674	-0.252785
C354	C	1.707457	-0.512674	0.247215
H355	H	1.255786	-0.931127	-0.209730
H356	H	1.755786	-0.431127	0.290270
H357	H	1.182488	-0.914453	-0.238842
H358	H	1.682488	-0.414453	0.261158
H359	H	1.189048	-0.950904	-0.169379
H360	H	1.689048	-0.450904	0.330621
H361	H	1.227203	-1.008774	-0.298025
H362	H	1.727203	-0.508774	0.201975
H363	H	1.233777	-1.045228	-0.228567
H364	H	1.733777	-0.545228	0.271433
H365	H	0.886058	-0.484331	-0.666199
H366	H	1.386058	0.015669	-0.166199
