data_functionalizedCrystal
_audit_creation_method	'MofGen! by Chris Wilmer'
_symmetry_space_group_name_H-M	'P1'
_symmetry_Int_Tables_number	1
_symmetry_cell_setting	triclinic
loop_
_symmetry_equiv_pos_as_xyz
  x,y,z
_cell_length_a	26.210047
_cell_length_b	17.699083
_cell_length_c	17.699083
_cell_angle_alpha	96.716985
_cell_angle_beta	90.020578
_cell_angle_gamma	89.985126
loop_
_atom_site_label
_atom_site_type_symbol
_atom_site_fract_x
_atom_site_fract_y
_atom_site_fract_z
O1	O	0.042358	-1.004092	0.095726
O2	O	0.542358	-0.504092	0.595726
O3	O	0.042375	-0.783714	0.108178
O4	O	0.542375	-0.283714	0.608178
O5	O	0.042362	-0.900129	-0.008237
O6	O	0.542362	-0.400129	0.491763
O7	O	0.042372	-0.887677	0.212141
O8	O	0.542372	-0.387677	0.712141
O9	O	-0.042496	-0.900086	-0.008270
O10	O	0.457504	-0.400086	0.491730
O11	O	-0.042483	-0.783671	0.108146
O12	O	0.457517	-0.283671	0.608146
O13	O	-0.042500	-1.004049	0.095693
O14	O	0.457500	-0.504049	0.595693
Cu15	Cu	-0.050239	-0.893856	0.101916
Cu16	Cu	0.449761	-0.393856	0.601916
Cu17	Cu	0.050115	-0.893907	0.101955
Cu18	Cu	0.550115	-0.393907	0.601955
O19	O	-0.042486	-0.887634	0.212109
O20	O	0.457514	-0.387634	0.712109
C21	C	-0.000052	-0.755495	0.107716
C22	C	0.499948	-0.255495	0.607716
C23	C	-0.000045	-0.671477	0.106377
C24	C	0.499955	-0.171477	0.606377
N25	N	-0.120823	-0.893826	0.101889
N26	N	0.379177	-0.393826	0.601889
C27	C	-0.526799	-0.848079	0.056073
C28	C	-0.026799	-0.348079	0.556073
C29	C	-0.313141	-0.848045	0.056054
C30	C	0.186859	-0.348045	0.556054
O31	O	-0.285529	-0.809102	0.017039
O32	O	0.214471	-0.309102	0.517039
N33	N	-0.286407	-0.893855	0.101899
N34	N	0.213593	-0.393855	0.601899
C35	C	-0.313091	-0.939680	0.147749
C36	C	0.186909	-0.439680	0.647749
O37	O	-0.285450	-0.978650	0.186737
O38	O	0.214550	-0.478650	0.686737
C39	C	-0.526749	-0.939717	0.147763
C40	C	-0.026749	-0.439717	0.647763
C41	C	-0.553480	-0.893899	0.101921
C42	C	-0.053480	-0.393899	0.601921
C43	C	-0.553530	-0.802264	0.010234
C44	C	-0.053530	-0.302264	0.510234
C45	C	-0.606942	-0.802270	0.010242
C46	C	-0.106942	-0.302270	0.510242
C47	C	-0.633622	-0.848090	0.056090
C48	C	-0.133622	-0.348090	0.556090
C49	C	-0.606891	-0.893904	0.101929
C50	C	-0.106891	-0.393904	0.601929
C51	C	-0.553432	-0.985546	0.193608
C52	C	-0.053432	-0.485546	0.693608
C53	C	-0.606850	-0.985553	0.193606
C54	C	-0.106850	-0.485553	0.693606
C55	C	-0.633581	-0.939734	0.147764
C56	C	-0.133581	-0.439734	0.647764
C57	C	-0.686983	-0.939730	0.147785
C58	C	-0.186983	-0.439730	0.647785
N59	N	-0.713717	-0.893920	0.101940
N60	N	-0.213717	-0.393920	0.601940
C61	C	-0.687036	-0.848100	0.056092
C62	C	-0.187036	-0.348100	0.556092
C63	C	-0.200918	-0.939657	0.147739
C64	C	0.299082	-0.439657	0.647739
C65	C	-0.147504	-0.939647	0.147737
C66	C	0.352496	-0.439647	0.647737
C67	C	-0.147557	-0.848012	0.056041
C68	C	0.352443	-0.348012	0.556041
C69	C	-0.200972	-0.848019	0.056048
C70	C	0.299028	-0.348019	0.556048
C71	C	-0.227652	-0.893847	0.101894
C72	C	0.272348	-0.393847	0.601894
C73	C	-0.799204	-0.848115	0.056114
C74	C	-0.299204	-0.348115	0.556114
C75	C	-0.852620	-0.848123	0.056129
C76	C	-0.352620	-0.348123	0.556129
C77	C	-0.852563	-0.939760	0.147821
C78	C	-0.352563	-0.439760	0.647821
C79	C	-0.799151	-0.939750	0.147810
C80	C	-0.299151	-0.439750	0.647810
C81	C	-0.772473	-0.893925	0.101950
C82	C	-0.272473	-0.393925	0.601950
O83	O	-0.714628	-0.978660	0.186774
O84	O	-0.214628	-0.478660	0.686774
O85	O	-0.714687	-0.809149	0.017098
O86	O	-0.214687	-0.309149	0.517098
C87	C	-0.473388	-0.848073	0.056065
C88	C	0.026612	-0.348073	0.556065
C89	C	-0.446657	-0.893887	0.101904
C90	C	0.053343	-0.393887	0.601904
C91	C	-0.473337	-0.939707	0.147752
C92	C	0.026663	-0.439707	0.647752
C93	C	-0.393243	-0.893877	0.101902
C94	C	0.106757	-0.393877	0.601902
C95	C	-0.366562	-0.848057	0.056054
C96	C	0.133438	-0.348057	0.556054
C97	C	-0.393296	-0.802247	0.010209
C98	C	0.106704	-0.302247	0.510209
C99	C	-0.446707	-0.802253	0.010217
C100	C	0.053293	-0.302253	0.510217
C101	C	-0.446604	-0.985517	0.193597
C102	C	0.053396	-0.485517	0.693597
C103	C	-0.393192	-0.985507	0.193586
C104	C	0.106808	-0.485507	0.693586
C105	C	-0.366512	-0.939687	0.147738
C106	C	0.133488	-0.439687	0.647738
C107	C	-0.000067	-0.899662	-0.036451
C108	C	0.499933	-0.399662	0.463549
C109	C	-0.000067	-0.898323	-0.120469
C110	C	0.499933	-0.398323	0.379531
N111	N	0.120699	-0.893943	0.101976
N112	N	0.620699	-0.393943	0.601976
C113	C	-0.000072	-1.032268	0.096156
C114	C	0.499928	-0.532268	0.596156
C115	C	-0.000074	-1.116286	0.097494
C116	C	0.499926	-0.616286	0.597494
C117	C	-0.000042	-0.622856	0.174710
C118	C	0.499958	-0.122856	0.674710
C119	C	-0.000049	-0.543913	0.173448
C120	C	0.499951	-0.043913	0.673448
C121	C	-0.000055	-0.513592	0.103852
C122	C	0.499945	-0.013592	0.603852
C123	C	-0.000059	-0.562219	0.035513
C124	C	0.499941	-0.062219	0.535513
C125	C	-0.000056	-0.641161	0.036776
C126	C	0.499944	-0.141161	0.536776
C127	C	-0.000072	-0.243856	0.030418
C128	C	0.499928	0.256144	0.530418
C129	C	-0.000074	-0.164908	0.029160
C130	C	0.499926	0.335092	0.529160
C131	C	-0.000065	-0.146608	0.167090
C132	C	0.499935	0.353392	0.667090
C133	C	-0.000062	-0.225550	0.168353
C134	C	0.499938	0.274450	0.668353
C135	C	-0.000069	-0.274170	0.100015
C136	C	0.499931	0.225830	0.600015
C137	C	-0.000063	-0.359769	0.101384
C138	C	0.499937	0.140231	0.601384
C139	C	-0.000058	-0.427995	0.102481
C140	C	0.499942	0.072005	0.602481
C141	C	-0.000073	-0.966656	-0.169090
C142	C	0.499927	-0.466656	0.330910
C143	C	-0.000069	-0.965394	-0.248033
C144	C	0.499931	-0.465394	0.251967
C145	C	-0.000062	-0.895798	-0.278354
C146	C	0.499938	-0.395798	0.221646
C147	C	-0.000054	-0.827459	-0.229727
C148	C	0.499946	-0.327459	0.270273
C149	C	-0.000055	-0.828722	-0.150785
C150	C	0.499945	-0.328722	0.349215
C151	C	-0.000050	-0.822364	-0.548090
C152	C	0.499950	-0.322364	-0.048090
C153	C	-0.000050	-0.821106	-0.627038
C154	C	0.499950	-0.321106	-0.127038
C155	C	-0.000063	-0.959036	-0.645338
C156	C	0.499937	-0.459036	-0.145338
C157	C	-0.000064	-0.960299	-0.566396
C158	C	0.499936	-0.460299	-0.066396
C159	C	-0.000054	-0.891961	-0.517776
C160	C	0.499946	-0.391961	-0.017776
C161	C	-0.000058	-0.893330	-0.432177
C162	C	0.499942	-0.393330	0.067823
C163	C	-0.000061	-0.894427	-0.363951
C164	C	0.499939	-0.394427	0.136049
C165	C	-0.000056	-0.888102	0.240322
C166	C	0.499944	-0.388102	0.740322
C167	C	-0.000053	-0.889440	0.324340
C168	C	0.499947	-0.389440	0.824340
H169	H	-0.874382	-0.810808	0.018798
H170	H	-0.374382	-0.310808	0.518798
H171	H	-0.125744	-0.976947	0.185075
H172	H	0.374256	-0.476947	0.685075
Br173	Br	-0.000049	-0.266695	0.262808
Br174	Br	0.499951	0.233305	0.762808
H175	H	-0.000046	-0.504328	0.229092
H176	H	0.499954	-0.004328	0.729092
Br177	Br	-0.000043	-0.735980	-0.084798
Br178	Br	0.499957	-0.235980	0.415202
H179	H	-0.125824	-0.810701	0.018712
H180	H	0.374176	-0.310701	0.518712
Br181	Br	-0.000077	-1.058137	-0.314017
Br182	Br	0.499923	-0.558137	0.185983
H183	H	-0.000062	-0.107012	0.222734
H184	H	0.499938	0.392988	0.722734
Br185	Br	-0.763007	-0.785928	-0.006129
Br186	Br	-0.263007	-0.285928	0.493871
H187	H	-0.000045	-0.770792	-0.254420
H188	H	0.499955	-0.270792	0.245580
H189	H	-0.000072	-1.016971	-0.541714
H190	H	0.499928	-0.516971	-0.041714
H191	H	-0.000059	-0.680748	-0.018868
H192	H	0.499941	-0.180748	0.481132
H193	H	-0.628701	-0.764963	-0.027090
H194	H	-0.128701	-0.264963	0.472910
H195	H	-0.000069	-1.014680	-0.684934
H196	H	0.499931	-0.514680	-0.184934
H197	H	-0.000046	-0.764429	-0.651721
H198	H	0.499954	-0.264429	-0.151721
Br199	Br	-0.000033	-0.729619	-0.482115
Br200	Br	0.499967	-0.229619	0.017885
H201	H	-0.531812	-0.764952	-0.027105
H202	H	-0.031812	-0.264952	0.472895
H203	H	-0.222733	-0.810709	0.018719
H204	H	0.277267	-0.310709	0.518719
Br205	Br	-0.482805	-1.047708	0.255826
Br206	Br	0.017195	-0.547708	0.755826
Br207	Br	-0.762872	-1.001942	0.210015
Br208	Br	-0.262872	-0.501942	0.710015
Br209	Br	-0.357076	-0.740059	-0.052008
Br210	Br	0.142924	-0.240059	0.447992
H211	H	-0.531677	-1.022858	0.230937
H212	H	-0.031677	-0.522858	0.730937
H213	H	-0.000079	-0.283434	-0.025228
H214	H	0.499921	0.216566	0.474772
H215	H	-0.628570	-1.022874	0.230940
H216	H	-0.128570	-0.522874	0.730940
Br217	Br	-0.237118	-1.001855	0.209968
Br218	Br	0.262882	-0.501855	0.709968
H219	H	-0.000079	-0.140225	-0.027517
H220	H	0.499921	0.359775	0.472483
H221	H	-0.000072	-0.537526	-0.021154
H222	H	0.499928	-0.037526	0.478846
Br223	Br	-0.888782	-1.001935	0.210046
Br224	Br	-0.388782	-0.501935	0.710046
H225	H	-0.468467	-0.764943	-0.027113
H226	H	0.031533	-0.264943	0.472887
H227	H	-0.000037	-0.647537	0.231384
H228	H	0.499963	-0.147537	0.731384
Br229	Br	-0.000090	-1.061114	-0.127948
Br230	Br	0.499910	-0.561114	0.372052
Br231	Br	-0.356922	-1.047684	0.255819
Br232	Br	0.143078	-0.547684	0.755819
