data_functionalizedCrystal
_audit_creation_method	'MofGen! by Chris Wilmer'
_symmetry_space_group_name_H-M	'P1'
_symmetry_Int_Tables_number	1
_symmetry_cell_setting	triclinic
loop_
_symmetry_equiv_pos_as_xyz
  x,y,z
_cell_length_a	19.188930
_cell_length_b	19.188940
_cell_length_c	10.868271
_cell_angle_alpha	89.994428
_cell_angle_beta	89.981803
_cell_angle_gamma	83.146747
loop_
_atom_site_label
_atom_site_type_symbol
_atom_site_fract_x
_atom_site_fract_y
_atom_site_fract_z
O1	O	0.926148	0.087168	-0.102719
O2	O	1.426148	0.587168	0.397281
O3	O	0.722837	0.098902	-0.102635
O4	O	1.222837	0.598902	0.397365
O5	O	0.830356	-0.008620	-0.102670
O6	O	1.330356	0.491380	0.397330
O7	O	0.818629	0.194690	-0.102684
O8	O	1.318629	0.694690	0.397316
O9	O	0.830347	-0.008625	0.101975
O10	O	1.330347	0.491375	0.601975
O11	O	0.722828	0.098898	0.102010
O12	O	1.222828	0.598898	0.602010
O13	O	0.926139	0.087164	0.101926
O14	O	1.426139	0.587164	0.601926
Zn15	Zn	0.824482	0.093030	0.134460
Zn16	Zn	1.324482	0.593030	0.634460
Zn17	Zn	0.824494	0.093035	-0.135169
Zn18	Zn	1.324494	0.593035	0.364831
O19	O	0.818620	0.194686	0.101961
O20	O	1.318620	0.694686	0.601961
C21	C	0.829970	-0.034633	-0.000348
C22	C	1.329970	0.465367	0.499652
C23	C	0.828827	-0.112138	-0.000348
C24	C	1.328827	0.387862	0.499652
C25	C	0.696821	0.098520	-0.000302
C26	C	1.196821	0.598520	0.499698
C27	C	0.619317	0.097379	-0.000269
C28	C	1.119317	0.597379	0.499731
C29	C	0.820688	-0.665399	0.111178
C30	C	1.320688	-0.165399	0.611178
C31	C	0.821754	-0.592575	0.111185
C32	C	1.321754	-0.092575	0.611185
C33	C	0.822296	-0.556153	-0.000366
C34	C	1.322296	-0.056153	0.499634
C35	C	0.821753	-0.592559	-0.111931
C36	C	1.321753	-0.092559	0.388069
C37	C	0.820679	-0.665381	-0.111934
C38	C	1.320679	-0.165381	0.388066
N39	N	0.863716	-0.447127	-0.083412
N40	N	1.363716	0.052873	0.416588
N41	N	0.864737	-0.377949	-0.083402
N42	N	1.364737	0.122051	0.416598
C43	C	0.825530	-0.336744	-0.000363
C44	C	1.325530	0.163256	0.499637
N45	N	0.785271	-0.367330	0.082684
N46	N	1.285271	0.132670	0.582684
N47	N	0.784252	-0.436515	0.082677
N48	N	1.284252	0.063485	0.582677
C49	C	0.823460	-0.477189	-0.000375
C50	C	1.323460	0.022811	0.499625
C51	C	0.827224	-0.221381	0.111202
C52	C	1.327224	0.278619	0.611202
C53	C	0.828287	-0.148554	0.111204
C54	C	1.328287	0.351446	0.611204
C55	C	0.828292	-0.148541	-0.111915
C56	C	1.328292	0.351459	0.388085
C57	C	0.827223	-0.221365	-0.111914
C58	C	1.327223	0.278635	0.388086
C59	C	0.826692	-0.257781	-0.000351
C60	C	1.326692	0.242219	0.499649
C61	C	0.574395	0.160470	-0.000293
C62	C	1.074395	0.660470	0.499707
C63	C	0.501571	0.159398	-0.000306
C64	C	1.001571	0.659398	0.499694
C65	C	0.473672	0.095232	-0.000321
C66	C	0.973672	0.595232	0.499679
C67	C	0.518604	0.032133	-0.000290
C68	C	1.018604	0.532133	0.499710
C69	C	0.591426	0.033207	-0.000264
C70	C	1.091426	0.533207	0.499736
N71	N	0.365693	0.046187	-0.070016
N72	N	0.865693	0.546187	0.429984
N73	N	0.296515	0.045171	-0.070044
N74	N	0.796515	0.545171	0.429956
C75	C	0.254264	0.091994	-0.000396
C76	C	0.754264	0.591994	0.499604
N77	N	0.283803	0.139881	0.069265
N78	N	0.783803	0.639881	0.569265
N79	N	0.352988	0.140899	0.069286
N80	N	0.852988	0.640899	0.569286
C81	C	0.394710	0.094061	-0.000348
C82	C	0.894710	0.594061	0.499652
C83	C	0.130377	0.153927	-0.000432
C84	C	0.630377	0.653927	0.499568
C85	C	0.057553	0.152853	-0.000438
C86	C	0.557553	0.652853	0.499562
C87	C	0.074587	0.025586	-0.000434
C88	C	0.574587	0.525586	0.499566
C89	C	0.147410	0.026662	-0.000416
C90	C	0.647410	0.526662	0.499584
C91	C	0.175301	0.090835	-0.000421
C92	C	0.675301	0.590835	0.499579
C93	C	0.952154	0.087546	-0.000410
C94	C	1.452154	0.587546	0.499590
C95	C	1.029659	0.088686	-0.000451
C96	C	1.529659	0.588686	0.499549
C97	C	0.819005	0.220699	-0.000364
C98	C	1.319005	0.720699	0.499636
C99	C	0.820148	0.298203	-0.000372
C100	C	1.320148	0.798203	0.499628
N101	N	0.824479	0.093026	0.318474
N102	N	1.324479	0.593026	0.818474
N103	N	0.824502	0.093034	-0.319183
N104	N	1.324502	0.593034	0.180817
C105	C	0.824490	0.093034	0.569480
C106	C	1.324490	0.593034	1.069480
C107	C	0.824482	0.093031	0.429802
C108	C	1.324482	0.593031	0.929802
H109	H	0.820255	-0.695044	0.202021
H110	H	1.320255	-0.195044	0.702021
H111	H	0.020977	0.204231	-0.000450
H112	H	0.520977	0.704231	0.499550
C113	C	0.640842	-0.036196	-0.000253
C114	C	1.140842	0.463804	0.499747
H115	H	0.613800	-0.074566	-0.000270
H116	H	1.113800	0.425434	0.499730
H117	H	0.669588	-0.038425	0.071115
H118	H	1.169588	0.461575	0.571115
H119	H	0.669619	-0.038417	-0.071622
H120	H	1.169619	0.461583	0.428378
C121	C	0.487918	-0.038447	-0.000313
C122	C	0.987918	0.461553	0.499687
H123	H	0.438114	-0.030051	-0.000346
H124	H	0.938114	0.469949	0.499654
H125	H	0.503328	-0.064420	0.071055
H126	H	1.003328	0.435580	0.571055
H127	H	0.503375	-0.064412	-0.071682
H128	H	1.003375	0.435588	0.428318
C129	C	0.043907	-0.044995	-0.000458
C130	C	0.543907	0.455005	0.499542
H131	H	-0.005898	-0.036600	-0.000485
H132	H	0.494102	0.463400	0.499515
H133	H	0.059320	-0.070970	0.070907
H134	H	0.559320	0.429030	0.570907
H135	H	0.059361	-0.070957	-0.071830
H136	H	0.559361	0.429043	0.428170
C137	C	0.822352	-0.552499	-0.234633
C138	C	1.322352	-0.052499	0.265367
H139	H	0.823077	-0.503916	-0.218656
H140	H	1.323077	-0.003916	0.281344
H141	H	0.781472	-0.558980	-0.280454
H142	H	1.281472	-0.058980	0.219546
H143	H	0.862889	-0.569881	-0.280485
H144	H	1.362889	-0.069881	0.219515
C145	C	0.826634	-0.261444	0.233909
C146	C	1.326634	0.238556	0.733909
H147	H	0.825928	-0.310029	0.217932
H148	H	1.325928	0.189971	0.717932
H149	H	0.786103	-0.244068	0.279768
H150	H	1.286103	0.255932	0.779768
H151	H	0.867520	-0.254958	0.279723
H152	H	1.367520	0.245042	0.779723
H153	H	0.820239	-0.695016	-0.202775
H154	H	1.320239	-0.195016	0.297225
C155	C	0.828882	-0.108517	0.233916
C156	C	1.328882	0.391483	0.733916
H157	H	0.828419	-0.140638	0.300352
H158	H	1.328419	0.359362	0.800352
H159	H	0.788594	-0.074662	0.238586
H160	H	1.288594	0.425338	0.738586
H161	H	0.870011	-0.085557	0.238524
H162	H	1.370011	0.414443	0.738524
C163	C	0.822352	-0.552529	0.233895
C164	C	1.322352	-0.052529	0.733895
H165	H	0.821886	-0.584647	0.300335
H166	H	1.321886	-0.084647	0.800335
H167	H	0.782067	-0.518671	0.238560
H168	H	1.282067	-0.018671	0.738560
H169	H	0.863484	-0.529573	0.238500
H170	H	1.363484	-0.029573	0.738500
C171	C	0.828891	-0.108487	-0.234619
C172	C	1.328891	0.391513	0.265381
H173	H	0.829613	-0.059903	-0.218642
H174	H	1.329613	0.440097	0.281358
H175	H	0.788013	-0.114970	-0.280443
H176	H	1.288013	0.385030	0.219557
H177	H	0.869430	-0.125868	-0.280467
H178	H	1.369430	0.374132	0.219533
C179	C	0.826638	-0.261406	-0.234621
C180	C	1.326638	0.238594	0.265379
H181	H	0.827119	-0.229288	-0.301057
H182	H	1.327119	0.270712	0.198943
H183	H	0.785514	-0.284367	-0.239241
H184	H	1.285514	0.215633	0.260759
H185	H	0.866931	-0.295261	-0.239277
H186	H	1.366931	0.204739	0.260723
H187	H	0.597098	0.212724	-0.000299
H188	H	1.097098	0.712724	0.499701
H189	H	0.183987	-0.024713	-0.000404
H190	H	0.683987	0.475287	0.499596
H191	H	0.464989	0.210775	-0.000322
H192	H	0.964989	0.710775	0.499678
C193	C	0.161061	0.224512	-0.000425
C194	C	0.661061	0.724512	0.499575
H195	H	0.123874	0.261934	-0.000423
H196	H	0.623874	0.761934	0.499577
H197	H	0.189133	0.227578	-0.071782
H198	H	0.689133	0.727578	0.428218
H199	H	0.189095	0.227573	0.070955
H200	H	0.689095	0.727573	0.570955
