data_functionalizedCrystal
_audit_creation_method	'MofGen! by Chris Wilmer'
_symmetry_space_group_name_H-M	'P1'
_symmetry_Int_Tables_number	1
_symmetry_cell_setting	triclinic
loop_
_symmetry_equiv_pos_as_xyz
  x,y,z
_cell_length_a	23.196402
_cell_length_b	14.560438
_cell_length_c	14.560438
_cell_angle_alpha	60.000325
_cell_angle_beta	89.998831
_cell_angle_gamma	59.999118
loop_
_atom_site_label
_atom_site_type_symbol
_atom_site_fract_x
_atom_site_fract_y
_atom_site_fract_z
Zr1	Zr	0.555357	1.005298	-0.120545
O2	O	0.463304	1.196900	-0.267186
O3	O	0.583576	0.813696	-0.075593
O4	O	0.583574	1.005301	-0.267195
O5	O	0.463309	1.005292	0.075557
O6	O	0.678444	1.005304	-0.267200
O7	O	0.463307	1.005295	-0.075584
O8	O	0.678448	0.662556	0.075541
O9	O	0.463304	1.348039	-0.267184
O10	O	0.666411	0.892506	-0.056423
O11	O	0.595612	0.892502	0.056375
O12	O	0.595609	1.118093	-0.169211
O13	O	0.524810	1.118089	-0.056413
Zr14	Zr	0.706666	1.005297	0.120499
Zr15	Zr	0.706663	1.005302	-0.120553
Zr16	Zr	0.555359	1.005294	0.120508
Zr17	Zr	0.555356	1.246347	-0.120542
Zr18	Zr	0.706667	0.764248	0.120496
O19	O	0.678446	1.196899	0.075548
O20	O	0.678443	1.196906	-0.267198
O21	O	0.463308	1.196894	0.075559
O22	O	0.798718	0.813695	0.267141
O23	O	0.798715	0.813701	-0.075605
O24	O	0.583580	0.813689	0.267152
O25	O	0.798714	1.005303	-0.075602
O26	O	0.678449	1.005294	0.267150
O27	O	0.583579	1.005292	0.267155
O28	O	0.798716	1.005300	0.075538
O29	O	0.583572	1.348042	-0.267191
O30	O	0.678450	0.662553	0.267145
O31	O	0.798719	0.662556	0.267139
O32	O	0.798717	0.662559	0.075534
O33	O	0.463306	1.348036	-0.075580
O34	O	0.583574	1.348039	-0.075586
O35	O	0.666414	0.892502	0.169166
O36	O	0.737213	0.892506	0.056367
O37	O	0.666411	1.118093	-0.056421
O38	O	0.595611	1.118089	0.056378
C39	C	0.631012	0.703782	-0.000026
C40	C	0.631013	0.601450	-0.000028
C41	C	0.667968	0.457214	-0.058900
C42	C	0.667967	0.553370	-0.058909
C43	C	0.594050	0.553377	0.058856
C44	C	0.594047	0.457229	0.058858
C45	C	0.441750	1.005293	-0.000012
C46	C	0.377516	1.005291	-0.000009
C47	C	0.384299	0.887541	0.058855
C48	C	0.323945	0.887539	0.058859
C49	C	0.256808	1.005295	-0.000021
C50	C	0.250028	1.123061	-0.058887
C51	C	0.310382	1.123059	-0.058881
C52	C	0.132878	1.095513	-0.098651
C53	C	0.072526	1.095509	-0.098661
C54	C	0.070654	1.005304	-0.000039
C55	C	0.129148	0.915081	0.098592
C56	C	0.189502	0.915079	0.098598
C57	C	0.191360	1.005309	-0.000034
C58	C	0.011996	0.887544	0.058835
C59	C	-0.048360	0.887547	0.058843
C60	C	-0.122278	1.123072	-0.058915
C61	C	-0.061921	1.123066	-0.058912
C62	C	0.005214	1.005298	-0.000039
C63	C	0.820273	1.005302	-0.000033
C64	C	0.884506	1.005304	-0.000037
C65	C	0.631008	1.005303	-0.301542
C66	C	0.631007	1.005305	-0.403875
C67	C	0.631010	1.306814	-0.000019
C68	C	0.631010	1.409145	-0.000018
C69	C	0.594055	1.123049	-0.606980
C70	C	0.594049	1.123057	-0.510832
C71	C	0.667969	0.887537	-0.393067
C72	C	0.667970	0.887530	-0.489214
C73	C	0.631014	1.005292	0.301497
C74	C	0.631015	1.005290	0.403830
C75	C	0.820274	0.703786	-0.000037
C76	C	0.884508	0.601456	-0.000042
C77	C	0.631015	0.703776	0.301493
C78	C	0.631017	0.601442	0.403825
C79	C	0.820277	0.703781	0.301483
C80	C	0.884512	0.601449	0.403811
C81	C	0.441746	1.306814	-0.301528
C82	C	0.377511	1.409146	-0.403856
C83	C	0.441749	1.306809	-0.000008
C84	C	0.377515	1.409139	-0.000004
C85	C	0.631007	1.306819	-0.301539
C86	C	0.631006	1.409153	-0.403870
C87	C	0.877715	0.553401	-0.058930
C88	C	0.938064	0.457264	-0.058957
C89	C	1.005205	0.409178	-0.000089
C90	C	1.011996	0.457242	0.058801
C91	C	0.951648	0.553384	0.058821
C92	C	0.951640	0.553395	0.392986
C93	C	1.012002	0.457256	0.489125
C94	C	1.005233	0.409167	0.596088
C95	C	0.938098	0.457231	0.606911
C96	C	0.877738	0.553374	0.510773
C97	C	0.310383	1.457212	-0.393031
C98	C	0.250021	1.553381	-0.489170
C99	C	0.256790	1.601475	-0.596133
C100	C	0.323925	1.553405	-0.606956
C101	C	0.384285	1.457245	-0.510818
C102	C	0.384307	1.457204	0.058874
C103	C	0.323959	1.553368	0.058875
C104	C	0.256818	1.601457	0.000003
C105	C	0.250026	1.553388	-0.058882
C106	C	0.310375	1.457233	-0.058888
C107	C	0.667975	0.553364	0.510776
C108	C	0.667968	0.457220	0.606924
C109	C	0.594045	0.457237	0.489155
C110	C	0.594048	0.553386	0.393010
H111	H	0.563948	0.418094	0.106807
H112	H	0.932597	0.418062	0.694013
N113	N	0.554183	0.405384	0.477503
H114	H	0.573570	0.365499	0.435023
H115	H	0.502490	0.478800	0.435063
N116	N	0.303069	1.405369	-0.277673
H117	H	0.351489	1.337156	-0.218401
H118	H	0.276374	1.365560	-0.268766
H119	H	0.698064	0.418068	-0.106842
N120	N	0.554167	0.605230	0.277665
H121	H	0.588047	0.588511	0.235120
H122	H	0.516972	0.701729	0.235249
H123	H	0.329502	1.592489	0.106830
H124	H	0.563958	0.592537	0.106793
N125	N	0.707836	0.760529	-0.277711
H126	H	0.702232	0.778400	-0.218441
H127	H	0.759519	0.709121	-0.268821
H128	H	0.823081	0.592487	0.519603
H129	H	0.698074	0.592493	0.519589
N130	N	0.177615	1.605213	-0.477492
H131	H	0.171967	1.645081	-0.434998
H132	H	0.172012	1.531788	-0.435059
N133	N	0.707825	0.605223	-0.122423
H134	H	0.731238	0.560171	-0.159718
H135	H	0.744981	0.588494	-0.068367
H136	H	1.054339	0.330892	-0.000113
N137	N	0.456703	0.760517	0.122354
H138	H	0.462354	0.709030	0.204718
H139	H	0.493870	0.778476	0.113343
N140	N	1.070345	0.305453	0.699765
H141	H	1.070379	0.225660	0.746039
H142	H	1.070351	0.339003	0.745972
H143	H	0.329468	0.791649	0.106794
N144	N	1.084414	0.405373	0.122291
H145	H	1.121608	0.337174	0.113339
H146	H	1.090012	0.365536	0.204633
N147	N	0.707842	0.760513	-0.477560
H148	H	0.731260	0.685913	-0.395217
H149	H	0.744995	0.755398	-0.514894
H150	H	0.823051	0.592552	-0.106881
N151	N	0.930727	0.405421	-0.122459
H152	H	0.979142	0.337222	-0.113551
H153	H	0.904026	0.478861	-0.204793
N154	N	0.177608	1.605243	-0.122353
H155	H	0.150912	1.701763	-0.181596
H156	H	0.150996	1.588405	-0.068245
N157	N	0.707838	0.405352	0.722278
H158	H	0.702227	0.337151	0.781548
H159	H	0.688439	0.478781	0.731189
N160	N	0.009436	1.192814	-0.205027
H161	H	-0.000710	1.145367	-0.227075
H162	H	0.019814	1.249949	-0.267432
N163	N	0.252591	0.817774	0.204966
H164	H	0.242254	0.760622	0.267446
H165	H	0.262710	0.865316	0.226908
N166	N	0.554189	1.250074	-0.522500
H167	H	0.588085	1.255322	-0.485231
H168	H	0.516994	1.255258	-0.485253
N169	N	0.191684	1.705189	-0.699820
H170	H	0.148134	1.728331	-0.676721
H171	H	0.191712	1.671658	-0.746059
N172	N	0.331220	1.605283	-0.722327
H173	H	0.282792	1.673487	-0.781578
H174	H	0.357900	1.531858	-0.731245
N175	N	0.456689	1.405378	-0.522495
H176	H	0.483393	1.422091	-0.485232
H177	H	0.451755	1.450456	-0.604864
N178	N	0.456719	1.405349	0.122375
H179	H	0.451854	1.450406	0.159664
H180	H	0.483367	1.422082	0.068308
H181	H	0.957189	0.592498	0.106781
H182	H	0.207684	1.679753	0.000018
H183	H	0.127634	0.841607	0.178892
H184	H	0.957165	0.592534	0.305899
N185	N	0.084409	0.760532	0.122333
H186	H	0.079546	0.685934	0.159633
H187	H	0.111060	0.755402	0.181524
H188	H	1.066661	0.418132	0.480292
N189	N	0.303036	1.405401	-0.122395
H190	H	0.276369	1.365523	-0.091502
H191	H	0.351471	1.337238	-0.113459
H192	H	-0.176941	1.218951	-0.106857
N193	N	-0.041050	0.760542	0.122335
H194	H	-0.014386	0.709049	0.204701
H195	H	-0.014412	0.709173	0.091351
N196	N	-0.069231	1.250068	-0.122419
H197	H	-0.095896	1.301558	-0.091542
H198	H	-0.095870	1.301438	-0.204770
N199	N	0.134885	1.192806	-0.205043
H200	H	0.174820	1.145344	-0.227074
H201	H	0.142479	1.248290	-0.191739
H202	H	0.304853	1.218949	-0.106812
N203	N	0.177616	1.250063	-0.122394
H204	H	0.171964	1.301550	-0.204758
H205	H	0.172002	1.301439	-0.091415
N206	N	0.554205	1.250055	-0.722338
H207	H	0.530792	1.324655	-0.714592
H208	H	0.517051	1.255193	-0.764805
