data_functionalizedCrystal
_audit_creation_method	'MofGen! by Chris Wilmer'
_symmetry_space_group_name_H-M	'P1'
_symmetry_Int_Tables_number	1
_symmetry_cell_setting	triclinic
loop_
_symmetry_equiv_pos_as_xyz
  x,y,z
_cell_length_a	18.050591
_cell_length_b	18.050583
_cell_length_c	19.077068
_cell_angle_alpha	92.259717
_cell_angle_beta	92.323298
_cell_angle_gamma	89.977979
loop_
_atom_site_label
_atom_site_type_symbol
_atom_site_fract_x
_atom_site_fract_y
_atom_site_fract_z
Zn1	Zn	1.123424	-0.431891	-0.280224
Zn2	Zn	1.623424	0.068109	0.219776
Zn3	Zn	1.118344	-0.312684	-0.397941
Zn4	Zn	1.618344	0.187316	0.102059
Zn5	Zn	0.999240	-0.307704	-0.280254
Zn6	Zn	1.499240	0.192296	0.219746
Zn7	Zn	0.994205	-0.436816	-0.397876
Zn8	Zn	1.494205	0.063184	0.102124
O9	O	1.058803	-0.372274	-0.339074
O10	O	1.558803	0.127726	0.160926
O11	O	1.226674	-0.416101	-0.295853
O12	O	1.726674	0.083899	0.204147
O13	O	1.102525	-0.208100	-0.382370
O14	O	1.602525	0.291900	0.117630
O15	O	1.019947	-0.320032	-0.181760
O16	O	1.519947	0.179968	0.318240
O17	O	1.222942	-0.328520	-0.382340
O18	O	1.722942	0.171480	0.117660
O19	O	1.111184	-0.411273	-0.181737
O20	O	1.611184	0.088727	0.318263
O21	O	1.015020	-0.204441	-0.295906
O22	O	1.515020	0.295559	0.204094
O23	O	0.894648	-0.324808	-0.295843
O24	O	1.394648	0.175192	0.204157
O25	O	1.011366	-0.540086	-0.382229
O26	O	1.511366	-0.040086	0.117771
O27	O	0.890949	-0.419666	-0.382259
O28	O	1.390949	0.080334	0.117741
O29	O	1.106303	-0.536468	-0.295790
O30	O	1.606303	-0.036468	0.204210
O31	O	1.097643	-0.333295	-0.496423
O32	O	1.597643	0.166705	0.003577
O33	O	1.006439	-0.424495	-0.496375
O34	O	1.506439	0.075505	0.003625
C35	C	0.865852	-0.372232	-0.339048
C36	C	1.365852	0.127768	0.160952
C37	C	0.783306	-0.372232	-0.339053
C38	C	1.283306	0.127768	0.160947
C39	C	1.058839	-0.565976	-0.338999
C40	C	1.558839	-0.065976	0.161001
C41	C	1.058855	-0.648521	-0.338967
C42	C	1.558855	-0.148521	0.161033
C43	C	1.050964	-0.379986	-0.521936
C44	C	1.550964	0.120014	-0.021936
C45	C	1.047678	-0.383310	-0.600166
C46	C	1.547678	0.116690	-0.100166
C47	C	0.585848	-0.320760	-0.292006
C48	C	1.085848	0.179240	0.207994
C49	C	0.533707	-0.305201	-0.356204
C50	C	1.033707	0.194799	0.143796
C51	C	0.632175	-0.372266	-0.339075
C52	C	1.132175	0.127734	0.160925
C53	C	0.537233	-0.387824	-0.274899
C54	C	1.037233	0.112176	0.225101
C55	C	0.486189	-0.372298	-0.339090
C56	C	0.986189	0.127702	0.160910
C57	C	0.581120	-0.356673	-0.403306
C58	C	1.081120	0.143327	0.096694
C59	C	0.584652	-0.439327	-0.321958
C60	C	1.084652	0.060673	0.178042
C61	C	0.532532	-0.423795	-0.386201
C62	C	1.032532	0.076205	0.113799
C63	C	0.716274	-0.372246	-0.339065
C64	C	1.216274	0.127754	0.160935
C65	C	0.402092	-0.372319	-0.339106
C66	C	0.902092	0.127681	0.160894
C67	C	1.252508	-0.372317	-0.339101
C68	C	1.752508	0.127683	0.160899
C69	C	1.335053	-0.372335	-0.339112
C70	C	1.835053	0.127665	0.160888
C71	C	1.110532	-0.846003	-0.291939
C72	C	1.610532	-0.346003	0.208061
C73	C	1.043529	-0.894661	-0.274708
C74	C	1.543529	-0.394661	0.225292
C75	C	1.058885	-0.799651	-0.338955
C76	C	1.558885	-0.299651	0.161045
C77	C	1.125918	-0.898072	-0.356140
C78	C	1.625918	-0.398072	0.143860
C79	C	1.058920	-0.945635	-0.338942
C80	C	1.558920	-0.445635	0.161058
C81	C	0.991847	-0.847221	-0.321691
C82	C	1.491847	-0.347221	0.178309
C83	C	1.074281	-0.850628	-0.403153
C84	C	1.574281	-0.350628	0.096847
C85	C	1.007229	-0.899265	-0.385947
C86	C	1.507229	-0.399265	0.114053
C87	C	1.058866	-0.715553	-0.338960
C88	C	1.558866	-0.215553	0.161040
C89	C	1.058932	-1.029732	-0.338936
C90	C	1.558932	-0.529732	0.161064
C91	C	1.058812	-0.179323	-0.339098
C92	C	1.558812	0.320677	0.160902
C93	C	1.058949	-0.096770	-0.338932
C94	C	1.558949	0.403230	0.161068
C95	C	1.093656	-0.337429	-0.636920
C96	C	1.593656	0.162571	-0.136920
C97	C	1.090570	-0.340560	-0.710424
C98	C	1.590570	0.159440	-0.210424
C99	C	1.041502	-0.389569	-0.747174
C100	C	1.541502	0.110431	-0.247174
C101	C	0.995522	-0.435456	-0.710415
C102	C	1.495522	0.064544	-0.210415
C103	C	0.998612	-0.432328	-0.636911
C104	C	1.498612	0.067672	-0.136911
C105	C	1.027167	-0.404014	-0.967005
C106	C	1.527167	0.095986	-0.467005
C107	C	1.024078	-0.407137	-1.040514
C108	C	1.524078	0.092863	-0.540514
C109	C	1.119128	-0.312241	-1.040518
C110	C	1.619128	0.187759	-0.540518
C111	C	1.122211	-0.309115	-0.967014
C112	C	1.622211	0.190885	-0.467014
C113	C	1.076234	-0.355004	-0.930261
C114	C	1.576234	0.144996	-0.430261
N115	N	1.038344	-0.392769	-0.822307
N116	N	1.538344	0.107231	-0.322307
N117	N	1.079395	-0.351808	-0.855129
N118	N	1.579395	0.148192	-0.355129
C119	C	1.066694	-0.364548	-0.155497
C120	C	1.566694	0.135452	0.344503
C121	C	1.070056	-0.361255	-0.077268
C122	C	1.570056	0.138745	0.422732
H123	H	0.511354	-0.248503	-0.370692
H124	H	1.011354	0.251497	0.129308
H125	H	0.989729	-0.441378	-0.937087
H126	H	1.489729	0.058622	-0.437087
O127	O	1.091543	-0.824848	-0.475049
O128	O	1.591543	-0.324848	0.024951
H129	H	1.147229	-0.845190	-0.489201
H130	H	1.647229	-0.345190	0.010799
O131	O	0.942587	-0.488310	-0.750046
O132	O	1.442587	0.011690	-0.250046
H133	H	0.948153	-0.482769	-0.807333
H134	H	1.448153	0.017231	-0.307333
O135	O	0.614332	-0.514390	-0.302743
O136	O	1.114332	-0.014390	0.197257
H137	H	0.592099	-0.557256	-0.341290
H138	H	1.092099	-0.057256	0.158710
H139	H	0.600397	-0.343464	-0.457601
H140	H	1.100397	0.156536	0.042399
O141	O	0.501768	-0.481507	-0.438990
O142	O	1.001768	0.018493	0.061010
H143	H	0.519373	-0.468426	-0.492193
H144	H	1.019373	0.031574	0.007807
O145	O	0.511547	-0.405242	-0.203012
O146	O	1.011547	0.094758	0.296988
H147	H	0.532821	-0.460490	-0.188459
H148	H	1.032821	0.039510	0.311541
O149	O	1.026285	-0.920401	-0.202789
O150	O	1.526285	-0.420401	0.297211
H151	H	1.025927	-0.981918	-0.203576
H152	H	1.525927	-0.481918	0.296424
H153	H	1.154140	-0.822676	-0.252154
H154	H	1.654140	-0.322676	0.247846
H155	H	1.182591	-0.920387	-0.370680
H156	H	1.682591	-0.420387	0.129320
H157	H	1.133610	-0.297517	-0.607003
H158	H	1.633610	0.202483	-0.107003
O159	O	1.140156	-0.291069	-0.750069
O160	O	1.640156	0.208931	-0.250069
H161	H	1.174787	-0.256457	-0.712166
H162	H	1.674787	0.243543	-0.212166
H163	H	0.935160	-0.824997	-0.307087
H164	H	1.435160	-0.324997	0.192913
H165	H	0.963520	-0.922451	-0.425701
H166	H	1.463520	-0.422451	0.074299
H167	H	1.162166	-0.269207	-0.937094
H168	H	1.662166	0.230793	-0.437094
O169	O	1.168738	-0.262769	-1.080157
O170	O	1.668738	0.237231	-0.580157
H171	H	1.158358	-0.273185	-1.137442
H172	H	1.658358	0.226815	-0.637442
O173	O	0.971158	-0.460005	-1.080156
O174	O	1.471158	0.039995	-0.580156
H175	H	0.939711	-0.491396	-1.042251
H176	H	1.439711	0.008604	-0.542251
O177	O	0.949014	-0.481805	-0.597264
O178	O	1.449014	0.018195	-0.097264
H179	H	0.914366	-0.516403	-0.635165
H180	H	1.414366	-0.016403	-0.135165
H181	H	0.609190	-0.277159	-0.252244
H182	H	1.109190	0.222841	0.247756
