data_functionalizedCrystal
_audit_creation_method	'MofGen! by Chris Wilmer'
_symmetry_space_group_name_H-M	'P1'
_symmetry_Int_Tables_number	1
_symmetry_cell_setting	triclinic
loop_
_symmetry_equiv_pos_as_xyz
  x,y,z
_cell_length_a	19.077399
_cell_length_b	12.645330
_cell_length_c	19.076919
_cell_angle_alpha	87.723750
_cell_angle_beta	85.520477
_cell_angle_gamma	92.317012
loop_
_atom_site_label
_atom_site_type_symbol
_atom_site_fract_x
_atom_site_fract_y
_atom_site_fract_z
Zn1	Zn	1.061705	-0.379331	0.355413
Zn2	Zn	1.066373	-0.549195	0.237541
Zn3	Zn	0.948560	-0.379360	0.242267
Zn4	Zn	0.943803	-0.563971	0.360110
O5	O	1.005110	-0.467964	0.298833
O6	O	1.160972	-0.395668	0.335833
O7	O	1.054690	-0.520494	0.139520
O8	O	0.963607	-0.231008	0.257288
O9	O	1.164402	-0.520466	0.249233
O10	O	1.046734	-0.230986	0.340416
O11	O	0.968133	-0.395717	0.142993
O12	O	0.849281	-0.410045	0.261843
O13	O	0.955498	-0.545650	0.458134
O14	O	0.845786	-0.545678	0.348422
O15	O	1.042121	-0.409996	0.454683
O16	O	1.050076	-0.699504	0.253788
O17	O	0.960025	-0.710360	0.343839
C18	C	0.821955	-0.479469	0.306155
C19	C	0.743600	-0.484417	0.309305
C20	C	0.708585	-0.416027	0.265781
C21	C	0.634962	-0.420686	0.268740
C22	C	0.596355	-0.493730	0.315227
C23	C	0.631376	-0.562127	0.358752
C24	C	0.704998	-0.557473	0.355789
C25	C	0.375977	-0.515237	0.328911
C26	C	0.302350	-0.519884	0.331872
C27	C	0.305942	-0.378444	0.241860
C28	C	0.379564	-0.373792	0.238904
C29	C	0.414579	-0.442193	0.282426
N30	N	0.521101	-0.498491	0.318254
N31	N	0.489832	-0.437436	0.279395
C32	C	1.005059	-0.743397	0.298825
C33	C	1.005101	-0.861225	0.298842
C34	C	0.948667	-1.035659	0.355653
C35	C	0.948397	-0.913106	0.355488
C36	C	0.987980	-0.902403	0.225355
C37	C	0.987636	-1.025043	0.225700
C38	C	1.079012	-1.024816	0.314904
C39	C	1.078489	-0.902340	0.316546
C40	C	1.188980	-0.456416	0.291482
C41	C	1.267335	-0.451494	0.288349
C42	C	0.997758	-0.479468	0.482702
C43	C	0.994625	-0.484370	0.561056
C44	C	1.005180	-0.191456	0.298855
C45	C	1.005210	-0.073625	0.298865
C46	C	1.012474	-0.456426	0.115677
C47	C	1.015744	-0.451217	0.037317
C48	C	1.038251	-0.416049	0.596072
C49	C	1.035298	-0.420651	0.669694
C50	C	0.988723	-0.493581	0.708300
C51	C	0.945093	-0.561906	0.673280
C52	C	0.948042	-0.557297	0.599659
C53	C	0.975063	-0.514933	0.928676
C54	C	0.972119	-0.519539	1.002302
C55	C	1.062323	-0.378282	0.998712
C56	C	1.065271	-0.373684	0.925089
C57	C	1.021639	-0.442005	0.890075
N58	N	0.985706	-0.498290	0.783554
N59	N	1.024653	-0.437290	0.814823
H60	H	0.270918	-0.579365	0.369732
Br61	Br	0.578983	-0.661278	0.421828
H62	H	0.958762	-0.885632	0.410071
Br63	Br	0.881879	-0.660878	0.725672
Br64	Br	1.121534	-0.285565	1.046234
H65	H	0.934190	-0.578930	1.033733
Br66	Br	0.752520	-0.650298	0.414854
H67	H	0.939545	-0.570579	0.900176
H68	H	0.606456	-0.365002	0.233295
Br69	Br	1.053560	-1.066089	0.153038
Br70	Br	1.094540	-0.327972	0.717211
Br71	Br	1.128485	-0.274708	0.872701
H72	H	1.121101	-1.048749	0.273506
Br73	Br	1.054664	-0.845399	0.153121
Br74	Br	0.965733	-1.089181	0.446942
H75	H	0.912511	-0.612922	0.571150
Br76	Br	1.152007	-0.842901	0.252239
Br77	Br	0.857102	-0.868844	0.338176
Br78	Br	0.431954	-0.274644	0.175822
Br79	Br	0.760972	-0.316885	0.202694
Br80	Br	0.258419	-0.285621	0.182796
H81	H	0.894232	-1.069233	0.345410
H82	H	0.934699	-0.874152	0.211107
Br83	Br	1.101468	-0.317075	0.543685
H84	H	1.095214	-1.057862	0.367422
Br85	Br	0.897865	-1.076894	0.202475
Br86	Br	0.423487	-0.608067	0.387978
H87	H	1.091455	-0.875681	0.370614
