data_functionalizedCrystal
_audit_creation_method	'MofGen! by Chris Wilmer'
_symmetry_space_group_name_H-M	'P1'
_symmetry_Int_Tables_number	1
_symmetry_cell_setting	triclinic
loop_
_symmetry_equiv_pos_as_xyz
  x,y,z
_cell_length_a	13.897448
_cell_length_b	10.685980
_cell_length_c	10.686551
_cell_angle_alpha	81.591741
_cell_angle_beta	85.592616
_cell_angle_gamma	94.384308
loop_
_atom_site_label
_atom_site_type_symbol
_atom_site_fract_x
_atom_site_fract_y
_atom_site_fract_z
Zn1	Zn	-0.216203	1.995774	-0.866694
Zn2	Zn	-0.390948	1.979340	-0.654423
Zn3	Zn	-0.243050	1.767199	-0.638157
Zn4	Zn	-0.390854	1.783463	-0.850333
O5	O	-0.310264	1.881444	-0.752402
O6	O	-0.228187	2.171228	-0.852190
O7	O	-0.382604	1.937514	-0.474633
O8	O	-0.104500	1.797591	-0.668513
O9	O	-0.356571	2.159154	-0.696235
O10	O	-0.084776	1.965524	-0.836418
O11	O	-0.273944	1.781655	-0.462683
O12	O	-0.273853	1.591722	-0.652649
O13	O	-0.356412	1.825311	-1.030136
O14	O	-0.382444	1.603672	-0.808533
O15	O	-0.228096	1.981295	-1.042156
O16	O	-0.525924	1.953285	-0.680371
O17	O	-0.525855	1.809376	-0.824305
C18	C	-0.331052	1.551638	-0.727051
C19	C	-0.339967	1.410548	-0.716236
C20	C	-0.560886	1.881348	-0.752358
C21	C	-0.668094	1.881427	-0.752391
C22	C	-0.864375	1.881566	-0.752481
C23	C	-0.755150	1.881486	-0.752434
C24	C	-0.058659	1.881576	-0.752476
C25	C	0.048560	1.881633	-0.752508
C26	C	-0.289249	1.906950	-1.083492
C27	C	-0.280293	1.917820	-1.224583
C28	C	-0.289395	2.212537	-0.777852
C29	C	-0.280502	2.353630	-0.788698
C30	C	-0.331123	1.856110	-0.422605
C31	C	-0.339791	1.845486	-0.281534
H32	H	-0.397701	1.351334	-0.645915
C33	C	-0.110723	1.399520	-0.854024
C34	C	-0.202562	1.433550	-0.883624
H35	H	-0.062608	1.448872	-0.912626
H36	H	-0.106699	1.312021	-0.858969
H37	H	-0.100575	1.414610	-0.770408
H38	H	-0.212713	1.418451	-0.967238
H39	H	-0.206589	1.521070	-0.878692
H40	H	-0.397583	1.775247	-1.222354
H41	H	-0.222503	1.988073	-1.283771
