data_functionalizedCrystal
_audit_creation_method	'MofGen! by Chris Wilmer'
_symmetry_space_group_name_H-M	'P1'
_symmetry_Int_Tables_number	1
_symmetry_cell_setting	triclinic
loop_
_symmetry_equiv_pos_as_xyz
  x,y,z
_cell_length_a	16.625546
_cell_length_b	16.120566
_cell_length_c	16.625539
_cell_angle_alpha	92.920705
_cell_angle_beta	89.969603
_cell_angle_gamma	92.881503
loop_
_atom_site_label
_atom_site_type_symbol
_atom_site_fract_x
_atom_site_fract_y
_atom_site_fract_z
Zn1	Zn	-0.383577	-1.274562	-0.518393
Zn2	Zn	-0.518415	-1.274462	-0.383551
Zn3	Zn	-0.376760	-1.135142	-0.376738
Zn4	Zn	-0.511525	-1.135112	-0.511508
O5	O	-0.447569	-1.204819	-0.447547
O6	O	-0.407200	-1.391215	-0.506239
O7	O	-0.499655	-1.255952	-0.269813
O8	O	-0.264835	-1.153691	-0.395559
O9	O	-0.506265	-1.391141	-0.407171
O10	O	-0.269843	-1.256122	-0.499633
O11	O	-0.395582	-1.153594	-0.264807
O12	O	-0.388901	-1.018472	-0.388882
O13	O	-0.494522	-1.153639	-0.625255
O14	O	-0.487912	-1.018450	-0.487897
O15	O	-0.400519	-1.256093	-0.630314
O16	O	-0.630331	-1.255922	-0.400494
O17	O	-0.625269	-1.153542	-0.494504
C18	C	-0.436919	-0.988211	-0.436904
C19	C	-0.432382	-0.895545	-0.432370
C20	C	-0.657056	-1.204741	-0.447510
C21	C	-0.746680	-1.204783	-0.447524
C22	C	-0.424081	-0.725883	-0.424098
C23	C	-0.471128	-0.684596	-0.471003
C24	C	-0.466509	-0.590191	-0.466401
C25	C	-0.428699	-0.820297	-0.428699
C26	C	-1.074862	-1.204929	-0.447615
C27	C	-0.983552	-1.204885	-0.447592
C28	C	-0.910774	-1.204855	-0.447569
C29	C	-0.819458	-1.204813	-0.447547
C30	C	-0.237266	-1.204921	-0.447604
C31	C	-0.147647	-1.204965	-0.447628
C32	C	-0.447512	-1.204874	-0.657859
C33	C	-0.447488	-1.204897	-0.747481
C34	C	-0.458264	-0.422274	-0.458220
C35	C	-0.462828	-0.514940	-0.462734
C36	C	-0.447399	-1.204935	-1.075659
C37	C	-0.447426	-1.204922	-0.984350
C38	C	-0.447444	-1.204916	-0.911573
C39	C	-0.447470	-1.204903	-0.820258
C40	C	-0.447571	-1.204813	-0.238056
C41	C	-0.447376	-1.204952	-0.148442
H42	H	-0.514874	-0.720151	-0.514616
H43	H	-0.380337	-0.690331	-0.380489
