data_functionalizedCrystal
_audit_creation_method	'MofGen! by Chris Wilmer'
_symmetry_space_group_name_H-M	'P1'
_symmetry_Int_Tables_number	1
_symmetry_cell_setting	triclinic
loop_
_symmetry_equiv_pos_as_xyz
  x,y,z
_cell_length_a	14.560432
_cell_length_b	23.196402
_cell_length_c	23.196402
_cell_angle_alpha	90.003744
_cell_angle_beta	59.999111
_cell_angle_gamma	60.004778
loop_
_atom_site_label
_atom_site_type_symbol
_atom_site_fract_x
_atom_site_fract_y
_atom_site_fract_z
Zr1	Zr	1.005287	-0.075658	0.555354
O2	O	1.196883	-0.167702	0.463296
O3	O	0.813687	-0.047443	0.583575
O4	O	1.005285	-0.167709	0.583564
O5	O	1.005288	0.047434	0.463314
O6	O	1.005288	-0.167712	0.678434
O7	O	1.005285	-0.047436	0.463306
O8	O	0.662554	0.047421	0.678453
O9	O	1.348021	-0.167700	0.463295
O10	O	0.892498	-0.035410	0.666411
O11	O	0.892498	0.035393	0.595617
O12	O	1.118080	-0.106205	0.595604
O13	O	1.118080	-0.035402	0.524810
Zr14	Zr	1.005294	0.075644	0.706673
Zr15	Zr	1.005290	-0.075663	0.706661
Zr16	Zr	1.005290	0.075649	0.555367
Zr17	Zr	1.246334	-0.075654	0.555354
Zr18	Zr	0.764247	0.075640	0.706674
O19	O	1.196894	0.047429	0.678452
O20	O	1.196888	-0.167709	0.678434
O21	O	1.196888	0.047437	0.463314
O22	O	0.813698	0.167688	0.798732
O23	O	0.813693	-0.047451	0.798713
O24	O	0.813693	0.167695	0.583593
O25	O	1.005293	-0.047448	0.798713
O26	O	1.005296	0.167695	0.678463
O27	O	1.005293	0.167698	0.583593
O28	O	1.005296	0.047422	0.798721
O29	O	1.348024	-0.167704	0.583564
O30	O	0.662557	0.167690	0.678463
O31	O	0.662560	0.167685	0.798732
O32	O	0.662557	0.047417	0.798722
O33	O	1.348024	-0.047431	0.463306
O34	O	1.348027	-0.047435	0.583574
O35	O	0.892501	0.106191	0.666423
O36	O	0.892501	0.035388	0.737217
O37	O	1.118083	-0.035407	0.666411
O38	O	1.118083	0.035396	0.595616
C39	C	0.703777	-0.000012	0.631014
C40	C	0.601446	-0.000013	0.631014
C41	C	1.005286	-0.000001	0.441752
C42	C	1.005284	0.000002	0.377519
C43	C	1.005295	0.189254	0.631030
C44	C	1.005297	0.253488	0.631035
C45	C	0.601439	-0.073939	0.704917
C46	C	0.553365	-0.110903	0.741865
C47	C	0.457216	-0.110901	0.741863
C48	C	0.409136	-0.073930	0.704911
C49	C	0.457210	-0.036966	0.667963
C50	C	0.553365	-0.036974	0.667967
C51	C	0.457210	0.036963	0.594065
C52	C	0.553366	0.036958	0.594062
C53	C	0.409130	0.073934	0.557113
C54	C	0.457211	0.110894	0.520160
C55	C	0.553367	0.110891	0.520162
C56	C	0.601440	0.073922	0.557114
C57	C	1.306804	-0.000003	0.631013
C58	C	1.409135	-0.000001	0.631013
C59	C	1.005286	-0.189269	0.630998
C60	C	1.005284	-0.253502	0.630992
C61	C	1.123044	0.246709	0.594078
C62	C	1.123046	0.307063	0.594067
C63	C	1.005293	0.374196	0.631028
C64	C	0.887530	0.380973	0.667987
C65	C	0.887532	0.320619	0.667991
C66	C	0.915080	0.498130	0.692930
C67	C	0.915083	0.558482	0.692928
C68	C	1.005284	0.560350	0.631016
C69	C	1.095503	0.501853	0.569106
C70	C	1.095505	0.441499	0.569110
C71	C	1.005279	0.439644	0.631028
C72	C	1.123041	0.619012	0.594044
C73	C	1.123038	0.679369	0.594032
C74	C	0.887519	0.753278	0.667959
C75	C	0.887525	0.692921	0.667964
C76	C	1.005290	0.625791	0.631009
C77	C	0.887537	0.036949	0.384304
C78	C	0.887535	0.036952	0.323949
C79	C	1.005288	-0.000006	0.256810
C80	C	1.123051	-0.036955	0.250028
C81	C	1.123049	-0.036951	0.310382
C82	C	1.095501	-0.061915	0.132876
C83	C	1.095498	-0.061921	0.072524
C84	C	1.005297	-0.000017	0.070656
C85	C	0.915078	0.061892	0.129154
C86	C	0.915076	0.061896	0.189508
C87	C	1.005302	-0.000014	0.191362
C88	C	0.887540	0.036937	0.012001
C89	C	0.887543	0.036942	-0.048356
C90	C	1.123062	-0.036972	-0.122278
C91	C	1.123056	-0.036970	-0.061921
C92	C	1.005291	-0.000018	0.005216
C93	C	1.005295	-0.000014	0.820275
C94	C	1.005297	-0.000016	0.884509
C95	C	0.703781	-0.000018	0.820276
C96	C	0.601452	-0.000022	0.884509
C97	C	0.703781	0.189250	0.631030
C98	C	0.601452	0.253482	0.631036
C99	C	0.703786	0.189243	0.820292
C100	C	0.601458	0.253473	0.884531
C101	C	1.306795	-0.189258	0.441736
C102	C	1.409123	-0.253487	0.377497
C103	C	1.306800	0.000004	0.441752
C104	C	1.409129	0.000008	0.377518
C105	C	1.306800	-0.189264	0.630997
C106	C	1.409129	-0.253496	0.630992
C107	C	0.553395	-0.036986	0.877714
C108	C	0.457259	-0.037003	0.938063
C109	C	0.409175	-0.000053	1.005206
C110	C	0.457241	0.036912	1.012000
C111	C	0.553382	0.036925	0.951652
C112	C	0.553399	0.320608	0.667998
C113	C	0.457263	0.380967	0.668001
C114	C	0.409175	0.374198	0.631045
C115	C	0.457238	0.307064	0.594077
C116	C	0.553379	0.246707	0.594071
C117	C	0.553404	0.246678	0.951658
C118	C	0.457269	0.307023	1.012024
C119	C	0.409184	0.374162	1.005260
C120	C	0.457248	0.380956	0.938125
C121	C	0.553387	0.320612	0.877761
C122	C	1.457189	-0.246692	0.310369
C123	C	1.553353	-0.307037	0.250004
C124	C	1.601443	-0.374177	0.256767
C125	C	1.553373	-0.380971	0.323902
C126	C	1.457217	-0.320626	0.384266
C127	C	1.457196	0.036965	0.384313
C128	C	1.553359	0.036966	0.323965
C129	C	1.601446	0.000013	0.256821
C130	C	1.553375	-0.036949	0.250027
C131	C	1.457221	-0.036953	0.310375
C132	C	1.457186	-0.246704	0.667955
C133	C	1.553323	-0.307052	0.667964
C134	C	1.601407	-0.374190	0.631004
C135	C	1.553341	-0.380980	0.594039
C136	C	1.457199	-0.320634	0.594035
H137	H	0.679741	-0.073951	0.704915
H138	H	0.592541	0.326133	0.698093
H139	H	0.418083	0.435630	0.932628
H140	H	1.218939	-0.067062	-0.067449
C141	C	1.606207	0.077634	0.331451
H142	H	1.563774	0.099650	0.380083
H143	H	1.696978	0.045744	0.309451
H144	H	1.590443	0.112610	0.309445
C145	C	0.606238	0.077588	0.959132
H146	H	0.670392	0.072303	0.913578
H147	H	0.537205	0.126205	0.984219
H148	H	0.643751	0.059327	0.984207
C149	C	0.815626	0.622893	0.760975
H150	H	0.828485	0.659123	0.752094
H151	H	0.730249	0.639737	0.775860
H152	H	0.826740	0.609576	0.796937
H153	H	0.418077	0.066996	1.066676
H154	H	0.418071	0.301563	0.563988
H155	H	0.330890	-0.000068	1.054339
C156	C	1.194723	0.377161	0.501012
H157	H	1.248440	0.386915	0.464135
H158	H	1.246894	0.337245	0.508853
H159	H	1.150033	0.367641	0.488029
C160	C	0.815858	0.129992	0.253847
H161	H	0.762140	0.166863	0.244094
H162	H	0.763686	0.122151	0.293769
H163	H	0.860547	0.142980	0.263361
C164	C	1.404339	-0.077599	0.302896
H165	H	1.340188	-0.072317	0.348449
H166	H	1.366845	-0.059343	0.277814
H167	H	1.473369	-0.126223	0.277814
C168	C	1.404339	-0.328110	0.458103
H169	H	1.446748	-0.376740	0.453479
H170	H	1.420081	-0.306105	0.483200
H171	H	1.313563	-0.306113	0.483177
H172	H	0.330901	0.423293	1.054418
C173	C	1.606317	-0.454832	0.553336
H174	H	1.563950	-0.450242	0.531307
H175	H	1.697088	-0.479865	0.518376
H176	H	1.590599	-0.479948	0.585206
H177	H	1.592543	-0.067035	0.195351
H178	H	1.418050	0.067061	0.438979
H179	H	0.841614	0.496621	0.743348
H180	H	1.168953	0.503370	0.518691
H181	H	1.679741	0.000023	0.207688
H182	H	1.679739	-0.423307	0.207610
H183	H	1.418051	-0.192043	0.698052
H184	H	1.679692	-0.423322	0.631013
C185	C	0.606220	0.172871	0.553417
H186	H	0.670371	0.137888	0.558699
H187	H	0.537179	0.167588	0.571672
H188	H	0.643732	0.167581	0.504792
C189	C	1.252577	-0.077601	0.302918
H190	H	1.322710	-0.099615	0.254289
H191	H	1.257474	-0.045702	0.324928
H192	H	1.257466	-0.112577	0.324923
H193	H	0.791647	0.067039	0.329474
C194	C	0.758004	0.328076	0.708648
H195	H	0.687871	0.376700	0.730662
H196	H	0.753112	0.306060	0.676751
H197	H	0.753110	0.306074	0.743628
H198	H	0.592517	-0.141003	0.771953
H199	H	0.418142	0.435624	0.698107
H200	H	1.592541	-0.435643	0.329401
H201	H	1.592449	-0.301509	0.698064
C202	C	0.606284	0.172832	0.959113
H203	H	0.563895	0.177438	1.007741
H204	H	0.590521	0.147750	0.937108
H205	H	0.697065	0.147756	0.937100
H206	H	0.679736	0.073912	0.557116
H207	H	0.418146	0.301478	1.066682
H208	H	1.218933	0.564351	0.563949
H209	H	1.418082	-0.326173	0.563932
H210	H	0.841607	0.112295	0.127644
H211	H	0.330834	-0.073925	0.704920
C212	C	0.404333	-0.151561	0.782504
H213	H	0.446738	-0.173583	0.804509
H214	H	0.313558	-0.119665	0.817478
H215	H	0.420102	-0.186531	0.750590
H216	H	0.791655	0.435636	0.698079
H217	H	0.592501	0.326155	0.823105
H218	H	1.218926	0.673843	0.563933
C219	C	0.757993	0.827116	0.708591
H220	H	0.774854	0.862091	0.703292
H221	H	0.709641	0.832385	0.690326
H222	H	0.709580	0.832432	0.757222
C223	C	0.303349	0.073950	0.557120
H224	H	0.281590	0.101270	0.529830
H225	H	0.334843	0.026871	0.537327
H226	H	0.228335	0.093739	0.604214
C227	C	0.404325	0.151556	0.479517
H228	H	0.340178	0.146262	0.484807
H229	H	0.366824	0.200175	0.497772
H230	H	0.473352	0.133303	0.430889
H231	H	1.418039	-0.192029	0.304848
C232	C	0.303414	0.440595	0.631062
H233	H	0.281680	0.481540	0.658376
H234	H	0.334915	0.440610	0.583979
H235	H	0.228383	0.440603	0.650858
C236	C	0.758001	0.077602	0.458149
H237	H	0.687874	0.099612	0.453543
H238	H	0.753102	0.045706	0.483233
H239	H	0.753104	0.112582	0.483228
C240	C	1.252580	0.172870	0.553421
H241	H	1.322707	0.177481	0.531403
H242	H	1.257481	0.147791	0.585319
H243	H	1.257475	0.147789	0.518444
C244	C	1.606201	-0.299551	0.176165
H245	H	1.563767	-0.250922	0.180787
H246	H	1.696973	-0.321544	0.151078
H247	H	1.590440	-0.321560	0.151081
H248	H	1.218934	0.301544	0.563969
C249	C	0.758001	0.700377	0.708629
H250	H	0.687870	0.749002	0.730646
H251	H	0.753099	0.678364	0.676735
H252	H	0.753116	0.678373	0.743606
H253	H	0.592502	0.140992	0.490076
H254	H	0.791655	0.067033	-0.042825
C255	C	0.758007	0.077595	0.085851
H256	H	0.687878	0.099611	0.081247
H257	H	0.753098	0.045702	0.110937
H258	H	0.753124	0.112570	0.110927
H259	H	1.168956	-0.112331	0.024900
C260	C	1.194729	-0.130011	0.134925
H261	H	1.181818	-0.121141	0.179244
H262	H	1.183376	-0.165867	0.128599
H263	H	1.280218	-0.145025	0.098201
C264	C	1.252579	-0.077607	0.176180
H265	H	1.322708	-0.099607	0.180784
H266	H	1.257481	-0.112583	0.151096
H267	H	1.257468	-0.045702	0.151102
C268	C	0.404390	-0.077658	0.930577
H269	H	0.446784	-0.099649	0.881945
H270	H	0.420153	-0.112641	0.952570
H271	H	0.313610	-0.045756	0.952588
C272	C	0.606277	-0.077639	0.803864
H273	H	0.563888	-0.099660	0.808471
H274	H	0.590518	-0.045744	0.778782
H275	H	0.697057	-0.112611	0.778785
H276	H	1.218939	-0.067065	-0.176943
