data_functionalizedCrystal
_audit_creation_method	'MofGen! by Chris Wilmer'
_symmetry_space_group_name_H-M	'P1'
_symmetry_Int_Tables_number	1
_symmetry_cell_setting	triclinic
loop_
_symmetry_equiv_pos_as_xyz
  x,y,z
_cell_length_a	20.875641
_cell_length_b	15.698487
_cell_length_c	20.875641
_cell_angle_alpha	62.441623
_cell_angle_beta	90.154292
_cell_angle_gamma	57.588940
loop_
_atom_site_label
_atom_site_type_symbol
_atom_site_fract_x
_atom_site_fract_y
_atom_site_fract_z
Zr1	Zr	0.643699	0.863969	-0.058410
O2	O	0.541274	1.041681	-0.160827
O3	O	0.675098	0.686258	-0.027016
O4	O	0.680005	0.850927	-0.155922
O5	O	0.532496	0.887299	0.069766
O6	O	0.789438	0.840639	-0.152051
O7	O	0.536367	0.877012	-0.031921
O8	O	0.780660	0.546076	0.078540
O9	O	0.541274	1.181862	-0.160825
O10	O	0.770157	0.751675	-0.010734
O11	O	0.685600	0.767031	0.062264
O12	O	0.691377	0.960907	-0.089508
O13	O	0.606820	0.976263	-0.016510
Zr14	Zr	0.812058	0.863969	0.109942
Zr15	Zr	0.818232	0.847561	-0.052235
Zr16	Zr	0.637525	0.880377	0.103768
Zr17	Zr	0.643698	1.087543	-0.058406
Zr18	Zr	0.812059	0.640395	0.109939
O19	O	0.780659	1.041680	0.078548
O20	O	0.789437	1.018350	-0.152048
O21	O	0.532496	1.065010	0.069769
O22	O	0.914483	0.686257	0.212360
O23	O	0.923261	0.662927	-0.018236
O24	O	0.666319	0.709588	0.203580
O25	O	0.923261	0.840638	-0.018233
O26	O	0.775752	0.877011	0.207455
O27	O	0.666319	0.887299	0.203583
O28	O	0.919390	0.850926	0.083453
O29	O	0.680004	1.168820	-0.155917
O30	O	0.775753	0.559118	0.207449
O31	O	0.914483	0.546076	0.212357
O32	O	0.919391	0.533034	0.083448
O33	O	0.536366	1.194904	-0.031915
O34	O	0.675097	1.181862	-0.027007
O35	O	0.764380	0.767031	0.141040
O36	O	0.848937	0.751675	0.068042
O37	O	0.770157	0.960907	-0.010731
O38	O	0.685600	0.976263	0.062267
C39	C	0.509564	0.884493	0.018043
C40	C	0.435470	0.891459	0.015421
C41	C	0.727879	0.584313	0.025762
C42	C	0.727879	0.489400	0.025760
C43	C	0.441781	0.785517	0.055305
C44	C	0.372159	0.792070	0.052840
C45	C	0.296228	0.904565	0.010487
C46	C	0.289918	1.010515	-0.029397
C47	C	0.359539	1.003962	-0.026928
C48	C	0.083598	0.935876	-0.001304
C49	C	0.013976	0.942421	-0.003772
C50	C	0.096222	0.723975	0.078467
C51	C	0.165840	0.717431	0.080929
C52	C	0.159525	0.823381	0.041048
N53	N	0.225062	0.911265	0.007965
N54	N	0.230690	0.816681	0.043575
C55	C	0.727877	0.315619	0.025773
C56	C	0.727876	0.412323	0.025768
C57	C	0.946193	0.843444	0.033490
C58	C	1.020287	0.836479	0.036111
C59	C	0.735601	0.843445	-0.177093
C60	C	0.738222	0.836480	-0.245942
C61	C	0.727878	1.143625	0.025771
C62	C	0.727878	1.238538	0.025772
C63	C	0.698332	0.942422	-0.319406
C64	C	0.700805	0.935869	-0.384094
C65	C	0.743164	0.823374	-0.375316
C66	C	0.783058	0.717424	-0.301844
C67	C	0.780590	0.723977	-0.237158
C68	C	0.754961	0.792062	-0.564368
C69	C	0.757425	0.785516	-0.629062
C70	C	0.675173	1.003962	-0.711307
C71	C	0.672704	1.010506	-0.646616
C72	C	0.712602	0.904556	-0.573150
N73	N	0.745690	0.816673	-0.441436
N74	N	0.710079	0.911257	-0.507031
C75	C	0.720156	0.884493	0.228626
C76	C	0.717535	0.891458	0.297474
C77	C	0.946193	0.563788	0.033485
C78	C	1.020287	0.461910	0.036105
C79	C	0.720157	0.604836	0.228621
C80	C	0.717536	0.516889	0.297468
C81	C	0.938471	0.584312	0.236345
C82	C	1.009944	0.489399	0.307813
C83	C	0.517286	1.143626	-0.184812
C84	C	0.445813	1.238539	-0.256281
C85	C	0.509564	1.164150	0.018047
C86	C	0.435470	1.266028	0.015428
C87	C	0.735600	1.123102	-0.177089
C88	C	0.738221	1.211049	-0.245936
C89	C	1.013961	0.414066	-0.003792
C90	C	1.083574	0.318352	-0.001346
C91	C	1.159512	0.270477	0.041002
C92	C	1.165838	0.318330	0.080900
C93	C	1.096225	0.414048	0.078449
C94	C	0.757427	0.475589	0.370927
C95	C	0.754961	0.392966	0.435622
C96	C	0.712609	0.351639	0.426857
C97	C	0.672712	0.392948	0.353391
C98	C	0.675174	0.475576	0.288697
C99	C	1.087654	0.436811	0.303271
C100	C	1.154817	0.347641	0.370418
C101	C	1.144269	0.311055	0.442105
C102	C	1.066551	0.363653	0.446645
C103	C	0.999389	0.452827	0.379499
C104	C	0.368103	1.291138	-0.251739
C105	C	0.300939	1.380336	-0.318885
C106	C	0.311488	1.416926	-0.390572
C107	C	0.389206	1.364323	-0.395112
C108	C	0.456368	1.275133	-0.327967
C109	C	0.441797	1.313881	0.055318
C110	C	0.372184	1.409618	0.052854
C111	C	0.296245	1.457495	0.010504
C112	C	0.289920	1.409638	-0.029392
C113	C	0.359532	1.313909	-0.026932
C114	C	0.780581	1.252349	-0.237146
C115	C	0.783059	1.334972	-0.301829
C116	C	0.743172	1.376300	-0.375300
C117	C	0.700811	1.334991	-0.384088
C118	C	0.698338	1.252363	-0.319406
H119	H	0.503605	0.693912	0.089796
H120	H	0.663840	1.218746	-0.326574
H121	H	1.216189	0.192536	0.042992
H122	H	0.813063	1.218713	-0.177328
H123	H	0.078446	1.022146	-0.033792
Cl124	Cl	0.625024	0.527479	0.196352
Cl125	Cl	1.100936	0.482792	0.213159
H126	H	0.256793	1.489551	-0.445240
H127	H	0.397785	1.394126	-0.453488
H128	H	0.817553	1.368598	-0.294658
Cl129	Cl	1.261310	0.258126	0.134138
H130	H	1.218093	0.304824	0.366708
H131	H	0.638213	1.102111	-0.653771
Cl132	Cl	0.351564	1.253755	-0.077079
Cl133	Cl	0.805124	0.341048	0.527971
Cl134	Cl	0.918503	0.474235	-0.057040
Cl135	Cl	0.194460	1.151939	-0.082636
H136	H	0.239569	1.535444	0.008507
H137	H	0.642690	1.090221	-0.771128
Cl138	Cl	0.194448	1.469836	-0.082625
Cl139	Cl	0.104154	0.590789	0.128604
H140	H	0.519641	1.232306	-0.331673
Cl141	Cl	0.645077	1.083852	-0.330450
Cl142	Cl	0.380098	0.658880	0.102990
Cl143	Cl	1.104193	0.474175	0.128617
H144	H	0.745192	1.443581	-0.427962
H145	H	0.791918	0.693905	-0.621906
Cl146	Cl	0.261295	0.576003	0.134174
H147	H	0.787449	0.705790	-0.504557
H148	H	0.710611	0.284359	0.479542
H149	H	0.503623	1.274907	0.089809
Cl150	Cl	0.650653	1.069060	-0.476448
Cl151	Cl	0.619474	0.340979	0.342385
Cl152	Cl	1.075604	0.258209	-0.051505
Cl153	Cl	0.650662	1.386970	-0.476458
H154	H	-0.047853	1.034032	-0.038264
H155	H	0.354395	1.090232	-0.059396
H156	H	0.791915	0.509228	0.378078
Cl157	Cl	0.901699	0.518921	0.385222
H158	H	1.198964	0.238442	0.496773
Cl159	Cl	1.053304	0.317644	0.536772
Cl160	Cl	0.354821	1.245158	-0.161627
H161	H	0.817552	0.625827	-0.294702
Cl162	Cl	0.203246	1.446443	-0.313160
H163	H	0.813072	0.637708	-0.177340
Cl164	Cl	0.380154	1.469756	0.103016
