data_functionalizedCrystal
_audit_creation_method	'MofGen! by Chris Wilmer'
_symmetry_space_group_name_H-M	'P1'
_symmetry_Int_Tables_number	1
_symmetry_cell_setting	triclinic
loop_
_symmetry_equiv_pos_as_xyz
  x,y,z
_cell_length_a	9.065218
_cell_length_b	9.065218
_cell_length_c	12.996460
_cell_angle_alpha	89.995720
_cell_angle_beta	89.994367
_cell_angle_gamma	85.015885
loop_
_atom_site_label
_atom_site_type_symbol
_atom_site_fract_x
_atom_site_fract_y
_atom_site_fract_z
O1	O	-1.960404	-0.216360	0.085565
O2	O	-1.460404	0.283640	0.585565
O3	O	-1.531119	-0.234106	0.085566
O4	O	-1.031119	0.265894	0.585566
O5	O	-1.754634	-0.010590	0.085563
O6	O	-1.254634	0.489410	0.585563
O7	O	-1.736888	-0.439875	0.085568
O8	O	-1.236888	0.060125	0.585568
O9	O	-1.754611	-0.010578	-0.085570
O10	O	-1.254611	0.489422	0.414430
O11	O	-1.531095	-0.234093	-0.085568
O12	O	-1.031095	0.265907	0.414432
O13	O	-1.960380	-0.216347	-0.085569
O14	O	-1.460380	0.283653	0.414431
Cu15	Cu	-1.745735	-0.225219	-0.101194
Cu16	Cu	-1.245735	0.274781	0.398806
Cu17	Cu	-1.745763	-0.225234	0.101191
Cu18	Cu	-1.245763	0.274766	0.601191
O19	O	-1.736864	-0.439862	-0.085566
O20	O	-1.236864	0.060138	0.414434
C21	C	-1.476120	-0.232394	-0.000001
C22	C	-0.976120	0.267606	0.499999
C23	C	-1.312277	-0.227294	-0.000000
C24	C	-0.812277	0.272706	0.500000
C25	C	-1.752917	0.044403	-0.000002
C26	C	-1.252917	0.544403	0.499998
C27	C	-1.747817	0.208245	0.000003
C28	C	-1.247817	0.708245	0.500003
C29	C	-2.015378	-0.218059	0.000000
C30	C	-1.515378	0.281941	0.500000
C31	C	-2.179221	-0.223158	0.000006
C32	C	-1.679221	0.276842	0.500006
N33	N	-1.745726	-0.225207	-0.243541
N34	N	-1.245726	0.274793	0.256459
C35	C	-1.738582	-0.494855	0.000001
C36	C	-1.238582	0.005145	0.500001
C37	C	-1.743681	-0.658698	0.000003
C38	C	-1.243681	-0.158698	0.500003
C39	C	-1.745761	-0.225236	-0.663356
C40	C	-1.245761	0.274764	-0.163356
C41	C	-1.745747	-0.225233	-0.546551
C42	C	-1.245747	0.274767	-0.046551
C43	C	-1.745745	-0.225223	-0.453452
C44	C	-1.245745	0.274777	0.046548
C45	C	-1.745729	-0.225217	-0.336640
C46	C	-1.245729	0.274783	0.163360
N47	N	-1.745784	-0.225234	0.243538
N48	N	-1.245784	0.274766	0.743538
