data_functionalizedCrystal
_audit_creation_method	'MofGen! by Chris Wilmer'
_symmetry_space_group_name_H-M	'P1'
_symmetry_Int_Tables_number	1
_symmetry_cell_setting	triclinic
loop_
_symmetry_equiv_pos_as_xyz
  x,y,z
_cell_length_a	10.654550
_cell_length_b	9.130313
_cell_length_c	10.654550
_cell_angle_alpha	89.998874
_cell_angle_beta	95.515069
_cell_angle_gamma	89.997013
loop_
_atom_site_label
_atom_site_type_symbol
_atom_site_fract_x
_atom_site_fract_y
_atom_site_fract_z
O1	O	1.667834	0.121690	-0.176393
O2	O	2.167834	0.621690	0.323607
O3	O	1.302356	0.121716	-0.193199
O4	O	1.802356	0.621716	0.306801
O5	O	1.493498	0.121693	-0.002057
O6	O	1.993498	0.621693	0.497943
O7	O	1.476692	0.121713	-0.367536
O8	O	1.976692	0.621713	0.132464
O9	O	1.493495	-0.121906	-0.002062
O10	O	1.993495	0.378094	0.497938
O11	O	1.302353	-0.121882	-0.193205
O12	O	1.802353	0.378118	0.306795
O13	O	1.667832	-0.121909	-0.176399
O14	O	2.167832	0.378091	0.323601
Cu15	Cu	1.485092	-0.144138	-0.184802
Cu16	Cu	1.985092	0.355862	0.315198
Cu17	Cu	1.485095	0.143946	-0.184796
Cu18	Cu	1.985095	0.643946	0.315204
O19	O	1.476689	-0.121886	-0.367541
O20	O	1.976689	0.378114	0.132459
C21	C	1.255556	-0.000080	-0.191968
C22	C	1.755556	0.499920	0.308032
C23	C	1.116113	-0.000070	-0.188276
C24	C	1.616113	0.499930	0.311724
N25	N	1.485099	-0.346761	-0.184806
N26	N	1.985099	0.153239	0.315194
C27	C	1.036628	-0.000068	-0.300818
C28	C	1.536628	0.499932	0.199182
C29	C	0.905607	-0.000093	-0.297341
C30	C	1.405607	0.499907	0.202659
C31	C	0.933570	-0.000117	-0.068772
C32	C	1.433570	0.499883	0.431228
C33	C	1.064588	-0.000101	-0.072250
C34	C	1.564588	0.499899	0.427750
C35	C	1.569759	-0.423423	-0.100197
C36	C	2.069759	0.076577	0.399803
C37	C	1.569756	-0.576760	-0.100182
C38	C	2.069756	-0.076760	0.399818
C39	C	1.400429	-0.576759	-0.269395
C40	C	1.900429	-0.076759	0.230605
C41	C	1.400427	-0.423425	-0.269403
C42	C	1.900427	0.076575	0.230597
C43	C	1.654431	-0.346759	-0.015599
C44	C	2.154431	0.153241	0.484401
C45	C	1.739099	-0.423422	0.069016
C46	C	2.239099	0.076578	0.569016
C47	C	1.739095	-0.576759	0.069031
C48	C	2.239095	-0.076759	0.569031
C49	C	1.654424	-0.653433	-0.015569
C50	C	2.154424	-0.153433	0.484431
C51	C	1.714631	-0.000110	-0.177630
C52	C	2.214631	0.499890	0.322370
C53	C	1.854074	-0.000110	-0.181322
C54	C	2.354074	0.499890	0.318678
C55	C	1.492263	-0.000105	0.044738
C56	C	1.992263	0.499895	0.544738
C57	C	1.488571	-0.000103	0.184181
C58	C	1.988571	0.499897	0.684181
N59	N	1.485098	0.346568	-0.184783
N60	N	1.985098	0.846568	0.315217
C61	C	1.477925	-0.000084	-0.414336
C62	C	1.977925	0.499916	0.085664
C63	C	1.481617	-0.000077	-0.553779
C64	C	1.981617	0.499923	-0.053779
C65	C	1.601112	-0.000111	0.263667
C66	C	2.101112	0.499889	0.763667
C67	C	1.597636	-0.000092	0.394688
C68	C	2.097636	0.499908	0.894688
C69	C	1.369066	-0.000065	0.366725
C70	C	1.869066	0.499935	0.866725
C71	C	1.372544	-0.000073	0.235706
C72	C	1.872544	0.499927	0.735706
H73	H	1.078574	-0.000053	-0.395294
H74	H	1.578574	0.499947	0.104706
H75	H	1.274601	-0.000043	0.408693
H76	H	1.774601	0.499957	0.908693
H77	H	1.331488	-0.361006	-0.338298
H78	H	1.831488	0.138994	0.161702
F79	F	0.821017	-0.000094	-0.417124
F80	F	1.321017	0.499906	0.082876
F81	F	0.878722	-0.000144	0.054705
F82	F	1.378722	0.499856	0.554705
F83	F	1.717418	-0.000098	0.479278
F84	F	2.217418	0.499902	0.979278
F85	F	1.149188	-0.000113	0.047539
F86	F	1.649188	0.499887	0.547539
F87	F	1.829197	-0.341819	0.159057
F88	F	2.329197	0.158181	0.659057
H89	H	1.654420	-0.778290	-0.015541
H90	H	2.154420	-0.278290	0.484459
F91	F	1.654445	-0.183566	-0.015613
F92	F	2.154445	0.316434	0.484387
F93	F	1.252755	-0.000054	0.151106
F94	F	1.752755	0.499946	0.651106
F95	F	1.829194	-0.658346	0.159092
F96	F	2.329194	-0.158346	0.659092
H97	H	1.331494	-0.639197	-0.338274
H98	H	1.831494	-0.139197	0.161726
H99	H	1.695588	-0.000132	0.221720
H100	H	2.195588	0.499868	0.721720
