data_functionalizedCrystal
_audit_creation_method	'MofGen! by Chris Wilmer'
_symmetry_space_group_name_H-M	'P1'
_symmetry_Int_Tables_number	1
_symmetry_cell_setting	triclinic
loop_
_symmetry_equiv_pos_as_xyz
  x,y,z
_cell_length_a	8.497374
_cell_length_b	12.759401
_cell_length_c	12.759399
_cell_angle_alpha	89.983359
_cell_angle_beta	89.991562
_cell_angle_gamma	90.001753
loop_
_atom_site_label
_atom_site_type_symbol
_atom_site_fract_x
_atom_site_fract_y
_atom_site_fract_z
Zn1	Zn	0.891958	1.606064	0.418406
Zn2	Zn	0.628160	1.606013	0.594052
Zn3	Zn	0.628185	1.430422	0.418393
Zn4	Zn	0.891892	1.430354	0.594048
O5	O	0.760048	1.518213	0.506225
O6	O	0.856982	1.753079	0.441713
O7	O	0.407401	1.582728	0.570747
O8	O	0.663213	1.453771	0.271373
O9	O	0.663171	1.753041	0.570760
O10	O	0.857005	1.582815	0.271383
O11	O	0.407419	1.453722	0.441691
O12	O	0.663149	1.283392	0.441686
O13	O	1.112663	1.453655	0.570752
O14	O	0.856893	1.283342	0.570739
O15	O	1.112711	1.582749	0.441709
O16	O	0.663107	1.582661	0.741073
O17	O	0.856869	1.453605	0.741069
C18	C	0.760017	1.245246	0.506212
C19	C	0.760041	1.128469	0.506232
C20	C	0.860765	1.073609	0.573532
C21	C	0.860796	0.963885	0.573536
C22	C	0.659366	0.963891	0.438937
C23	C	0.659344	1.073613	0.438928
C24	C	0.760013	1.518149	0.779192
C25	C	0.760050	1.518217	0.895969
C26	C	1.171529	1.518205	0.506226
C27	C	1.350173	1.518208	0.506237
C28	C	0.760081	1.792246	0.506238
C29	C	0.760095	1.909023	0.506244
C30	C	0.760119	1.518307	0.232191
C31	C	0.760149	1.518346	0.115415
C32	C	0.659273	1.585494	0.950797
C33	C	0.659326	1.585561	1.060521
C34	C	0.860938	1.451067	1.060578
C35	C	0.860891	1.451006	0.950856
H36	H	0.577380	0.919214	0.384142
H37	H	0.577323	1.118282	0.384118
C38	C	0.971589	0.903539	0.647572
C39	C	0.903029	0.828079	0.729985
C40	C	1.013829	0.767734	0.804024
C41	C	1.193189	0.782850	0.795649
C42	C	1.261759	0.858314	0.713233
C43	C	1.150959	0.918658	0.639194
H44	H	0.770248	0.816886	0.736188
H45	H	0.963068	0.711871	0.865035
H46	H	1.275210	0.738180	0.850457
H47	H	1.394540	0.869507	0.707030
H48	H	1.201720	0.974522	0.578183
C49	C	0.548467	1.659566	1.120833
C50	C	0.437556	1.733495	1.060455
C51	C	0.326696	1.807505	1.120766
C52	C	0.326748	1.807587	1.241456
C53	C	0.437664	1.733654	1.301841
C54	C	0.548524	1.659644	1.241530
H55	H	0.437513	1.733437	0.971107
H56	H	0.244589	1.862235	1.076064
H57	H	0.244683	1.862373	1.286102
H58	H	0.437707	1.733712	1.391189
H59	H	0.630631	1.604914	1.286232
C60	C	0.971853	1.377133	1.120957
C61	C	0.971907	1.377195	1.241647
C62	C	1.082824	1.303258	1.302024
C63	C	1.193686	1.229260	1.241710
C64	C	1.193635	1.229195	1.121013
C65	C	1.082719	1.303132	1.060637
H66	H	0.889837	1.431975	1.286301
H67	H	1.082861	1.303306	1.391372
H68	H	1.275793	1.174527	1.286404
H69	H	1.275706	1.174415	1.076359
H70	H	1.082682	1.303084	0.971289
C71	C	0.971756	1.376997	0.890537
C72	C	0.958739	1.257575	0.905720
C73	C	1.069604	1.183575	0.845401
C74	C	1.193487	1.228996	0.769900
C75	C	1.206510	1.348424	0.754714
C76	C	1.095644	1.422424	0.815033
H77	H	0.867029	1.223946	0.961614
H78	H	1.059963	1.095166	0.856643
H79	H	1.275556	1.174216	0.725249
H80	H	1.298220	1.382053	0.698821
H81	H	1.105285	1.510833	0.803791
H82	H	0.942763	1.118269	0.628332
H83	H	0.577164	1.640223	0.906111
