data_functionalizedCrystal
_audit_creation_method	'MofGen! by Chris Wilmer'
_symmetry_space_group_name_H-M	'P1'
_symmetry_Int_Tables_number	1
_symmetry_cell_setting	triclinic
loop_
_symmetry_equiv_pos_as_xyz
  x,y,z
_cell_length_a	16.992694
_cell_length_b	8.965430
_cell_length_c	16.992695
_cell_angle_alpha	89.999842
_cell_angle_beta	90.668223
_cell_angle_gamma	89.998442
loop_
_atom_site_label
_atom_site_type_symbol
_atom_site_fract_x
_atom_site_fract_y
_atom_site_fract_z
O1	O	1.050850	0.123854	0.166911
O2	O	1.550850	0.623854	0.666911
O3	O	0.822450	0.123898	0.165079
O4	O	1.322450	0.623898	0.665079
O5	O	0.935734	0.123864	0.051795
O6	O	1.435734	0.623864	0.551795
O7	O	0.937566	0.123887	0.280195
O8	O	1.437566	0.623887	0.780195
O9	O	0.935725	-0.124215	0.051802
O10	O	1.435725	0.375785	0.551802
O11	O	0.822440	-0.124181	0.165087
O12	O	1.322440	0.375819	0.665087
O13	O	1.050840	-0.124225	0.166918
O14	O	1.550840	0.375775	0.666918
Cu15	Cu	0.936640	-0.146855	0.166003
Cu16	Cu	1.436640	0.353145	0.666003
Cu17	Cu	0.936651	0.146527	0.165994
Cu18	Cu	1.436651	0.646527	0.665994
O19	O	0.937556	-0.124191	0.280203
O20	O	1.437556	0.375809	0.780203
C21	C	0.793085	-0.000136	0.162727
C22	C	1.293085	0.499864	0.662727
C23	C	0.705600	-0.000120	0.155699
C24	C	1.205600	0.499880	0.655699
N25	N	0.936637	-0.353204	0.166009
N26	N	1.436637	0.146796	0.666009
C27	C	0.659610	-0.000114	0.223517
C28	C	1.159610	0.499886	0.723517
C29	C	0.577409	-0.000135	0.216908
C30	C	1.077409	0.499865	0.716908
C31	C	0.541201	-0.000152	0.142480
C32	C	1.041201	0.499848	0.642480
C33	C	0.587198	-0.000162	0.074657
C34	C	1.087198	0.499838	0.574657
C35	C	0.669397	-0.000151	0.081267
C36	C	1.169397	0.499849	0.581267
C37	C	0.295886	-0.000194	0.115086
C38	C	0.795886	0.499806	0.615086
C39	C	0.213681	-0.000200	0.108481
C40	C	0.713681	0.499800	0.608481
C41	C	0.203898	-0.000177	0.250732
C42	C	0.703898	0.499823	0.750732
C43	C	0.286099	-0.000157	0.257336
C44	C	0.786099	0.499843	0.757336
C45	C	0.332089	-0.000175	0.189512
C46	C	0.832089	0.499825	0.689512
N47	N	0.457178	-0.000169	0.135723
N48	N	0.957178	0.499831	0.635723
N49	N	0.416110	-0.000169	0.196270
N50	N	0.916110	0.499831	0.696270
C51	C	0.884229	-0.450494	0.218380
C52	C	1.384229	0.049506	0.718380
C53	C	0.956320	-0.549920	0.238112
C54	C	1.456320	-0.049920	0.738112
C55	C	0.864576	-0.549906	0.146285
C56	C	1.364576	-0.049906	0.646285
C57	C	1.008767	-0.450441	0.185779
C58	C	1.508767	0.049559	0.685779
C59	C	0.916974	-0.450417	0.093918
C60	C	1.416974	0.049583	0.593918
C61	C	0.989115	-0.549798	0.113624
C62	C	1.489115	-0.049798	0.613624
C63	C	1.080205	-0.000188	0.169270
C64	C	1.580205	0.499812	0.669270
C65	C	1.167690	-0.000195	0.176299
C66	C	1.667690	0.499805	0.676299
C67	C	0.933374	-0.000175	0.022439
C68	C	1.433374	0.499825	0.522439
C69	C	0.926345	-0.000173	-0.065046
C70	C	1.426345	0.499827	0.434954
N71	N	0.936659	0.352876	0.165983
N72	N	1.436659	0.852876	0.665983
C73	C	0.994163	-0.000188	-0.111037
C74	C	1.494163	0.499812	0.388963
C75	C	0.987554	-0.000172	-0.193238
C76	C	1.487554	0.499828	0.306762
C77	C	0.913127	-0.000153	-0.229446
C78	C	1.413127	0.499847	0.270554
C79	C	0.845303	-0.000134	-0.183449
C80	C	1.345303	0.499866	0.316551
C81	C	0.851913	-0.000138	-0.101250
C82	C	1.351913	0.499862	0.398750
C83	C	0.885732	-0.000127	-0.474760
C84	C	1.385732	0.499873	0.025240
C85	C	0.879127	-0.000127	-0.556966
C86	C	1.379127	0.499873	-0.056966
C87	C	1.021379	-0.000162	-0.566749
C88	C	1.521379	0.499838	-0.066749
C89	C	1.027982	-0.000176	-0.484547
C90	C	1.527982	0.499824	0.015453
C91	C	0.960159	-0.000149	-0.438558
C92	C	1.460159	0.499851	0.061442
N93	N	0.906369	-0.000142	-0.313468
N94	N	1.406369	0.499858	0.186532
N95	N	0.966917	-0.000150	-0.354537
N96	N	1.466917	0.499850	0.145463
C97	C	0.939917	-0.000149	0.309559
C98	C	1.439917	0.499851	0.809559
C99	C	0.946945	-0.000141	0.397044
C100	C	1.446945	0.499859	0.897044
H101	H	0.689084	-0.000100	0.284124
H102	H	1.189084	0.499900	0.784124
H103	H	1.042779	-0.000187	-0.230680
H104	H	1.542779	0.499813	0.269320
O105	O	0.527805	-0.000121	0.290056
O106	O	1.027805	0.499879	0.790056
H107	H	0.490134	-0.101248	0.290458
H108	H	0.990134	0.398752	0.790458
H109	H	0.803626	-0.593600	0.129615
H110	H	1.303626	-0.093600	0.629615
H111	H	0.557710	-0.000196	0.014056
H112	H	1.057710	0.499804	0.514056
O113	O	1.108257	-0.000161	-0.445493
O114	O	1.608257	0.499839	0.054507
H115	H	1.154307	-0.000146	-0.491284
H116	H	1.654307	0.499854	0.008716
O117	O	0.812584	-0.000136	-0.425161
O118	O	1.312584	0.499864	0.074839
H119	H	0.759722	-0.000149	-0.464151
H120	H	1.259722	0.499851	0.035849
H121	H	1.054770	-0.000212	-0.081563
H122	H	1.554770	0.499788	0.418437
H123	H	1.076596	-0.000181	-0.604202
H124	H	1.576596	0.499819	-0.104202
H125	H	0.818517	-0.000135	-0.586443
H126	H	1.318517	0.499865	-0.086443
H127	H	1.069734	-0.406933	0.202522
H128	H	1.569734	0.093067	0.702522
O129	O	0.765025	-0.000129	-0.222496
O130	O	1.265025	0.499871	0.277504
H131	H	0.771821	-0.000149	-0.287381
H132	H	1.271821	0.499851	0.212619
O133	O	0.825578	-0.392721	0.277096
O134	O	1.325578	0.107279	0.777096
H135	H	0.856548	-0.322906	0.321623
H136	H	1.356548	0.177094	0.821623
H137	H	0.315574	-0.000126	0.317942
H138	H	0.815574	0.499874	0.817942
O139	O	0.719008	-0.000153	0.008122
O140	O	1.219008	0.499847	0.508122
H141	H	0.680022	-0.000152	-0.044744
H142	H	1.180022	0.499848	0.455256
O143	O	0.894895	-0.392471	0.013202
O144	O	1.394895	0.107529	0.513202
H145	H	0.937818	-0.433995	-0.030394
H146	H	1.437818	0.066005	0.469606
O147	O	0.345479	-0.000211	0.041933
O148	O	0.845479	0.499789	0.541933
H149	H	0.383166	0.100895	0.041534
H150	H	0.883166	0.600895	0.541534
H151	H	0.796688	-0.000126	-0.063804
H152	H	1.296688	0.499874	0.436196
H153	H	0.972966	-0.593625	0.299067
H154	H	1.472966	-0.093625	0.799067
O155	O	0.154297	-0.000188	0.323883
O156	O	0.654297	0.499812	0.823883
H157	H	0.091056	-0.000216	0.306786
H158	H	0.591056	0.499784	0.806786
H159	H	0.184203	-0.000212	0.047870
H160	H	0.684203	0.499788	0.547870
O161	O	1.047896	-0.607224	0.054946
O162	O	1.547896	-0.107224	0.554946
H163	H	1.107639	-0.567176	0.071494
H164	H	1.607639	-0.067176	0.571494
