data_functionalizedCrystal
_audit_creation_method	'MofGen! by Chris Wilmer'
_symmetry_space_group_name_H-M	'P1'
_symmetry_Int_Tables_number	1
_symmetry_cell_setting	triclinic
loop_
_symmetry_equiv_pos_as_xyz
  x,y,z
_cell_length_a	6.817900
_cell_length_b	11.168129
_cell_length_c	16.255661
_cell_angle_alpha	93.883722
_cell_angle_beta	103.488922
_cell_angle_gamma	108.508637
loop_
_atom_site_label
_atom_site_type_symbol
_atom_site_fract_x
_atom_site_fract_y
_atom_site_fract_z
V1	V	-4.052429	-0.175725	-0.263878
O2	O	-4.013108	0.007395	-0.258848
O3	O	-4.029109	-0.347423	-0.262081
O4	O	-4.003663	-0.173482	-0.378962
O5	O	-4.038731	-0.167750	-0.141158
V6	V	-4.532855	-0.153767	-0.249199
O7	O	-4.320482	-0.223891	-0.296079
O8	O	-4.714999	-0.105601	-0.216999
O9	O	-4.332968	0.017931	-0.250997
O10	O	-4.689573	-0.336887	-0.254230
O11	O	-4.663951	-0.161742	-0.371920
O12	O	-4.358415	-0.156010	-0.134116
C13	C	-3.880223	-0.389265	-0.257920
C14	C	-3.942441	-0.529634	-0.257218
C15	C	-3.929402	-0.574794	-0.183250
C16	C	-3.993706	-0.719872	-0.182522
C17	C	-3.847763	-0.167385	-0.407012
C18	C	-3.889341	-0.166687	-0.501093
C19	C	-3.798678	-0.158357	-0.723911
C20	C	-3.970828	-0.265869	-0.793392
C21	C	-3.965534	-0.165380	-0.673342
C22	C	-3.867494	-0.056637	-0.771498
C23	C	-4.039116	-0.164111	-0.839725
C24	C	-4.137180	-0.272988	-0.741592
C25	C	-4.033769	-0.063661	-0.719683
C26	C	-4.206061	-0.171203	-0.789144
C27	C	-3.923140	-0.166112	-0.577492
C28	C	-4.081528	-0.163389	-0.935574
C29	C	-4.145198	0.059767	-0.255155
C30	C	-4.062218	0.200134	-0.255863
C31	C	-4.177658	-0.162111	-0.106061
C32	C	-4.115317	-0.162802	-0.011979
H33	H	-3.626150	-0.153066	-0.695431
C34	C	-3.716129	0.065178	-0.789774
C35	C	-3.758678	0.064760	-0.878342
C36	C	-3.619253	0.176940	-0.895207
H37	H	-3.736981	0.137131	-0.763534
H38	H	-3.571822	0.069593	-0.767387
H39	H	-3.902951	0.060358	-0.900719
H40	H	-3.737812	-0.007168	-0.904602
H41	H	-3.474945	0.181355	-0.872820
H42	H	-3.640116	0.248884	-0.868962
H43	H	-3.648089	0.176666	-0.955301
H44	H	-4.001216	-0.598376	-0.320005
H45	H	-3.944667	-0.351359	-0.825481
H46	H	-4.073270	-0.760971	-0.319194
C47	C	-4.288411	-0.394993	-0.723476
C48	C	-4.247283	-0.394285	-0.634905
C49	C	-4.386522	-0.506662	-0.618183
H50	H	-4.432809	-0.399941	-0.746319
H51	H	-4.266332	-0.466761	-0.749361
H52	H	-4.269379	-0.322537	-0.609030
H53	H	-4.102912	-0.389357	-0.612042
H54	H	-4.364443	-0.578430	-0.644068
H55	H	-4.530911	-0.511600	-0.641031
H56	H	-4.358623	-0.506202	-0.558088
H57	H	-3.870645	-0.506052	-0.120463
H58	H	-4.378732	-0.176663	-0.817491
H59	H	-3.982637	-0.758775	-0.119195
C60	C	-4.068933	0.050273	-0.676974
C61	C	-4.280733	0.044444	-0.711307
C62	C	-4.313168	0.149395	-0.671983
H63	H	-4.043491	0.048618	-0.617138
H64	H	-3.972720	0.127084	-0.686861
H65	H	-4.376917	-0.032347	-0.701412
H66	H	-4.306224	0.046116	-0.771139
H67	H	-4.216955	0.226206	-0.681870
H68	H	-4.287715	0.147731	-0.612148
H69	H	-4.456869	0.145460	-0.695278
