data_functionalizedCrystal
_audit_creation_method	'MofGen! by Chris Wilmer'
_symmetry_space_group_name_H-M	'P1'
_symmetry_Int_Tables_number	1
_symmetry_cell_setting	triclinic
loop_
_symmetry_equiv_pos_as_xyz
  x,y,z
_cell_length_a	23.532407
_cell_length_b	16.956995
_cell_length_c	16.053802
_cell_angle_alpha	87.607939
_cell_angle_beta	87.443152
_cell_angle_gamma	100.548425
loop_
_atom_site_label
_atom_site_type_symbol
_atom_site_fract_x
_atom_site_fract_y
_atom_site_fract_z
O1	O	-0.021053	1.061237	-0.069483
O2	O	-0.041054	0.828920	-0.069468
O3	O	0.052180	0.952085	-0.069486
O4	O	-0.114287	0.938073	-0.069464
O5	O	0.047068	0.945306	0.069374
O6	O	-0.046166	0.822141	0.069392
O7	O	-0.026165	1.054458	0.069377
Zn8	Zn	-0.036977	0.937223	0.091432
Zn9	Zn	-0.030242	0.946155	-0.091522
O10	O	-0.119399	0.931293	0.069396
C11	C	-0.044634	0.795815	-0.000036
C12	C	-0.047679	0.707270	-0.000031
C13	C	-0.070454	0.207791	-0.000060
C14	C	-0.067589	0.290988	-0.000059
C15	C	-0.013809	0.342503	-0.000060
C16	C	0.037109	0.310816	-0.000070
C17	C	0.034244	0.227620	-0.000076
C18	C	0.000374	0.592387	-0.000047
C19	C	0.003236	0.675588	-0.000038
C20	C	-0.101463	0.655755	-0.000030
C21	C	-0.104324	0.572558	-0.000031
C22	C	-0.053405	0.540878	-0.000045
N23	N	-0.010879	0.427544	-0.000057
N24	N	-0.056335	0.455838	-0.000054
C25	C	-0.138044	0.935040	-0.000032
C26	C	-0.201215	0.936112	-0.000024
C27	C	-0.603164	0.869957	-0.000062
C28	C	-0.662521	0.870953	-0.000068
O29	O	-0.701903	0.809626	-0.000095
N30	N	-0.681996	0.944174	-0.000072
C31	C	-0.642110	1.016403	-0.000078
O32	O	-0.664125	1.078775	-0.000082
C33	C	-0.582754	1.015406	-0.000078
C34	C	-0.563283	0.942180	-0.000066
C35	C	-0.583692	0.796737	-0.000051
C36	C	-0.524339	0.795740	-0.000044
C37	C	-0.484458	0.867964	-0.000047
C38	C	-0.503929	0.941183	-0.000059
C39	C	-0.542868	1.087634	-0.000090
C40	C	-0.483509	1.086631	-0.000091
C41	C	-0.464038	1.013405	-0.000079
C42	C	-0.404695	1.012410	-0.000055
N43	N	-0.385220	0.939190	-0.000051
C44	C	-0.425101	0.866966	-0.000048
C45	C	-0.766762	1.018492	-0.000079
C46	C	-0.826117	1.019490	-0.000073
C47	C	-0.846524	0.874040	-0.000065
C48	C	-0.787168	0.873043	-0.000065
C49	C	-0.747287	0.945271	-0.000076
C50	C	-0.300455	0.864879	-0.000031
C51	C	-0.241096	0.863889	-0.000020
C52	C	-0.220694	1.009338	-0.000033
C53	C	-0.280048	1.010329	-0.000039
C54	C	-0.319928	0.938093	-0.000041
O55	O	-0.365279	1.073705	-0.000031
O56	O	-0.403077	0.804606	-0.000054
C57	C	0.070825	0.948339	-0.000061
C58	C	0.133996	0.947266	-0.000074
C59	C	-0.022585	1.087564	-0.000056
C60	C	-0.019540	1.176109	-0.000067
N61	N	-0.041573	0.931133	0.216293
N62	N	-0.025641	0.952251	-0.216384
C63	C	-0.001914	0.983559	0.259979
C64	C	-0.005134	0.979306	0.347386
C65	C	-0.048016	0.922631	0.391106
C66	C	-0.087677	0.870200	0.347414
C67	C	-0.084454	0.874450	0.260008
C68	C	-0.062079	0.904070	0.652518
C69	C	-0.065300	0.899826	0.739930
C70	C	0.017244	1.008931	0.739897
C71	C	0.020461	1.013179	0.652489
C72	C	-0.019198	0.960745	0.608805
N73	N	-0.051310	0.918285	0.480450
N74	N	-0.015901	0.965088	0.519462
H75	H	0.080898	0.352766	-0.000075
O76	O	0.062297	1.068139	0.610247
C77	C	0.117196	1.054377	0.631895
H78	H	0.113456	0.989286	0.655823
H79	H	0.148486	1.066611	0.574578
H80	H	0.134038	1.096103	0.682787
O81	O	-0.298867	1.081531	-0.000087
C82	C	-0.250936	1.145061	-0.000066
H83	H	-0.210645	1.124308	-0.026336
H84	H	-0.259455	1.198176	-0.040397
H85	H	-0.243951	1.164072	0.066550
H86	H	-0.122591	0.824050	0.383015
H87	H	-0.508491	0.736113	-0.000041
O88	O	-0.123041	0.823489	0.217698
C89	C	-0.161573	0.772542	0.275026
H90	H	-0.162989	0.802212	0.337322
H91	H	-0.206708	0.761235	0.249772
H92	H	-0.146181	0.712984	0.284342
H93	H	-0.616158	0.737921	-0.000051
H94	H	-0.109049	0.316779	-0.000061
O95	O	-0.768353	0.801844	-0.000098
C96	C	-0.816288	0.738316	-0.000071
H97	H	-0.854637	0.761638	-0.026357
H98	H	-0.804795	0.689132	-0.040385
H99	H	-0.828194	0.712809	0.066549
H100	H	-0.188213	1.068140	-0.000032
O101	O	-0.156575	0.522563	-0.000182
C102	C	-0.185077	0.540397	-0.072084
H103	H	-0.151806	0.571525	-0.122351
H104	H	-0.209819	0.482369	-0.096226
H105	H	-0.216651	0.581714	-0.055820
H106	H	-0.841965	1.079117	-0.000070
O107	O	0.039793	1.038638	0.217643
C108	C	0.074098	1.084010	0.274949
H109	H	0.070917	1.048281	0.337264
H110	H	0.121096	1.097770	0.249695
H111	H	0.058021	1.142665	0.284227
O112	O	0.049789	0.561516	0.000054
C113	C	0.048621	0.510477	0.071974
H114	H	0.001858	0.488231	0.095954
H115	H	0.069358	0.456962	0.055790
H116	H	0.073703	0.544965	0.122335
O117	O	-0.150943	0.686484	0.000123
C118	C	-0.186149	0.656588	0.072027
H119	H	-0.158161	0.637059	0.122293
H120	H	-0.208902	0.705622	0.096169
H121	H	-0.219851	0.602909	0.055764
O122	O	-0.122689	0.157713	0.000088
C123	C	-0.130127	0.105461	0.071990
H124	H	-0.101411	0.133696	0.122259
H125	H	-0.177349	0.094569	0.096129
H126	H	-0.117636	0.045867	0.055725
H127	H	-0.100222	0.853672	0.775523
O128	O	0.055499	0.725609	-0.000195
C129	C	0.089297	0.714823	-0.072111
H130	H	0.059730	0.688607	-0.122372
H131	H	0.115808	0.775219	-0.096252
H132	H	0.119682	0.671926	-0.055865
H133	H	-0.879007	0.815232	-0.000062
H134	H	-0.734293	1.077313	-0.000082
O135	O	0.083691	0.196810	-0.000228
C136	C	0.087808	0.152784	-0.072140
H137	H	0.060817	0.174692	-0.122400
H138	H	0.134964	0.161789	-0.096284
H139	H	0.070973	0.086272	-0.055886
O140	O	-0.444849	1.156868	-0.000063
C141	C	-0.474768	1.221706	-0.000097
H142	H	-0.521040	1.199810	0.026191
H143	H	-0.451971	1.270317	0.040212
H144	H	-0.475485	1.247419	-0.066719
O145	O	-0.561837	1.158724	-0.000221
C146	C	-0.592890	1.167173	-0.072154
H147	H	-0.609769	1.105351	-0.096116
H148	H	-0.630899	1.197882	-0.055994
H149	H	-0.563113	1.205119	-0.122519
O150	O	-0.222279	0.792685	-0.000049
C151	C	-0.270213	0.729155	-0.000029
H152	H	-0.308560	0.752473	-0.026324
H153	H	-0.258714	0.679972	-0.040340
H154	H	-0.282124	0.703647	0.066589
O155	O	-0.339248	0.794756	0.000082
C156	C	-0.376838	0.787456	0.072007
H157	H	-0.377763	0.849575	0.095974
H158	H	-0.422297	0.758155	0.055834
H159	H	-0.360851	0.748734	0.122373
O160	O	0.033439	1.030127	0.389856
C161	C	0.064728	0.985241	0.440443
H162	H	0.063729	0.923622	0.414126
H163	H	0.111493	1.018107	0.441420
H164	H	0.044265	0.977700	0.506689
O165	O	0.055739	1.059774	0.782462
C166	C	0.043693	1.043887	0.868984
H167	H	0.018999	0.979720	0.880941
H168	H	0.086029	1.051490	0.902200
H169	H	0.016313	1.087603	0.893773
O170	O	-0.100666	0.853105	0.610220
C171	C	-0.139196	0.802163	0.667554
H172	H	-0.140609	0.831837	0.729848
H173	H	-0.184332	0.790856	0.642304
H174	H	-0.123805	0.742604	0.676873
