data_functionalizedCrystal
_audit_creation_method	'MofGen! by Chris Wilmer'
_symmetry_space_group_name_H-M	'P1'
_symmetry_Int_Tables_number	1
_symmetry_cell_setting	triclinic
loop_
_symmetry_equiv_pos_as_xyz
  x,y,z
_cell_length_a	27.732048
_cell_length_b	14.044220
_cell_length_c	12.503572
_cell_angle_alpha	86.156832
_cell_angle_beta	86.516589
_cell_angle_gamma	92.084234
loop_
_atom_site_label
_atom_site_type_symbol
_atom_site_fract_x
_atom_site_fract_y
_atom_site_fract_z
O1	O	0.648762	-0.107201	-0.089184
O2	O	0.898762	0.142799	0.160816
O3	O	1.148762	0.392799	0.410816
O4	O	1.398762	0.642799	0.660816
O5	O	0.508774	-0.124338	-0.089216
O6	O	0.758774	0.125662	0.160784
O7	O	1.008774	0.375662	0.410784
O8	O	1.258774	0.625662	0.660784
O9	O	0.576666	0.022184	-0.089190
O10	O	0.826666	0.272184	0.160810
O11	O	1.076666	0.522184	0.410810
O12	O	1.326666	0.772184	0.660810
O13	O	0.580869	-0.253723	-0.089210
O14	O	0.830869	-0.003723	0.160790
O15	O	1.080869	0.246277	0.410790
O16	O	1.330869	0.496277	0.660790
O17	O	0.571561	0.011146	0.089450
O18	O	0.821561	0.261146	0.339450
O19	O	1.071561	0.511146	0.589450
O20	O	1.321561	0.761146	0.839450
O21	O	0.503669	-0.135375	0.089424
O22	O	0.753669	0.114625	0.339424
O23	O	1.003669	0.364625	0.589424
O24	O	1.253669	0.614625	0.839424
O25	O	0.643657	-0.118239	0.089456
O26	O	0.893657	0.131761	0.339456
O27	O	1.143657	0.381761	0.589456
O28	O	1.393657	0.631761	0.839456
Cu29	Cu	0.573197	-0.127815	0.105751
Cu30	Cu	0.823197	0.122185	0.355751
Cu31	Cu	1.073197	0.372185	0.605751
Cu32	Cu	1.323197	0.622185	0.855751
Cu33	Cu	0.579234	-0.114762	-0.105511
Cu34	Cu	0.829234	0.135238	0.144489
Cu35	Cu	1.079234	0.385238	0.394489
Cu36	Cu	1.329234	0.635238	0.644489
O37	O	0.575764	-0.264760	0.089430
O38	O	0.825764	-0.014760	0.339430
O39	O	1.075764	0.235240	0.589430
O40	O	1.325764	0.485240	0.839430
C41	C	0.488197	-0.129496	0.000100
C42	C	0.738197	0.120504	0.250100
C43	C	0.988197	0.370504	0.500100
C44	C	1.238197	0.620504	0.750100
C45	C	0.434492	-0.128412	0.000087
C46	C	0.684492	0.121588	0.250087
C47	C	0.934492	0.371588	0.500087
C48	C	1.184492	0.621588	0.750087
N49	N	0.568954	-0.136995	0.254342
N50	N	0.818954	0.113005	0.504342
N51	N	1.068954	0.363005	0.754342
N52	N	1.318954	0.613005	1.004342
C53	C	0.572274	0.051953	0.000130
C54	C	0.822274	0.301953	0.250130
C55	C	1.072274	0.551953	0.500130
C56	C	1.322274	0.801953	0.750130
C57	C	0.566787	0.157098	0.000130
C58	C	0.816787	0.407098	0.250130
C59	C	1.066787	0.657098	0.500130
C60	C	1.316787	0.907098	0.750130
C61	C	0.099419	-0.208180	0.000128
C62	C	0.349419	0.041820	0.250128
C63	C	0.599419	0.291820	0.500128
C64	C	0.849419	0.541820	0.750128
C65	C	-0.102429	-0.204162	0.000138
C66	C	0.147571	0.045838	0.250138
C67	C	0.397571	0.295838	0.500138
C68	C	0.647571	0.545838	0.750138
O69	O	-0.130263	-0.277104	0.000179
O70	O	0.119737	-0.027104	0.250179
O71	O	0.369737	0.222896	0.500179
O72	O	0.619737	0.472896	0.750179
N73	N	-0.125630	-0.117280	0.000142
N74	N	0.124370	0.132720	0.250142
N75	N	0.374370	0.382720	0.500142
N76	N	0.624370	0.632720	0.750142
C77	C	-0.098366	-0.031397	0.000151
C78	C	0.151634	0.218603	0.250151
C79	C	0.401634	0.468603	0.500151
C80	C	0.651634	0.718603	0.750151
O81	O	-0.122732	0.042593	0.000166
O82	O	0.127268	0.292593	0.250166
O83	O	0.377268	0.542593	0.500166
O84	O	0.627268	0.792593	0.750166
C85	C	0.103481	-0.035417	0.000149
C86	C	0.353481	0.214583	0.250149
C87	C	0.603481	0.464583	0.500149
C88	C	0.853481	0.714583	0.750149
C89	C	0.126680	-0.122304	0.000134
C90	C	0.376680	0.127696	0.250134
C91	C	0.626680	0.377696	0.500134
C92	C	0.876680	0.627696	0.750134
C93	C	0.122618	-0.295060	0.000114
C94	C	0.372618	-0.045060	0.250114
C95	C	0.622618	0.204940	0.500114
C96	C	0.872618	0.454940	0.750114
C97	C	0.173077	-0.296063	0.000105
C98	C	0.423077	-0.046063	0.250105
C99	C	0.673077	0.203937	0.500105
C100	C	0.923077	0.453937	0.750105
C101	C	0.200338	-0.210187	0.000111
C102	C	0.450338	0.039813	0.250111
C103	C	0.700338	0.289813	0.500111
C104	C	0.950338	0.539813	0.750111
C105	C	0.177139	-0.123307	0.000125
C106	C	0.427139	0.126693	0.250125
C107	C	0.677139	0.376693	0.500125
C108	C	0.927139	0.626693	0.750125
C109	C	0.130744	0.050464	0.000166
C110	C	0.380744	0.300464	0.250166
C111	C	0.630744	0.550464	0.500166
C112	C	0.880744	0.800464	0.750166
C113	C	0.181209	0.049451	0.000168
C114	C	0.431209	0.299451	0.250168
C115	C	0.681209	0.549451	0.500168
C116	C	0.931209	0.799451	0.750168
C117	C	0.204407	-0.037436	0.000153
C118	C	0.454407	0.212564	0.250153
C119	C	0.704407	0.462564	0.500153
C120	C	0.954407	0.712564	0.750153
C121	C	0.254859	-0.038434	0.000123
C122	C	0.504859	0.211566	0.250123
C123	C	0.754859	0.461566	0.500123
C124	C	1.004859	0.711566	0.750123
N125	N	0.278060	-0.125316	0.000119
N126	N	0.528060	0.124684	0.250119
N127	N	0.778060	0.374684	0.500119
N128	N	1.028060	0.624684	0.750119
C129	C	0.250799	-0.211193	0.000113
C130	C	0.500799	0.038807	0.250113
C131	C	0.750799	0.288807	0.500113
C132	C	1.000799	0.538807	0.750113
C133	C	-0.204339	-0.029293	0.000150
C134	C	0.045661	0.220707	0.250150
C135	C	0.295661	0.470707	0.500150
C136	C	0.545661	0.720707	0.750150
C137	C	-0.254801	-0.028287	0.000149
C138	C	-0.004801	0.221713	0.250149
C139	C	0.245199	0.471713	0.500149
C140	C	0.495199	0.721713	0.750149
C141	C	-0.258860	-0.201052	0.000138
C142	C	-0.008860	0.048948	0.250138
C143	C	0.241140	0.298948	0.500138
C144	C	0.491140	0.548948	0.750138
C145	C	-0.208398	-0.202056	0.000131
C146	C	0.041602	0.047944	0.250131
C147	C	0.291602	0.297944	0.500131
C148	C	0.541602	0.547944	0.750131
C149	C	-0.181138	-0.116174	0.000146
C150	C	0.068862	0.133826	0.250146
C151	C	0.318862	0.383826	0.500146
C152	C	0.568862	0.633826	0.750146
C153	C	0.356768	-0.213293	0.000094
C154	C	0.606768	0.036707	0.250094
C155	C	0.856768	0.286707	0.500094
C156	C	1.106768	0.536707	0.750094
C157	C	0.407232	-0.214289	0.000081
C158	C	0.657232	0.035711	0.250081
C159	C	0.907232	0.285711	0.500081
C160	C	1.157232	0.535711	0.750081
C161	C	0.411287	-0.041524	0.000099
C162	C	0.661287	0.208476	0.250099
C163	C	0.911287	0.458476	0.500099
C164	C	1.161287	0.708476	0.750099
C165	C	0.360827	-0.040528	0.000106
C166	C	0.610827	0.209472	0.250106
C167	C	0.860827	0.459472	0.500106
C168	C	1.110827	0.709472	0.750106
C169	C	0.333569	-0.126420	0.000107
C170	C	0.583569	0.123580	0.250107
C171	C	0.833569	0.373580	0.500107
C172	C	1.083569	0.623580	0.750107
O173	O	0.282722	0.034468	0.000094
O174	O	0.532722	0.284468	0.250094
O175	O	0.782722	0.534468	0.500094
O176	O	1.032722	0.784468	0.750094
O177	O	0.275173	-0.285173	0.000121
O178	O	0.525173	-0.035173	0.250121
O179	O	0.775173	0.214827	0.500121
O180	O	1.025173	0.464827	0.750121
C181	C	0.048960	-0.207177	0.000136
C182	C	0.298960	0.042823	0.250136
C183	C	0.548960	0.292823	0.500136
C184	C	0.798960	0.542823	0.750136
C185	C	0.025761	-0.120297	0.000150
C186	C	0.275761	0.129703	0.250150
C187	C	0.525761	0.379703	0.500150
C188	C	0.775761	0.629703	0.750150
C189	C	0.053021	-0.034421	0.000156
C190	C	0.303021	0.215579	0.250156
C191	C	0.553021	0.465579	0.500156
C192	C	0.803021	0.715579	0.750156
C193	C	-0.024701	-0.119292	0.000149
C194	C	0.225299	0.130708	0.250149
C195	C	0.475299	0.380708	0.500149
C196	C	0.725299	0.630708	0.750149
C197	C	-0.051961	-0.205168	0.000143
C198	C	0.198039	0.044832	0.250143
C199	C	0.448039	0.294832	0.500143
C200	C	0.698039	0.544832	0.750143
C201	C	-0.028760	-0.292050	0.000139
C202	C	0.221240	-0.042050	0.250139
C203	C	0.471240	0.207950	0.500139
C204	C	0.721240	0.457950	0.750139
C205	C	0.021699	-0.293053	0.000130
C206	C	0.271699	-0.043053	0.250130
C207	C	0.521699	0.206947	0.500130
C208	C	0.771699	0.456947	0.750130
C209	C	0.029820	0.052461	0.000161
C210	C	0.279820	0.302461	0.250161
C211	C	0.529820	0.552461	0.500161
C212	C	0.779820	0.802461	0.750161
C213	C	-0.020639	0.053457	0.000168
C214	C	0.229361	0.303457	0.250168
C215	C	0.479361	0.553457	0.500168
C216	C	0.729361	0.803457	0.750168
C217	C	-0.047900	-0.032419	0.000162
C218	C	0.202100	0.217581	0.250162
C219	C	0.452100	0.467581	0.500162
C220	C	0.702100	0.717581	0.750162
C221	C	0.664233	-0.113080	0.000138
C222	C	0.914233	0.136920	0.250138
C223	C	1.164233	0.386920	0.500138
C224	C	1.414233	0.636920	0.750138
C225	C	0.717939	-0.114164	0.000143
C226	C	0.967939	0.135836	0.250143
C227	C	1.217939	0.385836	0.500143
C228	C	1.467939	0.635836	0.750143
C229	C	0.580156	-0.294529	0.000107
C230	C	0.830156	-0.044529	0.250107
C231	C	1.080156	0.205471	0.500107
C232	C	1.330156	0.455471	0.750107
C233	C	0.585644	-0.399674	0.000100
C234	C	0.835644	-0.149674	0.250100
C235	C	1.085644	0.100326	0.500100
C236	C	1.335644	0.350326	0.750100
C237	C	0.556756	0.349613	0.000112
C238	C	0.806756	0.599613	0.250112
C239	C	1.056756	0.849613	0.500112
C240	C	1.306756	1.099613	0.750112
C241	C	0.595673	0.407816	0.000118
C242	C	0.845673	0.657816	0.250118
C243	C	1.095673	0.907816	0.500118
C244	C	1.345673	1.157816	0.750118
C245	C	0.590091	0.514939	0.000108
C246	C	0.840091	0.764939	0.250108
C247	C	1.090091	1.014939	0.500108
C248	C	1.340091	1.264939	0.750108
C249	C	0.562337	0.242481	0.000122
C250	C	0.812337	0.492481	0.250122
C251	C	1.062337	0.742481	0.500122
C252	C	1.312337	0.992481	0.750122
N253	N	0.583480	-0.105574	-0.254102
N254	N	0.833480	0.144426	-0.004102
N255	N	1.083480	0.394426	0.245898
N256	N	1.333480	0.644426	0.495898
C257	C	0.562713	-0.150507	0.473455
C258	C	0.812713	0.099493	0.723455
C259	C	1.062713	0.349493	0.973455
C260	C	1.312713	0.599493	1.223455
C261	C	0.589720	-0.092065	0.526792
C262	C	0.839720	0.157935	0.776792
C263	C	1.089720	0.407935	1.026792
C264	C	1.339720	0.657935	1.276792
C265	C	0.586247	-0.099583	0.648714
C266	C	0.836247	0.150417	0.898714
C267	C	1.086247	0.400417	1.148714
C268	C	1.336247	0.650417	1.398714
C269	C	0.566185	-0.142990	0.351522
C270	C	0.816185	0.107010	0.601522
C271	C	1.066185	0.357010	0.851522
C272	C	1.316185	0.607010	1.101522
H273	H	0.426118	-0.285045	0.000068
H274	H	0.676118	-0.035045	0.250068
H275	H	0.926118	0.214955	0.500068
H276	H	1.176118	0.464955	0.750068
H277	H	0.633184	0.377199	0.000055
H278	H	0.883184	0.627199	0.250055
H279	H	1.133184	0.877199	0.500055
H280	H	1.383184	1.127199	0.750055
H281	H	-0.189513	-0.272807	0.000125
H282	H	0.060487	-0.022807	0.250125
H283	H	0.310487	0.227193	0.500125
H284	H	0.560487	0.477193	0.750125
H285	H	0.615450	-0.036385	0.480889
H286	H	0.865450	0.213615	0.730889
H287	H	1.115450	0.463615	0.980889
H288	H	1.365450	0.713615	1.230889
H289	H	0.519250	0.380234	0.000101
H290	H	0.769250	0.630234	0.250101
H291	H	1.019250	0.880234	0.500101
H292	H	1.269250	1.130234	0.750101
H293	H	0.334579	-0.283235	0.000099
H294	H	0.584579	-0.033235	0.250099
H295	H	0.834579	0.216765	0.500099
H296	H	1.084579	0.466765	0.750099
H297	H	0.191961	-0.366816	0.000093
H298	H	0.441961	-0.116816	0.250093
H299	H	0.691961	0.133184	0.500093
H300	H	0.941961	0.383184	0.750093
H301	H	0.536985	-0.206185	0.519352
H302	H	0.786985	0.043815	0.769352
H303	H	1.036985	0.293815	1.019352
H304	H	1.286985	0.543815	1.269352
H305	H	-0.281064	-0.270976	0.000133
H306	H	-0.031064	-0.020976	0.250133
H307	H	0.218936	0.229024	0.500133
H308	H	0.468936	0.479024	0.750133
H309	H	0.100427	-0.364995	0.000113
H310	H	0.350427	-0.114995	0.250113
H311	H	0.600427	0.135005	0.500113
H312	H	0.850427	0.385005	0.750113
H313	H	-0.182149	0.040647	0.000162
H314	H	0.067851	0.290647	0.250162
H315	H	0.317851	0.540647	0.500162
H316	H	0.567851	0.790647	0.750162
H317	H	0.111864	0.121216	0.000179
H318	H	0.361864	0.371216	0.250179
H319	H	0.611864	0.621216	0.500179
H320	H	0.861864	0.871216	0.750179
H321	H	-0.273684	0.042466	0.000145
H322	H	-0.023684	0.292466	0.250145
H323	H	0.226316	0.542466	0.500145
H324	H	0.476316	0.792466	0.750145
H325	H	0.040583	-0.363806	0.000119
H326	H	0.290583	-0.113806	0.250119
H327	H	0.540583	0.136194	0.500119
H328	H	0.790583	0.386194	0.750119
H329	H	0.203401	0.119388	0.000181
H330	H	0.453401	0.369388	0.250181
H331	H	0.703401	0.619388	0.500181
H332	H	0.953401	0.869388	0.750181
H333	H	0.433491	0.028394	0.000099
H334	H	0.683491	0.278394	0.250099
H335	H	0.933491	0.528394	0.500099
H336	H	1.183491	0.778394	0.750099
H337	H	0.341938	0.030223	0.000103
H338	H	0.591938	0.280223	0.250103
H339	H	0.841938	0.530223	0.500103
H340	H	1.091938	0.780223	0.750103
H341	H	-0.039523	0.124217	0.000172
H342	H	0.210477	0.374217	0.250172
H343	H	0.460477	0.624217	0.500172
H344	H	0.710477	0.874217	0.750172
H345	H	-0.050964	-0.361973	0.000130
H346	H	0.199036	-0.111973	0.250130
H347	H	0.449036	0.138027	0.500130
H348	H	0.699036	0.388027	0.750130
H349	H	0.052011	0.122393	0.000168
H350	H	0.302011	0.372393	0.250168
H351	H	0.552011	0.622393	0.500168
H352	H	0.802011	0.872393	0.750168
