data_functionalizedCrystal
_audit_creation_method	'MofGen! by Chris Wilmer'
_symmetry_space_group_name_H-M	'P1'
_symmetry_Int_Tables_number	1
_symmetry_cell_setting	triclinic
loop_
_symmetry_equiv_pos_as_xyz
  x,y,z
_cell_length_a	13.897449
_cell_length_b	25.639239
_cell_length_c	13.897441
_cell_angle_alpha	90.034305
_cell_angle_beta	90.020733
_cell_angle_gamma	90.039966
loop_
_atom_site_label
_atom_site_type_symbol
_atom_site_fract_x
_atom_site_fract_y
_atom_site_fract_z
Zn1	Zn	1.474562	-0.208116	0.545356
Zn2	Zn	1.474397	-0.295559	0.384047
Zn3	Zn	1.313251	-0.208141	0.384075
Zn4	Zn	1.313174	-0.295524	0.545300
O5	O	1.393846	-0.251835	0.464695
O6	O	1.609522	-0.219720	0.523970
O7	O	1.452984	-0.283987	0.249069
O8	O	1.334751	-0.134973	0.405504
O9	O	1.609400	-0.283963	0.405457
O10	O	1.453265	-0.134954	0.523997
O11	O	1.334591	-0.219762	0.249089
O12	O	1.178259	-0.219729	0.405449
O13	O	1.334619	-0.283905	0.680289
O14	O	1.178202	-0.283929	0.523901
O15	O	1.453190	-0.219686	0.680331
O16	O	1.452909	-0.368719	0.405403
O17	O	1.334459	-0.368694	0.523874
C18	C	1.143232	-0.251828	0.464673
C19	C	1.036018	-0.251838	0.464686
C20	C	0.839722	-0.251840	0.464711
C21	C	0.948955	-0.251837	0.464695
C22	C	1.393684	-0.387678	0.464650
C23	C	1.393702	-0.445792	0.464664
C24	C	1.455684	-0.806155	0.403111
C25	C	1.455721	-0.860760	0.403124
O26	O	1.508251	-0.888997	0.350742
N27	N	1.394015	-0.888074	0.464758
C28	C	1.332275	-0.860782	0.526391
O29	O	1.279794	-0.889029	0.578817
C30	C	1.332243	-0.806178	0.526382
C31	C	1.393946	-0.778867	0.464737
C32	C	1.517382	-0.778844	0.341472
C33	C	1.517343	-0.724243	0.341458
C34	C	1.455606	-0.696954	0.403084
C35	C	1.393907	-0.724266	0.464723
C36	C	1.270509	-0.778887	0.588018
C37	C	1.270483	-0.724280	0.588004
C38	C	1.332186	-0.696968	0.526359
C39	C	1.332131	-0.642377	0.526334
N40	N	1.393837	-0.615062	0.464700
C41	C	1.455574	-0.642351	0.403075
C42	C	1.332348	-0.975452	0.526405
C43	C	1.332374	-1.030055	0.526410
C44	C	1.455821	-1.030029	0.403145
C45	C	1.455790	-0.975426	0.403136
C46	C	1.394054	-0.948138	0.464771
C47	C	1.455487	-0.527686	0.403050
C48	C	1.455440	-0.473081	0.403038
C49	C	1.331997	-0.473111	0.526307
C50	C	1.332040	-0.527712	0.526315
C51	C	1.393793	-0.554998	0.464683
O52	O	1.279630	-0.614105	0.578693
O53	O	1.508056	-0.614097	0.350666
C54	C	1.645439	-0.251843	0.464717
C55	C	1.752653	-0.251846	0.464727
C56	C	1.393914	-0.251789	0.716288
C57	C	1.393943	-0.251769	0.823502
C58	C	1.394035	-0.115462	0.464760
C59	C	1.394116	-0.057348	0.464788
C60	C	1.393833	-0.251843	0.214080
C61	C	1.393991	-0.251716	0.106867
C62	C	1.393970	-0.251734	1.019797
C63	C	1.393952	-0.251755	0.910564
H64	H	1.505774	-0.549896	0.352865
C65	C	1.584239	-0.694501	0.274572
C66	C	1.570992	-0.640839	0.287721
C67	C	1.632596	-0.613428	0.226112
H68	H	1.649083	-0.703348	0.288693
H69	H	1.570154	-0.703455	0.209731
H70	H	1.585083	-0.631888	0.352548
H71	H	1.506161	-0.631975	0.273593
H72	H	1.618511	-0.622382	0.161271
H73	H	1.697436	-0.622280	0.240238
H74	H	1.623610	-0.577015	0.235019
C75	C	1.265337	-1.059609	0.593437
C76	C	1.211283	-1.024017	0.647415
C77	C	1.149531	-1.051221	0.709186
H78	H	1.223255	-1.080951	0.556618
H79	H	1.302204	-1.080860	0.635560
H80	H	1.174420	-1.002775	0.605297
H81	H	1.253340	-1.002674	0.684254
H82	H	1.186397	-1.072472	0.751308
H83	H	1.107455	-1.072563	0.672358
H84	H	1.112854	-1.027076	0.745823
H85	H	1.567662	-0.801056	0.291289
H86	H	1.506034	-0.953192	0.352940
C87	C	1.522899	-1.059757	0.336423
C88	C	1.509769	-1.113421	0.349687
C89	C	1.571583	-1.140824	0.288287
H90	H	1.508954	-1.050931	0.271530
H91	H	1.587691	-1.050776	0.350683
H92	H	1.444992	-1.122399	0.335420
H93	H	1.523721	-1.122263	0.414567
H94	H	1.636374	-1.131843	0.302548
H95	H	1.557632	-1.131993	0.223398
H96	H	1.562688	-1.177238	0.297285
C97	C	1.265465	-0.945800	0.593437
C98	C	1.320019	-0.914408	0.655332
C99	C	1.258442	-0.887093	0.717103
H100	H	1.223422	-0.924494	0.556611
H101	H	1.228739	-0.969874	0.630197
H102	H	1.356728	-0.890336	0.618576
H103	H	1.362059	-0.935701	0.692180
H104	H	1.221717	-0.911168	0.753862
H105	H	1.216403	-0.865791	0.680268
H106	H	1.295449	-0.865795	0.759111
C107	C	1.203483	-0.808436	0.655059
C108	C	1.149440	-0.772839	0.709039
C109	C	1.087693	-0.800039	0.770822
H110	H	1.161393	-0.829777	0.618247
H111	H	1.240352	-0.829686	0.697179
H112	H	1.112574	-0.751598	0.666925
H113	H	1.191505	-0.751497	0.745871
H114	H	1.124562	-0.821290	0.812942
H115	H	1.045609	-0.821380	0.734002
H116	H	1.051024	-0.775892	0.807461
C117	C	1.203612	-0.694625	0.655043
C118	C	1.258177	-0.663231	0.716925
C119	C	1.196611	-0.635912	0.778699
H120	H	1.161567	-0.673320	0.618217
H121	H	1.166890	-0.718696	0.691811
H122	H	1.294884	-0.639162	0.680160
H123	H	1.300220	-0.684523	0.753771
H124	H	1.159888	-0.659984	0.815467
H125	H	1.154569	-0.614610	0.741865
H126	H	1.233624	-0.614612	0.820698
C127	C	1.265037	-0.443541	0.593376
C128	C	1.285997	-0.456782	0.688831
C129	C	1.224335	-0.429556	0.750649
H130	H	1.273803	-0.407103	0.584666
H131	H	1.200217	-0.452536	0.579276
H132	H	1.350801	-0.447784	0.702926
H133	H	1.277225	-0.493216	0.697571
H134	H	1.159515	-0.438551	0.736549
H135	H	1.233106	-0.393119	0.741931
H136	H	1.238542	-0.438540	0.815421
C137	C	1.522543	-0.443523	0.336071
C138	C	1.576636	-0.479113	0.282128
C139	C	1.638468	-0.451906	0.220441
H140	H	1.485762	-0.422259	0.293917
H141	H	1.564590	-0.422194	0.372980
H142	H	1.534594	-0.500432	0.245222
H143	H	1.613436	-0.500378	0.324257
H144	H	1.680515	-0.430577	0.257350
H145	H	1.601680	-0.430642	0.178293
H146	H	1.675184	-0.476049	0.183839
C147	C	1.264922	-0.557394	0.593077
C148	C	1.203132	-0.588793	0.538419
C149	C	1.141288	-0.616133	0.599894
H150	H	1.301701	-0.578696	0.635167
H151	H	1.228091	-0.533334	0.629755
H152	H	1.239959	-0.612850	0.501757
H153	H	1.166332	-0.567503	0.496331
H154	H	1.104456	-0.592073	0.636572
H155	H	1.178074	-0.637432	0.641982
H156	H	1.099350	-0.637437	0.562818
