data_functionalizedCrystal
_audit_creation_method	'MofGen! by Chris Wilmer'
_symmetry_space_group_name_H-M	'P1'
_symmetry_Int_Tables_number	1
_symmetry_cell_setting	triclinic
loop_
_symmetry_equiv_pos_as_xyz
  x,y,z
_cell_length_a	19.121102
_cell_length_b	19.121111
_cell_length_c	19.120915
_cell_angle_alpha	85.259367
_cell_angle_beta	90.090244
_cell_angle_gamma	89.871671
loop_
_atom_site_label
_atom_site_type_symbol
_atom_site_fract_x
_atom_site_fract_y
_atom_site_fract_z
Zn1	Zn	1.039554	0.343482	-0.456049
Zn2	Zn	1.289554	0.593482	-0.206049
Zn3	Zn	1.539554	0.843482	0.043951
Zn4	Zn	1.789554	1.093482	0.293951
Zn5	Zn	1.039469	0.456131	-0.343401
Zn6	Zn	1.289469	0.706131	-0.093401
Zn7	Zn	1.539469	0.956131	0.156599
Zn8	Zn	1.789469	1.206131	0.406599
Zn9	Zn	0.927772	0.333500	-0.333427
Zn10	Zn	1.177772	0.583500	-0.083427
Zn11	Zn	1.427772	0.833500	0.166573
Zn12	Zn	1.677772	1.083500	0.416573
Zn13	Zn	0.917297	0.455653	-0.455583
Zn14	Zn	1.167297	0.705653	-0.205583
Zn15	Zn	1.417297	0.955653	0.044417
Zn16	Zn	1.667297	1.205653	0.294417
O17	O	0.981023	0.397192	-0.397115
O18	O	1.231023	0.647192	-0.147115
O19	O	1.481023	0.897192	0.102885
O20	O	1.731023	1.147192	0.352885
O21	O	1.137454	0.362803	-0.445475
O22	O	1.387454	0.612803	-0.195475
O23	O	1.637454	0.862803	0.054525
O24	O	1.887454	1.112803	0.304525
O25	O	1.029000	0.435887	-0.243811
O26	O	1.279000	0.685887	0.006189
O27	O	1.529000	0.935887	0.256189
O28	O	1.779000	1.185887	0.506189
O29	O	0.947019	0.236559	-0.345714
O30	O	1.197019	0.486559	-0.095714
O31	O	1.447019	0.736559	0.154286
O32	O	1.697019	0.986559	0.404286
O33	O	1.137391	0.445565	-0.362713
O34	O	1.387391	0.695565	-0.112713
O35	O	1.637391	0.945565	0.137287
O36	O	1.887391	1.195565	0.387287
O37	O	1.029145	0.243893	-0.435804
O38	O	1.279145	0.493893	-0.185804
O39	O	1.529145	0.743893	0.064196
O40	O	1.779145	0.993893	0.314196
O41	O	0.946937	0.345790	-0.236483
O42	O	1.196937	0.595790	0.013517
O43	O	1.446937	0.845790	0.263517
O44	O	1.696937	1.095790	0.513517
O45	O	0.828472	0.345327	-0.345262
O46	O	1.078472	0.595327	-0.095262
O47	O	1.328472	0.845327	0.154738
O48	O	1.578472	1.095327	0.404738
O49	O	0.929167	0.444751	-0.553912
O50	O	1.179167	0.694751	-0.303912
O51	O	1.429167	0.944751	-0.053912
O52	O	1.679167	1.194751	0.196088
O53	O	0.820776	0.435072	-0.435010
O54	O	1.070776	0.685072	-0.185010
O55	O	1.320776	0.935072	0.064990
O56	O	1.570776	1.185072	0.314990
O57	O	1.018989	0.362339	-0.554254
O58	O	1.268989	0.612339	-0.304254
O59	O	1.518989	0.862339	-0.054254
O60	O	1.768989	1.112339	0.195746
O61	O	1.018843	0.554333	-0.362261
O62	O	1.268843	0.804333	-0.112261
O63	O	1.518843	1.054333	0.137739
O64	O	1.768843	1.304333	0.387739
O65	O	0.929084	0.553982	-0.444681
O66	O	1.179084	0.803982	-0.194681
O67	O	1.429084	1.053982	0.055319
O68	O	1.679084	1.303982	0.305319
C69	C	0.799237	0.389065	-0.389004
C70	C	1.049237	0.639065	-0.139004
C71	C	1.299237	0.889065	0.110996
C72	C	1.549237	1.139065	0.360996
C73	C	0.721466	0.385606	-0.385551
C74	C	0.971466	0.635606	-0.135551
C75	C	1.221466	0.885606	0.114449
C76	C	1.471466	1.135606	0.364449
C77	C	0.972836	0.579638	-0.404519
C78	C	1.222836	0.829638	-0.154519
C79	C	1.472836	1.079638	0.095481
C80	C	1.722836	1.329638	0.345481
C81	C	0.969397	0.657694	-0.407712
C82	C	1.219397	0.907694	-0.157712
C83	C	1.469397	1.157694	0.092288
C84	C	1.719397	1.407694	0.342288
C85	C	0.680941	0.430771	-0.430588
C86	C	0.930941	0.680771	-0.180588
C87	C	1.180941	0.930771	0.069412
C88	C	1.430941	1.180771	0.319412
C89	C	0.607868	0.427512	-0.427347
C90	C	0.857868	0.677512	-0.177347
C91	C	1.107868	0.927512	0.072653
C92	C	1.357868	1.177512	0.322653
C93	C	0.575321	0.379090	-0.379065
C94	C	0.825321	0.629090	-0.129065
C95	C	1.075321	0.879090	0.120935
C96	C	1.325321	1.129090	0.370935
C97	C	0.615851	0.333920	-0.334026
C98	C	0.865851	0.583920	-0.084026
C99	C	1.115851	0.833920	0.165974
C100	C	1.365851	1.083920	0.415974
C101	C	0.688923	0.337176	-0.337271
C102	C	0.938923	0.587176	-0.087271
C103	C	1.188923	0.837176	0.162729
C104	C	1.438923	1.087176	0.412729
C105	C	0.354890	0.366914	-0.366935
C106	C	0.604890	0.616914	-0.116935
C107	C	0.854890	0.866914	0.133065
C108	C	1.104890	1.116914	0.383065
C109	C	0.281813	0.363662	-0.363692
C110	C	0.531813	0.613662	-0.113692
C111	C	0.781813	0.863662	0.136308
C112	C	1.031813	1.113662	0.386308
C113	C	0.273835	0.457254	-0.457014
C114	C	0.523835	0.707254	-0.207014
C115	C	0.773835	0.957254	0.042986
C116	C	1.023835	1.207254	0.292986
C117	C	0.346909	0.460509	-0.460252
C118	C	0.596909	0.710509	-0.210252
C119	C	0.846909	0.960509	0.039748
C120	C	1.096909	1.210509	0.289748
C121	C	0.387432	0.415336	-0.415216
C122	C	0.637432	0.665336	-0.165216
C123	C	0.887432	0.915336	0.084784
C124	C	1.137432	1.165336	0.334784
C125	C	0.500628	0.375759	-0.375749
C126	C	0.750628	0.625759	-0.125749
C127	C	1.000628	0.875759	0.124251
C128	C	1.250628	1.125759	0.374251
C129	C	0.462124	0.418664	-0.418535
C130	C	0.712124	0.668664	-0.168535
C131	C	0.962124	0.918664	0.081465
C132	C	1.212124	1.168664	0.331465
C133	C	1.014547	0.694527	-0.366340
C134	C	1.264547	0.944527	-0.116340
C135	C	1.514547	1.194527	0.133660
C136	C	1.764547	1.444527	0.383660
C137	C	1.011316	0.767868	-0.369348
C138	C	1.261316	1.017868	-0.119348
C139	C	1.511316	1.267868	0.130652
C140	C	1.761316	1.517868	0.380652
C141	C	0.962931	0.804375	-0.413725
C142	C	1.212931	1.054375	-0.163725
C143	C	1.462931	1.304375	0.086275
C144	C	1.712931	1.554375	0.336275
C145	C	0.917779	0.767537	-0.455102
C146	C	1.167779	1.017537	-0.205102
C147	C	1.417779	1.267537	0.044898
C148	C	1.667779	1.517537	0.294898
C149	C	0.921014	0.694197	-0.452098
C150	C	1.171014	0.944197	-0.202098
C151	C	1.421014	1.194197	0.047902
C152	C	1.671014	1.444197	0.297902
C153	C	0.950828	1.025806	-0.424946
C154	C	1.200828	1.275806	-0.174946
C155	C	1.450828	1.525806	0.075054
C156	C	1.700828	1.775806	0.325054
C157	C	0.947596	1.099151	-0.427946
C158	C	1.197596	1.349151	-0.177946
C159	C	1.447596	1.599151	0.072054
C160	C	1.697596	1.849151	0.322054
C161	C	1.041133	1.099477	-0.342192
C162	C	1.291133	1.349477	-0.092192
C163	C	1.541133	1.599477	0.157808
C164	C	1.791133	1.849477	0.407808
C165	C	1.044361	1.026136	-0.339188
C166	C	1.294361	1.276136	-0.089188
C167	C	1.544361	1.526136	0.160812
C168	C	1.794361	1.776136	0.410812
C169	C	0.999212	0.989304	-0.380568
C170	C	1.249212	1.239304	-0.130568
C171	C	1.499212	1.489304	0.119432
C172	C	1.749212	1.739304	0.369432
C173	C	0.959626	0.879342	-0.416799
C174	C	1.209626	1.129342	-0.166799
C175	C	1.459626	1.379342	0.083201
C176	C	1.709626	1.629342	0.333201
C177	C	1.002520	0.914339	-0.377497
C178	C	1.252520	1.164339	-0.127497
C179	C	1.502520	1.414339	0.122503
C180	C	1.752520	1.664339	0.372503
C181	C	1.163519	0.405351	-0.405259
C182	C	1.413519	0.655351	-0.155259
C183	C	1.663519	0.905351	0.094741
C184	C	1.913519	1.155351	0.344741
C185	C	1.241288	0.408828	-0.408729
C186	C	1.491288	0.658828	-0.158729
C187	C	1.741288	0.908828	0.091271
C188	C	1.991288	1.158828	0.341271
C189	C	0.972919	0.404605	-0.580275
C190	C	1.222919	0.654605	-0.330275
C191	C	1.472919	0.904605	-0.080275
C192	C	1.722919	1.154605	0.169725
C193	C	0.969466	0.407765	-0.658327
C194	C	1.219466	0.657765	-0.408327
C195	C	1.469466	0.907765	-0.158327
C196	C	1.719466	1.157765	0.091673
C197	C	0.989254	1.214034	-0.389707
C198	C	1.239254	1.464034	-0.139707
C199	C	1.489254	1.714034	0.110293
C200	C	1.739254	1.964034	0.360293
C201	C	0.992746	1.135984	-0.386573
C202	C	1.242746	1.385984	-0.136573
C203	C	1.492746	1.635984	0.113427
C204	C	1.742746	1.885984	0.363427
C205	C	0.947593	0.427824	-1.099765
C206	C	1.197593	0.677824	-0.849765
C207	C	1.447593	0.927824	-0.599765
C208	C	1.697593	1.177824	-0.349765
C209	C	0.950835	0.424845	-1.026426
C210	C	1.200835	0.674845	-0.776426
C211	C	1.450835	0.924845	-0.526426
C212	C	1.700835	1.174845	-0.276426
C213	C	0.999225	0.380453	-0.989939
C214	C	1.249225	0.630453	-0.739939
C215	C	1.499225	0.880453	-0.489939
C216	C	1.749225	1.130453	-0.239939
C217	C	1.044371	0.339031	-1.026794
C218	C	1.294371	0.589031	-0.776794
C219	C	1.544371	0.839031	-0.526794
C220	C	1.794371	1.089031	-0.276794
C221	C	1.041124	0.342007	-1.100131
C222	C	1.291124	0.592007	-0.850131
C223	C	1.541124	0.842007	-0.600131
C224	C	1.791124	1.092007	-0.350131
C225	C	1.011364	0.369319	-0.768518
C226	C	1.261364	0.619319	-0.518518
C227	C	1.511364	0.869319	-0.268518
C228	C	1.761364	1.119319	-0.018518
C229	C	1.014609	0.366348	-0.695176
C230	C	1.264609	0.616348	-0.445176
C231	C	1.514609	0.866348	-0.195176
C232	C	1.764609	1.116348	0.054824
C233	C	0.921072	0.452161	-0.694814
C234	C	1.171072	0.702161	-0.444814
C235	C	1.421072	0.952161	-0.194814
C236	C	1.671072	1.202161	0.055186
C237	C	0.917833	0.455136	-0.768152
C238	C	1.167833	0.705136	-0.518152
C239	C	1.417833	0.955136	-0.268152
C240	C	1.667833	1.205136	-0.018152
C241	C	0.962976	0.413712	-0.805000
C242	C	1.212976	0.663712	-0.555000
C243	C	1.462976	0.913712	-0.305000
C244	C	1.712976	1.163712	-0.055000
C245	C	1.002542	0.377408	-0.914975
C246	C	1.252542	0.627408	-0.664975
C247	C	1.502542	0.877408	-0.414975
C248	C	1.752542	1.127408	-0.164975
C249	C	0.959655	0.416753	-0.879962
C250	C	1.209655	0.666753	-0.629962
C251	C	1.459655	0.916753	-0.379962
C252	C	1.709655	1.166753	-0.129962
C253	C	0.989138	0.389758	-0.214668
C254	C	1.239138	0.639758	0.035332
C255	C	1.489138	0.889758	0.285332
C256	C	1.739138	1.139758	0.535332
C257	C	0.992736	0.386407	-0.136614
C258	C	1.242736	0.636407	0.113386
C259	C	1.492736	0.886407	0.363386
C260	C	1.742736	1.136407	0.613386
H261	H	0.707436	0.470204	-0.469902
H262	H	0.957436	0.720204	-0.219902
H263	H	1.207436	0.970204	0.030098
H264	H	1.457436	1.220204	0.280098
Cl265	Cl	1.068151	0.317280	-0.814835
Cl266	Cl	1.318151	0.567280	-0.564835
Cl267	Cl	1.568151	0.817280	-0.314835
Cl268	Cl	1.818151	1.067280	-0.064835
H269	H	0.373403	0.499940	-0.499567
H270	H	0.623403	0.749940	-0.249567
H271	H	0.873403	0.999940	0.000433
H272	H	1.123403	1.249940	0.250433
Cl273	Cl	0.574935	0.273042	-0.273332
Cl274	Cl	0.824935	0.523042	-0.023332
Cl275	Cl	1.074935	0.773042	0.226668
Cl276	Cl	1.324935	1.023042	0.476668
Cl277	Cl	0.459706	0.314888	-0.315053
Cl278	Cl	0.709706	0.564888	-0.065053
Cl279	Cl	0.959706	0.814888	0.184947
Cl280	Cl	1.209706	1.064888	0.434947
Cl281	Cl	1.063355	0.321582	-0.869098
Cl282	Cl	1.313355	0.571582	-0.619098
Cl283	Cl	1.563355	0.821582	-0.369098
Cl284	Cl	1.813355	1.071582	-0.119098
H285	H	0.914065	0.995823	-0.458637
H286	H	1.164065	1.245823	-0.208637
H287	H	1.414065	1.495823	0.041363
H288	H	1.664065	1.745823	0.291363
Cl289	Cl	0.739869	0.280393	-0.280652
Cl290	Cl	0.989869	0.530393	-0.030652
Cl291	Cl	1.239869	0.780393	0.219348
Cl292	Cl	1.489869	1.030393	0.469348
H293	H	1.083760	0.996413	-0.303052
H294	H	1.333760	1.246413	-0.053052
H295	H	1.583760	1.496413	0.196948
H296	H	1.833760	1.746413	0.446948
H297	H	0.908191	0.463977	-1.129467
H298	H	1.158191	0.713977	-0.879467
H299	H	1.408191	0.963977	-0.629467
H300	H	1.658191	1.213977	-0.379467
Cl301	Cl	0.240898	0.302790	-0.302985
Cl302	Cl	0.490898	0.552790	-0.052985
Cl303	Cl	0.740898	0.802790	0.197015
Cl304	Cl	0.990898	1.052790	0.447015
Cl305	Cl	0.222887	0.514039	-0.513626
Cl306	Cl	0.472887	0.764039	-0.263626
Cl307	Cl	0.722887	1.014039	-0.013626
Cl308	Cl	0.972887	1.264039	0.236374
H309	H	0.574876	0.464291	-0.464020
H310	H	0.824876	0.714291	-0.214020
H311	H	1.074876	0.964291	0.035980
H312	H	1.324876	1.214291	0.285980
Cl313	Cl	0.886756	1.145044	-0.483729
Cl314	Cl	1.136756	1.395044	-0.233729
Cl315	Cl	1.386756	1.645044	0.016271
Cl316	Cl	1.636756	1.895044	0.266271
H317	H	0.488627	0.458086	-0.457849
H318	H	0.738627	0.708086	-0.207849
H319	H	0.988627	0.958086	0.042151
H320	H	1.238627	1.208086	0.292151
Cl321	Cl	1.105188	0.283205	-0.980923
Cl322	Cl	1.355188	0.533205	-0.730923
Cl323	Cl	1.605188	0.783205	-0.480923
Cl324	Cl	1.855188	1.033205	-0.230923
H325	H	1.048081	0.797854	-0.335657
H326	H	1.298081	1.047854	-0.085657
H327	H	1.548081	1.297854	0.164343
H328	H	1.798081	1.547854	0.414343
H329	H	1.053944	0.664807	-0.330200
H330	H	1.303944	0.914807	-0.080200
H331	H	1.553944	1.164807	0.169800
H332	H	1.803944	1.414807	0.419800
Cl333	Cl	1.097893	1.145784	-0.290180
Cl334	Cl	1.347893	1.395784	-0.040180
Cl335	Cl	1.597893	1.645784	0.209820
Cl336	Cl	1.847893	1.895784	0.459820
Cl337	Cl	0.856956	0.813432	-0.510895
Cl338	Cl	1.106956	1.063432	-0.260895
Cl339	Cl	1.356956	1.313432	-0.010895
Cl340	Cl	1.606956	1.563432	0.239105
H341	H	1.041918	0.884613	-0.341368
H342	H	1.291918	1.134613	-0.091368
H343	H	1.541918	1.384613	0.158632
H344	H	1.791918	1.634613	0.408632
Cl345	Cl	0.864254	0.647893	-0.504114
Cl346	Cl	1.114254	0.897893	-0.254114
Cl347	Cl	1.364254	1.147893	-0.004114
Cl348	Cl	1.614254	1.397893	0.245886
H349	H	0.387876	0.330136	-0.330258
H350	H	0.637876	0.580136	-0.080258
H351	H	0.887876	0.830136	0.169742
H352	H	1.137876	1.080136	0.419742
H353	H	0.920230	0.909073	-0.452930
H354	H	1.170230	1.159073	-0.202930
H355	H	1.420230	1.409073	0.047070
H356	H	1.670230	1.659073	0.297070
Cl357	Cl	1.097870	0.289928	-1.146455
Cl358	Cl	1.347870	0.539928	-0.896455
Cl359	Cl	1.597870	0.789928	-0.646455
Cl360	Cl	1.847870	1.039928	-0.396455
H361	H	0.878429	0.491286	-0.797855
H362	H	1.128429	0.741286	-0.547855
H363	H	1.378429	0.991286	-0.297855
H364	H	1.628429	1.241286	-0.047855
Cl365	Cl	0.898822	0.472556	-0.925832
Cl366	Cl	1.148822	0.722556	-0.675832
Cl367	Cl	1.398822	0.972556	-0.425832
Cl368	Cl	1.648822	1.222556	-0.175832
H369	H	0.914082	0.458579	-0.996427
H370	H	1.164082	0.708579	-0.746427
H371	H	1.414082	0.958579	-0.496427
H372	H	1.664082	1.208579	-0.246427
H373	H	0.884319	0.485886	-0.664804
H374	H	1.134319	0.735886	-0.414804
H375	H	1.384319	0.985886	-0.164804
H376	H	1.634319	1.235886	0.085196
Cl377	Cl	1.075448	0.310537	-0.649308
Cl378	Cl	1.325448	0.560537	-0.399308
Cl379	Cl	1.575448	0.810537	-0.149308
Cl380	Cl	1.825448	1.060537	0.100692
