data_functionalizedCrystal
_audit_creation_method	'MofGen! by Chris Wilmer'
_symmetry_space_group_name_H-M	'P1'
_symmetry_Int_Tables_number	1
_symmetry_cell_setting	triclinic
loop_
_symmetry_equiv_pos_as_xyz
  x,y,z
_cell_length_a	19.121102
_cell_length_b	18.215405
_cell_length_c	18.215399
_cell_angle_alpha	90.030551
_cell_angle_beta	87.541604
_cell_angle_gamma	92.420928
loop_
_atom_site_label
_atom_site_type_symbol
_atom_site_fract_x
_atom_site_fract_y
_atom_site_fract_z
Zn1	Zn	1.073728	0.341065	-0.464034
Zn2	Zn	1.407061	0.674398	-0.130701
Zn3	Zn	1.740394	1.007732	0.202633
Zn4	Zn	1.073640	0.464132	-0.340958
Zn5	Zn	1.406974	0.797466	-0.007625
Zn6	Zn	1.740307	1.130799	0.325709
Zn7	Zn	0.956277	0.335830	-0.335738
Zn8	Zn	1.289610	0.669163	-0.002405
Zn9	Zn	1.622943	1.002496	0.330928
Zn10	Zn	0.956244	0.458834	-0.458742
Zn11	Zn	1.289577	0.792168	-0.125409
Zn12	Zn	1.622911	1.125501	0.207924
O13	O	1.014972	0.399965	-0.399868
O14	O	1.348306	0.733299	-0.066535
O15	O	1.681639	1.066632	0.266798
O16	O	1.172001	0.361798	-0.452107
O17	O	1.505334	0.695132	-0.118773
O18	O	1.838667	1.028465	0.214560
O19	O	1.058049	0.447139	-0.237280
O20	O	1.391382	0.780472	0.096053
O21	O	1.724715	1.113805	0.429386
O22	O	0.971907	0.233542	-0.352787
O23	O	1.305240	0.566875	-0.019454
O24	O	1.638574	0.900209	0.313880
O25	O	1.171936	0.452215	-0.361683
O26	O	1.505270	0.785549	-0.028350
O27	O	1.838603	1.118882	0.304983
O28	O	1.058198	0.237388	-0.447045
O29	O	1.391531	0.570722	-0.113712
O30	O	1.724864	0.904055	0.219621
O31	O	0.971822	0.352875	-0.233445
O32	O	1.305156	0.686209	0.099888
O33	O	1.638489	1.019542	0.433221
O34	O	0.857988	0.347738	-0.347656
O35	O	1.191321	0.681071	-0.014323
O36	O	1.524655	1.014405	0.319011
O37	O	0.971852	0.443186	-0.562430
O38	O	1.305185	0.776519	-0.229096
O39	O	1.638518	1.109852	0.104237
O40	O	0.857964	0.438109	-0.438027
O41	O	1.191297	0.771442	-0.104693
O42	O	1.524631	1.104776	0.228640
O43	O	1.058166	0.356661	-0.566317
O44	O	1.391500	0.689994	-0.232984
O45	O	1.724833	1.023328	0.100349
O46	O	1.058017	0.566412	-0.356553
O47	O	1.391351	0.899745	-0.023219
O48	O	1.724684	1.233078	0.310114
O49	O	0.971767	0.562519	-0.443088
O50	O	1.305100	0.895852	-0.109755
O51	O	1.638433	1.229186	0.223579
C52	C	0.832492	0.391781	-0.391701
C53	C	1.165825	0.725114	-0.058368
C54	C	1.499159	1.058448	0.274966
C55	C	0.754426	0.388298	-0.388225
C56	C	1.087759	0.721631	-0.054891
C57	C	1.421093	1.054964	0.278442
C58	C	1.014898	0.591168	-0.399829
C59	C	1.348231	0.924502	-0.066496
C60	C	1.681565	1.257835	0.266837
C61	C	1.014931	0.672969	-0.399840
C62	C	1.348264	1.006302	-0.066507
C63	C	1.681597	1.339635	0.266826
C64	C	1.015015	0.399916	-0.591823
C65	C	1.348348	0.733250	-0.258490
C66	C	1.681682	1.066583	0.074844
C67	C	1.015033	0.399896	-0.673623
C68	C	1.348367	0.733229	-0.340290
C69	C	1.681700	1.066562	-0.006956
C70	C	0.717756	0.433783	-0.433569
C71	C	1.051090	0.767117	-0.100235
C72	C	1.384423	1.100450	0.233098
C73	C	0.644405	0.430501	-0.430306
C74	C	0.977739	0.763834	-0.096972
C75	C	1.311072	1.097167	0.236361
C76	C	0.607725	0.381735	-0.381695
C77	C	0.941058	0.715069	-0.048361
C78	C	1.274392	1.048402	0.284972
C79	C	0.644400	0.336244	-0.336349
C80	C	0.977733	0.669578	-0.003015
C81	C	1.311066	1.002911	0.330318
C82	C	0.717750	0.339524	-0.339616
C83	C	1.051083	0.672857	-0.006283
C84	C	1.384416	1.006191	0.327051
C85	C	0.386256	0.369472	-0.369483
C86	C	0.719589	0.702805	-0.036150
C87	C	1.052922	1.036139	0.297184
C88	C	0.312901	0.366197	-0.366218
C89	C	0.646234	0.699531	-0.032884
C90	C	0.979567	1.032864	0.300449
C91	C	0.312911	0.460453	-0.460176
C92	C	0.646244	0.793786	-0.126843
C93	C	0.979578	1.127120	0.206491
C94	C	0.386262	0.463731	-0.463436
C95	C	0.719596	0.797065	-0.130102
C96	C	1.052929	1.130398	0.203231
C97	C	0.422931	0.418238	-0.418093
C98	C	0.756264	0.751571	-0.084759
C99	C	1.089597	1.084905	0.248574
C100	C	0.532748	0.378380	-0.378356
C101	C	0.866082	0.711714	-0.045023
C102	C	1.199415	1.045047	0.288310
C103	C	0.497906	0.421590	-0.421435
C104	C	0.831239	0.754923	-0.088102
C105	C	1.164573	1.088257	0.245232
C106	C	1.198165	0.408182	-0.408068
C107	C	1.531498	0.741515	-0.074734
C108	C	1.864832	1.074849	0.258599
C109	C	1.276231	0.411683	-0.411562
C110	C	1.609564	0.745017	-0.078228
C111	C	1.942898	1.078350	0.255105
C112	C	1.015066	0.208016	-0.399924
C113	C	1.348399	0.541350	-0.066591
C114	C	1.681732	0.874683	0.266743
C115	C	1.015106	0.126219	-0.399948
C116	C	1.348439	0.459553	-0.066614
C117	C	1.681772	0.792886	0.266719
C118	C	1.059947	0.863170	-0.354873
C119	C	1.393280	1.196503	-0.021539
C120	C	1.726613	1.529836	0.311794
C121	C	1.059978	0.940030	-0.354892
C122	C	1.393311	1.273363	-0.021559
C123	C	1.726645	1.606696	0.311775
C124	C	0.970088	0.936013	-0.444921
C125	C	1.303421	1.269346	-0.111587
C126	C	1.636754	1.602680	0.221746
C127	C	0.970060	0.859154	-0.444905
C128	C	1.303394	1.192488	-0.111571
C129	C	1.636727	1.525821	0.221762
C130	C	1.014989	0.822735	-0.399877
C131	C	1.348322	1.156068	-0.066543
C132	C	1.681655	1.489401	0.266790
C133	C	1.015048	0.976453	-0.399912
C134	C	1.348381	1.309787	-0.066578
C135	C	1.681714	1.643120	0.266755
C136	C	1.015081	1.059788	-0.399933
C137	C	1.348415	1.393122	-0.066599
C138	C	1.681748	1.726455	0.266734
C139	C	1.014956	0.739394	-0.399856
C140	C	1.348289	1.072728	-0.066523
C141	C	1.681623	1.406061	0.266810
C142	C	1.059993	0.354799	-0.863843
C143	C	1.393327	0.688132	-0.530510
C144	C	1.726660	1.021466	-0.197176
C145	C	1.060002	0.354778	-0.940702
C146	C	1.393335	0.688111	-0.607369
C147	C	1.726669	1.021445	-0.274036
C148	C	0.970123	0.444881	-0.936643
C149	C	1.303456	0.778214	-0.603309
C150	C	1.636789	1.111547	-0.269976
C151	C	0.970111	0.444897	-0.859785
C152	C	1.303445	0.778231	-0.526452
C153	C	1.636778	1.111564	-0.193118
C154	C	1.015051	0.399858	-0.823387
C155	C	1.348384	0.733191	-0.490054
C156	C	1.681717	1.066524	-0.156721
C157	C	1.015070	0.399820	-0.977104
C158	C	1.348404	0.733153	-0.643771
C159	C	1.681737	1.066487	-0.310438
C160	C	1.015079	0.399798	-1.060438
C161	C	1.348413	0.733131	-0.727105
C162	C	1.681746	1.066464	-0.393772
C163	C	1.015041	0.399879	-0.740048
C164	C	1.348374	0.733212	-0.406714
C165	C	1.681708	1.066546	-0.073381
C166	C	1.014970	0.399963	-0.208662
C167	C	1.348303	0.733296	0.124671
C168	C	1.681637	1.066629	0.458005
C169	C	1.015088	0.399782	-0.126869
C170	C	1.348421	0.733115	0.206465
C171	C	1.681755	1.066449	0.539798
H172	H	0.747616	0.473496	-0.473151
H173	H	1.080950	0.806829	-0.139817
H174	H	1.414283	1.140163	0.193516
N175	N	0.924210	0.490936	-0.818454
N176	N	1.257543	0.824269	-0.485121
N177	N	1.590876	1.157602	-0.151788
N178	N	0.948893	0.538946	-0.776657
N179	N	1.282227	0.872279	-0.443324
N180	N	1.615560	1.205612	-0.109991
H181	H	0.916475	0.571457	-0.747466
H182	H	1.249809	0.904790	-0.414133
H183	H	1.583142	1.238124	-0.080800
H184	H	0.416122	0.503443	-0.503018
H185	H	0.749456	0.836776	-0.169685
H186	H	1.082789	1.170110	0.163648
N187	N	0.606959	0.476964	-0.476633
N188	N	0.940293	0.810298	-0.143300
N189	N	1.273626	1.143631	0.190033
N190	N	0.639717	0.520503	-0.520031
N191	N	0.973051	0.853836	-0.186698
N192	N	1.306384	1.187169	0.146635
H193	H	0.613272	0.553319	-0.552754
H194	H	0.946606	0.886652	-0.219421
H195	H	1.279939	1.219986	0.113912
H196	H	0.933507	0.965675	-0.481580
H197	H	1.266841	1.299009	-0.148247
H198	H	1.600174	1.632342	0.185087
N199	N	1.105900	0.308789	-0.826675
N200	N	1.439233	0.642122	-0.493341
N201	N	1.772566	0.975456	-0.160008
N202	N	1.146023	0.268560	-0.862809
N203	N	1.479356	0.601894	-0.529475
N204	N	1.812689	0.935227	-0.196142
H205	H	1.178445	0.236063	-0.836561
H206	H	1.511778	0.569396	-0.503228
H207	H	1.845111	0.902729	-0.169894
H208	H	0.933536	0.481552	-0.966287
H209	H	1.266870	0.814885	-0.632954
H210	H	1.600203	1.148219	-0.299621
N211	N	0.275444	0.506916	-0.506484
N212	N	0.608777	0.840250	-0.173150
N213	N	0.942111	1.173583	0.160183
N214	N	0.209954	0.503986	-0.503562
N215	N	0.543287	0.837319	-0.170229
N216	N	0.876620	1.170652	0.163105
H217	H	0.183492	0.536801	-0.536269
H218	H	0.516825	0.870134	-0.202936
H219	H	0.850158	1.203468	0.130397
N220	N	0.275440	0.316369	-0.316566
N221	N	0.608773	0.649702	0.016767
N222	N	0.942107	0.983035	0.350101
N223	N	0.283654	0.248835	-0.321945
N224	N	0.616987	0.582168	0.011389
N225	N	0.950320	0.915501	0.344722
H226	H	0.257197	0.213645	-0.286880
H227	H	0.590530	0.546978	0.046453
H228	H	0.923863	0.880311	0.379786
N229	N	0.423694	0.323003	-0.323158
N230	N	0.757028	0.656336	0.010175
N231	N	1.090361	0.989669	0.343508
N232	N	0.390933	0.279471	-0.279756
N233	N	0.724266	0.612804	0.053578
N234	N	1.057600	0.946138	0.386911
H235	H	0.417376	0.246651	-0.247034
H236	H	0.750709	0.579985	0.086299
H237	H	1.084042	0.913318	0.419633
N238	N	1.105901	0.308742	-0.982026
N239	N	1.439235	0.642075	-0.648693
N240	N	1.772568	0.975408	-0.315360
N241	N	1.101272	0.240629	-0.973253
N242	N	1.434605	0.573962	-0.639919
N243	N	1.767938	0.907296	-0.306586
H244	H	1.133689	0.208112	-1.002438
H245	H	1.467022	0.541445	-0.669105
H246	H	1.800355	0.874779	-0.335771
N247	N	0.606923	0.286430	-0.286703
N248	N	0.940257	0.619763	0.046630
N249	N	1.273590	0.953096	0.379964
N250	N	0.541433	0.283508	-0.283791
N251	N	0.874767	0.616841	0.049542
N252	N	1.208100	0.950174	0.382876
H253	H	0.514965	0.248326	-0.248727
H254	H	0.848299	0.581659	0.084607
H255	H	1.181632	0.914993	0.417940
H256	H	0.527774	0.461291	-0.461017
H257	H	0.861108	0.794625	-0.127684
H258	H	1.194441	1.127958	0.205650
N259	N	0.755198	0.293049	-0.293300
N260	N	1.088532	0.626383	0.040033
N261	N	1.421865	0.959716	0.373367
N262	N	0.722442	0.249508	-0.249903
N263	N	1.055775	0.582841	0.083430
N264	N	1.389109	0.916175	0.416764
H265	H	0.748889	0.216679	-0.217194
H266	H	1.082222	0.550013	0.116139
H267	H	1.415555	0.883346	0.449473
N268	N	0.495278	0.328563	-0.328709
N269	N	0.828611	0.661896	0.004624
N270	N	1.161944	0.995230	0.337958
N271	N	0.454376	0.279873	-0.352870
N272	N	0.787710	0.613206	-0.019536
N273	N	1.121043	0.946540	0.313797
H274	H	0.427910	0.244688	-0.317808
H275	H	0.761243	0.578021	0.015526
H276	H	1.094577	0.911354	0.348859
H277	H	1.096531	0.833519	-0.318209
H278	H	1.429864	1.166852	0.015124
H279	H	1.763198	1.500185	0.348458
N280	N	1.105889	0.981331	-0.308907
N281	N	1.439222	1.314665	0.024426
N282	N	1.772556	1.647998	0.357760
N283	N	1.081219	1.023168	-0.260893
N284	N	1.414552	1.356501	0.072440
N285	N	1.747885	1.689834	0.405773
H286	H	1.113645	1.052337	-0.228414
H287	H	1.446978	1.385670	0.104920
H288	H	1.780312	1.719004	0.438253
H289	H	0.933450	0.826230	-0.481556
H290	H	1.266783	1.159563	-0.148223
H291	H	1.600117	1.492897	0.185111
