data_functionalizedCrystal
_audit_creation_method	'MofGen! by Chris Wilmer'
_symmetry_space_group_name_H-M	'P1'
_symmetry_Int_Tables_number	1
_symmetry_cell_setting	triclinic
loop_
_symmetry_equiv_pos_as_xyz
  x,y,z
_cell_length_a	11.169417
_cell_length_b	25.639240
_cell_length_c	25.639233
_cell_angle_alpha	89.974071
_cell_angle_beta	89.990259
_cell_angle_gamma	90.034008
loop_
_atom_site_label
_atom_site_type_symbol
_atom_site_fract_x
_atom_site_fract_y
_atom_site_fract_z
Zn1	Zn	1.834660	-0.208197	-0.295543
Zn2	Zn	1.834505	-0.295616	-0.208096
Zn3	Zn	1.633980	-0.208198	-0.208126
Zn4	Zn	1.633874	-0.295605	-0.295505
O5	O	1.734255	-0.251904	-0.251818
O6	O	2.002589	-0.219797	-0.283946
O7	O	1.807884	-0.284025	-0.134935
O8	O	1.660709	-0.135033	-0.219750
O9	O	2.002475	-0.284023	-0.219700
O10	O	1.808148	-0.135032	-0.283975
O11	O	1.660559	-0.219799	-0.134957
O12	O	1.466016	-0.219789	-0.219714
O13	O	1.660530	-0.284005	-0.368675
O14	O	1.465939	-0.284006	-0.283911
O15	O	1.808046	-0.219787	-0.368703
O16	O	1.807782	-0.368780	-0.219663
O17	O	1.660380	-0.368772	-0.283882
C18	C	1.422430	-0.251897	-0.251812
C19	C	1.289030	-0.251907	-0.251821
C20	C	1.734085	-0.387747	-0.251777
C21	C	1.734122	-0.445861	-0.251777
C22	C	1.811064	-0.806185	-0.285320
C23	C	1.811099	-0.860789	-0.285330
O24	O	1.876316	-0.888993	-0.313808
N25	N	1.734421	-0.888143	-0.251868
C26	C	1.657694	-0.860890	-0.218397
O27	O	1.592475	-0.889171	-0.189936
C28	C	1.657653	-0.806287	-0.218389
C29	C	1.734345	-0.778935	-0.251850
C30	C	1.887749	-0.778834	-0.318778
C31	C	1.887715	-0.724233	-0.318767
C32	C	1.810996	-0.696984	-0.285297
C33	C	1.734311	-0.724335	-0.251838
C34	C	1.580921	-0.779034	-0.184921
C35	C	1.580886	-0.724427	-0.184916
C36	C	1.657578	-0.697076	-0.218377
C37	C	1.657558	-0.642485	-0.218357
N38	N	1.734236	-0.615131	-0.251819
C39	C	1.810955	-0.642380	-0.285289
C40	C	1.657783	-0.975560	-0.218416
C41	C	1.657829	-1.030163	-0.218420
C42	C	1.811233	-1.030058	-0.285355
C43	C	1.811193	-0.975455	-0.285347
C44	C	1.734462	-0.948207	-0.251878
C45	C	1.810878	-0.527715	-0.285262
C46	C	1.810841	-0.473110	-0.285246
C47	C	1.657433	-0.473219	-0.218314
C48	C	1.657474	-0.527820	-0.218328
C49	C	1.734201	-0.555067	-0.251806
O50	O	1.592371	-0.614247	-0.189896
O51	O	1.876151	-0.614093	-0.313750
C52	C	2.047297	-0.251911	-0.251824
C53	C	2.180697	-0.251915	-0.251827
C54	C	1.734293	-0.251895	-0.388191
C55	C	1.734310	-0.251891	-0.446305
C56	C	1.734457	-0.115531	-0.251870
C57	C	1.734544	-0.057417	-0.251892
C58	C	1.811219	-0.218353	-0.806688
C59	C	1.811234	-0.218339	-0.861292
O60	O	1.876527	-0.189885	-0.889546
N61	N	1.734442	-0.251768	-0.888587
C62	C	1.657622	-0.285211	-0.861275
O63	O	1.592306	-0.313644	-0.889506
C64	C	1.657602	-0.285222	-0.806672
C65	C	1.734407	-0.251794	-0.779380
C66	C	1.888017	-0.184927	-0.779396
C67	C	1.888003	-0.184942	-0.724795
C68	C	1.811192	-0.218384	-0.697487
C69	C	1.734394	-0.251809	-0.724779
C70	C	1.580777	-0.318662	-0.779361
C71	C	1.580763	-0.318670	-0.724754
C72	C	1.657568	-0.285242	-0.697461
C73	C	1.657569	-0.285266	-0.642870
N74	N	1.734360	-0.251836	-0.615575
C75	C	1.811172	-0.218395	-0.642883
C76	C	1.657668	-0.285184	-0.975946
C77	C	1.657694	-0.285175	-1.030548
C78	C	1.811304	-0.218302	-1.030562
C79	C	1.811284	-0.218314	-0.975958
C80	C	1.734460	-0.251754	-0.948651
C81	C	1.811138	-0.218430	-0.528218
C82	C	1.811121	-0.218450	-0.473613
C83	C	1.657507	-0.285321	-0.473604
C84	C	1.657528	-0.285303	-0.528205
C85	C	1.734347	-0.251854	-0.555511
O86	O	1.592305	-0.313703	-0.614582
O87	O	1.876466	-0.189962	-0.614646
C88	C	1.734285	-0.251875	-0.115975
C89	C	1.734501	-0.251732	-0.057861
H90	H	1.873297	-0.450842	-0.312494
C91	C	1.895607	-0.181675	-0.443592
C92	C	1.989796	-0.204340	-0.406053
C93	C	2.074276	-0.167565	-0.376034
C94	C	2.064567	-0.108126	-0.383554
C95	C	1.970373	-0.085458	-0.421094
C96	C	1.885893	-0.122232	-0.451113
H97	H	1.996988	-0.248343	-0.400485
H98	H	2.144005	-0.184346	-0.348244
H99	H	2.127104	-0.080903	-0.361332
H100	H	1.963182	-0.041455	-0.426662
H101	H	1.816165	-0.105452	-0.478903
C102	C	1.573168	-0.321978	-0.945911
C103	C	1.436740	-0.317709	-0.953426
C104	C	1.352239	-0.354502	-0.923396
C105	C	1.404164	-0.395564	-0.885850
C106	C	1.540599	-0.399834	-0.878334
C107	C	1.625100	-0.363041	-0.908364
H108	H	1.398295	-0.287312	-0.981221
H109	H	1.251241	-0.351341	-0.928960
H110	H	1.341611	-0.422800	-0.863620
H111	H	1.579044	-0.430231	-0.850539
H112	H	1.726098	-0.366202	-0.902800
C113	C	1.895283	-0.557681	-0.322086
C114	C	1.843257	-0.595210	-0.363129
C115	C	1.927667	-0.625175	-0.399950
C116	C	2.064104	-0.617611	-0.395727
C117	C	2.116137	-0.580080	-0.354682
C118	C	2.031727	-0.550115	-0.317862
H119	H	1.742252	-0.600811	-0.366257
H120	H	1.889147	-0.652958	-0.430334
H121	H	2.126589	-0.639793	-0.422984
H122	H	2.217142	-0.574479	-0.351555
H123	H	2.070246	-0.522332	-0.287478
H124	H	1.594998	-0.312528	-0.550427
H125	H	1.950160	-0.701967	-0.346015
H126	H	1.950222	-0.801014	-0.346036
H127	H	1.518398	-0.702244	-0.157662
H128	H	1.873845	-0.191071	-1.052806
C129	C	1.573014	-0.322108	-0.443564
C130	C	1.582716	-0.381544	-0.451059
C131	C	1.498214	-0.418329	-0.421019
C132	C	1.404011	-0.395679	-0.383485
C133	C	1.394306	-0.336240	-0.375988
C134	C	1.478807	-0.299454	-0.406027
H135	H	1.652454	-0.398314	-0.478846
H136	H	1.505399	-0.462330	-0.426569
H137	H	1.341458	-0.422910	-0.361248
H138	H	1.324568	-0.319470	-0.348201
H139	H	1.471622	-0.255453	-0.400478
H140	H	1.873688	-0.191190	-0.550444
H141	H	1.595392	-1.052428	-0.191168
H142	H	1.873641	-0.953189	-0.312594
H143	H	1.518234	-0.345883	-0.801573
C144	C	1.573387	-0.945590	-0.181590
C145	C	1.583293	-0.953136	-0.122158
C146	C	1.498897	-0.923169	-0.085333
C147	C	1.404594	-0.885656	-0.107940
C148	C	1.394683	-0.878108	-0.167374
C149	C	1.479079	-0.908075	-0.204199
H150	H	1.653106	-0.980907	-0.105421
H151	H	1.506234	-0.928757	-0.041336
H152	H	1.342118	-0.863473	-0.080680
H153	H	1.324871	-0.850338	-0.184112
H154	H	1.471742	-0.902488	-0.248197
H155	H	1.950543	-0.157721	-0.702579
H156	H	1.873700	-1.052255	-0.312609
H157	H	1.595035	-0.550090	-0.191077
H158	H	1.594973	-0.451024	-0.191062
H159	H	1.518470	-0.801294	-0.157673
C160	C	1.972523	-0.148139	-0.809428
C161	C	2.108947	-0.152418	-0.801909
C162	C	2.193468	-0.115630	-0.831937
C163	C	2.141563	-0.074564	-0.869483
C164	C	2.005132	-0.070284	-0.877003
C165	C	1.920611	-0.107072	-0.846976
H166	H	2.147376	-0.182819	-0.774114
H167	H	2.294464	-0.118799	-0.826369
H168	H	2.204130	-0.047332	-0.891711
H169	H	1.966703	-0.039883	-0.904799
H170	H	1.819615	-0.103903	-0.852543
H171	H	1.518190	-0.345897	-0.702523
H172	H	1.873823	-0.191093	-0.953740
H173	H	1.595164	-0.312402	-1.052765
