data_functionalizedCrystal
_audit_creation_method	'MofGen! by Chris Wilmer'
_symmetry_space_group_name_H-M	'P1'
_symmetry_Int_Tables_number	1
_symmetry_cell_setting	triclinic
loop_
_symmetry_equiv_pos_as_xyz
  x,y,z
_cell_length_a	27.732064
_cell_length_b	26.809956
_cell_length_c	27.732048
_cell_angle_alpha	89.990422
_cell_angle_beta	97.353960
_cell_angle_gamma	90.008415
loop_
_atom_site_label
_atom_site_type_symbol
_atom_site_fract_x
_atom_site_fract_y
_atom_site_fract_z
O1	O	0.640930	0.041396	-0.057554
O2	O	0.890930	0.291396	0.192446
O3	O	1.140930	0.541396	0.442446
O4	O	1.390930	0.791396	0.692446
O5	O	0.500138	0.041417	-0.066291
O6	O	0.750138	0.291417	0.183709
O7	O	1.000138	0.541417	0.433709
O8	O	1.250138	0.791417	0.683709
O9	O	0.574907	0.041396	0.008474
O10	O	0.824907	0.291396	0.258474
O11	O	1.074907	0.541396	0.508474
O12	O	1.324907	0.791396	0.758474
O13	O	0.566161	0.041417	-0.132319
O14	O	0.816161	0.291417	0.117681
O15	O	1.066161	0.541417	0.367681
O16	O	1.316161	0.791417	0.617681
O17	O	0.574884	-0.041563	0.008474
O18	O	0.824884	0.208437	0.258474
O19	O	1.074884	0.458437	0.508474
O20	O	1.324884	0.708437	0.758474
O21	O	0.500115	-0.041542	-0.066291
O22	O	0.750115	0.208458	0.183709
O23	O	1.000115	0.458458	0.433709
O24	O	1.250115	0.708458	0.683709
O25	O	0.640907	-0.041563	-0.057554
O26	O	0.890907	0.208437	0.192446
O27	O	1.140907	0.458437	0.442446
O28	O	1.390907	0.708437	0.692446
Zn29	Zn	0.570507	-0.054724	-0.061923
Zn30	Zn	0.820507	0.195276	0.188077
Zn31	Zn	1.070507	0.445276	0.438077
Zn32	Zn	1.320507	0.695276	0.688077
Zn33	Zn	0.570538	0.054578	-0.061923
Zn34	Zn	0.820538	0.304578	0.188077
Zn35	Zn	1.070538	0.554578	0.438077
Zn36	Zn	1.320538	0.804578	0.688077
O37	O	0.566138	-0.041543	-0.132319
O38	O	0.816138	0.208457	0.117681
O39	O	1.066138	0.458457	0.367681
O40	O	1.316138	0.708457	0.617681
C41	C	0.482120	-0.000060	-0.066106
C42	C	0.732120	0.249940	0.183894
C43	C	0.982120	0.499940	0.433894
C44	C	1.232120	0.749940	0.683894
C45	C	0.428465	-0.000052	-0.065551
C46	C	0.678465	0.249948	0.184449
C47	C	0.928465	0.499948	0.434449
C48	C	1.178465	0.749948	0.684449
N49	N	0.570490	-0.129320	-0.061922
N50	N	0.820490	0.120680	0.188078
N51	N	1.070490	0.370680	0.438078
N52	N	1.320490	0.620680	0.688078
C53	C	0.051392	-0.000087	-0.017583
C54	C	0.301392	0.249913	0.232417
C55	C	0.551392	0.499913	0.482417
C56	C	0.801392	0.749913	0.732417
C57	C	0.253053	-0.000074	-0.019630
C58	C	0.503053	0.249926	0.230370
C59	C	0.753053	0.499926	0.480370
C60	C	1.003053	0.749926	0.730370
O61	O	0.284305	-0.000098	0.017591
O62	O	0.534305	0.249902	0.267591
O63	O	0.784305	0.499902	0.517591
O64	O	1.034305	0.749902	0.767591
N65	N	0.272180	-0.000066	-0.063964
N66	N	0.522180	0.249934	0.186036
N67	N	0.772180	0.499934	0.436036
N68	N	1.022180	0.749934	0.686036
C69	C	0.240889	-0.000064	-0.107790
C70	C	0.490889	0.249936	0.142210
C71	C	0.740889	0.499936	0.392210
C72	C	0.990889	0.749936	0.642210
O73	O	0.261785	-0.000061	-0.145546
O74	O	0.511785	0.249939	0.104454
O75	O	0.761785	0.499939	0.354454
O76	O	1.011785	0.749939	0.604454
C77	C	0.039230	-0.000080	-0.105743
C78	C	0.289230	0.249920	0.144257
C79	C	0.539230	0.499920	0.394257
C80	C	0.789230	0.749920	0.644257
C81	C	0.020105	-0.000084	-0.061406
C82	C	0.270105	0.249916	0.188594
C83	C	0.520105	0.499916	0.438594
C84	C	0.770105	0.749916	0.688594
C85	C	0.032267	-0.000092	0.026750
C86	C	0.282267	0.249908	0.276750
C87	C	0.532267	0.499908	0.526750
C88	C	0.782267	0.749908	0.776750
C89	C	-0.018145	-0.000092	0.027261
C90	C	0.231855	0.249908	0.277261
C91	C	0.481855	0.499908	0.527261
C92	C	0.731855	0.749908	0.777261
C93	C	-0.049432	-0.000089	-0.016561
C94	C	0.200568	0.249911	0.233439
C95	C	0.450568	0.499911	0.483439
C96	C	0.700568	0.749911	0.733439
C97	C	-0.030307	-0.000085	-0.060895
C98	C	0.219693	0.249915	0.189105
C99	C	0.469693	0.499915	0.439105
C100	C	0.719693	0.749915	0.689105
C101	C	0.007940	-0.000082	-0.149568
C102	C	0.257940	0.249918	0.100432
C103	C	0.507940	0.499918	0.350432
C104	C	0.757940	0.749918	0.600432
C105	C	-0.042478	-0.000087	-0.149053
C106	C	0.207522	0.249913	0.100947
C107	C	0.457522	0.499913	0.350947
C108	C	0.707522	0.749913	0.600947
C109	C	-0.061602	-0.000091	-0.104716
C110	C	0.188398	0.249909	0.145284
C111	C	0.438398	0.499909	0.395284
C112	C	0.688398	0.749909	0.645284
C113	C	-0.112006	-0.000082	-0.104206
C114	C	0.137994	0.249918	0.145794
C115	C	0.387994	0.499918	0.395794
C116	C	0.637994	0.749918	0.645794
N117	N	-0.131134	-0.000090	-0.059872
N118	N	0.118866	0.249910	0.190128
N119	N	0.368866	0.499910	0.440128
N120	N	0.618866	0.749910	0.690128
C121	C	-0.099846	-0.000094	-0.016049
C122	C	0.150154	0.249906	0.233951
C123	C	0.400154	0.499906	0.483951
C124	C	0.650154	0.749906	0.733951
C125	C	0.346763	-0.000054	-0.108861
C126	C	0.596763	0.249946	0.141139
C127	C	0.846763	0.499946	0.391139
C128	C	1.096763	0.749946	0.641139
C129	C	0.397178	-0.000049	-0.109373
C130	C	0.647178	0.249951	0.140627
C131	C	0.897178	0.499951	0.390627
C132	C	1.147178	0.749951	0.640627
C133	C	0.409338	-0.000060	-0.021213
C134	C	0.659338	0.249940	0.228787
C135	C	0.909338	0.499940	0.478787
C136	C	1.159338	0.749940	0.728787
C137	C	0.358923	-0.000062	-0.020701
C138	C	0.608923	0.249938	0.229299
C139	C	0.858923	0.499938	0.479299
C140	C	1.108923	0.749938	0.729299
C141	C	0.327636	-0.000062	-0.064527
C142	C	0.577636	0.249938	0.185473
C143	C	0.827636	0.499938	0.435473
C144	C	1.077636	0.749938	0.685473
C145	C	-0.205716	-0.000095	-0.014979
C146	C	0.044284	0.249905	0.235021
C147	C	0.294284	0.499905	0.485021
C148	C	0.544284	0.749905	0.735021
C149	C	-0.256133	-0.000093	-0.014472
C150	C	-0.006133	0.249907	0.235528
C151	C	0.243867	0.499907	0.485528
C152	C	0.493867	0.749907	0.735528
C153	C	-0.268289	-0.000084	-0.102632
C154	C	-0.018289	0.249916	0.147368
C155	C	0.231711	0.499916	0.397368
C156	C	0.481711	0.749916	0.647368
C157	C	-0.217876	-0.000083	-0.103140
C158	C	0.032124	0.249917	0.146860
C159	C	0.282124	0.499917	0.396860
C160	C	0.532124	0.749917	0.646860
C161	C	-0.186590	-0.000090	-0.059309
C162	C	0.063410	0.249910	0.190691
C163	C	0.313410	0.499910	0.440691
C164	C	0.563410	0.749910	0.690691
O165	O	-0.143287	-0.000063	-0.141407
O166	O	0.106713	0.249937	0.108593
O167	O	0.356713	0.499937	0.358593
O168	O	0.606713	0.749937	0.608593
O169	O	-0.120752	-0.000107	0.021701
O170	O	0.129248	0.249893	0.271701
O171	O	0.379248	0.499893	0.521701
O172	O	0.629248	0.749893	0.771701
C173	C	0.101804	-0.000087	-0.018094
C174	C	0.351804	0.249913	0.231906
C175	C	0.601804	0.499913	0.481906
C176	C	0.851804	0.749913	0.731906
C177	C	0.120929	-0.000083	-0.062428
C178	C	0.370929	0.249917	0.187572
C179	C	0.620929	0.499917	0.437572
C180	C	0.870929	0.749917	0.687572
C181	C	0.089642	-0.000079	-0.106250
C182	C	0.339642	0.249921	0.143750
C183	C	0.589642	0.499921	0.393750
C184	C	0.839642	0.749921	0.643750
C185	C	0.171344	-0.000078	-0.062940
C186	C	0.421344	0.249922	0.187060
C187	C	0.671344	0.499922	0.437060
C188	C	0.921344	0.749922	0.687060
C189	C	0.202631	-0.000081	-0.019117
C190	C	0.452631	0.249919	0.230883
C191	C	0.702631	0.499919	0.480883
C192	C	0.952631	0.749919	0.730883
C193	C	0.183504	-0.000090	0.025217
C194	C	0.433504	0.249910	0.275217
C195	C	0.683504	0.499910	0.525217
C196	C	0.933504	0.749910	0.775217
C197	C	0.133092	-0.000090	0.025728
C198	C	0.383092	0.249910	0.275728
C199	C	0.633092	0.499910	0.525728
C200	C	0.883092	0.749910	0.775728
C201	C	0.108770	-0.000071	-0.150585
C202	C	0.358770	0.249929	0.099415
C203	C	0.608770	0.499929	0.349415
C204	C	0.858770	0.749929	0.599415
C205	C	0.159183	-0.000069	-0.151092
C206	C	0.409183	0.249931	0.098908
C207	C	0.659183	0.499931	0.348908
C208	C	0.909183	0.749931	0.598908
C209	C	0.190470	-0.000073	-0.107270
C210	C	0.440470	0.249927	0.142730
C211	C	0.690470	0.499927	0.392730
C212	C	0.940470	0.749927	0.642730
C213	C	0.599628	-0.473947	-0.091035
C214	C	0.849628	-0.223947	0.158965
C215	C	1.099628	0.026053	0.408965
C216	C	1.349628	0.276053	0.658965
C217	C	0.599644	-0.682824	-0.091035
C218	C	0.849644	-0.432824	0.158965
C219	C	1.099644	-0.182824	0.408965
C220	C	1.349644	0.067176	0.658965
O221	O	0.624404	-0.709828	-0.115782
O222	O	0.874404	-0.459828	0.134218
O223	O	1.124404	-0.209828	0.384218
O224	O	1.374404	0.040172	0.634218
N225	N	0.570549	-0.708947	-0.061918
N226	N	0.820549	-0.458947	0.188082
N227	N	1.070549	-0.208947	0.438082
N228	N	1.320549	0.041053	0.688082
C229	C	0.541451	-0.682848	-0.032796
C230	C	0.791451	-0.432848	0.217204
C231	C	1.041451	-0.182848	0.467204
C232	C	1.291451	0.067152	0.717204
O233	O	0.516709	-0.709860	-0.008027
O234	O	0.766709	-0.459860	0.241973
O235	O	1.016709	-0.209860	0.491973
O236	O	1.266709	0.040140	0.741973
C237	C	0.541439	-0.473971	-0.032794
C238	C	0.791439	-0.223971	0.217206
C239	C	1.041439	0.026029	0.467206
C240	C	1.291439	0.276029	0.717206
C241	C	0.570531	-0.447851	-0.061917
C242	C	0.820531	-0.197851	0.188083
C243	C	1.070531	0.052149	0.438083
C244	C	1.320531	0.302149	0.688083
C245	C	0.628718	-0.447826	-0.120155
C246	C	0.878718	-0.197826	0.129845
C247	C	1.128718	0.052174	0.379845
C248	C	1.378718	0.302174	0.629845
C249	C	0.628712	-0.395610	-0.120157
C250	C	0.878712	-0.145610	0.129843
C251	C	1.128712	0.104390	0.379843
C252	C	1.378712	0.354390	0.629843
C253	C	0.599615	-0.369514	-0.091039
C254	C	0.849615	-0.119514	0.158961
C255	C	1.099615	0.130486	0.408961
C256	C	1.349615	0.380486	0.658961
C257	C	0.570525	-0.395634	-0.061919
C258	C	0.820525	-0.145634	0.188081
C259	C	1.070525	0.104366	0.438081
C260	C	1.320525	0.354366	0.688081
C261	C	0.512344	-0.447872	-0.003671
C262	C	0.762344	-0.197872	0.246329
C263	C	1.012344	0.052128	0.496329
C264	C	1.262344	0.302128	0.746329
C265	C	0.512344	-0.395650	-0.003672
C266	C	0.762344	-0.145650	0.246328
C267	C	1.012344	0.104350	0.496328
C268	C	1.262344	0.354350	0.746328
C269	C	0.541436	-0.369530	-0.032795
C270	C	0.791436	-0.119530	0.217205
C271	C	1.041436	0.130470	0.467205
C272	C	1.291436	0.380470	0.717205
C273	C	0.541422	-0.317322	-0.032803
C274	C	0.791422	-0.067322	0.217197
C275	C	1.041422	0.182678	0.467197
C276	C	1.291422	0.432678	0.717197
N277	N	0.570516	-0.291199	-0.061920
N278	N	0.820516	-0.041199	0.188080
N279	N	1.070516	0.208801	0.438080
N280	N	1.320516	0.458801	0.688080
C281	C	0.599613	-0.317295	-0.091038
C282	C	0.849613	-0.067295	0.158962
C283	C	1.099613	0.182705	0.408962
C284	C	1.349613	0.432705	0.658962
C285	C	0.541459	-0.792511	-0.032800
C286	C	0.791459	-0.542511	0.217200
C287	C	1.041459	-0.292511	0.467200
C288	C	1.291459	-0.042511	0.717200
C289	C	0.541462	-0.844730	-0.032801
C290	C	0.791462	-0.594730	0.217199
C291	C	1.041462	-0.344730	0.467199
C292	C	1.291462	-0.094730	0.717199
C293	C	0.599655	-0.844703	-0.091039
C294	C	0.849655	-0.594703	0.158961
C295	C	1.099655	-0.344703	0.408961
C296	C	1.349655	-0.094703	0.658961
C297	C	0.599649	-0.792483	-0.091040
C298	C	0.849649	-0.542483	0.158960
C299	C	1.099649	-0.292483	0.408960
C300	C	1.349649	-0.042483	0.658960
C301	C	0.570554	-0.766388	-0.061917
C302	C	0.820554	-0.516388	0.188083
C303	C	1.070554	-0.266388	0.438083
C304	C	1.320554	-0.016388	0.688083
C305	C	0.599598	-0.207637	-0.091040
C306	C	0.849598	0.042363	0.158960
C307	C	1.099598	0.292363	0.408960
C308	C	1.349598	0.542363	0.658960
C309	C	0.599587	-0.155416	-0.091040
C310	C	0.849587	0.094584	0.158960
C311	C	1.099587	0.344584	0.408960
C312	C	1.349587	0.594584	0.658960
C313	C	0.541396	-0.155448	-0.032801
C314	C	0.791396	0.094552	0.217199
C315	C	1.041396	0.344552	0.467199
C316	C	1.291396	0.594552	0.717199
C317	C	0.541404	-0.207664	-0.032802
C318	C	0.791404	0.042336	0.217198
C319	C	1.041404	0.292336	0.467198
C320	C	1.291404	0.542336	0.717198
C321	C	0.570509	-0.233757	-0.061923
C322	C	0.820509	0.016243	0.188077
C323	C	1.070509	0.266243	0.438077
C324	C	1.320509	0.516243	0.688077
O325	O	0.516678	-0.290286	-0.008064
O326	O	0.766678	-0.040286	0.241936
O327	O	1.016678	0.209714	0.491936
O328	O	1.266678	0.459714	0.741936
O329	O	0.624360	-0.290274	-0.115795
O330	O	0.874360	-0.040274	0.134205
O331	O	1.124360	0.209726	0.384205
O332	O	1.374360	0.459726	0.634205
C333	C	0.599634	-0.526163	-0.091033
C334	C	0.849634	-0.276163	0.158967
C335	C	1.099634	-0.026163	0.408967
C336	C	1.349634	0.223837	0.658967
C337	C	0.570543	-0.552283	-0.061913
C338	C	0.820543	-0.302283	0.188087
C339	C	1.070543	-0.052283	0.438087
C340	C	1.320543	0.197717	0.688087
C341	C	0.541447	-0.526187	-0.032795
C342	C	0.791447	-0.276187	0.217205
C343	C	1.041447	-0.026187	0.467205
C344	C	1.291447	0.223813	0.717205
C345	C	0.570546	-0.604502	-0.061914
C346	C	0.820546	-0.354502	0.188086
C347	C	1.070546	-0.104502	0.438086
C348	C	1.320546	0.145498	0.688086
C349	C	0.599643	-0.630598	-0.091032
C350	C	0.849643	-0.380598	0.158968
C351	C	1.099643	-0.130598	0.408968
C352	C	1.349643	0.119402	0.658968
C353	C	0.628737	-0.604475	-0.120150
C354	C	0.878737	-0.354475	0.129850
C355	C	1.128737	-0.104475	0.379850
C356	C	1.378737	0.145525	0.629850
C357	C	0.628731	-0.552259	-0.120151
C358	C	0.878731	-0.302259	0.129849
C359	C	1.128731	-0.052259	0.379849
C360	C	1.378731	0.197741	0.629849
C361	C	0.512352	-0.552310	-0.003678
C362	C	0.762352	-0.302310	0.246322
C363	C	1.012352	-0.052310	0.496322
C364	C	1.262352	0.197690	0.746322
C365	C	0.512360	-0.604527	-0.003679
C366	C	0.762360	-0.354527	0.246321
C367	C	1.012360	-0.104527	0.496321
C368	C	1.262360	0.145473	0.746321
C369	C	0.541457	-0.630623	-0.032797
C370	C	0.791457	-0.380623	0.217203
C371	C	1.041457	-0.130623	0.467203
C372	C	1.291457	0.119377	0.717203
C373	C	0.658925	-0.000085	-0.057739
C374	C	0.908925	0.249915	0.192261
C375	C	1.158925	0.499915	0.442261
C376	C	1.408925	0.749915	0.692261
C377	C	0.712580	-0.000090	-0.058295
C378	C	0.962580	0.249910	0.191705
C379	C	1.212580	0.499910	0.441705
C380	C	1.462580	0.749910	0.691705
C381	C	0.574712	-0.000085	0.026481
C382	C	0.824712	0.249915	0.276481
C383	C	1.074712	0.499915	0.526481
C384	C	1.324712	0.749915	0.776481
C385	C	0.574159	-0.000089	0.080136
C386	C	0.824159	0.249911	0.330136
C387	C	1.074159	0.499911	0.580136
C388	C	1.324159	0.749911	0.830136
N389	N	0.570558	0.129174	-0.061919
N390	N	0.820558	0.379174	0.188081
N391	N	1.070558	0.629174	0.438081
N392	N	1.320558	0.879174	0.688081
C393	C	0.566333	-0.000060	-0.150326
C394	C	0.816333	0.249940	0.099674
C395	C	1.066333	0.499940	0.349674
C396	C	1.316333	0.749940	0.599674
C397	C	0.566886	-0.000053	-0.203981
C398	C	0.816886	0.249947	0.046019
C399	C	1.066886	0.499947	0.296019
C400	C	1.316886	0.749947	0.546019
C401	C	0.614862	-0.000069	0.418948
C402	C	0.864862	0.249931	0.668948
C403	C	1.114862	0.499931	0.918948
C404	C	1.364862	0.749931	1.168948
C405	C	0.612811	-0.000062	0.620608
C406	C	0.862811	0.249938	0.870608
C407	C	1.112811	0.499938	1.120608
C408	C	1.362811	0.749938	1.370608
O409	O	0.650032	-0.000046	0.651862
O410	O	0.900032	0.249954	0.901862
O411	O	1.150032	0.499954	1.151862
O412	O	1.400032	0.749954	1.401862
N413	N	0.568476	-0.000056	0.639735
N414	N	0.818476	0.249944	0.889735
N415	N	1.068476	0.499944	1.139735
N416	N	1.318476	0.749944	1.389735
C417	C	0.524651	-0.000048	0.608442
C418	C	0.774651	0.249952	0.858442
C419	C	1.024651	0.499952	1.108442
C420	C	1.274651	0.749952	1.358442
O421	O	0.486895	-0.000037	0.629338
O422	O	0.736895	0.249963	0.879338
O423	O	0.986895	0.499963	1.129338
O424	O	1.236895	0.749963	1.379338
C425	C	0.526703	-0.000052	0.406784
C426	C	0.776703	0.249948	0.656784
C427	C	1.026703	0.499948	0.906784
C428	C	1.276703	0.749948	1.156784
C429	C	0.571040	-0.000063	0.387660
C430	C	0.821040	0.249937	0.637660
C431	C	1.071040	0.499937	0.887660
C432	C	1.321040	0.749937	1.137660
C433	C	0.659196	-0.000080	0.399824
C434	C	0.909196	0.249920	0.649824
C435	C	1.159196	0.499920	0.899824
C436	C	1.409196	0.749920	1.149824
C437	C	0.659709	-0.000084	0.349412
C438	C	0.909709	0.249916	0.599412
C439	C	1.159709	0.499916	0.849412
C440	C	1.409709	0.749916	1.099412
C441	C	0.615887	-0.000078	0.318124
C442	C	0.865887	0.249922	0.568124
C443	C	1.115887	0.499922	0.818124
C444	C	1.365887	0.749922	1.068124
C445	C	0.571553	-0.000067	0.337248
C446	C	0.821553	0.249933	0.587248
C447	C	1.071553	0.499933	0.837248
C448	C	1.321553	0.749933	1.087248
C449	C	0.482878	-0.000040	0.375493
C450	C	0.732878	0.249960	0.625493
C451	C	0.982878	0.499960	0.875493
C452	C	1.232878	0.749960	1.125493
C453	C	0.483395	-0.000040	0.325075
C454	C	0.733395	0.249960	0.575075
C455	C	0.983395	0.499960	0.825075
C456	C	1.233395	0.749960	1.075075
C457	C	0.527733	-0.000051	0.305952
C458	C	0.777733	0.249949	0.555952
C459	C	1.027733	0.499949	0.805952
C460	C	1.277733	0.749949	1.055952
C461	C	0.528243	-0.000066	0.255548
C462	C	0.778243	0.249934	0.505548
C463	C	1.028243	0.499934	0.755548
C464	C	1.278243	0.749934	1.005548
N465	N	0.572578	-0.000072	0.236422
N466	N	0.822578	0.249928	0.486422
N467	N	1.072578	0.499928	0.736422
N468	N	1.322578	0.749928	0.986422
C469	C	0.616400	-0.000078	0.267710
C470	C	0.866400	0.249922	0.517710
C471	C	1.116400	0.499922	0.767710
C472	C	1.366400	0.749922	1.017710
C473	C	0.523577	-0.000047	0.714317
C474	C	0.773577	0.249953	0.964317
C475	C	1.023577	0.499953	1.214317
C476	C	1.273577	0.749953	1.464317
C477	C	0.523064	-0.000047	0.764731
C478	C	0.773064	0.249953	1.014731
C479	C	1.023064	0.499953	1.264731
C480	C	1.273064	0.749953	1.514731
C481	C	0.611225	-0.000060	0.776893
C482	C	0.861225	0.249940	1.026893
C483	C	1.111225	0.499940	1.276893
C484	C	1.361225	0.749940	1.526893
C485	C	0.611737	-0.000064	0.726478
C486	C	0.861737	0.249936	0.976478
C487	C	1.111737	0.499936	1.226478
C488	C	1.361737	0.749936	1.476478
C489	C	0.567912	-0.000053	0.695190
C490	C	0.817912	0.249947	0.945190
C491	C	1.067912	0.499947	1.195190
C492	C	1.317912	0.749947	1.445190
C493	C	0.617472	-0.000088	0.161841
C494	C	0.867472	0.249912	0.411841
C495	C	1.117472	0.499912	0.661841
C496	C	1.367472	0.749912	0.911841
C497	C	0.617981	-0.000095	0.111424
C498	C	0.867981	0.249905	0.361424
C499	C	1.117981	0.499905	0.611424
C500	C	1.367981	0.749905	0.861424
C501	C	0.529821	-0.000079	0.099266
C502	C	0.779821	0.249921	0.349266
C503	C	1.029821	0.499921	0.599266
C504	C	1.279821	0.749921	0.849266
C505	C	0.529312	-0.000075	0.149679
C506	C	0.779312	0.249925	0.399679
C507	C	1.029312	0.499925	0.649679
C508	C	1.279312	0.749925	0.899679
C509	C	0.573142	-0.000078	0.180965
C510	C	0.823142	0.249922	0.430965
C511	C	1.073142	0.499922	0.680965
C512	C	1.323142	0.749922	0.930965
O513	O	0.491043	-0.000076	0.224267
O514	O	0.741043	0.249924	0.474267
O515	O	0.991043	0.499924	0.724267
O516	O	1.241043	0.749924	0.974267
O517	O	0.654151	-0.000078	0.246805
O518	O	0.904151	0.249922	0.496805
O519	O	1.154151	0.499922	0.746805
O520	O	1.404151	0.749922	0.996805
C521	C	0.614350	-0.000065	0.469360
C522	C	0.864350	0.249935	0.719360
C523	C	1.114350	0.499935	0.969360
C524	C	1.364350	0.749935	1.219360
C525	C	0.570016	-0.000054	0.488484
C526	C	0.820016	0.249946	0.738484
C527	C	1.070016	0.499946	0.988484
C528	C	1.320016	0.749946	1.238484
C529	C	0.526194	-0.000048	0.457196
C530	C	0.776194	0.249952	0.707196
C531	C	1.026194	0.499952	0.957196
C532	C	1.276194	0.749952	1.207196
C533	C	0.569503	-0.000054	0.538899
C534	C	0.819503	0.249946	0.788899
C535	C	1.069503	0.499946	1.038899
C536	C	1.319503	0.749946	1.288899
C537	C	0.613325	-0.000060	0.570187
C538	C	0.863325	0.249940	0.820187
C539	C	1.113325	0.499940	1.070187
C540	C	1.363325	0.749940	1.320187
C541	C	0.657660	-0.000066	0.551060
C542	C	0.907660	0.249934	0.801060
C543	C	1.157660	0.499934	1.051060
C544	C	1.407660	0.749934	1.301060
C545	C	0.658172	-0.000071	0.500648
C546	C	0.908172	0.249929	0.750648
C547	C	1.158172	0.499929	1.000648
C548	C	1.408172	0.749929	1.250648
C549	C	0.481859	-0.000041	0.476323
C550	C	0.731859	0.249959	0.726323
C551	C	0.981859	0.499959	0.976323
C552	C	1.231859	0.749959	1.226323
C553	C	0.481351	-0.000037	0.526735
C554	C	0.731351	0.249963	0.776735
C555	C	0.981351	0.499963	1.026735
C556	C	1.231351	0.749963	1.276735
C557	C	0.525172	-0.000044	0.558023
C558	C	0.775172	0.249956	0.808023
C559	C	1.025172	0.499956	1.058023
C560	C	1.275172	0.749956	1.308023
H561	H	-0.271701	-0.000095	0.021634
H562	H	-0.021701	0.249905	0.271634
H563	H	0.228299	0.499905	0.521634
H564	H	0.478299	0.749905	0.771634
H565	H	0.652426	-0.625731	-0.143861
H566	H	0.902426	-0.375731	0.106139
H567	H	1.152426	-0.125731	0.356139
H568	H	1.402426	0.124269	0.606139
F569	F	0.659693	-0.524466	-0.151150
F570	F	0.909693	-0.274466	0.098850
F571	F	1.159693	-0.024466	0.348850
F572	F	1.409693	0.225534	0.598850
F573	F	0.481379	-0.367881	0.027329
F574	F	0.731379	-0.117881	0.277329
F575	F	0.981379	0.132119	0.527329
F576	F	1.231379	0.382119	0.777329
H577	H	0.083300	-0.000068	-0.186271
H578	H	0.333300	0.249932	0.063729
H579	H	0.583300	0.499932	0.313729
H580	H	0.833300	0.749932	0.563729
F581	F	-0.172426	-0.000102	0.031670
F582	F	0.077574	0.249898	0.281670
F583	F	0.327574	0.499898	0.531670
F584	F	0.577574	0.749898	0.781670
F585	F	0.630623	-0.872485	-0.122028
F586	F	0.880623	-0.622485	0.127972
F587	F	1.130623	-0.372485	0.377972
F588	F	1.380623	-0.122485	0.627972
F589	F	0.510490	-0.872524	-0.001812
F590	F	0.760490	-0.622524	0.248188
F591	F	1.010490	-0.372524	0.498188
F592	F	1.260490	-0.122524	0.748188
F593	F	0.510482	-0.764745	-0.001808
F594	F	0.760482	-0.514745	0.248192
F595	F	1.010482	-0.264745	0.498192
F596	F	1.260482	-0.014745	0.748192
F597	F	0.630550	-0.127620	-0.122041
F598	F	0.880550	0.122380	0.127959
F599	F	1.130550	0.372380	0.377959
F600	F	1.380550	0.622380	0.627959
F601	F	0.510430	-0.127665	-0.001814
F602	F	0.760430	0.122335	0.248186
F603	F	1.010430	0.372335	0.498186
F604	F	1.260430	0.622335	0.748186
H605	H	-0.033711	-0.000097	0.063365
H606	H	0.216289	0.249903	0.313365
H607	H	0.466289	0.499903	0.563365
H608	H	0.716289	0.749903	0.813365
F609	F	0.657863	-0.000066	0.810201
F610	F	0.907863	0.249934	1.060201
F611	F	1.157863	0.499934	1.310201
F612	F	1.407863	0.749934	1.560201
F613	F	0.112745	-0.000092	0.072918
F614	F	0.362745	0.249908	0.322918
F615	F	0.612745	0.499908	0.572918
F616	F	0.862745	0.749908	0.822918
H617	H	0.623297	-0.228876	-0.114752
H618	H	0.873297	0.021124	0.135248
H619	H	1.123297	0.271124	0.385248
H620	H	1.373297	0.521124	0.635248
H621	H	0.652405	-0.374347	-0.143869
H622	H	0.902405	-0.124347	0.106131
H623	H	1.152405	0.125653	0.356131
H624	H	1.402405	0.375653	0.606131
F625	F	-0.301595	-0.000078	-0.149269
F626	F	-0.051595	0.249922	0.100731
F627	F	0.198405	0.499922	0.350731
F628	F	0.448405	0.749922	0.600731
H629	H	0.652415	-0.469068	-0.143866
H630	H	0.902415	-0.219068	0.106134
H631	H	1.152415	0.030932	0.356134
H632	H	1.402415	0.280932	0.606134
F633	F	0.705842	-0.000086	0.433117
F634	F	0.955842	0.249914	0.683117
F635	F	1.205842	0.499914	0.933117
F636	F	1.455842	0.749914	1.183117
H637	H	0.694276	-0.000080	0.485083
H638	H	0.944276	0.249920	0.735083
H639	H	1.194276	0.499920	0.985083
H640	H	1.444276	0.749920	1.235083
H641	H	0.488659	-0.531068	0.020034
H642	H	0.738659	-0.281068	0.270034
H643	H	0.988659	-0.031068	0.520034
H644	H	1.238659	0.218932	0.770034
H645	H	0.208987	-0.000090	0.060899
H646	H	0.458987	0.249910	0.310899
H647	H	0.708987	0.499910	0.560899
H648	H	0.958987	0.749910	0.810899
H649	H	-0.202304	-0.000080	-0.139243
H650	H	0.047696	0.249920	0.110757
H651	H	0.297696	0.499920	0.360757
H652	H	0.547696	0.749920	0.610757
F653	F	0.475874	-0.000044	0.785078
F654	F	0.725874	0.249956	1.035078
F655	F	0.975874	0.499956	1.285078
F656	F	1.225874	0.749956	1.535078
H657	H	0.446173	-0.000035	0.450852
H658	H	0.696173	0.249965	0.700852
H659	H	0.946173	0.499965	0.950852
H660	H	1.196173	0.749965	1.200852
H661	H	0.693341	-0.000074	0.576544
H662	H	0.943341	0.249926	0.826544
H663	H	1.193341	0.499926	1.076544
H664	H	1.443341	0.749926	1.326544
H665	H	0.488654	-0.469131	0.020045
H666	H	0.738654	-0.219131	0.270045
H667	H	0.988654	0.030869	0.520045
H668	H	1.238654	0.280869	0.770045
H669	H	0.057737	-0.000096	0.062438
H670	H	0.307737	0.249904	0.312438
H671	H	0.557737	0.499904	0.562438
H672	H	0.807737	0.749904	0.812438
F673	F	0.338574	-0.000067	0.026488
F674	F	0.588574	0.249933	0.276488
F675	F	0.838574	0.499933	0.526488
F676	F	1.088574	0.749933	0.776488
H677	H	0.654087	-0.000105	0.095857
H678	H	0.904087	0.249895	0.345857
H679	H	1.154087	0.499895	0.595857
H680	H	1.404087	0.749895	0.845857
H681	H	0.174748	-0.000063	-0.187200
H682	H	0.424748	0.249937	0.062800
H683	H	0.674748	0.499937	0.312800
H684	H	0.924748	0.749937	0.562800
H685	H	-0.067950	-0.000090	-0.184742
H686	H	0.182050	0.249910	0.065258
H687	H	0.432050	0.499910	0.315258
H688	H	0.682050	0.749910	0.565258
H689	H	0.623339	-0.771219	-0.114755
H690	H	0.873339	-0.521219	0.135245
H691	H	1.123339	-0.271219	0.385245
H692	H	1.373339	-0.021219	0.635245
F693	F	0.028282	-0.000078	-0.196759
F694	F	0.278282	0.249922	0.053241
F695	F	0.528282	0.499922	0.303241
F696	F	0.778282	0.749922	0.553241
F697	F	0.510436	-0.235464	-0.001811
F698	F	0.760436	0.014536	0.248189
F699	F	1.010436	0.264536	0.498189
F700	F	1.260436	0.514536	0.748189
F701	F	0.481391	-0.632320	0.027316
F702	F	0.731391	-0.382320	0.277316
F703	F	0.981391	-0.132320	0.527316
F704	F	1.231391	0.117680	0.777316
H705	H	0.434821	-0.000061	0.014469
H706	H	0.684821	0.249939	0.264469
H707	H	0.934821	0.499939	0.514469
H708	H	1.184821	0.749939	0.764469
H709	H	0.653163	-0.000089	0.187309
H710	H	0.903163	0.249911	0.437309
H711	H	1.153163	0.499911	0.687309
H712	H	1.403163	0.749911	0.937309
H713	H	0.695813	-0.000092	0.333847
H714	H	0.945813	0.249908	0.583847
H715	H	1.195813	0.499908	0.833847
H716	H	1.445813	0.749908	1.083847
H717	H	0.647841	-0.000072	0.710911
H718	H	0.897841	0.249928	0.960911
H719	H	1.147841	0.499928	1.210911
H720	H	1.397841	0.749928	1.460911
H721	H	0.446774	-0.000028	0.391054
H722	H	0.696774	0.249972	0.641054
H723	H	0.946774	0.499972	0.891054
H724	H	1.196774	0.749972	1.141054
H725	H	0.412744	-0.000039	-0.145477
H726	H	0.662744	0.249961	0.104523
H727	H	0.912744	0.499961	0.354523
H728	H	1.162744	0.749961	0.604523
F729	F	0.476930	-0.000036	0.681023
F730	F	0.726930	0.249964	0.931023
F731	F	0.976930	0.499964	1.181023
F732	F	1.226930	0.749964	1.431023
H733	H	0.447706	-0.000031	0.299603
H734	H	0.697706	0.249969	0.549603
H735	H	0.947706	0.499969	0.799603
H736	H	1.197706	0.749969	1.049603
F737	F	0.482123	-0.000072	0.170032
F738	F	0.732123	0.249928	0.420032
F739	F	0.982123	0.499928	0.670032
F740	F	1.232123	0.749928	0.920032
H741	H	0.494142	-0.000076	0.073782
H742	H	0.744142	0.249924	0.323782
H743	H	0.994142	0.499924	0.573782
H744	H	1.244142	0.749924	0.823782
F745	F	0.313471	-0.000051	-0.155510
F746	F	0.563471	0.249949	0.094490
F747	F	0.813471	0.499949	0.344490
F748	F	1.063471	0.749949	0.594490
H749	H	0.445243	-0.000033	0.542300
H750	H	0.695243	0.249967	0.792300
H751	H	0.945243	0.499967	1.042300
H752	H	1.195243	0.749967	1.292300
