data_functionalizedCrystal
_audit_creation_method	'MofGen! by Chris Wilmer'
_symmetry_space_group_name_H-M	'P1'
_symmetry_Int_Tables_number	1
_symmetry_cell_setting	triclinic
loop_
_symmetry_equiv_pos_as_xyz
  x,y,z
_cell_length_a	19.077105
_cell_length_b	18.101397
_cell_length_c	19.076919
_cell_angle_alpha	92.268541
_cell_angle_beta	90.076224
_cell_angle_gamma	87.716700
loop_
_atom_site_label
_atom_site_type_symbol
_atom_site_fract_x
_atom_site_fract_y
_atom_site_fract_z
Zn1	Zn	1.058295	-0.358273	-0.440399
Zn2	Zn	1.308295	-0.108273	-0.190399
Zn3	Zn	1.558295	0.141727	0.059601
Zn4	Zn	1.808295	0.391727	0.309601
Zn5	Zn	1.062943	-0.477346	-0.322885
Zn6	Zn	1.312943	-0.227346	-0.072885
Zn7	Zn	1.562943	0.022654	0.177115
Zn8	Zn	1.812943	0.272654	0.427115
Zn9	Zn	0.945512	-0.348352	-0.318192
Zn10	Zn	1.195512	-0.098352	-0.068192
Zn11	Zn	1.445512	0.151648	0.181808
Zn12	Zn	1.695512	0.401648	0.431808
Zn13	Zn	0.940765	-0.476900	-0.435638
Zn14	Zn	1.190765	-0.226900	-0.185638
Zn15	Zn	1.440765	0.023100	0.064362
Zn16	Zn	1.690765	0.273100	0.314362
O17	O	1.001879	-0.415218	-0.379279
O18	O	1.251879	-0.165218	-0.129279
O19	O	1.501879	0.084782	0.120721
O20	O	1.751879	0.334782	0.370721
O21	O	1.157243	-0.378407	-0.428767
O22	O	1.407243	-0.128407	-0.178767
O23	O	1.657243	0.121593	0.071233
O24	O	1.907243	0.371593	0.321233
O25	O	1.051297	-0.456270	-0.223932
O26	O	1.301297	-0.206270	0.026068
O27	O	1.551297	0.043730	0.276068
O28	O	1.801297	0.293730	0.526068
O29	O	0.960514	-0.246038	-0.334432
O30	O	1.210514	0.003962	-0.084432
O31	O	1.460514	0.253962	0.165568
O32	O	1.710514	0.503962	0.415568
O33	O	1.160658	-0.465890	-0.342430
O34	O	1.410658	-0.215890	-0.092430
O35	O	1.660658	0.034110	0.157570
O36	O	1.910658	0.284110	0.407570
O37	O	1.043375	-0.253327	-0.424216
O38	O	1.293375	-0.003327	-0.174216
O39	O	1.543375	0.246673	0.075784
O40	O	1.793375	0.496673	0.325784
O41	O	0.965021	-0.361499	-0.220484
O42	O	1.215021	-0.111499	0.029516
O43	O	1.465021	0.138501	0.279516
O44	O	1.715021	0.388501	0.529516
O45	O	0.846550	-0.361066	-0.329816
O46	O	1.096550	-0.111066	-0.079816
O47	O	1.346550	0.138934	0.170184
O48	O	1.596550	0.388934	0.420184
O49	O	0.952423	-0.465128	-0.534601
O50	O	1.202423	-0.215128	-0.284601
O51	O	1.452423	0.034872	-0.034601
O52	O	1.702423	0.284872	0.215399
O53	O	0.843062	-0.455509	-0.416102
O54	O	1.093062	-0.205509	-0.166102
O55	O	1.343062	0.044491	0.083898
O56	O	1.593062	0.294491	0.333898
O57	O	1.038772	-0.377974	-0.538098
O58	O	1.288772	-0.127974	-0.288098
O59	O	1.538772	0.122026	-0.038098
O60	O	1.788772	0.372026	0.211902
O61	O	1.046694	-0.580917	-0.337814
O62	O	1.296694	-0.330917	-0.087814
O63	O	1.546694	-0.080917	0.162186
O64	O	1.796694	0.169083	0.412186
O65	O	0.956930	-0.580589	-0.420653
O66	O	1.206930	-0.330589	-0.170653
O67	O	1.456930	-0.080589	0.079347
O68	O	1.706930	0.169411	0.329347
C69	C	0.819310	-0.407163	-0.371934
C70	C	1.069310	-0.157163	-0.121934
C71	C	1.319310	0.092837	0.128066
C72	C	1.569310	0.342837	0.378066
C73	C	0.741205	-0.403735	-0.368808
C74	C	0.991205	-0.153735	-0.118808
C75	C	1.241205	0.096265	0.131192
C76	C	1.491205	0.346265	0.381192
C77	C	1.001820	-0.607624	-0.379242
C78	C	1.251820	-0.357624	-0.129242
C79	C	1.501820	-0.107624	0.120758
C80	C	1.751820	0.142376	0.370758
C81	C	1.001858	-0.689940	-0.379253
C82	C	1.251858	-0.439940	-0.129253
C83	C	1.501858	-0.189940	0.120747
C84	C	1.751858	0.060060	0.370747
C85	C	0.702717	-0.451365	-0.412194
C86	C	0.952717	-0.201365	-0.162194
C87	C	1.202717	0.048635	0.087806
C88	C	1.452717	0.298635	0.337806
C89	C	0.629329	-0.448135	-0.409260
C90	C	0.879329	-0.198135	-0.159260
C91	C	1.129329	0.051865	0.090740
C92	C	1.379329	0.301865	0.340740
C93	C	0.594432	-0.397278	-0.362937
C94	C	0.844432	-0.147278	-0.112937
C95	C	1.094432	0.102722	0.137063
C96	C	1.344432	0.352722	0.387063
C97	C	0.632925	-0.349643	-0.319549
C98	C	0.882925	-0.099643	-0.069549
C99	C	1.132925	0.150357	0.180451
C100	C	1.382925	0.400357	0.430451
C101	C	0.706311	-0.352870	-0.322487
C102	C	0.956311	-0.102870	-0.072487
C103	C	1.206311	0.147130	0.177513
C104	C	1.456311	0.397130	0.427513
C105	C	0.375144	-0.382343	-0.349345
C106	C	0.625144	-0.132343	-0.099345
C107	C	0.875144	0.117657	0.150655
C108	C	1.125144	0.367657	0.400655
C109	C	0.301752	-0.379121	-0.346409
C110	C	0.551752	-0.129121	-0.096409
C111	C	0.801752	0.120879	0.153591
C112	C	1.051752	0.370879	0.403591
C113	C	0.298161	-0.477612	-0.436122
C114	C	0.548161	-0.227612	-0.186122
C115	C	0.798161	0.022388	0.063878
C116	C	1.048161	0.272388	0.313878
C117	C	0.371549	-0.480838	-0.439052
C118	C	0.621549	-0.230838	-0.189052
C119	C	0.871549	0.019162	0.060948
C120	C	1.121549	0.269162	0.310948
C121	C	0.410036	-0.433200	-0.395667
C122	C	0.660036	-0.183200	-0.145667
C123	C	0.910036	0.066800	0.104333
C124	C	1.160036	0.316800	0.354333
N125	N	0.519418	-0.393977	-0.359936
N126	N	0.769418	-0.143977	-0.109936
N127	N	1.019418	0.106023	0.140064
N128	N	1.269418	0.356023	0.390064
N129	N	0.485048	-0.436499	-0.398672
N130	N	0.735048	-0.186499	-0.148672
N131	N	0.985048	0.063501	0.101328
N132	N	1.235048	0.313501	0.351328
C133	C	1.001945	-0.989038	-0.379320
C134	C	1.251945	-0.739038	-0.129320
C135	C	1.501945	-0.489038	0.120680
C136	C	1.751945	-0.239038	0.370680
C137	C	1.058277	-0.957876	-0.327049
C138	C	1.308277	-0.707876	-0.077049
C139	C	1.558277	-0.457876	0.172951
C140	C	1.808277	-0.207876	0.422951
C141	C	1.058458	-0.872271	-0.327197
C142	C	1.308458	-0.622271	-0.077197
C143	C	1.558458	-0.372271	0.172803
C144	C	1.808458	-0.122271	0.422803
C145	C	1.001902	-0.840652	-0.379286
C146	C	1.251902	-0.590652	-0.129286
C147	C	1.501902	-0.340652	0.120714
C148	C	1.751902	-0.090652	0.370714
C149	C	1.018998	-0.875550	-0.454158
C150	C	1.268998	-0.625550	-0.204158
C151	C	1.518998	-0.375550	0.045842
C152	C	1.768998	-0.125550	0.295842
C153	C	1.019429	-0.961201	-0.453878
C154	C	1.269429	-0.711201	-0.203878
C155	C	1.519429	-0.461201	0.046122
C156	C	1.769429	-0.211201	0.296122
C157	C	0.928348	-0.953502	-0.357355
C158	C	1.178348	-0.703502	-0.107355
C159	C	1.428348	-0.453502	0.142645
C160	C	1.678348	-0.203502	0.392645
C161	C	0.928782	-0.867801	-0.355717
C162	C	1.178782	-0.617801	-0.105717
C163	C	1.428782	-0.367801	0.144283
C164	C	1.678782	-0.117801	0.394283
C165	C	1.001876	-0.756791	-0.379271
C166	C	1.251876	-0.506791	-0.129271
C167	C	1.501876	-0.256791	0.120729
C168	C	1.751876	-0.006791	0.370729
C169	C	1.001972	-1.072899	-0.379340
C170	C	1.251972	-0.822899	-0.129340
C171	C	1.501972	-0.572899	0.120660
C172	C	1.751972	-0.322899	0.370660
C173	C	1.185160	-0.423305	-0.386653
C174	C	1.435160	-0.173305	-0.136653
C175	C	1.685160	0.076695	0.113347
C176	C	1.935160	0.326695	0.363347
C177	C	1.263264	-0.426751	-0.389795
C178	C	1.513264	-0.176751	-0.139795
C179	C	1.763264	0.073249	0.110205
C180	C	2.013264	0.323249	0.360205
C181	C	0.994550	-0.422608	-0.562558
C182	C	1.244550	-0.172608	-0.312558
C183	C	1.494550	0.077392	-0.062558
C184	C	1.744550	0.327392	0.187442
C185	C	0.991426	-0.425757	-0.640661
C186	C	1.241426	-0.175757	-0.390661
C187	C	1.491426	0.074243	-0.140661
C188	C	1.741426	0.324243	0.109339
C189	C	1.001956	-0.222061	-0.379331
C190	C	1.251956	0.027939	-0.129331
C191	C	1.501956	0.277939	0.120669
C192	C	1.751956	0.527939	0.370669
C193	C	1.001989	-0.139750	-0.379354
C194	C	1.251989	0.110250	-0.129354
C195	C	1.501989	0.360250	0.120646
C196	C	1.751989	0.610250	0.370646
C197	C	1.034914	-0.381862	-0.679176
C198	C	1.284914	-0.131862	-0.429176
C199	C	1.534914	0.118138	-0.179176
C200	C	1.784914	0.368138	0.070824
C201	C	1.031971	-0.384818	-0.752562
C202	C	1.281971	-0.134818	-0.502562
C203	C	1.531971	0.115182	-0.252562
C204	C	1.781971	0.365182	-0.002562
C205	C	0.985543	-0.431674	-0.787431
C206	C	1.235543	-0.181674	-0.537431
C207	C	1.485543	0.068326	-0.287431
C208	C	1.735543	0.318326	-0.037431
C209	C	0.942051	-0.475570	-0.748911
C210	C	1.192051	-0.225570	-0.498911
C211	C	1.442051	0.024430	-0.248911
C212	C	1.692051	0.274430	0.001089
C213	C	0.944991	-0.472610	-0.675527
C214	C	1.194991	-0.222610	-0.425527
C215	C	1.444991	0.027390	-0.175527
C216	C	1.694991	0.277390	0.074473
C217	C	0.971926	-0.445389	-1.006712
C218	C	1.221926	-0.195389	-0.756712
C219	C	1.471926	0.054611	-0.506712
C220	C	1.721926	0.304611	-0.256712
C221	C	0.968991	-0.448348	-1.080102
C222	C	1.218991	-0.198348	-0.830102
C223	C	1.468991	0.051652	-0.580102
C224	C	1.718991	0.301652	-0.330102
C225	C	1.058911	-0.357594	-1.083747
C226	C	1.308911	-0.107594	-0.833747
C227	C	1.558911	0.142406	-0.583747
C228	C	1.808911	0.392406	-0.333747
C229	C	1.061850	-0.354641	-1.010361
C230	C	1.311850	-0.104641	-0.760361
C231	C	1.561850	0.145359	-0.510361
C232	C	1.811850	0.395359	-0.260361
C233	C	1.018355	-0.398535	-0.971847
C234	C	1.268355	-0.148535	-0.721847
C235	C	1.518355	0.101465	-0.471847
C236	C	1.768355	0.351465	-0.221847
N237	N	0.982535	-0.434698	-0.862443
N238	N	1.232535	-0.184698	-0.612443
N239	N	1.482535	0.065302	-0.362443
N240	N	1.732535	0.315302	-0.112443
N241	N	1.021359	-0.395507	-0.896837
N242	N	1.271359	-0.145507	-0.646837
N243	N	1.521359	0.104493	-0.396837
N244	N	1.771359	0.354493	-0.146837
C245	C	1.009219	-0.407805	-0.196713
C246	C	1.259219	-0.157805	0.053287
C247	C	1.509219	0.092195	0.303287
C248	C	1.759219	0.342195	0.553287
C249	C	1.012479	-0.404453	-0.118616
C250	C	1.262479	-0.154453	0.131384
C251	C	1.512479	0.095547	0.381384
C252	C	1.762479	0.345547	0.631384
H253	H	0.731125	-0.492781	-0.449913
H254	H	0.981125	-0.242781	-0.199913
H255	H	1.231125	0.007219	0.050087
H256	H	1.481125	0.257219	0.300087
Br257	Br	0.952483	-0.841643	-0.521033
Br258	Br	1.202483	-0.591643	-0.271033
Br259	Br	1.452483	-0.341643	-0.021033
Br260	Br	1.702483	-0.091643	0.228967
Br261	Br	1.107481	-0.844757	-0.485008
Br262	Br	1.357481	-0.594757	-0.235008
Br263	Br	1.607481	-0.344757	0.014992
Br264	Br	1.857481	-0.094757	0.264992
Br265	Br	0.879036	-0.539156	-0.796233
Br266	Br	1.129036	-0.289156	-0.546233
Br267	Br	1.379036	-0.039156	-0.296233
Br268	Br	1.629036	0.210844	-0.046233
H269	H	0.936520	-0.481142	-0.975363
H270	H	1.186520	-0.231142	-0.725363
H271	H	1.436520	0.018858	-0.475363
H272	H	1.686520	0.268858	-0.225363
Br273	Br	0.905975	-0.511939	-1.127424
Br274	Br	1.155975	-0.261939	-0.877424
Br275	Br	1.405975	-0.011939	-0.627424
Br276	Br	1.655975	0.238061	-0.377424
Br277	Br	0.577098	-0.512777	-0.468146
Br278	Br	0.827098	-0.262777	-0.218146
Br279	Br	1.077098	-0.012777	0.031854
Br280	Br	1.327098	0.237223	0.281854
Br281	Br	0.885965	-0.532179	-0.623255
Br282	Br	1.135965	-0.282179	-0.373255
Br283	Br	1.385965	-0.032179	-0.123255
Br284	Br	1.635965	0.217821	0.126745
H285	H	0.604506	-0.308232	-0.281835
H286	H	0.854506	-0.058232	-0.031835
H287	H	1.104506	0.191768	0.218165
H288	H	1.354506	0.441768	0.468165
H289	H	1.048084	-0.975737	-0.271467
H290	H	1.298084	-0.725737	-0.021467
H291	H	1.548084	-0.475737	0.228533
H292	H	1.798084	-0.225737	0.478533
H293	H	0.915837	-0.844664	-0.300602
H294	H	1.165837	-0.594664	-0.050602
H295	H	1.415837	-0.344664	0.199398
H296	H	1.665837	-0.094664	0.449398
H297	H	0.406471	-0.343559	-0.314013
H298	H	0.656471	-0.093559	-0.064013
H299	H	0.906471	0.156441	0.185987
H300	H	1.156471	0.406441	0.435987
H301	H	0.737648	-0.314081	-0.287161
H302	H	0.987648	-0.064081	-0.037161
H303	H	1.237648	0.185919	0.212839
H304	H	1.487648	0.435919	0.462839
H305	H	0.399958	-0.522253	-0.476772
H306	H	0.649958	-0.272253	-0.226772
H307	H	0.899958	-0.022253	0.023228
H308	H	1.149958	0.227747	0.273228
Br309	Br	0.245926	-0.542262	-0.494995
Br310	Br	0.495926	-0.292262	-0.244995
Br311	Br	0.745926	-0.042262	0.005005
Br312	Br	0.995926	0.207738	0.255005
H313	H	1.048108	-0.848527	-0.271774
H314	H	1.298108	-0.598527	-0.021774
H315	H	1.548108	-0.348527	0.228226
H316	H	1.798108	-0.098527	0.478226
H317	H	0.886413	-0.973600	-0.395390
H318	H	1.136413	-0.723600	-0.145390
H319	H	1.386413	-0.473600	0.104610
H320	H	1.636413	-0.223600	0.354610
Br321	Br	1.148753	-0.998514	-0.351401
Br322	Br	1.398753	-0.748514	-0.101401
Br323	Br	1.648753	-0.498514	0.148599
Br324	Br	1.898753	-0.248514	0.398599
Br325	Br	1.117935	-0.298026	-1.136019
Br326	Br	1.367935	-0.048026	-0.886019
Br327	Br	1.617935	0.201974	-0.636019
Br328	Br	1.867935	0.451974	-0.386019
Br329	Br	0.855461	-0.831525	-0.414126
Br330	Br	1.105461	-0.581525	-0.164126
Br331	Br	1.355461	-0.331525	0.085874
Br332	Br	1.605461	-0.081525	0.335874
Br333	Br	0.254392	-0.310104	-0.283530
Br334	Br	0.504392	-0.060104	-0.033530
Br335	Br	0.754392	0.189896	0.216470
Br336	Br	1.004392	0.439896	0.466470
H337	H	1.113036	-0.854663	-0.341966
H338	H	1.363036	-0.604663	-0.091966
H339	H	1.613036	-0.354663	0.158034
H340	H	1.863036	-0.104663	0.408034
H341	H	1.073136	-0.984166	-0.472138
H342	H	1.323136	-0.734166	-0.222138
H343	H	1.573136	-0.484166	0.027862
H344	H	1.823136	-0.234166	0.277862
H345	H	1.067385	-0.349076	-0.783918
H346	H	1.317385	-0.099076	-0.533918
H347	H	1.567385	0.150924	-0.283918
H348	H	1.817385	0.400924	-0.033918
H349	H	0.980034	-0.981971	-0.494328
H350	H	1.230034	-0.731971	-0.244328
H351	H	1.480034	-0.481971	0.005672
H352	H	1.730034	-0.231971	0.255672
Br353	Br	0.901464	-0.984674	-0.267677
Br354	Br	1.151464	-0.734674	-0.017677
Br355	Br	1.401464	-0.484674	0.232323
Br356	Br	1.651464	-0.234674	0.482323
Br357	Br	1.097932	-0.318276	-0.631861
Br358	Br	1.347932	-0.068276	-0.381861
Br359	Br	1.597932	0.181724	-0.131861
Br360	Br	1.847932	0.431724	0.118139
H361	H	1.099658	-0.316489	-0.981976
H362	H	1.349658	-0.066489	-0.731976
H363	H	1.599658	0.183511	-0.481976
H364	H	1.849658	0.433511	-0.231976
