data_functionalizedCrystal
_audit_creation_method	'MofGen! by Chris Wilmer'
_symmetry_space_group_name_H-M	'P1'
_symmetry_Int_Tables_number	1
_symmetry_cell_setting	triclinic
loop_
_symmetry_equiv_pos_as_xyz
  x,y,z
_cell_length_a	12.837943
_cell_length_b	12.811434
_cell_length_c	9.130313
_cell_angle_alpha	95.429316
_cell_angle_beta	89.997654
_cell_angle_gamma	89.411196
loop_
_atom_site_label
_atom_site_type_symbol
_atom_site_fract_x
_atom_site_fract_y
_atom_site_fract_z
O1	O	1.376625	0.272974	-0.085502
O2	O	1.074761	0.259490	-0.087303
O3	O	1.233290	0.114201	-0.106594
O4	O	1.218096	0.418263	-0.066211
O5	O	1.233279	0.114195	0.137004
O6	O	1.074750	0.259484	0.156295
O7	O	1.376614	0.272969	0.158096
Cu8	Cu	1.225681	0.266226	0.179438
Cu9	Cu	1.225694	0.266233	-0.108645
O10	O	1.218085	0.418258	0.177387
C11	C	1.036116	0.254932	0.033890
C12	C	0.920980	0.241346	0.032082
C13	C	0.680723	0.404674	0.053795
C14	C	0.572543	0.391914	0.052097
C15	C	0.596436	0.203066	0.027001
C16	C	0.704617	0.215826	0.028698
C17	C	0.746756	0.316633	0.042093
C18	C	0.854939	0.329393	0.043780
C19	C	0.878830	0.140545	0.018694
C20	C	0.770650	0.127785	0.016996
C21	C	1.232434	0.075009	0.009997
C22	C	1.229888	-0.041763	-0.005521
C23	C	1.226300	-0.206344	-0.160156
C24	C	1.228696	-0.096627	-0.145591
C25	C	1.228685	-0.096624	0.119994
C26	C	1.226289	-0.206342	0.105429
C27	C	1.225094	-0.261198	-0.034650
C28	C	1.222690	-0.370917	-0.049214
C29	C	1.222686	-0.370913	0.216370
C30	C	1.225083	-0.261196	0.230935
C31	C	1.415259	0.277527	0.036900
C32	C	1.530395	0.291113	0.038699
C33	C	1.218941	0.457450	0.060793
C34	C	1.221487	0.574221	0.076301
N35	N	1.225680	0.266221	0.382060
N36	N	1.225704	0.266230	-0.311268
C37	C	1.295900	0.201919	0.450174
C38	C	1.295910	0.201920	0.603511
C39	C	1.155476	0.330534	0.620608
C40	C	1.155462	0.330527	0.467273
H41	H	0.889247	0.411475	0.054689
C42	C	0.727079	0.515562	0.068519
N43	N	0.761992	0.599085	0.079612
H44	H	0.932607	0.068856	0.009156
C45	C	1.078257	0.401320	0.392351
N46	N	1.020125	0.454657	0.335921
H47	H	1.229679	-0.051969	-0.247791
C48	C	1.373133	0.131172	0.356444
N49	N	1.431304	0.077880	0.285850
H50	H	1.229669	-0.051942	0.234040
C51	C	0.499910	0.488766	0.064971
N52	N	0.445202	0.561720	0.074670
C53	C	1.224973	-0.266688	-0.314242
N54	N	1.223972	-0.312137	-0.430303
H55	H	0.562107	0.120993	0.016216
C56	C	1.373150	0.131174	0.678428
N57	N	1.431326	0.077880	0.734853
H58	H	1.226060	-0.216517	0.344984
C59	C	1.221364	-0.431261	0.354436
N60	N	1.220367	-0.476716	0.458423
H61	H	0.736325	0.045710	0.006107
C62	C	1.221390	-0.431258	-0.203303
N63	N	1.220420	-0.476703	-0.319367
C64	C	1.078238	0.401264	0.714355
N65	N	1.020061	0.454540	0.784964
