data_functionalizedCrystal
_audit_creation_method	'MofGen! by Chris Wilmer'
_symmetry_space_group_name_H-M	'P1'
_symmetry_Int_Tables_number	1
_symmetry_cell_setting	triclinic
loop_
_symmetry_equiv_pos_as_xyz
  x,y,z
_cell_length_a	6.817900
_cell_length_b	17.982959
_cell_length_c	23.753023
_cell_angle_alpha	96.561760
_cell_angle_beta	100.067528
_cell_angle_gamma	102.451857
loop_
_atom_site_label
_atom_site_type_symbol
_atom_site_fract_x
_atom_site_fract_y
_atom_site_fract_z
V1	V	-3.983584	-0.106376	-0.178629
O2	O	-3.977220	0.004122	-0.174983
O3	O	-3.930299	-0.209973	-0.177644
O4	O	-3.918678	-0.105174	-0.256428
O5	O	-3.988921	-0.101403	-0.095654
V6	V	-4.469984	-0.093108	-0.168676
O7	O	-4.238532	-0.135481	-0.200463
O8	O	-4.665234	-0.064003	-0.146843
O9	O	-4.300063	0.010490	-0.169661
O10	O	-4.593745	-0.203605	-0.172322
O11	O	-4.582044	-0.098081	-0.251651
O12	O	-4.311684	-0.094310	-0.090878
C13	C	-3.774645	-0.235215	-0.174887
C14	C	-3.812255	-0.319910	-0.174600
C15	C	-4.011234	-0.363596	-0.177328
C16	C	-4.046562	-0.443176	-0.177062
C17	C	-3.882907	-0.479068	-0.174063
C18	C	-3.683913	-0.435377	-0.171337
C19	C	-3.648589	-0.355799	-0.171608
C20	C	-3.826364	-0.756307	-0.170247
C21	C	-3.861703	-0.835890	-0.169975
C22	C	-4.224337	-0.843684	-0.175701
C23	C	-4.189013	-0.764106	-0.175972
C24	C	-3.990025	-0.720422	-0.173249
C25	C	-3.951721	-0.634132	-0.173538
C26	C	-3.921206	-0.565356	-0.173769
C27	C	-3.759821	-0.101532	-0.275383
C28	C	-3.788005	-0.101234	-0.338985
C29	C	-3.998066	-0.169299	-0.741730
C30	C	-4.024581	-0.169032	-0.801493
O31	O	-4.068171	-0.228269	-0.839487
N32	N	-4.002780	-0.099080	-0.823052
C33	C	-3.954481	-0.029392	-0.784845
O34	O	-3.938374	0.030132	-0.808671
C35	C	-3.927981	-0.029661	-0.725084
C36	C	-3.949765	-0.099616	-0.703528
C37	C	-4.019849	-0.239249	-0.720173
C38	C	-3.993332	-0.239516	-0.660414
C39	C	-3.945031	-0.169833	-0.622212
C40	C	-3.923247	-0.099883	-0.643769
C41	C	-3.879696	0.040027	-0.686879
C42	C	-3.853199	0.039752	-0.627114
C43	C	-3.874983	-0.030203	-0.605558
C44	C	-3.848429	-0.030467	-0.545808
N45	N	-3.870229	-0.100418	-0.524249
C46	C	-3.918530	-0.170101	-0.562451
C47	C	-4.010139	-0.028834	-0.910349
C48	C	-4.036625	-0.028564	-0.970109
C49	C	-4.106727	-0.168204	-0.986752
C50	C	-4.080227	-0.168473	-0.926991
C51	C	-4.031940	-0.098785	-0.888790
C52	C	-3.862837	-0.170657	-0.436952
C53	C	-3.836306	-0.170917	-0.377187
C54	C	-3.766217	-0.031278	-0.360549
C55	C	-3.792735	-0.031017	-0.420309
C56	C	-3.841054	-0.100712	-0.458510
O57	O	-3.804846	0.028739	-0.507779
O58	O	-3.934655	-0.229616	-0.538617
C59	C	-4.119059	0.035727	-0.172417
C60	C	-4.060687	0.120421	-0.172707
C61	C	-4.133883	-0.097954	-0.071919
C62	C	-4.084939	-0.098248	-0.008317
H63	H	-4.322280	-0.734886	-0.178410
C64	C	-3.503894	-0.474856	-0.168038
H65	H	-3.553423	-0.528506	-0.168262
H66	H	-3.441862	-0.467355	-0.200441
H67	H	-3.405344	-0.453068	-0.133366
C68	C	-3.429717	-0.307741	-0.168606
H69	H	-3.432120	-0.255208	-0.169203
H70	H	-3.342732	-0.312037	-0.133851
H71	H	-3.379280	-0.326325	-0.200926
C72	C	-3.607488	-0.708264	-0.167247
H73	H	-3.515084	-0.741038	-0.165416
H74	H	-3.604424	-0.684200	-0.200769
H75	H	-3.567903	-0.669916	-0.133694
C76	C	-4.443230	-0.891740	-0.178707
H77	H	-4.440843	-0.944277	-0.178124
H78	H	-4.493684	-0.873161	-0.146393
H79	H	-4.530197	-0.887438	-0.213468
H80	H	-4.097967	-0.225437	-0.909445
H81	H	-3.902178	-0.227410	-0.468049
H82	H	-4.146061	-0.224944	-1.017868
C83	C	-3.860288	-0.247872	-0.353479
H84	H	-3.892877	-0.289333	-0.384794
H85	H	-3.735421	-0.248442	-0.328647
H86	H	-3.967407	-0.253320	-0.332379
C87	C	-3.855745	0.116977	-0.710580
H88	H	-3.878432	0.107169	-0.751644
H89	H	-3.952996	0.143169	-0.699227
H90	H	-3.721004	0.148064	-0.695497
C91	C	-4.017324	-0.316468	-0.636710
H92	H	-4.049908	-0.357925	-0.668028
H93	H	-3.892464	-0.317043	-0.611877
H94	H	-4.124450	-0.321919	-0.615613
C95	C	-4.072965	-0.315907	-0.762187
H96	H	-4.082121	-0.357597	-0.740780
H97	H	-4.200747	-0.321161	-0.787717
H98	H	-3.968748	-0.316262	-0.783975
C99	C	-4.012658	0.048387	-0.993814
H100	H	-3.980112	0.089845	-0.962499
H101	H	-3.905563	0.053846	-1.014919
H102	H	-4.137554	0.048948	-1.018643
H103	H	-4.208587	-0.478742	-0.179284
C104	C	-3.800087	0.116408	-0.585093
H105	H	-3.787431	0.106235	-0.546413
H106	H	-3.674052	0.147587	-0.589603
H107	H	-3.906047	0.142688	-0.593336
C108	C	-3.956985	0.047828	-0.868331
H109	H	-3.947782	0.089523	-0.889735
H110	H	-4.061165	0.048194	-0.846536
H111	H	-3.829183	0.053069	-0.842808
C112	C	-3.768894	0.045929	-0.444024
H113	H	-3.736377	0.087390	-0.412712
H114	H	-3.661836	0.051414	-0.465141
H115	H	-3.893842	0.046457	-0.468842
C116	C	-3.713092	0.045369	-0.318523
H117	H	-3.703899	0.087073	-0.339916
H118	H	-3.817286	0.045716	-0.296730
H119	H	-3.585294	0.050610	-0.292998
H120	H	-3.728425	-0.865112	-0.167538
H121	H	-4.144503	-0.334377	-0.179764
