data_functionalizedCrystal
_audit_creation_method	'MofGen! by Chris Wilmer'
_symmetry_space_group_name_H-M	'P1'
_symmetry_Int_Tables_number	1
_symmetry_cell_setting	triclinic
loop_
_symmetry_equiv_pos_as_xyz
  x,y,z
_cell_length_a	6.817900
_cell_length_b	16.418049
_cell_length_c	12.908943
_cell_angle_alpha	95.705836
_cell_angle_beta	100.860631
_cell_angle_gamma	103.389670
loop_
_atom_site_label
_atom_site_type_symbol
_atom_site_fract_x
_atom_site_fract_y
_atom_site_fract_z
V1	V	-3.995727	-0.114839	-0.329050
O2	O	-3.984338	0.006594	-0.322404
O3	O	-3.946969	-0.228742	-0.327167
O4	O	-3.934013	-0.112601	-0.472392
O5	O	-3.997383	-0.110351	-0.176173
V6	V	-4.481126	-0.100370	-0.310720
O7	O	-4.252869	-0.146579	-0.369258
O8	O	-4.674182	-0.068631	-0.270512
O9	O	-4.306678	0.013532	-0.312603
O10	O	-4.609913	-0.221804	-0.317366
O11	O	-4.596867	-0.104859	-0.463596
O12	O	-4.319634	-0.102609	-0.167378
C13	C	-3.792314	-0.256524	-0.322071
C14	C	-3.833646	-0.349637	-0.321486
C15	C	-3.775786	-0.108373	-0.507319
C16	C	-3.806610	-0.107297	-0.624504
C17	C	-4.110312	-0.568114	-0.325435
C18	C	-4.149136	-0.655605	-0.324896
C19	C	-3.785899	-0.647095	-0.314341
C20	C	-3.747080	-0.559606	-0.314888
C21	C	-3.909292	-0.520118	-0.320430
C22	C	-3.986935	-0.695097	-0.319343
C23	C	-4.029028	-0.789959	-0.318758
C24	C	-3.867197	-0.425250	-0.321018
C25	C	-4.227755	-0.113585	-0.855471
C26	C	-4.256726	-0.112574	-0.965578
C27	C	-3.893522	-0.104257	-0.954825
C28	C	-3.864551	-0.105268	-0.844718
C29	C	-4.031676	-0.109934	-0.795046
C30	C	-4.002706	-0.110951	-0.684938
C31	C	-3.639502	-0.102628	-0.674186
C32	C	-3.668473	-0.101617	-0.784293
C33	C	-4.124676	0.041310	-0.317696
C34	C	-4.062580	0.134422	-0.318287
C35	C	-4.141203	-0.106839	-0.132445
C36	C	-4.089618	-0.107912	-0.015259
H37	H	-4.312824	-0.694681	-0.328973
H38	H	-4.138792	-0.114753	-0.644497
H39	H	-3.653837	-0.679257	-0.309827
C40	C	-4.469750	-0.116723	-1.031169
C41	C	-4.608567	-0.191839	-1.022092
C42	C	-4.804823	-0.195697	-1.082512
H43	H	-4.515287	-0.069623	-1.005613
H44	H	-4.463179	-0.115502	-1.103881
H45	H	-4.615144	-0.193053	-0.949395
H46	H	-4.563097	-0.238953	-1.047655
H47	H	-4.798252	-0.194475	-1.155224
H48	H	-4.850339	-0.148592	-1.056950
H49	H	-4.899030	-0.246665	-1.076369
C50	C	-3.528971	-0.507348	-0.309508
C51	C	-3.529709	-0.422282	-0.311203
C52	C	-3.328841	-0.374119	-0.306265
H53	H	-3.440551	-0.512379	-0.245478
H54	H	-3.480643	-0.527344	-0.369056
H55	H	-3.578010	-0.402292	-0.251661
H56	H	-3.618087	-0.417225	-0.375228
H57	H	-3.280513	-0.394115	-0.365813
H58	H	-3.240438	-0.379157	-0.242235
H59	H	-3.329319	-0.316398	-0.307425
H60	H	-4.363840	-0.117393	-0.815029
H61	H	-3.757464	-0.100453	-0.995287
H62	H	-3.479838	-0.099658	-0.624977
H63	H	-4.242397	-0.535965	-0.329946
H64	H	-3.532410	-0.097815	-0.824751
