data_functionalizedCrystal
_audit_creation_method	'MofGen! by Chris Wilmer'
_symmetry_space_group_name_H-M	'P1'
_symmetry_Int_Tables_number	1
_symmetry_cell_setting	triclinic
loop_
_symmetry_equiv_pos_as_xyz
  x,y,z
_cell_length_a	14.044191
_cell_length_b	10.540539
_cell_length_c	12.503584
_cell_angle_alpha	93.561484
_cell_angle_beta	86.161964
_cell_angle_gamma	88.858634
loop_
_atom_site_label
_atom_site_type_symbol
_atom_site_fract_x
_atom_site_fract_y
_atom_site_fract_z
O1	O	1.265199	0.299578	-0.089259
O2	O	0.989155	0.288516	-0.089273
O3	O	1.133475	0.109977	-0.089264
O4	O	1.120879	0.478116	-0.089267
O5	O	1.122621	0.123431	0.089377
O6	O	0.978301	0.301970	0.089368
O7	O	1.254345	0.313032	0.089382
Cu8	Cu	1.115332	0.308729	0.105687
Cu9	Cu	1.128168	0.292819	-0.105577
O10	O	1.110025	0.491570	0.089374
C11	C	0.948381	0.290404	0.000046
C12	C	0.843058	0.275970	0.000041
C13	C	0.593285	0.351949	0.000051
C14	C	0.650221	0.249604	0.000050
C15	C	0.757525	0.264278	0.000045
C16	C	0.485971	0.337277	0.000056
C17	C	1.127103	0.069306	0.000054
C18	C	1.124278	-0.071929	0.000049
C19	C	1.016013	-0.266338	-0.000358
C20	C	1.018853	-0.119399	0.000044
C21	C	1.168814	-0.120772	0.102064
C22	C	1.165211	-0.267674	0.102150
C23	C	1.179698	-0.283275	-0.100999
C24	C	1.180751	-0.136297	-0.102347
C25	C	1.295119	0.311144	0.000061
C26	C	1.400443	0.325577	0.000060
C27	C	1.116397	0.532242	0.000053
C28	C	1.119223	0.673476	0.000052
N29	N	1.106310	0.319920	0.254279
C30	C	1.093040	0.336392	0.473393
C31	C	1.150461	0.265163	0.526724
C32	C	1.143077	0.274328	0.648646
C33	C	1.100423	0.327228	0.351459
N34	N	1.137194	0.281631	0.745831
H35	H	0.625127	0.450581	0.000046
H36	H	1.257988	-0.104766	-0.108504
H37	H	0.983375	-0.086341	-0.073085
C38	C	0.607214	0.116341	0.000042
C39	C	0.536392	0.082653	0.092801
C40	C	0.493381	-0.050605	0.092789
C41	C	0.521194	-0.150176	0.000017
C42	C	0.592020	-0.116491	-0.092748
C43	C	0.635031	0.016767	-0.092736
H44	H	0.515800	0.156364	0.161482
H45	H	0.440950	-0.075540	0.161460
H46	H	0.489355	-0.248822	0.000008
H47	H	0.612612	-0.190202	-0.161430
H48	H	0.687461	0.041703	-0.161408
H49	H	1.038338	0.404254	0.519297
C50	C	1.114971	-0.060332	0.204623
C51	C	1.030648	0.033283	0.196018
C52	C	0.976799	0.093720	0.298574
C53	C	1.007271	0.060541	0.409736
C54	C	1.091598	-0.033079	0.418345
C55	C	1.145448	-0.093516	0.315789
H56	H	1.008087	0.057849	0.113726
H57	H	0.914374	0.163024	0.292200
H58	H	0.967408	0.105280	0.485654
H59	H	1.114160	-0.057644	0.500638
H60	H	1.207872	-0.162819	0.322164
H61	H	0.974202	-0.076193	0.073291
C62	C	1.108287	-0.303146	0.205155
C63	C	1.066420	-0.197865	0.286762
C64	C	1.009491	-0.233329	0.389768
C65	C	0.994431	-0.374073	0.411166
C66	C	1.036299	-0.479363	0.329556
C67	C	1.093228	-0.443899	0.226551
H68	H	1.077567	-0.093670	0.270924
H69	H	0.978497	-0.155386	0.450180
H70	H	0.952289	-0.400325	0.487417
H71	H	1.025152	-0.583558	0.345395
H72	H	1.124222	-0.521842	0.166139
H73	H	1.240750	-0.307626	0.106782
C74	C	0.965754	-0.318087	-0.099195
C75	C	1.017810	-0.415634	-0.180745
C76	C	0.967554	-0.467384	-0.279591
C77	C	0.865242	-0.421586	-0.296889
C78	C	0.813181	-0.324033	-0.215337
C79	C	0.863437	-0.272283	-0.116490
H80	H	1.093552	-0.449542	-0.167942
H81	H	1.006094	-0.539599	-0.339961
H82	H	0.828039	-0.459894	-0.370061
H83	H	0.737438	-0.290125	-0.228139
H84	H	0.824897	-0.200068	-0.056120
C85	C	0.954009	-0.305396	0.097918
C86	C	0.909904	-0.202894	0.180719
C87	C	0.847905	-0.241954	0.278998
C88	C	0.830012	-0.383516	0.294475
C89	C	0.874118	-0.486027	0.211672
C90	C	0.936117	-0.446967	0.113393
H91	H	0.923149	-0.098093	0.169264
H92	H	0.815255	-0.166068	0.340294
H93	H	0.784116	-0.412431	0.367227
H94	H	0.860873	-0.590828	0.223127
H95	H	0.968767	-0.522853	0.052096
C96	C	1.139953	-0.338418	-0.205460
C97	C	1.203467	-0.425994	-0.285005
C98	C	1.163709	-0.481135	-0.389460
C99	C	1.060437	-0.448699	-0.414368
C100	C	0.996917	-0.361119	-0.334820
C101	C	1.036675	-0.305978	-0.230366
H102	H	1.279920	-0.450009	-0.266569
H103	H	1.210731	-0.545968	-0.448346
H104	H	1.031006	-0.489518	-0.491691
H105	H	0.920464	-0.337104	-0.353257
H106	H	0.989653	-0.241144	-0.171479
H107	H	1.246005	-0.090303	0.105861
H108	H	1.255888	-0.322852	-0.101681
C109	C	1.136873	-0.093736	-0.204309
C110	C	1.050175	-0.000976	-0.194685
C111	C	1.006296	0.041595	-0.296644
C112	C	1.049115	-0.008596	-0.408228
C113	C	1.135818	-0.101362	-0.417857
C114	C	1.179698	-0.143932	-0.315897
H115	H	1.018473	0.036183	-0.112080
H116	H	0.942112	0.110267	-0.289516
H117	H	1.016633	0.022918	-0.483704
H118	H	1.167520	-0.138521	-0.500462
H119	H	1.243881	-0.212604	-0.323026
C120	C	1.224374	0.173489	0.464710
C121	C	1.231706	0.164266	0.341023
C122	C	1.305618	0.072601	0.279004
C123	C	1.372198	-0.009841	0.340670
C124	C	1.364868	-0.000621	0.464364
C125	C	1.290956	0.091044	0.526383
H126	H	1.182418	0.225297	0.295368
H127	H	1.311044	0.065776	0.187437
H128	H	1.426912	-0.077697	0.294760
H129	H	1.414157	-0.061652	0.510019
H130	H	1.285530	0.097869	0.617950
