data_functionalizedCrystal
_audit_creation_method	'MofGen! by Chris Wilmer'
_symmetry_space_group_name_H-M	'P1'
_symmetry_Int_Tables_number	1
_symmetry_cell_setting	triclinic
loop_
_symmetry_equiv_pos_as_xyz
  x,y,z
_cell_length_a	10.654550
_cell_length_b	14.044220
_cell_length_c	9.730223
_cell_angle_alpha	89.997406
_cell_angle_beta	89.996251
_cell_angle_gamma	88.836890
loop_
_atom_site_label
_atom_site_type_symbol
_atom_site_fract_x
_atom_site_fract_y
_atom_site_fract_z
O1	O	1.681222	0.133227	-0.114408
O2	O	1.317019	0.145921	-0.114387
O3	O	1.493654	0.001554	-0.114384
O4	O	1.504587	0.277595	-0.114411
O5	O	1.493652	0.001557	0.114196
O6	O	1.317017	0.145925	0.114193
O7	O	1.681220	0.133231	0.114172
Zn8	Zn	1.499118	0.139578	0.150474
Zn9	Zn	1.499121	0.139574	-0.150689
O10	O	1.504585	0.277598	0.114169
C11	C	1.270127	0.144991	-0.000094
C12	C	1.130403	0.142202	-0.000085
C13	C	1.059459	0.227203	-0.000114
C14	C	0.928175	0.224578	-0.000137
C15	C	0.938790	0.051942	-0.000109
C16	C	1.070072	0.054569	-0.000076
C17	C	1.119790	0.314837	-0.000123
C18	C	1.048846	0.399845	-0.000153
C19	C	0.917561	0.397219	-0.000177
C20	C	0.857221	0.309585	-0.000170
C21	C	1.488867	-0.033790	-0.000093
C22	C	1.474592	-0.139110	-0.000090
C23	C	1.448493	-0.331943	-0.000108
C24	C	1.549741	-0.388911	-0.000119
C25	C	1.535219	-0.496210	-0.000129
C26	C	1.463013	-0.224634	-0.000098
C27	C	1.728113	0.134161	-0.000124
C28	C	1.867836	0.136950	-0.000142
C29	C	1.509372	0.312942	-0.000125
C30	C	1.523648	0.418262	-0.000137
N31	N	1.499126	0.139581	0.356011
N32	N	1.499123	0.139563	-0.356226
C33	C	1.577364	0.075677	0.427938
C34	C	1.577359	0.075666	0.571821
C35	C	1.420876	0.203470	0.571837
C36	C	1.420875	0.203477	0.427956
C37	C	1.655615	0.011782	0.355993
C38	C	1.733861	-0.052127	0.427920
C39	C	1.733856	-0.052138	0.571803
C40	C	1.655606	0.011759	0.643759
H41	H	0.859801	0.466437	-0.000187
H42	H	1.655629	0.011787	0.238836
N43	N	1.813770	-0.117431	0.645256
N44	N	1.883621	-0.174476	0.580997
H45	H	1.940066	-0.220590	0.632869
H46	H	1.350913	-0.363754	-0.000106
N47	N	1.672157	-0.348995	-0.000118
N48	N	1.683937	-0.260623	-0.000104
H49	H	1.770390	-0.232427	-0.000098
H50	H	1.797562	-0.104155	0.369327
H51	H	0.750320	0.307454	-0.000168
H52	H	0.889650	-0.019405	-0.000126
N53	N	1.142529	-0.032265	-0.000029
N54	N	1.088650	-0.110501	-0.000025
H55	H	1.139823	-0.171831	0.000017
N56	N	1.655601	0.011725	0.790732
N57	N	1.725454	-0.045345	0.854941
H58	H	1.725454	-0.045369	0.958740
H59	H	1.357169	0.255494	0.630432
N60	N	1.340947	0.268756	0.354496
N61	N	1.271095	0.325805	0.418745
H62	H	1.214640	0.371909	0.366865
H63	H	1.097984	0.471193	-0.000147
N64	N	1.253891	0.317537	-0.000111
N65	N	1.307748	0.395783	-0.000125
H66	H	1.402457	0.397690	-0.000120
