data_functionalizedCrystal
_audit_creation_method	'MofGen! by Chris Wilmer'
_symmetry_space_group_name_H-M	'P1'
_symmetry_Int_Tables_number	1
_symmetry_cell_setting	triclinic
loop_
_symmetry_equiv_pos_as_xyz
  x,y,z
_cell_length_a	14.519731
_cell_length_b	14.519731
_cell_length_c	10.065875
_cell_angle_alpha	98.805316
_cell_angle_beta	81.235695
_cell_angle_gamma	83.688853
loop_
_atom_site_label
_atom_site_type_symbol
_atom_site_fract_x
_atom_site_fract_y
_atom_site_fract_z
O1	O	1.237335	0.107450	-0.113499
O2	O	1.737335	0.607450	0.386501
O3	O	0.968862	0.121666	-0.113501
O4	O	1.468862	0.621666	0.386499
O5	O	1.110205	-0.019677	-0.113488
O6	O	1.610205	0.480323	0.386512
O7	O	1.095992	0.248793	-0.113513
O8	O	1.595992	0.748793	0.386487
O9	O	1.083253	0.007384	0.113498
O10	O	1.583253	0.507384	0.613498
O11	O	0.941910	0.148727	0.113485
O12	O	1.441910	0.648727	0.613485
O13	O	1.210383	0.134511	0.113487
O14	O	1.710383	0.634511	0.613487
Zn15	Zn	1.071868	0.145915	0.149525
Zn16	Zn	1.571868	0.645915	0.649525
Zn17	Zn	1.107378	0.110262	-0.149539
Zn18	Zn	1.607378	0.610262	0.350461
O19	O	1.069040	0.275854	0.113473
O20	O	1.569040	0.775854	0.613473
C21	C	0.921027	0.134530	-0.000009
C22	C	1.421027	0.634530	0.499991
C23	C	0.818647	0.132534	-0.000009
C24	C	1.318647	0.632534	0.499991
C25	C	0.735503	0.130912	-0.000015
C26	C	1.235503	0.630912	0.499985
C27	C	0.631194	0.128885	-0.000015
C28	C	1.131194	0.628885	0.499985
C29	C	0.548055	0.127277	-0.000015
C30	C	1.048055	0.627277	0.499985
C31	C	0.443740	0.125250	-0.000017
C32	C	0.943740	0.625250	0.499983
C33	C	1.096063	-0.040506	0.000006
C34	C	1.596063	0.459494	0.500006
C35	C	1.094067	-0.142886	0.000006
C36	C	1.594067	0.357114	0.500006
C37	C	1.092446	-0.226031	0.000003
C38	C	1.592446	0.273969	0.500003
C39	C	1.090420	-0.330341	-0.000007
C40	C	1.590420	0.169659	0.499993
C41	C	1.088813	-0.413481	-0.000016
C42	C	1.588813	0.086519	0.499984
C43	C	1.086787	-0.517798	-0.000024
C44	C	1.586787	-0.017798	0.499976
C45	C	1.258219	0.121646	-0.000009
C46	C	1.758219	0.621646	0.499991
C47	C	1.360600	0.123641	-0.000017
C48	C	1.860600	0.623641	0.499983
C49	C	1.083183	0.296683	-0.000023
C50	C	1.583183	0.796683	0.499977
C51	C	1.085180	0.399062	-0.000033
C52	C	1.585180	0.899062	0.499967
N53	N	1.047639	0.170247	0.353628
N54	N	1.547639	0.670247	0.853628
N55	N	1.131613	0.085923	-0.353642
N56	N	1.631613	0.585923	0.146358
C57	C	1.098942	0.118722	0.421412
C58	C	1.598942	0.618722	0.921412
C59	C	1.080303	0.137455	0.578577
C60	C	1.580303	0.637455	1.078577
H61	H	1.022574	0.195438	0.636893
H62	H	1.522574	0.695438	1.136893
C63	C	1.175800	0.041284	0.343698
C64	C	1.675800	0.541284	0.843698
C65	C	1.156362	-0.045217	0.378302
C66	C	1.656362	0.454783	0.878302
C67	C	1.227139	-0.116569	0.306713
C68	C	1.727139	0.383431	0.806713
H69	H	1.234706	0.053906	0.366957
H70	H	1.734706	0.553906	0.866957
H71	H	1.178079	0.038927	0.248393
H72	H	1.678079	0.538927	0.748393
H73	H	1.154094	-0.042859	0.473586
H74	H	1.654094	0.457141	0.973586
H75	H	1.097469	-0.057869	0.355039
H76	H	1.597469	0.442131	0.855039
H77	H	1.229418	-0.118926	0.211408
H78	H	1.729418	0.381074	0.711408
H79	H	1.286041	-0.103938	0.329978
H80	H	1.786041	0.396062	0.829978
H81	H	1.213956	-0.175269	0.330172
H82	H	1.713956	0.324731	0.830172
C83	C	1.208449	0.008385	0.568853
C84	C	1.708449	0.508385	1.068853
C85	C	1.188850	-0.078008	0.603701
C86	C	1.688850	0.421992	1.103701
C87	C	1.259592	-0.149492	0.532392
C88	C	1.759592	0.350508	1.032392
H89	H	1.267347	0.020978	0.592176
H90	H	1.767347	0.520978	1.092176
H91	H	1.210822	0.005896	0.473507
H92	H	1.710822	0.505896	0.973507
H93	H	1.186487	-0.075518	0.699025
H94	H	1.686487	0.424482	1.199025
H95	H	1.129965	-0.090631	0.580374
H96	H	1.629965	0.409369	1.080374
H97	H	1.261964	-0.151981	0.437047
H98	H	1.761964	0.348019	0.937047
H99	H	1.318484	-0.136890	0.555721
H100	H	1.818484	0.363110	1.055721
H101	H	1.246299	-0.208119	0.556017
H102	H	1.746299	0.291881	1.056017
C103	C	0.970744	0.247550	0.431625
C104	C	1.470744	0.747550	0.931625
C105	C	0.967565	0.250783	0.572004
C106	C	1.467565	0.750783	1.072004
C107	C	0.896748	0.321991	0.643893
C108	C	1.396748	0.821991	1.143893
H109	H	0.911827	0.234883	0.408458
H110	H	1.411827	0.734883	0.908458
H111	H	0.983793	0.306336	0.408348
H112	H	1.483793	0.806336	0.908348
H113	H	0.954510	0.192010	0.595272
H114	H	1.454510	0.692010	1.095272
H115	H	1.026465	0.263462	0.595212
H116	H	1.526465	0.763462	1.095212
H117	H	0.909796	0.380777	0.620616
H118	H	1.409796	0.880777	1.120616
H119	H	0.837836	0.309318	0.620715
H120	H	1.337836	0.809318	1.120715
H121	H	0.894587	0.324200	0.739147
H122	H	1.394587	0.824200	1.239147
