data_functionalizedCrystal
_audit_creation_method	'MofGen! by Chris Wilmer'
_symmetry_space_group_name_H-M	'P1'
_symmetry_Int_Tables_number	1
_symmetry_cell_setting	triclinic
loop_
_symmetry_equiv_pos_as_xyz
  x,y,z
_cell_length_a	14.185197
_cell_length_b	16.109301
_cell_length_c	15.625204
_cell_angle_alpha	83.865399
_cell_angle_beta	122.271375
_cell_angle_gamma	104.779278
loop_
_atom_site_label
_atom_site_type_symbol
_atom_site_fract_x
_atom_site_fract_y
_atom_site_fract_z
O1	O	0.044758	-1.094249	-0.106089
O2	O	0.544758	-0.594249	0.393911
O3	O	0.039074	-0.853354	-0.121754
O4	O	0.539074	-0.353354	0.378246
O5	O	0.093790	-0.969796	0.028667
O6	O	0.593790	-0.469796	0.528667
O7	O	-0.009958	-0.977806	-0.256511
O8	O	0.490042	-0.477806	0.243489
O9	O	-0.087482	-1.006398	-0.010987
O10	O	0.412518	-0.506398	0.489013
O11	O	-0.142198	-0.889955	-0.161408
O12	O	0.357802	-0.389955	0.338592
O13	O	-0.136515	-1.130850	-0.145744
O14	O	0.363485	-0.630850	0.354256
Cu15	Cu	-0.155908	-1.013744	-0.157197
Cu16	Cu	0.344092	-0.513744	0.342803
Cu17	Cu	0.058467	-0.970459	-0.110301
Cu18	Cu	0.558467	-0.470459	0.389699
O19	O	-0.191231	-1.014407	-0.296165
O20	O	0.308769	-0.514407	0.203835
C21	C	-0.051329	-0.840632	-0.140946
C22	C	0.448671	-0.340632	0.359054
C23	C	-0.050630	-0.748193	-0.139042
C24	C	0.449370	-0.248193	0.360958
C25	C	0.016432	-0.984831	0.045333
C26	C	0.516432	-0.484831	0.545333
C27	C	0.055998	-0.975090	0.154069
C28	C	0.555998	-0.475090	0.654069
N29	N	-0.306688	-1.044195	-0.190181
N30	N	0.193312	-0.544195	0.309819
C31	C	-0.597971	-0.850606	0.019568
C32	C	-0.097971	-0.350606	0.519568
C33	C	-0.712087	-0.873660	-0.005410
C34	C	-0.212087	-0.373660	0.494590
C35	C	-0.755318	-0.983345	-0.124256
C36	C	-0.255318	-0.483345	0.375744
C37	C	-0.641203	-0.960303	-0.099285
C38	C	-0.141203	-0.460303	0.400715
C39	C	-0.562537	-0.893932	-0.027373
C40	C	-0.062537	-0.393932	0.472627
C41	C	-0.605769	-1.003629	-0.146225
C42	C	-0.105769	-0.503629	0.353775
C43	C	-0.491665	-0.980585	-0.121260
C44	C	0.008335	-0.480585	0.378740
C45	C	-0.412994	-0.914215	-0.049353
C46	C	0.087006	-0.414215	0.450647
C47	C	-0.448433	-0.870888	-0.002408
C48	C	0.051567	-0.370888	0.497592
C49	C	-0.684438	-1.069995	-0.218142
C50	C	-0.184438	-0.569995	0.281858
C51	C	-0.649005	-1.113322	-0.265082
C52	C	-0.149005	-0.613322	0.234918
C53	C	-0.534897	-1.090282	-0.240112
C54	C	-0.034897	-0.590282	0.259888
C55	C	-0.456226	-1.023912	-0.168205
C56	C	0.043774	-0.523912	0.331795
C57	C	-0.499458	-1.133609	-0.287058
C58	C	0.000542	-0.633609	0.212942
C59	C	-0.385353	-1.110566	-0.262092
C60	C	0.114647	-0.610566	0.237908
C61	C	-0.342122	-1.000869	-0.143240
C62	C	0.157878	-0.500869	0.356760
N63	N	0.209250	-0.940015	-0.077309
N64	N	0.709250	-0.440015	0.422691
C65	C	-0.046109	-1.143571	-0.126551
C66	C	0.453891	-0.643571	0.373449
C67	C	-0.046801	-1.236009	-0.128454
C68	C	0.453199	-0.736009	0.371546
C69	C	-0.081506	-0.532262	-0.223878
C70	C	0.418494	-0.032262	0.276122
C71	C	-0.080859	-0.445409	-0.222084
C72	C	0.419141	0.054591	0.277916
C73	C	-0.015926	-0.451947	-0.043611
C74	C	0.484074	0.048053	0.456389
C75	C	-0.016581	-0.538800	-0.045408
C76	C	0.483419	-0.038800	0.454592
C77	C	-0.049366	-0.578954	-0.135543
C78	C	0.450634	-0.078954	0.364457
C79	C	-0.048065	-0.405248	-0.131952
C80	C	0.451935	0.094752	0.368048
C81	C	-0.047364	-0.311078	-0.130007
C82	C	0.452636	0.188922	0.369993
C83	C	-0.050069	-0.673130	-0.137490
C84	C	0.449931	-0.173130	0.362510
C85	C	0.210566	-0.941409	0.328939
C86	C	0.710566	-0.441409	0.828939
C87	C	0.173377	-0.950565	0.226762
C88	C	0.673377	-0.450565	0.726762
C89	C	-0.024239	-0.990463	0.183532
C90	C	0.475761	-0.490463	0.683532
C91	C	0.012934	-0.981306	0.285707
C92	C	0.512934	-0.481306	0.785707
C93	C	0.130337	-0.956780	0.358403
C94	C	0.630337	-0.456780	0.858403
C95	C	-0.067295	-0.996676	0.315171
C96	C	0.432705	-0.496676	0.815171
C97	C	-0.030125	-0.987524	0.417338
C98	C	0.469875	-0.487524	0.917338
C99	C	0.087274	-0.963002	0.490040
C100	C	0.587274	-0.463002	0.990040
C101	C	0.167508	-0.947628	0.460570
C102	C	0.667508	-0.447628	0.960570
C103	C	-0.184698	-1.021208	0.242474
C104	C	0.315302	-0.521208	0.742474
C105	C	-0.264927	-1.036579	0.271938
C106	C	0.235073	-0.536579	0.771938
C107	C	-0.227758	-1.027421	0.374105
C108	C	0.272242	-0.527421	0.874105
C109	C	-0.110359	-1.002899	0.446808
C110	C	0.389641	-0.502899	0.946808
C111	C	-0.307991	-1.042795	0.403575
C112	C	0.192009	-0.542795	0.903575
C113	C	-0.270821	-1.033643	0.505742
C114	C	0.229179	-0.533643	1.005742
C115	C	-0.073188	-0.993746	0.548974
C116	C	0.426812	-0.493746	1.048974
C117	C	-0.113868	-0.999373	0.687171
C118	C	0.386132	-0.499373	1.187171
C119	C	-0.153417	-1.009117	0.578438
C120	C	0.346583	-0.509117	1.078438
H121	H	-0.278065	-0.946827	-0.084678
H122	H	0.221935	-0.446827	0.415322
F123	F	-0.149185	-1.016567	0.106155
F124	F	0.350815	-0.516567	0.606155
H125	H	-0.336152	-1.046158	0.529730
H126	H	0.163848	-0.546158	1.029730
H127	H	-0.214958	-1.028662	0.159285
H128	H	0.285042	-0.528662	0.659285
F129	F	-0.514233	-0.779986	0.096131
F130	F	-0.014233	-0.279986	0.596131
F131	F	-0.583195	-1.204234	-0.363601
F132	F	-0.083195	-0.704234	0.136399
H133	H	-0.356505	-1.145844	-0.300320
H134	H	0.143495	-0.645844	0.199680
H135	H	0.117536	-0.955553	0.573230
H136	H	0.617536	-0.455553	1.073230
F137	F	0.292462	-0.921511	0.537943
F138	F	0.792462	-0.421511	1.037943
H139	H	-0.320086	-0.895450	-0.029032
H140	H	0.179914	-0.395450	0.470968
H141	H	-0.107033	-0.407396	-0.294016
H142	H	0.392967	0.092604	0.205984
F143	F	-0.116403	-0.574995	-0.319809
F144	F	0.383597	-0.074995	0.180191
H145	H	-0.819383	-1.037383	-0.182809
H146	H	-0.319383	-0.537383	0.317191
F147	F	0.018969	-0.409203	0.052313
F148	F	0.518969	0.090797	0.552313
F149	F	0.017622	-0.588497	0.048614
F150	F	0.517622	-0.088497	0.548614
H151	H	0.022413	-0.973760	0.608167
H152	H	0.522413	-0.473760	1.108167
F153	F	-0.364695	-0.800269	0.074156
F154	F	0.135305	-0.300269	0.574156
H155	H	-0.740930	-0.838371	0.032818
H156	H	-0.240930	-0.338371	0.532818
F157	F	0.335521	-0.915292	0.406313
F158	F	0.835521	-0.415292	0.906313
H159	H	-0.777348	-1.088755	-0.238468
H160	H	-0.277348	-0.588755	0.261532
F161	F	0.258778	-0.934206	0.195411
F162	F	0.758778	-0.434206	0.695411
F163	F	-0.732738	-1.183952	-0.341619
F164	F	-0.232738	-0.683952	0.158381
H165	H	-0.360518	-1.056552	0.212736
H166	H	0.139482	-0.556552	0.712736
H167	H	-0.403581	-1.062773	0.344373
H168	H	0.096419	-0.562773	0.844373
