data_functionalizedCrystal
_audit_creation_method	'MofGen! by Chris Wilmer'
_symmetry_space_group_name_H-M	'P1'
_symmetry_Int_Tables_number	1
_symmetry_cell_setting	triclinic
loop_
_symmetry_equiv_pos_as_xyz
  x,y,z
_cell_length_a	10.654559
_cell_length_b	10.654558
_cell_length_c	9.730223
_cell_angle_alpha	89.999578
_cell_angle_beta	89.999563
_cell_angle_gamma	84.488455
loop_
_atom_site_label
_atom_site_type_symbol
_atom_site_fract_x
_atom_site_fract_y
_atom_site_fract_z
O1	O	1.667832	0.176448	-0.114294
O2	O	1.302356	0.193242	-0.114295
O3	O	1.493492	0.002107	-0.114289
O4	O	1.476696	0.367583	-0.114301
O5	O	1.493490	0.002111	0.114291
O6	O	1.302354	0.193247	0.114285
O7	O	1.667830	0.176453	0.114286
Zn8	Zn	1.485092	0.184850	0.150577
Zn9	Zn	1.485094	0.184844	-0.150587
O10	O	1.476694	0.367588	0.114279
C11	C	1.255557	0.192009	-0.000005
C12	C	1.116114	0.188312	-0.000006
C13	C	1.064571	0.072300	0.000002
C14	C	0.933549	0.068835	-0.000008
C15	C	0.905623	0.297403	-0.000028
C16	C	1.036643	0.300867	-0.000027
C17	C	1.080693	-0.059662	0.000019
C18	C	0.949670	-0.063128	0.000008
C19	C	1.492255	-0.044689	-0.000000
C20	C	1.488559	-0.184132	-0.000005
C21	C	1.486819	-0.249643	0.124592
C22	C	1.483357	-0.380665	0.124587
C23	C	1.483371	-0.380654	-0.124624
C24	C	1.486842	-0.249635	-0.124617
C25	C	1.488537	-0.184140	0.249204
C26	C	1.486795	-0.249650	0.373811
C27	C	1.483333	-0.380673	0.373806
C28	C	1.481613	-0.446185	0.249193
C29	C	1.714629	0.177686	-0.000007
C30	C	1.854072	0.181382	-0.000016
C31	C	1.477931	0.414383	-0.000012
C32	C	1.481627	0.553826	-0.000017
N33	N	1.485099	0.184854	0.356113
N34	N	1.485097	0.184831	-0.356123
C35	C	1.569756	0.100248	0.428042
C36	C	1.569752	0.100233	0.571925
C37	C	1.400431	0.269440	0.571938
C38	C	1.400429	0.269449	0.428058
C39	C	1.667516	0.002561	0.428036
C40	C	1.667512	0.002546	0.571919
H41	H	1.078603	0.395335	-0.000056
H42	H	1.122440	-0.109394	-0.095634
H43	H	1.331484	0.338330	0.369494
Br44	Br	1.819482	0.053570	0.353640
Br45	Br	1.476940	-0.624006	0.249189
Br46	Br	1.828369	0.038400	0.637019
Br47	Br	1.489152	-0.160749	0.542919
Br48	Br	0.797763	0.450149	-0.000063
Br49	Br	1.481037	-0.469562	-0.293729
H50	H	1.636997	-0.088677	0.616537
Br51	Br	1.285525	0.384239	0.669583
Br52	Br	0.900706	-0.149150	0.159430
H53	H	1.646070	-0.093972	0.388985
Br54	Br	1.156773	-0.126096	0.164522
Br55	Br	0.890270	-0.133173	-0.164487
H56	H	1.491351	-0.077454	0.249223
Br57	Br	1.489214	-0.160720	-0.293715
Br58	Br	1.480988	-0.469581	0.542911
