data_functionalizedCrystal
_audit_creation_method	'MofGen! by Chris Wilmer'
_symmetry_space_group_name_H-M	'P1'
_symmetry_Int_Tables_number	1
_symmetry_cell_setting	triclinic
loop_
_symmetry_equiv_pos_as_xyz
  x,y,z
_cell_length_a	19.805407
_cell_length_b	19.077068
_cell_length_c	19.805399
_cell_angle_alpha	87.730571
_cell_angle_beta	90.019573
_cell_angle_gamma	92.327086
loop_
_atom_site_label
_atom_site_type_symbol
_atom_site_fract_x
_atom_site_fract_y
_atom_site_fract_z
Zn1	Zn	1.023904	-0.280218	0.393534
Zn2	Zn	1.357237	0.053115	0.726867
Zn3	Zn	1.690571	0.386449	1.060201
Zn4	Zn	1.019269	-0.397917	0.284888
Zn5	Zn	1.352603	-0.064584	0.618221
Zn6	Zn	1.685936	0.268750	0.951555
Zn7	Zn	0.910718	-0.280237	0.280359
Zn8	Zn	1.244051	0.053096	0.613693
Zn9	Zn	1.577385	0.386429	0.947026
Zn10	Zn	0.906134	-0.397880	0.398033
Zn11	Zn	1.239467	-0.064546	0.731367
Zn12	Zn	1.572801	0.268787	1.064700
O13	O	0.965006	-0.339063	0.339204
O14	O	1.298340	-0.005730	0.672537
O15	O	1.631673	0.327604	1.005870
O16	O	1.118005	-0.295839	0.379134
O17	O	1.451339	0.037495	0.712467
O18	O	1.784672	0.370828	1.045801
O19	O	1.004848	-0.382330	0.189571
O20	O	1.338182	-0.048997	0.522905
O21	O	1.671515	0.284336	0.856238
O22	O	0.929590	-0.181744	0.291594
O23	O	1.262924	0.151590	0.624927
O24	O	1.596257	0.484923	0.958260
O25	O	1.114600	-0.382312	0.299312
O26	O	1.447934	-0.048978	0.632646
O27	O	1.781267	0.284355	0.965979
O28	O	1.012748	-0.181729	0.374743
O29	O	1.346081	0.151604	0.708076
O30	O	1.679414	0.484937	1.041409
O31	O	0.925096	-0.295872	0.186244
O32	O	1.258429	0.037462	0.519578
O33	O	1.591763	0.370795	0.852911
O34	O	0.815394	-0.295835	0.295957
O35	O	1.148727	0.037498	0.629290
O36	O	1.482060	0.370831	0.962623
O37	O	0.921778	-0.382248	0.492152
O38	O	1.255111	-0.048915	0.825485
O39	O	1.588444	0.284419	1.158819
O40	O	0.812026	-0.382267	0.382411
O41	O	1.145359	-0.048933	0.715745
O42	O	1.478692	0.284400	1.049078
O43	O	1.008303	-0.295802	0.488846
O44	O	1.341636	0.037531	0.822180
O45	O	1.674970	0.370864	1.155513
O46	O	1.000404	-0.496403	0.303675
O47	O	1.333737	-0.163070	0.637008
O48	O	1.667070	0.170263	0.970342
O49	O	0.917284	-0.496376	0.386802
O50	O	1.250617	-0.163043	0.720136
O51	O	1.583950	0.170291	1.053469
C52	C	0.789151	-0.339050	0.339181
C53	C	1.122484	-0.005716	0.672514
C54	C	1.455817	0.327617	1.005848
C55	C	0.713918	-0.339061	0.339188
C56	C	1.047252	-0.005727	0.672522
C57	C	1.380585	0.327606	1.005855
C58	C	0.957862	-0.521927	0.346233
C59	C	1.291195	-0.188594	0.679567
C60	C	1.624528	0.144739	1.012900
C61	C	0.954867	-0.600157	0.349263
C62	C	1.288200	-0.266824	0.682596
C63	C	1.621534	0.066509	1.015930
C64	C	0.676836	-0.384133	0.384138
C65	C	1.010169	-0.050800	0.717471
C66	C	1.343502	0.282533	1.050804
C67	C	0.606147	-0.384135	0.384147
C68	C	0.939481	-0.050801	0.717481
C69	C	1.272814	0.282532	1.050814
C70	C	0.572543	-0.339066	0.339204
C71	C	0.905876	-0.005733	0.672537
C72	C	1.239209	0.327600	1.005870
C73	C	0.609630	-0.293989	0.294252
C74	C	0.942964	0.039345	0.627585
C75	C	1.276297	0.372678	0.960919
C76	C	0.680318	-0.293985	0.294246
C77	C	1.013651	0.039349	0.627580
C78	C	1.346984	0.372682	0.960913
C79	C	0.324556	-0.294004	0.294275
C80	C	0.657890	0.039329	0.627608
C81	C	0.991223	0.372662	0.960942
C82	C	0.253864	-0.294014	0.294283
C83	C	0.587197	0.039320	0.627616
C84	C	0.920531	0.372653	0.960950
C85	C	0.250386	-0.384154	0.384176
C86	C	0.583719	-0.050821	0.717509
C87	C	0.917053	0.282512	1.050843
C88	C	0.321073	-0.384150	0.384170
C89	C	0.654407	-0.050817	0.717504
C90	C	0.987740	0.282517	1.050837
C91	C	0.358155	-0.339070	0.339221
C92	C	0.691488	-0.005737	0.672555
C93	C	1.024822	0.327596	1.005888
C94	C	0.434804	-0.339069	0.339212
C95	C	0.768137	-0.005735	0.672546
C96	C	1.101470	0.327598	1.005879
C97	C	0.495895	-0.339071	0.339209
C98	C	0.829229	-0.005738	0.672542
C99	C	1.162562	0.327596	1.005875
C100	C	0.996770	-0.636901	0.307443
C101	C	1.330103	-0.303568	0.640776
C102	C	1.663437	0.029766	0.974109
C103	C	0.993957	-0.710406	0.310296
C104	C	1.327291	-0.377073	0.643630
C105	C	1.660624	-0.043740	0.976963
C106	C	0.949238	-0.747167	0.354968
C107	C	1.282571	-0.413834	0.688301
C108	C	1.615905	-0.080500	1.021634
C109	C	0.907333	-0.710418	0.396793
C110	C	1.240667	-0.377085	0.730126
C111	C	1.574000	-0.043752	1.063460
C112	C	0.910150	-0.636914	0.393942
C113	C	1.243483	-0.303581	0.727275
C114	C	1.576817	0.029753	1.060609
C115	C	0.936174	-0.967002	0.368135
C116	C	1.269507	-0.633668	0.701468
C117	C	1.602840	-0.300335	1.034801
C118	C	0.933359	-1.040511	0.370981
C119	C	1.266692	-0.707178	0.704314
C120	C	1.600025	-0.373844	1.037647
C121	C	1.019984	-1.040494	0.284485
C122	C	1.353317	-0.707161	0.617818
C123	C	1.686651	-0.373828	0.951151
C124	C	1.022794	-0.966989	0.281635
C125	C	1.356127	-0.633655	0.614968
C126	C	1.689460	-0.300322	0.948302
C127	C	0.980892	-0.930246	0.323463
C128	C	1.314225	-0.596913	0.656796
C129	C	1.647558	-0.263580	0.990129
N130	N	0.946361	-0.822301	0.357884
N131	N	1.279694	-0.488968	0.691218
N132	N	1.613027	-0.155635	1.024551
N133	N	0.983773	-0.855113	0.320549
N134	N	1.317106	-0.521780	0.653882
N135	N	1.650440	-0.188447	0.987216
C136	C	1.141548	-0.339077	0.339226
C137	C	1.474882	-0.005744	0.672560
C138	C	1.808215	0.327590	1.005893
C139	C	1.216780	-0.339083	0.339236
C140	C	1.550114	-0.005750	0.672570
C141	C	1.883447	0.327584	1.005903
C142	C	0.965046	-0.339019	0.515745
C143	C	1.298379	-0.005685	0.849078
C144	C	1.631713	0.327648	1.182411
C145	C	0.965063	-0.339000	0.590976
C146	C	1.298396	-0.005667	0.924309
C147	C	1.631730	0.327667	1.257643
C148	C	0.972197	-0.155485	0.332161
C149	C	1.305531	0.177849	0.665495
C150	C	1.638864	0.511182	0.998828
C151	C	0.975262	-0.077255	0.329160
C152	C	1.308595	0.256079	0.662494
C153	C	1.641928	0.589412	0.995827
C154	C	0.965008	-0.339056	0.163347
C155	C	1.298341	-0.005723	0.496681
C156	C	1.631674	0.327610	0.830014
C157	C	0.965130	-0.338877	0.088109
C158	C	1.298463	-0.005544	0.421442
C159	C	1.631796	0.327790	0.754775
C160	C	1.010118	-0.293985	0.624600
C161	C	1.343451	0.039348	0.957933
C162	C	1.676784	0.372681	1.291267
C163	C	1.010125	-0.293965	0.695288
C164	C	1.343459	0.039368	1.028621
C165	C	1.676792	0.372702	1.361954
C166	C	0.965081	-0.338963	0.732350
C167	C	1.298414	-0.005630	1.065683
C168	C	1.631748	0.327704	1.399017
C169	C	0.920022	-0.383980	0.698721
C170	C	1.253355	-0.050646	1.032055
C171	C	1.586688	0.282687	1.365388
C172	C	0.920011	-0.383996	0.628035
C173	C	1.253344	-0.050663	0.961368
C174	C	1.586678	0.282671	1.294701
C175	C	0.920062	-0.383914	0.983792
C176	C	1.253396	-0.050581	1.317126
C177	C	1.586729	0.282753	1.650459
C178	C	0.920078	-0.383896	1.054484
C179	C	1.253411	-0.050562	1.387817
C180	C	1.586744	0.282771	1.721150
C181	C	1.010177	-0.293883	1.051045
C182	C	1.343510	0.039450	1.384378
C183	C	1.676843	0.372784	1.717712
C184	C	1.010166	-0.293899	0.980358
C185	C	1.343499	0.039434	1.313692
C186	C	1.676833	0.372767	1.647025
C187	C	0.965104	-0.338913	0.946736
C188	C	1.298438	-0.005580	1.280069
C189	C	1.631771	0.327754	1.613402
C190	C	0.965096	-0.338934	0.870088
C191	C	1.298429	-0.005600	1.203421
C192	C	1.631762	0.327733	1.536755
C193	C	0.965093	-0.338947	0.808997
C194	C	1.298426	-0.005613	1.142330
C195	C	1.631759	0.327720	1.475663
H196	H	0.704191	-0.420836	0.420734
H197	H	1.037525	-0.087502	0.754067
H198	H	1.370858	0.245831	1.087401
C199	C	0.858139	-0.750857	0.445930
C200	C	1.191473	-0.417524	0.779263
C201	C	1.524806	-0.084191	1.112597
N202	N	0.821082	-0.781316	0.482938
N203	N	1.154416	-0.447982	0.816271
N204	N	1.487749	-0.114649	1.149605
H205	H	0.226505	-0.257309	0.257684
H206	H	0.559839	0.076024	0.591018
H207	H	0.893172	0.409357	0.924351
H208	H	1.054099	-1.070418	0.250432
H209	H	1.387432	-0.737084	0.583765
H210	H	1.720766	-0.403751	0.917099
H211	H	0.220186	-0.420858	0.420778
H212	H	0.553519	-0.087525	0.754111
H213	H	0.886852	0.245809	1.087445
H214	H	0.575957	-0.420838	0.420749
H215	H	0.909291	-0.087504	0.754082
H216	H	1.242624	0.245829	1.087416
H217	H	0.883394	-0.420540	1.084658
H218	H	1.216728	-0.087207	1.417992
H219	H	1.550061	0.246127	1.751325
C220	C	0.864054	-0.596497	0.439949
C221	C	1.197387	-0.263163	0.773282
C222	C	1.530720	0.070170	1.106615
N223	N	0.829334	-0.566055	0.474604
N224	N	1.162668	-0.232722	0.807937
N225	N	1.496001	0.100612	1.141271
H226	H	1.046866	-0.257228	1.078429
H227	H	1.380199	0.076105	1.411762
H228	H	1.713532	0.409438	1.745096
C229	C	1.059690	-0.244447	0.732271
C230	C	1.393024	0.088887	1.065604
C231	C	1.726357	0.422220	1.398937
N232	N	1.097025	-0.207147	0.760126
N233	N	1.430358	0.126186	1.093459
N234	N	1.763691	0.459519	1.426792
C235	C	0.358034	-0.433730	0.433611
C236	C	0.691368	-0.100396	0.766944
C237	C	1.024701	0.232937	1.100277
N238	N	0.385872	-0.471072	0.470852
N239	N	0.719206	-0.137739	0.804186
N240	N	1.052539	0.195594	1.137519
H241	H	0.883343	-0.420615	0.728903
H242	H	1.216677	-0.087282	1.062237
H243	H	1.550010	0.246051	1.395570
C244	C	0.870491	-0.433428	0.946816
C245	C	1.203824	-0.100095	1.280150
C246	C	1.537158	0.233239	1.613483
N247	N	0.833150	-0.470723	0.918964
N248	N	1.166484	-0.137390	1.252297
N249	N	1.499817	0.195943	1.585631
C250	C	0.572663	-0.244411	0.244815
C251	C	0.905996	0.088922	0.578148
C252	C	1.239329	0.422255	0.911482
N253	N	0.544819	-0.207070	0.207577
N254	N	0.878153	0.126263	0.540910
N255	N	1.211486	0.459596	0.874243
H256	H	0.354740	-0.257303	0.257670
H257	H	0.688073	0.076030	0.591003
H258	H	1.021406	0.409364	0.924337
C259	C	0.870449	-0.433517	0.591049
C260	C	1.203782	-0.100183	0.924382
C261	C	1.537115	0.233150	1.257716
N262	N	0.833115	-0.470816	0.563192
N263	N	1.166449	-0.137482	0.896526
N264	N	1.499782	0.195851	1.229859
C265	C	0.890114	-0.926595	0.414181
C266	C	1.223447	-0.593261	0.747514
C267	C	1.556781	-0.259928	1.080848
N268	N	0.855433	-0.896158	0.448879
N269	N	1.188766	-0.562824	0.782212
N270	N	1.522099	-0.229491	1.115545
H271	H	0.896951	-1.070439	0.407369
H272	H	1.230284	-0.737106	0.740703
H273	H	1.563618	-0.403773	1.074036
C274	C	1.059670	-0.244482	0.583837
C275	C	1.393003	0.088851	0.917171
C276	C	1.726337	0.422184	1.250504
N277	N	1.096992	-0.207193	0.553137
N278	N	1.430326	0.126141	0.886470
N279	N	1.763659	0.459474	1.219803
H280	H	1.046848	-0.257260	0.950185
H281	H	1.380181	0.076074	1.283519
H282	H	1.713515	0.409407	1.616852
H283	H	0.710510	-0.257278	0.257647
H284	H	1.043843	0.076055	0.590981
H285	H	1.377176	0.409388	0.924314
H286	H	1.033182	-0.606975	0.271063
H287	H	1.366515	-0.273642	0.604397
H288	H	1.699849	0.059691	0.937730
C289	C	1.040050	-0.750821	0.264286
C290	C	1.373383	-0.417488	0.597619
C291	C	1.706716	-0.084154	0.930952
N292	N	1.074768	-0.781261	0.229627
N293	N	1.408101	-0.447928	0.562961
N294	N	1.741434	-0.114594	0.896294
H295	H	1.059207	-0.937060	0.245260
H296	H	1.392541	-0.603726	0.578593
H297	H	1.725874	-0.270393	0.911927
