data_functionalizedCrystal
_audit_creation_method	'MofGen! by Chris Wilmer'
_symmetry_space_group_name_H-M	'P1'
_symmetry_Int_Tables_number	1
_symmetry_cell_setting	triclinic
loop_
_symmetry_equiv_pos_as_xyz
  x,y,z
_cell_length_a	10.654550
_cell_length_b	14.971491
_cell_length_c	13.448316
_cell_angle_alpha	89.991393
_cell_angle_beta	90.006836
_cell_angle_gamma	95.949431
loop_
_atom_site_label
_atom_site_type_symbol
_atom_site_fract_x
_atom_site_fract_y
_atom_site_fract_z
O1	O	-0.163690	1.187835	-0.082735
O2	O	0.336310	1.687835	0.417265
O3	O	-0.183282	0.927542	-0.082728
O4	O	0.316718	1.427542	0.417272
O5	O	0.009317	1.063673	-0.082724
O6	O	0.509317	1.563673	0.417276
O7	O	-0.356289	1.051704	-0.082739
O8	O	0.143711	1.551704	0.417261
O9	O	0.009329	1.063656	0.082659
O10	O	0.509329	1.563656	0.582659
O11	O	-0.183270	0.927525	0.082656
O12	O	0.316730	1.427525	0.582656
O13	O	-0.163678	1.187818	0.082649
O14	O	0.336322	1.687818	0.582649
Cu15	Cu	-0.173473	1.057670	0.097753
Cu16	Cu	0.326527	1.557670	0.597753
Cu17	Cu	-0.173487	1.057690	-0.097832
Cu18	Cu	0.326513	1.557690	0.402168
O19	O	-0.356277	1.051687	0.082645
O20	O	0.143723	1.551687	0.582645
C21	C	-0.182399	0.894204	-0.000035
C22	C	0.317601	1.394204	0.499965
C23	C	-0.179769	0.794893	-0.000032
C24	C	0.320231	1.294893	0.499968
C25	C	-0.168431	0.367135	-0.090205
C26	C	0.331569	0.867135	0.409795
C27	C	-0.170898	0.460449	-0.090202
C28	C	0.329102	0.960449	0.409798
C29	C	-0.172133	0.507092	-0.000048
C30	C	0.327867	1.007092	0.499952
C31	C	-0.170888	0.460418	0.090109
C32	C	0.329112	0.960418	0.590109
C33	C	-0.168413	0.367107	0.090104
C34	C	0.331587	0.867107	0.590104
C35	C	-0.176051	0.654908	0.090112
C36	C	0.323949	1.154908	0.590112
C37	C	-0.178529	0.748225	0.090117
C38	C	0.321471	1.248225	0.590117
C39	C	-0.178536	0.748250	-0.090193
C40	C	0.321464	1.248250	0.409807
C41	C	-0.176060	0.654939	-0.090198
C42	C	0.323940	1.154939	0.409802
C43	C	-0.174818	0.608271	-0.000041
C44	C	0.325182	1.108271	0.499959
C45	C	-0.403072	1.052574	-0.000049
C46	C	0.096928	1.552574	0.499951
C47	C	-0.542487	1.055204	-0.000055
C48	C	-0.042487	1.555204	0.499945
C49	C	-0.622830	0.975052	-0.000043
C50	C	-0.122830	1.475052	0.499957
C51	C	-0.753825	0.977528	-0.000036
C52	C	-0.253825	1.477528	0.499964
C53	C	-0.724119	1.140315	-0.000048
C54	C	-0.224119	1.640315	0.499952
C55	C	-0.593127	1.137838	-0.000062
C56	C	-0.093127	1.637838	0.499938
C57	C	-0.572190	0.892418	-0.000035
C58	C	-0.072190	1.392418	0.499965
C59	C	-0.652535	0.812260	-0.000022
C60	C	-0.152535	1.312260	0.499978
C61	C	-0.783529	0.814736	-0.000015
C62	C	-0.283529	1.314736	0.499985
C63	C	-0.834179	0.897370	-0.000021
C64	C	-0.334179	1.397370	0.499979
C65	C	0.056112	1.062786	-0.000033
C66	C	0.556112	1.562786	0.499967
C67	C	0.195527	1.060157	-0.000033
C68	C	0.695527	1.560157	0.499967
C69	C	-0.164561	1.221156	-0.000046
C70	C	0.335439	1.721156	0.499954
C71	C	-0.167191	1.320467	-0.000056
C72	C	0.332809	1.820467	0.499944
N73	N	-0.173462	1.057662	0.235317
N74	N	0.326538	1.557662	0.735317
N75	N	-0.173488	1.057705	-0.235397
N76	N	0.326512	1.557705	0.264603
C77	C	-0.088215	1.117960	0.287359
C78	C	0.411785	1.617960	0.787359
C79	C	-0.088213	1.117966	0.391463
C80	C	0.411787	1.617966	0.891463
C81	C	-0.173467	1.057677	0.443522
C82	C	0.326533	1.557677	0.943522
C83	C	-0.258719	0.997372	0.391473
C84	C	0.241281	1.497372	0.891473
C85	C	-0.258713	0.997363	0.287372
C86	C	0.241287	1.497363	0.787372
C87	C	-0.258728	0.997397	0.608453
C88	C	0.241272	1.497397	1.108453
C89	C	-0.258736	0.997407	0.712561
C90	C	0.241264	1.497407	1.212561
C91	C	-0.088228	1.118000	0.712544
C92	C	0.411772	1.618000	1.212544
C93	C	-0.088222	1.117990	0.608443
C94	C	0.411778	1.617990	1.108443
C95	C	-0.173476	1.057687	0.556401
C96	C	0.326524	1.557687	1.056401
H97	H	-0.175063	0.616964	-0.163610
H98	H	0.324937	1.116964	0.336390
H99	H	-0.179549	0.786251	-0.163602
H100	H	0.320451	1.286251	0.336398
H101	H	-0.167434	0.329164	-0.163619
H102	H	0.332566	0.829164	0.336381
F103	F	-0.179836	0.797865	0.186069
F104	F	0.320164	1.297865	0.686069
F105	F	-0.172212	0.510113	-0.186151
F106	F	0.327788	1.010113	0.313849
F107	F	-0.174716	0.605243	0.186068
F108	F	0.325284	1.105243	0.686068
F109	F	-0.598628	0.724319	-0.000029
F110	F	-0.098628	1.224319	0.499971
H111	H	-0.018798	1.167064	0.433835
H112	H	0.481202	1.667064	0.933835
H113	H	-0.171886	0.498403	0.163514
H114	H	0.328114	0.998403	0.663514
H115	H	-0.527709	1.203104	-0.000077
H116	H	-0.027709	1.703104	0.499923
H117	H	-0.848943	0.749467	-0.000014
H118	H	-0.348943	1.249467	0.499986
H119	H	-0.167416	0.329109	0.163513
H120	H	0.332584	0.829109	0.663513
F121	F	-0.432776	0.889776	-0.000038
F122	F	0.067224	1.389776	0.499962
F123	F	-0.973597	0.900001	-0.000024
F124	F	-0.473597	1.400001	0.499976
H125	H	-0.018796	1.167058	0.244979
H126	H	0.481204	1.667058	0.744979
F127	F	-0.778029	1.228254	-0.000052
F128	F	-0.278029	1.728254	0.499948
H129	H	-0.018808	1.167086	0.566056
H130	H	0.481192	1.667086	1.066056
H131	H	-0.018812	1.167100	0.754923
H132	H	0.481188	1.667100	1.254923
H133	H	-0.328129	0.948261	0.245000
H134	H	0.171871	1.448261	0.745000
H135	H	-0.328157	0.948313	0.754943
H136	H	0.171843	1.448313	1.254943
F137	F	-0.349462	0.933212	0.553070
F138	F	0.150538	1.433212	1.053070
F139	F	-0.349448	0.933203	0.446879
F140	F	0.150552	1.433203	0.946879
