data_functionalizedCrystal
_audit_creation_method	'MofGen! by Chris Wilmer'
_symmetry_space_group_name_H-M	'P1'
_symmetry_Int_Tables_number	1
_symmetry_cell_setting	triclinic
loop_
_symmetry_equiv_pos_as_xyz
  x,y,z
_cell_length_a	10.967819
_cell_length_b	11.026607
_cell_length_c	16.776229
_cell_angle_alpha	89.996140
_cell_angle_beta	77.863565
_cell_angle_gamma	96.381100
loop_
_atom_site_label
_atom_site_type_symbol
_atom_site_fract_x
_atom_site_fract_y
_atom_site_fract_z
O1	O	1.694057	0.170567	-0.298998
O2	O	2.194057	0.670567	0.201002
O3	O	1.334416	0.186880	-0.249596
O4	O	1.834416	0.686880	0.250404
O5	O	1.484430	0.001822	-0.270200
O6	O	1.984430	0.501822	0.229800
O7	O	1.544043	0.355625	-0.278394
O8	O	2.044043	0.855625	0.221606
O9	O	1.484402	0.001810	-0.137619
O10	O	1.984402	0.501810	0.362381
O11	O	1.334388	0.186868	-0.117015
O12	O	1.834388	0.686868	0.382985
O13	O	1.694029	0.170555	-0.166418
O14	O	2.194029	0.670555	0.333582
Zn15	Zn	1.514204	0.178710	-0.120667
Zn16	Zn	2.014204	0.678710	0.379333
Zn17	Zn	1.514241	0.178725	-0.295347
Zn18	Zn	2.014241	0.678725	0.204653
O19	O	1.544015	0.355614	-0.145814
O20	O	2.044015	0.855614	0.354186
C21	C	1.287644	0.185685	-0.176883
C22	C	1.787644	0.685685	0.323117
C23	C	1.148318	0.182128	-0.157744
C24	C	1.648318	0.682128	0.342256
C25	C	0.942224	0.176884	-0.198127
C26	C	1.442224	0.676884	0.301873
C27	C	1.086224	0.180552	-0.217903
C28	C	1.586224	0.680552	0.282097
C29	C	1.473418	-0.043487	-0.202400
C30	C	1.973418	0.456513	0.297600
C31	C	1.440634	-0.178475	-0.197899
C32	C	1.940634	0.321525	0.302101
C33	C	1.531157	-0.251525	-0.210335
C34	C	2.031157	0.248475	0.289665
C35	C	1.497275	-0.391042	-0.205684
C36	C	1.997275	0.108958	0.294316
C37	C	1.740801	0.171750	-0.239133
C38	C	2.240801	0.671750	0.260867
C39	C	1.880127	0.175308	-0.258277
C40	C	2.380127	0.675308	0.241723
C41	C	1.555027	0.400922	-0.213616
C42	C	2.055027	0.900922	0.286384
C43	C	1.587811	0.535910	-0.218122
C44	C	2.087811	1.035910	0.281878
N45	N	1.514188	0.178699	-0.001453
N46	N	2.014188	0.678699	0.498547
N47	N	1.514265	0.178727	-0.414562
N48	N	2.014265	0.678727	0.085438
C49	C	1.580648	0.096789	0.031136
C50	C	2.080648	0.596789	0.531136
C51	C	1.580654	0.096788	0.114587
C52	C	2.080654	0.596788	0.614587
C53	C	1.514208	0.178704	0.165447
C54	C	2.014208	0.678704	0.665447
C55	C	1.447740	0.260617	0.132853
C56	C	1.947740	0.760617	0.632853
C57	C	1.447726	0.260611	0.049404
C58	C	1.947726	0.760611	0.549404
C59	C	1.447790	0.260642	0.469393
C60	C	1.947790	0.760642	0.969393
C61	C	1.447812	0.260644	0.552847
C62	C	1.947812	0.760644	1.052847
C63	C	1.580718	0.096818	0.534576
C64	C	2.080718	0.596818	1.034576
C65	C	1.580705	0.096812	0.451127
C66	C	2.080705	0.596812	0.951127
C67	C	1.514232	0.178721	0.418542
C68	C	2.014232	0.678721	0.918542
C69	C	1.514224	0.178720	0.328054
C70	C	2.014224	0.678720	0.828054
C71	C	1.514223	0.178712	0.255932
C72	C	2.014223	0.678712	0.755932
H73	H	1.094881	0.180769	-0.091602
H74	H	1.594881	0.680769	0.408398
H75	H	0.933572	0.176681	-0.324414
H76	H	1.433572	0.676681	0.175586
H77	H	1.633741	-0.210777	-0.224422
H78	H	2.133741	0.289223	0.275578
H79	H	1.394684	-0.431784	-0.191597
H80	H	1.894684	0.068216	0.308403
H81	H	1.139664	0.181925	-0.284044
H82	H	1.639664	0.681925	0.215956
H83	H	0.888781	0.175524	-0.131990
H84	H	1.388781	0.675524	0.368010
H85	H	1.393606	0.327309	0.022872
H86	H	1.893606	0.827309	0.522872
F87	F	1.651431	0.009632	0.397001
F88	F	2.151431	0.509632	0.897001
H89	H	1.690402	-0.423349	-0.232274
H90	H	2.190402	0.076651	0.267726
H91	H	1.338050	-0.219223	-0.183813
H92	H	1.838050	0.280777	0.316187
H93	H	1.393630	0.327310	0.174269
H94	H	1.893630	0.827310	0.674269
H95	H	1.634762	0.030089	-0.010271
H96	H	2.134762	0.530089	0.489729
F97	F	1.651386	0.009610	0.149271
F98	F	2.151386	0.509610	0.649271
F99	F	1.377050	0.347817	0.434719
F100	F	1.877050	0.847817	0.934719
F101	F	1.651461	0.009639	0.569263
F102	F	2.151461	0.509639	1.069263
H103	H	1.393699	0.327351	0.594257
H104	H	1.893699	0.827351	1.094257
