data_functionalizedCrystal
_audit_creation_method	'MofGen! by Chris Wilmer'
_symmetry_space_group_name_H-M	'P1'
_symmetry_Int_Tables_number	1
_symmetry_cell_setting	triclinic
loop_
_symmetry_equiv_pos_as_xyz
  x,y,z
_cell_length_a	10.723022
_cell_length_b	17.019294
_cell_length_c	9.798715
_cell_angle_alpha	86.117884
_cell_angle_beta	89.996609
_cell_angle_gamma	83.929508
loop_
_atom_site_label
_atom_site_type_symbol
_atom_site_fract_x
_atom_site_fract_y
_atom_site_fract_z
O1	O	1.655493	0.110630	-0.126481
O2	O	1.292178	0.121222	-0.127730
O3	O	1.483971	0.001148	-0.113610
O4	O	1.463701	0.230704	-0.140601
O5	O	1.483957	0.001148	0.113372
O6	O	1.292164	0.121221	0.099252
O7	O	1.655479	0.110630	0.100501
Zn8	Zn	1.473819	0.115926	0.135915
Zn9	Zn	1.473838	0.115926	-0.163144
O10	O	1.463686	0.230704	0.086381
C11	C	1.245683	0.120451	-0.014149
C12	C	1.107164	0.118146	-0.013880
C13	C	0.887993	0.182948	-0.021502
C14	C	1.031160	0.185332	-0.021781
C15	C	1.483195	-0.028245	0.003334
C16	C	1.480890	-0.115828	0.013623
C17	C	1.479817	-0.156970	-0.105270
C18	C	1.477642	-0.239263	-0.095599
C19	C	1.476550	-0.280412	0.032968
C20	C	1.477619	-0.239265	0.151870
C21	C	1.479784	-0.156973	0.142197
C22	C	1.470002	-0.528880	0.068365
C23	C	1.467841	-0.611178	0.078029
C24	C	1.467862	-0.611170	-0.169441
C25	C	1.470035	-0.528878	-0.179103
C26	C	1.471098	-0.487736	-0.060201
C27	C	1.474331	-0.364529	0.042857
C28	C	1.473307	-0.403620	-0.070091
C29	C	1.701974	0.111401	-0.013083
C30	C	1.840493	0.113706	-0.013361
C31	C	1.464462	0.260097	-0.030566
C32	C	1.466768	0.347680	-0.040864
N33	N	1.473816	0.115925	0.340015
N34	N	1.473852	0.115921	-0.367243
C35	C	1.554348	0.065287	0.413746
C36	C	1.554368	0.065285	0.570909
H37	H	1.066269	0.058858	-0.006945
C38	C	0.799749	0.260653	-0.030637
N39	N	0.733285	0.319182	-0.037515
H40	H	1.623276	0.021933	0.360522
C41	C	1.480968	-0.111717	0.272989
N42	N	1.481856	-0.077632	0.371507
H43	H	0.905817	0.056190	-0.006607
H44	H	1.072063	0.244617	-0.028743
C45	C	1.473128	-0.409802	0.184278
N46	N	1.472218	-0.443905	0.290795
H47	H	1.474189	-0.370112	-0.174769
H48	H	1.480714	-0.123472	-0.209963
C49	C	1.380701	0.174493	0.547140
N50	N	1.310538	0.218608	0.482643
H51	H	1.476774	-0.272757	-0.192414
C52	C	1.466634	-0.656441	0.219468
N53	N	1.465727	-0.690534	0.325995
H54	H	1.404879	0.159273	0.393242
H55	H	1.470927	-0.495379	-0.283795
C56	C	1.466680	-0.656431	-0.300224
N57	N	1.465782	-0.690522	-0.398735
H58	H	1.470892	-0.495395	0.165184
H59	H	1.476721	-0.272775	0.256552
H60	H	1.623319	0.021934	0.634292
