data_functionalizedCrystal
_audit_creation_method	'MofGen! by Chris Wilmer'
_symmetry_space_group_name_H-M	'P1'
_symmetry_Int_Tables_number	1
_symmetry_cell_setting	triclinic
loop_
_symmetry_equiv_pos_as_xyz
  x,y,z
_cell_length_a	11.792241
_cell_length_b	10.654559
_cell_length_c	9.130313
_cell_angle_alpha	89.999532
_cell_angle_beta	89.998583
_cell_angle_gamma	84.341050
loop_
_atom_site_label
_atom_site_type_symbol
_atom_site_fract_x
_atom_site_fract_y
_atom_site_fract_z
O1	O	0.159465	1.667376	-0.121808
O2	O	0.174642	1.301856	-0.121809
O3	O	0.001904	1.493486	-0.121798
O4	O	0.332203	1.475746	-0.121819
O5	O	0.001908	1.493484	0.121800
O6	O	0.174647	1.301854	0.121790
O7	O	0.159469	1.667374	0.121791
Cu8	Cu	0.167058	1.484614	0.144033
Cu9	Cu	0.167053	1.484616	-0.144051
O10	O	0.332208	1.475744	0.121780
C11	C	0.173528	1.255060	-0.000010
C12	C	0.170187	1.115627	-0.000010
C13	C	0.065341	1.064384	0.000000
C14	C	0.062209	0.933371	-0.000011
C15	C	0.268778	0.904854	-0.000036
C16	C	0.271909	1.035865	-0.000036
C17	C	-0.053920	1.080847	0.000021
C18	C	-0.057052	0.949833	0.000010
C19	C	-0.040388	1.492371	0.000001
C20	C	-0.166409	1.489035	-0.000001
C21	C	-0.397136	1.482902	-0.000025
C22	C	-0.268743	1.486310	-0.000012
C23	C	0.374499	1.476859	-0.000022
C24	C	0.500521	1.480195	-0.000030
C25	C	0.160584	1.714170	-0.000012
C26	C	0.163924	1.853603	-0.000021
N27	N	0.167062	1.484621	0.346655
N28	N	0.167041	1.484619	-0.346674
C29	C	0.090599	1.569497	0.423312
C30	C	0.090586	1.569493	0.576649
C31	C	0.243507	1.399734	0.576659
C32	C	0.243514	1.399733	0.423325
C33	C	0.002315	1.667509	0.423308
C34	C	0.002301	1.667506	0.576645
H35	H	-0.095039	0.914313	-0.105169
F36	F	0.383499	1.090397	-0.000075
H37	H	0.029961	1.758614	0.375748
F38	F	0.027715	1.793580	0.631046
H39	H	-0.098865	1.122723	-0.101916
H40	H	0.305752	1.330620	0.639099
F41	F	-0.105451	1.627920	0.638806
F42	F	0.324881	1.309384	0.341741
F43	F	0.377031	0.819956	-0.000066
H44	H	-0.084927	1.646313	0.381693
F45	F	-0.101007	1.140642	0.137504
H46	H	-0.103684	0.920595	0.101960
