data_functionalizedCrystal
_audit_creation_method	'MofGen! by Chris Wilmer'
_symmetry_space_group_name_H-M	'P1'
_symmetry_Int_Tables_number	1
_symmetry_cell_setting	triclinic
loop_
_symmetry_equiv_pos_as_xyz
  x,y,z
_cell_length_a	14.853569
_cell_length_b	15.995292
_cell_length_c	13.330367
_cell_angle_alpha	89.998548
_cell_angle_beta	89.994419
_cell_angle_gamma	83.552090
loop_
_atom_site_label
_atom_site_type_symbol
_atom_site_fract_x
_atom_site_fract_y
_atom_site_fract_z
O1	O	1.196196	0.109326	-0.083370
O2	O	0.933716	0.122347	-0.083382
O3	O	1.072158	-0.006046	-0.083377
O4	O	1.057754	0.237719	-0.083375
O5	O	1.072138	-0.006049	0.083470
O6	O	0.933696	0.122344	0.083466
O7	O	1.196176	0.109323	0.083477
Cu8	Cu	1.064934	0.115834	0.098706
Cu9	Cu	1.064958	0.115837	-0.098610
O10	O	1.057734	0.237716	0.083472
C11	C	0.900118	0.121756	0.000041
C12	C	0.800038	0.119987	0.000036
C13	C	0.763782	0.042889	0.000032
C14	C	0.742253	0.195423	0.000044
C15	C	0.648221	0.193764	0.000046
C16	C	0.611966	0.116666	0.000041
C17	C	0.669742	0.041227	0.000036
C18	C	0.590438	0.269202	0.000061
C19	C	0.496401	0.267546	0.000063
C20	C	0.460144	0.190446	0.000052
C21	C	0.517926	0.115004	0.000045
C22	C	0.481671	0.037906	0.000041
C23	C	0.539452	-0.037537	0.000027
C24	C	0.633485	-0.035872	0.000024
C25	C	0.366110	0.188782	0.000055
C26	C	0.387631	0.036245	0.000045
C27	C	1.071562	-0.037244	0.000044
C28	C	1.069805	-0.130199	0.000036
C29	C	1.063343	-0.467945	0.000045
C30	C	1.163267	-0.444516	0.000422
C31	C	1.165166	-0.347838	0.000043
C32	C	1.066549	-0.300385	0.000041
C33	C	1.016603	-0.329543	-0.095236
C34	C	1.015401	-0.426335	-0.095312
C35	C	1.013337	-0.426197	0.094425
C36	C	1.017040	-0.329700	0.095680
C37	C	1.068356	-0.205687	0.000036
C38	C	1.061533	-0.562642	0.000044
C39	C	1.229774	0.109915	0.000053
C40	C	1.329855	0.111684	0.000051
C41	C	1.058330	0.268914	0.000049
C42	C	1.060088	0.361869	0.000050
N43	N	1.064924	0.115831	0.237487
N44	N	1.064975	0.115833	-0.237392
C45	C	1.003653	0.172667	0.710108
C46	C	1.126287	0.059000	0.710080
C47	C	1.126277	0.058998	0.605062
C48	C	1.064955	0.115832	0.552562
C49	C	1.003643	0.172668	0.605080
C50	C	1.187594	0.002168	0.552535
C51	C	1.187587	0.002164	0.447511
C52	C	1.126260	0.058994	0.395009
C53	C	1.064945	0.115832	0.447534
C54	C	1.003622	0.172666	0.395034
C55	C	0.942302	0.229501	0.447557
C56	C	0.942316	0.229499	0.552578
C57	C	1.126246	0.058997	0.289987
C58	C	1.003612	0.172667	0.290006
H59	H	0.449363	0.328976	0.000073
H60	H	0.810831	-0.018535	0.000016
C61	C	0.697040	-0.118851	0.000009
H62	H	0.661983	-0.165008	-0.000005
H63	H	0.734169	-0.121380	0.058189
H64	H	0.734170	-0.121363	-0.058185
H65	H	0.358120	-0.026539	0.000036
H66	H	0.771778	0.258193	0.000055
H67	H	0.953725	0.218939	0.752875
H68	H	0.619965	0.331971	0.000071
H69	H	0.892377	0.275779	0.404799
H70	H	1.237516	-0.044114	0.404753
H71	H	1.176218	0.012732	0.752829
C72	C	0.918574	-0.286603	-0.100042
H73	H	0.889626	-0.305124	-0.158208
H74	H	0.919111	-0.227320	-0.102900
H75	H	0.886502	-0.300886	-0.041982
H76	H	1.176176	0.012727	0.247228
C77	C	1.215299	-0.482281	0.092718
H78	H	1.275442	-0.467413	0.091543
H79	H	1.216819	-0.541801	0.091453
H80	H	1.185740	-0.460914	0.152104
H81	H	1.237525	-0.044101	0.595284
H82	H	0.319069	0.250206	0.000075
C83	C	0.936161	0.235187	0.232259
H84	H	0.944933	0.227048	0.162189
H85	H	0.945936	0.291086	0.249472
H86	H	0.875996	0.225984	0.249480
H87	H	1.204283	-0.328768	0.068339
C88	C	1.063399	-0.302286	-0.191022
H89	H	1.113375	-0.273160	-0.173155
H90	H	1.021448	-0.266269	-0.229476
H91	H	1.084238	-0.350593	-0.229522
H92	H	1.201576	-0.473487	-0.067518
H93	H	1.204530	-0.329386	-0.068372
H94	H	0.509920	-0.100310	0.000017
H95	H	0.942136	-0.440970	-0.099630
H96	H	1.050007	-0.453109	-0.166532
C97	C	1.055610	-0.464318	0.191983
H98	H	1.104159	-0.506055	0.176064
H99	H	1.010961	-0.489133	0.229184
H100	H	1.077815	-0.421282	0.230877
C101	C	1.066159	-0.304558	0.190903
H102	H	1.116626	-0.276308	0.172462
H103	H	1.086531	-0.353600	0.228317
H104	H	1.025622	-0.268233	0.230667
H105	H	0.945059	-0.296815	0.101433
H106	H	0.892392	0.275772	0.595349
C107	C	0.913977	-0.445211	0.095295
H108	H	0.902985	-0.478427	0.038455
H109	H	0.875023	-0.393906	0.093201
H110	H	0.902633	-0.475049	0.154757
