data_functionalizedCrystal
_audit_creation_method	'MofGen! by Chris Wilmer'
_symmetry_space_group_name_H-M	'P1'
_symmetry_Int_Tables_number	1
_symmetry_cell_setting	triclinic
loop_
_symmetry_equiv_pos_as_xyz
  x,y,z
_cell_length_a	14.395555
_cell_length_b	20.875790
_cell_length_c	14.395555
_cell_angle_alpha	61.747341
_cell_angle_beta	90.000811
_cell_angle_gamma	61.736416
loop_
_atom_site_label
_atom_site_type_symbol
_atom_site_fract_x
_atom_site_fract_y
_atom_site_fract_z
Zr1	Zr	0.944863	0.667561	-0.071782
O2	O	0.806066	0.794782	-0.210546
O3	O	0.980805	0.540334	-0.035870
O4	O	0.990333	0.667558	-0.220107
O5	O	0.796538	0.667563	0.126558
O6	O	1.143200	0.667563	-0.220110
O7	O	0.796538	0.667558	-0.026309
O8	O	1.126156	0.439982	0.109456
O9	O	0.813582	0.895143	-0.203008
O10	O	1.118199	0.592670	-0.012550
O11	O	1.004115	0.592670	0.101536
O12	O	1.015333	0.742460	-0.115379
O13	O	0.901249	0.742460	-0.001293
Zr14	Zr	1.188667	0.667576	0.172019
Zr15	Zr	1.188669	0.667568	-0.071787
Zr16	Zr	0.944861	0.667568	0.172024
Zr17	Zr	0.956848	0.827625	-0.059759
Zr18	Zr	1.176682	0.507512	0.159996
O19	O	1.152726	0.794803	0.136108
O20	O	1.152727	0.794792	-0.210553
O21	O	0.806065	0.794792	0.136115
O22	O	1.327464	0.540355	0.310784
O23	O	1.327465	0.540345	-0.035877
O24	O	0.980803	0.540345	0.310791
O25	O	1.336993	0.667574	-0.026321
O26	O	1.143197	0.667579	0.320344
O27	O	0.990330	0.667574	0.320348
O28	O	1.336992	0.667579	0.126547
O29	O	1.007375	0.895149	-0.203012
O30	O	1.126155	0.439988	0.303249
O31	O	1.319948	0.439994	0.303245
O32	O	1.319949	0.439988	0.109452
O33	O	0.813581	0.895149	-0.009214
O34	O	1.007374	0.895155	-0.009218
O35	O	1.118197	0.592677	0.215617
O36	O	1.232281	0.592677	0.101531
O37	O	1.129415	0.742467	-0.001298
O38	O	1.015332	0.742467	0.112788
C39	C	1.051773	0.467353	0.035080
C40	C	1.046684	0.399401	0.029976
C41	C	1.124348	0.312187	0.107633
C42	C	1.119518	0.248358	0.102831
C43	C	1.037027	0.271746	0.020367
C44	C	0.959355	0.358969	-0.057294
C45	C	0.964182	0.422796	-0.052487
C46	C	1.014001	0.086786	-0.002592
C47	C	1.009182	0.022950	-0.007395
C48	C	1.169344	-0.087656	0.152732
C49	C	1.174167	-0.023823	0.157528
C50	C	1.096492	0.063394	0.079871
N51	N	1.032090	0.206505	0.015454
N52	N	1.101425	0.128633	0.084789
C53	C	0.761801	0.667559	0.050125
C54	C	0.658299	0.667556	0.050128
C55	C	0.653797	0.585884	0.106193
C56	C	0.563838	0.626715	0.154345
C57	C	0.563829	0.626729	0.002009
C58	C	0.569703	0.708387	0.098342
C59	C	0.569708	0.708390	-0.054055
C60	C	0.479736	0.749280	-0.005925
C61	C	1.371729	0.667578	0.050112
C62	C	1.475231	0.667581	0.050110
C63	C	1.066767	0.667559	-0.254845
C64	C	1.066767	0.667556	-0.358347
C65	C	1.081757	0.867784	0.065158
C66	C	1.086846	0.935736	0.070262
C67	C	1.122860	0.585884	-0.362869
C68	C	1.018645	0.626710	-0.452822
C69	C	1.170955	0.626734	-0.452823
C70	C	0.962490	0.708383	-0.446937
C71	C	1.114876	0.708395	-0.446925
C72	C	1.010602	0.749280	-0.536890
C73	C	1.066763	0.667578	0.355083
C74	C	1.066763	0.667581	0.458585
C75	C	1.356737	0.467362	0.035074
C76	C	1.455151	0.399413	0.029967
C77	C	1.051771	0.467362	0.340044
C78	C	1.046682	0.399413	0.438442
C79	C	1.356735	0.467371	0.340038
C80	C	1.455148	0.399425	0.438434
C81	C	0.776795	0.867766	-0.239800
C82	C	0.678382	0.935712	-0.338196
C83	C	0.776793	0.867775	0.065164
C84	C	0.678379	0.935724	0.070270
C85	C	1.081759	0.867775	-0.239807
C86	C	1.086848	0.935724	-0.338205
C87	C	1.441817	0.367500	-0.031990
C88	C	1.534278	0.303664	-0.036810
C89	C	1.640072	0.271738	0.020335
C90	C	1.653404	0.303657	0.082294
C91	C	1.560944	0.367496	0.087107
C92	C	1.103842	0.367508	0.544210
C93	C	1.099057	0.303672	0.636676
C94	C	1.037118	0.271738	0.623371
C95	C	0.979950	0.303650	0.517592
C96	C	0.984730	0.367489	0.425129
C97	C	1.560925	0.367517	0.425090
C98	C	1.653405	0.303685	0.517535
C99	C	1.640105	0.271756	0.623322
C100	C	1.534317	0.303670	0.636664
C101	C	1.441840	0.367507	0.544220
C102	C	0.572605	0.967627	-0.324852
C103	C	0.480127	1.031480	-0.417295
C104	C	0.493427	1.063412	-0.523082
C105	C	0.599215	1.031493	-0.536424
C106	C	0.691691	0.967646	-0.443982
C107	C	0.691714	0.967643	0.132218
C108	C	0.599254	1.031497	0.137012
C109	C	0.493460	1.063425	0.079865
C110	C	0.480127	1.031503	0.017910
C111	C	0.572587	0.967655	0.013110
C112	C	1.148798	0.967637	-0.324864
C113	C	1.153601	1.031473	-0.417311
C114	C	1.096447	1.063399	-0.523097
C115	C	1.034495	1.031480	-0.536435
C116	C	1.029699	0.967641	-0.443990
H117	H	1.182760	0.177346	0.166068
H118	H	1.715415	0.219777	0.698586
H119	H	0.561714	0.941668	-0.037332
H120	H	0.418118	1.115400	-0.598345
H121	H	1.259072	0.592205	-0.456317
H122	H	0.892185	0.378007	-0.124434
H123	H	0.874331	0.742873	-0.443522
H124	H	1.232581	-0.158673	0.215958
H125	H	1.355682	0.393494	-0.078538
H126	H	0.942007	0.042004	-0.074554
H127	H	1.715350	0.219756	0.016407
H128	H	0.777816	0.941661	-0.454860
H129	H	0.561755	0.941632	-0.238723
H130	H	1.523401	0.277684	-0.087263
H131	H	1.204047	1.057455	-0.406429
H132	H	1.154281	0.393500	0.555065
H133	H	0.950766	0.157793	-0.065841
H134	H	1.355715	0.393478	0.555101
H135	H	0.900930	0.493811	-0.115714
H136	H	0.728381	0.516823	0.153676
H137	H	0.610130	1.057477	0.187467
H138	H	0.963095	0.818398	-0.611325
H139	H	0.573112	0.742882	0.139132
H140	H	1.739554	0.277654	0.128818
H141	H	0.393999	1.057457	-0.406410
H142	H	0.418182	1.115414	0.083782
H143	H	0.610031	1.057501	-0.622567
H144	H	0.393978	1.057509	-0.028618
H145	H	1.571816	0.393472	0.137566
H146	H	0.929520	0.277641	0.506774
H147	H	1.195340	0.941652	-0.238736
H148	H	0.573260	0.742876	-0.142137
H149	H	1.145614	0.277696	0.722797
H150	H	0.405284	0.818398	-0.053329
H151	H	0.560326	0.592199	0.242445
H152	H	0.777848	0.941652	0.178762
H153	H	1.100361	1.115382	-0.598363
H154	H	0.987963	1.057485	-0.622578
H155	H	1.033235	0.219757	0.698669
H156	H	0.979248	0.941664	-0.454867
H157	H	1.191524	0.293133	0.174782
H158	H	1.241342	-0.042876	0.224677
H159	H	0.560333	0.592194	-0.038681
H160	H	0.938186	0.393459	0.339011
H161	H	0.977948	0.592191	-0.456346
H162	H	1.170207	0.516825	-0.288298
H163	H	1.155597	0.742884	-0.443360
H164	H	1.571775	0.393504	0.338960
H165	H	1.523505	0.277665	0.722808
H166	H	1.739534	0.277707	0.506651
