data_functionalizedCrystal
_audit_creation_method	'MofGen! by Chris Wilmer'
_symmetry_space_group_name_H-M	'P1'
_symmetry_Int_Tables_number	1
_symmetry_cell_setting	triclinic
loop_
_symmetry_equiv_pos_as_xyz
  x,y,z
_cell_length_a	16.109302
_cell_length_b	10.723023
_cell_length_c	14.586319
_cell_angle_alpha	89.997215
_cell_angle_beta	89.994552
_cell_angle_gamma	83.964664
loop_
_atom_site_label
_atom_site_type_symbol
_atom_site_fract_x
_atom_site_fract_y
_atom_site_fract_z
O1	O	1.104074	0.160395	-0.076280
O2	O	1.604074	0.660395	0.423720
O3	O	0.862129	0.180355	-0.076272
O4	O	1.362129	0.680355	0.423728
O5	O	0.988683	-0.011275	-0.076272
O6	O	1.488683	0.488725	0.423728
O7	O	0.977521	0.352025	-0.076279
O8	O	1.477521	0.852025	0.423721
O9	O	0.988674	-0.011278	0.076209
O10	O	1.488674	0.488722	0.576209
O11	O	0.862121	0.180352	0.076209
O12	O	1.362121	0.680352	0.576209
O13	O	1.104065	0.160392	0.076201
O14	O	1.604065	0.660392	0.576201
Cu15	Cu	0.983092	0.170372	0.090128
Cu16	Cu	1.483092	0.670372	0.590128
Cu17	Cu	0.983102	0.170375	-0.090199
Cu18	Cu	1.483102	0.670375	0.409801
O19	O	0.977512	0.352022	0.076201
O20	O	1.477512	0.852022	0.576201
C21	C	0.831145	0.179545	-0.000031
C22	C	1.331145	0.679545	0.499969
C23	C	0.738836	0.177120	-0.000028
C24	C	1.238836	0.677120	0.499972
C25	C	0.526457	0.171513	0.083080
C26	C	1.026457	0.671513	0.583080
C27	C	0.439724	0.169221	0.083077
C28	C	0.939724	0.669221	0.583077
C29	C	0.439744	0.169231	-0.083166
C30	C	0.939744	0.669231	0.416834
C31	C	0.526476	0.171513	-0.083162
C32	C	1.026476	0.671513	0.416838
C33	C	0.569830	0.172660	-0.000036
C34	C	1.069830	0.672660	0.499964
C35	C	0.396364	0.168087	-0.000043
C36	C	0.896364	0.668087	0.499957
C37	C	0.302324	0.165602	-0.000047
C38	C	0.802324	0.665602	0.499953
C39	C	0.663877	0.175143	-0.000031
C40	C	1.163877	0.675143	0.499969
C41	C	0.987866	-0.057766	-0.000033
C42	C	1.487866	0.442234	0.499967
C43	C	0.985436	-0.196288	-0.000036
C44	C	1.485436	0.303712	0.499964
C45	C	0.984358	-0.258038	-0.079026
C46	C	1.484358	0.241962	0.420974
C47	C	0.981846	-0.401208	-0.079031
C48	C	1.481846	0.098792	0.420969
C49	C	1.135049	0.161202	-0.000042
C50	C	1.635049	0.661202	0.499958
C51	C	1.227359	0.163627	-0.000051
C52	C	1.727359	0.663627	0.499949
C53	C	0.978328	0.398512	-0.000040
C54	C	1.478328	0.898512	0.499960
C55	C	0.980758	0.537035	-0.000043
C56	C	1.480758	1.037035	0.499957
N57	N	0.983091	0.170369	0.216959
N58	N	1.483091	0.670369	0.716959
N59	N	0.983110	0.170368	-0.217030
N60	N	1.483110	0.670368	0.282970
C61	C	1.039147	0.085543	0.451966
C62	C	1.539147	0.585543	0.951966
C63	C	1.039150	0.085540	0.547947
C64	C	1.539150	0.585540	1.047947
C65	C	0.927048	0.255198	0.547957
C66	C	1.427048	0.755198	1.047957
C67	C	0.927042	0.255194	0.451977
C68	C	1.427042	0.755194	0.951977
C69	C	0.983096	0.170368	0.403984
C70	C	1.483096	0.670368	0.903984
C71	C	0.983105	0.170369	0.595945
C72	C	1.483105	0.670369	1.095945
C73	C	0.983107	0.170366	0.700012
C74	C	1.483107	0.670366	1.200012
C75	C	0.983093	0.170369	0.299910
C76	C	1.483093	0.670369	0.799910
H77	H	0.561753	0.172447	0.150767
H78	H	1.061753	0.672447	0.650767
H79	H	0.404413	0.168287	0.150759
H80	H	0.904413	0.668287	0.650759
H81	H	0.980923	-0.454312	-0.146658
H82	H	1.480923	0.045688	0.353342
O83	O	1.099614	-0.005947	0.599691
O84	O	1.599614	0.494053	1.099691
H85	H	1.064281	-0.066626	0.643421
H86	H	1.564281	0.433374	1.143421
H87	H	0.561792	0.172444	-0.150849
H88	H	1.061792	0.672444	0.349151
H89	H	0.985290	-0.204911	-0.146650
H90	H	1.485290	0.295089	0.353350
O91	O	0.392983	0.168012	-0.172821
O92	O	0.892983	0.668012	0.327179
H93	H	0.325384	0.166247	-0.158862
H94	H	0.825384	0.666247	0.341138
H95	H	0.881394	0.324269	0.412908
H96	H	1.381394	0.824269	0.912908
O97	O	0.981992	-0.392651	0.089549
O98	O	1.481992	0.107349	0.589549
H99	H	0.926462	-0.322207	0.093481
H100	H	1.426462	0.177793	0.593481
O101	O	0.984201	-0.266658	0.089541
O102	O	1.484201	0.233342	0.589541
H103	H	0.928066	-0.230619	0.129425
H104	H	1.428066	0.269381	0.629425
O105	O	1.099593	-0.005956	0.400197
O106	O	1.599593	0.494044	0.900197
H107	H	1.138562	-0.064949	0.449691
H108	H	1.638562	0.435051	0.949691
O109	O	0.866599	0.346701	0.599719
O110	O	1.366599	0.846701	1.099719
H111	H	0.876026	0.332466	0.674521
H112	H	1.376026	0.832466	1.174521
