data_functionalizedCrystal
_audit_creation_method	'MofGen! by Chris Wilmer'
_symmetry_space_group_name_H-M	'P1'
_symmetry_Int_Tables_number	1
_symmetry_cell_setting	triclinic
loop_
_symmetry_equiv_pos_as_xyz
  x,y,z
_cell_length_a	14.971486
_cell_length_b	10.723024
_cell_length_c	14.048226
_cell_angle_alpha	89.994758
_cell_angle_beta	89.998499
_cell_angle_gamma	84.040999
loop_
_atom_site_label
_atom_site_type_symbol
_atom_site_fract_x
_atom_site_fract_y
_atom_site_fract_z
O1	O	1.187820	0.162616	-0.079049
O2	O	0.927525	0.182090	-0.079074
O3	O	1.063676	-0.009286	-0.079057
O4	O	1.051668	0.353992	-0.079066
O5	O	1.063660	-0.009297	0.079264
O6	O	0.927508	0.182079	0.079247
O7	O	1.187804	0.162605	0.079273
Zn8	Zn	1.057653	0.172340	0.104397
Zn9	Zn	1.057675	0.172355	-0.104198
O10	O	1.051652	0.353981	0.079256
C11	C	0.894187	0.181213	0.000083
C12	C	0.794876	0.178604	0.000073
C13	C	0.738254	0.291032	0.000072
C14	C	0.644941	0.288572	0.000086
C15	C	0.608252	0.173683	0.000095
C16	C	0.664881	0.061246	0.000099
C17	C	0.758192	0.063707	0.000092
C18	C	0.470391	0.056125	0.000112
C19	C	0.377074	0.053663	0.000118
C20	C	0.357141	0.280990	0.000107
C21	C	0.450452	0.283451	0.000100
C22	C	0.507074	0.171013	0.000102
C23	C	1.062794	-0.055782	0.000102
C24	C	1.060180	-0.194309	0.000099
C25	C	1.136363	-0.270088	0.000105
C26	C	1.133663	-0.413263	0.000101
C27	C	1.221141	0.163482	0.000113
C28	C	1.320452	0.166091	0.000117
C29	C	1.052534	0.400477	0.000094
C30	C	1.055148	0.539004	0.000092
N31	N	1.057645	0.172329	0.246758
N32	N	1.057690	0.172356	-0.246559
C33	C	1.117952	0.087623	0.296583
C34	C	1.117958	0.087622	0.396241
C35	C	1.057660	0.172335	0.446071
C36	C	0.997347	0.257045	0.396238
C37	C	0.997337	0.257039	0.296583
C38	C	0.997373	0.257054	0.603953
C39	C	0.997383	0.257062	0.703615
C40	C	1.117994	0.087638	0.703611
C41	C	1.117984	0.087631	0.603955
C42	C	1.057671	0.172344	0.554129
H43	H	0.768119	0.384588	0.000064
C44	C	0.931010	0.350218	0.451055
N45	N	0.881043	0.420397	0.492343
C46	C	1.184315	-0.005556	0.549144
N47	N	1.234273	-0.075750	0.507860
H48	H	1.167057	0.018646	0.256018
C49	C	0.969361	-0.249853	0.000091
N50	N	0.900955	-0.291687	0.000088
H51	H	0.989926	-0.395889	0.000093
H52	H	0.948228	0.326013	0.256016
H53	H	1.167102	0.018662	0.744185
H54	H	1.167064	0.018648	0.436808
H55	H	0.948281	0.326043	0.744182
H56	H	0.948256	0.326032	0.563388
H57	H	0.480320	0.377003	0.000084
C58	C	0.582661	0.412252	0.000102
N59	N	0.535752	0.505414	0.000121
H60	H	0.311034	0.372540	0.000109
C61	C	0.336718	-0.072720	0.000129
N62	N	0.306322	-0.167914	0.000137
H63	H	1.203586	-0.228968	0.000117
C64	C	0.532674	-0.067563	0.000111
N65	N	0.579586	-0.160722	0.000104
H66	H	0.804293	-0.027843	0.000092
H67	H	0.635002	-0.032298	0.000120
H68	H	1.198882	-0.478377	0.000111
