data_functionalizedCrystal
_audit_creation_method	'MofGen! by Chris Wilmer'
_symmetry_space_group_name_H-M	'P1'
_symmetry_Int_Tables_number	1
_symmetry_cell_setting	triclinic
loop_
_symmetry_equiv_pos_as_xyz
  x,y,z
_cell_length_a	17.077404
_cell_length_b	25.639240
_cell_length_c	17.077396
_cell_angle_alpha	89.961743
_cell_angle_beta	89.980499
_cell_angle_gamma	90.032983
loop_
_atom_site_label
_atom_site_type_symbol
_atom_site_fract_x
_atom_site_fract_y
_atom_site_fract_z
Zn1	Zn	1.200001	-0.208148	-0.443789
Zn2	Zn	1.199885	-0.295585	-0.312501
Zn3	Zn	1.068733	-0.208166	-0.312537
Zn4	Zn	1.068678	-0.295554	-0.443725
O5	O	1.134324	-0.251863	-0.378138
O6	O	1.309832	-0.219752	-0.426386
O7	O	1.182462	-0.284010	-0.202659
O8	O	1.086217	-0.134998	-0.329991
O9	O	1.309747	-0.283992	-0.329929
O10	O	1.182659	-0.134985	-0.426421
O11	O	1.086105	-0.219783	-0.202686
O12	O	0.958878	-0.219753	-0.329928
O13	O	1.086124	-0.283939	-0.553580
O14	O	0.958838	-0.283957	-0.426310
O15	O	1.182606	-0.219722	-0.553628
O16	O	1.182409	-0.368746	-0.329866
O17	O	1.086012	-0.368724	-0.426275
C18	C	0.930376	-0.251854	-0.378116
C19	C	0.843126	-0.251862	-0.378126
C20	C	1.134213	-0.387706	-0.378077
C21	C	1.134238	-0.445820	-0.378076
C22	C	0.802136	-0.285344	-0.428232
C23	C	0.720155	-0.285345	-0.428244
C24	C	0.679167	-0.251867	-0.378146
C25	C	0.720163	-0.218382	-0.328038
C26	C	0.802142	-0.218378	-0.328030
C27	C	0.549293	-0.218392	-0.328057
C28	C	0.467309	-0.218396	-0.328064
C29	C	0.467307	-0.285358	-0.428271
C30	C	0.549285	-0.285355	-0.428263
C31	C	0.590276	-0.251871	-0.378154
C32	C	1.184567	-0.806137	-0.428440
C33	C	1.184590	-0.860742	-0.428456
O34	O	1.227249	-0.888940	-0.471213
N35	N	1.134433	-0.888102	-0.378214
C36	C	1.084244	-0.860856	-0.327958
O37	O	1.041584	-0.889142	-0.285226
C38	C	1.084218	-0.806252	-0.327947
C39	C	1.134383	-0.778895	-0.378187
C40	C	1.234727	-0.778780	-0.478676
C41	C	1.234705	-0.724179	-0.478659
C42	C	1.184522	-0.696936	-0.428406
C43	C	1.134361	-0.724294	-0.378169
C44	C	1.034026	-0.779007	-0.277696
C45	C	1.034003	-0.724400	-0.277689
C46	C	1.084169	-0.697042	-0.327929
C47	C	1.084156	-0.642451	-0.327899
N48	N	1.134312	-0.615090	-0.378141
C49	C	1.184495	-0.642333	-0.428394
C50	C	1.084303	-0.975526	-0.327987
C51	C	1.084333	-1.030129	-0.327994
C52	C	1.184677	-1.030011	-0.428493
C53	C	1.184651	-0.975408	-0.428481
C54	C	1.134460	-0.948166	-0.378229
C55	C	1.184445	-0.527668	-0.428354
C56	C	1.184421	-0.473063	-0.428330
C57	C	1.084074	-0.473185	-0.327834
C58	C	1.084101	-0.527786	-0.327855
C59	C	1.134289	-0.555026	-0.378121
O60	O	1.041516	-0.614218	-0.285165
O61	O	1.227141	-0.614040	-0.471127
C62	C	1.339068	-0.251873	-0.378160
C63	C	1.426318	-0.251877	-0.378170
C64	C	1.134372	-0.251825	-0.582882
C65	C	1.134392	-0.251808	-0.670132
C66	C	1.134457	-0.115490	-0.378217
C67	C	1.134513	-0.057376	-0.378251
C68	C	1.184632	-0.218368	-0.711149
C69	C	1.184641	-0.218350	-0.793129
C70	C	1.134414	-0.251777	-0.834092
C71	C	1.084168	-0.285219	-0.793070
C72	C	1.084156	-0.285233	-0.711091
C73	C	1.084200	-0.285187	-0.963940
C74	C	1.084214	-0.285174	-1.045925
C75	C	1.184686	-0.218304	-1.045978
C76	C	1.184673	-0.218319	-0.963999
C77	C	1.134428	-0.251762	-0.922983
C78	C	1.134322	-0.251864	-0.174190
C79	C	1.134454	-0.251733	-0.086941
H80	H	0.835503	-0.312607	-0.469025
H81	H	1.225577	-0.191103	-0.930649
H82	H	0.835516	-0.191112	-0.287233
O83	O	0.680428	-0.317849	-0.477020
C84	C	0.700491	-0.306489	-0.555290
H85	H	0.760026	-0.286385	-0.556973
H86	H	0.654382	-0.279639	-0.581823
C87	C	0.631150	-0.382198	-0.600608
C88	C	0.704275	-0.357510	-0.602675
H89	H	0.633481	-0.413670	-0.629839
H90	H	0.617630	-0.389851	-0.547877
H91	H	0.592733	-0.359818	-0.622717
H92	H	0.742688	-0.379887	-0.580557
H93	H	0.717802	-0.349862	-0.655404
O94	O	1.233177	-0.446569	-0.477212
C95	C	1.277484	-0.482327	-0.521557
H96	H	1.245343	-0.521266	-0.524252
H97	H	1.337121	-0.488118	-0.492869
C98	C	1.328214	-0.413140	-0.601796
C99	C	1.288736	-0.460964	-0.605113
H100	H	1.335159	-0.399962	-0.653337
H101	H	1.298366	-0.389048	-0.571919
H102	H	1.377908	-0.417972	-0.577886
H103	H	1.239040	-0.456130	-0.629013
H104	H	1.318576	-0.485055	-0.634996
O105	O	1.233410	-0.185792	-0.832880
C106	C	1.216291	-0.133686	-0.812880
H107	H	1.186103	-0.132616	-0.753355
H108	H	1.175962	-0.116060	-0.859021
C109	C	1.329925	-0.103336	-0.882223
C110	C	1.292854	-0.102022	-0.809110
H111	H	1.377152	-0.083803	-0.879901
H112	H	1.341458	-0.138441	-0.895700
H113	H	1.296310	-0.088648	-0.920666
H114	H	1.326465	-0.116715	-0.770670
H115	H	1.281329	-0.066919	-0.795626
H116	H	0.582656	-0.312619	-0.469053
O117	O	1.233400	-0.948915	-0.477364
C118	C	1.277710	-0.984676	-0.521702
H119	H	1.245573	-1.023617	-0.524389
H120	H	1.337348	-0.990462	-0.493014
C121	C	1.328433	-0.915494	-0.601957
C122	C	1.288958	-0.963321	-0.605263
H123	H	1.335375	-0.902321	-0.653500
H124	H	1.298583	-0.891401	-0.572084
H125	H	1.378127	-0.920322	-0.578047
H126	H	1.239262	-0.958491	-0.629163
H127	H	1.318800	-0.987413	-0.635142
O128	O	1.233239	-0.554179	-0.477072
C129	C	1.283998	-0.585750	-0.432442
H130	H	1.256350	-0.593990	-0.372934
H131	H	1.342159	-0.564672	-0.423857
C132	C	1.332180	-0.627457	-0.548761
C133	C	1.298220	-0.637582	-0.475675
H134	H	1.340957	-0.659428	-0.575430
H135	H	1.297986	-0.606186	-0.578830
H136	H	1.380645	-0.609891	-0.541597
H137	H	1.249753	-0.655142	-0.482841
H138	H	1.332407	-0.658857	-0.445608
O139	O	1.035484	-0.317618	-1.085839
C140	C	1.046256	-0.310421	-1.166990
H141	H	1.106863	-0.293311	-1.178206
H142	H	0.999741	-0.282558	-1.190256
C143	C	0.964552	-0.384323	-1.195281
C144	C	1.038992	-0.363313	-1.209057
H145	H	0.960068	-0.416948	-1.221231
H146	H	0.957292	-0.389171	-1.140608
H147	H	0.925797	-0.361099	-1.214670
H148	H	1.077745	-0.386533	-1.189660
H149	H	1.046259	-0.358470	-1.263728
H150	H	1.225538	-1.052202	-0.469413
H151	H	1.043237	-0.312459	-0.677696
H152	H	0.433928	-0.312621	-0.469074
O153	O	0.427612	-0.185824	-0.279379
C154	C	0.481368	-0.156275	-0.235140
H155	H	0.539823	-0.154489	-0.267290
H156	H	0.490046	-0.175365	-0.175463
C157	C	0.377610	-0.102815	-0.184516
C158	C	0.449403	-0.100618	-0.224006
H159	H	0.357892	-0.068484	-0.177645
H160	H	0.341393	-0.122724	-0.214318
H161	H	0.384851	-0.118726	-0.134789
H162	H	0.442159	-0.084713	-0.273736
H163	H	0.485618	-0.080705	-0.194213
O164	O	1.283555	-0.805157	-0.527520
C165	C	1.327800	-0.769291	-0.571864
H166	H	1.330504	-0.730386	-0.539699
H167	H	1.299021	-0.763468	-0.631455
C168	C	1.408036	-0.838317	-0.622762
C169	C	1.411362	-0.790534	-0.583252
H170	H	1.459580	-0.851422	-0.629790
H171	H	1.378226	-0.862482	-0.592888
H172	H	1.384050	-0.833458	-0.672417
H173	H	1.435338	-0.795395	-0.533595
H174	H	1.441178	-0.766371	-0.613118
O175	O	0.589201	-0.185940	-0.279341
C176	C	0.636560	-0.215668	-0.228542
H177	H	0.648818	-0.255313	-0.256115
H178	H	0.604936	-0.221366	-0.170356
C179	C	0.699395	-0.138197	-0.180538
C180	C	0.714456	-0.186888	-0.214407
H181	H	0.747444	-0.120444	-0.171815
H182	H	0.667487	-0.118168	-0.214760
H183	H	0.673040	-0.142952	-0.132054
H184	H	0.740801	-0.182132	-0.262894
H185	H	0.746370	-0.206915	-0.180192
O186	O	1.035534	-1.056620	-0.279160
C187	C	0.991256	-1.020859	-0.234790
H188	H	0.988508	-0.981920	-0.266933
H189	H	1.020035	-1.015068	-0.175199
C190	C	0.911099	-1.090043	-0.183923
C191	C	0.907718	-1.042219	-0.223405
H192	H	0.859570	-1.103219	-0.176897
H193	H	0.940932	-1.114136	-0.213813
H194	H	0.935085	-1.085211	-0.134268
H195	H	0.883742	-1.047053	-0.273063
H196	H	0.877880	-1.018127	-0.193523
H197	H	0.993129	-0.702222	-0.236769
H198	H	0.993176	-0.801272	-0.236785
H199	H	1.275552	-0.701908	-0.519570
H200	H	1.043434	-0.953349	-0.287059
H201	H	0.686784	-0.191121	-0.287251
H202	H	1.043258	-0.550062	-0.286940
H203	H	1.043273	-0.312412	-0.930547
H204	H	1.043217	-0.450996	-0.286916
O205	O	1.233313	-0.185869	-0.671276
C206	C	1.188644	-0.152098	-0.623885
H207	H	1.129139	-0.170539	-0.611579
H208	H	1.180058	-0.113347	-0.655505
C209	C	1.304917	-0.119991	-0.561144
C210	C	1.231834	-0.142643	-0.546023
H211	H	1.331559	-0.114157	-0.513117
H212	H	1.335013	-0.142742	-0.593074
H213	H	1.297751	-0.087701	-0.587496
H214	H	1.239001	-0.174935	-0.519681
H215	H	1.201741	-0.119897	-0.514087
O216	O	1.035416	-0.317762	-0.832773
C217	C	1.052529	-0.369877	-0.812726
H218	H	1.082692	-0.370972	-0.753207
H219	H	1.092878	-0.387481	-0.858860
C220	C	0.938925	-0.400199	-0.882009
C221	C	0.975966	-0.401544	-0.808904
H222	H	0.891699	-0.419734	-0.879654
H223	H	0.927397	-0.365088	-0.895518
H224	H	0.972557	-0.414868	-0.920446
H225	H	0.942338	-0.386869	-0.770470
H226	H	0.987487	-0.436653	-0.795388
H227	H	1.225596	-0.191073	-1.079378
