data_functionalizedCrystal
_audit_creation_method	'MofGen! by Chris Wilmer'
_symmetry_space_group_name_H-M	'P1'
_symmetry_Int_Tables_number	1
_symmetry_cell_setting	triclinic
loop_
_symmetry_equiv_pos_as_xyz
  x,y,z
_cell_length_a	14.519731
_cell_length_b	14.519709
_cell_length_c	18.366186
_cell_angle_alpha	90.002495
_cell_angle_beta	90.006477
_cell_angle_gamma	83.684499
loop_
_atom_site_label
_atom_site_type_symbol
_atom_site_fract_x
_atom_site_fract_y
_atom_site_fract_z
O1	O	1.223858	0.120980	0.060553
O2	O	1.557192	0.454313	0.393886
O3	O	1.890525	0.787647	0.727219
O4	O	0.955384	0.135196	0.060554
O5	O	1.288718	0.468530	0.393887
O6	O	1.622051	0.801863	0.727221
O7	O	1.096740	-0.006150	0.060547
O8	O	1.430073	0.327184	0.393880
O9	O	1.763406	0.660517	0.727214
O10	O	1.082503	0.262326	0.060560
O11	O	1.415836	0.595659	0.393893
O12	O	1.749170	0.928993	0.727227
O13	O	1.096721	-0.006145	-0.060553
O14	O	1.430055	0.327188	0.272781
O15	O	1.763388	0.660522	0.606114
O16	O	0.955366	0.135201	-0.060545
O17	O	1.288699	0.468534	0.272788
O18	O	1.622033	0.801868	0.606121
O19	O	1.223840	0.120985	-0.060547
O20	O	1.557173	0.454318	0.272787
O21	O	1.890507	0.787652	0.606120
Zn22	Zn	1.089600	0.128094	-0.079773
Zn23	Zn	1.422933	0.461427	0.253560
Zn24	Zn	1.756267	0.794760	0.586894
Zn25	Zn	1.089624	0.128087	0.079781
Zn26	Zn	1.422958	0.461421	0.413114
Zn27	Zn	1.756291	0.794754	0.746447
O28	O	1.082485	0.262331	-0.060539
O29	O	1.415818	0.595664	0.272794
O30	O	1.749151	0.928998	0.606127
C31	C	0.921016	0.134532	0.000005
C32	C	1.254349	0.467866	0.333338
C33	C	1.587682	0.801199	0.666671
C34	C	0.818635	0.132536	0.000005
C35	C	1.151969	0.465870	0.333338
C36	C	1.485302	0.799203	0.666671
C37	C	0.735491	0.130915	0.000008
C38	C	1.068825	0.464248	0.333341
C39	C	1.402158	0.797581	0.666674
C40	C	0.631182	0.128888	0.000008
C41	C	0.964516	0.462221	0.333341
C42	C	1.297849	0.795555	0.666675
C43	C	0.548043	0.127280	0.000008
C44	C	0.881377	0.460613	0.333341
C45	C	1.214710	0.793946	0.666674
C46	C	0.443728	0.125253	0.000009
C47	C	0.777061	0.458586	0.333343
C48	C	1.110395	0.791920	0.666676
C49	C	1.096067	-0.040507	-0.000003
C50	C	1.429400	0.292826	0.333330
C51	C	1.762734	0.626160	0.666664
C52	C	1.094079	-0.142889	-0.000003
C53	C	1.427412	0.190445	0.333330
C54	C	1.760745	0.523778	0.666663
C55	C	1.086759	-0.517785	0.000016
C56	C	1.420093	-0.184452	0.333349
C57	C	1.753426	0.148882	0.666682
C58	C	1.088792	-0.413477	0.000010
C59	C	1.422125	-0.080143	0.333343
C60	C	1.755459	0.253190	0.666677
C61	C	1.090419	-0.330340	0.000005
C62	C	1.423752	0.002993	0.333339
C63	C	1.757085	0.336327	0.666672
C64	C	1.092452	-0.226025	0.000001
C65	C	1.425785	0.107308	0.333335
C66	C	1.759118	0.440641	0.666668
C67	C	1.258209	0.121649	0.000005
C68	C	1.591542	0.454982	0.333338
C69	C	1.924875	0.788315	0.666671
C70	C	1.360589	0.123645	0.000009
C71	C	1.693922	0.456978	0.333342
C72	C	2.027256	0.790311	0.666676
C73	C	1.083157	0.296688	0.000012
C74	C	1.416491	0.630022	0.333345
C75	C	1.749824	0.963355	0.666679
C76	C	1.085146	0.399070	0.000017
C77	C	1.418479	0.732403	0.333351
C78	C	1.751812	1.065736	0.666684
N79	N	1.089590	0.128098	-0.188664
N80	N	1.422924	0.461431	0.144669
N81	N	1.756257	0.794764	0.478002
C82	C	1.145663	0.184131	-0.773211
C83	C	1.478996	0.517464	-0.439878
C84	C	1.812329	0.850798	-0.106545
C85	C	1.145653	0.184140	-0.696983
C86	C	1.478987	0.517473	-0.363650
C87	C	1.812320	0.850807	-0.030317
C88	C	1.089633	0.128077	-0.658876
C89	C	1.422966	0.461411	-0.325542
C90	C	1.756300	0.794744	0.007791
C91	C	1.033600	0.072019	-0.697002
C92	C	1.366933	0.405352	-0.363668
C93	C	1.700267	0.738686	-0.030335
C94	C	1.033604	0.072019	-0.773228
C95	C	1.366937	0.405352	-0.439895
C96	C	1.700271	0.738685	-0.106561
C97	C	1.086943	0.044917	-0.538113
C98	C	1.420276	0.378250	-0.204780
C99	C	1.753609	0.711583	0.128553
C100	C	1.086945	0.044915	-0.461888
C101	C	1.420278	0.378249	-0.128555
C102	C	1.753612	0.711582	0.204778
C103	C	1.089615	0.128080	-0.423768
C104	C	1.422948	0.461413	-0.090435
C105	C	1.756281	0.794746	0.242899
C106	C	1.092301	0.211247	-0.461882
C107	C	1.425634	0.544580	-0.128549
C108	C	1.758967	0.877913	0.204785
C109	C	1.092305	0.211246	-0.538108
C110	C	1.425638	0.544580	-0.204775
C111	C	1.758972	0.877913	0.128558
C112	C	1.089622	0.128072	-0.576221
C113	C	1.422955	0.461405	-0.242887
C114	C	1.756288	0.794739	0.090446
C115	C	1.145629	0.184149	-0.302996
C116	C	1.478962	0.517482	0.030337
C117	C	1.812295	0.850815	0.363671
C118	C	1.145613	0.184160	-0.226767
C119	C	1.478946	0.517493	0.106567
C120	C	1.812279	0.850826	0.439900
C121	C	1.033565	0.072030	-0.226787
C122	C	1.366898	0.405364	0.106547
C123	C	1.700231	0.738697	0.439880
C124	C	1.033575	0.072028	-0.303014
C125	C	1.366909	0.405361	0.030319
C126	C	1.700242	0.738695	0.363652
C127	C	1.089612	0.128086	-0.341115
C128	C	1.422946	0.461419	-0.007781
C129	C	1.756279	0.794752	0.325552
N130	N	1.089641	0.128076	0.188672
N131	N	1.422975	0.461410	0.522005
N132	N	1.756308	0.794743	0.855338
H133	H	1.191291	0.229779	-0.804228
H134	H	1.524624	0.563113	-0.470894
H135	H	1.857958	0.896446	-0.137561
Cl136	Cl	0.963172	0.001543	-0.821149
Cl137	Cl	1.296505	0.334877	-0.487816
Cl138	Cl	1.629838	0.668210	-0.154483
H139	H	0.987961	0.026378	-0.334050
H140	H	1.321294	0.359711	-0.000716
H141	H	1.654627	0.693044	0.332617
Cl142	Cl	1.216026	0.254656	-0.178847
Cl143	Cl	1.549359	0.587989	0.154486
Cl144	Cl	1.882692	0.921323	0.487819
H145	H	1.084760	-0.022809	-0.569145
H146	H	1.418094	0.310524	-0.235811
H147	H	1.751427	0.643857	0.097522
H148	H	1.191272	0.229790	-0.665942
H149	H	1.524605	0.563124	-0.332609
H150	H	1.857938	0.896457	0.000724
Cl151	Cl	1.095661	0.315803	-0.413968
Cl152	Cl	1.428995	0.649137	-0.080635
Cl153	Cl	1.762328	0.982470	0.252699
Cl154	Cl	1.095674	0.315795	-0.586021
Cl155	Cl	1.429008	0.649128	-0.252687
Cl156	Cl	1.762341	0.982461	0.080646
Cl157	Cl	1.083561	-0.059635	-0.413982
Cl158	Cl	1.416894	0.273698	-0.080648
Cl159	Cl	1.750227	0.607032	0.252685
H160	H	1.191253	0.229799	-0.334019
H161	H	1.524586	0.563132	-0.000685
H162	H	1.857920	0.896465	0.332648
Cl163	Cl	0.963170	0.001545	-0.649096
Cl164	Cl	1.296503	0.334878	-0.315763
Cl165	Cl	1.629836	0.668211	0.017571
Cl166	Cl	0.963131	0.001558	-0.178887
Cl167	Cl	1.296464	0.334891	0.154447
Cl168	Cl	1.629797	0.668224	0.487780
