data_functionalizedCrystal
_audit_creation_method	'MofGen! by Chris Wilmer'
_symmetry_space_group_name_H-M	'P1'
_symmetry_Int_Tables_number	1
_symmetry_cell_setting	triclinic
loop_
_symmetry_equiv_pos_as_xyz
  x,y,z
_cell_length_a	33.592126
_cell_length_b	33.591377
_cell_length_c	33.588093
_cell_angle_alpha	60.004089
_cell_angle_beta	60.008299
_cell_angle_gamma	59.994549
loop_
_atom_site_label
_atom_site_type_symbol
_atom_site_fract_x
_atom_site_fract_y
_atom_site_fract_z
O1	O	0.055297	-0.581666	0.486338
O2	O	0.555297	-0.081666	0.986338
O3	O	0.020882	-0.452873	0.391864
O4	O	0.520882	0.047127	0.891864
O5	O	0.102445	-0.534352	0.391775
O6	O	0.602445	-0.034352	0.891775
O7	O	-0.026266	-0.500187	0.486427
O8	O	0.473734	-0.000187	0.986427
O9	O	0.129510	-0.507292	0.418747
O10	O	0.629510	-0.007292	0.918747
O11	O	0.047947	-0.425814	0.418835
O12	O	0.547947	0.074186	0.918835
O13	O	0.082362	-0.554606	0.513309
O14	O	0.582362	-0.054606	1.013309
Cu15	Cu	0.067626	-0.487739	0.468535
Cu16	Cu	0.567626	0.012261	0.968535
Cu17	Cu	0.035618	-0.519740	0.436638
Cu18	Cu	0.535618	-0.019740	0.936638
O19	O	0.000799	-0.473128	0.513398
O20	O	0.500799	0.026872	1.013398
N21	N	0.090139	-0.465235	0.490972
N22	N	0.590139	0.034765	0.990972
N23	N	0.013110	-0.542249	0.414202
N24	N	0.513110	-0.042249	0.914202
C25	C	0.124394	-0.431229	0.734914
C26	C	0.624394	0.068771	1.234914
C27	C	0.334265	-0.431145	0.524799
C28	C	0.834265	0.068855	1.024799
C29	C	0.124204	-0.431200	0.524965
C30	C	0.624204	0.068800	1.024965
C31	C	0.124184	-0.221175	0.524955
C32	C	0.624184	0.278825	1.024955
C33	C	0.158017	-0.322536	0.558710
C34	C	0.658017	0.177464	1.058710
C35	C	0.158027	-0.397406	0.558711
C36	C	0.658027	0.102594	1.058711
C37	C	0.176763	-0.378688	0.577408
C38	C	0.676763	0.121312	1.077408
C39	C	0.258412	-0.364594	0.534386
C40	C	0.758412	0.135406	1.034386
C41	C	0.309454	-0.381596	0.517340
C42	C	0.809454	0.118404	1.017340
C43	C	0.309485	-0.464188	0.548836
C44	C	0.809485	0.035812	1.048836
C45	C	0.258444	-0.447186	0.565883
C46	C	0.758444	0.052814	1.065883
C47	C	0.170304	-0.297002	0.508532
C48	C	0.670304	0.202998	1.008532
C49	C	0.153260	-0.245956	0.491537
C50	C	0.653260	0.254044	0.991537
C51	C	0.111648	-0.245983	0.574901
C52	C	0.611648	0.254017	1.074901
C53	C	0.128691	-0.297029	0.591896
C54	C	0.628691	0.202971	1.091896
C55	C	0.107841	-0.385091	0.571080
C56	C	0.607841	0.114909	1.071080
C57	C	0.090813	-0.402108	0.554078
C58	C	0.590813	0.097892	1.054078
C59	C	0.174153	-0.443755	0.512351
C60	C	0.674153	0.056245	1.012351
C61	C	0.191183	-0.426739	0.529347
C62	C	0.691183	0.073261	1.029347
C63	C	0.107923	-0.385106	0.659111
C64	C	0.607923	0.114894	1.159111
C65	C	0.090955	-0.402138	0.710156
C66	C	0.590955	0.097862	1.210156
C67	C	0.174335	-0.443795	0.710087
C68	C	0.674335	0.056205	1.210087
C69	C	0.191302	-0.426764	0.659041
C70	C	0.691302	0.073236	1.159041
C71	C	0.158095	-0.397418	0.633555
C72	C	0.658095	0.102582	1.133555
C73	C	0.232909	-0.397388	0.558656
C74	C	0.732909	0.102612	1.058656
C75	C	0.105069	-0.449619	0.791057
C76	C	0.605069	0.050381	1.291057
C77	C	0.390406	-0.449193	0.505789
C78	C	0.890406	0.050807	1.005789
C79	C	0.104813	-0.449599	0.506607
C80	C	0.604813	0.050401	1.006607
C81	C	0.105125	-0.165028	0.506915
C82	C	0.605125	0.334972	1.006915
C83	C	-0.020560	-0.576246	0.169890
C84	C	0.479440	-0.076246	0.669890
C85	C	-0.020889	-0.786183	0.379970
C86	C	0.479111	-0.286183	0.879970
C87	C	-0.020859	-0.576235	0.380063
C88	C	0.479141	-0.076235	0.880063
C89	C	-0.230772	-0.576015	0.379658
C90	C	0.269228	-0.076015	0.879658
C91	C	-0.129417	-0.609898	0.346025
C92	C	0.370583	-0.109898	0.846025
C93	C	-0.054587	-0.609979	0.346172
C94	C	0.445413	-0.109979	0.846172
C95	C	-0.073269	-0.628671	0.327396
C96	C	0.426731	-0.128671	0.827396
C97	C	-0.087401	-0.710299	0.370335
C98	C	0.412599	-0.210299	0.870335
C99	C	-0.070424	-0.761345	0.387369
C100	C	0.429576	-0.261345	0.887369
C101	C	0.012165	-0.761428	0.356003
C102	C	0.512165	-0.261428	0.856003
C103	C	-0.004813	-0.710383	0.338967
C104	C	0.495187	-0.210383	0.838967
C105	C	-0.155001	-0.622196	0.396191
C106	C	0.344999	-0.122196	0.896191
C107	C	-0.206043	-0.605128	0.413125
C108	C	0.293957	-0.105128	0.913125
C109	C	-0.205914	-0.563467	0.329724
C110	C	0.294086	-0.063467	0.829724
C111	C	-0.154872	-0.580535	0.312790
C112	C	0.345128	-0.080535	0.812790
C113	C	-0.066886	-0.559797	0.333828
C114	C	0.433114	-0.059797	0.833828
C115	C	-0.049903	-0.542809	0.350903
C116	C	0.450097	-0.042809	0.850903
C117	C	-0.008321	-0.626180	0.392654
C118	C	0.491679	-0.126180	0.892654
C119	C	-0.025304	-0.643170	0.375585
C120	C	0.474696	-0.143170	0.875585
C121	C	-0.066758	-0.559805	0.245702
C122	C	0.433242	-0.059805	0.745702
C123	C	-0.049671	-0.542819	0.194658
C124	C	0.450329	-0.042819	0.694658
C125	C	-0.008026	-0.626194	0.194706
C126	C	0.491974	-0.126194	0.694706
C127	C	-0.025111	-0.643179	0.245752
C128	C	0.474889	-0.143179	0.745752
C129	C	-0.054479	-0.609983	0.271248
C130	C	0.445521	-0.109983	0.771248
C131	C	-0.054597	-0.684821	0.346135
C132	C	0.445403	-0.184821	0.846135
C133	C	-0.002109	-0.556901	0.113746
C134	C	0.497891	-0.056901	0.613746
C135	C	-0.002869	-0.842328	0.398966
C136	C	0.497131	-0.342328	0.898966
C137	C	-0.002496	-0.556887	0.398501
C138	C	0.497504	-0.056887	0.898501
C139	C	-0.286914	-0.556929	0.397631
C140	C	0.213086	-0.056929	0.897631
N141	N	0.436349	-0.465146	0.490703
N142	N	0.936349	0.034854	0.990703
O143	O	0.592194	-0.469605	0.374236
O144	O	1.092194	0.030395	0.874236
O145	O	0.592389	-0.564393	0.502890
O146	O	1.092389	-0.064393	1.002890
O147	O	0.592305	-0.564176	0.421300
O148	O	1.092305	-0.064176	0.921300
O149	O	0.592277	-0.469822	0.455826
O150	O	1.092277	0.030178	0.955826
O151	O	0.511216	-0.537214	0.448415
O152	O	1.011216	-0.037214	0.948415
O153	O	0.511300	-0.537431	0.530004
O154	O	1.011300	-0.037431	1.030004
O155	O	0.511104	-0.442643	0.401350
O156	O	1.011104	0.057357	0.901350
Cu157	Cu	0.503798	-0.487575	0.468153
Cu158	Cu	1.003798	0.012425	0.968153
Cu159	Cu	0.599695	-0.519461	0.436087
Cu160	Cu	1.099695	-0.019461	0.936087
O161	O	0.511188	-0.442860	0.482940
O162	O	1.011188	0.057140	0.982940
N163	N	0.667145	-0.541890	0.413532
N164	N	1.167145	-0.041890	0.913532
N165	N	0.090108	-0.119085	0.490958
N166	N	0.590108	0.380915	0.990958
O167	O	-0.026275	0.036848	0.486394
O168	O	0.473725	0.536848	0.986394
O169	O	0.102381	0.036888	0.391584
O170	O	0.602381	0.536888	0.891584
O171	O	0.020751	0.036852	0.391854
O172	O	0.520751	0.536852	0.891854
O173	O	0.055356	0.036884	0.486124
O174	O	0.555356	0.536884	0.986124
O175	O	0.047821	-0.044242	0.418876
O176	O	0.547821	0.455758	0.918876
O177	O	0.129452	-0.044207	0.418606
O178	O	0.629452	0.455793	0.918606
O179	O	0.000796	-0.044246	0.513417
O180	O	0.500796	0.455754	1.013417
Cu181	Cu	0.067596	-0.051631	0.468479
Cu182	Cu	0.567596	0.448369	0.968479
Cu183	Cu	0.035582	0.044273	0.436522
Cu184	Cu	0.535582	0.544273	0.936522
O185	O	0.082426	-0.044211	0.513146
O186	O	0.582426	0.455789	1.013146
N187	N	0.013063	0.111726	0.414043
N188	N	0.513063	0.611726	0.914043
N189	N	0.090453	-0.465282	0.837001
N190	N	0.590453	0.034718	1.337001
O191	O	0.085913	-0.581648	0.992925
O192	O	0.585913	-0.081648	1.492925
O193	O	-0.008857	-0.452947	0.992970
O194	O	0.491143	0.047053	1.492970
O195	O	-0.008635	-0.534562	0.992946
O196	O	0.491365	-0.034562	1.492946
O197	O	0.085691	-0.500033	0.992949
O198	O	0.585691	-0.000033	1.492949
O199	O	0.018365	-0.507512	0.911855
O200	O	0.518365	-0.007512	1.411855
O201	O	0.018143	-0.425898	0.911878
O202	O	0.518143	0.074102	1.411878
O203	O	0.112912	-0.554598	0.911834
O204	O	0.612912	-0.054598	1.411834
Cu205	Cu	0.067993	-0.487778	0.904452
Cu206	Cu	0.567993	0.012222	1.404452
Cu207	Cu	0.036063	-0.519767	1.000352
Cu208	Cu	0.536063	-0.019767	1.500352
O209	O	0.112691	-0.472984	0.911857
O210	O	0.612691	0.027016	1.411857
N211	N	0.013602	-0.542269	1.067803
N212	N	0.513602	-0.042269	1.567803
C213	C	0.031188	-0.423114	0.392334
C214	C	0.531188	0.076886	0.892334
C215	C	0.132194	-0.524016	0.392223
C216	C	0.632194	-0.024016	0.892223
C217	C	0.072056	-0.584366	0.512840
C218	C	0.572056	-0.084366	1.012840
C219	C	-0.028950	-0.483464	0.512950
C220	C	0.471050	0.016536	1.012950
C221	C	0.551868	-0.563965	0.532655
C222	C	1.051868	-0.063965	1.032655
C223	C	0.551766	-0.563697	0.431617
C224	C	1.051766	-0.063697	0.931617
C225	C	0.551623	-0.443070	0.371586
C226	C	1.051623	0.056930	0.871586
C227	C	0.551728	-0.443339	0.472623
C228	C	1.051728	0.056661	0.972623
C229	C	0.132090	-0.003555	0.392006
C230	C	0.632090	0.496445	0.892006
C231	C	0.031035	-0.003698	0.392374
C232	C	0.531035	0.496302	0.892374
C233	C	-0.028947	-0.003703	0.512961
C234	C	0.471053	0.496297	1.012961
C235	C	0.072143	-0.003661	0.512626
C236	C	0.572143	0.496339	1.012626
C237	C	-0.008408	-0.423209	0.952430
C238	C	0.491592	0.076791	1.452430
C239	C	-0.008128	-0.524272	0.952385
C240	C	0.491872	-0.024272	1.452385
C241	C	0.112464	-0.584336	0.952374
C242	C	0.612464	-0.084336	1.452374
C243	C	0.112190	-0.483267	0.952401
C244	C	0.612190	0.016733	1.452401
H245	H	0.080878	-0.361206	0.638363
H246	H	0.580878	0.138794	1.138363
H247	H	0.551779	-0.593338	0.424228
H248	H	1.051779	-0.093338	0.924228
O249	O	-0.073062	-0.003623	0.548427
O250	O	0.426938	0.496377	1.048427
C251	C	-0.109839	0.038363	0.531767
C252	C	0.390161	0.538363	1.031767
H253	H	-0.093239	0.067721	0.501392
H254	H	0.406761	0.567721	1.001392
H255	H	-0.138928	0.052464	0.563201
H256	H	0.361072	0.552464	1.063201
H257	H	-0.127091	0.028857	0.517236
H258	H	0.372909	0.528857	1.017236
H259	H	0.079411	-0.621363	0.542512
H260	H	0.579411	-0.121363	1.042512
O261	O	0.022128	-0.003743	0.357105
O262	O	0.522128	0.496257	0.857105
C263	C	-0.025801	-0.003756	0.374888
C264	C	0.474199	0.496244	0.874888
H265	H	-0.038606	-0.019096	0.416419
H266	H	0.461394	0.480904	0.916419
H267	H	-0.026507	-0.027322	0.360068
H268	H	0.473493	0.472678	0.860068
H269	H	-0.051044	0.035141	0.362555
H270	H	0.448956	0.535141	0.862555
H271	H	0.551560	-0.413310	0.334638
H272	H	1.051560	0.086690	0.834638
H273	H	0.142219	-0.621297	0.952354
H274	H	0.642219	-0.121297	1.452354
O275	O	0.147605	-0.474490	0.952328
O276	O	0.647605	0.025510	1.452328
C277	C	0.188700	-0.479888	0.910314
C278	C	0.688700	0.020112	1.410314
H279	H	0.188313	-0.504344	0.896308
H280	H	0.688313	-0.004344	1.396308
H281	H	0.223315	-0.497090	0.919747
H282	H	0.723315	0.002910	1.419747
H283	H	0.187704	-0.442597	0.880913
H284	H	0.687704	0.057403	1.380913
O285	O	-0.043845	-0.379073	0.952380
O286	O	0.456155	0.120927	1.452380
C287	C	-0.027195	-0.342311	0.910382
C288	C	0.472805	0.157689	1.410382
H289	H	0.014364	-0.355721	0.896371
H290	H	0.514364	0.144279	1.396371
H291	H	-0.041451	-0.308292	0.919838
H292	H	0.458549	0.191708	1.419838
H293	H	-0.041035	-0.333193	0.880976
H294	H	0.458965	0.166807	1.380976
O295	O	0.022366	-0.379000	0.356918
O296	O	0.522366	0.121000	0.856918
C297	C	-0.017126	-0.370301	0.345722
C298	C	0.482874	0.129699	0.845722
H299	H	-0.020999	-0.406522	0.356482
H300	H	0.479001	0.093478	0.856482
H301	H	-0.010238	-0.350522	0.304917
H302	H	0.489762	0.149478	0.804917
H303	H	-0.052076	-0.346826	0.366713
H304	H	0.447924	0.153174	0.866713
H305	H	0.050098	-0.392105	0.730957
H306	H	0.550098	0.107895	1.230957
H307	H	0.551722	-0.413701	0.480010
H308	H	1.051722	0.086299	0.980010
H309	H	0.201378	-0.467681	0.730833
H310	H	0.701378	0.032319	1.230833
H311	H	0.551918	-0.593721	0.569607
H312	H	1.051918	-0.093721	1.069607
H313	H	0.168963	-0.003318	0.362168
H314	H	0.668963	0.496682	0.862168
O315	O	0.176328	-0.532771	0.356823
O316	O	0.676328	-0.032771	0.856823
C317	C	0.206631	-0.580683	0.374435
C318	C	0.706631	-0.080683	0.874435
H319	H	0.193409	-0.593598	0.415966
H320	H	0.693409	-0.093598	0.915966
H321	H	0.245700	-0.581294	0.359493
H322	H	0.745700	-0.081294	0.859493
H323	H	0.205288	-0.605899	0.362088
H324	H	0.705288	-0.105899	0.862088
H325	H	0.079554	-0.003651	0.542242
H326	H	0.579554	0.496349	1.042242
H327	H	-0.037749	-0.531650	0.952352
H328	H	0.462251	-0.031650	1.452352
H329	H	0.080840	-0.361208	0.594989
H330	H	0.580840	0.138792	1.094989
O331	O	0.240054	-0.438812	0.634271
O332	O	0.740054	0.061188	1.134271
C333	C	0.261270	-0.489938	0.646715
C334	C	0.761270	0.010062	1.146715
H335	H	0.237097	-0.507813	0.683786
H336	H	0.737097	-0.007813	1.183786
H337	H	0.298827	-0.501862	0.648431
H338	H	0.798827	-0.001862	1.148431
H339	H	0.265043	-0.501480	0.617993
H340	H	0.765043	-0.001480	1.117993
O341	O	0.042047	-0.390123	0.566157
O342	O	0.542047	0.109877	1.066157
C343	C	0.016432	-0.360578	0.595713
C344	C	0.516432	0.139422	1.095713
H345	H	0.040801	-0.367087	0.614243
H346	H	0.540801	0.132913	1.114243
H347	H	-0.017608	-0.370166	0.624614
H348	H	0.482392	0.129834	1.124614
H349	H	0.005390	-0.320592	0.572184
H350	H	0.505390	0.179408	1.072184
H351	H	0.201155	-0.467643	0.488446
H352	H	0.701155	0.032357	0.988446
O353	O	-0.073029	-0.474732	0.548424
O354	O	0.426971	0.025268	1.048424
C355	C	-0.081753	-0.435264	0.559672
C356	C	0.418247	0.064736	1.059672
H357	H	-0.045549	-0.431339	0.548876
H358	H	0.454451	0.068661	1.048876
H359	H	-0.101472	-0.442225	0.600492
H360	H	0.398528	0.057775	1.100492
H361	H	-0.105292	-0.400313	0.538747
H362	H	0.394708	0.099687	1.038747
O363	O	0.239943	-0.438665	0.517245
O364	O	0.739943	0.061335	1.017245
C365	C	0.261087	-0.421170	0.466116
C366	C	0.761087	0.078830	0.966116
H367	H	0.236867	-0.416184	0.448280
H368	H	0.736867	0.083816	0.948280
H369	H	0.298642	-0.448503	0.454151
H370	H	0.798642	0.051497	0.954151
H371	H	0.264849	-0.384679	0.454575
H372	H	0.764849	0.115321	0.954575
O373	O	0.233691	-0.479051	0.589379
O374	O	0.733691	0.020949	1.089379
C375	C	0.246150	-0.502958	0.558145
C376	C	0.746150	-0.002958	1.058145
H377	H	0.260148	-0.479710	0.518629
H378	H	0.760148	0.020290	1.018629
H379	H	0.212579	-0.508704	0.564196
H380	H	0.712579	-0.008704	1.064196
H381	H	0.275795	-0.539792	0.566354
H382	H	0.775795	-0.039792	1.066354
O383	O	0.334317	-0.512546	0.555764
O384	O	0.834317	-0.012546	1.055764
C385	C	0.363820	-0.519472	0.510195
C386	C	0.863820	-0.019472	1.010195
H387	H	0.348404	-0.487156	0.480780
H388	H	0.848404	0.012844	0.980780
H389	H	0.364406	-0.554385	0.511625
H390	H	0.864406	-0.054385	1.011625
H391	H	0.402505	-0.522475	0.501330
H392	H	0.902505	-0.022475	1.001330
H393	H	0.330218	-0.354891	0.497577
H394	H	0.830218	0.145109	0.997577
H395	H	0.237625	-0.324046	0.528499
H396	H	0.737625	0.175954	1.028499
O397	O	0.020149	-0.658357	0.421208
O398	O	0.520149	-0.158357	0.921208
C399	C	0.032494	-0.632604	0.433643
C400	C	0.532494	-0.132604	0.933643
H401	H	0.029492	-0.594471	0.405515
H402	H	0.529492	-0.094471	0.905515
H403	H	0.071470	-0.652791	0.434261
H404	H	0.571470	-0.152791	0.934261
H405	H	0.006503	-0.629726	0.471206
H406	H	0.506503	-0.129726	0.971206
H407	H	0.194180	-0.317769	0.481510
H408	H	0.694180	0.182231	0.981510
H409	H	0.163263	-0.225165	0.450676
H410	H	0.663263	0.274835	0.950676
H411	H	0.087777	-0.225214	0.601924
H412	H	0.587777	0.274786	1.101924
H413	H	-0.059677	-0.501957	0.173865
H414	H	0.440323	-0.001957	0.673865
O415	O	0.116730	-0.321761	0.640658
O416	O	0.616730	0.178239	1.140658
C417	C	0.087179	-0.288301	0.666303
C418	C	0.587179	0.211699	1.166303
H419	H	0.093668	-0.251906	0.641960
H420	H	0.593668	0.248094	1.141960
H421	H	0.096778	-0.303055	0.700352
H422	H	0.596778	0.196945	1.200352
H423	H	0.047199	-0.282887	0.677335
H424	H	0.547199	0.217113	1.177335
O425	O	-0.095254	-0.527490	0.270394
O426	O	0.404746	-0.027490	0.770394
C427	C	-0.102437	-0.479558	0.236901
C428	C	0.397563	0.020442	0.736901
H429	H	-0.071630	-0.479686	0.200544
H430	H	0.428370	0.020314	0.700544
H431	H	-0.102710	-0.455334	0.251666
H432	H	0.397290	0.044666	0.751666
H433	H	-0.138777	-0.464894	0.231411
H434	H	0.361223	0.035106	0.731411
H435	H	0.015877	-0.653227	0.173952
H436	H	0.515877	-0.153227	0.673952
H437	H	-0.090726	-0.532768	0.309877
H438	H	0.409274	-0.032768	0.809877
O439	O	-0.013241	-0.691929	0.270545
O440	O	0.486759	-0.191929	0.770545
C441	C	-0.030665	-0.713103	0.258010
C442	C	0.469335	-0.213103	0.758010
H443	H	-0.062108	-0.684016	0.243916
H444	H	0.437892	-0.184016	0.743916
H445	H	-0.043963	-0.743170	0.291566
H446	H	0.456037	-0.243170	0.791566
H447	H	-0.000017	-0.729246	0.228412
H448	H	0.499983	-0.229246	0.728412
O449	O	-0.061863	-0.494047	0.338840
O450	O	0.438137	0.005953	0.838840
C451	C	-0.091353	-0.468393	0.309221
C452	C	0.408647	0.031607	0.809221
H453	H	-0.084827	-0.492744	0.290662
H454	H	0.415173	0.007256	0.790662
H455	H	-0.081726	-0.434363	0.280343
H456	H	0.418274	0.065637	0.780343
H457	H	-0.131350	-0.457328	0.332704
H458	H	0.368650	0.042672	0.832704
H459	H	0.021903	-0.689639	0.319262
H460	H	0.521903	-0.189639	0.819262
O461	O	-0.013294	-0.691932	0.387599
O462	O	0.486706	-0.191932	0.887599
C463	C	0.016184	-0.717586	0.417230
C464	C	0.516184	-0.217586	0.917230
H465	H	0.034743	-0.693270	0.410762
H466	H	0.534743	-0.193270	0.910762
H467	H	0.045060	-0.751670	0.407695
H468	H	0.545060	-0.251670	0.907695
H469	H	-0.007414	-0.728564	0.457191
H470	H	0.492586	-0.228564	0.957191
H471	H	0.052703	-0.782242	0.350169
H472	H	0.552703	-0.282242	0.850169
H473	H	-0.127938	-0.689491	0.376175
H474	H	0.372062	-0.189491	0.876175
O475	O	-0.102367	-0.786021	0.410943
O476	O	0.397633	-0.286021	0.910943
C477	C	-0.149951	-0.752513	0.413637
C478	C	0.350049	-0.252513	0.913637
H479	H	-0.151902	-0.716120	0.410238
H480	H	0.348098	-0.216120	0.910238
H481	H	-0.176941	-0.767206	0.450128
H482	H	0.323059	-0.267206	0.950128
H483	H	-0.159487	-0.747116	0.382726
H484	H	0.340513	-0.247116	0.882726
H485	H	-0.134277	-0.646110	0.423254
H486	H	0.365723	-0.146110	0.923254
H487	H	-0.226640	-0.539563	0.302661
H488	H	0.273360	-0.039563	0.802661
O489	O	-0.230879	-0.617158	0.461863
O490	O	0.269121	-0.117158	0.961863
C491	C	-0.218442	-0.668281	0.483076
C492	C	0.281558	-0.168281	0.983076
H493	H	-0.204372	-0.684743	0.454006
H494	H	0.295628	-0.184743	0.954006
H495	H	-0.252042	-0.678015	0.513118
H496	H	0.247958	-0.178015	1.013118
H497	H	-0.188858	-0.683427	0.499257
H498	H	0.311142	-0.183427	0.999257
O499	O	-0.130091	-0.568565	0.264040
O500	O	0.369909	-0.068565	0.764040
C501	C	-0.163504	-0.538978	0.238338
C502	C	0.336496	-0.038978	0.738338
H503	H	-0.199911	-0.545448	0.262628
H504	H	0.300089	-0.045448	0.762628
H505	H	-0.148714	-0.548560	0.204272
H506	H	0.351286	-0.048560	0.704272
H507	H	-0.168903	-0.499004	0.227329
H508	H	0.331097	0.000996	0.727329
