data_functionalizedCrystal
_audit_creation_method	'MofGen! by Chris Wilmer'
_symmetry_space_group_name_H-M	'P1'
_symmetry_Int_Tables_number	1
_symmetry_cell_setting	triclinic
loop_
_symmetry_equiv_pos_as_xyz
  x,y,z
_cell_length_a	18.215407
_cell_length_b	18.215405
_cell_length_c	12.759393
_cell_angle_alpha	89.965441
_cell_angle_beta	89.978169
_cell_angle_gamma	90.023180
loop_
_atom_site_label
_atom_site_type_symbol
_atom_site_fract_x
_atom_site_fract_y
_atom_site_fract_z
Zn1	Zn	1.125098	-0.292932	-0.594053
Zn2	Zn	1.125006	-0.416018	-0.418364
Zn3	Zn	1.002026	-0.292971	-0.418382
Zn4	Zn	1.002001	-0.415962	-0.593995
O5	O	1.063533	-0.354471	-0.506199
O6	O	1.228070	-0.309267	-0.570764
O7	O	1.108665	-0.399736	-0.271345
O8	O	1.018400	-0.189982	-0.441717
O9	O	1.228003	-0.399698	-0.441686
O10	O	1.108821	-0.189953	-0.570782
O11	O	1.018312	-0.309333	-0.271359
O12	O	0.899038	-0.309279	-0.441661
O13	O	1.018357	-0.399602	-0.741024
O14	O	0.899020	-0.399640	-0.570683
O15	O	1.108796	-0.309212	-0.741066
O16	O	1.108641	-0.518995	-0.441630
O17	O	1.018269	-0.518954	-0.570665
C18	C	0.872326	-0.354458	-0.506168
C19	C	0.790527	-0.354471	-0.506180
C20	C	0.602343	-0.401596	-0.573278
C21	C	0.525484	-0.401598	-0.573291
C22	C	0.525474	-0.307360	-0.439142
C23	C	0.602331	-0.307354	-0.439135
C24	C	0.640764	-0.354476	-0.506201
C25	C	0.487048	-0.354484	-0.506222
C26	C	0.403714	-0.354486	-0.506235
C27	C	0.724103	-0.354473	-0.506189
C28	C	1.063462	-0.545677	-0.506162
C29	C	1.063499	-0.627476	-0.506182
C30	C	1.110603	-0.815594	-0.573477
C31	C	1.110630	-0.892453	-0.573497
C32	C	1.016553	-0.892596	-0.438985
C33	C	1.016523	-0.815739	-0.438972
C34	C	1.063552	-0.777240	-0.506216
C35	C	1.063609	-0.930956	-0.506249
C36	C	1.063638	-1.014289	-0.506270
C37	C	1.063523	-0.693901	-0.506197
C38	C	1.255485	-0.354484	-0.506229
C39	C	1.337284	-0.354490	-0.506243
C40	C	1.063584	-0.354397	-0.780232
C41	C	1.063606	-0.354365	-0.897009
C42	C	1.063623	-0.162518	-0.506258
C43	C	1.063662	-0.080719	-0.506283
C44	C	1.110704	-0.307295	-0.951895
C45	C	1.110721	-0.307268	-1.061619
C46	C	1.016541	-0.401389	-1.061562
C47	C	1.016520	-0.401411	-0.951839
C48	C	1.165081	-0.252957	-0.951929
C49	C	1.165098	-0.252930	-1.061653
C50	C	1.063524	-0.354492	-0.233231
C51	C	1.063644	-0.354316	-0.116455
H52	H	1.148897	-0.784250	-0.628233
H53	H	1.149840	-0.195964	-0.922176
C54	C	1.238198	-0.280550	-0.905940
C55	C	1.300872	-0.304173	-0.979580
C56	C	1.373989	-0.331769	-0.933591
C57	C	1.384431	-0.335742	-0.813962
C58	C	1.321755	-0.312118	-0.740315
C59	C	1.248639	-0.284523	-0.786304
H60	H	1.293144	-0.301233	-1.068143
H61	H	1.420385	-0.349256	-0.988110
H62	H	1.438556	-0.356170	-0.779918
H63	H	1.329484	-0.315059	-0.651752
H64	H	1.202242	-0.267035	-0.731786
C65	C	1.137573	-0.179772	-1.107664
C66	C	1.113969	-0.117111	-1.034046
C67	C	1.086444	-0.043956	-1.080060
C68	C	1.082523	-0.033462	-1.199692
C69	C	1.106129	-0.096125	-1.273318
C70	C	1.133654	-0.169280	-1.227304
H71	H	1.116870	-0.124877	-0.945480
H72	H	1.068969	0.002432	-1.025557
H73	H	1.062148	0.020692	-1.233755
H74	H	1.103228	-0.088358	-1.361884
H75	H	1.151128	-0.215668	-1.281807
H76	H	1.222094	-0.268195	-1.091435
C77	C	1.162390	-0.934642	-0.647482
C78	C	1.246051	-0.924013	-0.639014
C79	C	1.297813	-0.966201	-0.713005
C80	C	1.265914	-1.019018	-0.795463
C81	C	1.182249	-1.029648	-0.803935
C82	C	1.130487	-0.987460	-0.729944
H83	H	1.269668	-0.884914	-0.577970
H84	H	1.359748	-0.958332	-0.706733
H85	H	1.304231	-1.050248	-0.850235
H86	H	1.158631	-1.068748	-0.864978
H87	H	1.068552	-0.995330	-0.736216
C88	C	0.644620	-0.453423	-0.647057
C89	C	0.602354	-0.505250	-0.720844
C90	C	0.644628	-0.557077	-0.794627
C91	C	0.729168	-0.557077	-0.794624
C92	C	0.771439	-0.505248	-0.720834
C93	C	0.729164	-0.453421	-0.647050
H94	H	0.539768	-0.505252	-0.720849
H95	H	0.613336	-0.595445	-0.849252
H96	H	0.760462	-0.595443	-0.849243
H97	H	0.834025	-0.505246	-0.720828
H98	H	0.760456	-0.415054	-0.592426
H99	H	0.978166	-0.439738	-0.907155
C100	C	0.483222	-0.453433	-0.647073
C101	C	0.430348	-0.511177	-0.601410
C102	C	0.388087	-0.563014	-0.675197
C103	C	0.398699	-0.557108	-0.794646
C104	C	0.451575	-0.499363	-0.840315
C105	C	0.493837	-0.447525	-0.766529
H106	H	0.422490	-0.515551	-0.512981
H107	H	0.348944	-0.605761	-0.641389
H108	H	0.367415	-0.595481	-0.849267
H109	H	0.459434	-0.494989	-0.928744
H110	H	0.532979	-0.404778	-0.800337
H111	H	0.494173	-0.268995	-0.384537
H112	H	0.978264	-0.923951	-0.384236
H113	H	0.978205	-0.784508	-0.384200
C114	C	0.644600	-0.255523	-0.365340
C115	C	0.602330	-0.203699	-0.291557
C116	C	0.644599	-0.151870	-0.217768
C117	C	0.729139	-0.151865	-0.217762
C118	C	0.771414	-0.203691	-0.291548
C119	C	0.729145	-0.255520	-0.365337
H120	H	0.539744	-0.203701	-0.291559
H121	H	0.613303	-0.113505	-0.163146
H122	H	0.760429	-0.113498	-0.163138
H123	H	0.834000	-0.203689	-0.291546
H124	H	0.760441	-0.293885	-0.419958
H125	H	0.978204	-0.439690	-1.106218
