data_functionalizedCrystal
_audit_creation_method	'MofGen! by Chris Wilmer'
_symmetry_space_group_name_H-M	'P1'
_symmetry_Int_Tables_number	1
_symmetry_cell_setting	triclinic
loop_
_symmetry_equiv_pos_as_xyz
  x,y,z
_cell_length_a	16.974800
_cell_length_b	15.712078
_cell_length_c	16.053802
_cell_angle_alpha	93.336257
_cell_angle_beta	91.074188
_cell_angle_gamma	101.448304
loop_
_atom_site_label
_atom_site_type_symbol
_atom_site_fract_x
_atom_site_fract_y
_atom_site_fract_z
O1	O	1.080860	0.110256	0.003631
O2	O	1.580860	0.610256	0.503631
O3	O	0.855215	0.123497	-0.011623
O4	O	1.355215	0.623497	0.488377
O5	O	0.938019	-0.009020	-0.006021
O6	O	1.438019	0.490980	0.493979
O7	O	0.998056	0.242773	-0.001971
O8	O	1.498056	0.742773	0.498029
O9	O	0.933452	-0.001756	0.132529
O10	O	1.433452	0.498244	0.632529
O11	O	0.850648	0.130761	0.126927
O12	O	1.350648	0.630761	0.626927
O13	O	1.076293	0.117520	0.142181
O14	O	1.576293	0.617520	0.642181
Zn15	Zn	0.962746	0.125294	0.156552
Zn16	Zn	1.462746	0.625294	0.656552
Zn17	Zn	0.968762	0.115723	-0.025994
Zn18	Zn	1.468762	0.615723	0.474006
O19	O	0.993489	0.250037	0.136579
O20	O	1.493489	0.750037	0.636579
C21	C	0.823385	0.126492	0.055655
C22	C	1.323385	0.626492	0.555655
C23	C	0.735343	0.124585	0.049703
C24	C	1.235343	0.624585	0.549703
C25	C	0.691495	0.127646	0.122433
C26	C	1.191495	0.627646	0.622433
C27	C	0.608767	0.125841	0.116843
C28	C	1.108767	0.625841	0.616843
C29	C	0.569890	0.120980	0.038523
C30	C	1.069890	0.620980	0.538523
C31	C	0.613743	0.117915	-0.034212
C32	C	1.113743	0.617915	0.465788
C33	C	0.696468	0.119715	-0.028622
C34	C	1.196468	0.619715	0.471378
C35	C	0.322744	0.115167	0.013703
C36	C	0.822744	0.615167	0.513703
C37	C	0.240013	0.113370	0.008118
C38	C	0.740013	0.613370	0.508118
C39	C	0.235043	0.121294	0.159174
C40	C	0.735043	0.621294	0.659174
C41	C	0.317771	0.123099	0.164758
C42	C	0.817771	0.623099	0.664758
C43	C	0.361616	0.120030	0.092023
C44	C	0.861616	0.620030	0.592023
N45	N	0.485329	0.119136	0.032807
N46	N	0.985329	0.619136	0.532807
N47	N	0.446174	0.121866	0.097739
N48	N	0.946174	0.621866	0.597739
C49	C	0.925927	-0.037614	0.062590
C50	C	1.425927	0.462386	0.562590
C51	C	0.896693	-0.133636	0.060612
C52	C	1.396693	0.366364	0.560612
C53	C	1.144899	-0.500163	0.077382
C54	C	1.644899	-0.000163	0.577382
C55	C	1.117411	-0.590388	0.075525
C56	C	1.617411	-0.090388	0.575525
C57	C	0.979675	-0.570088	0.066213
C58	C	1.479675	-0.070088	0.566213
C59	C	1.007151	-0.479859	0.068074
C60	C	1.507151	0.020141	0.568074
C61	C	1.089764	-0.444905	0.073658
C62	C	1.589764	0.055095	0.573658
C63	C	0.952016	-0.424601	0.064350
C64	C	1.452016	0.075399	0.564350
C65	C	0.979491	-0.334380	0.066207
C66	C	1.479491	0.165620	0.566207
C67	C	1.062101	-0.299419	0.071788
C68	C	1.562101	0.200581	0.571788
C69	C	1.117239	-0.354684	0.075515
C70	C	1.617239	0.145316	0.575515
C71	C	0.869404	-0.459558	0.058760
C72	C	1.369404	0.040442	0.558760
C73	C	0.814269	-0.404299	0.055036
C74	C	1.314269	0.095701	0.555036
C75	C	0.841744	-0.314077	0.056899
C76	C	1.341744	0.185923	0.556899
C77	C	0.924353	-0.279115	0.062480
C78	C	1.424353	0.220885	0.562480
C79	C	0.786606	-0.258811	0.053172
C80	C	1.286606	0.241189	0.553172
C81	C	0.814081	-0.168591	0.055028
C82	C	1.314081	0.331409	0.555028
C83	C	0.951828	-0.188895	0.064336
C84	C	1.451828	0.311105	0.564336
C85	C	1.108123	0.114525	0.074901
C86	C	1.608123	0.614525	0.574901
C87	C	1.196166	0.116432	0.080848
C88	C	1.696166	0.616432	0.580848
C89	C	1.005581	0.278630	0.067966
C90	C	1.505581	0.778630	0.567966
C91	C	1.034815	0.374653	0.069939
C92	C	1.534815	0.874653	0.569939
N93	N	0.958645	0.131825	0.281135
N94	N	1.458645	0.631825	0.781135
N95	N	0.972867	0.109185	-0.150576
N96	N	1.472867	0.609185	0.349424
C97	C	0.993903	0.075459	0.327214
C98	C	1.493903	0.575459	0.827214
C99	C	0.991044	0.080036	0.414427
C100	C	1.491044	0.580036	0.914427
C101	C	0.952933	0.140983	0.455560
C102	C	1.452933	0.640983	0.955560
C103	C	0.917670	0.197352	0.409475
C104	C	1.417670	0.697352	0.909475
C105	C	0.920524	0.192770	0.322263
C106	C	1.420524	0.692770	0.822263
C107	C	0.940459	0.160972	0.716126
C108	C	1.440459	0.660972	1.216126
C109	C	0.937609	0.165551	0.803345
C110	C	1.437609	0.665551	1.303345
C111	C	1.010983	0.048234	0.808291
C112	C	1.510983	0.548234	1.308291
C113	C	1.013837	0.043661	0.721077
C114	C	1.513837	0.543661	1.221077
C115	C	0.978571	0.100026	0.674999
C116	C	1.478571	0.600026	1.174999
N117	N	0.950012	0.145665	0.544706
N118	N	1.450012	0.645665	1.044706
N119	N	0.981487	0.095340	0.585854
N120	N	1.481487	0.595340	1.085854
H121	H	0.208362	0.109414	-0.055663
H122	H	0.708362	0.609414	0.444337
H123	H	0.747006	-0.432772	0.050487
H124	H	1.247006	0.067228	0.550487
H125	H	1.184510	-0.326222	0.080070
H126	H	1.684510	0.173778	0.580070
H127	H	0.349418	0.127053	0.228534
H128	H	0.849418	0.627053	0.728534
C129	C	0.881745	0.254776	0.271576
C130	C	1.381745	0.754776	0.771576
H131	H	0.858645	0.291736	0.308563
H132	H	1.358645	0.791736	0.808563
H133	H	0.841057	0.221779	0.234741
H134	H	1.341057	0.721779	0.734741
H135	H	0.921616	0.289080	0.240163
H136	H	1.421616	0.789080	0.740163
H137	H	0.886634	0.246974	0.442970
H138	H	1.386634	0.746974	0.942970
H139	H	0.723144	0.131612	0.186210
H140	H	1.223144	0.631612	0.686210
H141	H	0.719342	-0.287286	0.048617
H142	H	1.219342	0.212714	0.548617
H143	H	0.847037	-0.533022	0.057244
H144	H	1.347037	-0.033022	0.557244
C145	C	1.178061	-0.651174	0.079626
C146	C	1.678061	-0.151174	0.579626
H147	H	1.149869	-0.709914	0.077715
H148	H	1.649869	-0.209914	0.577715
H149	H	1.209272	-0.638027	0.130158
H150	H	1.709272	-0.138027	0.630158
H151	H	1.212453	-0.643091	0.033521
H152	H	1.712453	-0.143091	0.533521
H153	H	0.769184	-0.123597	0.051997
H154	H	1.269184	0.376403	0.551997
H155	H	0.912411	-0.598561	0.061664
H156	H	1.412411	-0.098561	0.561664
C157	C	1.035825	0.008415	0.281975
C158	C	1.535825	0.508415	0.781975
H159	H	1.056406	-0.024504	0.321912
H160	H	1.556406	0.475496	0.821912
H161	H	1.078741	0.037834	0.250765
H162	H	1.578741	0.537834	0.750765
H163	H	0.998180	-0.029464	0.245348
H164	H	1.498180	0.470536	0.745348
C165	C	1.235772	-0.461706	0.083533
C166	C	1.735772	0.038294	0.583533
H167	H	1.264677	-0.507537	0.085484
H168	H	1.764677	-0.007537	0.585484
H169	H	1.247755	-0.424400	0.132765
H170	H	1.747755	0.075600	0.632765
H171	H	1.250946	-0.429467	0.036129
H172	H	1.750946	0.070533	0.536129
H173	H	1.019753	0.034138	0.451945
H174	H	1.519753	0.534138	0.951945
C175	C	1.055754	-0.023387	0.675837
C176	C	1.555754	0.476613	1.175837
H177	H	1.076337	-0.056307	0.715771
H178	H	1.576337	0.443693	1.215771
H179	H	1.098669	0.006035	0.644626
H180	H	1.598669	0.506035	1.144626
H181	H	1.018108	-0.061264	0.639210
H182	H	1.518108	0.438736	1.139210
C183	C	1.049763	-0.013772	0.858974
C184	C	1.549763	0.486228	1.358974
H185	H	1.072873	-0.050723	0.821985
H186	H	1.572873	0.449277	1.321985
H187	H	1.009897	-0.048073	0.890388
H188	H	1.509897	0.451927	1.390388
H189	H	1.090458	0.019227	0.895808
H190	H	1.590458	0.519227	1.395808
C191	C	0.560539	0.129215	0.196845
C192	C	1.060539	0.629215	0.696845
H193	H	0.595544	0.132380	0.244290
H194	H	1.095544	0.632380	0.744290
H195	H	0.519652	0.078286	0.197238
H196	H	1.019652	0.578286	0.697238
H197	H	0.536680	0.179077	0.198373
H198	H	1.036680	0.679077	0.698373
H199	H	0.732168	0.117223	-0.087846
H200	H	1.232168	0.617223	0.412154
C201	C	0.370965	0.111801	-0.066302
C202	C	0.870965	0.611801	0.433698
H203	H	0.335962	0.108659	-0.113744
H204	H	0.835962	0.608659	0.386256
H205	H	0.394827	0.061945	-0.067840
H206	H	0.894827	0.561945	0.432160
H207	H	0.411852	0.162738	-0.066687
H208	H	0.911852	0.662738	0.433313
H209	H	0.906573	0.215186	0.836831
H210	H	1.406573	0.715186	1.336831
H211	H	1.084470	-0.225955	0.073299
H212	H	1.584470	0.274045	0.573299
H213	H	0.911745	0.206868	0.678616
H214	H	1.411745	0.706868	1.178616
H215	H	0.582081	0.113951	-0.097982
H216	H	1.082081	0.613951	0.402018
C217	C	0.186818	0.124700	0.239175
C218	C	0.686818	0.624700	0.739175
H219	H	0.131982	0.122938	0.224632
H220	H	0.631982	0.622938	0.724632
H221	H	0.207882	0.177025	0.271676
H222	H	0.707882	0.677025	0.771676
H223	H	0.190828	0.076234	0.270569
H224	H	0.690828	0.576234	0.770569
C225	C	1.042701	-0.150434	0.070484
C226	C	1.542701	0.349566	0.570484
H227	H	1.051163	-0.088787	0.071061
H228	H	1.551163	0.411213	0.571061
H229	H	1.068095	-0.171920	0.023781
H230	H	1.568095	0.328080	0.523781
H231	H	1.064901	-0.166854	0.120417
H232	H	1.564901	0.333146	0.620417
