data_functionalizedCrystal
_audit_creation_method	'MofGen! by Chris Wilmer'
_symmetry_space_group_name_H-M	'P1'
_symmetry_Int_Tables_number	1
_symmetry_cell_setting	triclinic
loop_
_symmetry_equiv_pos_as_xyz
  x,y,z
_cell_length_a	19.121241
_cell_length_b	19.120786
_cell_length_c	12.759387
_cell_angle_alpha	87.523566
_cell_angle_beta	87.533791
_cell_angle_gamma	94.790376
loop_
_atom_site_label
_atom_site_type_symbol
_atom_site_fract_x
_atom_site_fract_y
_atom_site_fract_z
Zn1	Zn	1.063783	-0.234299	-0.647082
Zn2	Zn	1.058667	-0.351993	-0.463546
Zn3	Zn	0.946107	-0.239345	-0.463567
Zn4	Zn	0.941062	-0.356947	-0.631344
O5	O	1.002405	-0.295646	-0.551385
O6	O	1.161570	-0.245726	-0.629314
O7	O	1.043705	-0.337088	-0.316523
O8	O	0.965969	-0.140204	-0.494506
O9	O	1.157811	-0.332195	-0.494471
O10	O	1.052425	-0.136497	-0.629333
O11	O	0.961008	-0.254326	-0.316538
O12	O	0.846972	-0.259130	-0.479245
O13	O	0.957372	-0.340639	-0.780457
O14	O	0.843266	-0.345532	-0.602510
O15	O	1.047534	-0.250531	-0.792020
O16	O	1.038814	-0.451122	-0.479210
O17	O	0.952411	-0.454762	-0.602490
C18	C	0.819588	-0.303417	-0.539172
C19	C	0.741377	-0.306758	-0.533971
C20	C	0.994529	-0.478473	-0.539164
C21	C	0.991224	-0.556685	-0.533975
C22	C	0.706588	-0.263380	-0.601831
C23	C	0.633101	-0.266516	-0.596936
C24	C	0.594404	-0.313034	-0.524185
C25	C	0.629198	-0.356415	-0.456317
C26	C	0.702684	-0.353274	-0.461209
C27	C	0.372426	-0.324761	-0.505894
C28	C	0.298935	-0.327900	-0.501010
C29	C	0.302843	-0.237999	-0.641628
C30	C	0.376330	-0.234866	-0.646517
C31	C	0.411118	-0.278244	-0.578646
C32	C	0.519288	-0.316243	-0.519181
C33	C	0.486232	-0.275032	-0.583645
C34	C	1.034651	-0.591440	-0.601788
C35	C	1.031543	-0.664928	-0.596914
C36	C	0.985011	-0.703660	-0.524222
C37	C	0.941579	-0.668900	-0.456407
C38	C	0.944684	-0.595413	-0.461286
C39	C	0.973382	-0.925642	-0.505980
C40	C	0.970281	-0.999134	-0.501103
C41	C	1.060244	-0.995157	-0.641612
C42	C	1.063348	-0.921669	-0.646481
C43	C	1.019914	-0.886916	-0.578670
C44	C	0.981834	-0.778777	-0.519237
C45	C	1.023088	-0.811800	-0.583661
C46	C	1.185936	-0.287845	-0.563645
C47	C	1.264146	-0.284521	-0.568870
C48	C	1.002461	-0.295575	-0.825426
C49	C	1.002485	-0.295544	-0.942207
C50	C	1.010331	-0.112104	-0.563677
C51	C	1.013708	-0.033889	-0.568916
C52	C	1.096377	-0.201720	-0.954267
C53	C	1.143333	-0.154797	-1.015159
C54	C	1.143351	-0.154770	-1.124884
C55	C	1.096407	-0.201671	-1.173718
C56	C	1.049450	-0.248594	-1.112826
C57	C	1.049439	-0.248617	-1.003099
C58	C	0.955556	-0.342414	-1.100766
C59	C	0.955540	-0.342445	-0.991041
C60	C	0.908612	-0.389314	-1.149600
C61	C	0.861658	-0.436242	-1.088707
C62	C	0.861642	-0.436267	-0.978976
C63	C	0.908584	-0.389368	-0.930149
C64	C	1.002392	-0.295664	-0.278415
C65	C	1.002512	-0.295491	-0.161658
H66	H	0.738090	-0.225501	-0.661076
H67	H	1.101239	-0.890135	-0.705673
H68	H	1.072545	-0.559909	-0.660977
O69	O	0.908625	-0.389284	-1.267945
H70	H	0.920544	-0.441752	-1.294270
H71	H	0.823436	-0.474421	-1.128477
O72	O	0.587465	-0.406585	-0.377841
H73	H	0.552464	-0.443860	-0.420150
H74	H	1.066911	-0.693222	-0.652127
H75	H	0.938017	-0.897352	-0.450763
H76	H	0.932386	-1.030668	-0.441908
O77	O	0.810983	-0.486865	-0.913299
H78	H	0.778344	-0.519467	-0.965694
O79	O	0.897852	-0.557922	-0.388139
H80	H	0.864979	-0.597199	-0.336763
H81	H	1.095605	-1.023461	-0.696822
O82	O	0.931657	-0.820562	-0.440828
H83	H	0.877016	-0.808860	-0.456016
H84	H	0.487773	-0.354118	-0.459947
O85	O	0.891398	-0.710670	-0.377987
H86	H	0.896542	-0.767609	-0.385973
O87	O	0.595576	-0.219729	-0.670126
H88	H	0.634830	-0.186860	-0.721543
O89	O	1.073283	-0.770031	-0.662055
H90	H	1.043191	-0.737886	-0.715587
O91	O	0.265325	-0.191205	-0.714815
H92	H	0.207724	-0.201195	-0.699187
H93	H	1.096373	-0.201743	-0.864924
O94	O	0.257198	-0.378071	-0.422527
H95	H	0.200255	-0.372969	-0.430538
H96	H	1.181553	-0.116610	-0.975386
H97	H	0.731008	-0.388597	-0.405949
O98	O	0.908563	-0.389404	-0.811802
H99	H	0.896631	-0.336940	-0.785473
O100	O	0.527963	-0.224855	-0.662110
H101	H	0.560103	-0.254964	-0.715607
O102	O	1.193987	-0.104162	-1.190582
H103	H	1.248690	-0.113891	-1.172430
O104	O	0.418061	-0.184680	-0.724974
H105	H	0.403457	-0.197407	-0.805655
O106	O	0.409944	-0.371542	-0.432692
H107	H	0.370687	-0.404419	-0.381289
O108	O	1.096418	-0.201641	-1.292063
H109	H	1.136956	-0.161133	-1.326201
