data_functionalizedCrystal
_audit_creation_method	'MofGen! by Chris Wilmer'
_symmetry_space_group_name_H-M	'P1'
_symmetry_Int_Tables_number	1
_symmetry_cell_setting	triclinic
loop_
_symmetry_equiv_pos_as_xyz
  x,y,z
_cell_length_a	14.519709
_cell_length_b	10.654541
_cell_length_c	9.130307
_cell_angle_alpha	89.999822
_cell_angle_beta	90.004244
_cell_angle_gamma	95.917963
loop_
_atom_site_label
_atom_site_type_symbol
_atom_site_fract_x
_atom_site_fract_y
_atom_site_fract_z
O1	O	0.129520	-1.666593	0.121758
O2	O	0.141863	-1.300996	0.121771
O3	O	0.001504	-1.493488	0.121751
O4	O	0.269880	-1.474101	0.121778
O5	O	0.001502	-1.493481	-0.121848
O6	O	0.141862	-1.300989	-0.121828
O7	O	0.129519	-1.666587	-0.121841
Cu8	Cu	0.135690	-1.483788	-0.144077
Cu9	Cu	0.135692	-1.483795	0.144007
O10	O	0.269879	-1.474095	-0.121821
C11	C	0.140957	-1.254203	-0.000027
C12	C	0.138247	-1.114786	-0.000022
C13	C	-0.032862	-1.492581	-0.000049
C14	C	-0.135257	-1.489874	-0.000049
N15	N	0.135689	-1.483792	-0.346700
C16	C	-0.510204	-1.479906	-0.000011
C17	C	-0.405882	-1.482674	-0.000022
C18	C	-0.322734	-1.484890	-0.000032
C19	C	-0.218405	-1.487658	-0.000040
C20	C	0.304244	-1.475002	-0.000018
C21	C	0.406639	-1.477709	-0.000008
C22	C	0.130425	-1.713380	-0.000040
C23	C	0.133135	-1.852797	-0.000035
C24	C	0.306085	-1.085201	0.000013
C25	C	0.388727	-1.004912	0.000036
C26	C	0.386175	-0.873919	0.000038
C27	C	0.300972	-0.823213	0.000011
C28	C	0.218330	-0.903502	-0.000012
C29	C	0.220891	-1.034496	-0.000009
C30	C	0.050493	-0.933086	-0.000058
C31	C	0.053043	-1.064080	-0.000049
C32	C	-0.034710	-0.882380	-0.000085
C33	C	-0.117354	-0.962669	-0.000098
C34	C	-0.114798	-1.093670	-0.000097
C35	C	-0.029599	-1.144369	-0.000072
C36	C	0.011436	-1.654313	-0.346708
C37	C	-0.050687	-1.739582	-0.423378
C38	C	-0.050688	-1.739594	-0.576712
C39	C	0.011440	-1.654326	-0.653378
C40	C	0.073564	-1.569057	-0.576707
C41	C	0.073559	-1.569056	-0.423370
C42	C	0.197810	-1.398532	-0.576700
C43	C	0.197816	-1.398524	-0.423366
C44	C	0.259937	-1.313264	-0.653366
C45	C	0.322067	-1.227999	-0.576695
C46	C	0.322066	-1.227991	-0.423352
C47	C	0.259940	-1.313255	-0.346695
N48	N	0.135686	-1.483801	0.346630
H49	H	0.308172	-1.191861	0.000044
N50	N	0.389062	-1.136031	-0.659380
H51	H	0.379630	-1.148971	-0.768149
H52	H	0.454591	-1.150669	-0.632581
N53	N	-0.209238	-0.907969	-0.000144
H54	H	-0.214043	-0.854270	0.090149
H55	H	-0.261155	-0.978769	-0.000209
N56	N	0.259937	-1.313284	-0.818746
H57	H	0.322728	-1.331678	-0.855661
H58	H	0.245892	-1.227926	-0.855578
H59	H	0.372650	-1.158550	-0.360935
H60	H	0.259936	-1.313260	-0.221843
H61	H	0.458098	-1.046212	0.000054
N62	N	-0.203935	-1.180265	-0.000139
H63	H	-0.258292	-1.128261	-0.000160
H64	H	-0.206543	-1.235261	0.090165
H65	H	0.453470	-0.808546	0.000046
N66	N	-0.117685	-1.831569	-0.659412
H67	H	-0.108253	-1.818634	-0.768180
H68	H	-0.183213	-1.816932	-0.632630
N69	N	0.298228	-0.681926	-0.000022
H70	H	0.330560	-0.644554	0.090279
H71	H	0.231696	-0.662083	-0.000100
N72	N	-0.037468	-0.741096	-0.000113
H73	H	0.027812	-0.697925	-0.000096
H74	H	-0.071082	-0.715450	0.090177
N75	N	-0.026843	-1.285653	-0.000065
H76	H	0.039671	-1.305587	-0.000046
H77	H	-0.059212	-1.322918	-0.090383
N78	N	0.011429	-1.654294	-0.181328
H79	H	0.060208	-1.587336	-0.144391
H80	H	0.025405	-1.739682	-0.144493
N81	N	-0.117716	-1.831517	-0.340691
H82	H	-0.108297	-1.818568	-0.231921
H83	H	-0.106467	-1.920635	-0.367468
H84	H	0.011428	-1.654331	-0.778230
