data_functionalizedCrystal
_audit_creation_method	'MofGen! by Chris Wilmer'
_symmetry_space_group_name_H-M	'P1'
_symmetry_Int_Tables_number	1
_symmetry_cell_setting	triclinic
loop_
_symmetry_equiv_pos_as_xyz
  x,y,z
_cell_length_a	12.827893
_cell_length_b	16.625546
_cell_length_c	12.827885
_cell_angle_alpha	89.964876
_cell_angle_beta	89.980728
_cell_angle_gamma	90.022439
loop_
_atom_site_label
_atom_site_type_symbol
_atom_site_fract_x
_atom_site_fract_y
_atom_site_fract_z
Zn1	Zn	1.597618	-0.320963	-0.590810
Zn2	Zn	2.097618	0.179037	-0.090810
Zn3	Zn	1.597491	-0.455817	-0.416054
Zn4	Zn	2.097491	0.044183	0.083946
Zn5	Zn	1.422860	-0.321002	-0.416084
Zn6	Zn	1.922860	0.178998	0.083916
Zn7	Zn	1.422823	-0.455757	-0.590754
Zn8	Zn	1.922823	0.044243	-0.090754
O9	O	1.510198	-0.388385	-0.503425
O10	O	2.010198	0.111615	-0.003425
O11	O	1.743837	-0.338861	-0.567639
O12	O	2.243837	0.161139	-0.067639
O13	O	1.574287	-0.437976	-0.269822
O14	O	2.074287	0.062024	0.230178
O15	O	1.446110	-0.208165	-0.439297
O16	O	1.946110	0.291835	0.060703
O17	O	1.743744	-0.437937	-0.439247
O18	O	2.243744	0.062063	0.060753
O19	O	1.574505	-0.208136	-0.567668
O20	O	2.074505	0.291864	-0.067668
O21	O	1.445987	-0.338928	-0.269843
O22	O	1.945987	0.161072	0.230157
O23	O	1.276619	-0.338869	-0.439243
O24	O	1.776619	0.161131	0.060757
O25	O	1.446048	-0.437835	-0.736997
O26	O	1.946048	0.062165	-0.236997
O27	O	1.276592	-0.437873	-0.567572
O28	O	1.776592	0.062127	-0.067572
O29	O	1.574469	-0.338802	-0.737039
O30	O	2.074469	0.161198	-0.237039
O31	O	1.574252	-0.568642	-0.439192
O32	O	2.074252	-0.068642	0.060808
O33	O	1.445925	-0.568598	-0.567544
O34	O	1.945925	-0.068598	-0.067544
C35	C	1.238688	-0.388370	-0.503405
C36	C	1.738688	0.111630	-0.003405
C37	C	1.122535	-0.388382	-0.503422
C38	C	1.622535	0.111618	-0.003422
C39	C	1.070765	-0.437449	-0.566825
C40	C	1.570765	0.062551	-0.066825
C41	C	0.950714	-0.437464	-0.566844
C42	C	1.450714	0.062536	-0.066844
C43	C	1.510099	-0.597876	-0.503382
C44	C	2.010099	-0.097876	-0.003382
C45	C	1.510152	-0.687497	-0.503398
C46	C	2.010152	-0.187497	-0.003398
C47	C	1.510335	-1.015673	-0.503507
C48	C	2.010335	-0.515673	-0.003507
C49	C	1.510281	-0.924364	-0.503479
C50	C	2.010281	-0.424364	-0.003479
C51	C	1.510243	-0.851588	-0.503452
C52	C	2.010243	-0.351588	-0.003452
C53	C	1.510190	-0.760274	-0.503425
C54	C	2.010190	-0.260274	-0.003425
C55	C	1.782768	-0.388401	-0.503446
C56	C	2.282768	0.111599	-0.003446
C57	C	1.898921	-0.388408	-0.503455
C58	C	2.398921	0.111592	-0.003455
C59	C	1.510269	-0.388308	-0.775996
C60	C	2.010269	0.111692	-0.275996
C61	C	1.510299	-0.388275	-0.892149
C62	C	2.010299	0.111725	-0.392149
C63	C	1.510326	-0.178076	-0.503492
C64	C	2.010326	0.321924	-0.003492
C65	C	1.510380	-0.088455	-0.503521
C66	C	2.010380	0.411545	-0.003521
C67	C	1.573853	-0.339261	-0.943954
C68	C	2.073853	0.160739	-0.443954
C69	C	1.573886	-0.339225	-1.064004
C70	C	2.073886	0.160775	-0.564004
C71	C	1.510187	-0.388404	-0.231915
C72	C	2.010187	0.111596	0.268085
C73	C	1.510359	-0.388210	-0.115763
C74	C	2.010359	0.111790	0.384237
H75	H	0.906193	-0.479474	-0.621123
H76	H	1.406193	0.020526	-0.121123
C77	C	1.193710	-0.448677	-0.707231
C78	C	1.693710	0.051323	-0.207231
C79	C	1.130904	-0.494147	-0.640089
C80	C	1.630904	0.005853	-0.140089
H81	H	1.230840	-0.483683	-0.752457
H82	H	1.730840	0.016317	-0.252457
H83	H	1.151159	-0.413629	-0.747330
H84	H	1.651159	0.086371	-0.247330
H85	H	1.241740	-0.417893	-0.667438
H86	H	1.741740	0.082107	-0.167438
H87	H	1.082869	-0.524927	-0.679882
H88	H	1.582869	-0.024927	-0.179882
H89	H	1.173459	-0.529210	-0.599986
H90	H	1.673459	-0.029210	-0.099986
C91	C	1.588387	-0.230813	-1.186900
C92	C	2.088387	0.269187	-0.686900
C93	C	1.647341	-0.282569	-1.124134
C94	C	2.147341	0.217431	-0.624134
H95	H	1.633738	-0.195831	-1.224016
H96	H	2.133738	0.304169	-0.724016
H97	H	1.548551	-0.261541	-1.234932
H98	H	2.048551	0.238459	-0.734932
H99	H	1.542903	-0.199957	-1.144314
H100	H	2.042903	0.300043	-0.644314
H101	H	1.692820	-0.313429	-1.166720
H102	H	2.192820	0.186571	-0.666720
H103	H	1.687195	-0.251837	-1.076097
H104	H	2.187195	0.248163	-0.576097
C105	C	1.495859	-0.496615	-0.992860
C106	C	1.995859	0.003385	-0.492860
C107	C	1.436903	-0.444864	-1.055630
C108	C	1.936903	0.055136	-0.555630
H109	H	1.450509	-0.531586	-0.955726
H110	H	1.950509	-0.031586	-0.455726
H111	H	1.541331	-0.527476	-1.035437
H112	H	2.041331	-0.027476	-0.535437
H113	H	1.535708	-0.465877	-0.944834
H114	H	2.035708	0.034123	-0.444834
H115	H	1.397059	-0.475601	-1.103662
H116	H	1.897059	0.024399	-0.603662
H117	H	1.391413	-0.414000	-1.013050
H118	H	1.891413	0.086000	-0.513050
C119	C	1.021723	-0.377150	-0.363007
C120	C	1.521723	0.122850	0.136993
C121	C	0.959011	-0.331695	-0.430169
C122	C	1.459011	0.168305	0.069831
H123	H	1.058829	-0.342136	-0.317769
H124	H	1.558829	0.157864	0.182231
H125	H	0.979110	-0.412209	-0.322923
H126	H	1.479110	0.087791	0.177077
H127	H	1.069773	-0.407922	-0.402786
H128	H	1.569773	0.092078	0.097214
H129	H	0.910955	-0.300927	-0.390390
H130	H	1.410955	0.199073	0.109610
H131	H	1.001627	-0.296621	-0.470257
H132	H	1.501627	0.203379	0.029743
C133	C	1.588298	-0.230931	-0.821103
C134	C	2.088298	0.269069	-0.321103
C135	C	1.647280	-0.282648	-0.883854
C136	C	2.147280	0.217352	-0.383854
H137	H	1.633633	-0.195985	-0.783997
H138	H	2.133633	0.304015	-0.283997
H139	H	1.542851	-0.200042	-0.863690
H140	H	2.042851	0.299958	-0.363690
H141	H	1.548421	-0.261696	-0.773053
H142	H	2.048421	0.238304	-0.273053
H143	H	1.687151	-0.251884	-0.931910
H144	H	2.187151	0.248116	-0.431910
H145	H	1.692745	-0.313541	-0.841263
H146	H	2.192745	0.186459	-0.341263
H147	H	1.077981	-0.346382	-0.449157
H148	H	1.577981	0.153618	0.050843
H149	H	1.455906	-0.430206	-0.936673
H150	H	1.955906	0.069794	-0.436673
