data_functionalizedCrystal
_audit_creation_method	'MofGen! by Chris Wilmer'
_symmetry_space_group_name_H-M	'P1'
_symmetry_Int_Tables_number	1
_symmetry_cell_setting	triclinic
loop_
_symmetry_equiv_pos_as_xyz
  x,y,z
_cell_length_a	16.992694
_cell_length_b	16.992695
_cell_length_c	15.455425
_cell_angle_alpha	92.813861
_cell_angle_beta	87.179027
_cell_angle_gamma	89.331777
loop_
_atom_site_label
_atom_site_type_symbol
_atom_site_fract_x
_atom_site_fract_y
_atom_site_fract_z
O1	O	1.054114	-0.170165	-0.072022
O2	O	0.825715	-0.168335	-0.072047
O3	O	0.938998	-0.055049	-0.072028
O4	O	0.940830	-0.283450	-0.072041
O5	O	0.932452	-0.048539	0.072232
O6	O	0.819168	-0.161824	0.072212
O7	O	1.047567	-0.163654	0.072238
Cu8	Cu	0.932770	-0.162145	0.085397
Cu9	Cu	0.940512	-0.169844	-0.085207
O10	O	0.934283	-0.276940	0.072218
C11	C	0.793081	-0.162724	0.000079
C12	C	0.705597	-0.155696	0.000070
C13	C	0.659607	-0.223514	0.000066
C14	C	0.577405	-0.216904	0.000079
C15	C	0.541197	-0.142476	0.000088
C16	C	0.587193	-0.074653	0.000094
C17	C	0.669393	-0.081263	0.000088
C18	C	0.295881	-0.115080	0.000113
C19	C	0.213676	-0.108476	0.000116
C20	C	0.203893	-0.250728	0.000103
C21	C	0.286095	-0.257331	0.000091
C22	C	0.332084	-0.189508	0.000102
N23	N	0.457174	-0.135718	0.000098
N24	N	0.416105	-0.196266	0.000098
C25	C	0.933369	-0.022434	0.000102
C26	C	0.926341	0.065051	0.000101
C27	C	1.080200	-0.169265	0.000109
C28	C	1.167685	-0.176294	0.000113
C29	C	0.939913	-0.309555	0.000087
C30	C	0.946942	-0.397040	0.000082
N31	N	0.927330	-0.156729	0.205390
C32	C	0.994158	0.111042	0.000109
C33	C	0.987550	0.193242	0.000100
C34	C	0.913122	0.229450	0.000089
C35	C	0.845300	0.183452	0.000078
C36	C	0.851910	0.101253	0.000081
C37	C	0.885729	0.474764	0.000074
C38	C	0.879124	0.556969	0.000074
C39	C	1.021375	0.566753	0.000094
C40	C	1.027977	0.484552	0.000102
C41	C	0.960155	0.438561	0.000087
N42	N	0.906366	0.313472	0.000082
N43	N	0.966913	0.354541	0.000087
N44	N	0.945958	-0.175254	-0.205200
C45	C	0.897283	-0.126554	0.749386
C46	C	0.901394	-0.130679	0.658580
C47	C	0.954176	-0.183509	0.613189
C48	C	1.002856	-0.232211	0.658610
C49	C	0.998748	-0.228081	0.749414
C50	C	0.971903	-0.201301	0.341615
C51	C	0.976005	-0.205429	0.250804
C52	C	0.874543	-0.103896	0.250781
C53	C	0.870437	-0.099774	0.341587
C54	C	0.919120	-0.148473	0.386999
N55	N	0.958377	-0.187729	0.520371
N56	N	0.914922	-0.144248	0.479816
H57	H	0.706838	-0.026038	0.000090
O58	O	1.060699	0.242844	0.000123
H59	H	1.098751	0.226749	-0.058661
O60	O	0.548141	0.005625	0.000113
H61	H	0.568929	0.035815	-0.058678
O62	O	1.094521	0.616358	0.000111
H63	H	1.132568	0.600267	-0.058678
O64	O	1.108253	0.445497	0.000093
H65	H	1.154303	0.491288	0.000085
H66	H	0.539963	-0.272129	0.000075
O67	O	1.032941	-0.262415	0.201853
H68	H	0.999717	-0.304222	0.160511
H69	H	0.818513	0.586447	0.000079
H70	H	1.038385	-0.267738	0.786389
H71	H	1.054764	0.081568	0.000124
O72	O	0.812580	0.425164	0.000079
H73	H	0.759718	0.464155	0.000086
H74	H	0.784700	0.212939	0.000063
H75	H	0.854298	-0.083538	0.786336
H76	H	0.796685	0.063808	0.000073
H77	H	1.011544	-0.240956	0.378579
H78	H	0.861760	-0.091020	0.621608
O79	O	0.325153	-0.337606	0.000082
H80	H	0.359716	-0.341359	0.058873
H81	H	1.045836	-0.275223	0.621646
H82	H	0.827458	-0.056753	0.378538
O83	O	0.822080	-0.051328	0.201803
H84	H	0.833819	-0.063054	0.131035
H85	H	0.166440	-0.305945	0.000096
O86	O	0.698659	-0.303790	0.000065
H87	H	0.652865	-0.349836	0.000076
O88	O	0.174616	-0.028196	0.000135
H89	H	0.220404	0.017857	0.000150
H90	H	0.333316	-0.059853	0.000122
