data_functionalizedCrystal
_audit_creation_method	'MofGen! by Chris Wilmer'
_symmetry_space_group_name_H-M	'P1'
_symmetry_Int_Tables_number	1
_symmetry_cell_setting	triclinic
loop_
_symmetry_equiv_pos_as_xyz
  x,y,z
_cell_length_a	19.188879
_cell_length_b	14.971486
_cell_length_c	13.448316
_cell_angle_alpha	89.998199
_cell_angle_beta	90.016397
_cell_angle_gamma	96.630896
loop_
_atom_site_label
_atom_site_type_symbol
_atom_site_fract_x
_atom_site_fract_y
_atom_site_fract_z
O1	O	-0.090990	1.186446	-0.082600
O2	O	-0.101886	0.925985	-0.082629
O3	O	0.005196	1.063755	-0.082582
O4	O	-0.198072	1.048675	-0.082647
O5	O	0.005202	1.063738	0.082801
O6	O	-0.101880	0.925968	0.082754
O7	O	-0.090984	1.186428	0.082784
Cu8	Cu	-0.096431	1.056197	0.097870
Cu9	Cu	-0.096439	1.056217	-0.097715
O10	O	-0.198066	1.048658	0.082737
C11	C	-0.101396	0.892655	0.000059
C12	C	-0.099936	0.793366	0.000049
C13	C	-0.162843	0.735793	0.000031
C14	C	-0.161467	0.642501	0.000046
C15	C	-0.097182	0.606784	0.000073
C16	C	-0.034270	0.664363	0.000094
C17	C	-0.035647	0.757653	0.000086
C18	C	-0.031404	0.469917	0.000109
C19	C	-0.030027	0.376620	0.000115
C20	C	-0.157224	0.354765	0.000069
C21	C	-0.158601	0.448055	0.000061
C22	C	-0.095688	0.505628	0.000080
C23	C	-0.224082	1.049148	0.000037
C24	C	-0.301593	1.050591	0.000013
C25	C	-0.337974	1.051282	0.090169
C26	C	-0.410802	1.052663	0.090187
C27	C	-0.447243	1.053370	0.000043
C28	C	-0.410854	1.052674	-0.090125
C29	C	-0.338029	1.051284	-0.090140
N30	N	-0.556437	1.106460	-0.067030
N31	N	-0.625617	1.107782	-0.067009
C32	C	-0.666662	1.057555	0.000082
N33	N	-0.635911	1.005967	0.067168
N34	N	-0.566723	1.004649	0.067151
C35	C	-0.526210	1.054876	0.000049
C36	C	-0.782011	1.059742	0.090263
C37	C	-0.854840	1.061117	0.090277
C38	C	-0.854890	1.061137	-0.090037
C39	C	-0.782063	1.059753	-0.090048
C40	C	-0.745627	1.059060	0.000105
C41	C	0.031212	1.063266	0.000115
C42	C	0.108723	1.061823	0.000133
C43	C	-0.091474	1.219759	0.000093
C44	C	-0.092934	1.319048	0.000097
N45	N	-0.096425	1.056189	0.235434
N46	N	-0.096439	1.056232	-0.235280
C47	C	-0.049029	1.117212	0.287496
C48	C	-0.049028	1.117218	0.391599
C49	C	-0.096428	1.056204	0.443639
C50	C	-0.143827	0.995174	0.391571
C51	C	-0.143823	0.995165	0.287469
C52	C	-0.143831	0.995199	0.608551
C53	C	-0.143836	0.995209	0.712659
C54	C	-0.049036	1.117252	0.712680
C55	C	-0.049033	1.117243	0.608579
C56	C	-0.096433	1.056214	0.556518
H57	H	-0.215191	0.764867	0.000009
H58	H	-0.884460	1.061677	0.163696
H59	H	0.015579	0.804529	0.000100
H60	H	-0.308313	1.050716	0.163579
H61	H	-0.308408	1.050720	-0.163558
H62	H	-0.010442	1.166943	0.755075
H63	H	-0.182427	0.945499	0.566166
F64	F	-0.194284	0.930267	0.768037
H65	H	-0.210948	0.477133	0.000030
F66	F	-0.228422	0.581232	0.000022
F67	F	-0.194267	0.930212	0.232063
F68	F	0.001417	1.182164	0.447006
H69	H	-0.440431	1.053209	0.163605
F70	F	0.001410	1.182185	0.553193
H71	H	0.019826	0.516791	0.000126
H72	H	-0.208450	0.307884	0.000057
H73	H	-0.440530	1.053246	-0.163520
H74	H	0.022320	0.347542	0.000138
F75	F	-0.194270	0.930233	0.446956
F76	F	-0.743231	1.059000	0.186210
H77	H	0.018072	0.635275	0.000130
F78	F	-0.893672	1.061861	-0.185975
H79	H	-0.752441	1.059196	-0.163463
H80	H	-0.010433	1.166901	0.245131
