data_functionalizedCrystal
_audit_creation_method	'MofGen! by Chris Wilmer'
_symmetry_space_group_name_H-M	'P1'
_symmetry_Int_Tables_number	1
_symmetry_cell_setting	triclinic
loop_
_symmetry_equiv_pos_as_xyz
  x,y,z
_cell_length_a	12.759401
_cell_length_b	10.685382
_cell_length_c	12.759393
_cell_angle_alpha	85.600305
_cell_angle_beta	90.019802
_cell_angle_gamma	85.607953
loop_
_atom_site_label
_atom_site_type_symbol
_atom_site_fract_x
_atom_site_fract_y
_atom_site_fract_z
Zn1	Zn	1.574137	0.502382	0.561925
Zn2	Zn	1.560529	0.713448	0.372774
Zn3	Zn	1.398432	0.502440	0.386260
Zn4	Zn	1.384935	0.713351	0.548421
O5	O	1.479508	0.607905	0.467345
O6	O	1.719352	0.530397	0.536841
O7	O	1.538980	0.685522	0.227538
O8	O	1.433083	0.325834	0.420857
O9	O	1.709354	0.685466	0.397873
O10	O	1.562172	0.325791	0.549918
O11	O	1.419888	0.530496	0.237445
O12	O	1.249622	0.530402	0.407763
O13	O	1.410079	0.685300	0.697237
O14	O	1.239705	0.685357	0.526902
O15	O	1.549085	0.530303	0.707159
O16	O	1.525893	0.890034	0.384779
O17	O	1.396885	0.889962	0.513826
C18	C	1.206543	0.607876	0.467331
C19	C	1.089765	0.607894	0.467348
C20	C	0.930361	0.527324	0.539809
C21	C	1.040087	0.527300	0.539804
C22	C	1.029711	0.688527	0.394901
C23	C	0.919987	0.688557	0.394912
C24	C	1.458476	0.935788	0.446396
C25	C	1.449575	1.076057	0.437470
C26	C	1.753540	0.607936	0.467359
C27	C	1.870315	0.607949	0.467365
C28	C	1.479595	0.607784	0.741386
C29	C	1.479631	0.607733	0.858166
C30	C	1.500593	1.278742	0.488407
C31	C	1.509430	1.138473	0.497406
C32	C	1.479489	0.607935	0.194375
C33	C	1.479678	0.607631	0.077619
C34	C	1.552018	0.527012	0.918196
C35	C	1.552039	0.526958	1.027924
C36	C	1.407284	0.688355	1.017580
C37	C	1.407259	0.688402	0.907855
H38	H	1.088971	0.461648	0.598796
Br39	Br	0.862952	0.417930	0.638139
Br40	Br	1.606196	1.048685	0.594330
Br41	Br	1.097130	0.797915	0.296574
H42	H	1.391506	1.129937	0.379327
Br43	Br	1.650289	0.417413	1.109390
Br44	Br	1.650235	0.417531	0.850764
H45	H	0.871096	0.754218	0.335918
H46	H	1.348363	0.754036	1.058051
Br47	Br	1.309005	0.797948	0.826378
