data_functionalizedCrystal
_audit_creation_method	'MofGen! by Chris Wilmer'
_symmetry_space_group_name_H-M	'P1'
_symmetry_Int_Tables_number	1
_symmetry_cell_setting	triclinic
loop_
_symmetry_equiv_pos_as_xyz
  x,y,z
_cell_length_a	19.121102
_cell_length_b	11.169416
_cell_length_c	11.169409
_cell_angle_alpha	89.969126
_cell_angle_beta	92.462271
_cell_angle_gamma	92.435079
loop_
_atom_site_label
_atom_site_type_symbol
_atom_site_fract_x
_atom_site_fract_y
_atom_site_fract_z
Zn1	Zn	1.073837	0.556104	0.756855
Zn2	Zn	1.073773	0.756840	0.556172
Zn3	Zn	0.956378	0.547599	0.547624
Zn4	Zn	0.956382	0.748169	0.748257
O5	O	1.015092	0.652178	0.652227
O6	O	1.172114	0.589920	0.737409
O7	O	1.058171	0.729153	0.387086
O8	O	0.971984	0.380780	0.575400
O9	O	1.172067	0.737400	0.589968
O10	O	1.058281	0.387028	0.729121
O11	O	0.971921	0.575425	0.380806
O12	O	0.858092	0.567017	0.567064
O13	O	0.971992	0.722622	0.917350
O14	O	0.858096	0.714375	0.714468
O15	O	1.058286	0.581513	0.923666
O16	O	1.058175	0.923638	0.581632
O17	O	0.971929	0.917267	0.722756
C18	C	0.832610	0.638833	0.638906
C19	C	0.754543	0.633153	0.633235
C20	C	1.015065	0.964001	0.652216
C21	C	1.015117	1.097405	0.652256
C22	C	1.015146	0.652049	0.965274
C23	C	1.015169	0.651994	1.098675
C24	C	0.717887	0.707322	0.707196
C25	C	0.644535	0.701969	0.701874
C26	C	0.607840	0.622453	0.622584
C27	C	0.644501	0.548276	0.548620
C28	C	0.717852	0.553624	0.553949
C29	C	0.386367	0.602456	0.602666
C30	C	0.313011	0.597117	0.597340
C31	C	0.313049	0.750809	0.750596
C32	C	0.386402	0.756155	0.755913
C33	C	0.423056	0.681974	0.681953
C34	C	0.532862	0.616982	0.617139
C35	C	0.498033	0.687439	0.687405
C36	C	1.198288	0.665576	0.665601
C37	C	1.276355	0.671286	0.671300
C38	C	1.015139	0.339139	0.652266
C39	C	1.015159	0.205741	0.652283
C40	C	1.015079	0.652223	0.340401
C41	C	1.015192	0.651950	0.207010
H42	H	0.747758	0.772077	0.771759
C43	C	0.604216	0.783562	0.783232
C44	C	0.614290	0.920722	0.773930
C45	C	0.573973	1.002319	0.855295
C46	C	0.523583	0.946755	0.945960
C47	C	0.513507	0.809587	0.955265
C48	C	0.553824	0.727991	0.873901
H49	H	0.651593	0.961860	0.706811
H50	H	0.581432	1.103859	0.848406
H51	H	0.493738	1.007157	1.006191
H52	H	0.476203	0.768449	1.022385
H53	H	0.546365	0.626450	0.880790
H54	H	0.614618	0.483527	0.484066
H55	H	0.283197	0.811201	0.810811
C56	C	0.758178	0.472037	0.472593
C57	C	0.748103	0.334877	0.481889
C58	C	0.788429	0.253282	0.400538
C59	C	0.838829	0.308847	0.309890
C60	C	0.848907	0.446015	0.300591
C61	C	0.808581	0.527610	0.381942
H62	H	0.710791	0.293737	0.548995
H63	H	0.780969	0.151741	0.407422
H64	H	0.868681	0.248446	0.249669
H65	H	0.886218	0.487154	0.233485
H66	H	0.816041	0.629150	0.375057
C67	C	0.272644	0.509617	0.510141
C68	C	0.312961	0.428002	0.428805
C69	C	0.272594	0.340500	0.341620
C70	C	0.191911	0.334614	0.335771
C71	C	0.151590	0.416232	0.417109
C72	C	0.191957	0.503734	0.504294
H73	H	0.372691	0.432357	0.433133
H74	H	0.302443	0.280081	0.281408
H75	H	0.162029	0.269840	0.271231
H76	H	0.091860	0.411877	0.412782
H77	H	0.162108	0.564153	0.564507
C78	C	0.492490	0.529523	0.529919
C79	C	0.442083	0.431692	0.578433
C80	C	0.401707	0.344232	0.491218
C81	C	0.411738	0.354603	0.355490
C82	C	0.462147	0.452438	0.306969
C83	C	0.502523	0.539898	0.394184
H84	H	0.434656	0.424011	0.678913
H85	H	0.364390	0.271807	0.527137
H86	H	0.381849	0.289859	0.290928
H87	H	0.469575	0.460119	0.206489
H88	H	0.539840	0.612322	0.358265
H89	H	0.416202	0.542062	0.542434
H90	H	0.416274	0.820908	0.820476
H91	H	0.527913	0.752176	0.751968
