data_functionalizedCrystal
_audit_creation_method	'MofGen! by Chris Wilmer'
_symmetry_space_group_name_H-M	'P1'
_symmetry_Int_Tables_number	1
_symmetry_cell_setting	triclinic
loop_
_symmetry_equiv_pos_as_xyz
  x,y,z
_cell_length_a	21.395362
_cell_length_b	16.625546
_cell_length_c	21.395341
_cell_angle_alpha	89.896907
_cell_angle_beta	89.912864
_cell_angle_gamma	90.038346
loop_
_atom_site_label
_atom_site_type_symbol
_atom_site_fract_x
_atom_site_fract_y
_atom_site_fract_z
Zn1	Zn	0.958163	-0.320079	-0.354587
Zn2	Zn	0.958001	-0.455093	-0.249809
Zn3	Zn	0.853299	-0.320316	-0.249788
Zn4	Zn	0.853362	-0.454911	-0.354514
O5	O	0.905706	-0.387600	-0.302175
O6	O	1.045820	-0.337966	-0.340727
O7	O	0.944018	-0.437390	-0.162128
O8	O	0.867250	-0.207452	-0.263711
O9	O	1.045701	-0.437161	-0.263747
O10	O	0.944294	-0.207278	-0.340707
O11	O	0.867094	-0.338370	-0.162112
O12	O	0.765629	-0.338193	-0.263641
O13	O	0.867358	-0.436850	-0.442202
O14	O	0.765676	-0.437079	-0.340583
O15	O	0.944355	-0.337789	-0.442255
O16	O	0.944080	-0.567902	-0.263677
O17	O	0.867202	-0.567768	-0.340603
C18	C	0.742919	-0.387643	-0.302102
C19	C	0.673277	-0.387680	-0.302086
C20	C	0.640605	-0.439239	-0.342089
C21	C	0.575169	-0.439219	-0.342117
C22	C	0.542409	-0.387649	-0.302130
C23	C	0.575090	-0.336081	-0.262124
C24	C	0.640524	-0.336096	-0.262101
C25	C	0.438641	-0.381261	-0.245725
C26	C	0.373208	-0.381251	-0.245746
C27	C	0.340588	-0.387596	-0.302199
C28	C	0.373410	-0.393969	-0.358633
C29	C	0.438844	-0.393984	-0.358611
C30	C	0.471457	-0.387626	-0.302150
C31	C	0.236963	-0.439136	-0.342237
C32	C	0.171527	-0.439111	-0.342266
C33	C	0.171448	-0.335977	-0.262267
C34	C	0.236884	-0.335998	-0.262243
C35	C	0.269637	-0.387582	-0.302227
C36	C	0.905647	-0.597091	-0.302148
C37	C	0.905679	-0.686712	-0.302158
C38	C	0.905788	-1.014887	-0.302223
C39	C	0.905756	-0.923579	-0.302207
C40	C	0.905733	-0.850802	-0.302190
C41	C	0.905702	-0.759488	-0.302175
C42	C	1.069130	-0.387558	-0.302248
C43	C	1.138771	-0.387539	-0.302279
C44	C	0.905882	-0.387273	-0.465598
C45	C	0.905956	-0.387133	-0.535240
C46	C	0.905783	-0.177291	-0.302215
C47	C	0.905816	-0.087670	-0.302232
C48	C	0.905568	-0.387867	-0.139386
C49	C	0.905614	-0.387780	-0.069745
C50	C	0.945735	-0.335234	0.431851
C51	C	0.945691	-0.335307	0.366416
C52	C	0.905875	-0.387295	0.333892
C53	C	0.866089	-0.439199	0.366809
C54	C	0.866129	-0.439118	0.432243
C55	C	0.901247	-0.460113	0.230391
C56	C	0.901211	-0.460195	0.164958
C57	C	0.905747	-0.387544	0.132072
C58	C	0.910332	-0.314808	0.164627
C59	C	0.910372	-0.314727	0.230061
C60	C	0.905827	-0.387388	0.262940
C61	C	0.945480	-0.335720	0.028210
C62	C	0.945432	-0.335792	-0.037226
C63	C	0.865832	-0.439691	-0.036831
C64	C	0.865877	-0.439611	0.028604
C65	C	0.905704	-0.387627	0.061121
H66	H	0.346852	-0.399135	-0.404603
H67	H	0.263486	-0.294017	-0.229665
O68	O	0.272298	-0.494759	-0.385368
H69	H	0.238583	-0.530598	-0.413199
H70	H	0.978083	-0.293040	0.339616
H71	H	0.914026	-0.255649	0.137852
H72	H	0.833489	-0.481878	0.055399
O73	O	0.988686	-0.279160	0.466921
H74	H	1.020772	-0.314908	0.496737
O75	O	0.915313	-0.236281	0.265171
H76	H	0.914584	-0.248435	0.316195
O77	O	0.822885	-0.495765	-0.071899
H78	H	0.829541	-0.487106	-0.122929
O79	O	0.337809	-0.374374	-0.184883
H80	H	0.371483	-0.369946	-0.145625
H81	H	0.977906	-0.293387	0.054687
H82	H	0.667269	-0.481242	-0.374648
H83	H	0.897481	-0.519421	0.138457
H84	H	0.548412	-0.294091	-0.229567
H85	H	0.977823	-0.293525	-0.064020
H86	H	0.548562	-0.481204	-0.374695
O87	O	0.474247	-0.400840	-0.419473
H88	H	0.440577	-0.405243	-0.458736
H89	H	0.833668	-0.481525	0.340324
H90	H	0.897359	-0.519258	0.257161
H91	H	0.144926	-0.481095	-0.374845
O92	O	0.823208	-0.495086	0.467735
H93	H	0.834265	-0.558285	0.455294
O94	O	0.136125	-0.280359	-0.219130
H95	H	0.085134	-0.289014	-0.225861
H96	H	0.667125	-0.294108	-0.229525
O97	O	0.473823	-0.374418	-0.184832
H98	H	0.440009	-0.369998	-0.145595
