data_functionalizedCrystal
_audit_creation_method	'MofGen! by Chris Wilmer'
_symmetry_space_group_name_H-M	'P1'
_symmetry_Int_Tables_number	1
_symmetry_cell_setting	triclinic
loop_
_symmetry_equiv_pos_as_xyz
  x,y,z
_cell_length_a	15.944551
_cell_length_b	11.792253
_cell_length_c	10.268362
_cell_angle_alpha	89.989159
_cell_angle_beta	90.000094
_cell_angle_gamma	96.151331
loop_
_atom_site_label
_atom_site_type_symbol
_atom_site_fract_x
_atom_site_fract_y
_atom_site_fract_z
O1	O	1.115190	-0.146380	0.108181
O2	O	1.365190	0.103620	0.358181
O3	O	1.615190	0.353620	0.608181
O4	O	1.865190	0.603620	0.858181
O5	O	0.870722	-0.164427	0.108215
O6	O	1.120722	0.085573	0.358215
O7	O	1.370722	0.335573	0.608215
O8	O	1.620722	0.585573	0.858215
O9	O	0.998883	0.009815	0.108170
O10	O	1.248883	0.259815	0.358170
O11	O	1.498883	0.509815	0.608170
O12	O	1.748883	0.759815	0.858170
O13	O	0.987029	-0.320622	0.108226
O14	O	1.237029	-0.070622	0.358226
O15	O	1.487029	0.179378	0.608226
O16	O	1.737029	0.429378	0.858226
O17	O	0.998872	0.009822	-0.108431
O18	O	1.248872	0.259822	0.141569
O19	O	1.498872	0.509822	0.391569
O20	O	1.748872	0.759822	0.641569
O21	O	0.870711	-0.164420	-0.108385
O22	O	1.120711	0.085580	0.141615
O23	O	1.370711	0.335580	0.391615
O24	O	1.620711	0.585580	0.641615
O25	O	1.115178	-0.146373	-0.108420
O26	O	1.365178	0.103627	0.141580
O27	O	1.615178	0.353627	0.391580
O28	O	1.865178	0.603627	0.641580
Cu29	Cu	0.992944	-0.155395	-0.128180
Cu30	Cu	1.242944	0.094605	0.121820
Cu31	Cu	1.492944	0.344605	0.371820
Cu32	Cu	1.742944	0.594605	0.621820
Cu33	Cu	0.992957	-0.155404	0.127975
Cu34	Cu	1.242957	0.094596	0.377975
Cu35	Cu	1.492957	0.344596	0.627975
Cu36	Cu	1.742957	0.594596	0.877975
O37	O	0.987018	-0.320615	-0.108375
O38	O	1.237018	-0.070615	0.141625
O39	O	1.487018	0.179385	0.391625
O40	O	1.737018	0.429385	0.641625
C41	C	0.839419	-0.163674	-0.000081
C42	C	1.089419	0.086326	0.249919
C43	C	1.339419	0.336326	0.499919
C44	C	1.589419	0.586326	0.749919
C45	C	0.746163	-0.161428	-0.000069
C46	C	0.996163	0.088572	0.249931
C47	C	1.246163	0.338572	0.499931
C48	C	1.496163	0.588572	0.749931
C49	C	0.998131	0.052103	-0.000134
C50	C	1.248131	0.302103	0.249866
C51	C	1.498131	0.552103	0.499866
C52	C	1.748131	0.802103	0.749866
C53	C	0.995895	0.178098	-0.000146
C54	C	1.245895	0.428098	0.249854
C55	C	1.495895	0.678098	0.499854
C56	C	1.745895	0.928098	0.749854
N57	N	0.992940	-0.155389	-0.308346
N58	N	1.242940	0.094611	-0.058346
N59	N	1.492940	0.344611	0.191654
N60	N	1.742940	0.594611	0.441654
C61	C	0.530791	-0.048056	-0.000114
C62	C	0.780791	0.201944	0.249886
C63	C	1.030791	0.451944	0.499886
C64	C	1.280791	0.701944	0.749886
C65	C	0.470015	-0.100705	0.106691
C66	C	0.720015	0.149295	0.356691
C67	C	0.970015	0.399295	0.606691
C68	C	1.220015	0.649295	0.856691
C69	C	0.575418	-0.157364	-0.000085
C70	C	0.825418	0.092636	0.249915
C71	C	1.075418	0.342636	0.499915
C72	C	1.325418	0.592636	0.749915
C73	C	0.470027	-0.100724	-0.106860
C74	C	0.720027	0.149276	0.143140
C75	C	0.970027	0.399276	0.393140
C76	C	1.220027	0.649276	0.643140
C77	C	0.410488	-0.153431	-0.000107
C78	C	0.660488	0.096569	0.249893
C79	C	0.910488	0.346569	0.499893
C80	C	1.160488	0.596569	0.749893
C81	C	0.515872	-0.210044	0.106807
C82	C	0.765872	0.039956	0.356807
C83	C	1.015872	0.289956	0.606807
C84	C	1.265872	0.539956	0.856807
C85	C	0.515889	-0.210048	-0.106840
C86	C	0.765889	0.039952	0.143160
C87	C	1.015889	0.289952	0.393160
C88	C	1.265889	0.539952	0.643160
C89	C	0.455132	-0.262777	-0.000009
C90	C	0.705132	-0.012777	0.249991
C91	C	0.955132	0.237223	0.499991
C92	C	1.205132	0.487223	0.749991
C93	C	0.670431	-0.159627	-0.000072
C94	C	0.920431	0.090373	0.249928
C95	C	1.170431	0.340373	0.499928
C96	C	1.420431	0.590373	0.749928
C97	C	0.315477	-0.151177	-0.000111
C98	C	0.565477	0.098823	0.249889
C99	C	0.815477	0.348823	0.499889
C100	C	1.065477	0.598823	0.749889
C101	C	1.146481	-0.147125	-0.000121
C102	C	1.396481	0.102875	0.249879
C103	C	1.646481	0.352875	0.499879
C104	C	1.896481	0.602875	0.749879
C105	C	1.239738	-0.149371	-0.000124
C106	C	1.489738	0.100629	0.249876
C107	C	1.739738	0.350629	0.499876
C108	C	1.989738	0.600629	0.749876
C109	C	0.994079	0.280420	-0.000153
C110	C	1.244079	0.530420	0.249847
C111	C	1.494079	0.780420	0.499847
C112	C	1.744079	1.030420	0.749847
C113	C	0.991809	0.408787	-0.000154
C114	C	1.241809	0.658787	0.249846
C115	C	1.491809	0.908787	0.499846
C116	C	1.741809	1.158787	0.749846
C117	C	0.987770	0.637097	-0.000095
C118	C	1.237770	0.887097	0.249905
C119	C	1.487770	1.137097	0.499905
C120	C	1.737770	1.387097	0.749905
C121	C	0.990005	0.511103	-0.000155
C122	C	1.240005	0.761103	0.249845
C123	C	1.490005	1.011103	0.499845
C124	C	1.740005	1.261103	0.749845
C125	C	0.992953	-0.155402	-0.574016
C126	C	1.242953	0.094598	-0.324016
C127	C	1.492953	0.344598	-0.074016
C128	C	1.742953	0.594598	0.175984
C129	C	0.992943	-0.155398	-0.426179
C130	C	1.242943	0.094602	-0.176179
C131	C	1.492943	0.344602	0.073821
C132	C	1.742943	0.594602	0.323821
N133	N	0.992967	-0.155402	0.308141
N134	N	1.242967	0.094598	0.558141
N135	N	1.492967	0.344598	0.808141
N136	N	1.742967	0.594598	1.058141
H137	H	0.449700	-0.054475	0.196971
H138	H	0.699700	0.195525	0.446971
H139	H	0.949700	0.445525	0.696971
H140	H	1.199700	0.695525	0.946971
H141	H	0.422386	-0.353588	0.000066
H142	H	0.672386	-0.103588	0.250066
H143	H	0.922386	0.146412	0.500066
H144	H	1.172386	0.396412	0.750066
H145	H	0.536226	-0.256240	-0.197124
H146	H	0.786226	-0.006240	0.052876
H147	H	1.036226	0.243760	0.302876
H148	H	1.286226	0.493760	0.552876
N149	N	0.443130	-0.039463	-0.226463
N150	N	0.693130	0.210537	0.023537
N151	N	0.943130	0.460537	0.273537
N152	N	1.193130	0.710537	0.523537
H153	H	0.470928	0.041631	-0.226376
H154	H	0.720928	0.291631	0.023624
H155	H	0.970928	0.541631	0.273624
H156	H	1.220928	0.791631	0.523624
H157	H	0.460627	-0.080014	-0.307053
H158	H	0.710627	0.169986	-0.057053
H159	H	0.960627	0.419986	0.192947
H160	H	1.210627	0.669986	0.442947
H161	H	0.563711	0.042661	0.000003
H162	H	0.813711	0.292661	0.250003
H163	H	1.063711	0.542661	0.500003
H164	H	1.313711	0.792661	0.750003
H165	H	0.536074	-0.256246	0.197201
H166	H	0.786074	-0.006246	0.447201
H167	H	1.036074	0.243754	0.697201
H168	H	1.286074	0.493754	0.947201
