data_functionalizedCrystal
_audit_creation_method	'MofGen! by Chris Wilmer'
_symmetry_space_group_name_H-M	'P1'
_symmetry_Int_Tables_number	1
_symmetry_cell_setting	triclinic
loop_
_symmetry_equiv_pos_as_xyz
  x,y,z
_cell_length_a	6.817900
_cell_length_b	9.582860
_cell_length_c	17.284648
_cell_angle_alpha	89.949012
_cell_angle_beta	103.040472
_cell_angle_gamma	111.206767
loop_
_atom_site_label
_atom_site_type_symbol
_atom_site_fract_x
_atom_site_fract_y
_atom_site_fract_z
V1	V	-4.045470	-0.178308	-0.245639
O2	O	-3.991516	0.038167	-0.241112
O3	O	-4.036400	-0.382023	-0.243816
O4	O	-3.987190	-0.162578	-0.352836
O5	O	-4.041066	-0.182796	-0.131337
V6	V	-4.525283	-0.153950	-0.231985
O7	O	-4.314869	-0.231741	-0.275590
O8	O	-4.706081	-0.100518	-0.202034
O9	O	-4.311147	0.049764	-0.233808
O10	O	-4.696634	-0.370426	-0.236512
O11	O	-4.647084	-0.149462	-0.346287
O12	O	-4.360356	-0.169680	-0.124788
C13	C	-3.891288	-0.432089	-0.239904
C14	C	-3.965092	-0.598545	-0.239128
C15	C	-3.828515	-0.152164	-0.378969
C16	C	-3.862408	-0.140651	-0.466602
C17	C	-3.943997	-0.270983	-0.518934
C18	C	-3.975851	-0.260162	-0.601274
C19	C	-3.926100	-0.119008	-0.631281
C20	C	-3.844510	0.011333	-0.578943
C21	C	-3.812672	0.000510	-0.496604
C22	C	-4.014291	-0.072086	-0.876340
C23	C	-4.046130	-0.061273	-0.958685
C24	C	-4.177473	-0.332770	-0.981011
C25	C	-4.145616	-0.343579	-0.898670
C26	C	-4.064040	-0.213239	-0.846339
N27	N	-3.958651	-0.107945	-0.715446
N28	N	-4.031504	-0.224304	-0.762176
C29	C	-4.119602	0.099823	-0.237718
C30	C	-4.025036	0.266278	-0.238499
C31	C	-4.182375	-0.180099	-0.098651
C32	C	-4.127719	-0.191605	-0.011017
H33	H	-4.042295	-0.366293	-0.643881
H34	H	-3.746237	0.106641	-0.453995
H35	H	-4.186140	-0.458522	-0.874245
H36	H	-4.243895	-0.438886	-1.023628
C37	C	-3.790906	0.164476	-0.611639
C38	C	-3.978251	0.171994	-0.662061
C39	C	-3.928943	0.313040	-0.692202
H40	H	-3.737834	0.240686	-0.568762
H41	H	-3.683460	0.178834	-0.640774
H42	H	-4.085660	0.157652	-0.632926
H43	H	-4.031349	0.095817	-0.704951
H44	H	-3.821497	0.327398	-0.721337
H45	H	-3.875869	0.389238	-0.649320
H46	H	-4.056042	0.318155	-0.726422
H47	H	-3.984498	-0.385925	-0.494509
C48	C	-3.992540	0.091874	-0.991389
C49	C	-4.179897	0.099368	-1.041814
C50	C	-4.130612	0.240404	-1.071967
H51	H	-3.939477	0.168093	-0.948517
H52	H	-3.885094	0.106230	-1.020524
H53	H	-4.287306	0.085027	-1.012680
H54	H	-4.232986	0.023180	-1.084699
H55	H	-4.023166	0.254760	-1.101102
H56	H	-4.077547	0.316612	-1.029090
H57	H	-4.257719	0.245502	-1.106190
C58	C	-3.925579	0.069603	-0.819658
C59	C	-3.888762	0.195532	-0.863562
C60	C	-3.807004	0.326089	-0.811368
H61	H	-4.027493	0.066771	-0.789617
H62	H	-3.793144	0.075588	-0.784517
H63	H	-4.021179	0.189550	-0.898689
H64	H	-3.786833	0.198414	-0.893600
H65	H	-3.674569	0.332073	-0.776227
H66	H	-3.908928	0.323241	-0.781331
H67	H	-3.781995	0.411548	-0.841149
