data_functionalizedCrystal
_audit_creation_method	'MofGen! by Chris Wilmer'
_symmetry_space_group_name_H-M	'P1'
_symmetry_Int_Tables_number	1
_symmetry_cell_setting	triclinic
loop_
_symmetry_equiv_pos_as_xyz
  x,y,z
_cell_length_a	13.897449
_cell_length_b	18.050590
_cell_length_c	13.897441
_cell_angle_alpha	90.033006
_cell_angle_beta	90.023394
_cell_angle_gamma	90.019379
loop_
_atom_site_label
_atom_site_type_symbol
_atom_site_fract_x
_atom_site_fract_y
_atom_site_fract_z
Zn1	Zn	1.474697	-0.295619	0.545434
Zn2	Zn	1.808030	0.037714	0.878767
Zn3	Zn	2.141364	0.371047	1.212100
Zn4	Zn	1.474588	-0.419824	0.384128
Zn5	Zn	1.807922	-0.086490	0.717461
Zn6	Zn	2.141255	0.246843	1.050795
Zn7	Zn	1.313386	-0.295654	0.384144
Zn8	Zn	1.646719	0.037680	0.717478
Zn9	Zn	1.980053	0.371013	1.050811
Zn10	Zn	1.313365	-0.419774	0.545373
Zn11	Zn	1.646699	-0.086440	0.878707
Zn12	Zn	1.980032	0.246893	1.212040
O13	O	1.394009	-0.357718	0.464770
O14	O	1.727342	-0.024384	0.798103
O15	O	2.060676	0.308949	1.131437
O16	O	1.609664	-0.312102	0.524054
O17	O	1.942997	0.021232	0.857388
O18	O	2.276331	0.354565	1.190721
O19	O	1.453168	-0.403387	0.249149
O20	O	1.786501	-0.070054	0.582482
O21	O	2.119835	0.263279	0.915815
O22	O	1.334838	-0.191725	0.405572
O23	O	1.668172	0.141609	0.738905
O24	O	2.001505	0.474942	1.072238
O25	O	1.609584	-0.403354	0.405544
O26	O	1.942918	-0.070021	0.738877
O27	O	2.276251	0.263313	1.072211
O28	O	1.453353	-0.191699	0.524070
O29	O	1.786686	0.141634	0.857404
O30	O	2.120019	0.474967	1.190737
O31	O	1.334733	-0.312160	0.249161
O32	O	1.668066	0.021173	0.582494
O33	O	2.001400	0.354506	0.915827
O34	O	1.178402	-0.312112	0.405513
O35	O	1.511735	0.021221	0.738847
O36	O	1.845068	0.354555	1.072180
O37	O	1.334803	-0.403269	0.680363
O38	O	1.668136	-0.069936	1.013696
O39	O	2.001470	0.263397	1.347030
O40	O	1.178386	-0.403303	0.523967
O41	O	1.511720	-0.069969	0.857301
O42	O	1.845053	0.263364	1.190634
O43	O	1.453333	-0.312053	0.680407
O44	O	1.786666	0.021280	1.013741
O45	O	2.119999	0.354613	1.347074
O46	O	1.453148	-0.523742	0.405486
O47	O	1.786481	-0.190408	0.738819
O48	O	2.119814	0.142925	1.072152
O49	O	1.334698	-0.523705	0.523952
O50	O	1.668031	-0.190372	0.857285
O51	O	2.001365	0.142962	1.190618
C52	C	1.143395	-0.357706	0.464736
C53	C	1.476728	-0.024373	0.798070
C54	C	1.810061	0.308960	1.131403
C55	C	1.036181	-0.357719	0.464745
C56	C	1.369514	-0.024386	0.798078
C57	C	1.702848	0.308947	1.131411
C58	C	0.949111	-0.357722	0.464761
C59	C	1.282444	-0.024388	0.798094
C60	C	1.615778	0.308945	1.131427
C61	C	0.839879	-0.357727	0.464790
C62	C	1.173212	-0.024394	0.798123
C63	C	1.506545	0.308940	1.131457
C64	C	1.393935	-0.550670	0.464731
C65	C	1.727268	-0.217336	0.798065
C66	C	2.060602	0.115997	1.131398
C67	C	1.393992	-0.633216	0.464747
C68	C	1.727325	-0.299882	0.798081
C69	C	2.060658	0.033451	1.131414
C70	C	1.458539	-0.832659	0.400415
C71	C	1.791872	-0.499326	0.733749
C72	C	2.125205	-0.165992	1.067082
C73	C	1.482104	-0.881986	0.488452
C74	C	1.815438	-0.548653	0.821785
C75	C	2.148771	-0.215319	1.155118
C76	C	1.394046	-0.784346	0.464786
C77	C	1.727380	-0.451013	0.798119
C78	C	2.060713	-0.117679	1.131452
C79	C	1.370579	-0.882101	0.376789
C80	C	1.703912	-0.548767	0.710122
C81	C	2.037245	-0.215434	1.043456
C82	C	1.394101	-0.930331	0.464815
C83	C	1.727434	-0.596998	0.798148
C84	C	2.060768	-0.263664	1.131482
C85	C	1.417657	-0.832585	0.552868
C86	C	1.750991	-0.499252	0.886202
C87	C	2.084324	-0.165919	1.219535
C88	C	1.306091	-0.832696	0.441146
C89	C	1.639424	-0.499363	0.774480
C90	C	1.972757	-0.166029	1.107813
C91	C	1.329623	-0.882000	0.529243
C92	C	1.662956	-0.548667	0.862577
C93	C	1.996290	-0.215334	1.195910
C94	C	1.394017	-0.700248	0.464767
C95	C	1.727351	-0.366914	0.798101
C96	C	2.060684	-0.033581	1.131434
C97	C	1.394130	-1.014427	0.464843
C98	C	1.727463	-0.681094	0.798177
C99	C	2.060797	-0.347761	1.131510
C100	C	1.645602	-0.357730	0.464804
C101	C	1.978935	-0.024396	0.798137
C102	C	2.312269	0.308937	1.131471
C103	C	1.752816	-0.357735	0.464819
C104	C	2.086149	-0.024401	0.798152
C105	C	2.419483	0.308932	1.131485
C106	C	1.394078	-0.357652	0.716363
C107	C	1.727411	-0.024319	1.049696
C108	C	2.060744	0.309015	1.383030
C109	C	1.394107	-0.357624	0.823577
C110	C	1.727440	-0.024291	1.156910
C111	C	2.060773	0.309043	1.490244
C112	C	1.394110	-0.164012	0.464830
C113	C	1.727443	0.169321	0.798163
C114	C	2.060777	0.502655	1.131496
C115	C	1.394153	-0.081466	0.464855
C116	C	1.727486	0.251867	0.798188
C117	C	2.060819	0.585200	1.131522
C118	C	1.393996	-0.357729	0.214156
C119	C	1.727330	-0.024396	0.547489
C120	C	2.060663	0.308937	0.880822
C121	C	1.394154	-0.357548	0.106942
C122	C	1.727488	-0.024215	0.440275
C123	C	2.060821	0.309118	0.773609
C124	C	1.394133	-0.357574	1.019872
C125	C	1.727466	-0.024240	1.353206
C126	C	2.060800	0.309093	1.686539
C127	C	1.394115	-0.357604	0.910640
C128	C	1.727449	-0.024270	1.243973
C129	C	2.060782	0.309063	1.577306
H130	H	1.513096	-0.810993	0.346035
H131	H	1.846429	-0.477660	0.679369
H132	H	2.179763	-0.144327	1.012702
O133	O	1.257411	-0.910524	0.601445
O134	O	1.590744	-0.577190	0.934778
O135	O	1.924077	-0.243857	1.268112
H136	H	1.184633	-0.889897	0.582378
H137	H	1.517966	-0.556563	0.915712
H138	H	1.851300	-0.223230	1.249045
H139	H	1.231706	-0.811027	0.421107
H140	H	1.565039	-0.477693	0.754440
H141	H	1.898373	-0.144360	1.087773
O142	O	1.580658	-0.910671	0.514973
O143	O	1.913992	-0.577337	0.848306
O144	O	2.247325	-0.244004	1.181640
H145	H	1.634045	-0.890914	0.461428
H146	H	1.967378	-0.557580	0.794761
H147	H	2.300712	-0.224247	1.128095
O148	O	1.344145	-0.910902	0.278225
O149	O	1.677478	-0.577569	0.611559
O150	O	2.010811	-0.244236	0.944892
H151	H	1.403738	-0.945597	0.250031
H152	H	1.737071	-0.612264	0.583365
H153	H	2.070405	-0.278931	0.916698
O154	O	1.444106	-0.803909	0.651489
O155	O	1.777439	-0.470576	0.984822
O156	O	2.110773	-0.137243	1.318156
H157	H	1.443914	-0.742422	0.650691
H158	H	1.777248	-0.409089	0.984025
H159	H	2.110581	-0.075755	1.317358
