data_functionalizedCrystal
_audit_creation_method	'MofGen! by Chris Wilmer'
_symmetry_space_group_name_H-M	'P1'
_symmetry_Int_Tables_number	1
_symmetry_cell_setting	triclinic
loop_
_symmetry_equiv_pos_as_xyz
  x,y,z
_cell_length_a	27.731993
_cell_length_b	27.732048
_cell_length_c	26.809956
_cell_angle_alpha	90.000636
_cell_angle_beta	90.002784
_cell_angle_gamma	97.368475
loop_
_atom_site_label
_atom_site_type_symbol
_atom_site_fract_x
_atom_site_fract_y
_atom_site_fract_z
O1	O	0.640948	-0.057385	-0.041351
O2	O	0.974282	0.275949	0.291983
O3	O	1.307615	0.609282	0.625316
O4	O	0.500151	-0.066158	-0.041382
O5	O	0.833484	0.267176	0.291951
O6	O	1.166818	0.600509	0.625285
O7	O	0.574923	0.008626	-0.041356
O8	O	0.908256	0.341960	0.291977
O9	O	1.241589	0.675293	0.625311
O10	O	0.566177	-0.132169	-0.041377
O11	O	0.899510	0.201165	0.291957
O12	O	1.232844	0.534498	0.625290
O13	O	0.574908	0.008615	0.041603
O14	O	0.908242	0.341948	0.374937
O15	O	1.241575	0.675282	0.708270
O16	O	0.500137	-0.066169	0.041577
O17	O	0.833470	0.267164	0.374911
O18	O	1.166804	0.600498	0.708244
O19	O	0.640934	-0.057396	0.041609
O20	O	0.974268	0.275937	0.374942
O21	O	1.307601	0.609271	0.708275
Zn22	Zn	0.570533	-0.061784	0.054764
Zn23	Zn	0.903867	0.271549	0.388098
Zn24	Zn	1.237200	0.604882	0.721431
Zn25	Zn	0.570552	-0.061769	-0.054538
Zn26	Zn	0.903885	0.271564	0.278795
Zn27	Zn	1.237219	0.604897	0.612129
O28	O	0.566163	-0.132180	0.041582
O29	O	0.899496	0.201153	0.374916
O30	O	1.232829	0.534487	0.708249
C31	C	0.482137	-0.065983	0.000094
C32	C	0.815470	0.267350	0.333427
C33	C	1.148803	0.600683	0.666761
C34	C	0.428480	-0.065441	0.000082
C35	C	0.761814	0.267892	0.333416
C36	C	1.095147	0.601226	0.666749
C37	C	0.045328	-0.061504	-0.045114
C38	C	0.378661	0.271829	0.288219
C39	C	0.711994	0.605162	0.621553
C40	C	0.246985	-0.063571	-0.045128
C41	C	0.580319	0.269762	0.288206
C42	C	0.913652	0.603095	0.621539
O43	O	0.273065	-0.063814	-0.083588
O44	O	0.606398	0.269520	0.249746
O45	O	0.939732	0.602853	0.583079
N46	N	0.272198	-0.063836	0.000092
N47	N	0.605531	0.269497	0.333426
N48	N	0.938864	0.602831	0.666759
C49	C	0.246993	-0.063581	0.045319
C50	C	0.580327	0.269752	0.378652
C51	C	0.913660	0.603086	0.711986
O52	O	0.273066	-0.063849	0.083781
O53	O	0.606399	0.269485	0.417114
O54	O	0.939733	0.602818	0.750448
C55	C	0.045337	-0.061510	0.045332
C56	C	0.378671	0.271823	0.378666
C57	C	0.712004	0.605156	0.711999
C58	C	0.020127	-0.061251	0.000109
C59	C	0.353460	0.272083	0.333443
C60	C	0.686793	0.605416	0.666776
C61	C	0.020117	-0.061244	-0.090333
C62	C	0.353451	0.272090	0.243000
C63	C	0.686784	0.605423	0.576333
C64	C	-0.030295	-0.060730	-0.090329
C65	C	0.303039	0.272604	0.243004
C66	C	0.636372	0.605937	0.576337
C67	C	-0.055496	-0.060476	-0.045106
C68	C	0.277838	0.272857	0.288227
C69	C	0.611171	0.606191	0.621561
C70	C	-0.030285	-0.060736	0.000113
C71	C	0.303048	0.272597	0.333447
C72	C	0.636382	0.605930	0.666780
C73	C	0.020134	-0.061252	0.090558
C74	C	0.353468	0.272081	0.423892
C75	C	0.686801	0.605415	0.757225
C76	C	-0.030283	-0.060733	0.090558
C77	C	0.303051	0.272600	0.423891
C78	C	0.636384	0.605934	0.757224
C79	C	-0.055493	-0.060473	0.045335
C80	C	0.277840	0.272860	0.378668
C81	C	0.611173	0.606194	0.712001
C82	C	-0.105898	-0.059969	0.045340
C83	C	0.227436	0.273365	0.378674
C84	C	0.560769	0.606698	0.712007
N85	N	-0.131110	-0.059704	0.000120
N86	N	0.202223	0.273629	0.333454
N87	N	0.535556	0.606963	0.666787
C88	C	-0.105909	-0.059958	-0.045103
C89	C	0.227424	0.273376	0.288230
C90	C	0.560757	0.606709	0.621564
C91	C	0.352866	-0.064669	0.045309
C92	C	0.686199	0.268664	0.378642
C93	C	1.019532	0.601998	0.711975
C94	C	0.403279	-0.065187	0.045306
C95	C	0.736613	0.268146	0.378639
C96	C	1.069946	0.601479	0.711972
C97	C	0.403268	-0.065177	-0.045141
C98	C	0.736601	0.268157	0.288192
C99	C	1.069934	0.601490	0.621525
C100	C	0.352853	-0.064662	-0.045138
C101	C	0.686186	0.268672	0.288196
C102	C	1.019519	0.602005	0.621529
C103	C	0.327653	-0.064404	0.000089
C104	C	0.660986	0.268929	0.333422
C105	C	0.994320	0.602263	0.666755
C106	C	-0.211777	-0.058878	-0.045091
C107	C	0.121556	0.274455	0.288242
C108	C	0.454889	0.607788	0.621575
C109	C	-0.262194	-0.058366	-0.045083
C110	C	0.071139	0.274967	0.288250
C111	C	0.404473	0.608300	0.621583
C112	C	-0.262178	-0.058374	0.045363
C113	C	0.071156	0.274959	0.378697
C114	C	0.404489	0.608292	0.712030
C115	C	-0.211766	-0.058889	0.045356
C116	C	0.121567	0.274444	0.378689
C117	C	0.454901	0.607778	0.712022
C118	C	-0.186567	-0.059139	0.000124
C119	C	0.146766	0.274194	0.333458
C120	C	0.480100	0.607527	0.666791
O121	O	-0.132008	-0.059720	0.083780
O122	O	0.201326	0.273613	0.417113
O123	O	0.534659	0.606946	0.750447
O124	O	-0.131989	-0.059679	-0.083559
O125	O	0.201344	0.273654	0.249774
O126	O	0.534678	0.606988	0.583107
C127	C	0.095740	-0.062018	-0.045118
C128	C	0.429073	0.271315	0.288215
C129	C	0.762406	0.604648	0.621549
C130	C	0.120950	-0.062279	0.000101
C131	C	0.454283	0.271055	0.333435
C132	C	0.787617	0.604388	0.666768
C133	C	0.095749	-0.062025	0.045325
C134	C	0.429082	0.271308	0.378658
C135	C	0.762416	0.604642	0.711991
C136	C	0.171364	-0.062797	0.000098
C137	C	0.504697	0.270536	0.333432
C138	C	0.838030	0.603869	0.666765
C139	C	0.196565	-0.063051	-0.045125
C140	C	0.529898	0.270283	0.288208
C141	C	0.863232	0.603616	0.621542
C142	C	0.171352	-0.062786	-0.090345
C143	C	0.504686	0.270547	0.242988
C144	C	0.838019	0.603881	0.576322
C145	C	0.120941	-0.062272	-0.090341
C146	C	0.454274	0.271061	0.242992
C147	C	0.787607	0.604395	0.576326
C148	C	0.120962	-0.062290	0.090545
C149	C	0.454295	0.271043	0.423878
C150	C	0.787628	0.604377	0.757211
C151	C	0.171373	-0.062805	0.090537
C152	C	0.504707	0.270529	0.423870
C153	C	0.838040	0.603862	0.757204
C154	C	0.196574	-0.063058	0.045314
C155	C	0.529908	0.270275	0.378647
C156	C	0.863241	0.603608	0.711981
C157	C	0.574732	0.026628	0.000125
C158	C	0.908065	0.359961	0.333458
C159	C	1.241399	0.693294	0.666792
C160	C	0.574179	0.080282	0.000129
C161	C	0.907512	0.413616	0.333462
C162	C	1.240846	0.746949	0.666796
C163	C	0.658949	-0.057570	0.000132
C164	C	0.992282	0.275763	0.333465
C165	C	1.325615	0.609096	0.666798
C166	C	0.712605	-0.058113	0.000140
C167	C	1.045938	0.275221	0.333473
C168	C	1.379272	0.608554	0.666807
C169	C	0.566353	-0.150181	0.000100
C170	C	0.899687	0.183152	0.333434
C171	C	1.233020	0.516485	0.666767
C172	C	0.566906	-0.203836	0.000093
C173	C	0.900239	0.129497	0.333426
C174	C	1.233573	0.462831	0.666760
N175	N	0.570524	-0.061794	0.129360
N176	N	0.903858	0.271539	0.462694
N177	N	1.237191	0.604872	0.796027
C178	C	0.614884	0.419105	0.000113
C179	C	0.948217	0.752439	0.333446
C180	C	1.281551	1.085772	0.666779
C181	C	0.612833	0.620765	0.000105
C182	C	0.946166	0.954098	0.333438
C183	C	1.279500	1.287431	0.666772
O184	O	0.650055	0.652028	0.000092
O185	O	0.983388	0.985361	0.333425
O186	O	1.316721	1.318694	0.666758
N187	N	0.568497	0.639880	0.000096
N188	N	0.901830	0.973213	0.333429
N189	N	1.235163	1.306546	0.666762
C190	C	0.524670	0.608576	0.000085
C191	C	0.858003	0.941910	0.333418
C192	C	1.191336	1.275243	0.666752
O193	O	0.486912	0.629462	0.000072
O194	O	0.820245	0.962796	0.333405
O195	O	1.153579	1.296129	0.666738
C196	C	0.526721	0.406918	0.000089
C197	C	0.860055	0.740252	0.333422
C198	C	1.193388	1.073585	0.666755
C199	C	0.571061	0.387806	0.000103
C200	C	0.904394	0.721140	0.333437
C201	C	1.237727	1.054473	0.666770
C202	C	0.659220	0.399993	0.000126
C203	C	0.992553	0.733326	0.333460
C204	C	1.325886	1.066660	0.666793
C205	C	0.659732	0.349581	0.000131
C206	C	0.993065	0.682914	0.333464
C207	C	1.326399	1.016248	0.666798
C208	C	0.615909	0.318282	0.000122
C209	C	0.949242	0.651615	0.333455
C210	C	1.282575	0.984948	0.666788
C211	C	0.571573	0.337394	0.000108
C212	C	0.904906	0.670728	0.333441
C213	C	1.238240	1.004061	0.666774
C214	C	0.482895	0.375616	0.000074
C215	C	0.816228	0.708949	0.333408
C216	C	1.149562	1.042283	0.666741
C217	C	0.483412	0.325199	0.000074
C218	C	0.816745	0.658532	0.333407
C219	C	1.150079	0.991865	0.666741
C220	C	0.527751	0.306087	0.000089
C221	C	0.861085	0.639420	0.333422
C222	C	1.194418	0.972753	0.666755
C223	C	0.528262	0.255683	0.000103
C224	C	0.861595	0.589017	0.333436
C225	C	1.194928	0.922350	0.666770
N226	N	0.572598	0.236568	0.000112
N227	N	0.905932	0.569902	0.333446
N228	N	1.239265	0.903235	0.666779
C229	C	0.616422	0.267867	0.000122
C230	C	0.949755	0.601201	0.333455
C231	C	1.283088	0.934534	0.666788
C232	C	0.523596	0.714450	0.000084
C233	C	0.856929	1.047784	0.333417
C234	C	1.190262	1.381117	0.666751
C235	C	0.523083	0.764865	0.000084
C236	C	0.856416	1.098198	0.333417
C237	C	1.189749	1.431531	0.666751
C238	C	0.611246	0.777049	0.000103
C239	C	0.944579	1.110383	0.333436
C240	C	1.277913	1.443716	0.666770
C241	C	0.611759	0.726634	0.000107
C242	C	0.945092	1.059967	0.333440
C243	C	1.278425	1.393301	0.666773
C244	C	0.567932	0.695335	0.000093
C245	C	0.901266	1.028669	0.333427
C246	C	1.234599	1.362002	0.666760
C247	C	0.617494	0.161998	0.000132
C248	C	0.950827	0.495332	0.333465
C249	C	1.284161	0.828665	0.666798
C250	C	0.618003	0.111582	0.000138
C251	C	0.951336	0.444915	0.333472
C252	C	1.284669	0.778248	0.666805
C253	C	0.529839	0.099401	0.000117
C254	C	0.863173	0.432735	0.333450
C255	C	1.196506	0.766068	0.666783
C256	C	0.529331	0.149814	0.000113
C257	C	0.862664	0.483147	0.333446
C258	C	1.195997	0.816480	0.666779
C259	C	0.573162	0.181112	0.000118
C260	C	0.906495	0.514445	0.333452
C261	C	1.239829	0.847778	0.666785
O262	O	0.491060	0.224392	0.000111
O263	O	0.824393	0.557725	0.333444
O264	O	1.157727	0.891059	0.666778
O265	O	0.654174	0.246972	0.000124
O266	O	0.987507	0.580306	0.333457
O267	O	1.320841	0.913639	0.666791
C268	C	0.614372	0.469517	0.000108
C269	C	0.947705	0.802851	0.333441
C270	C	1.281038	1.136184	0.666775
C271	C	0.570036	0.488630	0.000094
C272	C	0.903369	0.821963	0.333427
C273	C	1.236703	1.155297	0.666761
C274	C	0.526213	0.457331	0.000085
C275	C	0.859546	0.790664	0.333418
C276	C	1.192879	1.123997	0.666751
C277	C	0.569523	0.539044	0.000094
C278	C	0.902856	0.872378	0.333427
C279	C	1.236190	1.205711	0.666761
C280	C	0.613346	0.570343	0.000103
C281	C	0.946680	0.903677	0.333437
C282	C	1.280013	1.237010	0.666770
C283	C	0.657683	0.551228	0.000113
C284	C	0.991016	0.884562	0.333446
C285	C	1.324349	1.217895	0.666779
C286	C	0.658195	0.500817	0.000117
C287	C	0.991528	0.834150	0.333451
C288	C	1.324862	1.167483	0.666784
C289	C	0.481876	0.476446	0.000075
C290	C	0.815210	0.809779	0.333409
C291	C	1.148543	1.143112	0.666742
C292	C	0.481368	0.526858	0.000071
C293	C	0.814701	0.860191	0.333405
C294	C	1.148034	1.193525	0.666738
C295	C	0.525191	0.558157	0.000081
C296	C	0.858524	0.891491	0.333414
C297	C	1.191858	1.224824	0.666747
N298	N	0.570565	-0.061756	-0.129134
N299	N	0.903898	0.271578	0.204199
N300	N	1.237232	0.604911	0.537533
C301	C	0.603656	-0.028663	0.473998
C302	C	0.936990	0.304670	0.807331
C303	C	1.270323	0.638004	1.140665
C304	C	0.603668	-0.028656	0.682876
C305	C	0.937001	0.304678	1.016209
C306	C	1.270335	0.638011	1.349542
O307	O	0.631819	-0.000489	0.709889
O308	O	0.965152	0.332844	1.043223
O309	O	1.298485	0.666177	1.376556
N310	N	0.570555	-0.061759	0.708988
N311	N	0.903888	0.271575	1.042321
N312	N	1.237221	0.604908	1.375654
C313	C	0.537434	-0.094864	0.682877
C314	C	0.870767	0.238470	1.016210
C315	C	1.204101	0.571803	1.349543
O316	O	0.509266	-0.123016	0.709879
O317	O	0.842599	0.210317	1.043213
O318	O	1.175933	0.543650	1.376546
C319	C	0.537421	-0.094869	0.474000
C320	C	0.870754	0.238465	0.807333
C321	C	1.204087	0.571798	1.140667
C322	C	0.570539	-0.061767	0.447891
C323	C	0.903873	0.271567	0.781224
C324	C	1.237206	0.604900	1.114558
C325	C	0.636772	0.004437	0.447889
C326	C	0.970106	0.337770	0.781222
C327	C	1.303439	0.671103	1.114556
C328	C	0.636771	0.004433	0.395673
C329	C	0.970104	0.337766	0.729006
C330	C	1.303437	0.671099	1.062339
C331	C	0.603654	-0.028671	0.369565
C332	C	0.936987	0.304662	0.702899
C333	C	1.270320	0.637996	1.036232
C334	C	0.570538	-0.061771	0.395675
C335	C	0.903871	0.271563	0.729008
C336	C	1.237205	0.604896	1.062341
C337	C	0.504298	-0.127971	0.447890
C338	C	0.837631	0.205362	0.781223
C339	C	1.170965	0.538696	1.114557
C340	C	0.504297	-0.127968	0.395668
C341	C	0.837630	0.205365	0.729001
C342	C	1.170963	0.538698	1.062334
C343	C	0.537415	-0.094867	0.369559
C344	C	0.870749	0.238467	0.702892
C345	C	1.204082	0.571800	1.036225
C346	C	0.537419	-0.094878	0.317351
C347	C	0.870753	0.238455	0.650685
C348	C	1.204086	0.571789	0.984018
N349	N	0.570533	-0.061775	0.291239
N350	N	0.903866	0.271558	0.624573
N351	N	1.237199	0.604892	0.957906
C352	C	0.603650	-0.028671	0.317347
C353	C	0.936983	0.304662	0.650680
C354	C	1.270316	0.637995	0.984013
C355	C	0.537444	-0.094860	0.792540
C356	C	0.870777	0.238474	1.125873
C357	C	1.204111	0.571807	1.459207
C358	C	0.537448	-0.094859	0.844759
C359	C	0.870781	0.238474	1.178092
C360	C	1.204114	0.571808	1.511426
C361	C	0.603681	-0.028650	0.844754
C362	C	0.937015	0.304683	1.178088
C363	C	1.270348	0.638017	1.511421
C364	C	0.603679	-0.028653	0.792534
C365	C	0.937013	0.304680	1.125868
C366	C	1.270346	0.638013	1.459201
C367	C	0.570557	-0.061757	0.766428
C368	C	0.903891	0.271577	1.099762
C369	C	1.237224	0.604910	1.433095
C370	C	0.603644	-0.028683	0.207689
C371	C	0.936978	0.304651	0.541022
C372	C	1.270311	0.637984	0.874355
C373	C	0.603641	-0.028691	0.155468
C374	C	0.936975	0.304643	0.488801
C375	C	1.270308	0.637976	0.822134
C376	C	0.537406	-0.094898	0.155477
C377	C	0.870740	0.238436	0.488810
C378	C	1.204073	0.571769	0.822143
C379	C	0.537411	-0.094891	0.207693
C380	C	0.870744	0.238442	0.541026
C381	C	1.204078	0.571775	0.874360
C382	C	0.570532	-0.061780	0.233798
C383	C	0.903865	0.271554	0.567131
C384	C	1.237198	0.604887	0.900464
O385	O	0.509280	-0.123026	0.290305
O386	O	0.842613	0.210307	0.623639
O387	O	1.175946	0.543641	0.956972
O388	O	0.631806	-0.000516	0.290335
O389	O	0.965140	0.332817	0.623668
O390	O	1.298473	0.666151	0.957002
C391	C	0.603658	-0.028659	0.526214
C392	C	0.936991	0.304674	0.859548
C393	C	1.270325	0.638008	1.192881
C394	C	0.570542	-0.061759	0.552324
C395	C	0.903876	0.271575	0.885657
C396	C	1.237209	0.604908	1.218990
C397	C	0.537425	-0.094862	0.526216
C398	C	0.870758	0.238471	0.859550
C399	C	1.204092	0.571804	1.192883
C400	C	0.570546	-0.061758	0.604542
C401	C	0.903879	0.271575	0.937876
C402	C	1.237213	0.604908	1.271209
C403	C	0.603663	-0.028655	0.630650
C404	C	0.936997	0.304679	0.963983
C405	C	1.270330	0.638012	1.297316
C406	C	0.636777	0.004448	0.604538
C407	C	0.970110	0.337782	0.937871
C408	C	1.303443	0.671115	1.271204
C409	C	0.636775	0.004444	0.552322
C410	C	0.970108	0.337778	0.885655
C411	C	1.303442	0.671111	1.218988
C412	C	0.504312	-0.127965	0.552328
C413	C	0.837645	0.205368	0.885661
C414	C	1.170978	0.538701	1.218995
C415	C	0.504316	-0.127959	0.604545
C416	C	0.837650	0.205374	0.937878
C417	C	1.170983	0.538708	1.271211
C418	C	0.537433	-0.094855	0.630652
C419	C	0.870767	0.238478	0.963985
C420	C	1.204100	0.571811	1.297318
H421	H	0.423795	-0.065385	-0.081964
H422	H	0.757128	0.267948	0.251369
H423	H	1.090461	0.601282	0.584703
O424	O	-0.184569	-0.059174	0.094129
O425	O	0.148764	0.274159	0.427462
O426	O	0.482098	0.607492	0.760796
H427	H	-0.189685	-0.026117	0.115816
H428	H	0.143648	0.307216	0.449150
H429	H	0.476982	0.640549	0.782483
H430	H	0.191895	-0.063020	0.127366
H431	H	0.525228	0.270313	0.460699
H432	H	0.858562	0.603647	0.794033
H433	H	0.630647	-0.001697	0.866020
H434	H	0.963981	0.331637	1.199353
H435	H	1.297314	0.664970	1.532686
O436	O	0.468595	-0.163674	0.632694
O437	O	0.801928	0.169659	0.966027
O438	O	1.135261	0.502993	1.299361
H439	H	0.445251	-0.143497	0.656486
H440	H	0.778585	0.189836	0.989820
H441	H	1.111918	0.523169	1.323153
H442	H	0.510444	-0.121852	0.134212
H443	H	0.843777	0.211482	0.467546
H444	H	1.177111	0.544815	0.800879
O445	O	0.047322	-0.061532	0.139333
O446	O	0.380655	0.271801	0.472667
O447	O	0.713989	0.605135	0.806000
H448	H	0.065728	-0.094729	0.141495
H449	H	0.399061	0.238604	0.474828
H450	H	0.732395	0.571938	0.808161
O451	O	0.664770	0.195749	0.000146
O452	O	0.998103	0.529082	0.333479
O453	O	1.331436	0.862416	0.666813
H454	H	0.666663	0.219007	-0.033668
H455	H	0.999996	0.552341	0.299665
H456	H	1.333329	0.885674	0.632998
H457	H	0.100448	-0.062081	0.127372
H458	H	0.433782	0.271252	0.460705
H459	H	0.767115	0.604586	0.794038
H460	H	0.654110	0.096024	0.000151
H461	H	0.987444	0.429357	0.333485
H462	H	1.320777	0.762690	0.666818
H463	H	-0.191266	-0.059083	-0.081923
H464	H	0.142067	0.274250	0.251410
H465	H	0.475400	0.607584	0.584744
O466	O	0.707555	0.328969	0.000132
O467	O	1.040888	0.662303	0.333465
O468	O	1.374222	0.995636	0.666799
H469	H	0.737938	0.359210	0.000130
H470	H	1.071271	0.692543	0.333463
H471	H	1.404604	1.025876	0.666796
H472	H	0.694908	0.425472	0.000132
H473	H	1.028241	0.758806	0.333465
H474	H	1.361575	1.092139	0.666799
H475	H	0.447722	0.299717	0.000062
H476	H	0.781056	0.633050	0.333396
H477	H	1.114389	0.966384	0.666729
O478	O	0.639361	0.007021	0.127311
O479	O	0.972694	0.340354	0.460645
O480	O	1.306027	0.673687	0.793978
H481	H	0.619185	0.030367	0.103519
H482	H	0.952518	0.363700	0.436853
H483	H	1.285852	0.697033	0.770186
H484	H	0.477329	-0.154925	0.469141
H485	H	0.810663	0.178408	0.802474
H486	H	1.143996	0.511741	1.135808
H487	H	-0.050798	-0.060527	0.127387
H488	H	0.282535	0.272806	0.460721
H489	H	0.615869	0.606139	0.794054
O490	O	0.198543	-0.063052	-0.139121
O491	O	0.531876	0.270282	0.194212
O492	O	0.865209	0.603615	0.527546
H493	H	0.216960	-0.096241	-0.141289
H494	H	0.550293	0.237092	0.192045
H495	H	0.883627	0.570426	0.525378
O496	O	0.468563	-0.163668	0.367513
O497	O	0.801896	0.169665	0.700847
O498	O	1.135230	0.502999	1.034180
H499	H	0.474117	-0.158107	0.326815
H500	H	0.807450	0.175226	0.660148
H501	H	1.140784	0.508560	0.993482
H502	H	-0.050816	-0.060516	-0.127155
H503	H	0.282517	0.272818	0.206179
H504	H	0.615850	0.606151	0.539512
O505	O	0.325661	-0.064446	0.094080
O506	O	0.658994	0.268887	0.427413
O507	O	0.992327	0.602221	0.760746
H508	H	0.307230	-0.031267	0.096280
H509	H	0.640563	0.302066	0.429613
H510	H	0.973896	0.635399	0.762946
O511	O	0.325669	-0.064367	-0.093916
O512	O	0.659003	0.268966	0.239417
O513	O	0.992336	0.602299	0.572751
H514	H	0.330787	-0.097419	-0.115611
H515	H	0.664121	0.235914	0.217722
H516	H	0.997454	0.569247	0.551055
H517	H	0.510447	-0.121851	0.228952
H518	H	0.843781	0.211483	0.562285
H519	H	1.177114	0.544816	0.895618
H520	H	0.663740	0.031396	0.469141
H521	H	0.997074	0.364729	0.802474
H522	H	1.330407	0.698062	1.135807
O523	O	-0.289377	-0.058080	-0.093866
O524	O	0.043956	0.275253	0.239467
O525	O	0.377290	0.608587	0.572800
H526	H	-0.316901	-0.090806	-0.096043
H527	H	0.016432	0.242528	0.237290
H528	H	0.349766	0.575861	0.570624
H529	H	0.510484	-0.121819	0.866013
H530	H	0.843818	0.211515	1.199347
H531	H	1.177151	0.544848	1.532680
H532	H	0.423800	-0.065407	0.082131
H533	H	0.757134	0.267926	0.415464
H534	H	1.090467	0.601260	0.748797
H535	H	0.477343	-0.154922	0.531076
H536	H	0.810676	0.178412	0.864409
H537	H	1.144010	0.511745	1.197742
H538	H	0.663744	0.031401	0.625803
H539	H	0.997077	0.364734	0.959136
H540	H	1.330410	0.698068	1.292469
H541	H	-0.282706	-0.058170	0.082183
H542	H	0.050628	0.275163	0.415516
H543	H	0.383961	0.608497	0.748850
O544	O	0.672491	0.040152	0.524163
O545	O	1.005825	0.373485	0.857497
O546	O	1.339158	0.706818	1.190830
H547	H	0.695513	0.063172	0.551097
H548	H	1.028847	0.396505	0.884430
H549	H	1.362180	0.729838	1.217764
H550	H	0.647864	0.711077	0.000118
H551	H	0.981197	1.044410	0.333451
H552	H	1.314530	1.377744	0.666785
H553	H	0.630614	-0.001719	0.228937
H554	H	0.963947	0.331614	0.562270
H555	H	1.297281	0.664947	0.895604
O556	O	0.435070	0.396219	0.000059
O557	O	0.768403	0.729553	0.333392
O558	O	1.101737	1.062886	0.666726
H559	H	0.432733	0.418898	-0.033754
H560	H	0.766066	0.752231	0.299579
H561	H	1.099399	1.085564	0.632913
H562	H	0.663737	0.031388	0.374418
H563	H	0.997071	0.364722	0.707751
H564	H	1.330404	0.698055	1.041084
H565	H	0.446189	0.450966	0.000067
H566	H	0.779522	0.784299	0.333400
H567	H	1.112856	1.117633	0.666733
O568	O	0.093754	-0.061973	-0.139117
O569	O	0.427087	0.271360	0.194216
O570	O	0.760420	0.604694	0.527550
H571	H	0.119756	-0.062226	-0.170560
H572	H	0.453089	0.271107	0.162773
H573	H	0.786422	0.604440	0.496107
H574	H	0.646929	0.802542	0.000111
H575	H	0.980262	1.135875	0.333444
H576	H	1.313596	1.469209	0.666778
H577	H	0.486977	0.780421	0.000081
H578	H	0.820311	1.113754	0.333414
H579	H	1.153644	1.447088	0.666747
H580	H	0.487905	0.688970	0.000073
H581	H	0.821238	1.022304	0.333406
H582	H	1.154572	1.355637	0.666740
H583	H	0.494160	0.073909	0.000111
H584	H	0.827493	0.407242	0.333444
H585	H	1.160826	0.740575	0.666777
O586	O	0.047294	-0.061521	-0.139114
O587	O	0.380628	0.271812	0.194220
O588	O	0.713961	0.605146	0.527553
H589	H	0.021286	-0.061256	-0.170552
H590	H	0.354619	0.272077	0.162782
H591	H	0.687953	0.605410	0.496115
O592	O	0.481510	0.170433	0.000099
O593	O	0.814843	0.503766	0.333432
O594	O	1.148176	0.837099	0.666765
H595	H	0.451123	0.140196	0.000091
H596	H	0.784456	0.473530	0.333424
H597	H	1.117790	0.806863	0.666757
H598	H	0.694301	0.485261	0.000129
H599	H	1.027634	0.818594	0.333462
H600	H	1.360967	1.151927	0.666795
H601	H	0.693365	0.576721	0.000122
H602	H	1.026699	0.910055	0.333456
H603	H	1.360032	1.243388	0.666789
O604	O	0.433542	0.547470	0.000057
O605	O	0.766875	0.880803	0.333390
O606	O	1.100208	1.214137	0.666724
H607	H	0.403157	0.517231	0.000047
H608	H	0.736491	0.850565	0.333380
H609	H	1.069824	1.183898	0.666713
O610	O	0.639395	0.007053	0.764374
O611	O	0.972728	0.340387	1.097708
O612	O	1.306061	0.673720	1.431041
H613	H	0.662420	0.030072	0.791306
H614	H	0.995753	0.363406	1.124640
H615	H	1.329086	0.696739	1.457973
O616	O	0.501722	-0.130570	0.764385
O617	O	0.835055	0.202763	1.097718
O618	O	1.168388	0.536097	1.431051
H619	H	0.478704	-0.153589	0.791320
H620	H	0.812037	0.179744	1.124653
H621	H	1.145370	0.513078	1.457986
