data_functionalizedCrystal
_audit_creation_method	'MofGen! by Chris Wilmer'
_symmetry_space_group_name_H-M	'P1'
_symmetry_Int_Tables_number	1
_symmetry_cell_setting	triclinic
loop_
_symmetry_equiv_pos_as_xyz
  x,y,z
_cell_length_a	8.559649
_cell_length_b	10.723024
_cell_length_c	7.088929
_cell_angle_alpha	83.718137
_cell_angle_beta	95.324505
_cell_angle_gamma	77.123267
loop_
_atom_site_label
_atom_site_type_symbol
_atom_site_fract_x
_atom_site_fract_y
_atom_site_fract_z
O1	O	2.103420	-0.027904	-0.158980
O2	O	1.638921	0.036471	-0.158984
O3	O	1.881886	-0.178392	-0.158975
O4	O	1.860456	0.186959	-0.158989
O5	O	1.914355	-0.207164	0.159001
O6	O	1.671391	0.007699	0.158992
O7	O	2.135889	-0.056676	0.158996
Cu8	Cu	1.906605	-0.027115	0.188028
Cu9	Cu	1.868206	0.006911	-0.188016
O10	O	1.892925	0.158187	0.158987
C11	C	1.595680	0.026964	0.000003
C12	C	1.418458	0.041486	0.000002
C13	C	1.896561	-0.239117	0.000011
C14	C	1.891894	-0.377192	0.000004
C15	C	2.027844	-0.466113	0.000003
C16	C	2.023024	-0.608822	-0.000004
C17	C	2.179131	-0.047168	0.000004
C18	C	2.356350	-0.061689	-0.000007
C19	C	1.878249	0.218913	-0.000003
C20	C	1.882915	0.356989	-0.000009
N21	N	1.933624	-0.051050	0.452517
N22	N	1.841200	0.030834	-0.452505
H23	H	1.438767	-0.161138	-0.000004
H24	H	2.147804	-0.436590	0.000015
H25	H	1.745413	0.115690	0.465845
H26	H	1.336049	0.140930	-0.000021
C27	C	2.178314	-0.710473	-0.000307
C28	C	2.250371	-0.681555	-0.163874
C29	C	2.393441	-0.775161	-0.164205
H30	H	2.154665	-0.792912	-0.000408
H31	H	2.250151	-0.711129	0.110522
H32	H	2.178549	-0.680913	-0.274673
H33	H	2.274058	-0.599133	-0.163806
H34	H	2.465278	-0.775817	-0.053377
H35	H	2.369777	-0.857594	-0.164302
H36	H	2.442357	-0.755547	-0.275173
C37	C	1.732014	-0.416698	-0.000302
C38	C	1.704451	-0.474747	-0.163875
C39	C	1.557192	-0.511167	-0.164210
H40	H	1.647196	-0.342512	-0.000397
H41	H	1.735651	-0.476236	0.110523
H42	H	1.700801	-0.415213	-0.274670
H43	H	1.789231	-0.548947	-0.163814
H44	H	1.560829	-0.570705	-0.053386
H45	H	1.472386	-0.436975	-0.164300
H46	H	1.538478	-0.550568	-0.275182
C47	C	2.061254	-0.164373	0.561143
C48	C	2.028901	-0.279965	0.512566
C49	C	2.146446	-0.384382	0.612576
H50	H	2.059525	-0.162917	0.694679
H51	H	2.164672	-0.158257	0.528368
H52	H	1.925510	-0.286079	0.545353
H53	H	2.030643	-0.281464	0.379047
H54	H	2.249864	-0.378267	0.579801
H55	H	2.144708	-0.382914	0.746106
H56	H	2.124519	-0.462823	0.579617
H57	H	1.766526	-0.566654	0.000005
