data_functionalizedCrystal
_audit_creation_method	'MofGen! by Chris Wilmer'
_symmetry_space_group_name_H-M	'P1'
_symmetry_Int_Tables_number	1
_symmetry_cell_setting	triclinic
loop_
_symmetry_equiv_pos_as_xyz
  x,y,z
_cell_length_a	16.974885
_cell_length_b	16.992695
_cell_length_c	9.130313
_cell_angle_alpha	89.998255
_cell_angle_beta	93.651792
_cell_angle_gamma	87.023153
loop_
_atom_site_label
_atom_site_type_symbol
_atom_site_fract_x
_atom_site_fract_y
_atom_site_fract_z
O1	O	1.055447	0.099901	0.003189
O2	O	0.826047	0.112635	-0.023980
O3	O	0.939827	-0.007874	-0.010493
O4	O	0.941667	0.220409	-0.010298
O5	O	0.939826	-0.007871	0.233106
O6	O	0.826046	0.112638	0.219618
O7	O	1.055446	0.099904	0.246788
Cu8	Cu	0.940746	0.106271	0.255446
Cu9	Cu	0.940747	0.106267	-0.032638
O10	O	0.941665	0.220413	0.233300
C11	C	0.796558	0.112153	0.094326
C12	C	0.708690	0.110703	0.083920
C13	C	0.937461	-0.037082	0.111026
C14	C	0.930401	-0.124119	0.110189
C15	C	0.214091	0.102515	0.010988
C16	C	0.296652	0.103878	0.020786
C17	C	0.337923	0.104566	0.158472
C18	C	0.296630	0.103885	0.286368
C19	C	0.214071	0.102517	0.276569
C20	C	0.584838	0.108653	0.202017
C21	C	0.667402	0.110024	0.211807
C22	C	0.667419	0.110015	-0.053777
C23	C	0.584858	0.108652	-0.063564
C24	C	0.543572	0.107966	0.064333
N25	N	0.422313	0.105961	0.168490
N26	N	0.459183	0.106565	0.054313
C27	C	0.998516	-0.174434	0.118258
C28	C	0.991878	-0.256213	0.117458
C29	C	0.917125	-0.287676	0.108600
C30	C	0.849005	-0.237353	0.100526
C31	C	0.855643	-0.155576	0.101316
C32	C	0.889610	-0.531243	0.105321
C33	C	0.882977	-0.613027	0.104536
C34	C	1.025851	-0.631881	0.121466
C35	C	1.032483	-0.550101	0.122264
C36	C	0.964363	-0.499786	0.114182
N37	N	0.910338	-0.371267	0.107786
N38	N	0.971150	-0.416197	0.114985
C39	C	1.084935	0.100386	0.128478
C40	C	1.172803	0.101836	0.138875
C41	C	0.944032	0.249621	0.111778
C42	C	0.951092	0.336657	0.112605
N43	N	0.940750	0.106273	0.458069
N44	N	0.940748	0.106259	-0.235261
C45	C	0.991147	0.052930	0.540695
C46	C	0.991144	0.052921	0.694031
C47	C	0.890346	0.159605	0.682102
C48	C	0.890345	0.159610	0.528768
C49	C	1.049345	-0.008661	0.547583
C50	C	1.049342	-0.008670	0.700920
H51	H	0.180493	0.101960	-0.101131
C52	C	0.790705	0.265051	0.654907
C53	C	0.834942	0.218230	0.759818
H54	H	0.756496	0.301240	0.702886
H55	H	0.825394	0.293243	0.599222
H56	H	0.760212	0.232420	0.591478
H57	H	0.865439	0.250860	0.823241
H58	H	0.800248	0.190035	0.815528
H59	H	0.701042	0.110572	-0.157902
H60	H	0.822100	-0.638640	0.097346
H61	H	0.551260	0.108090	-0.175682
C62	C	0.747721	-0.520833	0.088542
C63	C	0.814733	-0.475944	0.096466
H64	H	0.701494	-0.486689	0.083088
H65	H	0.748101	-0.553115	0.003640
H66	H	0.748116	-0.553128	0.173539
H67	H	0.814341	-0.443653	0.011462
H68	H	0.814352	-0.443648	0.181376
C69	C	1.012957	-0.139078	0.606367
C70	C	1.026697	-0.089837	0.488709
H71	H	0.998970	-0.189189	0.570016
H72	H	1.059504	-0.145072	0.669666
H73	H	0.971067	-0.116370	0.659198
H74	H	1.068591	-0.112542	0.435883
H75	H	0.980145	-0.083845	0.425384
C76	C	1.179992	0.032785	0.613052
C77	C	1.128202	0.016358	0.492703
H78	H	1.228675	0.048227	0.579167
H79	H	1.157280	0.074255	0.668909
H80	H	1.189153	-0.012993	0.672688
H81	H	1.119036	0.062138	0.433073
H82	H	1.150918	-0.025115	0.436822
H83	H	0.701003	0.110590	0.323933
H84	H	1.093355	-0.524491	0.129477
H85	H	1.027044	-0.065436	0.745832
C86	C	0.775389	-0.354339	0.091816
C87	C	0.766833	-0.271935	0.090794
H88	H	0.724657	-0.375685	0.085820
H89	H	0.803646	-0.371610	0.010219
H90	H	0.803654	-0.371608	0.180117
H91	H	0.738573	-0.254666	0.002487
H92	H	0.738564	-0.254657	0.172398
H93	H	0.330265	0.104426	-0.083354
H94	H	0.551233	0.108083	0.306160
H95	H	1.081310	-0.672856	0.128043
H96	H	0.800177	-0.114609	0.094745
C97	C	0.423177	0.105995	0.419315
C98	C	0.341993	0.104645	0.437717
H99	H	0.451179	0.106471	0.512755
H100	H	0.439854	0.060520	0.366755
H101	H	0.433556	0.151919	0.365973
H102	H	0.331613	0.058718	0.491049
H103	H	0.325310	0.150124	0.490298
H104	H	0.180455	0.101972	0.380708
H105	H	1.059388	-0.148825	0.125481
H106	H	1.047345	-0.297178	0.124032
H107	H	0.849301	0.203039	0.461494
H108	H	1.110801	0.004173	0.749814
