data_functionalizedCrystal
_audit_creation_method	'MofGen! by Chris Wilmer'
_symmetry_space_group_name_H-M	'P1'
_symmetry_Int_Tables_number	1
_symmetry_cell_setting	triclinic
loop_
_symmetry_equiv_pos_as_xyz
  x,y,z
_cell_length_a	27.435584
_cell_length_b	27.434948
_cell_length_c	27.431174
_cell_angle_alpha	60.005483
_cell_angle_beta	60.011353
_cell_angle_gamma	59.993028
loop_
_atom_site_label
_atom_site_type_symbol
_atom_site_fract_x
_atom_site_fract_y
_atom_site_fract_z
O1	O	0.067437	-0.712144	0.595551
O2	O	0.025356	-0.554453	0.479848
O3	O	0.125206	-0.654236	0.479781
O4	O	-0.032412	-0.612361	0.595618
O5	O	0.158328	-0.621117	0.512835
O6	O	0.058479	-0.521333	0.512902
O7	O	0.100560	-0.679025	0.628605
Zn8	Zn	0.084778	-0.594921	0.576001
Zn9	Zn	0.041138	-0.638557	0.532452
O10	O	0.000710	-0.579241	0.628672
N11	N	0.114563	-0.565144	0.605726
N12	N	0.011358	-0.668338	0.502727
C13	C	0.156385	-0.523520	0.904506
C14	C	0.413419	-0.523497	0.647322
C15	C	0.156253	-0.523488	0.647384
C16	C	0.156238	-0.266354	0.647407
C17	C	0.197637	-0.390463	0.688753
C18	C	0.197646	-0.482126	0.688741
C19	C	0.220575	-0.459215	0.711654
C20	C	0.320555	-0.441991	0.659023
C21	C	0.383051	-0.462825	0.638179
C22	C	0.383069	-0.563942	0.676737
C23	C	0.320575	-0.543107	0.697583
C24	C	0.212704	-0.359206	0.627313
C25	C	0.191849	-0.296705	0.606496
C26	C	0.140866	-0.296722	0.708562
C27	C	0.161721	-0.359223	0.729379
C28	C	0.136200	-0.467030	0.703858
C29	C	0.115361	-0.487857	0.683021
C30	C	0.217408	-0.538877	0.631968
C31	C	0.238249	-0.518050	0.652796
C32	C	0.136259	-0.467047	0.811668
C33	C	0.115461	-0.487892	0.874167
C34	C	0.217537	-0.538923	0.874131
C35	C	0.238333	-0.518080	0.811631
C36	C	0.197693	-0.482140	0.780401
C37	C	0.289320	-0.482131	0.688723
C38	C	0.132699	-0.546027	0.973247
C39	C	0.482158	-0.545613	0.624075
C40	C	0.132521	-0.546006	0.624886
C41	C	0.132917	-0.197607	0.625310
C42	C	-0.098217	-0.686189	0.484419
C43	C	-0.006438	-0.686322	0.392891
C44	C	-0.006621	-0.777944	0.484592
C45	C	-0.006606	-0.686315	0.484649
C46	C	-0.029470	-0.709193	0.461638
N47	N	0.538410	-0.565162	0.605628
O48	O	0.742647	-0.575135	0.458625
O49	O	0.742821	-0.691181	0.616169
O50	O	0.742757	-0.690917	0.516248
O51	O	0.742711	-0.575399	0.558546
O52	O	0.643472	-0.657878	0.549405
O53	O	0.643536	-0.658142	0.649326
O54	O	0.643362	-0.542096	0.491782
Zn55	Zn	0.627685	-0.594873	0.575818
Zn56	Zn	0.758498	-0.638404	0.532133
O57	O	0.643426	-0.542360	0.591702
N58	N	0.847774	-0.668115	0.502317
N59	N	0.114542	-0.141354	0.605766
O60	O	-0.032397	0.062987	0.595660
O61	O	0.125155	0.062987	0.479633
O62	O	0.025219	0.062974	0.479910
O63	O	0.067539	0.063001	0.595383
O64	O	0.058343	-0.036320	0.513009
O65	O	0.158279	-0.036306	0.512732
O66	O	0.000728	-0.036306	0.628759
Zn67	Zn	0.084763	-0.052071	0.576000
Zn68	Zn	0.041120	0.078752	0.532392
O69	O	0.100664	-0.036292	0.628482
N70	N	0.011333	0.168036	0.502628
N71	N	0.114782	-0.565197	1.029501
O72	O	0.104681	-0.712124	1.233827
O73	O	-0.011334	-0.554523	1.233839
O74	O	-0.011066	-0.654443	1.233797
O75	O	0.104414	-0.612204	1.233869
O76	O	0.022028	-0.621336	1.134509
O77	O	0.021760	-0.521417	1.134551
O78	O	0.137775	-0.679018	1.134539
Zn79	Zn	0.085022	-0.594961	1.118780
Zn80	Zn	0.041420	-0.638580	1.249597
O81	O	0.137508	-0.579098	1.134580
N82	N	0.011658	-0.668350	1.338876
C83	C	0.037974	-0.518023	0.480435
C84	C	0.161625	-0.641592	0.480351
C85	C	0.087941	-0.715455	0.628017
C86	C	-0.035710	-0.591885	0.628101
C87	C	0.693199	-0.690642	0.652596
C88	C	0.693122	-0.690315	0.528855
C89	C	0.692981	-0.542634	0.455356
C90	C	0.693062	-0.542961	0.579095
C91	C	0.161524	0.013463	0.480164
C92	C	0.037807	0.013324	0.480547
C93	C	-0.035683	0.013341	0.628188
C94	C	0.088076	0.013357	0.627845
C95	C	-0.010764	-0.518114	1.184196
C96	C	-0.010426	-0.641846	1.184125
C97	C	0.137205	-0.715426	1.184182
C98	C	0.136875	-0.591687	1.184231
H99	H	0.103160	-0.437777	0.786243
H100	H	0.028745	0.013321	0.444270
C101	C	0.201876	-0.620099	1.235293
C102	C	0.185854	-0.579493	1.184250
H103	H	0.232112	-0.612568	1.235306
H104	H	0.216460	-0.659623	1.235280
H105	H	0.167923	-0.615638	1.269912
H106	H	0.219807	-0.583958	1.149632
H107	H	0.171272	-0.539960	1.184258
C108	C	0.016652	-0.435338	0.867915
C109	C	0.047926	-0.471288	0.908529
H110	H	-0.025040	-0.425086	0.889131
H111	H	0.026883	-0.456539	0.843539
H112	H	0.026897	-0.400004	0.843538
H113	H	0.037685	-0.506624	0.932903
H114	H	0.037691	-0.450087	0.932916
C115	C	0.744217	-0.789330	0.523168
C116	C	0.693144	-0.739307	0.516639
H117	H	0.744231	-0.819573	0.515622
H118	H	0.744247	-0.803915	0.562687
H119	H	0.778813	-0.778428	0.495613
H120	H	0.658548	-0.750209	0.544197
H121	H	0.693109	-0.724720	0.477114
H122	H	0.693053	-0.506675	0.588146
C123	C	0.320526	-0.587258	0.867809
C124	C	0.262211	-0.578418	0.908455
H125	H	0.348106	-0.611644	0.889000
H126	H	0.326506	-0.549797	0.843438
H127	H	0.326514	-0.606339	0.843430
H128	H	0.256221	-0.559333	0.932831
H129	H	0.256228	-0.615885	0.932836
C130	C	0.641851	-0.479638	0.383583
C131	C	0.692906	-0.493445	0.394280
H132	H	0.641807	-0.449273	0.345876
H133	H	0.607247	-0.465972	0.413973
H134	H	0.641880	-0.514304	0.383637
H135	H	0.692875	-0.458780	0.394231
H136	H	0.727519	-0.507109	0.363881
H137	H	0.206679	0.013739	0.443646
C138	C	0.049448	0.013368	0.728032
C139	C	0.100301	0.013365	0.676821
H140	H	0.056995	0.013377	0.758266
H141	H	0.039984	-0.021259	0.741824
H142	H	0.016880	0.047993	0.718738
H143	H	0.132868	-0.021263	0.686114
H144	H	0.109772	0.047995	0.663027
H145	H	0.693242	-0.727072	0.697844
C146	C	0.249105	-0.612966	0.415215
C147	C	0.222736	-0.653637	0.431239
H148	H	0.286830	-0.620401	0.384892
H149	H	0.254316	-0.617461	0.449137
H150	H	0.224053	-0.573454	0.400739
H151	H	0.247786	-0.693149	0.445719
H152	H	0.217528	-0.649147	0.397310
C153	C	-0.133751	0.013355	0.656109
C154	C	-0.096769	0.013357	0.677360
H155	H	-0.171465	0.013372	0.686465
H156	H	-0.115899	-0.021277	0.645280
H157	H	-0.138978	0.047975	0.622175
H158	H	-0.091538	-0.021265	0.711292
H159	H	-0.114625	0.047992	0.688198
H160	H	0.028987	-0.472723	0.444098
C161	C	0.158318	-0.813460	0.655657
C162	C	0.100067	-0.776606	0.677075
H163	H	0.165801	-0.851213	0.685943
H164	H	0.185878	-0.795540	0.644786
H165	H	0.162776	-0.818628	0.621722
H166	H	0.095611	-0.771434	0.711007
H167	H	0.072500	-0.794529	0.687954
C168	C	-0.038685	-0.420053	1.184227
C169	C	-0.059937	-0.457012	1.184201
H170	H	-0.069045	-0.382333	1.184234
H171	H	-0.004766	-0.414831	1.149612
H172	H	-0.027840	-0.437926	1.218861
H173	H	-0.070778	-0.439141	1.149565
H174	H	-0.093868	-0.462233	1.218819
H175	H	-0.080982	-0.582959	0.664476
H176	H	-0.046689	-0.650868	1.184063
C177	C	0.202360	-0.802857	1.235228
C178	C	0.186380	-0.776528	1.184177
H179	H	0.232721	-0.840577	1.235222
H180	H	0.168437	-0.808081	1.269838
H181	H	0.216770	-0.777773	1.235240
H182	H	0.171965	-0.801611	1.184168
H183	H	0.220309	-0.771307	1.149559
H184	H	0.103135	-0.437780	0.733124
C185	C	0.016579	-0.435351	0.735596
C186	C	0.047819	-0.471274	0.699640
H187	H	-0.025118	-0.425118	0.745860
H188	H	0.026804	-0.400010	0.714397
H189	H	0.026858	-0.456567	0.770922
H190	H	0.037544	-0.450056	0.664312
H191	H	0.037590	-0.506620	0.720840
C192	C	0.320374	-0.587216	0.583599
C193	C	0.262043	-0.578366	0.592460
H194	H	0.347930	-0.611592	0.559204
H195	H	0.326395	-0.606304	0.621050
H196	H	0.326360	-0.549751	0.564522
H197	H	0.256056	-0.615831	0.611541
H198	H	0.256020	-0.559279	0.555002
C199	C	0.320941	-0.482574	0.741329
C200	C	0.305867	-0.534672	0.777262
H201	H	0.362632	-0.492819	0.720110
H202	H	0.310707	-0.461380	0.765714
H203	H	0.299712	-0.458194	0.713786
H204	H	0.327093	-0.559050	0.804808
H205	H	0.316107	-0.555875	0.752876
H206	H	0.288283	-0.530335	0.640482
H207	H	0.408519	-0.613593	0.683941
C208	C	0.301326	-0.616342	0.692308
C209	C	0.286238	-0.587231	0.730227
H210	H	0.280125	-0.643579	0.712462
H211	H	0.343014	-0.637474	0.681165
H212	H	0.291061	-0.587713	0.657585
H213	H	0.296508	-0.615859	0.764949
H214	H	0.244541	-0.566097	0.741379
C215	C	0.376755	-0.360781	0.602151
C216	C	0.417387	-0.418702	0.605528
H217	H	0.397955	-0.333542	0.581989
H218	H	0.352396	-0.359186	0.641301
H219	H	0.352364	-0.350330	0.580861
H220	H	0.441775	-0.429155	0.626821
H221	H	0.441756	-0.420299	0.566370
H222	H	0.241946	-0.384640	0.594232
C223	C	0.250287	-0.366429	0.704643
C224	C	0.286200	-0.374966	0.649286
H225	H	0.229075	-0.325050	0.698630
H226	H	0.274683	-0.381088	0.727528
H227	H	0.222740	-0.387354	0.725311
H228	H	0.313750	-0.354044	0.628620
H229	H	0.261802	-0.360300	0.626392
H230	H	0.204115	-0.271255	0.556464
H231	H	0.111630	-0.271286	0.741644
H232	H	0.149444	-0.384673	0.779411
