data_functionalizedCrystal
_audit_creation_method	'MofGen! by Chris Wilmer'
_symmetry_space_group_name_H-M	'P1'
_symmetry_Int_Tables_number	1
_symmetry_cell_setting	triclinic
loop_
_symmetry_equiv_pos_as_xyz
  x,y,z
_cell_length_a	12.759394
_cell_length_b	21.395364
_cell_length_c	12.759387
_cell_angle_alpha	90.020672
_cell_angle_beta	89.968595
_cell_angle_gamma	89.987662
loop_
_atom_site_label
_atom_site_type_symbol
_atom_site_fract_x
_atom_site_fract_y
_atom_site_fract_z
Zn1	Zn	-0.418284	-0.957898	-0.594095
Zn2	Zn	-0.594000	-0.957838	-0.418413
Zn3	Zn	-0.418328	-0.853122	-0.418422
Zn4	Zn	-0.593914	-0.853111	-0.594042
O5	O	-0.506131	-0.905492	-0.506243
O6	O	-0.441611	-1.045568	-0.570810
O7	O	-0.570751	-0.943927	-0.271393
O8	O	-0.271301	-0.867050	-0.441751
O9	O	-0.570708	-1.045524	-0.441737
O10	O	-0.271268	-0.944028	-0.570818
O11	O	-0.441686	-0.866992	-0.271399
O12	O	-0.441602	-0.765442	-0.441699
O13	O	-0.570561	-0.867031	-0.741070
O14	O	-0.570604	-0.765434	-0.570726
O15	O	-0.441527	-0.944018	-0.741109
O16	O	-0.741010	-0.943916	-0.441685
O17	O	-0.740946	-0.866974	-0.570718
C18	C	-0.506099	-0.742705	-0.506208
C19	C	-0.506111	-0.673063	-0.506219
C20	C	-0.573408	-0.171279	-0.573344
C21	C	-0.573410	-0.236715	-0.573334
C22	C	-0.506139	-0.269425	-0.506260
C23	C	-0.438880	-0.236694	-0.439171
C24	C	-0.438888	-0.171260	-0.439175
C25	C	-0.411461	-0.373099	-0.498121
C26	C	-0.411452	-0.438532	-0.498125
C27	C	-0.506116	-0.471246	-0.506242
C28	C	-0.600793	-0.438519	-0.514378
C29	C	-0.600800	-0.373085	-0.514382
C30	C	-0.506124	-0.340377	-0.506248
C31	C	-0.573378	-0.574921	-0.573312
C32	C	-0.573381	-0.640358	-0.573295
C33	C	-0.438842	-0.640336	-0.439137
C34	C	-0.438848	-0.574901	-0.439148
C35	C	-0.506114	-0.542197	-0.506241
C36	C	-0.779099	-0.905455	-0.506217
C37	C	-0.895875	-0.905496	-0.506242
C38	C	-0.895888	-0.985676	-0.371980
C39	C	-0.950755	-1.025783	-0.304861
C40	C	-1.060477	-1.025820	-0.304890
C41	C	-1.115334	-0.985747	-0.372046
C42	C	-1.060467	-0.945640	-0.439165
C43	C	-0.950743	-0.945606	-0.439127
C44	C	-1.060454	-0.865464	-0.573431
C45	C	-0.950732	-0.865423	-0.573398
C46	C	-1.115311	-0.825391	-0.640587
C47	C	-1.060444	-0.785280	-0.707702
C48	C	-0.950716	-0.785245	-0.707670
C49	C	-0.895865	-0.825316	-0.640517
C50	C	-0.232098	-0.905547	-0.506291
C51	C	-0.115321	-0.905570	-0.506312
C52	C	-0.506030	-0.905530	-0.780276
C53	C	-0.505986	-0.905546	-0.897053
C54	C	-0.506158	-0.068915	-0.506272
C55	C	-0.506154	-0.138557	-0.506268
C56	C	-0.640309	-0.985702	-1.116472
C57	C	-0.707529	-1.025747	-1.061597
C58	C	-0.707569	-1.025726	-0.951876
C59	C	-0.640384	-0.985655	-0.897026
C60	C	-0.573165	-0.945611	-0.951901
C61	C	-0.573130	-0.945638	-1.061625
C62	C	-0.438767	-0.865502	-0.951928
C63	C	-0.438720	-0.865525	-1.061649
C64	C	-0.371583	-0.825432	-0.897078
C65	C	-0.304357	-0.785390	-0.951952
C66	C	-0.304319	-0.785412	-1.061681
C67	C	-0.371501	-0.825481	-1.116524
C68	C	-0.506157	-0.905490	-0.233275
C69	C	-0.505904	-0.905596	-0.116499
H70	H	-0.628151	-0.548292	-0.627941
F71	F	-0.367255	-0.675144	-0.367742
F72	F	-0.371628	-0.825410	-0.780302
F73	F	-1.232109	-0.985580	-0.371725
H74	H	-0.806524	-0.825287	-0.640477
F75	F	-0.640259	-0.985735	-1.233248
F76	F	-0.644993	-0.271548	-0.644729
F77	F	-0.779032	-1.068388	-1.119979
F78	F	-0.232860	-0.742750	-0.893572
F79	F	-0.232776	-0.742790	-1.120074
F80	F	-0.640439	-0.985630	-0.780250
H81	H	-0.906049	-0.752587	-0.762330
H82	H	-0.371472	-0.825506	-1.205865
F83	F	-0.779116	-1.068341	-0.893473
H84	H	-0.628155	-0.666999	-0.627913
H85	H	-1.204652	-0.825426	-0.640610
H86	H	-0.628185	-0.144656	-0.627972
H87	H	-0.677889	-0.346441	-0.521003
H88	H	-0.906081	-1.058411	-0.250185
H89	H	-0.384079	-0.548257	-0.384531
F90	F	-0.701550	-0.473330	-0.523015
H91	H	-0.334360	-0.465173	-0.491512
H92	H	-1.105150	-1.058481	-0.250241
H93	H	-1.105117	-0.752659	-0.762380
H94	H	-0.334370	-0.346468	-0.491494
H95	H	-0.384109	-0.263331	-0.384557
H96	H	-0.384118	-0.144618	-0.384553
H97	H	-0.806547	-0.985642	-0.371936
