data_functionalizedCrystal
_audit_creation_method	'MofGen! by Chris Wilmer'
_symmetry_space_group_name_H-M	'P1'
_symmetry_Int_Tables_number	1
_symmetry_cell_setting	triclinic
loop_
_symmetry_equiv_pos_as_xyz
  x,y,z
_cell_length_a	12.837939
_cell_length_b	22.610064
_cell_length_c	12.811434
_cell_angle_alpha	95.437999
_cell_angle_beta	89.411497
_cell_angle_gamma	89.991708
loop_
_atom_site_label
_atom_site_type_symbol
_atom_site_fract_x
_atom_site_fract_y
_atom_site_fract_z
O1	O	-1.376633	0.034533	-0.272961
O2	O	-1.074770	0.035258	-0.259478
O3	O	-1.233299	0.043049	-0.114186
O4	O	-1.218104	0.026742	-0.418253
O5	O	-1.233271	-0.055321	-0.114207
O6	O	-1.074742	-0.063112	-0.259498
O7	O	-1.376605	-0.063838	-0.272982
Zn8	Zn	-1.225669	-0.079093	-0.266243
Zn9	Zn	-1.225706	0.050514	-0.266216
O10	O	-1.218076	-0.071629	-0.418274
C11	C	-1.036116	-0.013682	-0.254933
C12	C	-0.920980	-0.012952	-0.241347
N13	N	-1.225651	-0.167547	-0.266262
C14	C	-0.680723	-0.021721	-0.404678
C15	C	-0.572542	-0.021036	-0.391918
C16	C	-0.596436	-0.010901	-0.203067
C17	C	-0.704617	-0.011586	-0.215827
C18	C	-0.746756	-0.016996	-0.316636
C19	C	-0.854939	-0.017676	-0.329395
C20	C	-0.878830	-0.007546	-0.140545
C21	C	-0.770650	-0.006861	-0.127785
C22	C	-1.295906	-0.572736	-0.201892
C23	C	-1.295911	-0.634656	-0.201885
O24	O	-1.355600	-0.663741	-0.147167
N25	N	-1.225705	-0.669080	-0.266194
C26	C	-1.155482	-0.641581	-0.330507
O27	O	-1.095766	-0.676548	-0.385205
C28	C	-1.155472	-0.579663	-0.330508
C29	C	-1.225690	-0.545242	-0.266202
C30	C	-1.366117	-0.538316	-0.137591
C31	C	-1.366113	-0.476401	-0.137600
C32	C	-1.295897	-0.448906	-0.201910
C33	C	-1.225686	-0.483327	-0.266211
C34	C	-1.085245	-0.552165	-0.394814
C35	C	-1.085241	-0.490242	-0.394809
C36	C	-1.155459	-0.455821	-0.330503
C37	C	-1.155466	-0.393917	-0.330530
N38	N	-1.225672	-0.359493	-0.266221
C39	C	-1.295888	-0.386987	-0.201911
C40	C	-1.155506	-0.771615	-0.330499
C41	C	-1.155519	-0.833533	-0.330504
C42	C	-1.295948	-0.826603	-0.201881
C43	C	-1.295938	-0.764684	-0.201882
C44	C	-1.225712	-0.737190	-0.266190
C45	C	-1.295874	-0.256961	-0.201935
C46	C	-1.295867	-0.195041	-0.201952
C47	C	-1.155435	-0.201976	-0.330571
C48	C	-1.155446	-0.263891	-0.330558
C49	C	-1.225670	-0.291382	-0.266231
O50	O	-1.095805	-0.364791	-0.385217
O51	O	-1.355585	-0.352014	-0.147211
C52	C	-0.415259	-0.014897	-0.277528
C53	C	-0.530395	-0.015626	-0.291116
C54	C	-1.218940	-0.024545	-0.457453
C55	C	-1.221487	-0.030808	-0.574227
N56	N	-1.225732	0.138968	-0.266190
C57	C	-1.226321	0.064679	-0.793634
C58	C	-1.228714	0.058797	-0.903354
C59	C	-1.228672	-0.048452	-0.903386
C60	C	-1.226280	-0.042570	-0.793667
C61	C	-1.225103	0.013997	-0.738795
C62	C	-1.222702	0.019878	-0.629074
C63	C	-1.222668	-0.087371	-0.629108
C64	C	-1.225061	-0.093252	-0.738827
C65	C	-1.232435	-0.004033	-0.075007
C66	C	-1.229888	0.002234	0.041767
H67	H	-0.889246	-0.022082	-0.411479
H68	H	-1.221669	-0.128640	-0.584446
O69	O	-1.364136	-0.283732	-0.139599
C70	C	-1.505737	-0.353146	-0.131482
C71	C	-1.428470	-0.322884	-0.202190
H72	H	-1.557785	-0.384798	-0.182060
H73	H	-1.460813	-0.379119	-0.074526
H74	H	-1.555863	-0.317887	-0.085509
H75	H	-1.378324	-0.358104	-0.248230
H76	H	-1.473457	-0.296898	-0.259079
O77	O	-0.721492	-0.027001	-0.502672
C78	C	-0.686379	-0.036935	-0.688640
C79	C	-0.640073	-0.030973	-0.577722
H80	H	-0.620575	-0.040135	-0.749348
H81	H	-0.736381	-0.078689	-0.699414
H82	H	-0.736477	0.003653	-0.699268
H83	H	-0.589929	-0.071529	-0.567018
H84	H	-0.590131	0.010806	-0.566999
O85	O	-0.508292	-0.025540	-0.477362
C86	C	-0.372348	0.020333	-0.572585
C87	C	-0.445034	0.025504	-0.475758
H88	H	-0.321200	0.061602	-0.571333
H89	H	-0.321018	-0.020739	-0.571347
H90	H	-0.421075	0.016321	-0.646808
H91	H	-0.396388	0.029539	-0.401485
H92	H	-0.496367	0.066568	-0.477090
O93	O	-1.016886	-0.585557	-0.457160
C94	C	-0.836821	-0.606803	-0.500573
C95	C	-0.914129	-0.568958	-0.429876
H96	H	-0.753726	-0.593388	-0.478554
H97	H	-0.848778	-0.655791	-0.489532
H98	H	-0.850737	-0.599219	-0.586033
H99	H	-0.900260	-0.576491	-0.344389
H100	H	-0.902154	-0.519983	-0.441007
O101	O	-1.087255	-0.745007	-0.393082
C102	C	-0.947937	-0.758427	-0.520618
C103	C	-1.025190	-0.788632	-0.449815
H104	H	-0.897722	-0.793682	-0.566488
H105	H	-0.992873	-0.732513	-0.577652
H106	H	-0.895974	-0.726712	-0.470065
H107	H	-1.077172	-0.820374	-0.500284
H108	H	-0.980189	-0.814508	-0.392775
O109	O	-0.729883	-0.001625	-0.029790
C110	C	-0.765002	0.008402	0.156177
C111	C	-0.811304	0.002459	0.045257
H112	H	-0.830808	0.011718	0.216883
H113	H	-0.714979	-0.032196	0.166945
H114	H	-0.714926	0.050131	0.166814
H115	H	-0.861427	-0.039247	0.034543
H116	H	-0.861267	0.043087	0.034541
H117	H	-1.229642	-0.094506	-0.948081
O118	O	-1.017127	-0.463570	-0.457438
C119	C	-0.957084	-0.454149	-0.633909
C120	C	-1.034292	-0.484385	-0.563104
H121	H	-0.970920	-0.470975	-0.719353
H122	H	-0.969134	-0.403979	-0.622966
H123	H	-0.873979	-0.465139	-0.611809
H124	H	-1.117428	-0.473442	-0.585159
H125	H	-1.022152	-0.534547	-0.574057
O126	O	-0.555320	-0.005632	-0.105223
C127	C	-0.399242	-0.000139	-0.001882
C128	C	-0.445668	-0.006094	-0.112749
H129	H	-0.310583	-0.000523	-0.007929
H130	H	-0.426327	0.043403	0.042212
H131	H	-0.426460	-0.038935	0.042154
H132	H	-0.418472	0.032670	-0.156872
H133	H	-0.418588	-0.049658	-0.156763
O134	O	-1.226160	-0.148154	-0.792297
C135	C	-1.229889	-0.204748	-0.961337
C136	C	-1.228628	-0.142535	-0.900917
H137	H	-1.231907	-0.200225	-1.049166
H138	H	-1.156900	-0.230168	-0.942208
H139	H	-1.301877	-0.229910	-0.937353
H140	H	-1.156688	-0.117323	-0.924868
H141	H	-1.301665	-0.117159	-0.920050
H142	H	-0.932607	-0.003694	-0.068855
H143	H	-1.098279	-0.291918	-0.382932
H144	H	-1.353050	-0.167017	-0.149587
O145	O	-1.434353	-0.443054	-0.075026
C146	C	-1.573670	-0.442741	0.052513
C147	C	-1.496428	-0.480570	-0.018290
H148	H	-1.623892	-0.473058	0.098386
H149	H	-1.528726	-0.410713	0.109545
H150	H	-1.625627	-0.416444	0.001960
H151	H	-1.444452	-0.506904	0.032178
H152	H	-1.541437	-0.512561	-0.075328
O153	O	-1.087191	-0.175359	-0.393135
C154	C	-0.947849	-0.188746	-0.520649
C155	C	-1.025102	-0.218970	-0.449872
H156	H	-0.897614	-0.223991	-0.566523
H157	H	-0.992785	-0.162831	-0.577680
H158	H	-0.895905	-0.157031	-0.470076
H159	H	-1.077064	-0.250713	-0.500361
H160	H	-0.980101	-0.244847	-0.392835
H161	H	-1.221737	0.065938	-0.584399
O162	O	-1.434190	-0.565038	-0.075000
C163	C	-1.455710	-0.627378	0.066160
C164	C	-1.378489	-0.597143	-0.004635
H165	H	-1.410706	-0.653352	0.123053
H166	H	-1.505867	-0.592153	0.112188
H167	H	-1.507735	-0.659046	0.015589
H168	H	-1.326396	-0.565478	0.045858
H169	H	-1.328405	-0.632400	-0.050669
H170	H	-1.353115	-0.736662	-0.149518
H171	H	-1.225348	0.110738	-0.748957
H172	H	-1.353120	-0.849000	-0.149515
H173	H	-1.098353	-0.861555	-0.382880
H174	H	-1.229708	0.100068	-0.948000
