data_functionalizedCrystal
_audit_creation_method	'MofGen! by Chris Wilmer'
_symmetry_space_group_name_H-M	'P1'
_symmetry_Int_Tables_number	1
_symmetry_cell_setting	triclinic
loop_
_symmetry_equiv_pos_as_xyz
  x,y,z
_cell_length_a	19.188931
_cell_length_b	14.519731
_cell_length_c	18.266242
_cell_angle_alpha	89.994522
_cell_angle_beta	90.004165
_cell_angle_gamma	96.583002
loop_
_atom_site_label
_atom_site_type_symbol
_atom_site_fract_x
_atom_site_fract_y
_atom_site_fract_z
O1	O	-0.926562	0.115138	-0.060857
O2	O	-0.426562	0.615138	0.439143
O3	O	-0.723307	0.130636	-0.060865
O4	O	-0.223307	0.630636	0.439135
O5	O	-0.830316	-0.011384	-0.060854
O6	O	-0.330316	0.488616	0.439146
O7	O	-0.819553	0.257157	-0.060868
O8	O	-0.319553	0.757157	0.439132
O9	O	-0.830304	-0.011387	0.060908
O10	O	-0.330304	0.488613	0.560908
O11	O	-0.723295	0.130632	0.060897
O12	O	-0.223295	0.630632	0.560897
O13	O	-0.926551	0.115134	0.060905
O14	O	-0.426551	0.615134	0.560905
Zn15	Zn	-0.824921	0.122883	0.080233
Zn16	Zn	-0.324921	0.622883	0.580233
Zn17	Zn	-0.824936	0.122887	-0.080193
Zn18	Zn	-0.324936	0.622887	0.419807
O19	O	-0.819542	0.257154	0.060894
O20	O	-0.319542	0.757154	0.560894
C21	C	-0.697288	0.130132	0.000016
C22	C	-0.197288	0.630132	0.500016
C23	C	-0.619778	0.128625	0.000013
C24	C	-0.119778	0.628625	0.500013
C25	C	-0.829806	-0.045742	0.000027
C26	C	-0.329806	0.454258	0.500027
C27	C	-0.828295	-0.148113	0.000027
C28	C	-0.328295	0.351887	0.500027
C29	C	-0.066490	0.117871	-0.066351
C30	C	0.433510	0.617871	0.433649
C31	C	-0.139320	0.119282	-0.066354
C32	C	0.360680	0.619282	0.433646
C33	C	-0.175733	0.119989	0.000018
C34	C	0.324267	0.619989	0.500018
C35	C	-0.139313	0.119263	0.066398
C36	C	0.360687	0.619263	0.566398
C37	C	-0.066486	0.117843	0.066399
C38	C	0.433514	0.617843	0.566399
N39	N	-0.284946	0.174695	0.049419
N40	N	0.215054	0.674695	0.549419
N41	N	-0.354129	0.176045	0.049414
N42	N	0.145871	0.676045	0.549414
C43	C	-0.395157	0.124265	0.000019
C44	C	0.104843	0.624265	0.500019
N45	N	-0.364388	0.071095	-0.049381
N46	N	0.135612	0.571095	0.450619
N47	N	-0.295199	0.069748	-0.049378
N48	N	0.204801	0.569748	0.450622
C49	C	-0.254702	0.121528	0.000024
C50	C	0.245298	0.621528	0.500024
C51	C	-0.510539	0.126514	-0.066360
C52	C	-0.010539	0.626514	0.433640
C53	C	-0.583370	0.127919	-0.066360
C54	C	-0.083370	0.627919	0.433640
C55	C	-0.583361	0.127909	0.066394
C56	C	-0.083361	0.627909	0.566394
C57	C	-0.510532	0.126495	0.066392
C58	C	-0.010532	0.626495	0.566392
C59	C	-0.474125	0.125802	0.000013
C60	C	0.025875	0.625802	0.500013
C61	C	-0.827067	-0.231249	0.000026
C62	C	-0.327067	0.268751	0.500026
C63	C	-0.825532	-0.335548	0.000020
C64	C	-0.325532	0.164452	0.500020
C65	C	-0.824315	-0.418680	0.000015
C66	C	-0.324315	0.081320	0.500015
C67	C	-0.822781	-0.522986	0.000011
C68	C	-0.322781	-0.022986	0.500011
C69	C	0.047431	0.115639	0.000023
C70	C	0.547431	0.615639	0.500023
C71	C	-0.030079	0.117150	0.000020
C72	C	0.469921	0.617150	0.500020
C73	C	-0.820052	0.291512	0.000011
C74	C	-0.320052	0.791512	0.500011
C75	C	-0.821563	0.393883	0.000006
C76	C	-0.321563	0.893883	0.500006
N77	N	-0.824916	0.122879	0.189720
N78	N	-0.324916	0.622879	0.689720
N79	N	-0.824947	0.122883	-0.189680
N80	N	-0.324947	0.622883	0.310320
C81	C	-0.872332	0.060014	0.772002
C82	C	-0.372332	0.560014	1.272002
C83	C	-0.872333	0.060016	0.695357
C84	C	-0.372333	0.560016	1.195357
C85	C	-0.824937	0.122879	0.657033
C86	C	-0.324937	0.622879	1.157033
C87	C	-0.777549	0.185760	0.695360
C88	C	-0.277549	0.685760	1.195360
C89	C	-0.777554	0.185762	0.772003
C90	C	-0.277554	0.685762	1.272003
N91	N	-0.763168	0.134830	0.536704
N92	N	-0.263168	0.634830	1.036704
N93	N	-0.763165	0.134822	0.463896
N94	N	-0.263165	0.634822	0.963896
C95	C	-0.824920	0.122877	0.426110
C96	C	-0.324920	0.622877	0.926110
N97	N	-0.886679	0.110922	0.463884
N98	N	-0.386679	0.610922	0.963884
N99	N	-0.886681	0.110925	0.536699
N100	N	-0.386681	0.610925	1.036699
C101	C	-0.824927	0.122884	0.573926
C102	C	-0.324927	0.622884	1.073926
C103	C	-0.872309	0.060007	0.304686
C104	C	-0.372309	0.560007	0.804686
C105	C	-0.872311	0.060015	0.228039
C106	C	-0.372311	0.560015	0.728039
C107	C	-0.777521	0.185754	0.228043
C108	C	-0.277521	0.685754	0.728043
C109	C	-0.777525	0.185750	0.304688
C110	C	-0.277525	0.685750	0.804688
C111	C	-0.824919	0.122871	0.343005
C112	C	-0.324919	0.622871	0.843005
H113	H	-0.036852	0.117303	-0.120403
H114	H	0.463148	0.617303	0.379597
H115	H	-0.910901	0.008822	0.196841
H116	H	-0.410901	0.508822	0.696841
F117	F	-0.178079	0.120051	-0.136999
F118	F	0.321921	0.620051	0.363001
F119	F	-0.622123	0.128678	-0.137005
F120	F	-0.122123	0.628678	0.362995
H121	H	-0.168965	0.119837	0.120439
H122	H	0.331035	0.619837	0.620439
F123	F	-0.922774	-0.006902	0.812780
F124	F	-0.422774	0.493098	1.312780
H125	H	-0.738967	0.236959	0.803202
H126	H	-0.238967	0.736959	1.303202
H127	H	-0.910921	0.008819	0.664153
H128	H	-0.410921	0.508819	1.164153
F129	F	-0.922752	-0.006910	0.345466
F130	F	-0.422752	0.493090	0.845466
F131	F	-0.471777	0.125740	0.137035
F132	F	0.028223	0.625740	0.637035
F133	F	-0.727109	0.252666	0.654572
F134	F	-0.227109	0.752666	1.154572
H135	H	-0.738933	0.236941	0.196840
H136	H	-0.238933	0.736941	0.696840
F137	F	-0.471790	0.125771	-0.137005
F138	F	0.028210	0.625771	0.362995
F139	F	-0.027733	0.117078	0.137043
F140	F	0.472267	0.617078	0.637043
F141	F	-0.622111	0.128651	0.137033
F142	F	-0.122111	0.628651	0.637033
H143	H	-0.738938	0.236940	0.335888
H144	H	-0.238938	0.736940	0.835888
