data_functionalizedCrystal
_audit_creation_method	'MofGen! by Chris Wilmer'
_symmetry_space_group_name_H-M	'P1'
_symmetry_Int_Tables_number	1
_symmetry_cell_setting	triclinic
loop_
_symmetry_equiv_pos_as_xyz
  x,y,z
_cell_length_a	17.640112
_cell_length_b	11.169416
_cell_length_c	11.169409
_cell_angle_alpha	89.969126
_cell_angle_beta	101.174320
_cell_angle_gamma	101.234387
loop_
_atom_site_label
_atom_site_type_symbol
_atom_site_fract_x
_atom_site_fract_y
_atom_site_fract_z
Zn1	Zn	1.208360	-0.106442	-0.308284
Zn2	Zn	1.208287	-0.307205	-0.107628
Zn3	Zn	1.076185	-0.147123	-0.148120
Zn4	Zn	1.076190	-0.347691	-0.348751
O5	O	1.142255	-0.227115	-0.228196
O6	O	1.318948	-0.099106	-0.247785
O7	O	1.190731	-0.286051	0.054940
O8	O	1.093747	0.026232	-0.169376
O9	O	1.318895	-0.246605	-0.100365
O10	O	1.190855	0.056120	-0.287048
O11	O	1.093676	-0.168440	0.025191
O12	O	0.965588	-0.207697	-0.208615
O13	O	1.093755	-0.315607	-0.511323
O14	O	0.965591	-0.355054	-0.356018
O15	O	1.190860	-0.138363	-0.481592
O16	O	1.190735	-0.480534	-0.139604
O17	O	1.093685	-0.510279	-0.316755
C18	C	0.936913	-0.290184	-0.291102
C19	C	0.849066	-0.317194	-0.318043
C20	C	1.142224	-0.538950	-0.228196
C21	C	1.142283	-0.672332	-0.228214
C22	C	0.560031	-0.021903	-0.023544
C23	C	0.477485	-0.047308	-0.048875
C24	C	0.477544	-0.200961	-0.202101
C25	C	0.560090	-0.175566	-0.176787
C26	C	0.601327	-0.086037	-0.087506
C27	C	0.601387	-0.239699	-0.240749
C28	C	0.683927	-0.214310	-0.215433
C29	C	0.725170	-0.124787	-0.126154
C30	C	0.683867	-0.060647	-0.062190
C31	C	0.560149	-0.329234	-0.330023
C32	C	0.601446	-0.393367	-0.393986
C33	C	0.683987	-0.367972	-0.368676
C34	C	0.725230	-0.278450	-0.279397
C35	C	0.725289	-0.432112	-0.432640
C36	C	0.807829	-0.406723	-0.407323
C37	C	0.807769	-0.253060	-0.254080
C38	C	1.348400	-0.163801	-0.165044
C39	C	1.436247	-0.136821	-0.138133
C40	C	1.142316	-0.226963	-0.541220
C41	C	1.142342	-0.226899	-0.674612
C42	C	1.142308	0.085943	-0.228215
C43	C	1.142331	0.219350	-0.228223
C44	C	1.142240	-0.227166	0.083624
C45	C	1.142368	-0.226846	0.217063
H46	H	0.841347	-0.180139	-0.181397
C47	C	0.441945	-0.449313	-0.449682
C48	C	0.469419	-0.357169	-0.357833
H49	H	0.385932	-0.466568	-0.466836
H50	H	0.460627	-0.422892	-0.521432
H51	H	0.460633	-0.520977	-0.423057
H52	H	0.450735	-0.285502	-0.384461
H53	H	0.450729	-0.383586	-0.286068
H54	H	0.443957	-0.273859	-0.274789
C55	C	0.384591	-0.058992	0.084030
C56	C	0.432083	0.023209	0.021413
H57	H	0.356564	-0.015456	0.127420
H58	H	0.348227	-0.115938	0.027238
H59	H	0.416779	-0.101317	0.139914
H60	H	0.399894	0.065527	-0.034478
H61	H	0.468451	0.080176	0.078211
C62	C	0.576106	-0.459822	-0.604893
C63	C	0.556111	-0.491764	-0.492131
H64	H	0.548121	-0.520569	-0.665486
H65	H	0.562582	-0.383368	-0.626715
H66	H	0.631175	-0.453886	-0.598956
H67	H	0.501043	-0.497690	-0.498065
H68	H	0.569630	-0.568238	-0.470305
C69	C	0.843401	-0.202554	-0.059098
C70	C	0.815899	-0.096876	-0.098315
H71	H	0.899413	-0.185322	-0.041916
H72	H	0.824699	-0.228962	0.012640
H73	H	0.824751	-0.265042	-0.121433
H74	H	0.834545	-0.034391	-0.035976
H75	H	0.834610	-0.070451	-0.170061
C76	C	0.675527	0.088692	0.086762
C77	C	0.729203	0.037757	0.035958
H78	H	0.703518	0.149430	0.147360
H79	H	0.643358	0.124658	0.024532
H80	H	0.643312	0.026532	0.122866
H81	H	0.761415	0.099916	-0.000154
H82	H	0.761386	0.001793	0.098199
C83	C	0.699941	-0.498589	-0.643545
C84	C	0.679954	-0.530517	-0.530775
H85	H	0.671955	-0.559344	-0.704129
H86	H	0.686414	-0.422139	-0.665375
H87	H	0.755010	-0.492652	-0.637614
H88	H	0.624886	-0.536446	-0.536704
H89	H	0.693475	-0.606988	-0.508941
C90	C	0.900720	-0.394990	-0.540233
C91	C	0.853233	-0.477211	-0.477628
H92	H	0.928755	-0.438511	-0.583626
H93	H	0.868535	-0.352665	-0.596100
H94	H	0.937086	-0.338044	-0.483423
H95	H	0.816863	-0.534152	-0.534438
H96	H	0.885421	-0.519556	-0.421755
H97	H	0.593608	0.051018	0.049139
