data_functionalizedCrystal
_audit_creation_method	'MofGen! by Chris Wilmer'
_symmetry_space_group_name_H-M	'P1'
_symmetry_Int_Tables_number	1
_symmetry_cell_setting	triclinic
loop_
_symmetry_equiv_pos_as_xyz
  x,y,z
_cell_length_a	19.077105
_cell_length_b	12.827892
_cell_length_c	19.076919
_cell_angle_alpha	87.724465
_cell_angle_beta	89.923776
_cell_angle_gamma	87.711903
loop_
_atom_site_label
_atom_site_type_symbol
_atom_site_fract_x
_atom_site_fract_y
_atom_site_fract_z
Zn1	Zn	1.058323	-0.505562	0.440440
Zn2	Zn	1.062981	-0.673587	0.322941
Zn3	Zn	0.945540	-0.491563	0.318233
Zn4	Zn	0.940802	-0.672957	0.435693
O5	O	1.001912	-0.585917	0.379327
O6	O	1.157274	-0.533973	0.428810
O7	O	1.051334	-0.643846	0.223985
O8	O	0.960534	-0.347187	0.334460
O9	O	1.160695	-0.657421	0.342484
O10	O	1.043396	-0.357472	0.424245
O11	O	0.965050	-0.510114	0.220526
O12	O	0.846579	-0.509503	0.329857
O13	O	0.952460	-0.656347	0.534655
O14	O	0.843098	-0.642772	0.416155
O15	O	1.038802	-0.533362	0.538142
O16	O	1.046740	-0.819737	0.337881
O17	O	0.956976	-0.819274	0.420720
C18	C	0.819342	-0.574551	0.371981
C19	C	0.741237	-0.569714	0.368855
C20	C	1.001868	-0.857424	0.379313
C21	C	1.001913	-0.973581	0.379333
C22	C	0.702753	-0.636925	0.412246
C23	C	0.629365	-0.632367	0.409312
C24	C	0.594463	-0.560602	0.362983
C25	C	0.632953	-0.493385	0.319590
C26	C	0.706339	-0.497938	0.322528
C27	C	0.375174	-0.539528	0.349389
C28	C	0.301782	-0.534981	0.346453
C29	C	0.298199	-0.673963	0.436177
C30	C	0.371587	-0.678514	0.439108
C31	C	0.410071	-0.611293	0.395717
N32	N	0.519449	-0.555944	0.359982
N33	N	0.485083	-0.615947	0.398723
C34	C	1.046380	-1.025566	0.338391
C35	C	1.046427	-1.145620	0.338411
C36	C	1.185194	-0.597329	0.386702
C37	C	1.263298	-0.602192	0.389845
C38	C	0.994583	-0.596346	0.562607
C39	C	0.991460	-0.600790	0.640711
C40	C	1.001974	-0.313353	0.379357
C41	C	1.002000	-0.197202	0.379370
C42	C	1.009252	-0.575456	0.196761
C43	C	1.012511	-0.570727	0.118663
C44	C	1.034945	-0.538849	0.679221
C45	C	1.032002	-0.543020	0.752607
C46	C	0.985578	-0.609138	0.787481
C47	C	0.942089	-0.671081	0.748966
C48	C	0.945028	-0.666904	0.675581
C49	C	0.971962	-0.628492	1.006763
C50	C	0.969027	-0.632667	1.080153
C51	C	1.058939	-0.504604	1.083789
C52	C	1.061878	-0.500438	1.010402
C53	C	1.018386	-0.562376	0.971894
N54	N	0.982570	-0.613406	0.862494
N55	N	1.021391	-0.558103	0.896882
H56	H	0.731165	-0.695367	0.449970
H57	H	0.406498	-0.484799	0.314053
O58	O	1.091841	-1.199110	0.296679
C59	C	1.081785	-1.307070	0.305996
H60	H	1.056527	-1.323511	0.359277
H61	H	1.134610	-1.351551	0.303459
H62	H	1.046089	-1.333448	0.262789
H63	H	0.904287	-0.724912	0.777367
H64	H	1.099683	-0.446600	0.982013
H65	H	1.084418	-0.981195	0.303327
H66	H	0.598034	-0.687098	0.444645
O67	O	0.260924	-0.739351	0.478359
C68	C	0.307465	-0.803644	0.519896
H69	H	0.360920	-0.808812	0.493201
H70	H	0.285954	-0.885099	0.526459
H71	H	0.313157	-0.769010	0.573616
H72	H	0.963926	-1.152504	0.414421
H73	H	0.399999	-0.736955	0.476832
O74	O	0.902770	-0.727190	0.638279
C75	C	0.861156	-0.786432	0.684794
H76	H	0.887838	-0.794808	0.738267
H77	H	0.854502	-0.867097	0.663282
H78	H	0.807480	-0.745298	0.690446
H79	H	0.963881	-1.017954	0.414402
O80	O	1.080060	-0.474531	0.645456
C81	C	1.117820	-0.420774	0.695186
H82	H	1.086942	-0.418343	0.746337
H83	H	1.126183	-0.337699	0.674297
H84	H	1.170867	-0.462807	0.705138
O85	O	0.924021	-0.697005	1.114071
C86	C	0.962306	-0.769393	1.158139
H87	H	1.018531	-0.778055	1.138248
H88	H	0.936829	-0.848270	1.157947
H89	H	0.962517	-0.740389	1.213854
O90	O	1.074139	-0.482726	0.790037
C91	C	1.032445	-0.415167	0.830886
H92	H	0.977988	-0.404021	0.806540
H93	H	1.057840	-0.336372	0.832741
H94	H	1.027792	-0.450476	0.886406
O95	O	1.101109	-0.444469	1.121302
C96	C	1.088574	-0.462348	1.193553
H97	H	1.033938	-0.493770	1.201387
H98	H	1.092239	-0.385956	1.221642
H99	H	1.129410	-0.521774	1.216052
O100	O	0.267987	-0.465169	0.301430
C101	C	0.317689	-0.406830	0.263750
H102	H	0.368858	-0.408157	0.294629
H103	H	0.296786	-0.322744	0.255503
H104	H	0.327615	-0.442414	0.210649
H105	H	0.604530	-0.434948	0.281871
H106	H	0.737673	-0.443203	0.287198
H107	H	0.936558	-0.678943	0.975419
