data_functionalizedCrystal
_audit_creation_method	'MofGen! by Chris Wilmer'
_symmetry_space_group_name_H-M	'P1'
_symmetry_Int_Tables_number	1
_symmetry_cell_setting	triclinic
loop_
_symmetry_equiv_pos_as_xyz
  x,y,z
_cell_length_a	12.759401
_cell_length_b	17.637651
_cell_length_c	17.637815
_cell_angle_alpha	92.204965
_cell_angle_beta	78.802784
_cell_angle_gamma	101.219778
loop_
_atom_site_label
_atom_site_type_symbol
_atom_site_fract_x
_atom_site_fract_y
_atom_site_fract_z
Zn1	Zn	1.402691	-0.389184	0.368085
Zn2	Zn	1.416413	-0.490534	0.215408
Zn3	Zn	1.268027	-0.363540	0.241125
Zn4	Zn	1.199783	-0.516157	0.342357
O5	O	1.321728	-0.439854	0.291744
O6	O	1.551529	-0.402637	0.347836
O7	O	1.431032	-0.452232	0.112558
O8	O	1.308708	-0.260656	0.279497
O9	O	1.561610	-0.477098	0.235665
O10	O	1.407645	-0.279496	0.372773
O11	O	1.322014	-0.358930	0.131453
O12	O	1.111957	-0.383777	0.254549
O13	O	1.192396	-0.520770	0.452031
O14	O	1.061818	-0.495904	0.328923
O15	O	1.341472	-0.427483	0.470933
O16	O	1.364858	-0.600219	0.210718
O17	O	1.205702	-0.619044	0.303986
C18	C	1.048767	-0.439839	0.291736
C19	C	0.931984	-0.439854	0.291746
C20	C	0.871830	-0.401185	0.350211
C21	C	0.762103	-0.401194	0.350214
C22	C	0.772692	-0.478547	0.233285
C23	C	0.882419	-0.478533	0.233280
C24	C	1.279387	-0.637194	0.251786
C25	C	1.261361	-0.721622	0.234718
C26	C	1.459276	-1.048097	0.421651
C27	C	1.442308	-1.127428	0.405599
C28	C	1.339405	-1.107897	0.308377
C29	C	1.356368	-1.028563	0.324418
C30	C	1.416303	-0.998670	0.381056
C31	C	1.313396	-0.979136	0.283823
C32	C	1.330353	-0.899809	0.299866
C33	C	1.390283	-0.869910	0.356503
C34	C	1.433261	-0.919343	0.397099
C35	C	1.253455	-1.009031	0.227188
C36	C	1.210483	-0.959604	0.186593
C37	C	1.227446	-0.880275	0.202632
C38	C	1.287376	-0.850376	0.259270
C39	C	1.184468	-0.830842	0.162036
C40	C	1.201426	-0.751515	0.178079
C41	C	1.304333	-0.771049	0.275312
C42	C	1.595755	-0.439870	0.291752
C43	C	1.712529	-0.439877	0.291756
C44	C	1.257791	-0.479845	0.489805
C45	C	1.230544	-0.496887	0.574207
C46	C	1.364259	-0.241747	0.331874
C47	C	1.382383	-0.157325	0.348975
C48	C	1.385490	-0.399963	0.094464
C49	C	1.412985	-0.382707	0.010106
C50	C	1.529005	-0.310109	0.900997
C51	C	1.503387	-0.326139	0.980302
C52	C	1.348168	-0.423270	0.960610
C53	C	1.373776	-0.407251	0.881301
C54	C	1.464195	-0.350668	0.851501
C55	C	1.308965	-0.447810	0.831806
C56	C	1.334568	-0.431789	0.752505
C57	C	1.424981	-0.375207	0.722699
C58	C	1.489797	-0.334647	0.772200
C59	C	1.218542	-0.504388	0.861608
C60	C	1.153732	-0.544948	0.812112
C61	C	1.179339	-0.528931	0.732809
C62	C	1.269752	-0.472349	0.703003
C63	C	1.114523	-0.569491	0.683307
C64	C	1.140125	-0.553470	0.604006
C65	C	1.295355	-0.456328	0.623702
H66	H	0.931399	-0.510022	0.185666
Br67	Br	1.514623	-0.878764	0.473955
H68	H	0.912183	-0.369687	0.397817
H69	H	1.080111	-0.591016	0.836387
H70	H	1.477288	-1.167672	0.438672
H71	H	1.445825	-0.362164	0.658126
Br72	Br	1.258054	-1.148475	0.231520
H73	H	1.166432	-0.711270	0.145023
H74	H	1.040898	-0.615555	0.707584
Br75	Br	0.680470	-0.348709	0.429560
H76	H	1.197692	-0.517424	0.926182
H77	H	0.732322	-0.510038	0.185684
H78	H	1.353148	-0.746709	0.321428
Br79	Br	1.103107	-0.871424	0.085187
H80	H	1.404089	-0.805317	0.369564
H81	H	1.368987	-0.410256	0.599437
H82	H	1.508091	-1.023757	0.467766
Br83	Br	1.129132	-1.000182	0.109737
Br84	Br	1.612523	-0.257866	0.731748
Br85	Br	1.651731	-0.233328	0.860544
Br86	Br	1.591317	-0.271055	1.047481
H87	H	1.239638	-1.073626	0.214135
Br88	Br	1.225458	-0.500056	1.001060
Br89	Br	1.052165	-0.608512	0.536829
