data_functionalizedCrystal
_audit_creation_method	'MofGen! by Chris Wilmer'
_symmetry_space_group_name_H-M	'P1'
_symmetry_Int_Tables_number	1
_symmetry_cell_setting	triclinic
loop_
_symmetry_equiv_pos_as_xyz
  x,y,z
_cell_length_a	14.044220
_cell_length_b	14.044220
_cell_length_c	13.101039
_cell_angle_alpha	86.332523
_cell_angle_beta	86.340132
_cell_angle_gamma	86.811122
loop_
_atom_site_label
_atom_site_type_symbol
_atom_site_fract_x
_atom_site_fract_y
_atom_site_fract_z
O1	O	1.281968	-0.225348	-0.085109
O2	O	1.005298	-0.217041	-0.085135
O3	O	1.139480	-0.082860	-0.085112
O4	O	1.147787	-0.359530	-0.085132
O5	O	1.129854	-0.092504	0.085316
O6	O	0.995673	-0.226686	0.085293
O7	O	1.272343	-0.234993	0.085319
Zn8	Zn	1.132479	-0.232371	0.112365
Zn9	Zn	1.145162	-0.219663	-0.112181
O10	O	1.138161	-0.369175	0.085296
C11	C	0.964864	-0.218228	0.000076
C12	C	0.858722	-0.207383	0.000066
C13	C	0.664383	-0.187558	0.000088
C14	C	0.613253	-0.264472	0.000087
C15	C	0.505116	-0.253441	0.000099
C16	C	0.772529	-0.198587	0.000076
C17	C	1.131031	-0.052060	0.000102
C18	C	1.120187	0.054083	0.000102
C19	C	1.312777	-0.233806	0.000106
C20	C	1.418920	-0.244651	0.000109
C21	C	1.146610	-0.399974	0.000080
C22	C	1.157455	-0.506116	0.000073
N23	N	1.123831	-0.241043	0.265612
C24	C	1.100362	0.248421	0.000086
C25	C	1.177276	0.299551	0.000090
C26	C	1.166245	0.407688	0.000080
C27	C	1.111391	0.140275	0.000095
N28	N	1.153817	-0.210984	-0.265428
C29	C	1.112065	-0.252851	0.474653
C30	C	1.165580	-0.199179	0.525538
C31	C	1.159034	-0.205749	0.641855
C32	C	1.118610	-0.246282	0.358325
H33	H	1.251413	0.262115	0.000028
O34	O	1.011983	0.293194	-0.000055
C35	C	0.905773	0.406241	-0.088381
C36	C	1.005901	0.355606	-0.088343
H37	H	0.900817	0.456698	-0.159765
H38	H	0.892741	0.448779	-0.017108
H39	H	0.849607	0.350672	-0.088329
H40	H	1.062130	0.411112	-0.088432
H41	H	1.018852	0.313050	-0.159611
O42	O	1.051465	-0.313575	0.526730
C43	C	0.934436	-0.431048	0.515708
C44	C	1.003005	-0.362303	0.456588
H45	H	0.895252	-0.470477	0.459024
H46	H	0.880345	-0.388686	0.565915
H47	H	0.977006	-0.484924	0.565963
H48	H	0.960515	-0.308411	0.406276
H49	H	1.057097	-0.404727	0.406445
O50	O	0.658066	-0.352840	0.000004
C51	C	0.808269	-0.444549	-0.000017
C52	C	0.757636	-0.344422	0.000071
H53	H	0.888779	-0.437778	0.000060
H54	H	0.790818	-0.480954	-0.071371
H55	H	0.782679	-0.489052	0.071277
H56	H	0.783197	-0.299842	-0.071174
H57	H	0.775086	-0.308092	0.071473
O58	O	0.619578	-0.099188	0.000047
C59	C	0.469364	-0.007496	0.000116
C60	C	0.519999	-0.107626	0.000144
H61	H	0.388846	-0.014284	0.000216
H62	H	0.494838	0.037007	-0.071228
H63	H	0.486929	0.028920	0.071420
H64	H	0.502457	-0.144124	-0.071112
H65	H	0.494521	-0.152058	0.071535
H66	H	1.216314	-0.148295	0.481744
