data_functionalizedCrystal
_audit_creation_method	'MofGen! by Chris Wilmer'
_symmetry_space_group_name_H-M	'P1'
_symmetry_Int_Tables_number	1
_symmetry_cell_setting	triclinic
loop_
_symmetry_equiv_pos_as_xyz
  x,y,z
_cell_length_a	21.295417
_cell_length_b	18.215407
_cell_length_c	18.215399
_cell_angle_alpha	90.018561
_cell_angle_beta	89.967848
_cell_angle_gamma	89.977757
loop_
_atom_site_label
_atom_site_type_symbol
_atom_site_fract_x
_atom_site_fract_y
_atom_site_fract_z
Zn1	Zn	-0.250754	-1.125043	-0.416069
Zn2	Zn	-0.356026	-1.124939	-0.292994
Zn3	Zn	-0.250759	-1.001976	-0.293019
Zn4	Zn	-0.355975	-1.001930	-0.416022
O5	O	-0.303378	-1.063472	-0.354526
O6	O	-0.264738	-1.228014	-0.399752
O7	O	-0.342085	-1.108604	-0.190013
O8	O	-0.162669	-1.018364	-0.309373
O9	O	-0.342081	-1.227937	-0.309329
O10	O	-0.162666	-1.108781	-0.399777
O11	O	-0.264746	-1.018263	-0.190032
O12	O	-0.264697	-0.898985	-0.309327
O13	O	-0.341994	-1.018285	-0.519012
O14	O	-0.341998	-0.898951	-0.399696
O15	O	-0.264689	-1.108736	-0.519047
O16	O	-0.444108	-1.108559	-0.309283
O17	O	-0.444071	-1.018184	-0.399671
C18	C	-0.303343	-0.872266	-0.354509
C19	C	-0.303343	-0.790467	-0.354519
C20	C	-0.263162	-0.525443	-0.401677
C21	C	-0.263155	-0.602302	-0.401676
C22	C	-0.343574	-0.602242	-0.307378
C23	C	-0.343584	-0.525385	-0.307383
C24	C	-0.303374	-0.486987	-0.354532
C25	C	-0.303357	-0.640703	-0.354525
C26	C	-0.303350	-0.724037	-0.354523
C27	C	-0.303382	-0.403648	-0.354535
C28	C	-0.466930	-1.063375	-0.354485
C29	C	-0.536898	-1.063402	-0.354492
C30	C	-0.569763	-1.110502	-0.307476
C31	C	-0.635506	-1.110536	-0.307492
C32	C	-0.668381	-1.063457	-0.354518
C33	C	-0.635507	-1.016354	-0.401544
C34	C	-0.569766	-1.016326	-0.401531
N35	N	-0.771638	-0.999079	-0.360123
N36	N	-0.834090	-0.999107	-0.360130
C37	C	-0.866455	-1.063540	-0.354560
N38	N	-0.834010	-1.127944	-0.348967
N39	N	-0.771553	-1.127915	-0.348956
C40	C	-0.739666	-1.063483	-0.354537
C41	C	-0.970606	-1.110681	-0.307559
C42	C	-1.036350	-1.110717	-0.307580
C43	C	-1.036350	-1.016528	-0.401628
C44	C	-0.970608	-1.016499	-0.401610
C45	C	-0.937740	-1.063575	-0.354572
C46	C	-0.139188	-1.063589	-0.354583
C47	C	-0.069220	-1.063639	-0.354607
C48	C	-0.303335	-1.063517	-0.546479
C49	C	-0.303317	-1.063536	-0.628278
C50	C	-0.303404	-0.255425	-0.354540
C51	C	-0.303389	-0.337224	-0.354538
C52	C	-0.263026	-1.110651	-0.816491
C53	C	-0.263008	-1.110659	-0.893350
C54	C	-0.343509	-1.016473	-0.893303
C55	C	-0.343524	-1.016461	-0.816445
C56	C	-0.303284	-1.063554	-0.778042
C57	C	-0.303250	-1.063575	-0.931758
C58	C	-0.303231	-1.063584	-1.015091
C59	C	-0.303302	-1.063544	-0.694703
C60	C	-0.303376	-1.063470	-0.163320
C61	C	-0.303217	-1.063593	-0.081521
H62	H	-0.376333	-0.494073	-0.268992
O63	O	-0.938606	-1.156450	-0.261975
C64	C	-0.900530	-1.203952	-0.303909
H65	H	-0.890660	-1.177959	-0.359653
H66	H	-0.925825	-1.258496	-0.312052
C67	C	-0.850224	-1.249200	-0.194946
C68	C	-0.838097	-1.217271	-0.263410
H69	H	-0.811714	-1.257419	-0.169964
H70	H	-0.875878	-1.217199	-0.166694
H71	H	-0.871305	-1.294650	-0.201742
H72	H	-0.817024	-1.171819	-0.256613
H73	H	-0.812439	-1.249265	-0.291660
O74	O	-0.382688	-0.970771	-0.930529
C75	C	-0.445434	-0.986823	-0.911739
H76	H	-0.446753	-1.015101	-0.855939
H77	H	-0.466634	-1.024653	-0.954992
C78	C	-0.481936	-0.880320	-0.976698
C79	C	-0.483556	-0.915047	-0.908160
H80	H	-0.505452	-0.836047	-0.974493
H81	H	-0.439663	-0.869507	-0.989360
H82	H	-0.499601	-0.911854	-1.012735
H83	H	-0.465884	-0.883518	-0.872126
H84	H	-0.525827	-0.925854	-0.895492
O85	O	-0.382664	-0.970812	-0.779009
C86	C	-0.423345	-1.012679	-0.734555
H87	H	-0.401155	-1.068464	-0.723063
H88	H	-0.469992	-1.020737	-0.764155
C89	C	-0.462001	-0.903655	-0.675649
C90	C	-0.434744	-0.972169	-0.661529
H91	H	-0.469035	-0.878666	-0.630605
H92	H	-0.434596	-0.875448	-0.705600
H93	H	-0.500871	-0.910380	-0.700318
H94	H	-0.395872	-0.965444	-0.636870
H95	H	-0.462143	-1.000375	-0.631572
H96	H	-0.376310	-0.633514	-0.268990
H97	H	-0.543007	-0.977971	-0.439819
H98	H	-0.543004	-1.148835	-0.269176
H99	H	-0.230410	-0.633609	-0.440067
H100	H	-0.662270	-1.148893	-0.269206
H101	H	-0.662278	-0.978024	-0.439834
H102	H	-0.230225	-1.149009	-0.924653
O103	O	-0.224041	-0.488111	-0.447376
C104	C	-0.183353	-0.443634	-0.405570
H105	H	-0.179398	-0.466772	-0.347614
H106	H	-0.202819	-0.385378	-0.402999
C107	C	-0.122810	-0.414070	-0.512848
C108	C	-0.117948	-0.442492	-0.441667
H109	H	-0.082466	-0.413362	-0.535115
H110	H	-0.150223	-0.444033	-0.541014
H111	H	-0.139035	-0.365526	-0.510696
H112	H	-0.101731	-0.491038	-0.443821
H113	H	-0.090530	-0.412538	-0.413502
H114	H	-1.063108	-1.149076	-0.269295
H115	H	-1.063116	-0.978199	-0.439920
O116	O	-0.938776	-0.970669	-0.447299
C117	C	-0.981887	-0.929135	-0.488822
H118	H	-1.028771	-0.926626	-0.458687
H119	H	-0.988825	-0.956053	-0.544742
C120	C	-0.898690	-0.853872	-0.536362
C121	C	-0.956272	-0.850786	-0.499346
H122	H	-0.882890	-0.805544	-0.542857
H123	H	-0.869645	-0.881856	-0.508389
H124	H	-0.904480	-0.876307	-0.582958
H125	H	-0.950481	-0.828360	-0.452748
H126	H	-0.985316	-0.822797	-0.527312
O127	O	-0.223901	-1.156286	-0.779106
C128	C	-0.183236	-1.114403	-0.734674
H129	H	-0.205435	-1.058618	-0.723138
H130	H	-0.136582	-1.106347	-0.764314
C131	C	-0.144586	-1.223407	-0.675848
C132	C	-0.171854	-1.154893	-0.661675
H133	H	-0.137562	-1.248384	-0.630820
H134	H	-0.171981	-1.251625	-0.705784
H135	H	-0.105710	-1.216684	-0.700550
H136	H	-0.210732	-1.161617	-0.636981
H137	H	-0.144465	-1.126677	-0.631732
