data_functionalizedCrystal
_audit_creation_method	'MofGen! by Chris Wilmer'
_symmetry_space_group_name_H-M	'P1'
_symmetry_Int_Tables_number	1
_symmetry_cell_setting	triclinic
loop_
_symmetry_equiv_pos_as_xyz
  x,y,z
_cell_length_a	16.109301
_cell_length_b	16.109301
_cell_length_c	26.809956
_cell_angle_alpha	89.985355
_cell_angle_beta	90.017691
_cell_angle_gamma	96.538519
loop_
_atom_site_label
_atom_site_type_symbol
_atom_site_fract_x
_atom_site_fract_y
_atom_site_fract_z
O1	O	-1.103149	0.106883	-0.041443
O2	O	-0.861087	0.120182	-0.041450
O3	O	-0.988768	-0.007499	-0.041449
O4	O	-0.975469	0.234563	-0.041444
O5	O	-0.988722	-0.007534	0.041510
O6	O	-0.861041	0.120147	0.041509
O7	O	-1.103103	0.106848	0.041516
Zn8	Zn	-0.982065	0.113492	0.054684
Zn9	Zn	-0.982126	0.113538	-0.054618
O10	O	-0.975423	0.234528	0.041515
C11	C	-0.830089	0.119626	0.000028
C12	C	-0.737794	0.118011	0.000025
C13	C	-1.134101	0.107404	0.000037
C14	C	-1.226397	0.109019	0.000036
C15	C	-0.975984	0.265521	0.000036
C16	C	-0.977600	0.357816	0.000038
C17	C	-0.988206	-0.038491	0.000029
C18	C	-0.986591	-0.130786	0.000024
C19	C	-0.515522	0.190018	0.000033
C20	C	-0.428801	0.188494	0.000036
C21	C	-0.448676	0.037006	0.000031
C22	C	-0.535394	0.038530	0.000031
C23	C	-0.568815	0.115039	0.000030
C24	C	-0.395376	0.111990	0.000032
C25	C	-0.301350	0.110337	0.000036
C26	C	-0.662847	0.116693	0.000027
N27	N	-0.982030	0.113460	0.129280
C28	C	-0.905592	0.580088	0.000029
C29	C	-0.907116	0.666809	0.000025
C30	C	-1.058605	0.646934	0.000032
C31	C	-1.057080	0.560216	0.000032
C32	C	-0.980571	0.526795	0.000033
C33	C	-0.983620	0.700234	0.000029
C34	C	-0.985273	0.794260	0.000025
C35	C	-0.978917	0.432763	0.000036
N36	N	-0.982167	0.113563	-0.129214
C37	C	-0.931703	0.063057	0.526171
C38	C	-0.931663	0.063034	0.317293
O39	O	-0.888817	0.020109	0.290299
N40	N	-0.982064	0.113473	0.291159
C41	C	-1.032482	0.163917	0.317247
O42	O	-1.075356	0.206812	0.290226
C43	C	-1.032525	0.163935	0.526124
C44	C	-0.982115	0.113499	0.552256
C45	C	-0.881297	0.012624	0.552302
C46	C	-0.881304	0.012634	0.604519
C47	C	-0.931717	0.063076	0.630603
C48	C	-0.982122	0.113509	0.604472
C49	C	-1.082947	0.214375	0.552211
C50	C	-1.082955	0.214373	0.604434
C51	C	-1.032545	0.163937	0.630565
C52	C	-1.032541	0.163961	0.682773
N53	N	-0.982141	0.113522	0.708907
C54	C	-0.931728	0.063079	0.682822
C55	C	-1.032454	0.163905	0.207584
C56	C	-1.032442	0.163902	0.155365
C57	C	-0.931625	0.063017	0.155414
C58	C	-0.931633	0.063026	0.207634
C59	C	-0.982054	0.113466	0.233718
C60	C	-0.931746	0.063104	0.792480
C61	C	-0.931755	0.063121	0.844701
C62	C	-1.032575	0.164002	0.844647
C63	C	-1.032564	0.163989	0.792431
C64	C	-0.982147	0.113533	0.766349
O65	O	-1.075372	0.206857	0.709800
O66	O	-0.888874	0.020177	0.709853
C67	C	-0.931696	0.063047	0.473954
C68	C	-0.982101	0.113480	0.447823
C69	C	-1.032513	0.163922	0.473908
C70	C	-0.982089	0.113477	0.395604
C71	C	-0.931677	0.063034	0.369519
C72	C	-0.881277	0.012595	0.395653
C73	C	-0.881284	0.012605	0.447870
C74	C	-1.082913	0.214361	0.447773
C75	C	-1.082902	0.214348	0.395557
C76	C	-1.032489	0.163906	0.369472
H77	H	-0.542730	0.252317	0.000035
Br78	Br	-0.356477	0.290256	0.000042
Br79	Br	-0.801759	0.534734	0.000029
H80	H	-0.840235	-0.028466	0.469141
Br81	Br	-1.158845	0.487883	0.000032
H82	H	-1.123950	0.255428	0.374285
H83	H	-0.421454	-0.025285	0.000035
Br84	Br	-0.607728	-0.063234	0.000033
Br85	Br	-1.100988	0.232428	0.756965
H86	H	-0.846060	0.710197	0.000021
Br87	Br	-1.151391	0.282828	0.639830
H88	H	-1.120896	0.674156	0.000036
Br89	Br	-0.863333	-0.005329	0.880162
Br90	Br	-0.863327	-0.005376	0.757091
Br91	Br	-0.812856	-0.055857	0.360242
H92	H	-0.840258	-0.028440	0.625790
Br93	Br	-0.812864	-0.055836	0.516912
H94	H	-0.890584	0.021956	0.228907
Br95	Br	-1.100838	0.232375	0.119907
Br96	Br	-0.863208	-0.005440	0.120004
Br97	Br	-1.100886	0.232371	0.242976
Br98	Br	-1.151342	0.282851	0.516761
Br99	Br	-1.100982	0.232463	0.880058
H100	H	-1.123967	0.255437	0.469006
