data_functionalizedCrystal
_audit_creation_method	'MofGen! by Chris Wilmer'
_symmetry_space_group_name_H-M	'P1'
_symmetry_Int_Tables_number	1
_symmetry_cell_setting	triclinic
loop_
_symmetry_equiv_pos_as_xyz
  x,y,z
_cell_length_a	10.654550
_cell_length_b	10.489741
_cell_length_c	9.130313
_cell_angle_alpha	89.995761
_cell_angle_beta	89.999724
_cell_angle_gamma	84.512052
loop_
_atom_site_label
_atom_site_type_symbol
_atom_site_fract_x
_atom_site_fract_y
_atom_site_fract_z
O1	O	1.667923	0.179162	-0.121689
O2	O	2.167923	0.679162	0.378311
O3	O	1.302453	0.196231	-0.121716
O4	O	1.802453	0.696231	0.378284
O5	O	1.493504	0.002095	-0.121693
O6	O	1.993504	0.502095	0.378307
O7	O	1.476872	0.373299	-0.121712
O8	O	1.976872	0.873299	0.378288
O9	O	1.493491	0.002089	0.121906
O10	O	1.993491	0.502089	0.621906
O11	O	1.302440	0.196226	0.121883
O12	O	1.802440	0.696226	0.621883
O13	O	1.667910	0.179156	0.121910
O14	O	2.167910	0.679156	0.621910
Cu15	Cu	1.485174	0.187691	0.144139
Cu16	Cu	1.985174	0.687691	0.644139
Cu17	Cu	1.485189	0.187697	-0.143945
Cu18	Cu	1.985189	0.687697	0.356055
O19	O	1.476859	0.373293	0.121887
O20	O	1.976859	0.873293	0.621887
C21	C	1.255648	0.194975	0.000080
C22	C	1.755648	0.694975	0.500080
C23	C	1.116203	0.191225	0.000070
C24	C	1.616203	0.691225	0.500070
C25	C	1.492241	-0.045439	0.000105
C26	C	1.992241	0.454561	0.500105
C27	C	1.488483	-0.187067	0.000102
C28	C	1.988483	0.312933	0.500102
C29	C	1.036771	0.305530	0.000068
C30	C	1.536771	0.805530	0.500068
C31	C	0.905748	0.301999	0.000094
C32	C	1.405748	0.801999	0.500094
C33	C	0.933603	0.069849	0.000117
C34	C	1.433603	0.569849	0.500117
C35	C	1.064623	0.073381	0.000102
C36	C	1.564623	0.573381	0.500102
C37	C	1.366923	-0.255148	0.000083
C38	C	1.866923	0.244852	0.500083
C39	C	1.424340	-0.347301	0.120194
C40	C	1.924340	0.152699	0.620194
C41	C	1.424382	-0.347270	-0.119976
C42	C	1.924382	0.152730	0.380024
C43	C	1.545951	-0.277354	0.120313
C44	C	2.045951	0.222646	0.620313
C45	C	1.545976	-0.277314	-0.119965
C46	C	2.045976	0.222686	0.380035
C47	C	1.603481	-0.369439	0.000176
C48	C	2.103481	0.130561	0.500176
C49	C	1.714715	0.180413	0.000110
C50	C	2.214715	0.680413	0.500110
C51	C	1.854160	0.184162	0.000111
C52	C	2.354160	0.684162	0.500111
C53	C	1.478122	0.420827	0.000085
C54	C	1.978122	0.920827	0.500085
C55	C	1.481880	0.562454	0.000079
C56	C	1.981880	1.062454	0.500079
N57	N	1.485172	0.187685	0.346761
N58	N	1.985172	0.687685	0.846761
N59	N	1.485201	0.187693	-0.346568
N60	N	1.985201	0.687693	0.153432
C61	C	1.569798	0.101758	0.423423
C62	C	2.069798	0.601758	0.923423
C63	C	1.569810	0.101758	0.576760
C64	C	2.069810	0.601758	1.076760
C65	C	1.400565	0.273624	0.576760
C66	C	1.900565	0.773624	1.076760
C67	C	1.400548	0.273617	0.423426
C68	C	1.900548	0.773617	0.923426
H69	H	1.078762	0.401486	0.000054
H70	H	1.578762	0.901486	0.500054
H71	H	1.638702	0.031785	0.361007
H72	H	2.138702	0.531785	0.861007
N73	N	1.309316	0.366319	0.659453
N74	N	1.809316	0.866319	1.159453
H75	H	1.255701	0.420752	0.587616
H76	H	1.755701	0.920752	1.087616
H77	H	1.253364	0.316965	0.723095
H78	H	1.753364	0.816965	1.223095
H79	H	1.372937	-0.378207	-0.221530
H80	H	1.872937	0.121793	0.278470
N81	N	1.309258	0.366289	0.340727
N82	N	1.809258	0.866289	0.840727
H83	H	1.255657	0.420732	0.412558
H84	H	1.755657	0.920732	0.912558
H85	H	1.357830	0.423135	0.277084
H86	H	1.857830	0.923135	0.777084
H87	H	0.841079	0.395078	0.000096
H88	H	1.341079	0.895078	0.500096
H89	H	0.891590	-0.026096	0.000151
H90	H	1.391590	0.473904	0.500151
H91	H	1.129300	-0.019705	0.000107
H92	H	1.629300	0.480295	0.500107
H93	H	1.372900	-0.378290	0.221732
H94	H	1.872900	0.121710	0.721732
N95	N	1.234536	-0.189314	0.000214
N96	N	1.734536	0.310686	0.500214
H97	H	1.188780	-0.214588	0.091024
H98	H	1.688780	0.285412	0.591024
H99	H	1.238113	-0.093452	-0.000769
H100	H	1.738113	0.406548	0.499231
N101	N	1.614022	-0.236566	0.254971
N102	N	2.114022	0.263434	0.754971
H103	H	1.616109	-0.140511	0.254172
H104	H	2.116109	0.359489	0.754172
H105	H	1.568405	-0.262699	0.345500
H106	H	2.068405	0.237301	0.845500
H107	H	1.703517	-0.418912	0.000250
H108	H	2.203517	0.081088	0.500250
H109	H	1.638719	0.031787	0.639174
H110	H	2.138719	0.531787	1.139174
N111	N	1.614067	-0.236220	-0.254462
N112	N	2.114067	0.263780	0.245538
H113	H	1.568078	-0.261377	-0.345149
H114	H	2.068078	0.238623	0.154851
H115	H	1.616806	-0.140256	-0.252811
H116	H	2.116806	0.359744	0.247189
