data_functionalizedCrystal
_audit_creation_method	'MofGen! by Chris Wilmer'
_symmetry_space_group_name_H-M	'P1'
_symmetry_Int_Tables_number	1
_symmetry_cell_setting	triclinic
loop_
_symmetry_equiv_pos_as_xyz
  x,y,z
_cell_length_a	19.188931
_cell_length_b	11.792241
_cell_length_c	18.266242
_cell_angle_alpha	90.006463
_cell_angle_beta	89.992492
_cell_angle_gamma	96.330902
loop_
_atom_site_label
_atom_site_type_symbol
_atom_site_fract_x
_atom_site_fract_y
_atom_site_fract_z
O1	O	0.926952	-0.141695	-0.060855
O2	O	0.723749	-0.160770	-0.060862
O3	O	0.830281	0.014012	-0.060853
O4	O	0.820419	-0.316477	-0.060864
O5	O	0.830263	0.014021	0.060909
O6	O	0.723730	-0.160761	0.060900
O7	O	0.926934	-0.141686	0.060907
Zn8	Zn	0.825329	-0.151222	0.080236
Zn9	Zn	0.825353	-0.151234	-0.080191
O10	O	0.820401	-0.316468	0.060898
C11	C	0.697725	-0.160148	0.000018
C12	C	0.620210	-0.158293	0.000015
C13	C	0.829653	0.056298	0.000028
C14	C	0.827798	0.182284	0.000027
C15	C	0.952957	-0.142309	0.000025
C16	C	1.030472	-0.144163	0.000023
C17	C	1.074815	-0.041607	0.000020
C18	C	1.147649	-0.043349	0.000025
C19	C	1.176136	-0.147653	0.000017
C20	C	1.131783	-0.250222	0.000024
C21	C	1.058951	-0.248477	0.000027
N22	N	1.284589	-0.227383	-0.041435
N23	N	1.353777	-0.229034	-0.041440
C24	C	1.395575	-0.152916	0.000010
N25	N	1.365572	-0.075068	0.041455
N26	N	1.296378	-0.073414	0.041456
C27	C	1.255110	-0.149556	0.000014
C28	C	1.518893	-0.052242	0.000013
C29	C	1.591728	-0.053988	0.000021
C30	C	1.575861	-0.260865	0.000014
C31	C	1.503027	-0.259116	0.000012
C32	C	1.474548	-0.154801	0.000008
C33	C	0.821029	-0.358754	0.000016
C34	C	0.822884	-0.484740	0.000012
N35	N	0.825318	-0.151214	0.189723
C36	C	0.824389	0.412945	0.000014
C37	C	0.826283	0.284588	0.000021
N38	N	0.825370	-0.151234	-0.189678
C39	C	0.872506	-0.073858	0.228036
C40	C	0.872511	-0.073853	0.304680
C41	C	0.825333	-0.151222	0.343010
C42	C	0.778136	-0.228584	0.304688
C43	C	0.778128	-0.228579	0.228044
N44	N	0.816827	-0.251692	0.463339
N45	N	0.816838	-0.251693	0.536147
C46	C	0.825353	-0.151239	0.573932
N47	N	0.833869	-0.050781	0.536159
N48	N	0.833861	-0.050781	0.463344
C49	C	0.825336	-0.151235	0.426117
C50	C	0.872549	-0.073871	0.695352
C51	C	0.872548	-0.073864	0.771998
C52	C	0.778177	-0.228605	0.772004
C53	C	0.778174	-0.228602	0.695359
C54	C	0.825364	-0.151237	0.657038
H55	H	1.051633	0.043334	0.000019
H56	H	0.739701	-0.291573	0.196849
C57	C	0.924410	0.011258	0.185887
N58	N	0.963501	0.075372	0.154139
C59	C	1.640506	0.058838	0.000021
N60	N	1.677246	0.143821	0.000019
C61	C	0.924451	0.011242	0.653196
N62	N	0.963544	0.075353	0.621446
C63	C	1.454248	-0.371937	0.000014
N64	N	1.417507	-0.456920	0.000020
C65	C	0.924450	0.011257	0.814142
N66	N	0.963541	0.075377	0.845886
H67	H	1.183760	0.040167	0.000020
H68	H	0.910938	-0.010858	0.335881
C69	C	1.487563	0.062505	0.000017
N70	N	1.463968	0.148933	0.000021
C71	C	0.726282	-0.313714	0.814162
N72	N	0.687192	-0.377820	0.845918
C73	C	0.726238	-0.313686	0.346851
N74	N	0.687144	-0.377783	0.378609
H75	H	1.022847	-0.331994	0.000030
H76	H	0.739752	-0.291597	0.664163
H77	H	1.154983	-0.335147	0.000020
H78	H	1.599054	-0.345791	0.000013
