data_functionalizedCrystal
_audit_creation_method	'MofGen! by Chris Wilmer'
_symmetry_space_group_name_H-M	'P1'
_symmetry_Int_Tables_number	1
_symmetry_cell_setting	triclinic
loop_
_symmetry_equiv_pos_as_xyz
  x,y,z
_cell_length_a	14.971486
_cell_length_b	12.837942
_cell_length_c	14.048226
_cell_angle_alpha	89.994377
_cell_angle_beta	89.998499
_cell_angle_gamma	89.221535
loop_
_atom_site_label
_atom_site_type_symbol
_atom_site_fract_x
_atom_site_fract_y
_atom_site_fract_z
O1	O	1.198338	0.135106	-0.079050
O2	O	0.939302	0.151285	-0.079075
O3	O	1.063076	-0.007715	-0.079057
O4	O	1.074564	0.294105	-0.079068
O5	O	1.063059	-0.007724	0.079264
O6	O	0.939284	0.151275	0.079246
O7	O	1.198320	0.135096	0.079272
Zn8	Zn	1.068800	0.143184	0.104396
Zn9	Zn	1.068822	0.143197	-0.104199
O10	O	1.074546	0.294096	0.079254
C11	C	0.905907	0.150556	0.000082
C12	C	0.806427	0.148388	0.000072
C13	C	0.757077	0.241796	0.000070
C14	C	0.663606	0.239752	0.000085
C15	C	0.619486	0.144300	0.000094
C16	C	0.668842	0.050885	0.000099
C17	C	0.762313	0.052930	0.000091
C18	C	0.474021	0.046630	0.000112
C19	C	0.380545	0.044585	0.000118
C20	C	0.375314	0.233453	0.000105
C21	C	0.468784	0.235498	0.000098
C22	C	0.518135	0.142082	0.000101
C23	C	1.059187	-0.046345	0.000103
C24	C	1.047612	-0.161436	0.000100
C25	C	1.186755	-0.402222	0.000094
C26	C	1.175884	-0.510362	0.000091
C27	C	1.015001	-0.485856	0.000085
C28	C	1.025872	-0.377717	0.000088
C29	C	1.111751	-0.335904	0.000093
C30	C	1.122621	-0.227763	0.000103
C31	C	0.961739	-0.203260	0.000090
C32	C	0.950868	-0.311399	0.000087
C33	C	1.231715	0.135824	0.000112
C34	C	1.331195	0.137993	0.000116
C35	C	1.078436	0.332726	0.000092
C36	C	1.090010	0.447817	0.000088
N37	N	1.068791	0.143175	0.246756
N38	N	1.068838	0.143197	-0.246560
C39	C	1.123619	0.072799	0.296583
C40	C	1.123625	0.072799	0.396240
C41	C	1.068807	0.143180	0.446070
C42	C	1.013972	0.213559	0.396237
C43	C	1.013962	0.213554	0.296581
C44	C	1.013998	0.213567	0.603951
C45	C	1.014009	0.213573	0.703614
C46	C	1.123662	0.072811	0.703610
C47	C	1.123652	0.072806	0.603954
C48	C	1.068818	0.143187	0.554128
H49	H	0.802492	-0.023133	0.000092
H50	H	1.168263	0.015491	0.256018
H51	H	1.236960	-0.564355	0.000088
O52	O	0.960633	0.281962	0.444491
C53	C	0.851905	0.421613	0.433968
C54	C	0.912253	0.344185	0.379205
H55	H	0.812788	0.471955	0.381209
H56	H	0.803353	0.376818	0.480611
H57	H	0.894953	0.473439	0.480638
H58	H	0.869277	0.292339	0.332484
H59	H	0.960809	0.389045	0.332623
H60	H	1.192549	-0.193721	0.000111
H61	H	0.792993	0.319524	0.000062
O62	O	0.511503	0.328308	0.000129
C63	C	0.496457	0.515424	0.000063
C64	C	0.447965	0.410389	0.000047
H65	H	0.445108	0.581814	-0.000024
H66	H	0.540063	0.521167	0.066332
H67	H	0.540110	0.521045	-0.066183
H68	H	0.404265	0.404698	0.066247
H69	H	0.404414	0.404692	-0.066266
H70	H	0.880947	-0.345458	0.000079
H71	H	0.623429	0.315815	0.000082
O72	O	0.931568	-0.526439	-0.000099
C73	C	0.790733	-0.538537	-0.082116
C74	C	0.885201	-0.492525	-0.082033
H75	H	0.753212	-0.511118	-0.148343
H76	H	0.795804	-0.627222	-0.082186
H77	H	0.753224	-0.511274	-0.015831
H78	H	0.922763	-0.519708	-0.148307
H79	H	0.880066	-0.403845	-0.081913
O80	O	1.176880	0.004298	0.751898
C81	C	1.213930	-0.175868	0.782440
C82	C	1.153611	-0.098402	0.727676
H83	H	1.195127	-0.258918	0.762892
H84	H	1.286737	-0.162296	0.762813
H85	H	1.204541	-0.163731	0.862222
H86	H	1.162922	-0.110493	0.647881
H87	H	1.080827	-0.111993	0.747383
O88	O	1.176980	0.004408	0.444493
C89	C	1.285725	-0.135223	0.433973
C90	C	1.225353	-0.057813	0.379209
H91	H	1.324836	-0.185564	0.381215
H92	H	1.334282	-0.090413	0.480586
H93	H	1.242696	-0.187052	0.480672
H94	H	1.268310	-0.005965	0.332458
H95	H	1.176791	-0.102688	0.332656
O96	O	0.337826	-0.048226	0.000171
C97	C	0.352872	-0.235342	0.000131
C98	C	0.401364	-0.130307	0.000096
H99	H	0.404221	-0.301732	0.000050
H100	H	0.309267	-0.241087	0.066405
H101	H	0.309217	-0.240960	-0.066110
H102	H	0.445065	-0.124618	0.066292
H103	H	0.444913	-0.124607	-0.066222
O104	O	0.521999	-0.044087	0.000281
C105	C	0.630612	-0.151374	0.082260
C106	C	0.576318	-0.048615	0.082206
H107	H	0.674556	-0.155058	0.148479
H108	H	0.583064	-0.219987	0.082325
H109	H	0.674458	-0.155118	0.015968
H110	H	0.532467	-0.044769	0.148487
H111	H	0.623915	0.019951	0.082092
O112	O	0.626086	-0.041902	-0.000020
C113	C	0.601918	-0.203917	-0.082067
C114	C	0.650410	-0.098882	-0.082034
H115	H	0.621551	-0.250006	-0.148377
H116	H	0.621606	-0.250161	-0.015854
H117	H	0.526639	-0.189308	-0.082020
H118	H	0.725698	-0.113396	-0.082115
H119	H	0.630648	-0.052672	-0.148241
O120	O	0.960618	0.281822	0.751983
C121	C	0.810244	0.342266	0.782469
C122	C	0.870607	0.264907	0.727645
H123	H	0.737460	0.328632	0.762796
H124	H	0.819601	0.330172	0.862263
H125	H	0.828998	0.425326	0.762883
H126	H	0.851891	0.181816	0.747151
H127	H	0.861243	0.277092	0.647864
H128	H	0.335129	0.309515	0.000107
H129	H	0.900666	-0.149251	0.000097
H130	H	1.256681	-0.368178	0.000108
H131	H	1.168294	0.015502	0.563383
H132	H	0.969343	0.270875	0.563386
H133	H	0.969313	0.270860	0.256013
