data_functionalizedCrystal
_audit_creation_method	'MofGen! by Chris Wilmer'
_symmetry_space_group_name_H-M	'P1'
_symmetry_Int_Tables_number	1
_symmetry_cell_setting	triclinic
loop_
_symmetry_equiv_pos_as_xyz
  x,y,z
_cell_length_a	27.732064
_cell_length_b	27.731996
_cell_length_c	14.472310
_cell_angle_alpha	89.992904
_cell_angle_beta	89.994644
_cell_angle_gamma	82.635407
loop_
_atom_site_label
_atom_site_type_symbol
_atom_site_fract_x
_atom_site_fract_y
_atom_site_fract_z
O1	O	0.640917	0.057553	-0.076688
O2	O	1.140917	0.557553	0.423312
O3	O	0.500124	0.066291	-0.076728
O4	O	1.000124	0.566291	0.423272
O5	O	0.574906	-0.008476	-0.076687
O6	O	1.074906	0.491524	0.423313
O7	O	0.566135	0.132320	-0.076729
O8	O	1.066135	0.632320	0.423271
O9	O	0.574887	-0.008472	0.076995
O10	O	1.074887	0.491528	0.576995
O11	O	0.500104	0.066295	0.076954
O12	O	1.000104	0.566295	0.576954
O13	O	0.640898	0.057558	0.076994
O14	O	1.140898	0.557558	0.576994
Cu15	Cu	0.570500	0.061927	0.091007
Cu16	Cu	1.070500	0.561927	0.591007
Cu17	Cu	0.570522	0.061922	-0.090740
Cu18	Cu	1.070522	0.561922	0.409260
O19	O	0.566115	0.132325	0.076953
O20	O	1.066115	0.632325	0.576953
C21	C	0.482107	0.066108	0.000109
C22	C	0.982107	0.566108	0.500109
C23	C	0.428453	0.065552	0.000094
C24	C	0.928453	0.565552	0.500094
C25	C	0.051389	0.017584	0.000161
C26	C	0.551389	0.517584	0.500161
C27	C	0.253049	0.019630	0.000137
C28	C	0.753049	0.519630	0.500137
O29	O	0.284309	-0.017592	0.000183
O30	O	0.784309	0.482408	0.500183
N31	N	0.272168	0.063966	0.000119
N32	N	0.772168	0.563966	0.500119
C33	C	0.240869	0.107793	0.000114
C34	C	0.740869	0.607793	0.500114
O35	O	0.261758	0.145549	0.000108
O36	O	0.761758	0.645549	0.500108
C37	C	0.039210	0.105746	0.000145
C38	C	0.539210	0.605746	0.500145
C39	C	0.020094	0.061407	0.000153
C40	C	0.520094	0.561407	0.500153
C41	C	0.032272	-0.026751	0.000171
C42	C	0.532272	0.473249	0.500171
C43	C	-0.018140	-0.027262	0.000172
C44	C	0.481860	0.472738	0.500172
C45	C	-0.049435	0.016562	0.000164
C46	C	0.450565	0.516562	0.500164
C47	C	-0.030318	0.060896	0.000155
C48	C	0.469682	0.560896	0.500155
C49	C	0.007912	0.149572	0.000147
C50	C	0.507912	0.649572	0.500147
C51	C	-0.042506	0.149057	0.000157
C52	C	0.457494	0.649057	0.500157
C53	C	-0.061622	0.104718	0.000165
C54	C	0.438378	0.604718	0.500165
C55	C	-0.112026	0.104209	0.000148
C56	C	0.387974	0.604209	0.500148
N57	N	-0.131145	0.059873	0.000165
N58	N	0.368855	0.559873	0.500165
C59	C	-0.099849	0.016050	0.000173
C60	C	0.400151	0.516050	0.500173
C61	C	0.346743	0.108864	0.000096
C62	C	0.846743	0.608864	0.500096
C63	C	0.397158	0.109376	0.000086
C64	C	0.897158	0.609376	0.500086
C65	C	0.409334	0.021213	0.000111
C66	C	0.909334	0.521213	0.500111
C67	C	0.358919	0.020702	0.000114
C68	C	0.858919	0.520702	0.500114
C69	C	0.327624	0.064529	0.000113
C70	C	0.827624	0.564529	0.500113
C71	C	-0.205719	0.014980	0.000175
C72	C	0.294281	0.514980	0.500175
C73	C	-0.256136	0.014473	0.000172
C74	C	0.243864	0.514473	0.500172
C75	C	-0.268308	0.102635	0.000152
C76	C	0.231692	0.602635	0.500152
C77	C	-0.217895	0.103142	0.000150
C78	C	0.282105	0.603142	0.500150
C79	C	-0.186601	0.059311	0.000165
C80	C	0.313399	0.559311	0.500165
O81	O	-0.143313	0.141411	0.000112
O82	O	0.356687	0.641411	0.500112
O83	O	-0.120748	-0.021702	0.000200
O84	O	0.379252	0.478298	0.500200
C85	C	0.101801	0.018095	0.000160
C86	C	0.601801	0.518095	0.500160
C87	C	0.120918	0.062430	0.000151
C88	C	0.620918	0.562430	0.500151
C89	C	0.089623	0.106253	0.000143
C90	C	0.589623	0.606253	0.500143
C91	C	0.171332	0.062941	0.000142
C92	C	0.671332	0.562941	0.500142
C93	C	0.202628	0.019118	0.000150
C94	C	0.702628	0.519118	0.500150
C95	C	0.183508	-0.025218	0.000167
C96	C	0.683508	0.474782	0.500167
C97	C	0.133096	-0.025729	0.000168
C98	C	0.633096	0.474271	0.500168
C99	C	0.108742	0.150589	0.000126
C100	C	0.608742	0.650589	0.500126
C101	C	0.159154	0.151096	0.000124
C102	C	0.659154	0.651096	0.500124
C103	C	0.190450	0.107273	0.000132
C104	C	0.690450	0.607273	0.500132
C105	C	0.574717	-0.026482	0.000158
C106	C	1.074717	0.473518	0.500158
C107	C	0.574174	-0.080138	0.000167
C108	C	1.074174	0.419862	0.500167
C109	C	0.570770	-0.412857	-0.083651
C110	C	1.070770	0.087143	0.416349
C111	C	0.568709	-0.614515	-0.083668
C112	C	1.068709	-0.114515	0.416332
O113	O	0.568430	-0.640588	-0.154914
O114	O	1.068430	-0.140588	0.345086
N115	N	0.568442	-0.639730	0.000103
N116	N	1.068442	-0.139730	0.500103
C117	C	0.568688	-0.614526	0.083884
C118	C	1.068688	-0.114526	0.583884
O119	O	0.568409	-0.640600	0.155137
O120	O	1.068409	-0.140600	0.655137
C121	C	0.570745	-0.412868	0.083900
C122	C	1.070745	0.087132	0.583900
C123	C	0.571017	-0.387657	0.000124
C124	C	1.071017	0.112343	0.500124
C125	C	0.571040	-0.387645	-0.167421
C126	C	1.071040	0.112355	0.332579
C127	C	0.571558	-0.337234	-0.167416
C128	C	1.071558	0.162766	0.332584
C129	C	0.571805	-0.312034	-0.083641
C130	C	1.071805	0.187966	0.416359
C131	C	0.571535	-0.337246	0.000129
C132	C	1.071535	0.162754	0.500129
C133	C	0.570988	-0.387666	0.167681
C134	C	1.070988	0.112334	0.667681
C135	C	0.571501	-0.337248	0.167677
C136	C	1.071501	0.162752	0.667677
C137	C	0.571772	-0.312036	0.083901
C138	C	1.071772	0.187964	0.583901
C139	C	0.572300	-0.261635	0.083909
C140	C	1.072300	0.238365	0.583909
N141	N	0.572566	-0.236420	0.000137
N142	N	1.072566	0.263580	0.500137
C143	C	0.572319	-0.261620	-0.083637
C144	C	1.072319	0.238380	0.416363
C145	C	0.567609	-0.720400	0.083870
C146	C	1.067609	-0.220400	0.583870
C147	C	0.567095	-0.770814	0.083866
C148	C	1.067095	-0.270814	0.583866
C149	C	0.567115	-0.770799	-0.083686
C150	C	1.067115	-0.270799	0.416314
C151	C	0.567632	-0.720384	-0.083682
C152	C	1.067632	-0.220384	0.416318
C153	C	0.567875	-0.695185	0.000099
C154	C	1.067875	-0.195185	0.500099
C155	C	0.573407	-0.155753	-0.083621
C156	C	1.073407	0.344247	0.416379
C157	C	0.573927	-0.105337	-0.083608
C158	C	1.073927	0.394663	0.416392
C159	C	0.573904	-0.105356	0.083944
C160	C	1.073904	0.394644	0.583944
C161	C	0.573387	-0.155768	0.083932
C162	C	1.073387	0.344232	0.583932
C163	C	0.573137	-0.180964	0.000142
C164	C	1.073137	0.319036	0.500142
O165	O	0.572573	-0.235530	0.155117
O166	O	1.072573	0.264470	0.655117
O167	O	0.572587	-0.235537	-0.154879
O168	O	1.072587	0.264463	0.345121
C169	C	0.570252	-0.463268	-0.083656
C170	C	1.070252	0.036732	0.416344
C171	C	0.569981	-0.488479	0.000113
C172	C	1.069981	0.011521	0.500113
C173	C	0.570228	-0.463280	0.083888
C174	C	1.070228	0.036720	0.583888
C175	C	0.569467	-0.538894	0.000110
C176	C	1.069467	-0.038894	0.500110
C177	C	0.569220	-0.564093	-0.083665
C178	C	1.069220	-0.064093	0.416335
C179	C	0.569487	-0.538879	-0.167436
C180	C	1.069487	-0.038879	0.332564
C181	C	0.570005	-0.488468	-0.167431
C182	C	1.070005	0.011532	0.332569
C183	C	0.569962	-0.488495	0.167660
C184	C	1.069962	0.011505	0.667660
C185	C	0.569444	-0.538906	0.167648
C186	C	1.069444	-0.038906	0.667648
C187	C	0.569197	-0.564106	0.083873
C188	C	1.069197	-0.064106	0.583873
C189	C	0.658915	0.057740	0.000156
C190	C	1.158915	0.557740	0.500156
C191	C	0.712569	0.058296	0.000164
C192	C	1.212569	0.558296	0.500164
C193	C	0.566305	0.150330	0.000107
C194	C	1.066305	0.650330	0.500107
C195	C	0.566848	0.203986	0.000092
C196	C	1.066848	0.703986	0.500092
N197	N	0.570487	0.061930	0.218838
N198	N	1.070487	0.561930	0.718838
N199	N	0.570538	0.061914	-0.218571
N200	N	1.070538	0.561914	0.281429
C201	C	0.570522	0.061920	0.592929
C202	C	1.070522	0.561920	1.092929
C203	C	0.530375	0.101794	0.553741
C204	C	1.030375	0.601794	1.053741
C205	C	0.530465	0.101937	0.446653
C206	C	1.030465	0.601937	0.946653
C207	C	0.570504	0.061925	0.407338
C208	C	1.070504	0.561925	0.907338
C209	C	0.620857	0.072568	0.446185
C210	C	1.120857	0.572568	0.946185
C211	C	0.620631	0.072851	0.553307
C212	C	1.120631	0.572851	1.053307
C213	C	0.560767	0.011282	0.553470
C214	C	1.060767	0.511282	1.053470
C215	C	0.559608	0.011629	0.446342
C216	C	1.059608	0.511629	0.946342
C217	C	0.570497	0.061927	0.302450
C218	C	1.070497	0.561927	0.802450
C219	C	0.570532	0.061919	0.697817
C220	C	1.070532	0.561919	1.197817
H221	H	-0.271697	-0.021635	0.000176
H222	H	0.228303	0.478365	0.500176
C223	C	0.662160	0.034357	0.411779
C224	C	1.162160	0.534357	0.911779
N225	N	0.693270	0.005576	0.385862
N226	N	1.193270	0.505576	0.885862
H227	H	0.321266	0.144555	0.000094
H228	H	0.821266	0.644555	0.500094
C229	C	0.574171	-0.077627	0.176092
C230	C	1.074171	0.422373	0.676092
N231	N	0.574367	-0.056738	0.245499
N232	N	1.074367	0.443262	0.745499
C233	C	0.028928	0.198349	0.000153
C234	C	0.528928	0.698349	0.500153
N235	N	0.044756	0.235090	0.000164
N236	N	0.544756	0.735090	0.500164
C237	C	0.337896	-0.028073	0.000133
C238	C	0.837896	0.471927	0.500133
N239	N	0.322065	-0.064813	0.000152
N240	N	0.822065	0.435187	0.500152
H241	H	0.570837	-0.408157	-0.235645
H242	H	1.070837	0.091843	0.264355
H243	H	0.586979	-0.019405	0.419584
H244	H	1.086979	0.480595	0.919584
H245	H	-0.293798	0.138315	0.000141
H246	H	0.206202	0.638315	0.500141
C247	C	0.180175	0.199875	0.000118
C248	C	0.680175	0.699875	0.500118
N249	N	0.196007	0.236615	0.000125
N250	N	0.696007	0.736615	0.500125
C251	C	-0.196867	0.151916	0.000131
C252	C	0.303133	0.651916	0.500131
N253	N	-0.181032	0.188654	0.000125
N254	N	0.318968	0.688654	0.500125
H255	H	0.493025	0.095652	0.420389
H256	H	0.993025	0.595652	0.920389
C257	C	-0.171302	-0.033237	0.000183
C258	C	0.328698	0.466763	0.500183
N259	N	-0.145380	-0.069554	0.000183
N260	N	0.354620	0.430446	0.500183
H261	H	0.057749	-0.062439	0.000180
H262	H	0.557749	0.437561	0.500180
H263	H	0.412717	0.145480	0.000067
H264	H	0.912717	0.645480	0.500067
H265	H	0.573171	-0.176297	0.152150
H266	H	1.073171	0.323703	0.652150
H267	H	-0.033699	-0.063367	0.000182
H268	H	0.466301	0.436633	0.500182
H269	H	0.536654	0.139522	0.421010
H270	H	1.036654	0.639522	0.921010
H271	H	0.522570	0.003543	0.420952
H272	H	1.022570	0.503543	0.920952
C273	C	0.538616	0.152285	0.590080
C274	C	1.038616	0.652285	1.090080
N275	N	0.544825	0.190315	0.617453
N276	N	1.044825	0.690315	1.117453
C277	C	0.567926	-0.692656	-0.175842
C278	C	1.067926	-0.192656	0.324158
N279	N	0.568146	-0.671773	-0.245261
N280	N	1.068146	-0.171773	0.254739
H281	H	0.571691	-0.316732	0.235903
H282	H	1.071691	0.183268	0.735903
C283	C	0.217943	-0.073424	0.000181
C284	C	0.717943	0.426576	0.500181
N285	N	0.243881	-0.109730	0.000199
N286	N	0.743881	0.390270	0.500199
C287	C	0.443768	-0.026993	0.000127
C288	C	0.943768	0.473007	0.500127
N289	N	0.469706	-0.063300	0.000148
N290	N	0.969706	0.436700	0.500148
C291	C	0.567879	-0.692687	0.176042
C292	C	1.067879	-0.192687	0.676042
N293	N	0.568085	-0.671817	0.245467
N294	N	1.068085	-0.171817	0.745467
H295	H	-0.067984	0.184746	0.000161
H296	H	0.432016	0.684746	0.500161
H297	H	0.524868	0.000955	0.580531
H298	H	1.024868	0.500955	1.080531
H299	H	0.117537	-0.061833	0.000175
H300	H	0.617537	0.438167	0.500175
C301	C	0.574224	-0.077608	-0.175773
C302	C	1.074224	0.422392	0.324227
N303	N	0.574446	-0.056723	-0.245189
N304	N	1.074446	0.443277	0.254811
C305	C	0.600323	-0.028800	0.587713
C306	C	1.100323	0.471200	1.087713
N307	N	0.630117	-0.058986	0.613511
N308	N	1.130117	0.441014	1.113511
H309	H	0.570225	-0.467945	-0.235651
H310	H	1.070225	0.032055	0.264349
H311	H	0.083265	0.186276	0.000120
H312	H	0.583265	0.686276	0.500120
H313	H	0.573201	-0.176262	-0.151850
H314	H	1.073201	0.323738	0.348150
C315	C	0.566839	-0.798528	-0.175840
C316	C	1.066839	-0.298528	0.324160
N317	N	0.566627	-0.819414	-0.245246
N318	N	1.066627	-0.319414	0.254754
H319	H	0.571777	-0.316711	-0.235636
H320	H	1.071777	0.183289	0.264364
C321	C	0.566801	-0.798542	0.176027
C322	C	1.066801	-0.298542	0.676027
N323	N	0.566577	-0.819424	0.245446
N324	N	1.066577	-0.319424	0.745446
H325	H	0.570767	-0.408184	0.235901
H326	H	1.070767	0.091816	0.735901
C327	C	0.569213	-0.566608	-0.259589
C328	C	1.069213	-0.066608	0.240411
N329	N	0.569004	-0.587496	-0.328994
N330	N	1.069004	-0.087496	0.171006
H331	H	0.569227	-0.559429	0.235874
H332	H	1.069227	-0.059429	0.735874
C333	C	0.570235	-0.460782	0.259824
C334	C	1.070235	0.039218	0.759824
N335	N	0.570444	-0.439912	0.329248
N336	N	1.070444	0.060088	0.829248
H337	H	0.629286	0.109769	0.578274
H338	H	1.129286	0.609769	1.078274
C339	C	0.479629	0.093458	0.588589
C340	C	0.979629	0.593458	1.088589
N341	N	0.441407	0.087182	0.614849
N342	N	0.941407	0.587182	1.114849
C343	C	0.662185	0.035094	0.588329
C344	C	1.162185	0.535094	1.088329
N345	N	0.693488	0.006663	0.614704
N346	N	1.193488	0.506663	1.114704
H347	H	0.629728	0.109063	0.419340
H348	H	1.129728	0.609063	0.919340
