data_functionalizedCrystal
_audit_creation_method	'MofGen! by Chris Wilmer'
_symmetry_space_group_name_H-M	'P1'
_symmetry_Int_Tables_number	1
_symmetry_cell_setting	triclinic
loop_
_symmetry_equiv_pos_as_xyz
  x,y,z
_cell_length_a	14.853566
_cell_length_b	19.188924
_cell_length_c	13.930277
_cell_angle_alpha	89.993371
_cell_angle_beta	89.995631
_cell_angle_gamma	83.388189
loop_
_atom_site_label
_atom_site_type_symbol
_atom_site_fract_x
_atom_site_fract_y
_atom_site_fract_z
O1	O	1.195859	0.091151	-0.079772
O2	O	0.933339	0.102011	-0.079788
O3	O	1.072178	-0.005050	-0.079768
O4	O	1.057020	0.198212	-0.079792
O5	O	1.072159	-0.005052	0.079893
O6	O	0.933320	0.102009	0.079873
O7	O	1.195840	0.091149	0.079890
Zn8	Zn	1.064577	0.096578	0.105231
Zn9	Zn	1.064602	0.096581	-0.105130
O10	O	1.057001	0.198209	0.079870
C11	C	0.899743	0.101518	0.000041
C12	C	0.799668	0.100044	0.000035
C13	C	0.376528	0.093810	-0.086979
C14	C	0.376529	0.093808	0.087090
C15	C	0.470555	0.095192	0.087087
C16	C	0.517572	0.095887	0.000049
C17	C	0.470563	0.095197	-0.086985
C18	C	0.517570	0.095890	0.174120
C19	C	0.611602	0.097275	0.174120
C20	C	0.658622	0.097964	0.087082
C21	C	0.611607	0.097273	0.000044
C22	C	0.658624	0.097967	-0.086994
C23	C	0.611612	0.097272	-0.174033
C24	C	0.517583	0.095886	-0.174024
C25	C	0.752651	0.099350	0.087072
C26	C	0.752659	0.099354	-0.087000
C27	C	1.071679	-0.031064	0.000063
C28	C	1.070208	-0.108573	0.000066
C29	C	1.069533	-0.144973	-0.086966
C30	C	1.068138	-0.217801	-0.086973
C31	C	1.067438	-0.254227	0.000056
C32	C	1.068109	-0.217818	0.087099
C33	C	1.069494	-0.144991	0.087104
N34	N	1.116558	-0.373727	0.064833
N35	N	1.115244	-0.442910	0.064823
C36	C	1.063262	-0.473650	0.000047
N37	N	1.012655	-0.432595	-0.064733
N38	N	1.013973	-0.363406	-0.064725
C39	C	1.065935	-0.333195	0.000060
C40	C	1.061073	-0.589018	-0.086999
C41	C	1.059673	-0.661846	-0.087003
C42	C	1.059652	-0.661862	0.087072
C43	C	1.061043	-0.589035	0.087074
C44	C	1.061758	-0.552617	0.000035
C45	C	1.229436	0.091642	0.000059
C46	C	1.329511	0.093116	0.000058
C47	C	1.057500	0.224223	0.000036
C48	C	1.058971	0.301733	0.000027
N49	N	1.064566	0.096576	0.248798
N50	N	1.064620	0.096578	-0.248696
C51	C	1.003122	0.143969	0.701058
C52	C	1.126107	0.049188	0.701045
C53	C	1.126097	0.049186	0.600549
C54	C	1.064599	0.096577	0.550303
C55	C	1.003111	0.143970	0.600553
C56	C	1.187589	0.001799	0.550292
C57	C	1.187581	0.001795	0.449790
C58	C	1.126078	0.049183	0.399542
C59	C	1.064588	0.096577	0.449798
C60	C	1.003090	0.143968	0.399552
C61	C	0.941594	0.191360	0.449806
C62	C	0.941608	0.191358	0.550305
C63	C	1.126064	0.049185	0.299044
C64	C	1.003079	0.143969	0.299047
H65	H	0.479297	0.095319	-0.244886
O66	O	0.657287	0.098067	0.258640
C67	C	0.753049	0.160035	0.359630
C68	C	0.701332	0.159238	0.263889
H69	H	0.788688	0.209480	0.363897
H70	H	0.703326	0.159346	0.421877
H71	H	0.805474	0.111834	0.363966
H72	H	0.648906	0.207431	0.259460
H73	H	0.751109	0.159892	0.201688
H74	H	1.059118	-0.691481	-0.157878
H75	H	0.649905	0.097842	-0.244899
O76	O	1.247344	-0.044310	0.401127
C77	C	1.369364	-0.138296	0.411729
C78	C	1.301722	-0.086129	0.466961
H79	H	1.413359	-0.172110	0.464932
H80	H	1.330623	-0.173280	0.364723
H81	H	1.414231	-0.108077	0.364632
H82	H	1.256838	-0.116291	0.514110
H83	H	1.340519	-0.051145	0.513906
H84	H	1.176137	0.010603	0.258131
O85	O	0.330803	0.093260	-0.171499
C86	C	0.214150	0.152110	-0.272500
C87	C	0.265878	0.152827	-0.176758
H88	H	0.161633	0.200257	-0.276775
H89	H	0.263858	0.152890	-0.334746
H90	H	0.178620	0.102614	-0.276832
H91	H	0.301411	0.202314	-0.172333
H92	H	0.216127	0.152010	-0.114558
H93	H	1.070112	-0.115326	-0.157840
O94	O	0.798183	0.100059	-0.171637
C95	C	0.788266	0.099871	-0.344291
C96	C	0.736597	0.099086	-0.248511
H97	H	0.738499	0.099070	-0.406470
H98	H	0.823812	0.149356	-0.348719
H99	H	0.840761	0.051711	-0.348587
H100	H	0.684059	0.147212	-0.244151
H101	H	0.701114	0.049569	-0.244124
O102	O	0.330973	0.093043	0.171693
C103	C	0.312603	0.032154	0.320451
C104	C	0.364285	0.032944	0.224679
H105	H	0.339502	-0.016440	0.363308
H106	H	0.322669	0.081214	0.363433
H107	H	0.237321	0.031081	0.305477
H108	H	0.439583	0.033992	0.239565
H109	H	0.354144	-0.016114	0.181726
H110	H	0.952996	0.182558	0.258143
O111	O	0.881756	0.237321	0.599081
C112	C	0.724845	0.278035	0.629832
C113	C	0.792525	0.225933	0.574544
H114	H	0.652688	0.268855	0.609999
H115	H	0.735345	0.269892	0.710303
H116	H	0.736407	0.333970	0.610075
H117	H	0.781004	0.169977	0.594222
H118	H	0.782008	0.234136	0.494088
O119	O	1.058806	-0.697184	0.171644
C120	C	0.980292	-0.711592	0.320439
C121	C	0.981136	-0.671549	0.224681
H122	H	0.917512	-0.690871	0.363355
H123	H	0.979122	-0.769901	0.305557
H124	H	1.043663	-0.703617	0.363326
H125	H	0.917777	-0.679466	0.181745
H126	H	0.982353	-0.613255	0.239630
O127	O	1.061602	-0.553643	-0.171562
C128	C	0.984000	-0.523514	-0.320369
C129	C	0.983272	-0.563596	-0.224632
H130	H	0.920686	-0.531559	-0.363312
H131	H	0.985058	-0.465198	-0.305456
H132	H	1.046840	-0.544152	-0.363244
H133	H	0.920442	-0.543017	-0.181709
H134	H	0.982261	-0.621906	-0.239612
O135	O	0.472010	0.095125	0.258721
C136	C	0.453636	0.034241	0.407482
C137	C	0.505325	0.035030	0.311715
H138	H	0.480538	-0.014348	0.450346
H139	H	0.463692	0.083306	0.450461
H140	H	0.378357	0.033162	0.392502
H141	H	0.580621	0.036085	0.326607
H142	H	0.495195	-0.014031	0.268765
O143	O	0.798434	0.099934	0.171549
C144	C	0.915010	0.041039	0.272603
C145	C	0.863246	0.040300	0.176885
H146	H	0.967408	-0.007178	0.276957
H147	H	0.950656	0.090477	0.276954
H148	H	0.865231	0.040343	0.334796
H149	H	0.912964	0.040970	0.114637
H150	H	0.827585	-0.009134	0.172617
H151	H	1.067582	-0.247443	-0.157848
O152	O	1.067305	-0.253262	0.171580
C153	C	0.987612	-0.327624	0.272616
C154	C	0.988426	-0.287532	0.176895
H155	H	0.923835	-0.355329	0.276954
H156	H	1.049997	-0.368092	0.276990
H157	H	0.988376	-0.289084	0.334807
H158	H	0.987630	-0.326018	0.114650
H159	H	0.926046	-0.247053	0.172605
O160	O	1.070191	-0.109741	0.171737
C161	C	1.069959	-0.117436	0.344393
C162	C	1.069189	-0.157447	0.248616
H163	H	1.069130	-0.155987	0.406574
H164	H	1.133700	-0.089693	0.348820
H165	H	1.007546	-0.076991	0.348684
H166	H	1.131558	-0.197925	0.244260
H167	H	1.005406	-0.185141	0.244229
O168	O	1.185922	0.003123	0.749701
C169	C	1.307846	-0.090936	0.739090
C170	C	1.240173	-0.038786	0.683863
H171	H	1.351713	-0.124844	0.685884
H172	H	1.352834	-0.060774	0.786106
H173	H	1.269038	-0.125833	0.786177
H174	H	1.278907	-0.003877	0.636724
H175	H	1.195186	-0.068992	0.636908
H176	H	1.061601	-0.559398	0.157945
O177	O	0.943299	0.190028	0.749719
C178	C	0.821340	0.284061	0.739111
C179	C	0.889029	0.231928	0.683883
H180	H	0.777459	0.317962	0.685906
H181	H	0.776369	0.253885	0.786143
H182	H	0.860134	0.318967	0.786181
H183	H	0.850309	0.197010	0.636760
H184	H	0.934000	0.262149	0.636911
H185	H	0.891526	0.229949	0.408884
H186	H	1.237663	-0.036782	0.591206
