data_functionalizedCrystal
_audit_creation_method	'MofGen! by Chris Wilmer'
_symmetry_space_group_name_H-M	'P1'
_symmetry_Int_Tables_number	1
_symmetry_cell_setting	triclinic
loop_
_symmetry_equiv_pos_as_xyz
  x,y,z
_cell_length_a	11.169417
_cell_length_b	12.759400
_cell_length_c	12.759393
_cell_angle_alpha	90.031564
_cell_angle_beta	90.018340
_cell_angle_gamma	90.015563
loop_
_atom_site_label
_atom_site_type_symbol
_atom_site_fract_x
_atom_site_fract_y
_atom_site_fract_z
Zn1	Zn	1.834908	-0.418180	0.593977
Zn2	Zn	1.834788	-0.593899	0.418297
Zn3	Zn	1.634200	-0.418237	0.418317
Zn4	Zn	1.634187	-0.593820	0.593939
O5	O	1.734521	-0.506034	0.506132
O6	O	2.002842	-0.441498	0.570680
O7	O	1.808134	-0.570654	0.271279
O8	O	1.660880	-0.271208	0.441643
O9	O	2.002754	-0.570598	0.441609
O10	O	1.808340	-0.271166	0.570699
O11	O	1.660763	-0.441596	0.271293
O12	O	1.466248	-0.441519	0.441606
O13	O	1.660858	-0.570464	0.740965
O14	O	1.466239	-0.570519	0.570635
O15	O	1.808327	-0.441422	0.740993
O16	O	1.808122	-0.740909	0.441572
O17	O	1.660741	-0.740851	0.570616
C18	C	1.734449	-0.779001	0.506111
C19	C	1.734529	-0.895778	0.506136
C20	C	1.422696	-0.506018	0.506119
C21	C	1.289296	-0.506036	0.506138
C22	C	1.811355	-0.950635	0.439018
C23	C	1.811429	-1.060359	0.439050
C24	C	1.657840	-1.060359	0.573323
C25	C	1.657773	-0.950637	0.573295
C26	C	1.900025	-0.950636	0.361493
C27	C	1.900099	-1.060360	0.361526
C28	C	2.047563	-0.506051	0.506147
C29	C	2.180963	-0.506058	0.506153
C30	C	1.734605	-0.505928	0.780166
C31	C	1.734640	-0.505883	0.896943
C32	C	1.734625	-0.232000	0.506177
C33	C	1.734669	-0.115224	0.506197
C34	C	1.734506	-0.506064	0.233165
C35	C	1.734703	-0.505813	0.116389
C36	C	1.811438	-0.438684	0.951821
C37	C	1.811467	-0.438646	1.061545
C38	C	1.657896	-0.573014	1.061503
C39	C	1.657863	-0.573046	0.951781
C40	C	1.900105	-0.361111	0.951846
C41	C	1.900134	-0.361073	1.061570
H42	H	1.595348	-1.105039	0.628001
H43	H	1.875267	-1.090223	0.280145
H44	H	1.988377	-0.390278	0.917810
H45	H	1.595226	-0.905973	0.627957
C46	C	2.019390	-1.106232	0.400984
C47	C	2.021259	-1.177463	0.498359
C48	C	2.140545	-1.223340	0.537817
C49	C	2.257962	-1.197985	0.479900
C50	C	2.256097	-1.126750	0.382519
C51	C	2.136811	-1.080874	0.343061
H52	H	1.934336	-1.196236	0.541238
H53	H	2.141925	-1.276072	0.609905
H54	H	2.346265	-1.231945	0.509109
H55	H	2.343020	-1.107978	0.339640
H56	H	2.135432	-1.028141	0.270973
H57	H	1.866754	-0.916689	0.284167
H58	H	1.875237	-0.279747	0.922090
C59	C	1.573359	-0.646933	0.891400
C60	C	1.625270	-0.729441	0.815927
C61	C	1.540755	-0.803318	0.755539
C62	C	1.404329	-0.794688	0.770624
C63	C	1.352411	-0.712177	0.846101
C64	C	1.436927	-0.638299	0.906489
H65	H	1.726267	-0.735833	0.804756
H66	H	1.579188	-0.864398	0.699666
H67	H	1.341765	-0.849376	0.725922
H68	H	1.251414	-0.705785	0.857271
H69	H	1.398493	-0.577219	0.962362
C70	C	2.025549	-0.910287	0.391019
C71	C	2.095868	-0.840916	0.313832
C72	C	2.221388	-0.800567	0.343358
C73	C	2.276590	-0.829590	0.450072
C74	C	2.206270	-0.898964	0.527266
C75	C	2.080750	-0.939313	0.497740
H76	H	2.055006	-0.819429	0.234829
H77	H	2.273443	-0.749211	0.286213
H78	H	2.369507	-0.799721	0.471929
H79	H	2.247133	-0.920452	0.606268
H80	H	2.028695	-0.990669	0.554885
H81	H	1.866875	-0.283764	1.095618
H82	H	1.993087	-0.382864	1.091348
C83	C	1.573449	-0.646896	1.121828
C84	C	1.573478	-0.646863	1.242518
C85	C	1.489030	-0.720747	1.302840
C86	C	1.404553	-0.794666	1.242472
C87	C	1.404521	-0.794702	1.121775
C88	C	1.488969	-0.720817	1.061453
H89	H	1.636016	-0.592142	1.287212
H90	H	1.489054	-0.720720	1.392188
H91	H	1.342039	-0.849359	1.287126
H92	H	1.341983	-0.849423	1.077081
H93	H	1.488945	-0.720844	0.972105
