data_functionalizedCrystal
_audit_creation_method	'MofGen! by Chris Wilmer'
_symmetry_space_group_name_H-M	'P1'
_symmetry_Int_Tables_number	1
_symmetry_cell_setting	triclinic
loop_
_symmetry_equiv_pos_as_xyz
  x,y,z
_cell_length_a	16.992694
_cell_length_b	15.072220
_cell_length_c	16.992695
_cell_angle_alpha	89.999147
_cell_angle_beta	89.331777
_cell_angle_gamma	90.007079
loop_
_atom_site_label
_atom_site_type_symbol
_atom_site_fract_x
_atom_site_fract_y
_atom_site_fract_z
O1	O	1.050860	0.073672	-0.166912
O2	O	0.822460	0.073698	-0.165081
O3	O	0.935744	0.073678	-0.051796
O4	O	0.937576	0.073692	-0.280196
O5	O	0.935715	-0.073887	-0.051801
O6	O	0.822430	-0.073867	-0.165086
O7	O	1.050831	-0.073893	-0.166917
Zn8	Zn	0.936626	-0.097309	-0.166002
Zn9	Zn	0.936665	0.097114	-0.165996
O10	O	0.937546	-0.073873	-0.280201
C11	C	0.793085	-0.000081	-0.162727
C12	C	0.705600	-0.000071	-0.155699
N13	N	0.936605	-0.229998	-0.166006
C14	C	0.659610	-0.000068	-0.223517
C15	C	0.577409	-0.000080	-0.216908
C16	C	0.541201	-0.000090	-0.142480
C17	C	0.587198	-0.000096	-0.074657
C18	C	0.669397	-0.000090	-0.081267
C19	C	0.295886	-0.000116	-0.115086
C20	C	0.213681	-0.000119	-0.108481
C21	C	0.203898	-0.000105	-0.250732
C22	C	0.286099	-0.000093	-0.257336
C23	C	0.332089	-0.000104	-0.189512
N24	N	0.457178	-0.000100	-0.135723
N25	N	0.416110	-0.000100	-0.196270
C26	C	0.936663	-0.589199	-0.165992
C27	C	0.875816	-0.551582	-0.226378
C28	C	0.875979	-0.448756	-0.226623
C29	C	0.936633	-0.410995	-0.165999
C30	C	1.019894	-0.448295	-0.189086
C31	C	1.019559	-0.551153	-0.189521
C32	C	0.914970	-0.551302	-0.082375
C33	C	0.913120	-0.448439	-0.082808
C34	C	0.936622	-0.310282	-0.166002
C35	C	0.936680	-0.689913	-0.165992
C36	C	1.080205	-0.000112	-0.169270
C37	C	1.167690	-0.000116	-0.176299
C38	C	0.933374	-0.000104	-0.022439
C39	C	0.926345	-0.000103	0.065046
N40	N	0.936691	0.229803	-0.165986
C41	C	0.939917	-0.000089	-0.309559
C42	C	0.946945	-0.000084	-0.397044
C43	C	0.994163	-0.000112	0.111037
C44	C	0.987554	-0.000102	0.193238
C45	C	0.913126	-0.000091	0.229446
C46	C	0.845303	-0.000080	0.183449
C47	C	0.851913	-0.000082	0.101250
C48	C	0.885732	-0.000076	0.474760
C49	C	0.879127	-0.000075	0.556966
C50	C	1.021379	-0.000097	0.566749
C51	C	1.027982	-0.000105	0.484547
C52	C	0.960159	-0.000089	0.438558
N53	N	0.906369	-0.000084	0.313468
N54	N	0.966917	-0.000089	0.354537
H55	H	0.539966	-0.000077	-0.272133
H56	H	0.813906	-0.576337	-0.212027
H57	H	0.315574	-0.000075	-0.317942
O58	O	0.895037	-0.416135	-0.308672
H59	H	0.953904	-0.441049	-0.327051
H60	H	0.333321	-0.000125	-0.059859
O61	O	1.043837	-0.582929	-0.270503
H62	H	1.055702	-0.524830	-0.308987
O63	O	0.698660	-0.000055	-0.303793
H64	H	0.735878	-0.060194	-0.310205
O65	O	1.074441	-0.000114	0.071989
H66	H	1.107272	-0.060256	0.090120
O67	O	1.044576	-0.414175	-0.269196
H68	H	1.047086	-0.340603	-0.267896
H69	H	0.184203	-0.000126	-0.047870
H70	H	1.042779	-0.000111	0.230680
H71	H	1.088589	-0.000114	0.455073
H72	H	0.796688	-0.000075	0.063804
O73	O	1.094529	-0.000108	0.616349
H74	H	1.077433	-0.000098	0.679591
H75	H	0.890037	-0.577418	-0.287968
O76	O	0.154292	-0.000113	-0.323879
H77	H	0.116603	0.060023	-0.324271
H78	H	0.818516	-0.000080	0.586443
O79	O	0.812584	-0.000081	0.425161
H80	H	0.759722	-0.000088	0.464151
O81	O	0.548151	-0.000110	0.005622
H82	H	0.483265	-0.000105	-0.001174
H83	H	0.784703	-0.000065	0.212936
H84	H	0.706842	-0.000092	-0.026042
O85	O	1.081690	-0.584125	-0.133842
H86	H	1.111847	-0.526601	-0.106729
H87	H	1.066467	-0.423834	-0.146489
O88	O	0.794219	-0.415345	-0.207411
H89	H	0.752556	-0.440051	-0.252213
O90	O	0.835909	-0.585682	-0.054670
H91	H	0.811192	-0.630169	-0.100196
H92	H	0.851847	-0.424061	-0.065407
O93	O	0.967495	-0.414421	-0.019963
H94	H	1.012330	-0.370100	-0.047164
O95	O	0.973655	-0.583530	-0.022762
H96	H	1.018060	-0.626331	-0.052492
