data_functionalizedCrystal
_audit_creation_method	'MofGen! by Chris Wilmer'
_symmetry_space_group_name_H-M	'P1'
_symmetry_Int_Tables_number	1
_symmetry_cell_setting	triclinic
loop_
_symmetry_equiv_pos_as_xyz
  x,y,z
_cell_length_a	18.215407
_cell_length_b	12.594516
_cell_length_c	18.215399
_cell_angle_alpha	89.977894
_cell_angle_beta	89.982632
_cell_angle_gamma	90.013496
loop_
_atom_site_label
_atom_site_type_symbol
_atom_site_fract_x
_atom_site_fract_y
_atom_site_fract_z
Zn1	Zn	1.125117	-0.423826	-0.416097
Zn2	Zn	1.458450	-0.090492	-0.082764
Zn3	Zn	1.791784	0.242841	0.250569
Zn4	Zn	1.125044	-0.601823	-0.293044
Zn5	Zn	1.458378	-0.268490	0.040290
Zn6	Zn	1.791711	0.064843	0.373623
Zn7	Zn	1.002050	-0.423851	-0.293050
Zn8	Zn	1.335383	-0.090518	0.040283
Zn9	Zn	1.668716	0.242816	0.373617
Zn10	Zn	1.002035	-0.601755	-0.416074
Zn11	Zn	1.335368	-0.268421	-0.082740
Zn12	Zn	1.668701	0.064912	0.250593
O13	O	1.063561	-0.512814	-0.354566
O14	O	1.396895	-0.179480	-0.021233
O15	O	1.730228	0.153853	0.312100
O16	O	1.228092	-0.447455	-0.399781
O17	O	1.561425	-0.114122	-0.066448
O18	O	1.894758	0.219211	0.266885
O19	O	1.108705	-0.578254	-0.190060
O20	O	1.442038	-0.244921	0.143273
O21	O	1.775372	0.088413	0.476607
O22	O	1.018412	-0.274902	-0.309385
O23	O	1.351745	0.058431	0.023948
O24	O	1.685078	0.391765	0.357282
O25	O	1.228038	-0.578229	-0.309374
O26	O	1.561372	-0.244896	0.023959
O27	O	1.894705	0.088437	0.357293
O28	O	1.108829	-0.274883	-0.399787
O29	O	1.442162	0.058450	-0.066454
O30	O	1.775495	0.391783	0.266879
O31	O	1.018341	-0.447499	-0.190065
O32	O	1.351674	-0.114166	0.143268
O33	O	1.685008	0.219168	0.476602
O34	O	0.899063	-0.447432	-0.309362
O35	O	1.232397	-0.114099	0.023971
O36	O	1.565730	0.219234	0.357304
O37	O	1.018386	-0.578113	-0.519061
O38	O	1.351719	-0.244779	-0.185728
O39	O	1.685052	0.088554	0.147605
O40	O	0.899052	-0.578137	-0.399747
O41	O	1.232386	-0.244804	-0.066414
O42	O	1.565719	0.088529	0.266919
O43	O	1.108814	-0.447389	-0.519079
O44	O	1.442147	-0.114056	-0.185745
O45	O	1.775481	0.219278	0.147588
O46	O	1.108690	-0.750760	-0.309351
O47	O	1.442024	-0.417427	0.023982
O48	O	1.775357	-0.084093	0.357315
O49	O	1.018315	-0.750709	-0.399741
O50	O	1.351649	-0.417376	-0.066408
O51	O	1.684982	-0.084043	0.266926
C52	C	0.872355	-0.512781	-0.354553
C53	C	1.205689	-0.179448	-0.021220
C54	C	1.539022	0.153886	0.312113
C55	C	0.790556	-0.512793	-0.354565
C56	C	1.123890	-0.179459	-0.021232
C57	C	1.457223	0.153874	0.312101
C58	C	0.602389	-0.444839	-0.401715
C59	C	0.935722	-0.111505	-0.068381
C60	C	1.269056	0.221828	0.264952
C61	C	0.525530	-0.444848	-0.401717
C62	C	0.858864	-0.111514	-0.068384
C63	C	1.192197	0.221819	0.264950
C64	C	0.525486	-0.580818	-0.307431
C65	C	0.858819	-0.247485	0.025903
C66	C	1.192152	0.085848	0.359236
C67	C	0.602343	-0.580803	-0.307425
C68	C	0.935676	-0.247470	0.025908
C69	C	1.269010	0.085864	0.359242
C70	C	0.640793	-0.512815	-0.354571
C71	C	0.974126	-0.179482	-0.021238
C72	C	1.307459	0.153852	0.312095
C73	C	0.487077	-0.512839	-0.354579
C74	C	0.820410	-0.179506	-0.021246
C75	C	1.153743	0.153827	0.312087
C76	C	0.403743	-0.512850	-0.354582
C77	C	0.737076	-0.179516	-0.021248
C78	C	1.070410	0.153817	0.312085
C79	C	0.724132	-0.512803	-0.354568
C80	C	1.057465	-0.179469	-0.021235
C81	C	1.390798	0.153864	0.312099
C82	C	1.063513	-0.789355	-0.354559
C83	C	1.396847	-0.456021	-0.021226
C84	C	1.730180	-0.122688	0.312108
C85	C	1.063560	-0.907660	-0.354581
C86	C	1.396893	-0.574327	-0.021247
C87	C	1.730227	-0.240993	0.312086
C88	C	1.014400	-0.976924	-0.403709
C89	C	1.347734	-0.643591	-0.070376
C90	C	1.681067	-0.310258	0.262958
C91	C	0.996471	-1.047782	-0.336557
C92	C	1.329804	-0.714448	-0.003223
C93	C	1.663138	-0.381115	0.330110
C94	C	1.081556	-1.047602	-0.421744
C95	C	1.414890	-0.714268	-0.088411
C96	C	1.748223	-0.380935	0.244922
C97	C	1.045595	-0.976959	-0.287393
C98	C	1.378928	-0.643626	0.045941
C99	C	1.712262	-0.310292	0.379274
C100	C	1.130712	-0.976773	-0.372625
C101	C	1.464045	-0.643440	-0.039292
C102	C	1.797378	-0.310106	0.294041
C103	C	1.112808	-1.047598	-0.305427
C104	C	1.446141	-0.714265	0.027906
C105	C	1.779475	-0.380932	0.361240
C106	C	1.255514	-0.512847	-0.354580
C107	C	1.588848	-0.179514	-0.021246
C108	C	1.922181	0.153819	0.312087
C109	C	1.337313	-0.512862	-0.354585
C110	C	1.670647	-0.179528	-0.021252
C111	C	2.003980	0.153805	0.312081
C112	C	1.063606	-0.512740	-0.546519
C113	C	1.396940	-0.179407	-0.213186
C114	C	1.730273	0.153926	0.120147
C115	C	1.063625	-0.512709	-0.628318
C116	C	1.396959	-0.179376	-0.294985
C117	C	1.730292	0.153958	0.038349
C118	C	1.063630	-0.235193	-0.354590
C119	C	1.396963	0.098141	-0.021256
C120	C	1.730297	0.431474	0.312077
C121	C	1.063659	-0.116887	-0.354599
C122	C	1.396992	0.216446	-0.021266
C123	C	1.730326	0.549779	0.312067
C124	C	1.110728	-0.444578	-0.816522
C125	C	1.444062	-0.111244	-0.483189
C126	C	1.777395	0.222089	-0.149856
C127	C	1.110737	-0.444547	-0.893381
C128	C	1.444070	-0.111213	-0.560048
C129	C	1.777404	0.222120	-0.226714
C130	C	1.016574	-0.580676	-0.893352
C131	C	1.349908	-0.247342	-0.560019
C132	C	1.683241	0.085991	-0.226685
C133	C	1.016563	-0.580701	-0.816494
C134	C	1.349896	-0.247367	-0.483161
C135	C	1.683229	0.085966	-0.149828
C136	C	1.063644	-0.512653	-0.778082
C137	C	1.396977	-0.179320	-0.444748
C138	C	1.730310	0.154014	-0.111415
C139	C	1.063664	-0.512597	-0.931798
C140	C	1.396998	-0.179264	-0.598465
C141	C	1.730331	0.154069	-0.265131
C142	C	1.063674	-0.512564	-1.015132
C143	C	1.397007	-0.179231	-0.681798
C144	C	1.730340	0.154103	-0.348465
C145	C	1.063634	-0.512685	-0.694743
C146	C	1.396967	-0.179351	-0.361409
C147	C	1.730300	0.153982	-0.028076
C148	C	1.063559	-0.512810	-0.163360
C149	C	1.396892	-0.179477	0.169973
C150	C	1.730226	0.153857	0.503307
C151	C	1.063683	-0.512541	-0.081561
C152	C	1.397016	-0.179208	0.251772
C153	C	1.730349	0.154125	0.585105
H154	H	0.633693	-0.389475	-0.440102
H155	H	0.967026	-0.056142	-0.106768
H156	H	1.300359	0.277192	0.226565
H157	H	1.030348	-0.946057	-0.230585
H158	H	1.363681	-0.612723	0.102748
H159	H	1.697015	-0.279390	0.436081
H160	H	1.187442	-0.945562	-0.387905
H161	H	1.520775	-0.612229	-0.054571
H162	H	1.854108	-0.278895	0.278762
F163	F	0.643218	-0.653148	-0.257240
F164	F	0.976551	-0.319814	0.076093
F165	F	1.309884	0.013519	0.409427
F166	F	0.959967	-0.936360	-0.457935
F167	F	1.293300	-0.603027	-0.124602
F168	F	1.626634	-0.269693	0.208732
F169	F	0.966473	-0.653097	-0.934240
F170	F	1.299806	-0.319763	-0.600907
F171	F	1.633140	0.013570	-0.267573
H172	H	1.096738	-1.078632	-0.478536
H173	H	1.430071	-0.745299	-0.145203
H174	H	1.763404	-0.411966	0.188131
H175	H	1.149077	-0.389111	-0.924676
H176	H	1.482410	-0.055777	-0.591343
H177	H	1.815744	0.277556	-0.258009
F178	F	0.922300	-1.088547	-0.316610
F179	F	1.255634	-0.755214	0.016723
F180	F	1.588967	-0.421881	0.350056
H181	H	1.149063	-0.389166	-0.785249
H182	H	1.482396	-0.055833	-0.451916
H183	H	1.815729	0.277501	-0.118582
H184	H	0.978215	-0.636135	-0.785195
H185	H	1.311549	-0.302802	-0.451862
H186	H	1.644882	0.030531	-0.118529
H187	H	0.494266	-0.389493	-0.440105
H188	H	0.827599	-0.056160	-0.106771
H189	H	1.160932	0.277174	0.226562
H190	H	0.494171	-0.636173	-0.269047
H191	H	0.827504	-0.302840	0.064286
H192	H	1.160837	0.030494	0.397620
H193	H	1.154423	-1.078434	-0.263841
H194	H	1.487756	-0.745101	0.069492
H195	H	1.821090	-0.411768	0.402826
