data_functionalizedCrystal
_audit_creation_method	'MofGen! by Chris Wilmer'
_symmetry_space_group_name_H-M	'P1'
_symmetry_Int_Tables_number	1
_symmetry_cell_setting	triclinic
loop_
_symmetry_equiv_pos_as_xyz
  x,y,z
_cell_length_a	12.759401
_cell_length_b	16.120507
_cell_length_c	16.120256
_cell_angle_alpha	95.613568
_cell_angle_beta	87.118542
_cell_angle_gamma	87.067213
loop_
_atom_site_label
_atom_site_type_symbol
_atom_site_fract_x
_atom_site_fract_y
_atom_site_fract_z
Zn1	Zn	1.552019	0.356781	0.489379
Zn2	Zn	1.551863	0.489467	0.356684
Zn3	Zn	1.385711	0.349711	0.349631
Zn4	Zn	1.366873	0.496510	0.496414
O5	O	1.464116	0.423117	0.423027
O6	O	1.699018	0.374393	0.471784
O7	O	1.537641	0.465022	0.238785
O8	O	1.415721	0.233683	0.362273
O9	O	1.698904	0.471877	0.374293
O10	O	1.537907	0.238878	0.464945
O11	O	1.415570	0.362343	0.233604
O12	O	1.236192	0.369173	0.369095
O13	O	1.383614	0.483882	0.612444
O14	O	1.222352	0.477026	0.476936
O15	O	1.519641	0.381223	0.607275
O16	O	1.519375	0.607367	0.381115
O17	O	1.383463	0.612542	0.483774
C18	C	1.191151	0.423097	0.423014
C19	C	1.074373	0.423110	0.423030
C20	C	1.019551	0.372455	0.473881
C21	C	0.909826	0.372471	0.473887
C22	C	0.909753	0.473804	0.372189
C23	C	1.019477	0.473783	0.372179
C24	C	1.019592	0.313954	0.532599
C25	C	0.909866	0.313970	0.532605
C26	C	1.449385	0.640283	0.433992
C27	C	1.443177	0.733189	0.438710
C28	C	1.496407	0.942098	0.398678
C29	C	1.431862	0.903284	0.447334
C30	C	1.438160	0.808634	0.442534
C31	C	1.490111	1.036756	0.403476
C32	C	1.738147	0.423138	0.423040
C33	C	1.854923	0.423147	0.423046
C34	C	1.449544	0.434127	0.641034
C35	C	1.443334	0.438818	0.733936
C36	C	1.478893	1.205104	0.412025
C37	C	1.485089	1.112198	0.407304
C38	C	1.478697	0.412091	0.205865
C39	C	1.485126	0.407164	0.112952
C40	C	1.496501	0.398630	0.942861
C41	C	1.431963	0.447349	0.904021
C42	C	1.438291	0.442601	0.809377
C43	C	1.490173	0.403377	1.037514
H44	H	1.054891	0.248315	0.512097
H45	H	1.371872	0.941138	0.492595
H46	H	1.556392	0.904247	0.353419
H47	H	1.556502	0.353359	0.905036
H48	H	0.881531	0.251276	0.506423
H49	H	1.371952	0.492620	0.941849
H50	H	0.874596	0.334682	0.598194
H51	H	1.064109	0.515022	0.330762
H52	H	1.047956	0.340338	0.595223
C53	C	0.849363	0.529546	0.316259
C54	C	0.780756	0.489926	0.248871
C55	C	0.720369	0.545670	0.192941
C56	C	0.728589	0.641035	0.204399
C57	C	0.797199	0.680660	0.271790
C58	C	0.857586	0.624916	0.327720
H59	H	0.774669	0.419326	0.240387
H60	H	0.669579	0.516336	0.143054
H61	H	0.683887	0.682300	0.162996
H62	H	0.803286	0.751259	0.280274
H63	H	0.908376	0.654250	0.377607
