data_functionalizedCrystal
_audit_creation_method	'MofGen! by Chris Wilmer'
_symmetry_space_group_name_H-M	'P1'
_symmetry_Int_Tables_number	1
_symmetry_cell_setting	triclinic
loop_
_symmetry_equiv_pos_as_xyz
  x,y,z
_cell_length_a	19.188930
_cell_length_b	15.944551
_cell_length_c	14.421503
_cell_angle_alpha	90.003141
_cell_angle_beta	89.999163
_cell_angle_gamma	96.678240
loop_
_atom_site_label
_atom_site_type_symbol
_atom_site_fract_x
_atom_site_fract_y
_atom_site_fract_z
O1	O	0.090038	-1.114192	-0.077026
O2	O	0.590038	-0.614192	0.422974
O3	O	0.101140	-0.869601	-0.077050
O4	O	0.601140	-0.369601	0.422950
O5	O	-0.006048	-0.998955	-0.077019
O6	O	0.493952	-0.498955	0.422981
O7	O	0.197227	-0.984838	-0.077057
O8	O	0.697227	-0.484838	0.422943
O9	O	-0.006032	-0.998934	0.077204
O10	O	0.493968	-0.498934	0.577204
O11	O	0.101156	-0.869580	0.077173
O12	O	0.601156	-0.369580	0.577173
O13	O	0.090054	-1.114171	0.077198
O14	O	0.590054	-0.614171	0.577198
Cu15	Cu	0.095607	-0.991873	0.091267
Cu16	Cu	0.595607	-0.491873	0.591267
Cu17	Cu	0.095588	-0.991899	-0.091120
Cu18	Cu	0.595588	-0.491899	0.408880
O19	O	0.197243	-0.984817	0.077167
O20	O	0.697243	-0.484817	0.577167
C21	C	0.100687	-0.838298	0.000059
C22	C	0.600687	-0.338298	0.500059
C23	C	0.099306	-0.745057	0.000050
C24	C	0.599306	-0.245057	0.500050
C25	C	-0.032052	-0.998487	0.000095
C26	C	0.467948	-0.498487	0.500095
C27	C	-0.109560	-0.997115	0.000103
C28	C	0.390440	-0.497115	0.500103
C29	C	0.090507	-1.145474	0.000087
C30	C	0.590507	-0.645474	0.500087
C31	C	0.091889	-1.238715	0.000089
C32	C	0.591889	-0.738715	0.500089
C33	C	-0.154288	-1.073016	0.000115
C34	C	0.345712	-0.573016	0.500115
C35	C	-0.227115	-1.071726	0.000100
C36	C	0.272885	-0.571726	0.500100
C37	C	-0.255211	-0.994532	0.000092
C38	C	0.244789	-0.494532	0.500092
C39	C	-0.210474	-0.918622	0.000075
C40	C	0.289526	-0.418622	0.500075
C41	C	-0.137648	-0.919913	0.000080
C42	C	0.362352	-0.419913	0.500080
N43	N	-0.363364	-0.935519	0.052571
N44	N	0.136636	-0.435519	0.552571
N45	N	-0.432545	-0.934298	0.052568
N46	N	0.067455	-0.434298	0.552568
C47	C	-0.474630	-0.990637	0.000073
C48	C	0.025370	-0.490637	0.500073
N49	N	-0.444921	-1.048256	-0.052407
N50	N	0.055079	-0.548256	0.447593
N51	N	-0.375733	-1.049480	-0.052400
N52	N	0.124267	-0.549480	0.447600
C53	C	-0.334178	-0.993123	0.000085
C54	C	0.165822	-0.493123	0.500085
C55	C	-0.598326	-1.065145	0.000067
C56	C	-0.098326	-0.565145	0.500067
C57	C	-0.671154	-1.063852	0.000046
C58	C	-0.171154	-0.563852	0.500046
C59	C	-0.654511	-0.910745	0.000030
C60	C	-0.154511	-0.410745	0.500030
C61	C	-0.581685	-0.912040	0.000041
C62	C	-0.081685	-0.412040	0.500041
C63	C	-0.553597	-0.989242	0.000064
C64	C	-0.053597	-0.489242	0.500064
C65	C	0.223247	-0.985285	0.000050
C66	C	0.723247	-0.485285	0.500050
C67	C	0.300755	-0.986657	0.000036
C68	C	0.800755	-0.486657	0.500036
N69	N	0.095619	-0.991862	0.219549
N70	N	0.595619	-0.491862	0.719549
C71	C	0.029563	-0.530462	0.000081
C72	C	0.529563	-0.030462	0.500081
C73	C	0.061941	-0.469331	-0.075965
C74	C	0.561941	0.030669	0.424035
C75	C	0.096806	-0.574341	0.000062
C76	C	0.596806	-0.074341	0.500062
C77	C	0.061973	-0.469332	0.076087
C78	C	0.561973	0.030668	0.576087
C79	C	0.094386	-0.409437	0.000077
C80	C	0.594386	0.090563	0.500077
C81	C	0.129203	-0.514438	-0.076047
C82	C	0.629203	-0.014438	0.423953
C83	C	0.129225	-0.514446	0.076073
C84	C	0.629225	-0.014446	0.576073
C85	C	0.161652	-0.453332	0.000008
C86	C	0.661652	0.046668	0.500008
C87	C	0.098198	-0.669338	0.000052
C88	C	0.598198	-0.169338	0.500052
C89	C	0.093000	-0.314441	0.000080
C90	C	0.593000	0.185559	0.500080
N91	N	0.095569	-0.991917	-0.219401
N92	N	0.595569	-0.491917	0.280599
C93	C	0.145161	-0.932038	0.469188
C94	C	0.645161	-0.432038	0.969188
C95	C	0.158716	-1.007887	0.530995
C96	C	0.658716	-0.507887	1.030995
C97	C	0.095603	-0.991882	0.408710
C98	C	0.595603	-0.491882	0.908710
C99	C	0.082064	-0.916052	0.530997
C100	C	0.582064	-0.416052	1.030997
C101	C	0.095588	-0.991895	0.591431
C102	C	0.595588	-0.491895	1.091431
C103	C	0.109189	-1.067770	0.469157
C104	C	0.609189	-0.567770	0.969157
C105	C	0.032510	-0.975885	0.469153
C106	C	0.532510	-0.475885	0.969153
C107	C	0.046038	-1.051789	0.530932
C108	C	0.546038	-0.551789	1.030932
C109	C	0.095613	-0.991874	0.303449
C110	C	0.595613	-0.491874	0.803449
C111	C	0.095578	-0.991913	0.696690
C112	C	0.595578	-0.491913	1.196690
H113	H	-0.131424	-1.135880	0.000131
H114	H	0.368576	-0.635880	0.500131
C115	C	-0.039539	-0.957555	0.432419
C116	C	0.460461	-0.457555	0.932419
N117	N	-0.093807	-0.943739	0.404749
N118	N	0.406193	-0.443739	0.904749
H119	H	0.120698	-1.131917	0.442107
H120	H	0.620698	-0.631917	0.942107
H121	H	-0.707571	-1.125662	0.000051
H122	H	-0.207571	-0.625662	0.500051
H123	H	0.070620	-0.851919	0.558163
H124	H	0.570620	-0.351919	1.058163
H125	H	0.157616	-0.534329	-0.140409
H126	H	0.657616	-0.034329	0.359591
H127	H	-0.263540	-1.133536	0.000106
H128	H	0.236460	-0.633536	0.500106
H129	H	0.004119	-1.102458	0.557872
H130	H	0.504119	-0.602458	1.057872
H131	H	-0.677386	-0.847892	0.000019
H132	H	-0.177386	-0.347892	0.500019
H133	H	-0.026244	-0.564003	-0.000003
H134	H	0.473756	-0.064003	0.499997
H135	H	0.033526	-0.449343	0.140376
H136	H	0.533526	0.050657	0.640376
C137	C	0.237120	-0.408246	-0.000064
C138	C	0.737120	0.091754	0.499936
N139	N	0.293960	-0.374285	-0.000124
N140	N	0.793960	0.125715	0.499876
H141	H	-0.545266	-0.850233	0.000037
H142	H	-0.045266	-0.350233	0.500037
C143	C	-0.241381	-0.833708	0.000072
C144	C	0.258619	-0.333708	0.500072
N145	N	-0.264660	-0.769748	0.000070
N146	N	0.235340	-0.269748	0.500070
H147	H	0.157649	-0.534462	0.140358
H148	H	0.657649	-0.034462	0.640358
H149	H	-0.101230	-0.858103	0.000071
H150	H	0.398770	-0.358103	0.500071
H151	H	-0.575456	-1.128007	0.000081
H152	H	-0.075456	-0.628007	0.500081
C153	C	0.201824	-0.863743	0.432552
C154	C	0.701824	-0.363743	0.932552
N155	N	0.244504	-0.812308	0.404955
N156	N	0.744504	-0.312308	0.904955
C157	C	0.230788	-1.026178	0.567704
C158	C	0.730788	-0.526178	1.067704
N159	N	0.285073	-1.039948	0.595352
N160	N	0.785073	-0.539948	1.095352
C161	C	0.023508	-0.442312	-0.162802
C162	C	0.523508	0.057688	0.337198
N163	N	-0.005444	-0.421963	-0.228204
N164	N	0.494556	0.078037	0.271796
