data_functionalizedCrystal
_audit_creation_method	'MofGen! by Chris Wilmer'
_symmetry_space_group_name_H-M	'P1'
_symmetry_Int_Tables_number	1
_symmetry_cell_setting	triclinic
loop_
_symmetry_equiv_pos_as_xyz
  x,y,z
_cell_length_a	17.038272
_cell_length_b	23.532407
_cell_length_c	16.098538
_cell_angle_alpha	92.700973
_cell_angle_beta	87.069734
_cell_angle_gamma	86.980117
loop_
_atom_site_label
_atom_site_type_symbol
_atom_site_fract_x
_atom_site_fract_y
_atom_site_fract_z
O1	O	1.039966	0.121251	-0.069166
O2	O	0.812351	0.119288	-0.069191
O3	O	0.933021	0.037699	-0.069163
O4	O	0.919295	0.202840	-0.069195
O5	O	0.925973	0.042445	0.069349
O6	O	0.805302	0.124034	0.069321
O7	O	1.032917	0.125997	0.069345
Zn8	Zn	0.917990	0.125769	0.091324
Zn9	Zn	0.927278	0.119516	-0.091170
O10	O	0.912247	0.207586	0.069317
C11	C	0.779712	0.119875	0.000062
C12	C	0.692959	0.114548	0.000054
C13	C	0.642483	0.163453	0.000045
C14	C	0.560969	0.158445	0.000057
C15	C	0.529932	0.104532	0.000072
C16	C	0.580415	0.055624	0.000084
C17	C	0.661927	0.060632	0.000077
C18	C	0.284304	0.086837	0.000098
C19	C	0.202786	0.081832	0.000102
C20	C	0.183345	0.184654	0.000077
C21	C	0.264860	0.189657	0.000066
C22	C	0.315335	0.140750	0.000081
C23	C	0.446612	0.099411	0.000083
C24	C	0.398653	0.145871	0.000077
C25	C	0.929147	0.018838	0.000095
C26	C	0.928096	-0.044434	0.000101
C27	C	0.992917	-0.440131	0.000063
C28	C	0.991941	-0.499583	0.000056
O29	O	1.052030	-0.533169	0.000032
N30	N	0.920202	-0.525981	0.000049
C31	C	0.849435	-0.492924	0.000040
O32	O	0.788325	-0.520836	0.000033
C33	C	0.850412	-0.433473	0.000041
C34	C	0.922155	-0.407078	0.000056
C35	C	1.064654	-0.413736	0.000077
C36	C	1.065630	-0.354288	0.000085
C37	C	0.994868	-0.321236	0.000079
C38	C	0.923131	-0.347631	0.000064
C39	C	0.779646	-0.400418	0.000026
C40	C	0.780629	-0.340963	0.000025
C41	C	0.852372	-0.314569	0.000041
C42	C	0.853344	-0.255130	0.000066
N43	N	0.925083	-0.228732	0.000073
C44	C	0.995845	-0.261785	0.000079
C45	C	0.847388	-0.617774	0.000038
C46	C	0.846410	-0.677223	0.000043
C47	C	0.988917	-0.683878	0.000058
C48	C	0.989894	-0.624428	0.000058
C49	C	0.919127	-0.591376	0.000045
C50	C	0.997889	-0.136940	0.000097
C51	C	0.998858	-0.077487	0.000108
C52	C	0.856352	-0.070837	0.000089
C53	C	0.855382	-0.130285	0.000082
C54	C	0.926157	-0.163336	0.000083
O55	O	0.793287	-0.221508	0.000086
O56	O	1.056945	-0.233865	0.000076
C57	C	1.065556	0.125410	0.000090
C58	C	1.152310	0.130737	0.000093
C59	C	0.916121	0.226447	0.000057
C60	C	0.917172	0.289719	0.000045
N61	N	0.911658	0.130036	0.215872
N62	N	0.933616	0.115244	-0.215718
C63	C	0.962894	0.095421	0.259469
C64	C	0.958471	0.098412	0.346657
C65	C	0.902816	0.136022	0.390246
C66	C	0.851574	0.170639	0.346643
C67	C	0.855994	0.167644	0.259457
C68	C	0.886795	0.146867	0.653493
C69	C	0.882380	0.149860	0.740685
C70	C	0.989277	0.077632	0.740693
C71	C	0.993694	0.074644	0.653505
C72	C	0.942450	0.109258	0.609909
C73	C	0.898295	0.139081	0.479366
C74	C	0.946968	0.106195	0.520791
H75	H	1.055521	-0.163843	0.000094
H76	H	1.039013	0.044019	0.618016
H77	H	1.057282	-0.055999	0.000123
H78	H	0.992280	0.075571	0.485298
H79	H	1.008217	0.064798	0.223984
H80	H	0.787989	-0.698708	0.000045
C81	C	1.050686	-0.777972	0.000038
C82	C	1.066702	-0.720218	0.000050
H83	H	1.098706	-0.800407	0.000027
H84	H	1.018803	-0.784695	0.048336
H85	H	1.023699	-0.787985	-0.048268
H86	H	1.093684	-0.710204	0.048360
H87	H	1.098599	-0.713493	-0.048253
C88	C	0.775239	-0.195712	-0.071138
C89	C	0.776525	-0.159306	0.000073
H90	H	0.726558	-0.213628	-0.071145
H91	H	0.781035	-0.174302	-0.119425
H92	H	0.817248	-0.223903	-0.071130
H93	H	0.734519	-0.131112	0.000062
H94	H	0.770720	-0.180717	0.048372
H95	H	0.798739	-0.043915	0.000087
H96	H	1.048313	-0.602941	0.000070
H97	H	0.837057	0.180488	0.776172
H98	H	0.423926	0.189766	0.000069
H99	H	0.421332	0.055516	0.000119
H100	H	1.030996	0.049450	0.776196
C101	C	0.780697	0.218565	0.662255
C102	C	0.830474	0.184920	0.605580
H103	H	0.745930	0.242061	0.632671
H104	H	0.751050	0.194662	0.696272
H105	H	0.811356	0.241798	0.696249
H106	H	0.799815	0.161684	0.571590
H107	H	0.860124	0.208826	0.571548
C108	C	1.064596	0.026735	0.337907
C109	C	1.014804	0.060371	0.394579
H110	H	1.099380	0.003254	0.367494
H111	H	1.033955	0.003494	0.303919
H112	H	1.094233	0.050650	0.303883
H113	H	0.985163	0.036457	0.428599
H114	H	1.045448	0.083615	0.428581
H115	H	0.806255	0.201259	0.382139
C116	C	1.206389	-0.366856	0.000091
C117	C	1.144494	-0.325281	0.000091
H118	H	1.255078	-0.348950	0.000087
H119	H	1.200584	-0.388253	0.048389
H120	H	1.205487	-0.391557	-0.048215
H121	H	1.145392	-0.300583	0.048400
H122	H	1.150301	-0.303874	-0.048212
H123	H	1.122281	-0.440642	0.000080
H124	H	0.177520	0.037928	0.000114
H125	H	0.325392	0.047013	0.000112
H126	H	0.555138	0.011727	0.000108
H127	H	0.723001	-0.314056	0.000013
H128	H	0.814271	0.195831	0.223961
H129	H	0.703024	0.020809	0.000084
H130	H	0.667745	0.207354	0.000032
H131	H	0.852981	0.169705	0.514864
H132	H	0.789757	-0.590866	0.000034
C133	C	0.172319	0.286789	0.000049
C134	C	0.127863	0.238412	0.000065
H135	H	0.138065	0.319978	0.000037
H136	H	0.202062	0.288259	0.048346
H137	H	0.206970	0.284943	-0.048258
H138	H	0.093215	0.240255	0.048375
H139	H	0.098105	0.236942	-0.048238
C140	C	0.661516	-0.415458	-0.071215
C141	C	0.700782	-0.429420	-0.000000
H142	H	0.612828	-0.433365	-0.071233
H143	H	0.651985	-0.375325	-0.071206
H144	H	0.693102	-0.428225	-0.119504
H145	H	0.669198	-0.416649	0.048289
H146	H	0.710310	-0.469562	-0.000002
C147	C	0.461637	0.210017	-0.071161
C148	C	0.505487	0.212203	0.000038
H149	H	0.427383	0.243206	-0.071168
H150	H	0.496291	0.208175	-0.119455
H151	H	0.431488	0.177191	-0.071136
H152	H	0.535641	0.245026	0.000010
H153	H	0.470828	0.214051	0.048345
C154	C	0.341671	0.257382	0.071208
C155	C	0.298991	0.248914	0.000024
H156	H	0.362751	0.293962	0.071166
H157	H	0.307830	0.254970	0.119512
H158	H	0.383386	0.228961	0.071211
H159	H	0.257273	0.277332	0.000024
H160	H	0.332834	0.251331	-0.048294
