data_functionalizedCrystal
_audit_creation_method	'MofGen! by Chris Wilmer'
_symmetry_space_group_name_H-M	'P1'
_symmetry_Int_Tables_number	1
_symmetry_cell_setting	triclinic
loop_
_symmetry_equiv_pos_as_xyz
  x,y,z
_cell_length_a	13.032951
_cell_length_b	13.032868
_cell_length_c	13.032268
_cell_angle_alpha	76.714099
_cell_angle_beta	89.114265
_cell_angle_gamma	90.907752
loop_
_atom_site_label
_atom_site_type_symbol
_atom_site_fract_x
_atom_site_fract_y
_atom_site_fract_z
Zn1	Zn	-1.399325	0.702937	-0.857493
Zn2	Zn	-1.399196	0.858001	-0.702415
Zn3	Zn	-1.255318	0.659452	-0.658990
Zn4	Zn	-1.206239	0.852364	-0.851920
O5	O	-1.315019	0.768189	-0.767705
O6	O	-1.540328	0.744064	-0.857427
O7	O	-1.400595	0.815824	-0.551012
O8	O	-1.295014	0.519591	-0.669481
O9	O	-1.540233	0.857989	-0.743492
O10	O	-1.400816	0.551539	-0.815320
O11	O	-1.294888	0.669951	-0.519108
O12	O	-1.107787	0.664485	-0.664077
O13	O	-1.211368	0.848382	-0.998302
O14	O	-1.071729	0.806217	-0.805822
O15	O	-1.353227	0.738598	-1.002396
O16	O	-1.353006	1.002883	-0.738088
O17	O	-1.211242	0.998742	-0.847929
C18	C	-1.053193	0.730021	-0.729634
C19	C	-0.941175	0.713721	-0.713374
C20	C	-1.276808	1.038579	-0.797143
C21	C	-1.260549	1.154270	-0.809785
C22	C	-0.873420	0.776671	-0.776174
C23	C	-0.757644	0.759826	-0.759370
C24	C	-1.276837	0.797712	-1.039169
C25	C	-1.260566	0.810293	-1.154851
C26	C	-0.577871	0.806493	-0.805917
C27	C	-0.689889	0.822784	-0.822179
C28	C	-1.323489	1.207877	-0.761129
C29	C	-1.306686	1.327450	-0.774194
C30	C	-1.353372	1.496743	-0.738162
C31	C	-1.369635	1.381054	-0.725531
C32	C	-1.323501	0.761583	-1.208451
C33	C	-1.306686	0.774585	-1.328014
C34	C	-1.353122	0.738714	-0.497297
C35	C	-1.369629	0.725868	-0.381612
H36	H	-0.901125	0.843033	-0.842383
C37	C	-0.720226	0.670161	-0.669924
N38	N	-0.692041	0.602628	-0.602553
C39	C	-1.170952	0.879632	-1.212432
N40	N	-1.103452	0.931860	-1.255800
H41	H	-1.389819	1.165251	-0.709805
C42	C	-1.413110	0.692236	-1.150868
N43	N	-1.480605	0.640002	-1.107498
H44	H	-1.240359	1.370076	-0.825531
C45	C	-1.170942	1.211855	-0.879127
N46	N	-1.103446	1.255225	-0.931356
C47	C	-0.727305	0.912448	-0.911628
N48	N	-0.755487	0.979983	-0.978998
H49	H	-1.435969	1.338431	-0.674204
H50	H	-0.913470	0.647352	-0.647172
H51	H	-1.240346	0.825909	-1.370635
C52	C	-1.459247	0.656521	-1.324037
N53	N	-1.526747	0.604292	-1.280671
