data_functionalizedCrystal
_audit_creation_method	'MofGen! by Chris Wilmer'
_symmetry_space_group_name_H-M	'P1'
_symmetry_Int_Tables_number	1
_symmetry_cell_setting	triclinic
loop_
_symmetry_equiv_pos_as_xyz
  x,y,z
_cell_length_a	16.120530
_cell_length_b	13.032721
_cell_length_c	13.032268
_cell_angle_alpha	76.710373
_cell_angle_beta	85.357344
_cell_angle_gamma	94.676741
loop_
_atom_site_label
_atom_site_type_symbol
_atom_site_fract_x
_atom_site_fract_y
_atom_site_fract_z
Zn1	Zn	1.140844	-0.582228	0.737196
Zn2	Zn	1.640844	-0.082228	1.237196
Zn3	Zn	1.140755	-0.737306	0.582138
Zn4	Zn	1.640755	-0.237306	1.082138
Zn5	Zn	1.023441	-0.551167	0.551075
Zn6	Zn	1.523441	-0.051167	1.051075
Zn7	Zn	0.983450	-0.748315	0.748236
Zn8	Zn	1.483450	-0.248315	1.248236
O9	O	1.072122	-0.654754	0.654661
O10	O	1.572122	-0.154754	1.154661
O11	O	1.255799	-0.611192	0.725007
O12	O	1.755799	-0.111192	1.225007
O13	O	1.141891	-0.695007	0.430612
O14	O	1.641891	-0.195007	0.930612
O15	O	1.055788	-0.407879	0.558145
O16	O	1.555788	0.092121	1.058145
O17	O	1.255733	-0.725127	0.611086
O18	O	1.755733	-0.225127	1.111086
O19	O	1.142044	-0.430700	0.694887
O20	O	1.642044	0.069300	1.194887
O21	O	1.055701	-0.558252	0.407790
O22	O	1.555701	-0.058252	0.907790
O23	O	0.903169	-0.568927	0.568849
O24	O	1.403169	-0.068927	1.068849
O25	O	0.987631	-0.743890	0.894177
O26	O	1.487631	-0.243890	1.394177
O27	O	0.873789	-0.713771	0.713702
O28	O	1.373789	-0.213771	1.213702
O29	O	1.103267	-0.621867	0.886066
O30	O	1.603267	-0.121867	1.386066
O31	O	1.103114	-0.886174	0.621791
O32	O	1.603114	-0.386174	1.121791
O33	O	0.987544	-0.894263	0.743822
O34	O	1.487544	-0.394263	1.243822
C35	C	1.040999	-0.928444	0.687400
C36	C	1.540999	-0.428444	1.187400
C37	C	1.027756	-1.045540	0.701446
C38	C	1.527756	-0.545540	1.201446
C39	C	0.858670	-0.639174	0.639104
C40	C	1.358670	-0.139174	1.139104
C41	C	0.767348	-0.632537	0.632476
C42	C	1.267348	-0.132537	1.132476
C43	C	1.079073	-1.093717	0.647381
C44	C	1.579073	-0.593717	1.147381
C45	C	1.065386	-1.214741	0.661897
C46	C	1.565386	-0.714741	1.161897
C47	C	0.600142	-0.620396	0.620382
C48	C	1.100142	-0.120396	1.120382
C49	C	0.544926	-0.689199	0.689026
C50	C	1.044926	-0.189199	1.189026
C51	C	0.451887	-0.682444	0.682297
C52	C	0.951887	-0.182444	1.182297
C53	C	0.693190	-0.627150	0.627110
C54	C	1.193190	-0.127150	1.127110
C55	C	1.286409	-0.670396	0.670280
C56	C	1.786409	-0.170396	1.170280
C57	C	1.377725	-0.677062	0.676936
C58	C	1.877725	-0.177062	1.176936
C59	C	1.040998	-0.687571	0.929410
C60	C	1.540998	-0.187571	1.429410
C61	C	1.027735	-0.701556	1.046492
C62	C	1.527735	-0.201556	1.546492
C63	C	1.103387	-0.379999	0.621819
C64	C	1.603387	0.120001	1.121819
C65	C	1.116710	-0.262915	0.607824
C66	C	1.616710	0.237085	1.107824
C67	C	1.103182	-0.621992	0.380975
C68	C	1.603182	-0.121992	0.880975
C69	C	1.116638	-0.607722	0.263870
C70	C	1.616638	-0.107722	0.763870
C71	C	1.079036	-0.647416	1.094678
C72	C	1.579036	-0.147416	1.594678
C73	C	1.065329	-0.661869	1.215688
C74	C	1.565329	-0.161869	1.715688
H75	H	1.011319	-1.263090	0.718940
H76	H	1.511319	-0.763090	1.218940
N77	N	0.571779	-0.540146	0.540330
N78	N	1.071779	-0.040146	1.040330
N79	N	0.495141	-0.534710	0.534913
N80	N	0.995141	-0.034710	1.034913
H81	H	0.475099	-0.478036	0.478376
H82	H	0.975099	0.021964	0.978376
N83	N	1.146857	-0.575827	1.034050
N84	N	1.646857	-0.075827	1.534050
N85	N	1.132491	-0.499309	0.962514
N86	N	1.632491	0.000691	1.462514
H87	H	1.180390	-0.448745	0.919697
H88	H	1.680390	0.051255	1.419697
N89	N	1.146899	-1.033086	0.575815
N90	N	1.646899	-0.533086	1.075815
N91	N	1.195149	-1.078317	0.524973
N92	N	1.695149	-0.578317	1.024973
H93	H	1.243054	-1.035499	0.474427
H94	H	1.743054	-0.535499	0.974427
H95	H	1.011252	-0.718917	1.264016
H96	H	1.511252	-0.218917	1.764016
N97	N	0.573262	-0.769467	0.769097
N98	N	1.073262	-0.269467	1.269097
N99	N	0.553543	-0.773582	0.864821
N100	N	1.053543	-0.273582	1.364821
H101	H	0.573558	-0.830272	0.921366
H102	H	1.073558	-0.330272	1.421366
N103	N	1.184483	-0.536162	1.203253
N104	N	1.684483	-0.036162	1.703253
N105	N	1.258124	-0.550136	1.221815
N106	N	1.758124	-0.050136	1.721815
H107	H	1.306041	-0.499599	1.179003
H108	H	1.806041	0.000401	1.679003
H109	H	0.973661	-0.758600	1.094825
H110	H	1.473661	-0.258600	1.594825
N111	N	1.184546	-1.202282	0.536269
N112	N	1.684546	-0.702282	1.036269
N113	N	1.258193	-1.220763	0.550291
N114	N	1.758193	-0.720763	1.050291
H115	H	1.306100	-1.177938	0.499755
H116	H	1.806100	-0.677938	0.999755
N117	N	0.959937	-1.106203	0.773001
N118	N	1.459937	-0.606203	1.273001
N119	N	0.948917	-1.204429	0.784695
N120	N	1.448917	-0.704429	1.284695
H121	H	0.901018	-1.247273	0.835233
H122	H	1.401018	-0.747273	1.335233
