data_functionalizedCrystal
_audit_creation_method	'MofGen! by Chris Wilmer'
_symmetry_space_group_name_H-M	'P1'
_symmetry_Int_Tables_number	1
_symmetry_cell_setting	triclinic
loop_
_symmetry_equiv_pos_as_xyz
  x,y,z
_cell_length_a	19.188933
_cell_length_b	19.288865
_cell_length_c	18.366186
_cell_angle_alpha	90.011479
_cell_angle_beta	89.992367
_cell_angle_gamma	96.859092
loop_
_atom_site_label
_atom_site_type_symbol
_atom_site_fract_x
_atom_site_fract_y
_atom_site_fract_z
O1	O	0.926142	-0.086724	-0.060534
O2	O	1.259475	0.246609	0.272800
O3	O	1.592809	0.579943	0.606133
O4	O	0.722830	-0.098396	-0.060542
O5	O	1.056163	0.234937	0.272792
O6	O	1.389497	0.568270	0.606125
O7	O	0.830361	0.008570	-0.060523
O8	O	1.163694	0.341903	0.272810
O9	O	1.497027	0.675236	0.606144
O10	O	0.818611	-0.193690	-0.060552
O11	O	1.151944	0.139643	0.272781
O12	O	1.485278	0.472977	0.606114
O13	O	0.830342	0.008575	0.060576
O14	O	1.163676	0.341908	0.393910
O15	O	1.497009	0.675242	0.727243
O16	O	0.722812	-0.098391	0.060558
O17	O	1.056145	0.234942	0.393891
O18	O	1.389478	0.568276	0.727224
O19	O	0.926124	-0.086719	0.060566
O20	O	1.259457	0.246614	0.393899
O21	O	1.592790	0.579948	0.727232
Zn22	Zn	0.824465	-0.092554	0.079789
Zn23	Zn	1.157798	0.240779	0.413122
Zn24	Zn	1.491131	0.574113	0.746456
Zn25	Zn	0.824489	-0.092561	-0.079765
Zn26	Zn	1.157822	0.240772	0.253569
Zn27	Zn	1.491155	0.574106	0.586902
O28	O	0.818593	-0.193685	0.060547
O29	O	1.151926	0.139649	0.393880
O30	O	1.485260	0.472982	0.727214
C31	C	0.696810	-0.098015	0.000007
C32	C	1.030143	0.235318	0.333341
C33	C	1.363476	0.568651	0.666674
C34	C	0.619305	-0.096880	0.000005
C35	C	0.952639	0.236453	0.333338
C36	C	1.285972	0.569787	0.666672
C37	C	0.066061	-0.088780	-0.065997
C38	C	0.399394	0.244553	0.267336
C39	C	0.732727	0.577887	0.600669
C40	C	0.138885	-0.089842	-0.066000
C41	C	0.472218	0.243491	0.267333
C42	C	0.805551	0.576824	0.600666
C43	C	0.175292	-0.090374	0.000011
C44	C	0.508625	0.242959	0.333344
C45	C	0.841958	0.576292	0.666677
C46	C	0.138871	-0.089825	0.066029
C47	C	0.472204	0.243508	0.399363
C48	C	0.805538	0.576841	0.732696
C49	C	0.066049	-0.088756	0.066031
C50	C	0.399382	0.244578	0.399364
C51	C	0.732716	0.577911	0.732697
N52	N	0.284301	-0.131576	0.049140
N53	N	0.617635	0.201757	0.382473
N54	N	0.950968	0.535090	0.715806
N55	N	0.353479	-0.132594	0.049134
N56	N	0.686812	0.200739	0.382468
N57	N	1.020145	0.534073	0.715801
C58	C	0.394700	-0.093595	0.000011
C59	C	0.728034	0.239738	0.333345
C60	C	1.061367	0.573071	0.666678
N61	N	0.364130	-0.053549	-0.049117
N62	N	0.697463	0.279784	0.284217
N63	N	1.030796	0.613117	0.617550
N64	N	0.294945	-0.052535	-0.049113
N65	N	0.628279	0.280798	0.284220
N66	N	0.961612	0.614132	0.617553
C67	C	0.254255	-0.091534	0.000017
C68	C	0.587588	0.241800	0.333350
C69	C	0.920922	0.575133	0.666683
C70	C	0.510077	-0.095291	-0.066006
C71	C	0.843411	0.238042	0.267327
C72	C	1.176744	0.571375	0.600660
C73	C	0.582903	-0.096350	-0.066007
C74	C	0.916237	0.236984	0.267327
C75	C	1.249570	0.570317	0.600660
C76	C	0.582887	-0.096339	0.066025
C77	C	0.916221	0.236994	0.399358
C78	C	1.249554	0.570327	0.732692
C79	C	0.510063	-0.095274	0.066023
C80	C	0.843397	0.238059	0.399357
C81	C	1.176730	0.571392	0.732690
C82	C	0.473662	-0.094754	0.000006
C83	C	0.806996	0.238580	0.333339
C84	C	1.140329	0.571913	0.666672
C85	C	0.829973	0.034449	0.000029
C86	C	1.163307	0.367782	0.333362
C87	C	1.496640	0.701115	0.666695
C88	C	0.828839	0.111552	0.000035
C89	C	1.162172	0.444886	0.333369
C90	C	1.495505	0.778219	0.666702
C91	C	0.952144	-0.087100	0.000015
C92	C	1.285477	0.246234	0.333349
C93	C	1.618810	0.579567	0.666682
C94	C	1.029648	-0.088235	0.000013
C95	C	1.362981	0.245098	0.333346
C96	C	1.696315	0.578432	0.666679
C97	C	0.818980	-0.219564	-0.000006
C98	C	1.152313	0.113769	0.333327
C99	C	1.485647	0.447103	0.666660
C100	C	0.820115	-0.296668	-0.000018
C101	C	1.153448	0.036666	0.333316
C102	C	1.486782	0.369999	0.666649
N103	N	0.824453	-0.092549	0.188680
N104	N	1.157787	0.240784	0.522013
N105	N	1.491120	0.574118	0.855347
C106	C	0.891933	0.156244	0.000041
C107	C	1.225266	0.489577	0.333375
C108	C	1.558599	0.822910	0.666708
C109	C	0.890867	0.228691	0.000030
C110	C	1.224200	0.562024	0.333363
C111	C	1.557533	0.895357	0.666696
C112	C	0.826703	0.256443	0.000027
C113	C	1.160036	0.589777	0.333360
C114	C	1.493369	0.923110	0.666693
C115	C	0.763600	0.211742	0.000017
C116	C	1.096933	0.545076	0.333350
C117	C	1.430267	0.878409	0.666683
C118	C	0.764668	0.139297	0.000021
C119	C	1.098001	0.472630	0.333354
C120	C	1.431335	0.805964	0.666687
C121	C	0.776256	0.364737	0.042443
C122	C	1.109589	0.698070	0.375777
C123	C	1.442922	1.031403	0.709110
C124	C	0.775190	0.437181	0.042443
C125	C	1.108524	0.770515	0.375777
C126	C	1.441857	1.103848	0.709110
C127	C	0.823406	0.479889	0.000010
C128	C	1.156739	0.813223	0.333344
C129	C	1.490073	1.146556	0.666677
C130	C	0.872699	0.450145	-0.042414
C131	C	1.206032	0.783479	0.290920
C132	C	1.539365	1.116812	0.624253
C133	C	0.873767	0.377700	-0.042409
C134	C	1.207100	0.711033	0.290924
C135	C	1.540433	1.044366	0.624257
C136	C	0.825537	0.334998	0.000022
C137	C	1.158871	0.668331	0.333355
C138	C	1.492204	1.001664	0.666688
C139	C	0.885348	0.603137	0.000003
C140	C	1.218682	0.936470	0.333336
C141	C	1.552015	1.269803	0.666669
C142	C	0.884279	0.675585	-0.000013
C143	C	1.217613	1.008918	0.333320
C144	C	1.550946	1.342251	0.666653
C145	C	0.757011	0.658635	-0.000019
C146	C	1.090345	0.991968	0.333314
C147	C	1.423678	1.325302	0.666648
C148	C	0.758082	0.586188	-0.000010
C149	C	1.091415	0.919522	0.333323
C150	C	1.424749	1.252855	0.666656
C151	C	0.822252	0.558444	0.000004
C152	C	1.155586	0.891777	0.333337
C153	C	1.488919	1.225110	0.666671
N154	N	0.824506	-0.092561	-0.188656
N155	N	1.157839	0.240773	0.144677
N156	N	1.491172	0.574106	0.478011
C157	C	0.872084	-0.045208	0.226789
C158	C	1.205417	0.288126	0.560122
C159	C	1.538750	0.621459	0.893455
C160	C	0.872088	-0.045205	0.303016
C161	C	1.205421	0.288129	0.636350
C162	C	1.538755	0.621462	0.969683
C163	C	0.824469	-0.092555	0.341133
C164	C	1.157802	0.240779	0.674466
C165	C	1.491136	0.574112	1.007799
C166	C	0.776830	-0.139900	0.303015
C167	C	1.110163	0.193434	0.636348
C168	C	1.443497	0.526767	0.969682
C169	C	0.776822	-0.139897	0.226789
C170	C	1.110156	0.193437	0.560122
C171	C	1.443489	0.526770	0.893455
C172	C	0.815122	-0.155842	0.461884
C173	C	1.148456	0.177491	0.795217
C174	C	1.481789	0.510825	1.128550
C175	C	0.815135	-0.155846	0.538109
C176	C	1.148468	0.177488	0.871442
C177	C	1.481802	0.510821	1.204775
C178	C	0.824489	-0.092563	0.576240
C179	C	1.157822	0.240770	0.909574
C180	C	1.491155	0.574103	1.242907
C181	C	0.833845	-0.029275	0.538138
C182	C	1.167178	0.304059	0.871471
C183	C	1.500511	0.637392	1.204804
C184	C	0.833837	-0.029272	0.461911
C185	C	1.167170	0.304061	0.795244
C186	C	1.500504	0.637395	1.128578
C187	C	0.824472	-0.092563	0.423787
C188	C	1.157805	0.240770	0.757121
C189	C	1.491138	0.574104	1.090454
C190	C	0.872126	-0.045215	0.697004
C191	C	1.205460	0.288119	1.030337
C192	C	1.538793	0.621452	1.363670
C193	C	0.872126	-0.045211	0.773233
C194	C	1.205459	0.288123	1.106566
C195	C	1.538793	0.621456	1.439900
C196	C	0.776871	-0.139912	0.773230
C197	C	1.110204	0.193421	1.106563
C198	C	1.443538	0.526755	1.439897
C199	C	0.776868	-0.139910	0.697002
C200	C	1.110202	0.193423	1.030336
C201	C	1.443535	0.526757	1.363669
C202	C	0.824500	-0.092562	0.658894
C203	C	1.157833	0.240771	0.992227
C204	C	1.491166	0.574105	1.325560
H205	H	0.168537	-0.090290	-0.119755
H206	H	0.501870	0.243043	0.213578
H207	H	0.835204	0.576377	0.546911
H208	H	0.944185	0.133659	0.000050
H209	H	1.277519	0.466992	0.333384
H210	H	1.610852	0.800326	0.666717
H211	H	0.480416	-0.094833	0.119776
H212	H	0.813749	0.238500	0.453109
H213	H	1.147082	0.571834	0.786443
H214	H	0.910910	-0.006656	0.804262
H215	H	1.244243	0.326677	1.137595
H216	H	1.577577	0.660011	1.470928
H217	H	0.036428	-0.088353	-0.119754
H218	H	0.369761	0.244980	0.213579
H219	H	0.703094	0.578314	0.546912
H220	H	0.738035	-0.178448	0.195760
H221	H	1.071368	0.154885	0.529093
H222	H	1.404702	0.488218	0.862426
H223	H	0.704768	0.681230	-0.000025
H224	H	1.038101	1.014564	0.333308
H225	H	1.371434	1.347897	0.666642
Br226	Br	0.672449	0.525532	-0.000018
Br227	Br	1.005783	0.858865	0.333316
Br228	Br	1.339116	1.192198	0.666649
H229	H	0.612550	-0.096788	-0.119762
H230	H	0.945883	0.236545	0.213571
H231	H	1.279217	0.569879	0.546904
H232	H	0.168518	-0.090257	0.119776
H233	H	0.501852	0.243076	0.453109
H234	H	0.835185	0.576410	0.786443
H235	H	0.036402	-0.088315	0.119786
H236	H	0.369735	0.245019	0.453119
H237	H	0.703069	0.578352	0.786452
Br238	Br	0.938140	0.508097	-0.100005
Br239	Br	1.271473	0.841430	0.233328
Br240	Br	1.604806	1.174764	0.566661
H241	H	0.937600	0.580546	0.000011
H242	H	1.270933	0.913879	0.333344
H243	H	1.604266	1.247213	0.666678
H244	H	0.807493	-0.207377	0.430843
H245	H	1.140827	0.125956	0.764177
H246	H	1.474160	0.459290	1.097510
H247	H	0.480438	-0.094865	-0.119762
H248	H	0.813771	0.238468	0.213571
H249	H	1.147105	0.571802	0.546905
Br250	Br	0.632291	-0.097046	0.155613
Br251	Br	0.965624	0.236287	0.488947
Br252	Br	1.298957	0.569621	0.822280
Br253	Br	0.712227	-0.204164	0.645277
Br254	Br	1.045560	0.129169	0.978611
Br255	Br	1.378893	0.462503	1.311944
Br256	Br	0.846549	0.056615	0.589877
Br257	Br	1.179882	0.389948	0.923211
Br258	Br	1.513215	0.723281	1.256544
H259	H	0.910909	-0.006659	0.665975
H260	H	1.244242	0.326674	0.999308
H261	H	1.577575	0.660007	1.332641
Br262	Br	0.969915	0.736240	-0.000013
Br263	Br	1.303249	1.069573	0.333320
Br264	Br	1.636582	1.402907	0.666654
Br265	Br	0.708299	0.477542	0.100023
Br266	Br	1.041632	0.810875	0.433356
Br267	Br	1.374966	1.144208	0.766689
H268	H	0.736991	0.329969	0.077001
H269	H	1.070325	0.663302	0.410335
H270	H	1.403658	0.996636	0.743668
Br271	Br	0.976500	0.289355	0.000035
Br272	Br	1.309834	0.622688	0.333368
Br273	Br	1.643167	0.956022	0.666701
H274	H	0.807521	-0.207379	0.569126
H275	H	1.140855	0.125954	0.902459
H276	H	1.474188	0.459288	1.235793
Br277	Br	0.940657	0.337334	-0.099985
Br278	Br	1.273990	0.670667	0.233348
Br279	Br	1.607323	1.004000	0.566681
Br280	Br	0.676520	0.249405	0.000003
Br281	Br	1.009853	0.582738	0.333337
Br282	Br	1.343186	0.916071	0.666670
Br283	Br	0.679033	0.078640	0.000011
Br284	Br	1.012367	0.411973	0.333344
Br285	Br	1.345700	0.745307	0.666677
H286	H	0.738096	-0.178463	0.804264
H287	H	1.071429	0.154871	1.137597
H288	H	1.404763	0.488204	1.470930
Br289	Br	0.712198	-0.204157	0.354741
Br290	Br	1.045531	0.129177	0.688074
Br291	Br	1.378865	0.462510	1.021408
Br292	Br	0.936722	0.019050	0.175069
Br293	Br	1.270055	0.352384	0.508403
Br294	Br	1.603388	0.685717	0.841736
Br295	Br	0.936734	0.019051	0.354745
Br296	Br	1.270067	0.352384	0.688078
Br297	Br	1.603400	0.685717	1.021411
H298	H	0.841453	0.022260	0.430891
H299	H	1.174786	0.355593	0.764224
H300	H	1.508120	0.688927	1.097558
