data_functionalizedCrystal
_audit_creation_method	'MofGen! by Chris Wilmer'
_symmetry_space_group_name_H-M	'P1'
_symmetry_Int_Tables_number	1
_symmetry_cell_setting	triclinic
loop_
_symmetry_equiv_pos_as_xyz
  x,y,z
_cell_length_a	17.077404
_cell_length_b	12.759394
_cell_length_c	17.077396
_cell_angle_alpha	89.975378
_cell_angle_beta	89.978556
_cell_angle_gamma	90.012103
loop_
_atom_site_label
_atom_site_type_symbol
_atom_site_fract_x
_atom_site_fract_y
_atom_site_fract_z
Zn1	Zn	1.200104	-0.418316	-0.443904
Zn2	Zn	1.700104	0.081684	0.056096
Zn3	Zn	1.200032	-0.594016	-0.312647
Zn4	Zn	1.700032	-0.094016	0.187353
Zn5	Zn	1.068836	-0.418346	-0.312648
Zn6	Zn	1.568836	0.081654	0.187352
Zn7	Zn	1.068824	-0.593948	-0.443866
Zn8	Zn	1.568824	-0.093948	0.056134
O9	O	1.134449	-0.506156	-0.378267
O10	O	1.634449	-0.006156	0.121733
O11	O	1.309941	-0.441638	-0.426509
O12	O	1.809941	0.058362	0.073491
O13	O	1.182603	-0.570755	-0.202800
O14	O	1.682603	-0.070755	0.297200
O15	O	1.086284	-0.271321	-0.330076
O16	O	1.586284	0.228679	0.169924
O17	O	1.309888	-0.570725	-0.330074
O18	O	1.809888	-0.070725	0.169926
O19	O	1.182726	-0.271299	-0.426509
O20	O	1.682726	0.228701	0.073491
O21	O	1.086214	-0.441691	-0.202801
O22	O	1.586214	0.058309	0.297199
O23	O	0.958987	-0.441625	-0.330039
O24	O	1.458987	0.058375	0.169961
O25	O	1.086264	-0.570608	-0.553718
O26	O	1.586264	-0.070608	-0.053718
O27	O	0.958979	-0.570638	-0.426444
O28	O	1.458979	-0.070638	0.073556
O29	O	1.182715	-0.441572	-0.553746
O30	O	1.682715	0.058428	-0.053746
O31	O	1.182592	-0.741028	-0.330038
O32	O	1.682592	-0.241028	0.169962
O33	O	1.086194	-0.740978	-0.426444
O34	O	1.586194	-0.240978	0.073556
C35	C	0.930501	-0.506128	-0.378238
C36	C	1.430501	-0.006128	0.121762
C37	C	0.843251	-0.506141	-0.378244
C38	C	1.343251	-0.006141	0.121756
C39	C	0.467462	-0.439091	-0.428589
C40	C	0.967462	0.060909	0.071411
C41	C	0.549442	-0.439083	-0.428580
C42	C	1.049442	0.060917	0.071420
C43	C	0.590402	-0.506179	-0.378286
C44	C	1.090402	-0.006179	0.121714
C45	C	0.549378	-0.573293	-0.328004
C46	C	1.049378	-0.073293	0.171996
C47	C	0.467399	-0.573306	-0.328017
C48	C	0.967399	-0.073306	0.171983
C49	C	0.720248	-0.573262	-0.327978
C50	C	1.220248	-0.073262	0.172022
C51	C	0.802233	-0.573249	-0.327964
C52	C	1.302233	-0.073249	0.172036
C53	C	0.802291	-0.439040	-0.428541
C54	C	1.302291	0.060960	0.071459
C55	C	0.720312	-0.439052	-0.428555
C56	C	1.220312	0.060948	0.071445
C57	C	0.679293	-0.506165	-0.378271
C58	C	1.179293	-0.006165	0.121729
C59	C	1.134405	-0.779124	-0.378254
C60	C	1.634405	-0.279124	0.121746
C61	C	1.134458	-0.895901	-0.378274
C62	C	1.634458	-0.395901	0.121726
C63	C	1.234809	-0.895719	-0.478766
C64	C	1.734809	-0.395719	0.021234
C65	C	1.285008	-0.950489	-0.529018
C66	C	1.785008	-0.450489	-0.029018
C67	C	1.285055	-1.060210	-0.529035
C68	C	1.785055	-0.560210	-0.029035
C69	C	1.234895	-1.115165	-0.478796
C70	C	1.734895	-0.615165	0.021204
C71	C	1.184695	-1.060395	-0.428544
C72	C	1.684695	-0.560395	0.071456
C73	C	1.184655	-0.950671	-0.428531
C74	C	1.684655	-0.450671	0.071469
C75	C	1.084342	-1.060576	-0.328058
C76	C	1.584342	-0.560576	0.171942
C77	C	1.084298	-0.950855	-0.328036
C78	C	1.584298	-0.450855	0.171964
C79	C	1.034182	-1.115531	-0.277819
C80	C	1.534182	-0.615531	0.222181
C81	C	0.983985	-1.060761	-0.227562
C82	C	1.483985	-0.560761	0.272438
C83	C	0.983941	-0.951033	-0.227547
C84	C	1.483941	-0.451033	0.272453
C85	C	1.034098	-0.896085	-0.277784
C86	C	1.534098	-0.396085	0.222216
C87	C	1.339193	-0.506186	-0.378296
C88	C	1.839193	-0.006186	0.121704
C89	C	1.426443	-0.506198	-0.378308
C90	C	1.926443	-0.006198	0.121692
C91	C	1.134496	-0.506079	-0.583011
C92	C	1.634496	-0.006079	-0.083011
C93	C	1.134517	-0.506046	-0.670261
C94	C	1.634517	-0.006046	-0.170261
C95	C	1.134514	-0.232123	-0.378297
C96	C	1.634514	0.267877	0.121703
C97	C	1.134542	-0.115346	-0.378310
C98	C	1.634542	0.384654	0.121690
C99	C	1.184740	-0.438851	-0.711267
C100	C	1.684740	0.061149	-0.211267
C101	C	1.184750	-0.438816	-0.793247
C102	C	1.684750	0.061184	-0.293247
C103	C	1.134539	-0.505982	-0.834220
C104	C	1.634539	-0.005982	-0.334220
C105	C	1.084310	-0.573180	-0.793209
C106	C	1.584310	-0.073180	-0.293209
C107	C	1.084297	-0.573209	-0.711230
C108	C	1.584297	-0.073209	-0.211230
C109	C	1.084341	-0.573117	-0.964079
C110	C	1.584341	-0.073117	-0.464079
C111	C	1.084355	-0.573090	-1.046063
C112	C	1.584355	-0.073090	-0.546063
C113	C	1.184794	-0.438724	-1.046096
C114	C	1.684794	0.061276	-0.546096
C115	C	1.184781	-0.438753	-0.964117
C116	C	1.684781	0.061247	-0.464117
C117	C	1.134553	-0.505953	-0.923111
C118	C	1.634553	-0.005953	-0.423111
C119	C	1.134447	-0.506158	-0.174319
C120	C	1.634447	-0.006158	0.325681
C121	C	1.134579	-0.505895	-0.087069
C122	C	1.634579	-0.005895	0.412931
H123	H	0.835580	-0.627886	-0.287013
H124	H	1.335580	-0.127886	0.212987
C125	C	0.847413	-0.365220	-0.483860
C126	C	1.347413	0.134780	0.016140
N127	N	0.881403	-0.309621	-0.525523
N128	N	1.381403	0.190379	-0.025523
C129	C	1.029070	-0.647053	-0.838282
C130	C	1.529070	-0.147053	-0.338282
N131	N	0.987461	-0.702695	-0.872230
N132	N	1.487461	-0.202695	-0.372230
C133	C	0.422279	-0.647126	-0.272702
C134	C	0.922279	-0.147126	0.227298
N135	N	0.388296	-0.702732	-0.231039
N136	N	0.888296	-0.202732	0.268961
C137	C	0.594437	-0.647095	-0.272677
C138	C	1.094437	-0.147095	0.227323
N139	N	0.628375	-0.702679	-0.231000
N140	N	1.128375	-0.202679	0.269000
C141	C	1.240045	-0.364803	-1.091205
C142	C	1.740045	0.135197	-0.591205
N143	N	1.281661	-0.309132	-1.125184
N144	N	1.781661	0.190868	-0.625184
C145	C	1.234767	-0.775022	-0.478747
C146	C	1.734767	-0.275022	0.021253
N147	N	1.234737	-0.684112	-0.478734
N148	N	1.734737	-0.184112	0.021266
C149	C	0.928850	-1.121217	-0.172271
C150	C	1.428850	-0.621217	0.327729
N151	N	0.887336	-1.166757	-0.130610
N152	N	1.387336	-0.666757	0.369390
H153	H	1.325847	-0.905736	-0.569923
H154	H	1.825847	-0.405736	-0.069923
H155	H	0.434118	-0.384448	-0.469539
H156	H	0.934118	0.115552	0.030461
H157	H	1.325924	-1.104804	-0.569962
H158	H	1.825924	-0.604804	-0.069962
H159	H	1.034071	-0.806744	-0.277773
H160	H	1.534071	-0.306744	0.222227
H161	H	1.043428	-0.627821	-0.930694
H162	H	1.543428	-0.127821	-0.430694
H163	H	1.043467	-0.627780	-1.079421
H164	H	1.543467	-0.127780	-0.579421
H165	H	0.686964	-0.384412	-0.469505
H166	H	1.186964	0.115588	0.030495
H167	H	1.234931	-1.204506	-0.478821
H168	H	1.734931	-0.704506	0.021179
H169	H	1.043392	-0.627915	-0.677844
H170	H	1.543392	-0.127915	-0.177844
H171	H	1.225630	-0.384160	-0.677912
H172	H	1.725630	0.115840	-0.177912
C173	C	1.240014	-0.364865	-0.919049
C174	C	1.740014	0.135135	-0.419049
N175	N	1.281613	-0.309207	-0.885103
N176	N	1.781613	0.190793	-0.385103
C177	C	1.034244	-1.236227	-0.277830
C178	C	1.534244	-0.736227	0.222170
N179	N	1.034296	-1.327138	-0.277832
N180	N	1.534296	-0.827138	0.222168
H181	H	0.582836	-0.384441	-0.469526
H182	H	1.082836	0.115559	0.030474
C183	C	0.928713	-0.890794	-0.172268
C184	C	1.428713	-0.390794	0.327732
N185	N	0.887114	-0.845427	-0.130631
N186	N	1.387114	-0.345427	0.369369
H187	H	1.225649	-0.384102	-0.826631
H188	H	1.725649	0.115898	-0.326631
H189	H	0.686853	-0.627917	-0.287035
H190	H	1.186853	-0.127917	0.212965
