data_functionalizedCrystal
_audit_creation_method	'MofGen! by Chris Wilmer'
_symmetry_space_group_name_H-M	'P1'
_symmetry_Int_Tables_number	1
_symmetry_cell_setting	triclinic
loop_
_symmetry_equiv_pos_as_xyz
  x,y,z
_cell_length_a	17.038272
_cell_length_b	14.044220
_cell_length_c	13.101039
_cell_angle_alpha	86.332523
_cell_angle_beta	86.404528
_cell_angle_gamma	87.849783
loop_
_atom_site_label
_atom_site_type_symbol
_atom_site_fract_x
_atom_site_fract_y
_atom_site_fract_z
O1	O	1.055801	-0.202095	-0.085089
O2	O	1.389134	0.131239	0.248244
O3	O	1.722467	0.464572	0.581577
O4	O	0.827941	-0.198806	-0.085119
O5	O	1.161275	0.134527	0.248214
O6	O	1.494608	0.467861	0.581547
O7	O	0.938450	-0.062191	-0.085095
O8	O	1.271784	0.271143	0.248239
O9	O	1.605117	0.604476	0.581572
O10	O	0.945292	-0.338710	-0.085114
O11	O	1.278625	-0.005377	0.248219
O12	O	1.611958	0.327956	0.581553
O13	O	0.930523	-0.072010	0.085333
O14	O	1.263856	0.261323	0.418667
O15	O	1.597189	0.594657	0.752000
O16	O	0.820014	-0.208625	0.085309
O17	O	1.153347	0.124708	0.418642
O18	O	1.486680	0.458041	0.751975
O19	O	1.047873	-0.211914	0.085339
O20	O	1.381206	0.121419	0.418672
O21	O	1.714540	0.454753	0.752005
Zn22	Zn	0.932685	-0.211829	0.112383
Zn23	Zn	1.266018	0.121505	0.445716
Zn24	Zn	1.599351	0.454838	0.779050
Zn25	Zn	0.943130	-0.198891	-0.112163
Zn26	Zn	1.276463	0.134442	0.221170
Zn27	Zn	1.609796	0.467775	0.554503
O28	O	0.937364	-0.348530	0.085314
O29	O	1.270697	-0.015196	0.418647
O30	O	1.604031	0.318137	0.751981
C31	C	0.794640	-0.200726	0.000091
C32	C	1.127974	0.132607	0.333424
C33	C	1.461307	0.465941	0.666758
C34	C	0.707224	-0.191806	0.000080
C35	C	1.040557	0.141527	0.333413
C36	C	1.373891	0.474860	0.666746
N37	N	0.925562	-0.220658	0.265630
N38	N	1.258895	0.112675	0.598963
N39	N	1.592229	0.446009	0.932296
C40	C	0.931492	-0.031544	0.000119
C41	C	1.264826	0.301789	0.333453
C42	C	1.598159	0.635122	0.666786
C43	C	0.922561	0.074402	0.000119
C44	C	1.255894	0.407735	0.333453
C45	C	1.589228	0.741068	0.666786
C46	C	0.662839	-0.273694	0.000075
C47	C	0.996172	0.059639	0.333408
C48	C	1.329506	0.392972	0.666741
C49	C	0.580701	-0.265309	0.000090
C50	C	0.914034	0.068024	0.333423
C51	C	1.247368	0.401358	0.666756
C52	C	0.542950	-0.175034	0.000102
C53	C	0.876283	0.158299	0.333435
C54	C	1.209617	0.491632	0.666769
C55	C	0.587341	-0.093140	0.000110
C56	C	0.920675	0.240193	0.333443
C57	C	1.254008	0.573526	0.666777
C58	C	0.669477	-0.101527	0.000102
C59	C	1.002811	0.231806	0.333436
C60	C	1.336144	0.565140	0.666769
C61	C	0.295118	-0.145406	0.000131
C62	C	0.628451	0.187927	0.333465
C63	C	0.961785	0.521261	0.666798
C64	C	0.212976	-0.137025	0.000136
C65	C	0.546309	0.196308	0.333469
C66	C	0.879643	0.529641	0.666802
C67	C	0.206341	-0.309195	0.000117
C68	C	0.539675	0.024138	0.333451
C69	C	0.873008	0.357472	0.666784
C70	C	0.288480	-0.317573	0.000104
C71	C	0.621813	0.015760	0.333437
C72	C	0.955146	0.349093	0.666770
C73	C	0.332863	-0.235680	0.000117
C74	C	0.666197	0.097654	0.333450
C75	C	0.999530	0.430987	0.666784
C76	C	0.458992	-0.166461	0.000114
C77	C	0.792326	0.166872	0.333447
C78	C	1.125659	0.500206	0.666780
C79	C	0.416819	-0.244254	0.000113
C80	C	0.750153	0.089079	0.333446
C81	C	1.083486	0.422412	0.666779
C82	C	1.081174	-0.209994	0.000126
C83	C	1.414508	0.123339	0.333460
C84	C	1.747841	0.456673	0.666793
C85	C	1.168591	-0.218913	0.000131
C86	C	1.501924	0.114420	0.333464
C87	C	1.835258	0.447753	0.666797
C88	C	0.944322	-0.379176	0.000098
C89	C	1.277656	-0.045842	0.333431
C90	C	1.610989	0.287491	0.666764
C91	C	0.953254	-0.485121	0.000091
C92	C	1.286587	-0.151788	0.333424
C93	C	1.619921	0.181545	0.666758
C94	C	0.906233	0.268381	0.000103
C95	C	1.239567	0.601714	0.333436
C96	C	1.572900	0.935047	0.666769
C97	C	0.969578	0.320905	0.000108
C98	C	1.302911	0.654239	0.333441
C99	C	1.636245	0.987572	0.666774
C100	C	0.960493	0.428842	0.000098
C101	C	1.293827	0.762175	0.333432
C102	C	1.627160	1.095509	0.666765
C103	C	0.915317	0.160434	0.000112
C104	C	1.248650	0.493768	0.333445
C105	C	1.581984	0.827101	0.666779
N106	N	0.950258	-0.190055	-0.265410
N107	N	1.283592	0.143278	0.067923
N108	N	1.616925	0.476612	0.401256
C109	C	0.915872	-0.232680	0.474670
C110	C	1.249205	0.100654	0.808004
C111	C	1.582538	0.433987	1.141337
C112	C	0.959946	-0.178037	0.525556
C113	C	1.293279	0.155297	0.858889
C114	C	1.626613	0.488630	1.192222
C115	C	0.954554	-0.184725	0.641873
C116	C	1.287888	0.148608	0.975206
C117	C	1.621221	0.481941	1.308540
C118	C	0.921263	-0.225992	0.358342
C119	C	1.254596	0.107341	0.691676
C120	C	1.587929	0.440675	1.025009
H121	H	0.693569	-0.347205	0.000064
H122	H	1.026903	-0.013872	0.333397
H123	H	1.360236	0.319461	0.666731
H124	H	0.331245	-0.078722	0.000143
H125	H	0.664579	0.254611	0.333476
H126	H	0.997912	0.587945	0.666810
H127	H	1.030636	0.284815	0.000047
H128	H	1.363969	0.618148	0.333380
H129	H	1.697302	0.951481	0.666714
O130	O	0.825361	0.316179	0.000108
O131	O	1.158694	0.649513	0.333441
O132	O	1.492027	0.982846	0.666775
H133	H	0.830827	0.394684	0.000117
H134	H	1.164160	0.728017	0.333450
H135	H	1.497493	1.061350	0.666783
O136	O	1.015293	-0.109413	0.467553
O137	O	1.348626	0.223920	0.800886
O138	O	1.681959	0.557253	1.134220
H139	H	1.076517	-0.127577	0.488077
H140	H	1.409850	0.205756	0.821410
H141	H	1.743183	0.539090	1.154744
O142	O	0.860536	-0.301311	0.532665
O143	O	1.193869	0.032023	0.865998
O144	O	1.527203	0.365356	1.199332
H145	H	0.864942	-0.295868	0.616247
H146	H	1.198275	0.037466	0.949580
H147	H	1.531609	0.370799	1.282914
H148	H	0.544566	-0.331991	0.000084
H149	H	0.877899	0.001342	0.333418
H150	H	1.211233	0.334676	0.666751
H151	H	0.319211	-0.391084	0.000082
H152	H	0.652544	-0.057750	0.333415
H153	H	0.985878	0.275583	0.666748
H154	H	0.182242	-0.063509	0.000145
H155	H	0.515576	0.269824	0.333478
H156	H	0.848909	0.603157	0.666811
O157	O	0.158472	-0.397522	0.000124
O158	O	0.491805	-0.064189	0.333457
O159	O	0.825139	0.269144	0.666791
H160	H	0.095015	-0.376530	0.000144
H161	H	0.428348	-0.043196	0.333477
H162	H	0.761681	0.290137	0.666810
O163	O	0.546630	0.004231	0.000127
O164	O	0.879964	0.337564	0.333460
O165	O	1.213297	0.670897	0.666794
H166	H	0.482059	-0.003692	0.000122
H167	H	0.815392	0.329641	0.333455
H168	H	1.148726	0.662974	0.666788
H169	H	0.705615	-0.034845	0.000106
H170	H	1.038948	0.298489	0.333439
H171	H	1.372282	0.631822	0.666773
H172	H	0.447559	-0.317756	0.000108
H173	H	0.780893	0.015577	0.333442
H174	H	1.114226	0.348911	0.666775
H175	H	0.428245	-0.092960	0.000153
H176	H	0.761578	0.240373	0.333486
H177	H	1.094912	0.573706	0.666819
