data_functionalizedCrystal
_audit_creation_method	'MofGen! by Chris Wilmer'
_symmetry_space_group_name_H-M	'P1'
_symmetry_Int_Tables_number	1
_symmetry_cell_setting	triclinic
loop_
_symmetry_equiv_pos_as_xyz
  x,y,z
_cell_length_a	16.109301
_cell_length_b	14.044220
_cell_length_c	15.186229
_cell_angle_alpha	89.995248
_cell_angle_beta	89.999362
_cell_angle_gamma	88.325179
loop_
_atom_site_label
_atom_site_type_symbol
_atom_site_fract_x
_atom_site_fract_y
_atom_site_fract_z
O1	O	1.112195	0.121835	-0.073175
O2	O	0.871261	0.136997	-0.073189
O3	O	0.988112	-0.008568	-0.073174
O4	O	0.995345	0.267399	-0.073191
O5	O	0.988103	-0.008570	0.073284
O6	O	0.871253	0.136995	0.073268
O7	O	1.112187	0.121832	0.073282
Zn8	Zn	0.991718	0.129413	0.096528
Zn9	Zn	0.991730	0.129416	-0.096435
O10	O	0.995336	0.267397	0.073267
C11	C	0.840236	0.136381	0.000038
C12	C	0.747804	0.134540	0.000033
C13	C	0.984941	-0.043882	0.000055
C14	C	0.975498	-0.149105	0.000056
C15	C	0.531640	0.216634	0.000038
C16	C	0.444790	0.214896	0.000043
C17	C	0.451815	0.042189	0.000050
C18	C	0.538663	0.043927	0.000051
C19	C	0.578573	0.131153	0.000040
C20	C	0.404875	0.127677	0.000045
C21	C	0.310709	0.125792	0.000052
C22	C	0.672745	0.133038	0.000036
C23	C	0.958232	-0.341761	0.000042
C24	C	1.025212	-0.399415	0.000043
C25	C	1.015605	-0.506616	0.000036
C26	C	0.967838	-0.234551	0.000050
C27	C	1.143211	0.122448	0.000053
C28	C	1.235644	0.124289	0.000053
C29	C	0.998506	0.302711	0.000036
C30	C	1.007950	0.407934	0.000030
N31	N	0.991716	0.129411	0.228221
N32	N	0.991737	0.129411	-0.228128
C33	C	1.043479	0.064976	0.453951
C34	C	1.043481	0.064974	0.546141
C35	C	0.939969	0.193848	0.546136
C36	C	0.939963	0.193845	0.453948
C37	C	0.991723	0.129410	0.407858
C38	C	0.991731	0.129411	0.592235
C39	C	0.991734	0.129409	0.692192
C40	C	0.991719	0.129411	0.307895
H41	H	0.406580	0.284504	0.000043
H42	H	0.419309	-0.028827	0.000065
H43	H	0.576877	-0.025686	0.000055
C44	C	1.112428	-0.357341	0.000063
C45	C	1.122043	-0.248570	0.000078
C46	C	1.209255	-0.206490	0.000103
C47	C	1.286852	-0.273181	0.000112
C48	C	1.277239	-0.381959	0.000097
C49	C	1.190027	-0.424038	0.000072
H50	H	1.064599	-0.199195	0.000071
H51	H	1.216371	-0.125966	0.000114
H52	H	1.351411	-0.242032	0.000130
H53	H	1.334682	-0.431333	0.000103
H54	H	1.182911	-0.504563	0.000061
C55	C	0.871021	-0.383833	0.000041
C56	C	0.810417	-0.361002	-0.076008
C57	C	0.723207	-0.403086	-0.076005
C58	C	0.696601	-0.468002	0.000045
C59	C	0.757206	-0.490836	0.076100
C60	C	0.844416	-0.448752	0.076097
H61	H	0.830112	-0.312945	-0.132310
H62	H	0.678343	-0.386182	-0.132306
H63	H	0.632043	-0.499155	0.000047
H64	H	0.737512	-0.538894	0.132402
H65	H	0.889280	-0.465656	0.132398
H66	H	1.085623	0.012508	0.416427
C67	C	1.100416	-0.005901	0.596844
C68	C	1.157355	-0.076766	0.546145
C69	C	1.214291	-0.147646	0.596849
C70	C	1.214289	-0.147660	0.698252
C71	C	1.157348	-0.076793	0.748957
C72	C	1.100412	-0.005913	0.698253
H73	H	1.157358	-0.076758	0.471075
H74	H	1.256443	-0.200106	0.559313
H75	H	1.256437	-0.200130	0.735786
H76	H	1.157344	-0.076801	0.824027
H77	H	1.058260	0.046548	0.735789
C78	C	0.883042	0.264732	0.596835
C79	C	0.883095	0.264795	0.698238
C80	C	0.826168	0.335683	0.748935
C81	C	0.769189	0.406508	0.698228
C82	C	0.769135	0.406447	0.596819
C83	C	0.826062	0.335559	0.546123
H84	H	0.925276	0.212364	0.735780
H85	H	0.826209	0.335728	0.824005
H86	H	0.727049	0.458984	0.735756
H87	H	0.726954	0.458878	0.559278
H88	H	0.826021	0.335514	0.471053
H89	H	0.564132	0.287658	0.000035
H90	H	0.897813	0.246315	0.416416
