data_functionalizedCrystal
_audit_creation_method	'MofGen! by Chris Wilmer'
_symmetry_space_group_name_H-M	'P1'
_symmetry_Int_Tables_number	1
_symmetry_cell_setting	triclinic
loop_
_symmetry_equiv_pos_as_xyz
  x,y,z
_cell_length_a	15.995343
_cell_length_b	15.995292
_cell_length_c	15.186229
_cell_angle_alpha	89.999448
_cell_angle_beta	90.000963
_cell_angle_gamma	83.478900
loop_
_atom_site_label
_atom_site_type_symbol
_atom_site_fract_x
_atom_site_fract_y
_atom_site_fract_z
O1	O	1.110966	0.107897	-0.073134
O2	O	1.444299	0.441231	0.260199
O3	O	1.777633	0.774564	0.593533
O4	O	0.867187	0.121232	-0.073154
O5	O	1.200520	0.454565	0.260179
O6	O	1.533854	0.787899	0.593512
O7	O	0.995766	-0.007326	-0.073145
O8	O	1.329099	0.326007	0.260188
O9	O	1.662432	0.659340	0.593522
O10	O	0.982387	0.236456	-0.073143
O11	O	1.315720	0.569789	0.260190
O12	O	1.649054	0.903122	0.593523
O13	O	0.995757	-0.007328	0.073312
O14	O	1.329090	0.326005	0.406646
O15	O	1.662424	0.659338	0.739979
O16	O	0.867178	0.121230	0.073303
O17	O	1.200512	0.454564	0.406636
O18	O	1.533845	0.787897	0.739970
O19	O	1.110957	0.107896	0.073323
O20	O	1.444291	0.441229	0.406657
O21	O	1.777624	0.774562	0.739990
Zn22	Zn	0.989066	0.114563	0.096566
Zn23	Zn	1.322400	0.447896	0.429900
Zn24	Zn	1.655733	0.781229	0.763233
Zn25	Zn	0.989078	0.114565	-0.096397
Zn26	Zn	1.322411	0.447898	0.236936
Zn27	Zn	1.655744	0.781232	0.570269
O28	O	0.982379	0.236454	0.073314
O29	O	1.315712	0.569787	0.406647
O30	O	1.649045	0.903121	0.739981
C31	C	0.835988	0.120681	0.000072
C32	C	1.169321	0.454014	0.333405
C33	C	1.502655	0.787348	0.666738
C34	C	0.743037	0.119032	0.000064
C35	C	1.076371	0.452365	0.333397
C36	C	1.409704	0.785698	0.666730
C37	C	0.995217	-0.038523	0.000082
C38	C	1.328550	0.294810	0.333415
C39	C	1.661883	0.628144	0.666748
C40	C	0.993584	-0.131476	0.000075
C41	C	1.326918	0.201857	0.333408
C42	C	1.660251	0.535191	0.666741
C43	C	0.572852	0.116038	0.000075
C44	C	0.906185	0.449371	0.333409
C45	C	1.239518	0.782705	0.666742
C46	C	0.549525	0.023238	0.000075
C47	C	0.882859	0.356572	0.333408
C48	C	1.216192	0.689905	0.666741
C49	C	0.452848	0.021493	0.000412
C50	C	0.786181	0.354826	0.333745
C51	C	1.119515	0.688159	0.667079
C52	C	0.405292	0.113089	0.000086
C53	C	0.738626	0.446423	0.333419
C54	C	1.071959	0.779756	0.666753
C55	C	0.434369	0.159750	0.083554
C56	C	0.767703	0.493083	0.416888
C57	C	1.101036	0.826416	0.750221
C58	C	0.531162	0.160850	0.083619
C59	C	0.864495	0.494183	0.416952
C60	C	1.197828	0.827517	0.750286
C61	C	0.531082	0.162211	-0.082936
C62	C	0.864415	0.495544	0.250397
C63	C	1.197748	0.828878	0.583731
C64	C	0.434587	0.158785	-0.084028
C65	C	0.767921	0.492119	0.249305
C66	C	1.101254	0.825452	0.582639
C67	C	0.310595	0.111428	0.000095
C68	C	0.643928	0.444761	0.333428
C69	C	0.977261	0.778095	0.666762
C70	C	0.667549	0.117702	0.000072
C71	C	1.000883	0.451036	0.333406
C72	C	1.334216	0.784369	0.666739
C73	C	0.987583	-0.469214	0.000082
C74	C	1.320916	-0.135881	0.333416
C75	C	1.654250	0.197452	0.666749
C76	C	1.080388	-0.445904	0.000417
C77	C	1.413721	-0.112571	0.333751
C78	C	1.747054	0.220762	0.667084
C79	C	1.082152	-0.349229	0.000084
C80	C	1.415485	-0.015896	0.333417
C81	C	1.748818	0.317438	0.666751
C82	C	0.990561	-0.301658	0.000079
C83	C	1.323894	0.031675	0.333412
C84	C	1.657228	0.365008	0.666746
C85	C	0.944168	-0.330757	-0.083556
C86	C	1.277501	0.002576	0.249777
C87	C	1.610835	0.335910	0.583110
C88	C	0.943051	-0.427547	-0.083623
C89	C	1.276384	-0.094214	0.249710
C90	C	1.609717	0.239119	0.583043
C91	C	0.941146	-0.427407	0.082926
C92	C	1.274479	-0.094073	0.416259
C93	C	1.607813	0.239260	0.749593
C94	C	0.944585	-0.330914	0.084028
C95	C	1.277918	0.002419	0.417362
C96	C	1.611252	0.335752	0.750695
C97	C	0.992239	-0.206962	0.000074
C98	C	1.325572	0.126371	0.333408
C99	C	1.658906	0.459704	0.666741
C100	C	0.985902	-0.563910	0.000081
C101	C	1.319236	-0.230577	0.333414
C102	C	1.652569	0.102757	0.666748
C103	C	1.142156	0.108447	0.000095
C104	C	1.475490	0.441780	0.333429
C105	C	1.808823	0.775113	0.666762
C106	C	1.235107	0.110096	0.000098
C107	C	1.568440	0.443429	0.333431
C108	C	1.901773	0.776762	0.666764
C109	C	0.982927	0.267650	0.000086
C110	C	1.316261	0.600984	0.333419
C111	C	1.649594	0.934317	0.666752
C112	C	0.984560	0.360603	0.000087
C113	C	1.317893	0.693937	0.333420
C114	C	1.651226	1.027270	0.666753
N115	N	0.989065	0.114560	0.228259
N116	N	1.322398	0.447894	0.561592
N117	N	1.655732	0.781227	0.894926
N118	N	0.989086	0.114560	-0.228090
N119	N	1.322419	0.447894	0.105243
N120	N	1.655753	0.781227	0.438577
C121	C	1.046019	0.057654	0.453986
C122	C	1.379352	0.390987	0.787319
C123	C	1.712686	0.724321	1.120653
C124	C	1.046021	0.057652	0.546176
C125	C	1.379355	0.390985	0.879509
C126	C	1.712688	0.724319	1.212842
C127	C	0.932126	0.171470	0.546177
C128	C	1.265459	0.504803	0.879510
C129	C	1.598793	0.838136	1.212843
C130	C	0.932120	0.171467	0.453989
C131	C	1.265453	0.504800	0.787322
C132	C	1.598787	0.838134	1.120655
C133	C	0.989071	0.114560	0.407896
C134	C	1.322404	0.447893	0.741229
C135	C	1.655738	0.781227	1.074562
C136	C	0.989080	0.114561	0.592273
C137	C	1.322413	0.447894	0.925607
C138	C	1.655746	0.781227	1.258940
C139	C	0.989082	0.114559	0.692229
C140	C	1.322415	0.447892	1.025563
C141	C	1.655749	0.781226	1.358896
C142	C	0.989068	0.114561	0.307933
C143	C	1.322401	0.447894	0.641267
C144	C	1.655735	0.781227	0.974600
H145	H	0.433840	-0.015033	-0.059409
H146	H	0.767173	0.318301	0.273924
H147	H	1.100506	0.651634	0.607257
H148	H	0.876769	-0.298887	-0.086669
H149	H	1.210103	0.034446	0.246664
H150	H	1.543436	0.367779	0.579997
H151	H	1.092392	0.011313	0.583700
H152	H	1.425726	0.344646	0.917033
H153	H	1.759059	0.677979	1.250367
H154	H	0.875006	-0.442096	-0.087416
H155	H	1.208339	-0.108762	0.245917
H156	H	1.541673	0.224571	0.579250
H157	H	0.976392	-0.310697	-0.145793
H158	H	1.309725	0.022637	0.187540
H159	H	1.643058	0.355970	0.520873
H160	H	0.557950	0.128912	0.146250
H161	H	0.891284	0.462246	0.479583
H162	H	1.224617	0.795579	0.812916
H163	H	0.577544	-0.012730	-0.059772
H164	H	0.910877	0.320603	0.273561
H165	H	1.244210	0.653936	0.606895
H166	H	0.885759	0.217803	0.583714
H167	H	1.219092	0.551137	0.917048
H168	H	1.552425	0.884470	1.250381
H169	H	0.885742	0.217807	0.416459
H170	H	1.219075	0.551141	0.749793
H171	H	1.552409	0.884474	1.083126
H172	H	1.118707	-0.330825	-0.059968
H173	H	1.452040	0.002509	0.273365
H174	H	1.785374	0.335842	0.606699
H175	H	0.970368	-0.455497	0.146321
H176	H	1.303702	-0.122163	0.479654
H177	H	1.637035	0.211170	0.812987
H178	H	0.545721	0.228902	0.087189
H179	H	0.879054	0.562236	0.420522
H180	H	1.212387	0.895569	0.753855
H181	H	1.118486	-0.330206	0.060036
H182	H	1.451819	0.003128	0.393369
H183	H	1.785152	0.336461	0.726703
H184	H	0.414281	0.127733	0.145907
H185	H	0.747614	0.461067	0.479240
H186	H	1.080947	0.794400	0.812573
H187	H	0.872835	-0.441395	0.083485
H188	H	1.206168	-0.108062	0.416819
H189	H	1.539501	0.225271	0.750152
H190	H	0.402509	0.227162	0.086424
H191	H	0.735842	0.560495	0.419758
H192	H	1.069176	0.893829	0.753091
H193	H	0.578514	-0.012146	0.059841
H194	H	0.911847	0.321187	0.393174
H195	H	1.245180	0.654520	0.726508
H196	H	0.416041	0.124805	-0.145779
H197	H	0.749374	0.458139	0.187554
H198	H	1.082707	0.791472	0.520888
H199	H	0.434415	-0.014863	0.060595
H200	H	0.767748	0.318470	0.393928
H201	H	1.101082	0.651804	0.727262
H202	H	0.545081	0.230517	-0.083740
H203	H	0.878414	0.563850	0.249593
H204	H	1.211747	0.897184	0.582926
H205	H	1.115964	-0.474922	-0.059219
H206	H	1.449297	-0.141589	0.274114
H207	H	1.782631	0.191744	0.607448
H208	H	0.978366	-0.312350	0.145901
H209	H	1.311700	0.020983	0.479234
H210	H	1.645033	0.354316	0.812568
H211	H	1.092391	0.011316	0.416460
H212	H	1.425724	0.344649	0.749793
H213	H	1.759057	0.677982	1.083126
H214	H	0.559361	0.132933	-0.146222
H215	H	0.892695	0.466267	0.187111
H216	H	1.226028	0.799600	0.520445
H217	H	0.877733	-0.297943	0.089075
H218	H	1.211066	0.035390	0.422409
H219	H	1.544399	0.368724	0.755742
H220	H	0.401617	0.225620	-0.089326
H221	H	0.734950	0.558953	0.244007
H222	H	1.068283	0.892286	0.577341
H223	H	0.975188	-0.454364	-0.146139
H224	H	1.308521	-0.121031	0.187195
H225	H	1.641854	0.212303	0.520528
H226	H	1.116156	-0.473903	0.060396
H227	H	1.449489	-0.140570	0.393729
H228	H	1.782822	0.192763	0.727063
