data_functionalizedCrystal
_audit_creation_method	'MofGen! by Chris Wilmer'
_symmetry_space_group_name_H-M	'P1'
_symmetry_Int_Tables_number	1
_symmetry_cell_setting	triclinic
loop_
_symmetry_equiv_pos_as_xyz
  x,y,z
_cell_length_a	21.295411
_cell_length_b	21.295418
_cell_length_c	16.959454
_cell_angle_alpha	90.035890
_cell_angle_beta	89.986811
_cell_angle_gamma	89.956262
loop_
_atom_site_label
_atom_site_type_symbol
_atom_site_fract_x
_atom_site_fract_y
_atom_site_fract_z
Zn1	Zn	-0.356271	0.962401	-0.314438
Zn2	Zn	0.143729	1.462401	0.185562
Zn3	Zn	-0.251012	0.962323	-0.446599
Zn4	Zn	0.248988	1.462323	0.053401
Zn5	Zn	-0.250980	0.857125	-0.314475
Zn6	Zn	0.249020	1.357125	0.185525
Zn7	Zn	-0.356208	0.857113	-0.446615
Zn8	Zn	0.143792	1.357113	0.053385
O9	O	-0.303618	0.909741	-0.380532
O10	O	0.196382	1.409741	0.119468
O11	O	-0.342347	1.050480	-0.331947
O12	O	0.157653	1.550480	0.168053
O13	O	-0.162918	0.948340	-0.429082
O14	O	0.337082	1.448340	0.070918
O15	O	-0.264961	0.871127	-0.203859
O16	O	0.235039	1.371127	0.296141
O17	O	-0.265014	1.050423	-0.429046
O18	O	0.234986	1.550423	0.070954
O19	O	-0.342317	0.948474	-0.203832
O20	O	0.157683	1.448474	0.296168
O21	O	-0.162895	0.871051	-0.332011
O22	O	0.337105	1.371051	0.167989
O23	O	-0.264900	0.769034	-0.332026
O24	O	0.235100	1.269034	0.167974
O25	O	-0.444306	0.871108	-0.429072
O26	O	0.055694	1.371108	0.070928
O27	O	-0.342210	0.769025	-0.429108
O28	O	0.157790	1.269025	0.070892
O29	O	-0.444352	0.948463	-0.331963
O30	O	0.055648	1.448463	0.168037
O31	O	-0.264953	0.948329	-0.557212
O32	O	0.235047	1.448329	-0.057212
O33	O	-0.342240	0.871032	-0.557224
O34	O	0.157760	1.371032	-0.057224
C35	C	-0.303545	0.746189	-0.380573
C36	C	0.196455	1.246189	0.119427
C37	C	-0.303529	0.676221	-0.380610
C38	C	0.196471	1.176221	0.119390
C39	C	-0.343724	0.643366	-0.431228
C40	C	0.156276	1.143366	0.068772
C41	C	-0.343753	0.577624	-0.431208
C42	C	0.156247	1.077624	0.068792
C43	C	-0.303574	0.544738	-0.380579
C44	C	0.196426	1.044738	0.119421
C45	C	-0.263376	0.577601	-0.329952
C46	C	0.236624	1.077601	0.170048
C47	C	-0.263354	0.643342	-0.329967
C48	C	0.236646	1.143342	0.170033
N49	N	-0.248516	0.441461	-0.374393
N50	N	0.251484	0.941461	0.125607
N51	N	-0.248539	0.379010	-0.374383
N52	N	0.251461	0.879010	0.125617
C53	C	-0.303641	0.346664	-0.380529
C54	C	0.196359	0.846664	0.119471
N55	N	-0.358720	0.379128	-0.386701
N56	N	0.141280	0.879128	0.113299
N57	N	-0.358696	0.441585	-0.386715
N58	N	0.141304	0.941585	0.113285
C59	C	-0.303595	0.473453	-0.380557
C60	C	0.196405	0.973453	0.119443
C61	C	-0.343871	0.242524	-0.431128
C62	C	0.156129	0.742524	0.068872
C63	C	-0.343900	0.176780	-0.431103
C64	C	0.156100	0.676780	0.068897
C65	C	-0.263518	0.176758	-0.329851
C66	C	0.236482	0.676758	0.170149
C67	C	-0.263494	0.242501	-0.329872
C68	C	0.236506	0.742501	0.170128
C69	C	-0.303670	0.275379	-0.380515
C70	C	0.196330	0.775379	0.119485
C71	C	-0.467808	0.909793	-0.380515
C72	C	0.032192	1.409793	0.119485
C73	C	-0.537776	0.909815	-0.380508
C74	C	-0.037776	1.409815	0.119492
C75	C	-0.570668	0.950092	-0.329941
C76	C	-0.070668	1.450092	0.170059
C77	C	-0.636410	0.950091	-0.329906
C78	C	-0.136410	1.450091	0.170094
C79	C	-0.669259	0.909820	-0.380453
C80	C	-0.169259	1.409820	0.119547
C81	C	-0.636359	0.869535	-0.431024
C82	C	-0.136359	1.369535	0.068976
C83	C	-0.570618	0.869533	-0.431052
C84	C	-0.070618	1.369533	0.068948
N85	N	-0.772481	0.904973	-0.449602
N86	N	-0.272481	1.404973	0.050398
N87	N	-0.834932	0.904979	-0.449574
N88	N	-0.334932	1.404979	0.050426
C89	C	-0.867334	0.909824	-0.380373
C90	C	-0.367334	1.409824	0.119627
N91	N	-0.834924	0.914675	-0.311201
N92	N	-0.334924	1.414675	0.188799
N93	N	-0.772467	0.914672	-0.311230
N94	N	-0.272467	1.414672	0.188770
C95	C	-0.740544	0.909818	-0.380429
C96	C	-0.240544	1.409818	0.119571
C97	C	-0.971511	0.950102	-0.329765
C98	C	-0.471511	1.450102	0.170235
C99	C	-1.037254	0.950097	-0.329729
C100	C	-0.537254	1.450097	0.170271
C101	C	-1.037202	0.869544	-0.430854
C102	C	-0.537202	1.369544	0.069146
C103	C	-0.971460	0.869546	-0.430883
C104	C	-0.471460	1.369546	0.069117
C105	C	-0.938618	0.909828	-0.380339
C106	C	-0.438618	1.409828	0.119661
C107	C	-0.140066	0.909725	-0.380491
C108	C	0.359934	1.409725	0.119509
C109	C	-0.070098	0.909824	-0.380276
C110	C	0.429902	1.409824	0.119724
C111	C	-0.303607	0.909688	-0.585898
C112	C	0.196393	1.409688	-0.085898
C113	C	-0.303623	0.909723	-0.673755
C114	C	0.196377	1.409723	-0.173755
C115	C	-0.303691	1.073931	-0.380491
C116	C	0.196309	1.573931	0.119509
C117	C	-0.303722	1.143899	-0.380473
C118	C	0.196278	1.643899	0.119527
C119	C	-0.343857	0.869550	-1.045266
C120	C	0.156143	1.369550	-0.545266
C121	C	-0.263443	0.950106	-1.045194
C122	C	0.236557	1.450106	-0.545194
C123	C	-0.263437	0.950084	-0.962648
C124	C	0.236563	1.450084	-0.462648
C125	C	-0.303641	0.909794	-0.921407
C126	C	0.196359	1.409794	-0.421407
C127	C	-0.343851	0.869526	-0.962713
C128	C	0.156149	1.369526	-0.462713
C129	C	-0.223223	0.990347	-0.921337
C130	C	0.276777	1.490347	-0.421337
C131	C	-0.223215	0.990326	-0.838786
C132	C	0.276785	1.490326	-0.338786
C133	C	-0.263423	0.950039	-0.797544
C134	C	0.236577	1.450039	-0.297544
C135	C	-0.303635	0.909769	-0.838854
C136	C	0.196365	1.409769	-0.338854
C137	C	-0.343839	0.869479	-0.797613
C138	C	0.156161	1.369479	-0.297613
C139	C	-0.384055	0.829213	-0.838922
C140	C	0.115945	1.329213	-0.338922
C141	C	-0.384059	0.829238	-0.921470
C142	C	0.115941	1.329238	-0.421470
C143	C	-0.263419	0.950013	-0.714995
C144	C	0.236581	1.450013	-0.214995
C145	C	-0.343833	0.869455	-0.715060
C146	C	0.156167	1.369455	-0.215060
C147	C	-0.303642	0.909811	-0.174363
C148	C	0.196358	1.409811	0.325637
C149	C	-0.303653	0.909840	-0.086507
C150	C	0.196347	1.409840	0.413493
H151	H	-0.376587	0.269295	-0.472361
H152	H	0.123413	0.769295	0.027639
H153	H	-0.230673	0.982795	-0.681366
H154	H	0.269327	1.482795	-0.181366
H155	H	-0.663109	0.836744	-0.472178
H156	H	-0.163109	1.336744	0.027822
Cl157	Cl	-0.394234	0.684696	-0.494890
Cl158	Cl	0.105766	1.184696	0.005110
H159	H	-0.376636	0.150031	-0.472321
H160	H	0.123364	0.650031	0.027679
H161	H	-0.230622	0.670092	-0.288746
H162	H	0.269378	1.170092	0.211254
Cl163	Cl	-0.529384	1.000729	-0.266395
Cl164	Cl	-0.029384	1.500729	0.233605
H165	H	-0.190470	1.023114	-0.805158
H166	H	0.309530	1.523114	-0.305158
Cl167	Cl	-0.172688	1.040998	-0.973185
Cl168	Cl	0.327312	1.540998	-0.473185
Cl169	Cl	-0.529266	0.818895	-0.494628
Cl170	Cl	-0.029266	1.318895	0.005372
Cl171	Cl	-0.394288	0.536312	-0.494848
Cl172	Cl	0.105712	1.036312	0.005152
Cl173	Cl	-0.394382	0.818804	-0.663221
Cl174	Cl	0.105618	1.318804	-0.163221
H175	H	-1.064034	0.982894	-0.288546
H176	H	-0.564034	1.482894	0.211454
Cl177	Cl	-0.930221	1.000738	-0.266221
Cl178	Cl	-0.430221	1.500738	0.233779
H179	H	-0.230664	0.550821	-0.288728
H180	H	0.269336	1.050821	0.211272
H181	H	-0.230807	0.149984	-0.288624
H182	H	0.269193	0.649984	0.211376
H183	H	-0.230760	0.269251	-0.288657
H184	H	0.269240	0.769251	0.211343
Cl185	Cl	-1.078491	0.818911	-0.494393
Cl186	Cl	-0.578491	1.318911	0.005607
H187	H	-0.944679	0.836752	-0.472065
H188	H	-0.444679	1.336752	0.027935
H189	H	-0.416787	0.796405	-0.805334
H190	H	0.083213	1.296405	-0.305334
H191	H	-0.416800	0.796455	-0.955111
H192	H	0.083200	1.296455	-0.455111
H193	H	-0.663196	0.982888	-0.288724
H194	H	-0.163196	1.482888	0.211276
H195	H	-0.230706	0.982905	-1.078777
H196	H	0.269294	1.482905	-0.578777
Cl197	Cl	-0.394414	0.818935	-1.097194
Cl198	Cl	0.105586	1.318935	-0.597194
