data_functionalizedCrystal
_audit_creation_method	'MofGen! by Chris Wilmer'
_symmetry_space_group_name_H-M	'P1'
_symmetry_Int_Tables_number	1
_symmetry_cell_setting	triclinic
loop_
_symmetry_equiv_pos_as_xyz
  x,y,z
_cell_length_a	18.101398
_cell_length_b	25.639239
_cell_length_c	18.101389
_cell_angle_alpha	90.020449
_cell_angle_beta	90.024327
_cell_angle_gamma	90.033952
loop_
_atom_site_label
_atom_site_type_symbol
_atom_site_fract_x
_atom_site_fract_y
_atom_site_fract_z
Zn1	Zn	1.132082	-0.208272	0.418828
Zn2	Zn	1.131961	-0.295693	0.294982
Zn3	Zn	1.008241	-0.208266	0.294989
Zn4	Zn	1.008175	-0.295671	0.418771
O5	O	1.070115	-0.251975	0.356893
O6	O	1.235699	-0.219880	0.402421
O7	O	1.115527	-0.284103	0.191350
O8	O	1.024747	-0.135102	0.311444
O9	O	1.235610	-0.284108	0.311432
O10	O	1.115732	-0.135106	0.402428
O11	O	1.024630	-0.219871	0.191356
O12	O	0.904599	-0.219849	0.311388
O13	O	1.024635	-0.284070	0.522411
O14	O	0.904551	-0.284065	0.402330
O15	O	1.115668	-0.219858	0.522454
O16	O	1.115463	-0.368855	0.311376
O17	O	1.024518	-0.368839	0.402323
C18	C	0.877704	-0.251954	0.356854
C19	C	0.795390	-0.251958	0.356855
C20	C	1.069990	-0.387818	0.356859
C21	C	1.070005	-0.445932	0.356869
C22	C	0.496299	-0.251990	0.356917
C23	C	0.527630	-0.211386	0.299978
C24	C	0.613248	-0.211495	0.299735
C25	C	0.644682	-0.251974	0.356886
C26	C	0.613553	-0.307048	0.335559
C27	C	0.527908	-0.306822	0.335163
C28	C	0.527917	-0.238000	0.435317
C29	C	0.613568	-0.236773	0.434890
C30	C	0.728541	-0.251968	0.356870
C31	C	0.412440	-0.252000	0.356932
C32	C	1.117594	-0.806291	0.309617
C33	C	1.117622	-0.860895	0.309627
O34	O	1.157955	-0.889129	0.269415
N35	N	1.070245	-0.888214	0.356942
C36	C	1.022841	-0.860926	0.404255
O37	O	0.982546	-0.889177	0.444501
C38	C	1.022817	-0.806323	0.404248
C39	C	1.070192	-0.779007	0.356925
C40	C	1.164965	-0.778975	0.262299
C41	C	1.164936	-0.724374	0.262288
C42	C	1.117534	-0.697090	0.309596
C43	C	1.070162	-0.724406	0.356914
C44	C	0.975417	-0.779036	0.451564
C45	C	0.975397	-0.724429	0.451554
C46	C	1.022773	-0.697113	0.404231
C47	C	1.022731	-0.642522	0.404212
N48	N	1.070108	-0.615202	0.356897
C49	C	1.117509	-0.642487	0.309589
C50	C	1.022897	-0.975597	0.404266
C51	C	1.022917	-1.030199	0.404270
C52	C	1.117699	-1.030164	0.309643
C53	C	1.117675	-0.975561	0.309636
C54	C	1.070274	-0.948278	0.356952
C55	C	1.117443	-0.527822	0.309570
C56	C	1.117406	-0.473216	0.309561
C57	C	1.022627	-0.473256	0.404190
C58	C	1.022661	-0.527856	0.404197
C59	C	1.070074	-0.555138	0.356884
O60	O	0.982421	-0.614254	0.444405
O61	O	1.157804	-0.614229	0.269357
C62	C	1.263277	-0.251997	0.356932
C63	C	1.345591	-0.252006	0.356949
C64	C	1.070158	-0.251962	0.550055
C65	C	1.070176	-0.251957	0.632369
C66	C	1.070260	-0.115602	0.356943
C67	C	1.070322	-0.057488	0.356964
C68	C	1.070115	-0.251951	0.164482
C69	C	1.070240	-0.251809	0.082169
C70	C	1.070219	-0.251859	0.931460
C71	C	1.012746	-0.292130	0.900108
C72	C	1.012901	-0.292317	0.814490
C73	C	1.070197	-0.251907	0.783077
C74	C	1.148220	-0.266868	0.814182
C75	C	1.147899	-0.267132	0.899827
C76	C	1.050348	-0.196537	0.899887
C77	C	1.048612	-0.196856	0.814236
C78	C	1.070189	-0.251934	0.699218
C79	C	1.070232	-0.251833	1.015320
H80	H	0.634297	-0.170655	0.313104
Cl81	Cl	1.174683	-0.328642	0.781077
H82	H	1.192172	-0.239073	0.920569
H83	H	1.026019	-0.333323	0.794005
H84	H	0.994443	-0.182907	0.921474
H85	H	0.984086	-0.550098	0.442733
Cl86	Cl	1.173907	-0.329570	0.930680
Cl87	Cl	0.915805	-0.690133	0.511041
H88	H	1.203514	-0.702136	0.223756
H89	H	0.507654	-0.267575	0.477742
Cl90	Cl	1.216111	-0.223006	0.782775
H91	H	0.991194	-0.185574	0.793905
Cl92	Cl	0.494627	-0.177075	0.465253
H93	H	0.936836	-0.801268	0.490096
H94	H	1.092209	-0.166532	0.920164
Cl95	Cl	0.963044	-0.438945	0.463664
H96	H	0.955044	-0.282955	0.793458
H97	H	1.087419	-0.165258	0.792854
H98	H	0.954715	-0.282864	0.920695
Cl99	Cl	1.032753	-0.355048	0.933392
H100	H	0.507068	-0.170421	0.313200
Cl101	Cl	0.494343	-0.225492	0.210810
H102	H	0.633700	-0.220743	0.241642
Cl103	Cl	0.495902	-0.355114	0.396393
Cl104	Cl	0.497005	-0.325139	0.246674
H105	H	1.156299	-1.052389	0.271125
H106	H	0.634966	-0.319119	0.278864
Cl107	Cl	0.644975	-0.355009	0.397588
Cl108	Cl	0.963349	-1.064533	0.463755
Cl109	Cl	1.177048	-0.562110	0.250089
Cl110	Cl	0.645002	-0.174206	0.459729
Cl111	Cl	0.646601	-0.279110	0.503901
Cl112	Cl	1.176968	-0.438879	0.250065
H113	H	1.203570	-0.801184	0.223775
H114	H	1.156252	-0.953323	0.271102
H115	H	0.984292	-0.953386	0.442794
