data_functionalizedCrystal
_audit_creation_method	'MofGen! by Chris Wilmer'
_symmetry_space_group_name_H-M	'P1'
_symmetry_Int_Tables_number	1
_symmetry_cell_setting	triclinic
loop_
_symmetry_equiv_pos_as_xyz
  x,y,z
_cell_length_a	19.288864
_cell_length_b	10.654550
_cell_length_c	18.366186
_cell_angle_alpha	89.994973
_cell_angle_beta	89.977106
_cell_angle_gamma	83.810575
loop_
_atom_site_label
_atom_site_type_symbol
_atom_site_fract_x
_atom_site_fract_y
_atom_site_fract_z
O1	O	0.922379	0.156657	-0.060782
O2	O	0.720256	0.177789	-0.060732
O3	O	0.825965	-0.015616	-0.060755
O4	O	0.816670	0.350062	-0.060758
O5	O	0.825946	-0.015625	0.060344
O6	O	0.720238	0.177780	0.060368
O7	O	0.922360	0.156647	0.060318
Zn8	Zn	0.821296	0.167212	0.079570
Zn9	Zn	0.821320	0.167224	-0.079984
O10	O	0.816652	0.350052	0.060341
C11	C	0.694366	0.177105	-0.000176
C12	C	0.617249	0.175063	-0.000156
C13	C	0.573296	0.288545	-0.000169
C14	C	0.500836	0.286627	-0.000177
C15	C	0.472333	0.171222	-0.000187
C16	C	0.516296	0.057725	-0.000171
C17	C	0.588754	0.059646	-0.000155
C18	C	0.363484	0.080503	-0.042637
C19	C	0.291027	0.078587	-0.042657
C20	C	0.248849	0.165292	-0.000231
C21	C	0.279136	0.253935	0.042205
C22	C	0.351594	0.255855	0.042221
C23	C	0.393766	0.169126	-0.000203
C24	C	0.126326	0.276702	-0.000251
C25	C	0.053865	0.274779	-0.000255
C26	C	0.069327	0.045875	-0.000256
C27	C	0.141786	0.047800	-0.000245
C28	C	0.170281	0.163217	-0.000246
C29	C	0.825273	-0.062404	-0.000206
C30	C	0.823231	-0.201803	-0.000208
C31	C	0.885471	-0.282621	-0.000221
C32	C	0.883548	-0.413601	-0.000226
C33	C	0.757141	-0.382932	-0.000201
C34	C	0.759065	-0.251955	-0.000202
C35	C	0.949637	-0.232470	-0.000228
C36	C	1.011882	-0.313290	-0.000240
C37	C	1.009959	-0.444269	-0.000245
C38	C	0.945792	-0.494429	-0.000237
C39	C	0.948250	0.157332	-0.000240
C40	C	1.025367	0.159373	-0.000264
C41	C	0.817344	0.396840	-0.000209
C42	C	0.819385	0.536240	-0.000212
N43	N	0.821285	0.167203	0.188461
N44	N	0.821337	0.167224	-0.188875
C45	C	0.868108	0.081605	0.226551
C46	C	0.868113	0.081599	0.302779
C47	C	0.821300	0.167213	0.340914
C48	C	0.774468	0.252817	0.302815
C49	C	0.774461	0.252812	0.226588
C50	C	0.812752	0.281634	0.461675
C51	C	0.812764	0.281641	0.537899
C52	C	0.821320	0.167229	0.576021
C53	C	0.829879	0.052804	0.537909
C54	C	0.829871	0.052799	0.461682
C55	C	0.821303	0.167228	0.423569
C56	C	0.868151	0.081618	0.696766
C57	C	0.868151	0.081610	0.772995
C58	C	0.774509	0.252840	0.773030
C59	C	0.774507	0.252836	0.696802
C60	C	0.821331	0.167226	0.658675
H61	H	0.149528	0.370681	-0.000241
H62	H	0.708384	-0.186150	-0.000190
O63	O	0.006453	0.397183	-0.000262
H64	H	0.016673	0.452427	-0.049623
O65	O	0.258359	-0.017008	-0.088427
H66	H	0.229317	-0.077065	-0.052648
H67	H	0.736381	0.322543	0.665787
H68	H	0.944232	-0.601083	-0.000248
O69	O	0.723980	0.345168	0.343939
H70	H	0.731857	0.330803	0.403344
H71	H	0.596492	0.382526	-0.000171
H72	H	0.906234	0.011894	0.195510
O73	O	0.485560	-0.066752	-0.000178
H74	H	0.452952	-0.073111	-0.049546
H75	H	0.397820	0.009895	-0.077190
H76	H	0.906243	0.011892	0.333797
O77	O	0.038595	-0.078603	-0.000257
H78	H	0.056240	-0.133121	-0.049608
H79	H	0.624542	-0.032767	-0.000146
O80	O	0.839089	-0.070603	0.420572
H81	H	0.845034	-0.150167	0.459880
O82	O	0.839102	-0.070613	0.579012
H83	H	0.837660	-0.051393	0.638419
H84	H	0.736331	0.322517	0.195575
O85	O	0.803548	0.405048	0.579006
H86	H	0.797587	0.484605	0.539693
H87	H	0.736391	0.322543	0.804079
O88	O	1.081088	-0.259196	-0.000260
H89	H	1.111022	-0.291707	0.049086
O90	O	0.803528	0.405044	0.420559
H91	H	0.797591	0.484607	0.459864
O92	O	0.918642	-0.010727	0.655634
H93	H	0.951195	-0.070268	0.694931
H94	H	0.951210	-0.125822	-0.000222
H95	H	0.906278	0.011900	0.804009
O96	O	0.384267	0.351407	0.088018
H97	H	0.342772	0.411362	0.117532
H98	H	1.060642	-0.510069	-0.000262
H99	H	0.704899	-0.423784	-0.000194
O100	O	0.453416	0.409028	-0.000198
H101	H	0.485403	0.489605	-0.000201
H102	H	0.177574	-0.044609	-0.000239
O103	O	0.233657	0.347457	0.087975
H104	H	0.178185	0.331223	0.080845
