data_functionalizedCrystal
_audit_creation_method	'MofGen! by Chris Wilmer'
_symmetry_space_group_name_H-M	'P1'
_symmetry_Int_Tables_number	1
_symmetry_cell_setting	triclinic
loop_
_symmetry_equiv_pos_as_xyz
  x,y,z
_cell_length_a	13.897448
_cell_length_b	14.908941
_cell_length_c	14.908694
_cell_angle_alpha	90.213236
_cell_angle_beta	93.268807
_cell_angle_gamma	86.682744
loop_
_atom_site_label
_atom_site_type_symbol
_atom_site_fract_x
_atom_site_fract_y
_atom_site_fract_z
Zn1	Zn	-0.323834	-1.403956	-0.429225
Zn2	Zn	-0.476417	-1.395189	-0.278874
Zn3	Zn	-0.324946	-1.244922	-0.287543
Zn4	Zn	-0.494901	-1.253570	-0.437842
O5	O	-0.405025	-1.324409	-0.358371
O6	O	-0.335873	-1.528617	-0.402047
O7	O	-0.449053	-1.367968	-0.154201
O8	O	-0.189815	-1.266068	-0.306359
O9	O	-0.447975	-1.522176	-0.291584
O10	O	-0.188998	-1.382909	-0.410453
O11	O	-0.337768	-1.257568	-0.160570
O12	O	-0.355692	-1.120245	-0.314715
O13	O	-0.479479	-1.280806	-0.562522
O14	O	-0.480558	-1.126598	-0.425139
O15	O	-0.353797	-1.391294	-0.556191
O16	O	-0.613852	-1.376353	-0.299940
O17	O	-0.627433	-1.272306	-0.416733
C18	C	-0.420252	-1.090797	-0.371803
C19	C	-0.426791	-0.990858	-0.377571
C20	C	-0.308879	-0.796404	-0.273585
C21	C	-0.315020	-0.702502	-0.279001
C22	C	-0.445216	-0.709151	-0.393814
C23	C	-0.439076	-0.803052	-0.388398
C24	C	-0.370904	-0.846676	-0.328282
C25	C	-0.364760	-0.940580	-0.322871
C26	C	-0.494960	-0.947226	-0.437679
C27	C	-0.501101	-0.853324	-0.443096
C28	C	-0.655642	-1.324342	-0.358349
C29	C	-0.762853	-1.324397	-0.358365
C30	C	-0.959145	-1.324495	-0.358416
C31	C	-0.849915	-1.324438	-0.358390
C32	C	-0.153428	-1.324502	-0.358412
C33	C	-0.046213	-1.324542	-0.358429
C34	C	-0.418576	-1.337993	-0.592894
C35	C	-0.424351	-1.343781	-0.692833
C36	C	-0.389728	-0.558933	-0.344881
C37	C	-0.383185	-0.658872	-0.339115
C38	C	-0.319325	-1.239678	-0.887265
C39	C	-0.324748	-1.245114	-0.981167
C40	C	-0.440625	-1.360084	-0.974542
C41	C	-0.435202	-1.354648	-0.880640
C42	C	-0.374549	-1.294444	-0.837005
C43	C	-0.369121	-1.289013	-0.743100
C44	C	-0.485002	-1.403978	-0.736477
C45	C	-0.490425	-1.409414	-0.830379
C46	C	-0.391453	-1.310930	-0.124758
C47	C	-0.385395	-1.305316	-0.024809
H48	H	-0.253360	-0.831923	-0.224647
H49	H	-0.539810	-1.458427	-0.865920
O50	O	-0.298570	-0.983102	-0.264552
C51	C	-0.231448	-1.124811	-0.205279
C52	C	-0.306435	-1.076775	-0.271383
H53	H	-0.237795	-1.200552	-0.210766
H54	H	-0.155793	-1.107353	-0.222248
H55	H	-0.245288	-1.102076	-0.133831
H56	H	-0.292685	-1.099483	-0.342854
H57	H	-0.382065	-1.094232	-0.254337
H58	H	-0.319731	-1.239996	-0.707574
O59	O	-0.511558	-0.666810	-0.452118
C60	C	-0.680082	-0.640622	-0.497231
C61	C	-0.605059	-0.688602	-0.431122
H62	H	-0.755693	-0.658238	-0.480292
H63	H	-0.673906	-0.564861	-0.491711
H64	H	-0.666176	-0.663297	-0.568683
H65	H	-0.618917	-0.666001	-0.359641
H66	H	-0.611253	-0.764356	-0.436721
O67	O	-0.555352	-0.995962	-0.490777
C68	C	-0.720123	-1.027234	-0.532479
C69	C	-0.651848	-0.971966	-0.472307
H70	H	-0.798153	-1.007867	-0.517553
H71	H	-0.708776	-1.012968	-0.606086
H72	H	-0.703973	-1.101837	-0.518300
H73	H	-0.667956	-0.897345	-0.486407
H74	H	-0.663207	-0.986307	-0.398719
O75	O	-0.538618	-1.457088	-0.687519
C76	C	-0.581570	-1.499714	-0.539920
C77	C	-0.520821	-1.439500	-0.595255
H78	H	-0.567186	-1.485529	-0.465314
H79	H	-0.661464	-1.484964	-0.559209
H80	H	-0.560981	-1.573283	-0.554277
H81	H	-0.541326	-1.365911	-0.580927
H82	H	-0.440941	-1.454327	-0.575957
H83	H	-0.264512	-0.661574	-0.234462
O84	O	-0.499621	-1.418579	-1.016797
C85	C	-0.613941	-1.532079	-1.000326
C86	C	-0.547184	-1.465857	-0.952359
H87	H	-0.652398	-1.570334	-0.948249
H88	H	-0.669670	-1.493363	-1.046623
H89	H	-0.569115	-1.581611	-1.041625
H90	H	-0.591930	-1.416309	-0.911012
H91	H	-0.491452	-1.504632	-0.906116
H92	H	-0.556607	-0.817793	-0.492038
O93	O	-0.260393	-1.181124	-0.845016
C94	C	-0.145984	-1.067705	-0.861492
C95	C	-0.212701	-1.133965	-0.909451
H96	H	-0.107391	-1.029573	-0.913565
H97	H	-0.190758	-1.018071	-0.820255
H98	H	-0.090357	-1.106472	-0.815136
H99	H	-0.268339	-1.095274	-0.955851
H100	H	-0.167863	-1.183598	-0.950631
H101	H	-0.279779	-1.200518	-1.022086
