data_functionalizedCrystal
_audit_creation_method	'MofGen! by Chris Wilmer'
_symmetry_space_group_name_H-M	'P1'
_symmetry_Int_Tables_number	1
_symmetry_cell_setting	triclinic
loop_
_symmetry_equiv_pos_as_xyz
  x,y,z
_cell_length_a	6.817900
_cell_length_b	13.563541
_cell_length_c	19.453114
_cell_angle_alpha	110.434554
_cell_angle_beta	101.709288
_cell_angle_gamma	104.704624
loop_
_atom_site_label
_atom_site_type_symbol
_atom_site_fract_x
_atom_site_fract_y
_atom_site_fract_z
V1	V	-4.036734	-0.154930	-0.249026
O2	O	-3.993534	0.006254	-0.213618
O3	O	-4.017539	-0.306054	-0.276818
O4	O	-3.979289	-0.153069	-0.344178
O5	O	-4.032048	-0.147790	-0.145791
V6	V	-4.517749	-0.135589	-0.233095
O7	O	-4.303492	-0.197356	-0.283971
O8	O	-4.701188	-0.093162	-0.198150
O9	O	-4.313738	0.015536	-0.205303
O10	O	-4.678346	-0.296772	-0.268503
O11	O	-4.639832	-0.142728	-0.336330
O12	O	-4.351987	-0.137449	-0.137943
C13	C	-3.869937	-0.342879	-0.280500
C14	C	-3.935469	-0.466429	-0.303857
C15	C	-3.970071	-0.749843	-0.099827
C16	C	-3.908486	-0.633761	-0.077880
C17	C	-3.915229	-0.591922	-0.134372
C18	C	-3.983562	-0.666177	-0.212815
C19	C	-4.045137	-0.782269	-0.234764
C20	C	-3.990295	-0.624349	-0.269310
C21	C	-4.058629	-0.698603	-0.347753
C22	C	-4.120198	-0.814684	-0.369698
C23	C	-4.113455	-0.856523	-0.313205
C24	C	-3.928720	-0.508256	-0.247361
C25	C	-4.003787	-0.540682	-0.382298
C26	C	-4.065372	-0.656764	-0.404245
C27	C	-3.821145	-0.147730	-0.366424
C28	C	-3.855654	-0.147208	-0.444405
C29	C	-4.054727	-0.152542	-0.485696
C30	C	-4.087153	-0.152052	-0.558968
C31	C	-3.920507	-0.146251	-0.590952
C32	C	-3.721403	-0.140910	-0.549650
C33	C	-3.688976	-0.141389	-0.476377
N34	N	-3.872107	-0.204945	-0.721117
N35	N	-3.902925	-0.204493	-0.790725
C36	C	-4.018194	-0.144806	-0.811721
N37	N	-4.101521	-0.085603	-0.760484
N38	N	-4.070709	-0.086060	-0.690871
C39	C	-3.955648	-0.145731	-0.670405
C40	C	-4.252439	-0.149608	-0.932461
C41	C	-4.284854	-0.149111	-1.005732
C42	C	-3.919104	-0.137980	-0.996416
C43	C	-3.886689	-0.138466	-0.923144
C44	C	-4.053367	-0.144285	-0.891172
C45	C	-4.124683	0.052355	-0.201621
C46	C	-4.038389	0.175903	-0.178268
C47	C	-4.173475	-0.142792	-0.115694
C48	C	-4.118203	-0.143308	-0.037711
H49	H	-3.964577	-0.783920	-0.053839
H50	H	-3.585719	-0.136183	-0.575696
N51	N	-3.848838	-0.466724	-0.110713
H52	H	-3.724375	-0.441265	-0.128788
H53	H	-3.804641	-0.426112	-0.052449
H54	H	-4.249271	-0.156402	-0.592595
H55	H	-3.526860	-0.137037	-0.442755
H56	H	-3.852856	-0.573311	-0.014012
H57	H	-4.009275	-0.506618	-0.428299
N58	N	-4.179903	-0.981730	-0.336880
H59	H	-4.165274	-0.996962	-0.289188
H60	H	-4.085069	-1.012125	-0.365541
H61	H	-4.121014	-0.717238	-0.468114
H62	H	-4.446961	-0.153446	-1.039348
H63	H	-3.783412	-0.133247	-1.022454
N64	N	-3.855041	-0.428192	-0.162757
H65	H	-3.952190	-0.383164	-0.153767
H66	H	-3.703419	-0.375516	-0.147562
N67	N	-4.193869	-0.894775	-0.454301
H68	H	-4.188803	-0.850660	-0.486759
H69	H	-4.345429	-0.947509	-0.469477
N70	N	-4.432175	-0.155870	-0.897960
H71	H	-4.557849	-0.227470	-0.932988
H72	H	-4.477502	-0.088913	-0.892500
N73	N	-4.234486	-0.158808	-0.451210
H74	H	-4.365520	-0.162110	-0.488489
H75	H	-4.188919	-0.089991	-0.400772
N76	N	-3.671972	-0.132730	-0.878615
H77	H	-3.690443	-0.201934	-0.868247
H78	H	-3.610391	-0.063386	-0.827796
