data_functionalizedCrystal
_audit_creation_method	'MofGen! by Chris Wilmer'
_symmetry_space_group_name_H-M	'P1'
_symmetry_Int_Tables_number	1
_symmetry_cell_setting	triclinic
loop_
_symmetry_equiv_pos_as_xyz
  x,y,z
_cell_length_a	14.519731
_cell_length_b	15.995350
_cell_length_c	13.596369
_cell_angle_alpha	89.996243
_cell_angle_beta	90.006433
_cell_angle_gamma	96.409386
loop_
_atom_site_label
_atom_site_type_symbol
_atom_site_fract_x
_atom_site_fract_y
_atom_site_fract_z
O1	O	-1.223657	0.109845	-0.081812
O2	O	-0.955159	0.122752	-0.081808
O3	O	-1.096748	-0.005578	-0.081809
O4	O	-1.082068	0.238174	-0.081810
O5	O	-1.096733	-0.005585	0.081774
O6	O	-0.955145	0.122745	0.081775
O7	O	-1.223643	0.109838	0.081771
Zn8	Zn	-1.089392	0.116290	0.107746
Zn9	Zn	-1.089410	0.116299	-0.107782
O10	O	-1.082054	0.238168	0.081773
C11	C	-0.920794	0.122144	-0.000016
C12	C	-0.818417	0.120331	-0.000014
C13	C	-0.735275	0.118859	-0.000017
C14	C	-0.630970	0.117019	-0.000015
C15	C	-0.547834	0.115559	-0.000013
C16	C	-0.443521	0.113719	-0.000013
C17	C	-1.096134	-0.036777	-0.000019
C18	C	-1.094314	-0.129730	-0.000025
C19	C	-1.087781	-0.467488	-0.000021
C20	C	-0.986944	-0.420212	-0.000387
C21	C	-0.988764	-0.323519	-0.000018
C22	C	-1.091021	-0.299922	-0.000024
C23	C	-1.140750	-0.340926	0.093388
C24	C	-1.138216	-0.437565	0.093466
C25	C	-1.140316	-0.437913	-0.092558
C26	C	-1.140292	-0.340967	-0.093793
C27	C	-1.092858	-0.205222	-0.000022
C28	C	-1.085947	-0.562189	-0.000017
C29	C	-0.258008	0.110446	-0.000018
C30	C	-0.360385	0.112258	-0.000012
C31	C	-1.082668	0.269367	-0.000019
C32	C	-1.084488	0.362320	-0.000020
N33	N	-1.089386	0.116284	0.254837
N34	N	-1.089423	0.116299	-0.254874
C35	C	-1.089409	0.116300	0.656128
C36	C	-1.089400	0.116299	0.544477
C37	C	-1.089398	0.116293	0.455486
C38	C	-1.089388	0.116290	0.343828
H39	H	-0.949673	-0.295155	-0.066979
H40	H	-1.215875	-0.326682	0.096858
H41	H	-1.106199	-0.312601	0.162905
Br42	Br	-0.923147	-0.277174	0.111777
Br43	Br	-0.919863	-0.453378	0.110303
Br44	Br	-1.085368	-0.472215	-0.210565
Br45	Br	-1.077755	-0.468173	0.209852
Br46	Br	-1.080202	-0.295101	-0.208990
H47	H	-1.214662	-0.469557	-0.093190
Br48	Br	-0.919772	-0.451195	-0.112039
Br49	Br	-1.261604	-0.491126	0.100536
H50	H	-1.214863	-0.325488	-0.099437
