data_functionalizedCrystal
_audit_creation_method	'MofGen! by Chris Wilmer'
_symmetry_space_group_name_H-M	'P1'
_symmetry_Int_Tables_number	1
_symmetry_cell_setting	triclinic
loop_
_symmetry_equiv_pos_as_xyz
  x,y,z
_cell_length_a	27.732066
_cell_length_b	18.266242
_cell_length_c	19.188930
_cell_angle_alpha	89.988525
_cell_angle_beta	97.102558
_cell_angle_gamma	90.000403
loop_
_atom_site_label
_atom_site_type_symbol
_atom_site_fract_x
_atom_site_fract_y
_atom_site_fract_z
O1	O	-0.641179	-0.060741	0.083140
O2	O	-0.307845	0.272592	0.416473
O3	O	0.025488	0.605925	0.749806
O4	O	-0.500425	-0.060776	0.095758
O5	O	-0.167092	0.272557	0.429092
O6	O	0.166242	0.605890	0.762425
O7	O	-0.574864	-0.060744	-0.012232
O8	O	-0.241530	0.272590	0.321101
O9	O	0.091803	0.605923	0.654435
O10	O	-0.566740	-0.060774	0.191130
O11	O	-0.233407	0.272559	0.524464
O12	O	0.099927	0.605893	0.857797
O13	O	-0.574851	0.061018	-0.012238
O14	O	-0.241518	0.394352	0.321096
O15	O	0.091816	0.727685	0.654429
O16	O	-0.500412	0.060986	0.095753
O17	O	-0.167079	0.394319	0.429086
O18	O	0.166254	0.727652	0.762420
O19	O	-0.641166	0.061021	0.083134
O20	O	-0.307833	0.394354	0.416468
O21	O	0.025501	0.727687	0.749801
Zn22	Zn	-0.570787	0.080336	0.089443
Zn23	Zn	-0.237454	0.413669	0.422776
Zn24	Zn	0.095879	0.747002	0.756109
Zn25	Zn	-0.570804	-0.080091	0.089450
Zn26	Zn	-0.237470	0.253242	0.422783
Zn27	Zn	0.095863	0.586576	0.756117
O28	O	-0.566727	0.060988	0.191125
O29	O	-0.233394	0.394321	0.524458
O30	O	0.099939	0.727655	0.857791
C31	C	-0.482411	0.000100	0.095489
C32	C	-0.149078	0.333434	0.428822
C33	C	0.184256	0.666767	0.762156
C34	C	-0.428754	0.000088	0.094685
C35	C	-0.095421	0.333421	0.428019
C36	C	0.237912	0.666754	0.761352
C37	C	-0.051470	0.000130	0.025398
C38	C	0.281863	0.333463	0.358731
C39	C	0.615197	0.666796	0.692065
C40	C	-0.253139	0.000116	0.028355
C41	C	0.080194	0.333449	0.361689
C42	C	0.413528	0.666782	0.695022
O43	O	-0.284227	0.000152	-0.025407
O44	O	0.049106	0.333485	0.307927
O45	O	0.382439	0.666818	0.641260
N46	N	-0.272462	0.000103	0.092392
N47	N	0.060871	0.333437	0.425726
N48	N	0.394204	0.666770	0.759059
C49	C	-0.241365	0.000099	0.155694
C50	C	0.091969	0.333433	0.489028
C51	C	0.425302	0.666766	0.822361
O52	O	-0.262428	0.000096	0.210230
O53	O	0.070906	0.333429	0.543563
O54	O	0.404239	0.666763	0.876896
C55	C	-0.039697	0.000119	0.152736
C56	C	0.293637	0.333452	0.486070
C57	C	0.626970	0.666785	0.819403
C58	C	-0.020376	0.000124	0.088695
C59	C	0.312957	0.333457	0.422029
C60	C	0.646290	0.666790	0.755362
C61	C	-0.032149	0.000135	-0.038638
C62	C	0.301184	0.333469	0.294695
C63	C	0.634517	0.666802	0.628029
C64	C	0.018265	0.000135	-0.039377
C65	C	0.351598	0.333468	0.293957
C66	C	0.684932	0.666802	0.627290
C67	C	0.049359	0.000129	0.023921
C68	C	0.382692	0.333462	0.357254
C69	C	0.716025	0.666795	0.690587
C70	C	0.030038	0.000123	0.087957
C71	C	0.363371	0.333456	0.421290
C72	C	0.696705	0.666790	0.754623
C73	C	-0.008600	0.000120	0.216038
C74	C	0.324733	0.333453	0.549371
C75	C	0.658067	0.666787	0.882704
C76	C	0.041820	0.000127	0.215292
C77	C	0.375153	0.333460	0.548626
C78	C	0.708486	0.666793	0.881959
C79	C	0.061140	0.000131	0.151251
C80	C	0.394473	0.333465	0.484585
C81	C	0.727807	0.666798	0.817918
C82	C	0.111546	0.000116	0.150515
C83	C	0.444879	0.333450	0.483849
C84	C	0.778212	0.666783	0.817182
N85	N	0.130869	0.000129	0.086478
N86	N	0.464202	0.333462	0.419812
N87	N	0.797536	0.666795	0.753145
C88	C	0.099775	0.000135	0.023181
C89	C	0.433109	0.333468	0.356514
C90	C	0.766442	0.666802	0.689848
C91	C	-0.347244	0.000088	0.157243
C92	C	-0.013911	0.333421	0.490576
C93	C	0.319423	0.666754	0.823910
C94	C	-0.397661	0.000082	0.157983
C95	C	-0.064327	0.333415	0.491316
C96	C	0.269006	0.666748	0.824649
C97	C	-0.409432	0.000099	0.030643
C98	C	-0.076098	0.333433	0.363977
C99	C	0.257235	0.666766	0.697310
C100	C	-0.359014	0.000100	0.029904
C101	C	-0.025680	0.333433	0.363238
C102	C	0.307653	0.666767	0.696571
C103	C	-0.327921	0.000100	0.093206
C104	C	0.005413	0.333433	0.426539
C105	C	0.338746	0.666767	0.759873
C106	C	0.205650	0.000133	0.021635
C107	C	0.538983	0.333467	0.354968
C108	C	0.872316	0.666800	0.688301
C109	C	0.256069	0.000130	0.020902
C110	C	0.589402	0.333463	0.354235
C111	C	0.922736	0.666796	0.687568
C112	C	0.267835	0.000116	0.148240
C113	C	0.601169	0.333449	0.481574
C114	C	0.934502	0.666783	0.814907
C115	C	0.217420	0.000116	0.148974
C116	C	0.550754	0.333449	0.482307
C117	C	0.884087	0.666782	0.815641
C118	C	0.186328	0.000127	0.085665
C119	C	0.519662	0.333460	0.418999
C120	C	0.852995	0.666793	0.752332
O121	O	0.142662	0.000088	0.204248
O122	O	0.475996	0.333422	0.537582
O123	O	0.809329	0.666755	0.870915
O124	O	0.120848	0.000154	-0.031346
O125	O	0.454181	0.333488	0.301987
O126	O	0.787515	0.666821	0.635320
C127	C	-0.101884	0.000130	0.026137
C128	C	0.231449	0.333463	0.359470
C129	C	0.564782	0.666797	0.692803
C130	C	-0.121205	0.000124	0.090173
C131	C	0.212128	0.333458	0.423506
C132	C	0.545462	0.666791	0.756839
C133	C	-0.090112	0.000118	0.153470
C134	C	0.243222	0.333452	0.486803
C135	C	0.576555	0.666785	0.820136
C136	C	-0.171622	0.000118	0.090912
C137	C	0.161711	0.333452	0.424246
C138	C	0.495045	0.666785	0.757579
C139	C	-0.202715	0.000124	0.027615
C140	C	0.130618	0.333458	0.360948
C141	C	0.463951	0.666791	0.694282
C142	C	-0.183392	0.000137	-0.036422
C143	C	0.149941	0.333470	0.296911
C144	C	0.483274	0.666803	0.630245
C145	C	-0.132978	0.000136	-0.037161
C146	C	0.200355	0.333470	0.296173
C147	C	0.533689	0.666803	0.629506
C148	C	-0.109435	0.000106	0.217507
C149	C	0.223899	0.333439	0.550840
C150	C	0.557232	0.666773	0.884173
C151	C	-0.159850	0.000106	0.218240
C152	C	0.173484	0.333439	0.551573
C153	C	0.506817	0.666772	0.884907
C154	C	-0.190943	0.000112	0.154943
C155	C	0.142390	0.333445	0.488276
C156	C	0.475724	0.666778	0.821610
N157	N	-0.570779	0.189822	0.089437
N158	N	-0.237446	0.523156	0.422771
N159	N	0.095887	0.856489	0.756104
C160	C	-0.574594	0.000140	-0.038244
C161	C	-0.241261	0.333473	0.295089
C162	C	0.092072	0.666806	0.628423
C163	C	-0.573805	0.000146	-0.115744
C164	C	-0.240471	0.333479	0.217590
C165	C	0.092862	0.666812	0.550923
C166	C	0.340820	0.000136	0.083402
C167	C	0.674153	0.333469	0.416735
C168	C	1.007487	0.666802	0.750068
C169	C	0.287162	0.000124	0.084199
C170	C	0.620496	0.333457	0.417532
C171	C	0.953829	0.666790	0.750865
N172	N	-0.570815	-0.189578	0.089450
N173	N	-0.237482	0.143755	0.422783
N174	N	0.095851	0.477089	0.756116
C175	C	-0.603752	0.228146	0.041642
C176	C	-0.270418	0.561479	0.374976
C177	C	0.062915	0.894812	0.708309
C178	C	-0.603755	0.304791	0.041639
C179	C	-0.270421	0.638124	0.374972
C180	C	0.062912	0.971457	0.708306
C181	C	-0.570790	0.343109	0.089443
C182	C	-0.237457	0.676443	0.422776
C183	C	0.095876	1.009776	0.756110
C184	C	-0.537812	0.304777	0.137242
C185	C	-0.204478	0.638110	0.470575
C186	C	0.128855	0.971443	0.803908
C187	C	-0.537806	0.228133	0.137239
C188	C	-0.204473	0.561467	0.470572
C189	C	0.128860	0.894800	0.803906
N190	N	-0.564507	0.463431	0.151290
N191	N	-0.231174	0.796765	0.484623
N192	N	0.102160	1.130098	0.817957
N193	N	-0.564515	0.536240	0.151290
N194	N	-0.231182	0.869573	0.484624
N195	N	0.102152	1.202906	0.817957
C196	C	-0.570804	0.574032	0.089453
C197	C	-0.237470	0.907365	0.422786
C198	C	0.095863	1.240698	0.756120
N199	N	-0.577094	0.536265	0.027613
N200	N	-0.243760	0.869599	0.360946
N201	N	0.089573	1.202932	0.694280
N202	N	-0.577088	0.463451	0.027613
N203	N	-0.243755	0.796784	0.360947
N204	N	0.089579	1.130117	0.694280
C205	C	-0.570792	0.426216	0.089451
C206	C	-0.237459	0.759550	0.422784
C207	C	0.095875	1.092883	0.756118
C208	C	-0.603781	0.695462	0.041650
C209	C	-0.270448	1.028796	0.374984
C210	C	0.062886	1.362129	0.708317
C211	C	-0.603781	0.772109	0.041646
C212	C	-0.270447	1.105442	0.374980
C213	C	0.062886	1.438775	0.708313
C214	C	-0.537840	0.772093	0.137255
C215	C	-0.204507	1.105426	0.470588
C216	C	0.128826	1.438760	0.803921
C217	C	-0.537838	0.695448	0.137253
C218	C	-0.204505	1.028782	0.470586
C219	C	0.128828	1.362115	0.803920
C220	C	-0.570811	0.657137	0.089451
C221	C	-0.237478	0.990471	0.422785
C222	C	0.095855	1.323804	0.756118
C223	C	-0.617483	0.000160	-0.160942
C224	C	-0.284149	0.333493	0.172391
C225	C	0.049184	0.666827	0.505725
C226	C	-0.616741	0.000148	-0.233761
C227	C	-0.283407	0.333481	0.099572
C228	C	0.049926	0.666815	0.432905
C229	C	-0.572318	0.000137	-0.261379
C230	C	-0.238985	0.333470	0.071955
C231	C	0.094348	0.666803	0.405288
C232	C	-0.528634	0.000118	-0.216170
C233	C	-0.195301	0.333451	0.117163
C234	C	0.138032	0.666785	0.450496
C235	C	-0.529377	0.000123	-0.143353
C236	C	-0.196044	0.333456	0.189980
C237	C	0.137289	0.666789	0.523314
N238	N	-0.538358	0.041566	-0.369172
N239	N	-0.205025	0.374899	-0.035839
N240	N	0.128308	0.708233	0.297495
N241	N	-0.537655	0.041563	-0.438346
N242	N	-0.204322	0.374897	-0.105013
N243	N	0.129011	0.708230	0.228320
C244	C	-0.570076	0.000121	-0.480773
C245	C	-0.236743	0.333454	-0.147440
C246	C	0.096590	0.666788	0.185893
N247	N	-0.603235	-0.041309	-0.451414
N248	N	-0.269901	0.292024	-0.118081
N249	N	0.063432	0.625358	0.215252
N250	N	-0.603939	-0.041303	-0.382234
N251	N	-0.270606	0.292031	-0.048901
N252	N	0.062728	0.625364	0.284433
C253	C	-0.571507	0.000131	-0.340336
C254	C	-0.238174	0.333464	-0.007003
C255	C	0.095159	0.666798	0.326331
C256	C	-0.612953	0.000122	-0.604931
C257	C	-0.279620	0.333455	-0.271598
C258	C	0.053714	0.666788	0.061736
C259	C	-0.612209	0.000105	-0.677751
C260	C	-0.278876	0.333438	-0.344418
C261	C	0.054457	0.666772	-0.011085
C262	C	-0.524102	0.000082	-0.660159
C263	C	-0.190768	0.333416	-0.326825
C264	C	0.142565	0.666749	0.006508
C265	C	-0.524847	0.000091	-0.587340
C266	C	-0.191513	0.333425	-0.254007
C267	C	0.141820	0.666758	0.079326
C268	C	-0.569274	0.000115	-0.559731
C269	C	-0.235940	0.333448	-0.226398
C270	C	0.097393	0.666781	0.106936
C271	C	-0.566997	0.000103	0.217137
C272	C	-0.233663	0.333437	0.550470
C273	C	0.099670	0.666770	0.883804
C274	C	-0.567786	0.000092	0.294636
C275	C	-0.234453	0.333426	0.627970
C276	C	0.098880	0.666759	0.961303
H277	H	-0.057461	0.000143	-0.090185
H278	H	0.275872	0.333476	0.243148
H279	H	0.609205	0.666809	0.576482
H280	H	-0.343287	0.000105	-0.022244
H281	H	-0.009954	0.333438	0.311090
H282	H	0.323380	0.666771	0.644423
H283	H	-0.492465	0.000107	-0.238661
H284	H	-0.159132	0.333440	0.094672
H285	H	0.174202	0.666774	0.428006
H286	H	-0.630599	0.196955	0.002718
H287	H	-0.297266	0.530289	0.336052
H288	H	0.036068	0.863622	0.669385
H289	H	-0.652310	0.000157	-0.270569
H290	H	-0.318977	0.333490	0.062764
H291	H	0.014357	0.666824	0.396098
H292	H	-0.487932	0.000069	-0.682644
H293	H	-0.154599	0.333403	-0.349311
H294	H	0.178735	0.666736	-0.015977
F295	F	-0.482887	0.000107	-0.095247
F296	F	-0.149554	0.333440	0.238086
F297	F	0.183780	0.666774	0.571419
F298	F	-0.664766	0.000169	-0.131563
F299	F	-0.331433	0.333502	0.201771
F300	F	0.001901	0.666835	0.535104
H301	H	-0.647779	0.000113	-0.714552
H302	H	-0.314446	0.333446	-0.381219
H303	H	0.018888	0.666779	-0.047885
H304	H	-0.510956	0.196930	0.176160
H305	H	-0.177623	0.530263	0.509493
H306	H	0.155711	0.863596	0.842827
H307	H	-0.649128	0.000137	-0.582451
H308	H	-0.315795	0.333470	-0.249117
H309	H	0.017538	0.666804	0.084216
F310	F	0.276628	0.000130	-0.047263
F311	F	0.609961	0.333464	0.286071
F312	F	0.943294	0.666797	0.619404
H313	H	-0.510971	0.335980	0.176163
H314	H	-0.177637	0.669313	0.509496
H315	H	0.155696	1.002646	0.842830
F316	F	-0.418217	0.000062	0.226144
F317	F	-0.084884	0.333396	0.559477
F318	F	0.248450	0.666729	0.892810
H319	H	-0.510991	0.664243	0.176175
H320	H	-0.177658	0.997577	0.509508
H321	H	0.155676	1.330910	0.842842
F322	F	-0.638872	0.654688	-0.009227
F323	F	-0.305538	0.988022	0.324107
F324	F	0.027795	1.321355	0.657440
H325	H	-0.489279	0.000084	-0.550538
H326	H	-0.155946	0.333417	-0.217205
H327	H	0.177388	0.666751	0.116128
F328	F	0.300936	0.000105	0.215602
F329	F	0.634269	0.333439	0.548936
F330	F	0.967603	0.666772	0.882269
H331	H	-0.630629	0.803312	0.002722
H332	H	-0.297296	1.136645	0.336055
H333	H	0.036037	1.469979	0.669389
F334	F	-0.180405	0.000095	0.286406
F335	F	0.152928	0.333428	0.619740
F336	F	0.486261	0.666761	0.953073
F337	F	-0.216493	0.000140	-0.103788
F338	F	0.116840	0.333474	0.229546
F339	F	0.450174	0.666807	0.562879
H340	H	-0.510998	0.803291	0.176175
H341	H	-0.177665	1.136625	0.509508
H342	H	0.155669	1.469958	0.842841
F343	F	0.172566	0.000145	-0.045746
F344	F	0.505899	0.333478	0.287588
F345	F	0.839233	0.666811	0.620921
H346	H	0.033991	0.000142	-0.091525
H347	H	0.367324	0.333475	0.241808
H348	H	0.700657	0.666809	0.575141
H349	H	-0.321932	0.000087	0.208794
H350	H	0.011402	0.333420	0.542127
H351	H	0.344735	0.666753	0.875460
F352	F	-0.029151	0.000114	0.284200
F353	F	0.304183	0.333448	0.617533
F354	F	0.637516	0.666781	0.950867
F355	F	0.074909	0.000130	0.282669
F356	F	0.408242	0.333463	0.616002
F357	F	0.741575	0.666796	0.949336
F358	F	0.196858	0.000101	0.217133
F359	F	0.530191	0.333434	0.550466
F360	F	0.863524	0.666767	0.883800
F361	F	-0.112423	0.000139	-0.105322
F362	F	0.220911	0.333472	0.228011
F363	F	0.554244	0.666805	0.561344
F364	F	-0.076349	0.000097	0.284880
F365	F	0.256985	0.333431	0.618214
F366	F	0.590318	0.666764	0.951547
F367	F	-0.442532	0.000104	-0.036723
F368	F	-0.109199	0.333437	0.296611
F369	F	0.224135	0.666771	0.629944
F370	F	-0.638850	0.345584	-0.009233
F371	F	-0.305517	0.678917	0.324100
F372	F	0.027817	1.012251	0.657433
