data_functionalizedCrystal
_audit_creation_method	'MofGen! by Chris Wilmer'
_symmetry_space_group_name_H-M	'P1'
_symmetry_Int_Tables_number	1
_symmetry_cell_setting	triclinic
loop_
_symmetry_equiv_pos_as_xyz
  x,y,z
_cell_length_a	12.594517
_cell_length_b	17.077402
_cell_length_c	17.077396
_cell_angle_alpha	89.970216
_cell_angle_beta	90.019909
_cell_angle_gamma	89.977317
loop_
_atom_site_label
_atom_site_type_symbol
_atom_site_fract_x
_atom_site_fract_y
_atom_site_fract_z
Zn1	Zn	1.627202	0.312512	0.443844
Zn2	Zn	1.627076	0.443787	0.312575
Zn3	Zn	1.449210	0.312539	0.312591
Zn4	Zn	1.449166	0.443740	0.443798
O5	O	1.538163	0.378145	0.378202
O6	O	1.776131	0.329935	0.426444
O7	O	1.603447	0.426408	0.202730
O8	O	1.472892	0.202688	0.330028
O9	O	1.776038	0.426382	0.330001
O10	O	1.603661	0.202669	0.426459
O11	O	1.472770	0.329980	0.202742
O12	O	1.300258	0.329934	0.329983
O13	O	1.472818	0.426301	0.553651
O14	O	1.300226	0.426327	0.426380
O15	O	1.603619	0.329889	0.553685
O16	O	1.603405	0.553628	0.329956
O17	O	1.472696	0.553593	0.426365
C18	C	1.538061	0.582092	0.378171
C19	C	1.538114	0.669342	0.378184
C20	C	1.261622	0.378129	0.378179
C21	C	1.143317	0.378141	0.378188
C22	C	1.538228	0.378087	0.582946
C23	C	1.538255	0.378062	0.670196
C24	C	1.074050	0.325641	0.325857
C25	C	1.003228	0.397243	0.306544
C26	C	1.003340	0.306575	0.397514
C27	C	1.074053	0.449780	0.358837
C28	C	1.074171	0.359063	0.449841
C29	C	1.003381	0.430714	0.430554
C30	C	1.815784	0.378161	0.378226
C31	C	1.934090	0.378168	0.378236
C32	C	1.538295	0.173400	0.378251
C33	C	1.538352	0.086150	0.378271
C34	C	1.606244	0.710324	0.328037
C35	C	1.606296	0.792305	0.328057
C36	C	1.538212	0.833302	0.378220
C37	C	1.470079	0.792314	0.428372
C38	C	1.470033	0.710335	0.428355
C39	C	1.470178	0.963184	0.428402
C40	C	1.470222	1.045168	0.428418
C41	C	1.606440	1.045154	0.328104
C42	C	1.606394	0.963175	0.328087
C43	C	1.538260	0.922193	0.378238
C44	C	1.538160	0.378145	0.174254
C45	C	1.538339	0.377949	0.087005
C46	C	1.606366	0.327856	0.711205
C47	C	1.606379	0.327830	0.793186
C48	C	1.538285	0.378014	0.834156
C49	C	1.470167	0.428223	0.793141
C50	C	1.470150	0.428244	0.711162
C51	C	1.470210	0.428175	0.964011
C52	C	1.470228	0.428155	1.045996
C53	C	1.606439	0.327761	1.046035
C54	C	1.606422	0.327783	0.964056
C55	C	1.538304	0.377992	0.923047
H56	H	1.105080	0.281288	0.281549
H57	H	1.104985	0.510332	0.342443
H58	H	1.414557	0.676968	0.469190
H59	H	0.972547	0.475174	0.474829
O60	O	1.111333	0.339634	0.522061
C61	C	1.075346	0.264094	0.542195
H62	H	1.055424	0.230160	0.486635
H63	H	1.001338	0.269106	0.580286
C64	C	1.187391	0.262325	0.656027
C65	C	1.162931	0.220644	0.587786
H66	H	1.241414	0.235524	0.684153
H67	H	1.211633	0.313219	0.642464
H68	H	1.125709	0.266499	0.687760
H69	H	1.224607	0.216480	0.556050
H70	H	1.138701	0.169749	0.601345
H71	H	1.661819	0.286992	0.677854
H72	H	0.972069	0.413396	0.245969
H73	H	1.414802	1.078545	0.469279
O74	O	1.672228	0.670468	0.279224
C75	C	1.611646	0.623107	0.228485
H76	H	1.527833	0.647865	0.223583
H77	H	1.607925	0.560961	0.252740
C78	C	1.766650	0.591467	0.152939
C79	C	1.663713	0.621880	0.146913
H80	H	1.798769	0.590707	0.102622
H81	H	1.807468	0.623373	0.187124
H82	H	1.763536	0.539682	0.173154
H83	H	1.666830	0.673668	0.126707
H84	H	1.622897	0.589983	0.112722
O85	O	1.672647	0.279038	0.832901
C86	C	1.732730	0.234740	0.779161
H87	H	1.736379	0.266910	0.720716
H88	H	1.693797	0.175120	0.770449
C89	C	1.841547	0.183919	0.882956
C90	C	1.846035	0.223434	0.811175
H91	H	1.911437	0.176941	0.902704
H92	H	1.801065	0.213761	0.919162
H93	H	1.809098	0.134240	0.875687
H94	H	1.878471	0.273115	0.818447
H95	H	1.886525	0.193600	0.774971
H96	H	1.414699	0.929818	0.469243
O97	O	1.672495	0.279001	1.085988
C98	C	1.657922	0.289748	1.167130
H99	H	1.575769	0.315454	1.178307
H100	H	1.721038	0.331539	1.190401
C101	C	1.768620	0.178734	1.195504
C102	C	1.667715	0.210301	1.209232
H103	H	1.774666	0.129729	1.221476
H104	H	1.778443	0.171496	1.140838
H105	H	1.821206	0.213568	1.214897
H106	H	1.615133	0.175472	1.189831
H107	H	1.657885	0.217532	1.263897
H108	H	1.414676	0.469119	0.677773
H109	H	1.661773	0.825669	0.287223
H110	H	0.972222	0.246048	0.413814
H111	H	1.661875	0.286923	0.930701
O112	O	1.404091	0.832222	0.477139
C113	C	1.464676	0.879557	0.527901
H114	H	1.545366	0.891810	0.500274
H115	H	1.476307	0.847917	0.586076
C116	C	1.307039	0.942405	0.576019
C117	C	1.406141	0.957459	0.542084
H118	H	1.270931	0.990457	0.584771
H119	H	1.266221	0.910513	0.541822
H120	H	1.316746	0.916036	0.624495
H121	H	1.396433	0.983819	0.493605
H122	H	1.446957	0.989358	0.576273
H123	H	1.414778	0.469018	1.079351
H124	H	1.661828	0.929796	0.287237
H125	H	1.414725	0.469049	0.930624
O126	O	1.404073	0.477081	0.832851
C127	C	1.427295	0.555324	0.812815
H128	H	1.468195	0.556969	0.753298
H129	H	1.482012	0.581755	0.858954
C130	C	1.273266	0.600847	0.882104
C131	C	1.323492	0.602867	0.809000
H132	H	1.209237	0.630176	0.879754
H133	H	1.257622	0.548134	0.895605
H134	H	1.318874	0.622871	0.920545
H135	H	1.277889	0.580835	0.770563
H136	H	1.339126	0.655579	0.795492
H137	H	1.661921	1.078526	0.287272
