data_functionalizedCrystal
_audit_creation_method	'MofGen! by Chris Wilmer'
_symmetry_space_group_name_H-M	'P1'
_symmetry_Int_Tables_number	1
_symmetry_cell_setting	triclinic
loop_
_symmetry_equiv_pos_as_xyz
  x,y,z
_cell_length_a	15.298206
_cell_length_b	15.299816
_cell_length_c	12.759393
_cell_angle_alpha	99.650122
_cell_angle_beta	99.668792
_cell_angle_gamma	69.257501
loop_
_atom_site_label
_atom_site_type_symbol
_atom_site_fract_x
_atom_site_fract_y
_atom_site_fract_z
Zn1	Zn	1.485544	-0.615753	-0.418318
Zn2	Zn	1.985544	-0.115753	0.081682
Zn3	Zn	1.512332	-0.771226	-0.268592
Zn4	Zn	2.012332	-0.271226	0.231408
Zn5	Zn	1.330056	-0.588926	-0.268633
Zn6	Zn	1.830056	-0.088926	0.231367
Zn7	Zn	1.356907	-0.744293	-0.470175
Zn8	Zn	1.856907	-0.244293	0.029825
O9	O	1.421209	-0.680049	-0.356430
O10	O	1.921209	-0.180049	0.143570
O11	O	1.619215	-0.658875	-0.376738
O12	O	2.119215	-0.158875	0.123262
O13	O	1.488126	-0.747088	-0.121591
O14	O	1.988126	-0.247088	0.378409
O15	O	1.328234	-0.462397	-0.266804
O16	O	1.828234	0.037603	0.233196
O17	O	1.638896	-0.773100	-0.266735
O18	O	2.138896	-0.273100	0.233265
O19	O	1.442470	-0.482106	-0.376777
O20	O	1.942470	0.017894	0.123223
O21	O	1.354209	-0.613153	-0.121621
O22	O	1.854209	-0.113153	0.378379
O23	O	1.203500	-0.587037	-0.317087
O24	O	1.703500	-0.087037	0.182913
O25	O	1.373997	-0.727198	-0.610303
O26	O	1.873997	-0.227198	-0.110303
O27	O	1.223227	-0.701185	-0.465159
O28	O	1.723227	-0.201185	0.034841
O29	O	1.468506	-0.632760	-0.572204
O30	O	1.968506	-0.132760	-0.072204
O31	O	1.514162	-0.897741	-0.317018
O32	O	2.014162	-0.397741	0.182982
O33	O	1.399972	-0.877954	-0.465120
O34	O	1.899972	-0.377954	0.034880
C35	C	1.179625	-0.638278	-0.396755
C36	C	1.679625	-0.138278	0.103245
C37	C	1.076278	-0.620431	-0.414035
C38	C	1.576278	-0.120431	0.085965
C39	C	1.017501	-0.552667	-0.479552
C40	C	1.517501	-0.052667	0.020448
C41	C	0.920400	-0.535890	-0.495788
C42	C	1.420400	-0.035890	0.004212
C43	C	0.882067	-0.586880	-0.446517
C44	C	1.382067	-0.086880	0.053483
C45	C	0.940845	-0.654650	-0.381006
C46	C	1.440845	-0.154650	0.118994
C47	C	1.037955	-0.671423	-0.364761
C48	C	1.537955	-0.171423	0.135239
C49	C	0.902521	-0.705636	-0.331726
C50	C	1.402521	-0.205636	0.168274
C51	C	0.961299	-0.773406	-0.266215
C52	C	1.461299	-0.273406	0.233785
C53	C	1.058399	-0.790177	-0.249973
C54	C	1.558399	-0.290177	0.250027
C55	C	1.096732	-0.739187	-0.299245
C56	C	1.596732	-0.239187	0.200755
C57	C	0.805411	-0.688862	-0.347971
C58	C	1.305411	-0.188862	0.152029
C59	C	0.825865	-0.807618	-0.233180
C60	C	1.325865	-0.307618	0.266820
C61	C	0.922966	-0.824396	-0.216943
C62	C	1.422966	-0.324396	0.283057
C63	C	1.462913	-0.921582	-0.396710
C64	C	1.962913	-0.421582	0.103290
C65	C	1.480839	-1.024926	-0.413963
C66	C	1.980839	-0.524926	0.086037
C67	C	1.293699	-1.275526	-0.233375
C68	C	1.793699	-0.775526	0.266625
C69	C	1.276852	-1.178429	-0.217168
C70	C	1.776852	-0.678429	0.282832
C71	C	1.327847	-1.140048	-0.266365
C72	C	1.827847	-0.640048	0.233635
C73	C	1.395693	-1.198774	-0.331772
C74	C	1.895693	-0.698774	0.168228
C75	C	1.412536	-1.295880	-0.347987
C76	C	1.912536	-0.795880	0.152013
C77	C	1.446685	-1.160402	-0.380977
C78	C	1.946685	-0.660402	0.119023
C79	C	1.514530	-1.219128	-0.446385
C80	C	2.014530	-0.719128	0.053615
C81	C	1.531371	-1.316224	-0.462596
C82	C	2.031371	-0.816224	0.037404
C83	C	1.480375	-1.354605	-0.413399
C84	C	1.980375	-0.854605	0.086601
C85	C	1.429841	-1.063297	-0.364762
C86	C	1.929841	-0.563297	0.135238
C87	C	1.548678	-1.083650	-0.479375
C88	C	2.048678	-0.583650	0.020625
C89	C	1.565525	-1.180747	-0.495582
C90	C	2.065525	-0.680747	0.004418
C91	C	1.663737	-0.721984	-0.315947
C92	C	2.163737	-0.221984	0.184053
C93	C	1.767088	-0.739854	-0.298696
C94	C	2.267088	-0.239854	0.201304
C95	C	1.421258	-0.679967	-0.630437
C96	C	1.921258	-0.179967	-0.130437
C97	C	1.421279	-0.679932	-0.747202
C98	C	1.921279	-0.179932	-0.247202
C99	C	1.379368	-0.437578	-0.316011
C100	C	1.879368	0.062422	0.183989
C101	C	1.361538	-0.334251	-0.298787
C102	C	1.861538	0.165749	0.201213
C103	C	1.470497	-0.630753	-0.782225
C104	C	1.970497	-0.130753	-0.282225
C105	C	1.470513	-0.630724	-0.891940
C106	C	1.970513	-0.130724	-0.391940
C107	C	1.372092	-0.729058	-0.931600
C108	C	1.872092	-0.229058	-0.431600
C109	C	1.372071	-0.729082	-0.821887
C110	C	1.872071	-0.229082	-0.321887
C111	C	1.519705	-0.581603	-0.707540
C112	C	2.019705	-0.081603	-0.207540
C113	C	1.568928	-0.532422	-0.742562
C114	C	2.068928	-0.032422	-0.242562
C115	C	1.568944	-0.532392	-0.852277
C116	C	2.068944	-0.032392	-0.352277
C117	C	1.519738	-0.581544	-0.926970
C118	C	2.019738	-0.081544	-0.426970
C119	C	1.421203	-0.680074	-0.083469
C120	C	1.921203	-0.180074	0.416531
C121	C	1.421317	-0.679878	0.033370
C122	C	1.921317	-0.179878	0.533370
H123	H	1.048721	-0.511154	-0.519655
H124	H	1.548721	-0.011154	-0.019655
H125	H	0.794656	-0.849139	-0.193060
H126	H	1.294656	-0.349139	0.306940
H127	H	1.175801	-0.752856	-0.286043
H128	H	1.675801	-0.252856	0.213957
H129	H	1.221612	-1.130618	-0.163915
H130	H	1.721612	-0.630618	0.336085
H131	H	1.590201	-1.052402	-0.519438
H132	H	2.090201	-0.552402	-0.019438
H133	H	1.586611	-1.364036	-0.515860
H134	H	2.086611	-0.864036	-0.015860
H135	H	1.252182	-1.306785	-0.193331
H136	H	1.752182	-0.806785	0.306669
H137	H	1.620765	-1.228576	-0.548837
H138	H	2.120765	-0.728576	-0.048837
H139	H	1.494092	-1.433669	-0.426587
H140	H	1.994092	-0.933669	0.073413
H141	H	1.519700	-0.581625	-0.618203
H142	H	2.019700	-0.081625	-0.118203
H143	H	0.803002	-0.573212	-0.459737
H144	H	1.303002	-0.073212	0.040263
H145	H	1.374601	-1.015490	-0.311508
H146	H	1.874601	-0.515490	0.188492
H147	H	1.106253	-0.845352	-0.196620
H148	H	1.606253	-0.345352	0.303380
H149	H	1.332030	-0.769074	-0.992423
H150	H	1.832030	-0.269074	-0.492423
H151	H	0.970837	-0.879575	-0.163603
H152	H	1.470837	-0.379575	0.336397
H153	H	1.608983	-0.492398	-0.681741
H154	H	2.108983	0.007602	-0.181741
H155	H	1.609016	-0.492339	-0.880788
H156	H	2.109016	0.007661	-0.380788
H157	H	0.872550	-0.480712	-0.549129
H158	H	1.372550	0.019288	-0.049129
H159	H	1.519742	-0.581503	-1.016306
H160	H	2.019742	-0.081503	-0.516306
H161	H	1.331977	-0.769110	-0.793372
H162	H	1.831977	-0.269110	-0.293372
H163	H	0.757563	-0.633681	-0.401309
H164	H	1.257563	-0.133681	0.098691
H165	H	1.314127	-1.060987	-0.253164
H166	H	1.814127	-0.560987	0.246836
