data_functionalizedCrystal
_audit_creation_method	'MofGen! by Chris Wilmer'
_symmetry_space_group_name_H-M	'P1'
_symmetry_Int_Tables_number	1
_symmetry_cell_setting	triclinic
loop_
_symmetry_equiv_pos_as_xyz
  x,y,z
_cell_length_a	10.540535
_cell_length_b	10.540495
_cell_length_c	9.016244
_cell_angle_alpha	89.996335
_cell_angle_beta	89.999975
_cell_angle_gamma	95.484423
loop_
_atom_site_label
_atom_site_type_symbol
_atom_site_fract_x
_atom_site_fract_y
_atom_site_fract_z
O1	O	1.685858	-0.178881	0.123248
O2	O	1.316442	-0.195743	0.123268
O3	O	1.509607	-0.002602	0.123259
O4	O	1.492693	-0.372022	0.123256
O5	O	1.509599	-0.002587	-0.123422
O6	O	1.316433	-0.195728	-0.123413
O7	O	1.685850	-0.178866	-0.123433
Cu8	Cu	1.501141	-0.187296	-0.145947
Cu9	Cu	1.501151	-0.187313	0.145782
O10	O	1.492685	-0.372008	-0.123424
C11	C	1.269135	-0.194472	-0.000070
C12	C	1.128187	-0.190693	-0.000062
C13	C	1.508346	0.044710	-0.000077
C14	C	1.504587	0.185660	-0.000066
N15	N	1.501143	-0.187283	-0.351133
C16	C	1.091539	-0.049676	-0.000067
C17	C	0.944939	-0.045698	-0.000641
C18	C	0.918836	-0.255056	-0.140673
C19	C	1.065601	-0.258057	-0.140776
C20	C	1.065494	-0.260125	0.139756
C21	C	0.919149	-0.253603	0.141589
C22	C	1.733157	-0.180137	-0.000092
C23	C	1.874105	-0.183916	-0.000090
C24	C	1.642732	0.256369	-0.000078
C25	C	1.638867	0.402983	-0.000647
C26	C	1.429468	0.378004	-0.140667
C27	C	1.434311	0.231464	-0.140775
C28	C	1.432276	0.231049	0.139757
C29	C	1.430953	0.378029	0.141595
C30	C	1.493962	0.580683	-0.000085
C31	C	1.497772	0.439739	-0.000086
C32	C	1.604860	-0.084321	-0.586124
C33	C	1.604580	-0.083929	-0.414233
C34	C	1.368443	-0.157154	-0.413551
C35	C	1.369059	-0.156431	-0.585495
C36	C	1.528965	-0.320733	-0.585640
C37	C	1.531960	-0.319861	-0.413684
N38	N	1.501158	-0.187316	0.350968
H39	H	1.133519	0.004470	0.100733
H40	H	0.871463	-0.356823	-0.145505
H41	H	1.484186	0.203245	-0.246270
O42	O	1.336847	-0.027502	-0.638666
H43	H	1.416894	0.017603	-0.706200
O44	O	1.121726	-0.201844	0.280961
H45	H	1.194995	-0.122730	0.253057
H46	H	1.289513	-0.228533	-0.627111
O47	O	1.292197	0.407560	-0.147069
H48	H	1.246123	0.362862	-0.247371
H49	H	0.870085	-0.354479	0.150514
H50	H	1.703184	-0.102048	-0.372031
H51	H	0.915613	0.009938	0.100114
H52	H	1.135001	0.003575	-0.100733
H53	H	0.890558	-0.201833	0.245594
H54	H	1.087662	-0.363878	0.141115
O55	O	0.877951	-0.190378	-0.279802
H56	H	0.825784	-0.107582	-0.249179
H57	H	1.697983	0.226057	-0.100673
H58	H	1.289364	-0.230119	-0.372679
O59	O	1.335461	-0.029663	-0.356562
H60	H	1.413366	0.012437	-0.283801
H61	H	1.692591	0.445644	0.100102
O62	O	1.661269	-0.350131	-0.359645
H63	H	1.703422	-0.271093	-0.288525
H64	H	1.698764	0.227843	0.100734
O65	O	1.491529	0.434379	-0.279792
H66	H	1.484306	0.538737	-0.281396
H67	H	1.480870	0.419021	0.245598
O68	O	1.299902	0.167856	-0.148723
H69	H	1.231735	0.241802	-0.152484
O70	O	1.492992	0.189069	0.280953
H71	H	1.575422	0.135419	0.253040
O72	O	1.294718	0.410044	0.153411
H73	H	1.272403	0.470703	0.058056
O74	O	1.297308	0.168441	0.141592
H75	H	1.281742	0.105296	0.043458
O76	O	1.428821	-0.422281	-0.639543
H77	H	1.449105	-0.516179	-0.594315
O78	O	1.580876	0.047191	-0.359755
H79	H	1.580606	0.047933	-0.236654
H80	H	1.692354	0.444720	-0.102022
H81	H	0.916491	0.009677	-0.102012
O82	O	1.735919	-0.107949	-0.640876
H83	H	1.728551	-0.193346	-0.713521
H84	H	1.623727	-0.349398	-0.628998
O85	O	1.581506	0.046055	-0.643369
H86	H	1.565161	0.109471	-0.548385
O87	O	1.118834	-0.194409	-0.280507
H88	H	1.039716	-0.161774	-0.347365
O89	O	1.096104	-0.394982	-0.148730
H90	H	1.006060	-0.458764	-0.152497
H91	H	1.461412	-0.400184	-0.370728
