data_functionalizedCrystal
_audit_creation_method	'MofGen! by Chris Wilmer'
_symmetry_space_group_name_H-M	'P1'
_symmetry_Int_Tables_number	1
_symmetry_cell_setting	triclinic
loop_
_symmetry_equiv_pos_as_xyz
  x,y,z
_cell_length_a	16.992694
_cell_length_b	16.974813
_cell_length_c	16.053802
_cell_angle_alpha	88.912550
_cell_angle_beta	87.249047
_cell_angle_gamma	87.024634
loop_
_atom_site_label
_atom_site_type_symbol
_atom_site_fract_x
_atom_site_fract_y
_atom_site_fract_z
O1	O	1.044046	0.164036	-0.080405
O2	O	0.815757	0.162201	-0.080306
O3	O	0.935897	0.048765	-0.072625
O4	O	0.923906	0.277473	-0.088087
O5	O	0.929284	0.054981	0.065813
O6	O	0.809145	0.168418	0.058132
O7	O	1.037433	0.170253	0.058033
Zn8	Zn	0.922239	0.170322	0.080062
Zn9	Zn	0.930951	0.162132	-0.102336
O10	O	0.917293	0.283689	0.050351
C11	C	0.783234	0.162951	-0.010931
C12	C	0.696175	0.155912	-0.010465
C13	C	0.646080	0.223821	-0.015055
C14	C	0.564279	0.217204	-0.014596
C15	C	0.532574	0.142676	-0.009553
C16	C	0.582675	0.074762	-0.004959
C17	C	0.664475	0.081380	-0.005412
C18	C	0.288916	0.115246	-0.007676
C19	C	0.207111	0.108632	-0.007226
C20	C	0.188719	0.251075	-0.016861
C21	C	0.270522	0.257687	-0.017318
C22	C	0.320615	0.189773	-0.012721
N23	N	0.448960	0.135910	-0.009086
N24	N	0.404227	0.196540	-0.013181
C25	C	0.932011	0.022473	-0.001420
C26	C	0.930277	-0.065130	0.004496
C27	C	0.933069	-0.109669	-0.068186
C28	C	0.931434	-0.191981	-0.062625
C29	C	0.927013	-0.229752	0.015620
C30	C	0.924219	-0.185206	0.088308
C31	C	0.925848	-0.102895	0.082746
C32	C	0.921749	-0.475560	0.040348
C33	C	0.920122	-0.557877	0.045906
C34	C	0.927336	-0.564647	-0.105028
C35	C	0.928969	-0.482334	-0.110584
C36	C	0.926171	-0.437795	-0.037896
N37	N	0.925344	-0.313887	0.021307
N38	N	0.927834	-0.353661	-0.043583
C39	C	1.069957	0.169503	-0.011344
C40	C	1.157016	0.176542	-0.011816
C41	C	0.921179	0.309981	-0.020855
C42	C	0.922914	0.397583	-0.026777
N43	N	0.916298	0.175912	0.204544
N44	N	0.936898	0.156536	-0.226817
C45	C	0.967436	0.127664	0.251505
C46	C	0.963288	0.131582	0.338647
C47	C	0.908005	0.183752	0.378825
C48	C	0.856862	0.232002	0.331858
C49	C	0.861007	0.228080	0.244718
C50	C	0.889899	0.200864	0.639076
C51	C	0.885760	0.204784	0.726222
C52	C	0.992186	0.104363	0.733005
C53	C	0.996329	0.100448	0.645863
C54	C	0.945183	0.148695	0.598903
N55	N	0.903765	0.187760	0.467898
N56	N	0.949419	0.144683	0.509833
H57	H	0.936673	-0.078923	-0.131902
H58	H	0.671887	0.284510	-0.019162
O59	O	0.176407	0.036185	-0.002433
C60	C	0.205389	-0.008744	-0.071319
H61	H	0.263309	0.015229	-0.096916
H62	H	0.215824	-0.072947	-0.050800
H63	H	0.160471	-0.004846	-0.121942
O64	O	0.915976	-0.594607	0.121903
C65	C	0.982674	-0.646670	0.129942
H66	H	1.032627	-0.627032	0.085657
H67	H	1.002253	-0.646161	0.196854
H68	H	0.967075	-0.708914	0.113818
H69	H	0.840739	0.247271	0.758931
H70	H	0.819364	0.267367	0.206483
H71	H	0.929612	-0.600919	-0.164206
H72	H	0.920614	-0.215965	0.152017
O73	O	0.515730	0.283250	-0.019099
C74	C	0.561254	0.350449	-0.023631
H75	H	0.623506	0.333108	-0.048754
H76	H	0.533099	0.396541	-0.067061
H77	H	0.563967	0.376037	0.041254
H78	H	0.296329	0.318375	-0.021435
O79	O	0.139944	0.316965	-0.021277
C80	C	0.060948	0.295146	-0.019818
H81	H	0.056431	0.234211	0.010590
H82	H	0.022074	0.339921	0.017473
H83	H	0.040461	0.293663	-0.086333
H84	H	0.811845	0.274478	0.364576
O85	O	0.840186	0.247813	0.593591
C86	C	0.790495	0.294687	0.647744
H87	H	0.819698	0.300416	0.709655
H88	H	0.779859	0.355745	0.618358
H89	H	0.731748	0.265807	0.659007
O90	O	0.337653	0.049326	-0.003335
C91	C	0.388920	0.045659	-0.075017
H92	H	0.394335	0.107413	-0.103165
H93	H	0.449563	0.020884	-0.057173
H94	H	0.364318	0.005714	-0.122674
H95	H	0.556854	0.014080	-0.000841
O96	O	0.713115	0.015384	-0.001104
C97	C	0.702124	-0.032791	-0.069750
H98	H	0.676641	0.004809	-0.122557
H99	H	0.761238	-0.061824	-0.091930
H100	H	0.659608	-0.080313	-0.050275
H101	H	0.933710	-0.228242	-0.121810
O102	O	0.919084	-0.432424	0.111038
C103	C	0.914827	-0.483415	0.181288
H104	H	0.939512	-0.544784	0.163233
H105	H	0.950835	-0.459883	0.232630
H106	H	0.850695	-0.486811	0.204806
H107	H	0.923564	-0.066631	0.141932
H108	H	0.932570	-0.451588	-0.174299
O109	O	1.021163	0.076917	0.212613
C110	C	1.065420	0.035186	0.272752
H111	H	1.030312	0.035049	0.335070
H112	H	1.078449	-0.028138	0.251787
H113	H	1.123286	0.064901	0.280029
O114	O	1.012860	0.084633	0.384303
C115	C	0.968374	0.035605	0.438201
H116	H	0.907777	0.029157	0.412310
H117	H	1.000197	-0.024967	0.443283
H118	H	0.961177	0.062981	0.502593
H119	H	1.041345	0.057967	0.613151
H120	H	1.033826	0.065081	0.771247
