data_functionalizedCrystal
_audit_creation_method	'MofGen! by Chris Wilmer'
_symmetry_space_group_name_H-M	'P1'
_symmetry_Int_Tables_number	1
_symmetry_cell_setting	triclinic
loop_
_symmetry_equiv_pos_as_xyz
  x,y,z
_cell_length_a	14.519709
_cell_length_b	9.065218
_cell_length_c	7.540329
_cell_angle_alpha	89.998243
_cell_angle_beta	90.002655
_cell_angle_gamma	84.348015
loop_
_atom_site_label
_atom_site_type_symbol
_atom_site_fract_x
_atom_site_fract_y
_atom_site_fract_z
O1	O	1.225282	0.193392	-0.147244
O2	O	1.725282	0.693392	0.352756
O3	O	0.956971	0.216167	-0.147297
O4	O	1.456971	0.716167	0.352703
O5	O	1.096672	-0.009967	-0.147266
O6	O	1.596672	0.490033	0.352734
O7	O	1.085581	0.419526	-0.147275
O8	O	1.585581	0.919526	0.352725
O9	O	1.096664	-0.009970	0.147699
O10	O	1.596664	0.490030	0.647699
O11	O	0.956963	0.216164	0.147668
O12	O	1.456963	0.716164	0.647668
O13	O	1.225273	0.193389	0.147721
O14	O	1.725273	0.693389	0.647721
Cu15	Cu	1.091117	0.204776	0.174627
Cu16	Cu	1.591117	0.704776	0.674627
Cu17	Cu	1.091127	0.204780	-0.174203
Cu18	Cu	1.591127	0.704780	0.325797
O19	O	1.085572	0.419523	0.147690
O20	O	1.585572	0.919523	0.647690
C21	C	0.922600	0.215104	0.000178
C22	C	1.422600	0.715104	0.500178
C23	C	0.820195	0.211923	0.000158
C24	C	1.320195	0.711923	0.500158
C25	C	1.095602	-0.064935	0.000214
C26	C	1.595602	0.435065	0.500214
C27	C	1.092415	-0.228718	0.000204
C28	C	1.592415	0.271282	0.500204
C29	C	0.445214	0.200214	0.000239
C30	C	0.945214	0.700214	0.500239
C31	C	0.549545	0.203466	0.000216
C32	C	1.049545	0.703466	0.500216
C33	C	0.632701	0.206068	0.000197
C34	C	1.132701	0.706068	0.500197
C35	C	0.737039	0.209321	0.000177
C36	C	1.237039	0.709321	0.500177
C37	C	1.259645	0.194452	0.000242
C38	C	1.759645	0.694452	0.500242
C39	C	1.362049	0.197633	0.000251
C40	C	1.862049	0.697633	0.500251
C41	C	1.086642	0.474491	0.000206
C42	C	1.586642	0.974491	0.500206
C43	C	1.089830	0.638274	0.000204
C44	C	1.589830	1.138274	0.500204
N45	N	1.091117	0.204773	0.419976
N46	N	1.591117	0.704773	0.919976
N47	N	1.091135	0.204771	-0.419552
N48	N	1.591135	0.704771	0.080448
