data_functionalizedCrystal
_audit_creation_method	'MofGen! by Chris Wilmer'
_symmetry_space_group_name_H-M	'P1'
_symmetry_Int_Tables_number	1
_symmetry_cell_setting	triclinic
loop_
_symmetry_equiv_pos_as_xyz
  x,y,z
_cell_length_a	34.571875
_cell_length_b	34.571051
_cell_length_c	34.567439
_cell_angle_alpha	60.004367
_cell_angle_beta	60.008842
_cell_angle_gamma	59.994195
loop_
_atom_site_label
_atom_site_type_symbol
_atom_site_fract_x
_atom_site_fract_y
_atom_site_fract_z
O1	O	0.053721	-0.565181	0.472559
O2	O	0.387054	-0.231848	0.805892
O3	O	0.720388	0.101486	1.139225
O4	O	0.020283	-0.440038	0.380761
O5	O	0.353616	-0.106705	0.714094
O6	O	0.686950	0.226629	1.047427
O7	O	0.099534	-0.519209	0.380676
O8	O	0.432867	-0.185875	0.714010
O9	O	0.766201	0.147458	1.047343
O10	O	-0.025530	-0.486010	0.472643
O11	O	0.307803	-0.152677	0.805976
O12	O	0.641137	0.180657	1.139310
O13	O	0.125831	-0.492917	0.406885
O14	O	0.459165	-0.159584	0.740218
O15	O	0.792498	0.173750	1.073552
O16	O	0.046580	-0.413746	0.406969
O17	O	0.379914	-0.080413	0.740303
O18	O	0.713247	0.252920	1.073636
O19	O	0.080018	-0.538889	0.498767
O20	O	0.413352	-0.205556	0.832101
O21	O	0.746685	0.127777	1.165434
Zn22	Zn	0.067475	-0.472143	0.457030
Zn23	Zn	0.400808	-0.138810	0.790363
Zn24	Zn	0.734141	0.194523	1.123696
Zn25	Zn	0.032827	-0.506784	0.422498
Zn26	Zn	0.366160	-0.173450	0.755832
Zn27	Zn	0.699493	0.159883	1.089165
O28	O	0.000767	-0.459718	0.498852
O29	O	0.334100	-0.126385	0.832185
O30	O	0.667434	0.206948	1.165518
N31	N	0.091122	-0.448505	0.480598
N32	N	0.424455	-0.115172	0.813932
N33	N	0.757788	0.218161	1.147265
N34	N	0.009184	-0.530426	0.398930
N35	N	0.342517	-0.197093	0.732263
N36	N	0.675850	0.136241	1.065596
C37	C	0.124402	-0.415465	0.717633
C38	C	0.457735	-0.082131	1.050967
C39	C	0.791069	0.251202	1.384300
C40	C	0.328327	-0.415388	0.513477
C41	C	0.661661	-0.082055	0.846810
C42	C	0.994994	0.251279	1.180143
C43	C	0.124221	-0.415437	0.513630
C44	C	0.457554	-0.082103	0.846963
C45	C	0.790888	0.251230	1.180297
C46	C	0.124201	-0.211364	0.513624
C47	C	0.457535	0.121969	0.846957
C48	C	0.790868	0.455303	1.180290
C49	C	0.157075	-0.309853	0.546423
C50	C	0.490408	0.023480	0.879756
C51	C	0.823741	0.356813	1.213090
C52	C	0.157084	-0.382601	0.546423
C53	C	0.490418	-0.049268	0.879756
C54	C	0.823751	0.284065	1.213089
C55	C	0.175289	-0.364414	0.564591
C56	C	0.508622	-0.031080	0.897924
C57	C	0.841955	0.302253	1.231257
C58	C	0.254624	-0.350722	0.522790
C59	C	0.587958	-0.017388	0.856124
C60	C	0.921291	0.315945	1.189457
C61	C	0.304220	-0.367243	0.506229
C62	C	0.637553	-0.033909	0.839562
C63	C	0.970887	0.299424	1.172896
C64	C	0.304249	-0.447494	0.536832
C65	C	0.637583	-0.114161	0.870165
C66	C	0.970916	0.219173	1.203498
C67	C	0.254655	-0.430972	0.553394
C68	C	0.587988	-0.097639	0.886728
C69	C	0.921321	0.235695	1.220061
C70	C	0.169014	-0.285043	0.497667
C71	C	0.502347	0.048291	0.831000
C72	C	0.835681	0.381624	1.164333
C73	C	0.152454	-0.235444	0.481153
C74	C	0.485787	0.097890	0.814486
C75	C	0.819121	0.431223	1.147820
C76	C	0.112020	-0.235469	0.562154
C77	C	0.445353	0.097864	0.895487
C78	C	0.778686	0.431197	1.228821
C79	C	0.128580	-0.285068	0.578668
C80	C	0.461913	0.048265	0.912001
C81	C	0.795246	0.381598	1.245334
C82	C	0.108321	-0.370634	0.558439
C83	C	0.441654	-0.037300	0.891773
C84	C	0.774987	0.296033	1.225106
C85	C	0.091776	-0.387168	0.541918
C86	C	0.425109	-0.053834	0.875251
C87	C	0.758443	0.279499	1.208585
C88	C	0.172754	-0.427637	0.501375
C89	C	0.506088	-0.094304	0.834708
C90	C	0.839421	0.239030	1.168042
C91	C	0.189301	-0.411103	0.517891
C92	C	0.522634	-0.077770	0.851224
C93	C	0.855968	0.255564	1.184557
C94	C	0.108399	-0.370649	0.643978
C95	C	0.441732	-0.037315	0.977311
C96	C	0.775066	0.296018	1.310644
C97	C	0.091911	-0.387197	0.693575
C98	C	0.425244	-0.053864	1.026909
C99	C	0.758578	0.279469	1.360242
C100	C	0.172928	-0.427676	0.693511
C101	C	0.506261	-0.094343	1.026844
C102	C	0.839595	0.238991	1.360178
C103	C	0.189415	-0.411128	0.643912
C104	C	0.522748	-0.077795	0.977245
C105	C	0.856081	0.255538	1.310579
C106	C	0.157149	-0.382613	0.619147
C107	C	0.490482	-0.049280	0.952480
C108	C	0.823816	0.284053	1.285814
C109	C	0.229844	-0.382585	0.546371
C110	C	0.563177	-0.049252	0.879705
C111	C	0.896510	0.284081	1.213038
C112	C	0.105624	-0.433333	0.772186
C113	C	0.438957	-0.100000	1.105519
C114	C	0.772290	0.233333	1.438852
C115	C	0.382878	-0.432925	0.495007
C116	C	0.716211	-0.099592	0.828340
C117	C	1.049544	0.233741	1.161673
C118	C	0.105380	-0.433313	0.495792
C119	C	0.438713	-0.099980	0.829125
C120	C	0.772046	0.233354	1.162458
C121	C	0.105683	-0.156808	0.496094
C122	C	0.439017	0.176525	0.829427
C123	C	0.772350	0.509859	1.162761
C124	C	-0.023527	-0.563458	0.161535
C125	C	0.309806	-0.230125	0.494868
C126	C	0.643139	0.103208	0.828202
C127	C	-0.023851	-0.767445	0.365663
C128	C	0.309483	-0.434112	0.698996
C129	C	0.642816	-0.100778	1.032329
C130	C	-0.023821	-0.563448	0.365756
C131	C	0.309512	-0.230114	0.699090
C132	C	0.642846	0.103219	1.032423
C133	C	-0.227785	-0.563229	0.365355
C134	C	0.105549	-0.229896	0.698689
C135	C	0.438882	0.103438	1.032022
C136	C	-0.129302	-0.596153	0.332678
C137	C	0.204031	-0.262820	0.666011
C138	C	0.537365	0.070513	0.999345
C139	C	-0.056593	-0.596234	0.332823
C140	C	0.276740	-0.262901	0.666157
C141	C	0.610074	0.070433	0.999490
C142	C	-0.074746	-0.614396	0.314578
C143	C	0.258588	-0.281062	0.647911
C144	C	0.591921	0.052271	0.981244
C145	C	-0.088477	-0.693710	0.356299
C146	C	0.244856	-0.360377	0.689632
C147	C	0.578190	-0.027044	1.022966
C148	C	-0.071982	-0.743310	0.372851
C149	C	0.261351	-0.409976	0.706185
C150	C	0.594685	-0.076643	1.039518
C151	C	0.008266	-0.743392	0.342376
C152	C	0.341600	-0.410058	0.675710
C153	C	0.674933	-0.076725	1.009043
C154	C	-0.008230	-0.693794	0.325823
C155	C	0.325103	-0.360460	0.659156
C156	C	0.658437	-0.027127	0.992490
C157	C	-0.154162	-0.608103	0.381422
C158	C	0.179172	-0.274769	0.714755
C159	C	0.512505	0.058564	1.048089
C160	C	-0.203757	-0.591517	0.397874
C161	C	0.129576	-0.258184	0.731208
C162	C	0.462909	0.075150	1.064541
C163	C	-0.203630	-0.551037	0.316836
C164	C	0.129703	-0.217704	0.650169
C165	C	0.463037	0.115630	0.983503
C166	C	-0.154034	-0.567623	0.300384
C167	C	0.179299	-0.234289	0.633717
C168	C	0.512632	0.099044	0.967050
C169	C	-0.068543	-0.547475	0.320829
C170	C	0.264790	-0.214141	0.654162
C171	C	0.598123	0.119192	0.987496
C172	C	-0.052041	-0.530969	0.337421
C173	C	0.281292	-0.197635	0.670754
C174	C	0.614625	0.135698	1.004088
C175	C	-0.011639	-0.611977	0.377990
C176	C	0.321695	-0.278644	0.711323
C177	C	0.655028	0.054690	1.044657
C178	C	-0.028141	-0.628485	0.361404
C179	C	0.305193	-0.295152	0.694737
C180	C	0.638526	0.038182	1.028071
C181	C	-0.068417	-0.547482	0.235199
C182	C	0.264917	-0.214148	0.568533
C183	C	0.598250	0.119185	0.901866
C184	C	-0.051814	-0.530977	0.185602
C185	C	0.281519	-0.197644	0.518935
C186	C	0.614853	0.135689	0.852268
C187	C	-0.011349	-0.611990	0.185649
C188	C	0.321984	-0.278657	0.518982
C189	C	0.655317	0.054676	0.852316
C190	C	-0.027951	-0.628493	0.235248
C191	C	0.305382	-0.295160	0.568581
C192	C	0.638715	0.038173	0.901914
C193	C	-0.056486	-0.596238	0.260022
C194	C	0.276847	-0.262905	0.593355
C195	C	0.610180	0.070429	0.926688
C196	C	-0.056602	-0.668955	0.332787
C197	C	0.276731	-0.335621	0.666120
C198	C	0.610064	-0.002288	0.999453
C199	C	-0.005599	-0.544662	0.106983
C200	C	0.327735	-0.211329	0.440316
C201	C	0.661068	0.122005	0.773650
C202	C	-0.006342	-0.821999	0.384121
C203	C	0.326992	-0.488665	0.717455
C204	C	0.660325	-0.155332	1.050788
C205	C	-0.005979	-0.544649	0.383673
C206	C	0.327354	-0.211316	0.717006
C207	C	0.660688	0.122018	1.050339
C208	C	-0.282336	-0.544682	0.382817
C209	C	0.050998	-0.211349	0.716150
C210	C	0.384331	0.121985	1.049484
N211	N	0.427518	-0.448428	0.480350
N212	N	0.760851	-0.115095	0.813683
N213	N	1.094185	0.218239	1.147016
O214	O	0.589573	-0.456297	0.363634
O215	O	0.922907	-0.122964	0.696968
O216	O	1.256240	0.210369	1.030301
O217	O	0.589761	-0.548399	0.488643
O218	O	0.923094	-0.215065	0.821976
O219	O	1.256428	0.118268	1.155310
O220	O	0.589681	-0.548188	0.409364
O221	O	0.923014	-0.214854	0.742698
O222	O	1.256348	0.118479	1.076031
O223	O	0.589654	-0.456508	0.442913
O224	O	0.922987	-0.123175	0.776246
O225	O	1.256320	0.210159	1.109580
O226	O	0.510890	-0.521988	0.435708
O227	O	0.844223	-0.188655	0.769041
O228	O	1.177556	0.144678	1.102375
O229	O	0.510970	-0.522199	0.514987
O230	O	0.844303	-0.188866	0.848320
O231	O	1.177636	0.144468	1.181653
O232	O	0.510782	-0.430098	0.389978
O233	O	0.844116	-0.096764	0.723311
O234	O	1.177449	0.236569	1.056645
Zn235	Zn	0.498366	-0.471989	0.456665
Zn236	Zn	0.831700	-0.138655	0.789998
Zn237	Zn	1.165033	0.194678	1.123332
Zn238	Zn	0.602177	-0.506508	0.421956
Zn239	Zn	0.935510	-0.173174	0.755289
Zn240	Zn	1.268844	0.160159	1.088623
O241	O	0.510862	-0.430308	0.469257
O242	O	0.844196	-0.096975	0.802590
O243	O	1.177529	0.236358	1.135923
N244	N	0.673025	-0.530068	0.398267
N245	N	1.006359	-0.196735	0.731600
N246	N	1.339692	0.136598	1.064933
N247	N	0.091092	-0.112167	0.480590
N248	N	0.424426	0.221167	0.813923
N249	N	0.757759	0.554500	1.147256
O250	O	-0.025539	0.049976	0.472612
O251	O	0.307795	0.383309	0.805945
O252	O	0.641128	0.716643	1.139278
O253	O	0.099472	0.050011	0.380491
O254	O	0.432805	0.383345	0.713824
O255	O	0.766139	0.716678	1.047158
O256	O	0.020155	0.049979	0.380751
O257	O	0.353489	0.383312	0.714084
O258	O	0.686822	0.716646	1.047418
O259	O	0.053778	0.050009	0.472352
O260	O	0.387111	0.383342	0.805685
O261	O	0.720445	0.716675	1.139018
O262	O	0.046458	-0.028818	0.407008
O263	O	0.379791	0.304516	0.740341
O264	O	0.713125	0.637849	1.073674
O265	O	0.125775	-0.028785	0.406748
O266	O	0.459108	0.304548	0.740081
O267	O	0.792441	0.637881	1.073414
O268	O	0.000764	-0.028821	0.498869
O269	O	0.334097	0.304513	0.832202
O270	O	0.667431	0.637846	1.165535
Zn271	Zn	0.067445	-0.041314	0.456977
Zn272	Zn	0.400779	0.292020	0.790310
Zn273	Zn	0.734112	0.625353	1.123644
Zn274	Zn	0.032791	0.062504	0.422382
Zn275	Zn	0.366124	0.395838	0.755716
Zn276	Zn	0.699457	0.729171	1.089049
O277	O	0.080081	-0.028788	0.498609
O278	O	0.413414	0.304545	0.831942
O279	O	0.746747	0.637878	1.165275
N280	N	0.009138	0.133358	0.398771
N281	N	0.342471	0.466691	0.732104
N282	N	0.675804	0.800024	1.065438
N283	N	0.091421	-0.448552	0.816827
N284	N	0.424754	-0.115218	1.150161
N285	N	0.758087	0.218115	1.483494
O286	O	0.083469	-0.565164	0.978960
O287	O	0.416802	-0.231831	1.312294
O288	O	0.750135	0.101503	1.645627
O289	O	-0.008614	-0.440110	0.979002
O290	O	0.324719	-0.106776	1.312335
O291	O	0.658052	0.226557	1.645668
O292	O	-0.008399	-0.519410	0.978978
O293	O	0.324934	-0.186077	1.312311
O294	O	0.658268	0.147256	1.645645
O295	O	0.083253	-0.485863	0.978984
O296	O	0.416587	-0.152530	1.312317
O297	O	0.749920	0.180803	1.645651
O298	O	0.017837	-0.493128	0.900185
O299	O	0.351170	-0.159794	1.233518
O300	O	0.684503	0.173539	1.566851
O301	O	0.017621	-0.413827	0.900208
O302	O	0.350955	-0.080494	1.233542
O303	O	0.684288	0.252840	1.566875
O304	O	0.109704	-0.538881	0.900167
O305	O	0.443038	-0.205548	1.233500
O306	O	0.776371	0.127785	1.566834
Zn307	Zn	0.067828	-0.472181	0.887677
Zn308	Zn	0.401162	-0.138848	1.221011
Zn309	Zn	0.734495	0.194485	1.554344
Zn310	Zn	0.033262	-0.506810	0.991491
Zn311	Zn	0.366595	-0.173476	1.324824
Zn312	Zn	0.699928	0.159857	1.658158
O313	O	0.109489	-0.459581	0.900191
O314	O	0.442822	-0.126247	1.233524
O315	O	0.776156	0.207086	1.566857
N316	N	0.009668	-0.530444	1.062341
N317	N	0.343002	-0.197111	1.395675
N318	N	0.676335	0.136223	1.729008
C319	C	0.030297	-0.411123	0.381218
C320	C	0.363630	-0.077790	0.714551
C321	C	0.696964	0.255544	1.047884
C322	C	0.128439	-0.509167	0.381113
C323	C	0.461773	-0.175833	0.714446
C324	C	0.795106	0.157500	1.047780
C325	C	0.070004	-0.567805	0.498310
C326	C	0.403337	-0.234471	0.831643
C327	C	0.736671	0.098862	1.164977
C328	C	-0.028138	-0.469761	0.498415
C329	C	0.305195	-0.136428	0.831748
C330	C	0.638528	0.196906	1.165081
C331	C	0.550388	-0.547982	0.517564
C332	C	0.883721	-0.214648	0.850897
C333	C	1.217055	0.118685	1.184231
C334	C	0.550290	-0.547721	0.419387
C335	C	0.883624	-0.214388	0.752720
C336	C	1.216957	0.118945	1.086054
C337	C	0.550153	-0.430514	0.361058
C338	C	0.883486	-0.097180	0.694391
C339	C	1.216819	0.236153	1.027725
C340	C	0.550253	-0.430775	0.459234
C341	C	0.883587	-0.097442	0.792567
C342	C	1.216920	0.235891	1.125901
C343	C	0.128339	0.010714	0.380902
C344	C	0.461672	0.344048	0.714235
C345	C	0.795006	0.677381	1.047568
C346	C	0.030148	0.010577	0.381256
C347	C	0.363481	0.343911	0.714589
C348	C	0.696814	0.677244	1.047922
C349	C	-0.028136	0.010574	0.498426
C350	C	0.305198	0.343907	0.831759
C351	C	0.638531	0.677241	1.165092
C352	C	0.070089	0.010613	0.498104
C353	C	0.403422	0.343946	0.831437
C354	C	0.736755	0.677279	1.164771
C355	C	-0.008178	-0.411214	0.939610
C356	C	0.325156	-0.077880	1.272944
C357	C	0.658489	0.255453	1.606277
C358	C	-0.007906	-0.509413	0.939566
C359	C	0.325428	-0.176079	1.272899
C360	C	0.658761	0.157254	1.606232
C361	C	0.109268	-0.567777	0.939558
C362	C	0.442601	-0.234444	1.272892
C363	C	0.775934	0.098889	1.606225
C364	C	0.109002	-0.469572	0.939586
C365	C	0.442335	-0.136239	1.272919
C366	C	0.775668	0.197094	1.606252
H367	H	0.082121	-0.347425	0.623816
H368	H	0.415454	-0.014092	0.957149
H369	H	0.748788	0.319241	1.290483
H370	H	0.137795	-0.462392	0.939581
H371	H	0.471128	-0.129059	1.272915
H372	H	0.804462	0.204274	1.606248
H373	H	0.550436	-0.576894	0.553469
H374	H	0.883770	-0.243561	0.886802
H375	H	1.217103	0.089772	1.220135
O376	O	0.175789	0.010999	0.342477
O377	O	0.509122	0.344332	0.675811
O378	O	0.842455	0.677665	1.009144
H379	H	0.182356	0.043188	0.333847
H380	H	0.515690	0.376521	0.667181
H381	H	0.849023	0.709855	1.000514
O382	O	0.165334	-0.208681	0.428563
O383	O	0.498667	0.124653	0.761896
O384	O	0.832001	0.457986	1.095229
H385	H	0.151984	-0.218202	0.412326
H386	H	0.485317	0.115132	0.745660
H387	H	0.818651	0.448465	1.078993
H388	H	0.550247	-0.401977	0.466412
H389	H	0.883581	-0.068643	0.799745
H390	H	1.216914	0.264690	1.133078
O391	O	0.079467	-0.615421	0.536505
O392	O	0.412800	-0.282088	0.869838
O393	O	0.746134	0.051246	1.203171
H394	H	0.053893	-0.632021	0.546586
H395	H	0.387226	-0.298688	0.879920
H396	H	0.720560	0.034646	1.213253
O397	O	0.020840	-0.363506	0.343022
O398	O	0.354173	-0.030173	0.676355
O399	O	0.687506	0.303161	1.009689
H400	H	-0.009357	-0.356824	0.334422
H401	H	0.323977	-0.023491	0.667755
H402	H	0.657310	0.309843	1.001088
O403	O	0.176020	-0.518532	0.342858
O404	O	0.509353	-0.185199	0.676192
O405	O	0.842686	0.148135	1.009525
H406	H	0.182723	-0.548716	0.334225
H407	H	0.516057	-0.215382	0.667558
H408	H	0.849390	0.117951	1.000891
O409	O	0.147560	-0.615353	0.939545
O410	O	0.480893	-0.282019	1.272879
O411	O	0.814226	0.051314	1.606212
H412	H	0.178993	-0.610472	0.907427
H413	H	0.512327	-0.277138	1.240760
H414	H	0.845660	0.056195	1.574093
O415	O	0.039327	-0.374279	0.720354
O416	O	0.372661	-0.040946	1.053688
O417	O	0.705994	0.292387	1.387021
H418	H	0.019664	-0.351666	0.694798
H419	H	0.352997	-0.018332	1.028132
H420	H	0.686331	0.315001	1.361465
O421	O	-0.064689	-0.478386	0.158836
O422	O	0.268644	-0.145052	0.492170
O423	O	0.601978	0.188281	0.825503
H424	H	-0.048349	-0.472325	0.120186
H425	H	0.284984	-0.138992	0.453519
H426	H	0.618318	0.194341	0.786853
O427	O	-0.075716	-0.460396	0.536673
O428	O	0.257618	-0.127062	0.870006
O429	O	0.590951	0.206271	1.203340
H430	H	-0.098923	-0.423753	0.523230
H431	H	0.234410	-0.090420	0.856563
H432	H	0.567744	0.242913	1.189896
O433	O	-0.075693	0.010570	0.536730
O434	O	0.257640	0.343904	0.870064
O435	O	0.590973	0.677237	1.203397
H436	H	-0.082417	-0.021549	0.545426
H437	H	0.250916	0.311784	0.878759
H438	H	0.584249	0.645117	1.212093
H439	H	0.022945	0.010574	0.352477
H440	H	0.356278	0.343907	0.685810
H441	H	0.689612	0.677240	1.019143
H442	H	0.550303	-0.576522	0.412207
H443	H	0.883636	-0.243189	0.745540
H444	H	1.216970	0.090145	1.078874
O445	O	0.079623	0.010615	0.536231
O446	O	0.412957	0.343948	0.869564
O447	O	0.746290	0.677281	1.202898
H448	H	0.116280	0.010622	0.522661
H449	H	0.449614	0.343955	0.855994
H450	H	0.782947	0.677288	1.189328
H451	H	-0.036687	-0.516580	0.939532
H452	H	0.296646	-0.183247	1.272866
H453	H	0.629980	0.150086	1.606199
O454	O	-0.046477	-0.363643	0.939629
O455	O	0.286856	-0.030310	1.272963
O456	O	0.620190	0.303024	1.606296
H457	H	-0.033085	-0.340408	0.939640
H458	H	0.300248	-0.007075	1.272973
H459	H	0.633582	0.326259	1.606307
H460	H	0.229113	-0.420876	0.623698
H461	H	0.562447	-0.087543	0.957031
H462	H	0.895780	0.245790	1.290364
O463	O	0.207728	-0.458464	0.720221
O464	O	0.541061	-0.125131	1.053554
O465	O	0.874395	0.208202	1.386887
H466	H	0.244397	-0.464019	0.694619
H467	H	0.577730	-0.130685	1.027953
H468	H	0.911063	0.202648	1.361286
O469	O	0.073574	-0.339900	0.589219
O470	O	0.406908	-0.006567	0.922552
O471	O	0.740241	0.326767	1.255886
H472	H	0.036887	-0.334355	0.594795
H473	H	0.370220	-0.001022	0.928129
H474	H	0.703553	0.332312	1.261462
O475	O	0.550085	-0.392213	0.313500
O476	O	0.883419	-0.058880	0.646833
O477	O	1.216752	0.274453	0.980167
H478	H	0.517959	-0.383554	0.306804
H479	H	0.851292	-0.050221	0.640138
H480	H	1.184625	0.283112	0.973471
O481	O	0.039181	-0.374267	0.554878
O482	O	0.372514	-0.040934	0.888211
O483	O	0.705848	0.292400	1.221544
H484	H	0.019557	-0.351676	0.577498
H485	H	0.352890	-0.018342	0.910832
H486	H	0.686224	0.314991	1.244165
H487	H	0.198991	-0.450848	0.478149
H488	H	0.532324	-0.117514	0.811482
H489	H	0.865657	0.215819	1.144815
H490	H	0.229008	-0.420842	0.508101
H491	H	0.562341	-0.087509	0.841434
H492	H	0.895675	0.245824	1.174768
H493	H	0.324452	-0.486894	0.542541
H494	H	0.657785	-0.153560	0.875875
H495	H	0.991118	0.179773	1.209208
O496	O	0.227927	-0.465341	0.578822
O497	O	0.561260	-0.132008	0.912156
O498	O	0.894593	0.201325	1.245489
H499	H	0.237480	-0.491870	0.611004
H500	H	0.570814	-0.158537	0.944337
H501	H	0.904147	0.174797	1.277670
O502	O	0.330952	-0.332878	0.480795
O503	O	0.664285	0.000456	0.814128
O504	O	0.997618	0.333789	1.147462
H505	H	0.305366	-0.296455	0.478691
H506	H	0.638700	0.036879	0.812024
H507	H	0.972033	0.370212	1.145358
O508	O	0.227864	-0.298534	0.515221
O509	O	0.561197	0.034799	0.848554
O510	O	0.894530	0.368132	1.181888
H511	H	0.253430	-0.279155	0.496044
H512	H	0.586764	0.054178	0.829378
H513	H	0.920097	0.387512	1.162711
H514	H	0.192214	-0.305222	0.471410
H515	H	0.525547	0.028112	0.804744
H516	H	0.858880	0.361445	1.138077
H517	H	0.118851	-0.305270	0.618371
H518	H	0.452185	0.028063	0.951704
H519	H	0.785518	0.361397	1.285038
O520	O	0.081288	-0.208731	0.596928
O521	O	0.414621	0.124602	0.930262
O522	O	0.747954	0.457935	1.263595
H523	H	0.075770	-0.234317	0.633608
H524	H	0.409104	0.099017	0.966941
H525	H	0.742437	0.432350	1.300274
H526	H	0.011877	-0.638258	0.165483
H527	H	0.345210	-0.304925	0.498816
H528	H	0.678543	0.028409	0.832150
O529	O	-0.099191	-0.512688	0.261918
O530	O	0.234142	-0.179355	0.595252
O531	O	0.567476	0.153978	0.928585
H532	H	-0.131914	-0.490067	0.252333
H533	H	0.201419	-0.156734	0.585666
H534	H	0.534753	0.176599	0.919000
O535	O	-0.015082	-0.681084	0.262021
O536	O	0.318251	-0.347751	0.595354
O537	O	0.651584	-0.014417	0.928688
H538	H	0.007543	-0.700738	0.236460
H539	H	0.340877	-0.367405	0.569793
H540	H	0.674210	-0.034071	0.903127
H541	H	-0.091707	-0.521211	0.297556
H542	H	0.241626	-0.187878	0.630890
H543	H	0.574960	0.145456	0.964223
O544	O	-0.064844	-0.478379	0.324407
O545	O	0.268489	-0.145046	0.657741
O546	O	0.601822	0.188288	0.991074
H547	H	-0.087367	-0.458725	0.301712
H548	H	0.245966	-0.125391	0.635046
H549	H	0.579300	0.207942	0.968379
H550	H	0.011532	-0.638242	0.401256
H551	H	0.344865	-0.304908	0.734589
H552	H	0.678199	0.028425	1.067923
H553	H	-0.018411	-0.668189	0.371171
H554	H	0.314922	-0.334855	0.704504
H555	H	0.648255	-0.001522	1.037838
H556	H	0.047655	-0.763617	0.336709
H557	H	0.380988	-0.430283	0.670042
H558	H	0.714322	-0.096950	1.003375
O559	O	0.026151	-0.667091	0.300468
O560	O	0.359484	-0.333757	0.633802
O561	O	0.692817	-0.000424	0.967135
H562	H	0.052708	-0.676638	0.268293
H563	H	0.386041	-0.343305	0.601627
H564	H	0.719375	-0.009971	0.934960
O565	O	-0.106360	-0.770014	0.398215
O566	O	0.226974	-0.436681	0.731549
O567	O	0.560307	-0.103348	1.064882
H568	H	-0.142768	-0.744409	0.400281
H569	H	0.190565	-0.411076	0.733615
H570	H	0.523898	-0.077743	1.066948
H571	H	-0.127865	-0.673490	0.361973
H572	H	0.205468	-0.340157	0.695306
H573	H	0.538802	-0.006824	1.028639
H574	H	-0.134026	-0.631339	0.407719
H575	H	0.199308	-0.298006	0.741052
H576	H	0.532641	0.035327	1.074385
H577	H	-0.223999	-0.601245	0.437568
H578	H	0.109334	-0.267911	0.770901
H579	H	0.442668	0.065422	1.104235
H580	H	-0.223768	-0.527810	0.290539
H581	H	0.109565	-0.194477	0.623872
H582	H	0.442899	0.138857	0.957206
H583	H	-0.133793	-0.557888	0.260690
H584	H	0.199541	-0.224554	0.594023
H585	H	0.532874	0.108779	0.927357
