data_functionalizedCrystal
_audit_creation_method	'MofGen! by Chris Wilmer'
_symmetry_space_group_name_H-M	'P1'
_symmetry_Int_Tables_number	1
_symmetry_cell_setting	triclinic
loop_
_symmetry_equiv_pos_as_xyz
  x,y,z
_cell_length_a	18.101395
_cell_length_b	12.827893
_cell_length_c	12.827885
_cell_angle_alpha	89.978811
_cell_angle_beta	90.032375
_cell_angle_gamma	89.970686
loop_
_atom_site_label
_atom_site_type_symbol
_atom_site_fract_x
_atom_site_fract_y
_atom_site_fract_z
Zn1	Zn	-0.294829	-1.597556	0.590883
Zn2	Zn	-0.418688	-1.597402	0.416136
Zn3	Zn	-0.294861	-1.422797	0.416151
Zn4	Zn	-0.418629	-1.422734	0.590830
O5	O	-0.356752	-1.510122	0.503500
O6	O	-0.311270	-1.743771	0.567719
O7	O	-0.402301	-1.574202	0.269902
O8	O	-0.191224	-1.446070	0.439358
O9	O	-0.402269	-1.743658	0.439332
O10	O	-0.191200	-1.574464	0.567733
O11	O	-0.311325	-1.445920	0.269913
O12	O	-0.311268	-1.276553	0.439307
O13	O	-0.402169	-1.445963	0.737073
O14	O	-0.402200	-1.276507	0.567642
O15	O	-0.311213	-1.574403	0.737112
O16	O	-0.522313	-1.574141	0.439280
O17	O	-0.522270	-1.445814	0.567627
C18	C	-0.356732	-1.238612	0.503471
C19	C	-0.356741	-1.122459	0.503483
C20	C	-0.311791	-1.070730	0.567110
C21	C	-0.311799	-0.950680	0.567125
C22	C	-0.549163	-1.509982	0.503469
C23	C	-0.631477	-1.510018	0.503491
C24	C	-0.930568	-1.510247	0.503547
C25	C	-0.899246	-1.429695	0.584500
C26	C	-0.813628	-1.429312	0.584247
C27	C	-0.782185	-1.510134	0.503520
C28	C	-0.813343	-1.480314	0.393385
C29	C	-0.898988	-1.479795	0.393869
C30	C	-0.898912	-1.620796	0.531760
C31	C	-0.813261	-1.620146	0.534176
C32	C	-0.698326	-1.510071	0.503498
C33	C	-1.014427	-1.510307	0.503562
C34	C	-0.163590	-1.510291	0.503554
C35	C	-0.081276	-1.510363	0.503577
C36	C	-0.356681	-1.510193	0.776070
C37	C	-0.356651	-1.510224	0.892223
C38	C	-0.356767	-0.782692	0.503521
C39	C	-0.356758	-0.898845	0.503509
C40	C	-0.356769	-1.510111	0.231990
C41	C	-0.356591	-1.510284	0.115837
C42	C	-0.311634	-1.573787	0.944028
C43	C	-0.311602	-1.573820	1.064078
H44	H	-0.792559	-1.447969	0.665911
C45	C	-0.408750	-0.958934	0.429910
N46	N	-0.447910	-1.004200	0.374474
C47	C	-0.927004	-1.454641	0.695184
N48	N	-0.947919	-1.473430	0.778554
C49	C	-0.408661	-1.436759	1.055662
N50	N	-0.447879	-1.381379	1.010330
C51	C	-0.784343	-1.705517	0.460324
N52	N	-0.762564	-1.769816	0.404689
H53	H	-0.793204	-1.347370	0.565559
C54	C	-0.928397	-1.319664	0.559564
N55	N	-0.950352	-1.236789	0.540776
H56	H	-0.273318	-0.906194	0.621601
C57	C	-0.926066	-1.370621	0.361590
N58	N	-0.946458	-1.288387	0.337280
C59	C	-0.926985	-1.555605	0.309597
N60	N	-0.948069	-1.612699	0.246119
H61	H	-0.273115	-1.628178	0.899502
H62	H	-0.919167	-1.680811	0.472799
C63	C	-0.785826	-1.557074	0.309674
N64	N	-0.765097	-1.614890	0.246623
H65	H	-0.395230	-1.077869	0.449019
H66	H	-0.791958	-1.400359	0.369057
H67	H	-0.920456	-1.647982	0.610702
C68	C	-0.785714	-1.650552	0.643654
N69	N	-0.764951	-1.673458	0.726106
C70	C	-0.259531	-1.647337	1.124260
N71	N	-0.220309	-1.702711	1.169593
H72	H	-0.395162	-1.455822	0.936749
H73	H	-0.273298	-1.115320	0.621569
