data_functionalizedCrystal
_audit_creation_method	'MofGen! by Chris Wilmer'
_symmetry_space_group_name_H-M	'P1'
_symmetry_Int_Tables_number	1
_symmetry_cell_setting	triclinic
loop_
_symmetry_equiv_pos_as_xyz
  x,y,z
_cell_length_a	19.851628
_cell_length_b	17.917603
_cell_length_c	17.917603
_cell_angle_alpha	60.138055
_cell_angle_beta	90.000013
_cell_angle_gamma	63.036019
loop_
_atom_site_label
_atom_site_type_symbol
_atom_site_fract_x
_atom_site_fract_y
_atom_site_fract_z
Zr1	Zr	0.687349	0.806922	-0.129124
O2	O	0.590695	0.951945	-0.249651
O3	O	0.712359	0.654696	-0.087475
O4	O	0.724562	0.796549	-0.242885
O5	O	0.574120	0.820785	0.023001
O6	O	0.835413	0.796560	-0.242895
O7	O	0.578492	0.810092	-0.094241
O8	O	0.813584	0.542810	0.035105
O9	O	0.595950	1.074535	-0.254999
O10	O	0.811333	0.719984	-0.075400
O11	O	0.725343	0.727956	0.012105
O12	O	0.739711	0.894970	-0.170870
O13	O	0.653722	0.902942	-0.083366
Zr14	Zr	0.857170	0.823992	0.057847
Zr15	Zr	0.864143	0.806938	-0.129141
Zr16	Zr	0.680376	0.823976	0.057864
Zr17	Zr	0.695729	1.002438	-0.137653
Zr18	Zr	0.848790	0.628476	0.066376
O19	O	0.832160	0.976218	0.016198
O20	O	0.842074	0.951969	-0.249674
O21	O	0.580781	0.976194	0.016221
O22	O	0.953824	0.678969	0.178374
O23	O	0.963738	0.654720	-0.087498
O24	O	0.702445	0.678945	0.178397
O25	O	0.970399	0.810129	-0.094278
O26	O	0.819957	0.834365	0.171608
O27	O	0.709106	0.834354	0.171618
O28	O	0.966027	0.820822	0.022964
O29	O	0.736478	1.074548	-0.255012
O30	O	0.808041	0.556366	0.183735
O31	O	0.948570	0.556379	0.183722
O32	O	0.954112	0.542823	0.035091
O33	O	0.590407	1.088091	-0.106368
O34	O	0.730935	1.088104	-0.106382
O35	O	0.804808	0.735944	0.099593
O36	O	0.890797	0.727972	0.012089
O37	O	0.819176	0.902958	-0.083382
O38	O	0.733186	0.910930	0.004123
C39	C	0.761777	0.570896	-0.024970
C40	C	0.758220	0.487895	-0.021349
C41	C	0.551116	0.815436	-0.035618
C42	C	0.476062	0.815429	-0.035611
C43	C	0.751720	0.335927	-0.014737
C44	C	0.792797	0.294982	-0.056538
C45	C	0.789180	0.210422	-0.052859
C46	C	0.755336	0.420495	-0.018415
C47	C	0.288854	0.720040	0.016421
C48	C	0.316438	0.762388	-0.068015
C49	C	0.205883	0.815467	-0.035650
C50	C	0.312058	0.773068	0.048795
C51	C	0.338633	0.815443	-0.035627
C52	C	0.232479	0.857811	-0.120134
C53	C	0.228099	0.868483	-0.003264
C54	C	0.255634	0.910899	-0.087752
C55	C	0.129410	0.815478	-0.035662
C56	C	0.415102	0.815440	-0.035623
C57	C	0.993403	0.815478	-0.035659
C58	C	1.068457	0.815485	-0.035666
C59	C	0.780981	0.794125	-0.269532
C60	C	0.783942	0.786885	-0.348913
C61	C	0.782742	1.060018	-0.046307
C62	C	0.786299	1.143019	-0.049928
C63	C	0.789366	0.773660	-0.494268
C64	C	0.755155	0.857250	-0.577011
C65	C	0.758173	0.849891	-0.657892
C66	C	0.786348	0.781016	-0.413378
C67	C	0.763538	0.836789	0.198255
C68	C	0.760577	0.844029	0.277636
C69	C	0.982921	0.570917	-0.024991
C70	C	1.054417	0.487922	-0.021377
C71	C	0.753056	0.592229	0.208923
C72	C	0.746538	0.516467	0.291925
C73	C	0.974199	0.592249	0.208902
C74	C	1.042735	0.516495	0.291897
C75	C	0.570320	1.038665	-0.280179
C76	C	0.501784	1.114419	-0.363174
C77	C	0.561598	1.059997	-0.046286
C78	C	0.490102	1.142992	-0.049900
C79	C	0.791463	1.038685	-0.280200
C80	C	0.797981	1.114447	-0.363202
C81	C	1.046513	0.444777	-0.065356
C82	C	1.113686	0.366804	-0.061978
C83	C	1.188762	0.331973	-0.014616
C84	C	1.196664	0.375126	0.029364
C85	C	1.129492	0.453103	0.025981
C86	C	0.784956	0.485059	0.376580
C87	C	0.778829	0.413884	0.454575
C88	C	0.734288	0.374114	0.447915
C89	C	0.695865	0.405529	0.363251
C90	C	0.701988	0.476707	0.285257
C91	C	1.119813	0.476758	0.285196
C92	C	1.184218	0.405589	0.363171
C93	C	1.171542	0.374152	0.447847
C94	C	1.094456	0.413896	0.454546
C95	C	1.030053	0.485070	0.376571
C96	C	0.424706	1.154166	-0.356474
C97	C	0.360302	1.225359	-0.434450
C98	C	0.372978	1.256800	-0.519125
C99	C	0.450065	1.217051	-0.525824
C100	C	0.514467	1.145864	-0.447849
C101	C	0.498006	1.186145	-0.005929
C102	C	0.430835	1.264137	-0.009328
C103	C	0.355760	1.298971	-0.056694
C104	C	0.347857	1.255814	-0.100670
C105	C	0.415028	1.177828	-0.097276
C106	C	0.842529	1.154195	-0.356512
C107	C	0.848668	1.225372	-0.434494
C108	C	0.810255	1.256804	-0.519164
C109	C	0.765706	1.217048	-0.525852
C110	C	0.759571	1.145868	-0.447871
H111	H	0.830679	0.323435	-0.095088
F112	F	0.304428	1.332564	-0.602107
F113	F	1.240094	0.298401	0.530827
F114	F	0.648464	0.363192	0.356176
H115	H	0.723598	0.934340	-0.587106
H116	H	0.414369	1.128570	-0.287534
H117	H	0.815256	1.314765	-0.582654
H118	H	1.084146	0.388290	0.523499
H119	H	0.967294	0.517414	0.382040
H120	H	0.713840	0.307478	0.023809
F121	F	0.830604	0.672904	-0.481074
F122	F	0.727779	0.298358	0.530932
F123	F	0.577901	1.149089	0.044484
H124	H	0.286722	1.284188	-0.139234
H125	H	0.408581	1.142695	-0.133080
F126	F	0.966619	0.481834	-0.115771
F127	F	1.105259	0.320888	-0.108787
F128	F	0.178321	0.927045	0.032561
F129	F	0.463543	1.250520	-0.615949
F130	F	0.306236	0.614597	0.073869
F131	F	1.260245	0.248981	-0.011022
H132	H	1.257799	0.346755	0.067925
F133	F	0.596498	1.103564	-0.454994
H134	H	0.810122	0.388315	0.523504
F135	F	1.137916	0.499009	0.072798
H136	H	0.437285	1.299263	0.026486
F137	F	0.883418	1.120756	-0.266407
H138	H	0.821226	0.517433	0.382020
H139	H	0.670705	0.502270	0.216331
H140	H	0.301072	1.362473	-0.059450
F141	F	1.133322	0.510206	0.195086
H142	H	1.246980	0.373235	0.357701
F143	F	0.366212	0.703784	-0.103815
F144	F	0.896080	1.267675	-0.427358
F145	F	0.724822	1.250517	-0.615973
F146	F	0.187667	0.904593	-0.213505
F147	F	0.238049	1.016423	-0.145368
H148	H	0.723293	1.113512	-0.453331
H149	H	0.346447	0.737225	0.120200
H150	H	0.297541	1.257711	-0.428978
