data_functionalizedCrystal
_audit_creation_method	'MofGen! by Chris Wilmer'
_symmetry_space_group_name_H-M	'P1'
_symmetry_Int_Tables_number	1
_symmetry_cell_setting	triclinic
loop_
_symmetry_equiv_pos_as_xyz
  x,y,z
_cell_length_a	17.699077
_cell_length_b	23.532407
_cell_length_c	16.176319
_cell_angle_alpha	89.984703
_cell_angle_beta	89.993140
_cell_angle_gamma	83.064661
loop_
_atom_site_label
_atom_site_type_symbol
_atom_site_fract_x
_atom_site_fract_y
_atom_site_fract_z
O1	O	1.003716	0.072004	-0.068751
O2	O	1.503716	0.572004	0.431249
O3	O	0.783290	0.081377	-0.068757
O4	O	1.283290	0.581377	0.431243
O5	O	0.900150	-0.006222	-0.068731
O6	O	1.400150	0.493778	0.431269
O7	O	0.886856	0.159603	-0.068777
O8	O	1.386856	0.659603	0.431223
O9	O	0.900134	-0.006228	0.068762
O10	O	1.400134	0.493772	0.568762
O11	O	0.783274	0.081372	0.068736
O12	O	1.283274	0.581372	0.568736
O13	O	1.003700	0.071998	0.068742
O14	O	1.503700	0.571998	0.568742
Cu15	Cu	0.893486	0.076684	0.081293
Cu16	Cu	1.393486	0.576684	0.581293
Cu17	Cu	0.893504	0.076691	-0.081308
Cu18	Cu	1.393504	0.576691	0.418692
O19	O	0.886840	0.159598	0.068716
O20	O	1.386840	0.659598	0.568716
C21	C	0.755086	0.081039	-0.000011
C22	C	1.255086	0.581039	0.499989
C23	C	0.671073	0.080033	-0.000012
C24	C	1.171073	0.580033	0.499988
C25	C	0.631600	0.079556	0.074936
C26	C	1.131600	0.579556	0.574936
C27	C	0.552662	0.078602	0.074938
C28	C	1.052662	0.578602	0.574938
C29	C	0.513198	0.078129	-0.000011
C30	C	1.013198	0.578129	0.499989
C31	C	0.552678	0.078604	-0.074965
C32	C	1.052678	0.578604	0.425035
C33	C	0.631615	0.079554	-0.074965
C34	C	1.131615	0.579554	0.425035
C35	C	0.234334	0.074772	-0.074966
C36	C	0.734334	0.574772	0.425034
C37	C	0.155391	0.073823	-0.074960
C38	C	0.655391	0.573823	0.425040
C39	C	0.155381	0.073819	0.074937
C40	C	0.655381	0.573819	0.574937
C41	C	0.234318	0.074770	0.074937
C42	C	0.734318	0.574770	0.574937
C43	C	0.273791	0.075242	-0.000017
C44	C	0.773791	0.575242	0.499983
C45	C	0.359385	0.076275	-0.000017
C46	C	0.859385	0.576275	0.499983
C47	C	0.427606	0.077099	-0.000011
C48	C	0.927606	0.577099	0.499989
C49	C	0.899803	-0.027442	0.000020
C50	C	1.399803	0.472558	0.500020
C51	C	0.898786	-0.090662	0.000033
C52	C	1.398786	0.409338	0.500033
C53	C	0.825433	-0.357039	-0.000021
C54	C	1.325433	0.142961	0.499979
C55	C	0.826378	-0.297636	-0.000015
C56	C	1.326378	0.202364	0.499985
O57	O	0.768188	-0.261058	-0.000042
O58	O	1.268188	0.238942	0.499958
N59	N	0.895852	-0.274811	-0.000003
N60	N	1.395852	0.225189	0.499997
C61	C	0.964384	-0.311393	-0.000007
C62	C	1.464384	0.188607	0.499993
O63	O	1.023563	-0.286524	0.000003
O64	O	1.523563	0.213476	0.500003
C65	C	0.963438	-0.370795	-0.000019
C66	C	1.463438	0.129205	0.499981
C67	C	0.893960	-0.393616	-0.000022
C68	C	1.393960	0.106384	0.499978
C69	C	0.755961	-0.379861	-0.000025
C70	C	1.255961	0.120139	0.499975
C71	C	0.755015	-0.439260	-0.000030
C72	C	1.255015	0.060740	0.499970
C73	C	0.823543	-0.475837	-0.000031
C74	C	1.323543	0.024163	0.499969
C75	C	0.893015	-0.453015	-0.000027
C76	C	1.393015	0.046985	0.499973
C77	C	1.031969	-0.407375	-0.000028
C78	C	1.531969	0.092625	0.499972
C79	C	1.031017	-0.466781	-0.000041
C80	C	1.531017	0.033219	0.499959
C81	C	0.961539	-0.489602	-0.000044
C82	C	1.461539	0.010398	0.499956
C83	C	0.960597	-0.548991	-0.000032
C84	C	1.460597	-0.048991	0.499968
N85	N	0.891123	-0.571815	-0.000044
N86	N	1.391123	-0.071815	0.499956
C87	C	0.822596	-0.535238	-0.000043
C88	C	1.322596	-0.035238	0.499957
C89	C	0.966366	-0.186645	0.000018
C90	C	1.466366	0.313355	0.500018
C91	C	0.967313	-0.127244	0.000036
C92	C	1.467313	0.372756	0.500036
C93	C	0.829307	-0.113491	0.000026
C94	C	1.329307	0.386509	0.500026
C95	C	0.828361	-0.172893	0.000014
C96	C	1.328361	0.327107	0.500014
C97	C	0.896893	-0.209470	0.000006
C98	C	1.396893	0.290530	0.500006
C99	C	0.820617	-0.659981	-0.000052
C100	C	1.320617	-0.159981	0.499948
C101	C	0.819677	-0.719386	-0.000054
C102	C	1.319677	-0.219386	0.499946
C103	C	0.957683	-0.733133	-0.000049
C104	C	1.457683	-0.233133	0.499951
C105	C	0.958623	-0.673734	-0.000043
C106	C	1.458623	-0.173734	0.499957
C107	C	0.890083	-0.637158	-0.000048
C108	C	1.390083	-0.137158	0.499952
O109	O	1.018756	-0.585604	-0.000008
O110	O	1.518756	-0.085604	0.499992
O111	O	0.763427	-0.560115	-0.000063
O112	O	1.263427	-0.060115	0.499937
C113	C	1.031904	0.072336	-0.000006
C114	C	1.531904	0.572336	0.499994
C115	C	1.115917	0.073342	-0.000010
C116	C	1.615917	0.573342	0.499990
C117	C	0.887187	0.180817	-0.000037
C118	C	1.387187	0.680817	0.499963
C119	C	0.888205	0.244037	-0.000055
C120	C	1.388205	0.744037	0.499945
N121	N	0.893478	0.076679	0.195659
N122	N	1.393478	0.576679	0.695659
N123	N	0.893518	0.076691	-0.195674
N124	N	1.393518	0.576691	0.304326
C125	C	0.945239	0.037906	0.238934
C126	C	1.445239	0.537906	0.738934
C127	C	0.945243	0.037906	0.325482
C128	C	1.445243	0.537906	0.825482
C129	C	0.893489	0.076681	0.368751
C130	C	1.393489	0.576681	0.868751
C131	C	0.841722	0.115456	0.325469
C132	C	1.341722	0.615456	0.825469
C133	C	0.841715	0.115454	0.238924
C134	C	1.341715	0.615454	0.738924
C135	C	0.841748	0.115467	0.674497
C136	C	1.341748	0.615467	1.174497
C137	C	0.841760	0.115468	0.761049
C138	C	1.341760	0.615468	1.261049
C139	C	0.945275	0.037919	0.761055
C140	C	1.445275	0.537919	1.261055
C141	C	0.945269	0.037916	0.674510
C142	C	1.445269	0.537916	1.174510
C143	C	0.893500	0.076689	0.631235
C144	C	1.393500	0.576689	1.131235
C145	C	0.893495	0.076689	0.537391
C146	C	1.393495	0.576689	1.037391
C147	C	0.893496	0.076685	0.462594
C148	C	1.393496	0.576685	0.962594
H149	H	0.266445	0.075158	0.135968
H150	H	0.766445	0.575158	0.635968
H151	H	0.123233	0.073432	0.135968
H152	H	0.623233	0.573432	0.635968
N153	N	0.512356	0.078125	0.151507
N154	N	1.012356	0.578125	0.651507
N155	N	0.513892	0.118363	0.201671
N156	N	1.013892	0.618363	0.701671
H157	H	0.485430	0.118027	0.255754
H158	H	0.985430	0.618027	0.755754
H159	H	0.520541	0.078215	-0.135989
H160	H	1.020541	0.578215	0.364011
N161	N	1.101030	-0.504134	-0.000054
N162	N	1.601030	-0.004134	0.499946
N163	N	1.163053	-0.483745	-0.000052
N164	N	1.663053	0.016255	0.499948
H165	H	1.212500	-0.510124	-0.000060
H166	H	1.712500	-0.010124	0.499940
N167	N	0.671905	0.080029	0.151498
N168	N	1.171905	0.580029	0.651498
N169	N	0.723230	0.040429	0.168238
N170	N	1.223230	0.540429	0.668238
H171	H	0.751693	0.040761	0.222313
H172	H	1.251693	0.540761	0.722313
N173	N	0.788887	0.155083	0.805237
N174	N	1.288887	0.655083	1.305237
N175	N	0.742668	0.189698	0.766590
N176	N	1.242668	0.689698	1.266590
H177	H	0.705328	0.217675	0.797797
H178	H	1.205328	0.717675	1.297797
H179	H	0.763098	-0.737963	-0.000053
H180	H	1.263098	-0.237963	0.499947
H181	H	1.013476	-0.762925	-0.000045
H182	H	1.513476	-0.262925	0.499955
N183	N	0.115091	0.073341	-0.151529
N184	N	0.615091	0.573341	0.348471
N185	N	0.150342	0.073763	-0.218446
N186	N	0.650342	0.573763	0.281554
H187	H	0.121880	0.073423	-0.272521
H188	H	0.621880	0.573423	0.227479
H189	H	1.015197	-0.655152	-0.000029
H190	H	1.515197	-0.155152	0.499971
H191	H	0.266464	0.075154	-0.135998
H192	H	0.766464	0.575154	0.364002
N193	N	0.788843	0.155062	0.369655
N194	N	1.288843	0.655062	0.869655
N195	N	0.718895	0.154344	0.360004
N196	N	1.218895	0.654344	0.860004
H197	H	0.681547	0.182317	0.391209
H198	H	1.181547	0.682317	0.891209
N199	N	0.750599	-0.622634	-0.000064
N200	N	1.250599	-0.122634	0.499936
N201	N	0.688581	-0.643028	-0.000070
N202	N	1.188581	-0.143028	0.499930
H203	H	0.639130	-0.616653	-0.000076
H204	H	1.139130	-0.116653	0.499924
H205	H	0.663753	0.079944	-0.135996
H206	H	1.163753	0.579944	0.364004
N207	N	0.998071	-0.001737	0.194752
N208	N	1.498071	0.498263	0.694752
N209	N	1.044251	-0.036376	0.233406
N210	N	1.544251	0.463624	0.733406
H211	H	1.081547	-0.064390	0.202205
H212	H	1.581547	0.435610	0.702205
N213	N	0.684038	-0.462557	-0.000038
N214	N	1.184038	0.037443	0.499962
N215	N	0.622864	-0.429883	-0.000042
N216	N	1.122864	0.070117	0.499958
H217	H	0.572732	-0.446332	-0.000052
H218	H	1.072732	0.053668	0.499948
H219	H	0.799597	0.147038	0.639270
H220	H	1.299597	0.647038	1.139270
H221	H	0.987390	0.006333	0.360716
H222	H	1.487390	0.506333	0.860716
N223	N	0.685948	-0.342512	-0.000029
N224	N	1.185948	0.157488	0.499971
N225	N	0.623931	-0.362908	-0.000036
N226	N	1.123931	0.137092	0.499964
H227	H	0.574479	-0.336534	-0.000034
H228	H	1.074479	0.163466	0.499966
N229	N	0.998149	-0.001688	0.630325
N230	N	1.498149	0.498312	1.130325
N231	N	1.044365	-0.036303	0.668975
N232	N	1.544365	0.463697	1.168975
H233	H	1.081715	-0.064275	0.637771
H234	H	1.581715	0.435725	1.137771
N235	N	0.788834	0.155061	0.194728
N236	N	1.288834	0.655061	0.694728
N237	N	0.742628	0.189680	0.233369
N238	N	1.242628	0.689680	0.733369
H239	H	0.705276	0.217653	0.202158
H240	H	1.205276	0.717653	0.702158
N241	N	0.757392	-0.196203	0.000024
N242	N	1.257392	0.303797	0.500024
N243	N	0.711294	-0.184977	0.057984
N244	N	1.211294	0.315023	0.557984
H245	H	0.661170	-0.201438	0.057992
H246	H	1.161170	0.298562	0.557992
N247	N	0.759313	-0.076114	0.000028
N248	N	1.259313	0.423886	0.500028
N249	N	0.760176	-0.023079	0.000035
N250	N	1.260176	0.476921	0.500035
H251	H	0.710746	0.003321	0.000037
H252	H	1.210746	0.503321	0.500037
N253	N	1.038283	-0.103937	0.000067
N254	N	1.538283	0.396063	0.500067
N255	N	1.084367	-0.115193	0.058029
N256	N	1.584367	0.384807	0.558029
H257	H	1.134492	-0.098734	0.058049
H258	H	1.634492	0.401266	0.558049
N259	N	1.036382	-0.223997	0.000014
N260	N	1.536382	0.276003	0.500014
N261	N	1.098402	-0.203604	0.000024
N262	N	1.598402	0.296396	0.500024
H263	H	1.147851	-0.229981	0.000021
H264	H	1.647851	0.270019	0.500021
N265	N	0.998141	-0.001702	0.805259
N266	N	1.498141	0.498298	1.305259
N267	N	0.997501	-0.054341	0.795611
N268	N	1.497501	0.445659	1.295611
H269	H	1.034837	-0.082323	0.826828
H270	H	1.534837	0.417677	1.326828
H271	H	1.088546	-0.388805	-0.000026
H272	H	1.588546	0.111195	0.499974
