data_functionalizedCrystal
_audit_creation_method	'MofGen! by Chris Wilmer'
_symmetry_space_group_name_H-M	'P1'
_symmetry_Int_Tables_number	1
_symmetry_cell_setting	triclinic
loop_
_symmetry_equiv_pos_as_xyz
  x,y,z
_cell_length_a	18.050591
_cell_length_b	19.120786
_cell_length_c	18.050583
_cell_angle_alpha	87.525261
_cell_angle_beta	89.975765
_cell_angle_gamma	92.460873
loop_
_atom_site_label
_atom_site_type_symbol
_atom_site_fract_x
_atom_site_fract_y
_atom_site_fract_z
Zn1	Zn	1.122716	-0.279681	-0.407401
Zn2	Zn	1.117327	-0.397152	-0.277906
Zn3	Zn	0.998527	-0.279704	-0.283211
Zn4	Zn	0.993193	-0.397095	-0.402044
O5	O	1.057941	-0.338408	-0.342641
O6	O	1.225925	-0.295278	-0.390245
O7	O	1.101545	-0.381606	-0.174684
O8	O	1.019488	-0.181411	-0.304147
O9	O	1.221966	-0.381584	-0.295106
O10	O	1.110729	-0.181394	-0.395389
O11	O	1.014263	-0.295318	-0.178581
O12	O	0.893895	-0.295262	-0.298953
O13	O	1.010398	-0.381486	-0.506681
O14	O	0.889977	-0.381508	-0.386259
O15	O	1.105557	-0.295223	-0.510617
O16	O	1.096372	-0.495435	-0.289912
O17	O	1.005172	-0.495393	-0.381115
C18	C	0.864990	-0.338382	-0.342601
C19	C	0.782444	-0.338388	-0.342601
C20	C	0.585105	-0.291433	-0.295240
C21	C	0.532798	-0.355499	-0.274071
C22	C	0.631312	-0.338409	-0.342633
C23	C	0.536537	-0.274365	-0.363800
C24	C	0.485327	-0.338424	-0.342664
C25	C	0.580091	-0.402509	-0.321427
C26	C	0.583836	-0.321332	-0.411189
C27	C	0.531549	-0.385442	-0.390044
C28	C	0.715411	-0.338400	-0.342614
C29	C	0.401229	-0.338441	-0.342683
C30	C	1.049629	-0.520899	-0.334373
C31	C	1.046141	-0.598970	-0.330860
C32	C	1.091971	-0.635579	-0.376754
C33	C	1.088691	-0.708934	-0.373455
C34	C	1.039584	-0.745680	-0.324258
C35	C	0.993748	-0.709066	-0.278363
C36	C	0.997025	-0.635712	-0.281666
C37	C	1.027311	-0.967166	-0.311910
C38	C	1.024039	-1.040525	-0.308608
C39	C	1.118981	-1.040388	-0.403701
C40	C	1.122257	-0.967032	-0.406997
C41	C	1.076419	-0.930425	-0.361105
C42	C	1.036231	-0.820661	-0.320883
C43	C	1.079768	-0.855445	-0.364484
C44	C	1.251645	-0.338435	-0.342681
C45	C	1.334190	-0.338446	-0.342699
C46	C	1.057984	-0.338345	-0.536349
C47	C	1.058002	-0.338319	-0.618896
C48	C	1.066305	-0.155204	-0.350958
C49	C	1.069869	-0.077134	-0.354502
C50	C	1.109799	-0.291361	-0.869865
C51	C	1.125033	-0.355452	-0.817558
C52	C	1.058052	-0.338274	-0.916019
C53	C	1.042828	-0.274209	-0.821243
C54	C	1.058029	-0.338293	-0.770033
C55	C	1.073320	-0.402398	-0.864798
C56	C	0.991086	-0.321112	-0.868489
C57	C	1.006292	-0.385247	-0.816203
C58	C	1.058067	-0.338262	-1.000118
C59	C	1.058014	-0.338311	-0.685936
C60	C	1.057943	-0.338420	-0.149688
C61	C	1.058077	-0.338249	-0.067151
H62	H	0.508238	-0.425221	-0.430133
Cl63	Cl	1.177418	-0.230174	-0.906134
H64	H	1.086270	-0.456596	-0.883936
Cl65	Cl	1.176599	-1.086412	-0.461394
Cl66	Cl	1.153713	-0.589391	-0.438600
Cl67	Cl	1.212452	-0.377884	-0.783055
Cl68	Cl	0.939406	-0.589690	-0.223970
Cl69	Cl	0.498223	-0.377818	-0.184581
H70	H	0.996250	-0.850588	-0.280826
Cl71	Cl	0.609631	-0.486165	-0.293702
H72	H	1.126017	-0.738737	-0.410820
Cl73	Cl	0.938709	-0.446578	-0.780141
Cl74	Cl	0.618437	-0.298985	-0.500658
H75	H	1.029961	-0.220023	-0.802012
Cl76	Cl	0.962302	-1.086719	-0.246754
Cl77	Cl	0.506845	-0.190736	-0.391419
H78	H	0.608548	-0.251749	-0.255114
H79	H	1.162244	-0.937115	-0.447057
Cl80	Cl	0.903693	-0.298652	-0.903024
H81	H	0.953761	-0.738991	-0.238309
Cl82	Cl	0.969679	-0.921155	-0.254223
Cl83	Cl	1.141497	-0.809249	-0.426332
