data_functionalizedCrystal
_audit_creation_method	'MofGen! by Chris Wilmer'
_symmetry_space_group_name_H-M	'P1'
_symmetry_Int_Tables_number	1
_symmetry_cell_setting	triclinic
loop_
_symmetry_equiv_pos_as_xyz
  x,y,z
_cell_length_a	6.817900
_cell_length_b	17.982959
_cell_length_c	17.110486
_cell_angle_alpha	96.531630
_cell_angle_beta	99.060439
_cell_angle_gamma	102.451857
loop_
_atom_site_label
_atom_site_type_symbol
_atom_site_fract_x
_atom_site_fract_y
_atom_site_fract_z
V1	V	-3.971755	-0.105185	-0.247050
O2	O	-3.965632	0.005288	-0.242007
O3	O	-3.918535	-0.208789	-0.245687
O4	O	-3.901697	-0.103465	-0.354648
O5	O	-3.982586	-0.100766	-0.132292
V6	V	-4.458814	-0.091984	-0.233284
O7	O	-4.225257	-0.134145	-0.277246
O8	O	-4.655509	-0.063024	-0.203088
O9	O	-4.288827	0.011620	-0.234647
O10	O	-4.582334	-0.202457	-0.238327
O11	O	-4.565379	-0.096403	-0.348042
O12	O	-4.305665	-0.093704	-0.125686
C13	C	-3.763064	-0.234049	-0.241874
C14	C	-3.800692	-0.318746	-0.241477
C15	C	-3.999490	-0.362414	-0.245250
C16	C	-4.034836	-0.441996	-0.244882
C17	C	-3.871380	-0.477908	-0.240735
C18	C	-3.672566	-0.434235	-0.236965
C19	C	-3.637225	-0.354655	-0.237339
C20	C	-3.815090	-0.755172	-0.235457
C21	C	-3.850447	-0.834758	-0.235081
C22	C	-4.212701	-0.842513	-0.243001
C23	C	-4.177360	-0.762933	-0.243375
C24	C	-3.978552	-0.719267	-0.239608
C25	C	-3.940229	-0.632976	-0.240009
C26	C	-3.909698	-0.564198	-0.240329
C27	C	-3.741585	-0.099696	-0.380863
C28	C	-3.765556	-0.098975	-0.468827
C29	C	-3.957928	-0.102439	-0.514196
C30	C	-3.980439	-0.101761	-0.596847
C31	C	-3.810580	-0.097625	-0.634129
C32	C	-3.618191	-0.094158	-0.588753
C33	C	-3.595679	-0.094831	-0.506103
C34	C	-3.869488	-0.095399	-0.883477
C35	C	-3.892016	-0.094729	-0.966133
C36	C	-4.254263	-0.102330	-0.974221
C37	C	-4.231736	-0.103007	-0.891569
C38	C	-4.039349	-0.099536	-0.846201
C39	C	-3.833587	-0.096934	-0.718612
C40	C	-4.016341	-0.100222	-0.761718
C41	C	-4.107641	0.036876	-0.238458
C42	C	-4.049249	0.121572	-0.238860
C43	C	-4.129120	-0.097475	-0.099467
C44	C	-4.084388	-0.098192	-0.011502
H45	H	-3.475346	-0.319102	-0.234270
H46	H	-3.695292	-0.093569	-0.748976
Br47	Br	-4.246856	-0.105832	-0.711120
H48	H	-3.712851	-0.092600	-0.846552
Br49	Br	-4.221340	-0.313683	-0.250872
Br50	Br	-4.188472	-0.108061	-0.463609
Br51	Br	-4.482519	-0.901778	-0.248112
Br52	Br	-3.628595	-0.883495	-0.229451
H53	H	-3.539481	-0.463482	-0.233593
H54	H	-4.310465	-0.733697	-0.246747
Br55	Br	-4.462275	-0.108627	-0.840979
Br56	Br	-3.661476	-0.089118	-1.016730
H57	H	-4.137084	-0.104577	-0.633782
Br58	Br	-4.304644	-0.501257	-0.250003
H59	H	-4.410898	-0.105154	-1.011169
H60	H	-3.479888	-0.090786	-0.619114
Br61	Br	-3.545282	-0.695921	-0.230341
Br62	Br	-3.334588	-0.090119	-0.444528
