data_functionalizedCrystal
_audit_creation_method	'MofGen! by Chris Wilmer'
_symmetry_space_group_name_H-M	'P1'
_symmetry_Int_Tables_number	1
_symmetry_cell_setting	triclinic
loop_
_symmetry_equiv_pos_as_xyz
  x,y,z
_cell_length_a	16.625545
_cell_length_b	21.395364
_cell_length_c	21.395356
_cell_angle_alpha	89.980845
_cell_angle_beta	89.974643
_cell_angle_gamma	90.030606
loop_
_atom_site_label
_atom_site_type_symbol
_atom_site_fract_x
_atom_site_fract_y
_atom_site_fract_z
Zn1	Zn	-0.320913	0.957876	-0.354197
Zn2	Zn	-0.455750	0.957789	-0.249424
Zn3	Zn	-0.320947	0.853092	-0.249442
Zn4	Zn	-0.455720	0.853069	-0.354172
O5	O	-0.388333	0.905457	-0.301809
O6	O	-0.338799	1.045542	-0.340302
O7	O	-0.437895	0.943875	-0.161749
O8	O	-0.208110	0.867038	-0.263356
O9	O	-0.437862	1.045479	-0.263325
O10	O	-0.208086	0.944022	-0.340319
O11	O	-0.338856	0.866954	-0.161762
O12	O	-0.338826	0.765411	-0.263332
O13	O	-0.437811	0.866998	-0.441854
O14	O	-0.437843	0.765394	-0.340277
O15	O	-0.338769	0.943999	-0.441872
O16	O	-0.568579	0.943852	-0.263301
O17	O	-0.568556	0.866915	-0.340259
C18	C	-0.388336	0.742669	-0.301804
C19	C	-0.388356	0.673028	-0.301817
C20	C	-0.597824	0.905388	-0.301789
C21	C	-0.687445	0.905417	-0.301802
C22	C	-0.760227	0.905441	-0.301814
C23	C	-0.851535	0.905477	-0.301828
C24	C	-0.924312	0.905510	-0.301836
C25	C	-1.015626	0.905546	-0.301849
C26	C	-0.388283	0.905506	-0.465232
C27	C	-0.388261	0.905527	-0.534874
C28	C	-0.178024	0.905542	-0.301843
C29	C	-0.088403	0.905578	-0.301857
C30	C	-0.388330	1.068880	-0.301814
C31	C	-0.388329	1.138521	-0.301817
C32	C	-0.336787	1.640351	-0.341898
C33	C	-0.336778	1.574916	-0.341896
C34	C	-0.388353	1.542159	-0.301819
C35	C	-0.439927	1.574844	-0.261731
C36	C	-0.439928	1.640278	-0.261729
C37	C	-0.460997	1.438459	-0.296862
C38	C	-0.460996	1.373026	-0.296868
C39	C	-0.388348	1.340339	-0.301820
C40	C	-0.315697	1.373092	-0.306779
C41	C	-0.315699	1.438526	-0.306778
C42	C	-0.388357	1.471207	-0.301816
C43	C	-0.336764	1.236710	-0.341901
C44	C	-0.336754	1.171273	-0.341894
C45	C	-0.439910	1.171202	-0.261732
C46	C	-0.439913	1.236638	-0.261736
C47	C	-0.388341	1.269387	-0.301823
C48	C	-0.336686	0.865485	-0.567584
C49	C	-0.336671	0.865483	-0.633019
C50	C	-0.388223	0.905534	-0.665742
C51	C	-0.439809	0.945578	-0.633024
C52	C	-0.439828	0.945575	-0.567590
C53	C	-0.394556	0.961986	-0.769424
C54	C	-0.394531	0.961991	-0.834857
C55	C	-0.388169	0.905544	-0.867563
C56	C	-0.381814	0.849091	-0.834828
C57	C	-0.381833	0.849088	-0.769393
C58	C	-0.388208	0.905542	-0.736695
C59	C	-0.336574	0.865497	-0.971226
C60	C	-0.336565	0.865493	-1.036662
C61	C	-0.439698	0.945594	-1.036666
C62	C	-0.439712	0.945592	-0.971230
C63	C	-0.388145	0.905544	-0.938514
C64	C	-0.388324	0.905444	-0.139022
C65	C	-0.388118	0.905544	-0.069381
H66	H	-0.294792	1.667012	-0.374540
H67	H	-0.294699	0.832873	-0.540950
H68	H	-0.294568	0.832882	-1.063294
H69	H	-0.294755	1.144669	-0.374532
H70	H	-0.481919	1.548169	-0.229100
H71	H	-0.294766	1.263376	-0.374538
H72	H	-0.376628	0.803127	-0.861455
H73	H	-0.481910	1.263243	-0.229100
H74	H	-0.481904	1.144533	-0.229101
H75	H	-0.520160	1.465068	-0.292830
H76	H	-0.294668	0.832877	-0.659657
H77	H	-0.481826	0.978184	-0.540958
H78	H	-0.520153	1.346363	-0.292833
H79	H	-0.376661	0.803122	-0.742743
H80	H	-0.294586	0.832887	-0.944587
H81	H	-0.481671	0.978206	-1.063308
H82	H	-0.481708	0.978200	-0.944597
H83	H	-0.256540	1.346479	-0.310811
H84	H	-0.399701	1.007958	-0.861505
H85	H	-0.481924	1.666883	-0.229090
H86	H	-0.399730	1.007956	-0.742801
H87	H	-0.294780	1.548305	-0.374533
H88	H	-0.256544	1.465191	-0.310813
H89	H	-0.481783	0.978188	-0.659671
