data_functionalizedCrystal
_audit_creation_method	'MofGen! by Chris Wilmer'
_symmetry_space_group_name_H-M	'P1'
_symmetry_Int_Tables_number	1
_symmetry_cell_setting	triclinic
loop_
_symmetry_equiv_pos_as_xyz
  x,y,z
_cell_length_a	19.288867
_cell_length_b	16.776229
_cell_length_c	19.288865
_cell_angle_alpha	89.991353
_cell_angle_beta	96.863342
_cell_angle_gamma	90.004265
loop_
_atom_site_label
_atom_site_type_symbol
_atom_site_fract_x
_atom_site_fract_y
_atom_site_fract_z
O1	O	0.921349	0.066269	-0.086653
O2	O	1.421349	0.566269	0.413347
O3	O	0.719088	0.066278	-0.098340
O4	O	1.219088	0.566278	0.401660
O5	O	0.826063	0.066258	0.008634
O6	O	1.326063	0.566258	0.508634
O7	O	0.814374	0.066290	-0.193627
O8	O	1.314374	0.566290	0.306373
O9	O	0.826051	-0.066319	0.008634
O10	O	1.326051	0.433681	0.508634
O11	O	0.719076	-0.066298	-0.098340
O12	O	1.219076	0.433702	0.401660
O13	O	0.921337	-0.066307	-0.086653
O14	O	1.421337	0.433693	0.413347
Zn15	Zn	0.820205	-0.087352	-0.092496
Zn16	Zn	1.320205	0.412648	0.407504
Zn17	Zn	0.820220	0.087323	-0.092496
Zn18	Zn	1.320220	0.587323	0.407504
O19	O	0.814362	-0.066287	-0.193626
O20	O	1.314362	0.433713	0.306374
C21	C	0.693206	-0.000009	-0.097964
C22	C	1.193206	0.499991	0.402036
C23	C	0.616102	-0.000006	-0.096834
C24	C	1.116102	0.499994	0.403166
C25	C	0.060544	0.072251	-0.088698
C26	C	0.560544	0.572251	0.411302
C27	C	0.132991	0.072254	-0.089755
C28	C	0.632991	0.572254	0.410245
C29	C	0.169213	-0.000013	-0.090287
C30	C	0.669213	0.499987	0.409713
C31	C	0.132984	-0.072289	-0.089743
C32	C	0.632984	0.427711	0.410257
C33	C	0.060539	-0.072290	-0.088679
C34	C	0.560539	0.427710	0.411321
C35	C	0.278535	-0.055373	-0.132654
C36	C	0.778535	0.444627	0.367346
C37	C	0.350979	-0.055369	-0.133723
C38	C	0.850979	0.444631	0.366277
C39	C	0.392659	-0.000013	-0.093566
C40	C	0.892659	0.499987	0.406434
C41	C	0.361885	0.055352	-0.052350
C42	C	0.861885	0.555352	0.447650
C43	C	0.289440	0.055351	-0.051285
C44	C	0.789440	0.555351	0.448715
C45	C	0.247768	-0.000020	-0.091440
C46	C	0.747768	0.499980	0.408560
C47	C	0.507436	0.072261	-0.095251
C48	C	1.007436	0.572261	0.404749
C49	C	0.579885	0.072262	-0.096304
C50	C	1.079885	0.572262	0.403696
C51	C	0.579876	-0.072283	-0.096299
C52	C	1.079876	0.427717	0.403701
C53	C	0.507429	-0.072281	-0.095239
C54	C	1.007429	0.427719	0.404761
C55	C	0.471213	-0.000007	-0.094718
C56	C	0.971213	0.499993	0.405282
N57	N	0.820199	-0.206563	-0.092495
N58	N	1.320199	0.293437	0.407505
C59	C	0.862190	-0.248272	-0.134518
C60	C	1.362190	0.251728	0.365482
C61	C	0.862198	-0.331724	-0.134515
C62	C	1.362198	0.168276	0.365485
C63	C	0.820210	-0.373466	-0.092493
C64	C	1.320210	0.126534	0.407507
C65	C	0.778217	-0.331752	-0.050466
C66	C	1.278217	0.168248	0.449534
C67	C	0.778214	-0.248301	-0.050466
C68	C	1.278214	0.251699	0.449534
C69	C	0.778231	-0.668299	-0.050467
C70	C	1.278231	-0.168299	0.449533
C71	C	0.778236	-0.751756	-0.050473
C72	C	1.278236	-0.251756	0.449527
C73	C	0.862215	-0.751722	-0.134517
C74	C	1.362215	-0.251722	0.365483
C75	C	0.862212	-0.668271	-0.134516
C76	C	1.362212	-0.168271	0.365484
C77	C	0.820222	-0.626564	-0.092486
C78	C	1.320222	-0.126564	0.407514
C79	C	0.820215	-0.536076	-0.092489
C80	C	1.320215	-0.036076	0.407511
C81	C	0.820213	-0.463953	-0.092494
C82	C	1.320213	0.036047	0.407506
C83	C	0.947219	-0.000018	-0.087029
C84	C	1.447219	0.499982	0.412971
C85	C	1.024323	-0.000016	-0.088159
C86	C	1.524323	0.499984	0.411841
C87	C	0.825681	-0.000033	0.034510
C88	C	1.325681	0.499967	0.534510
C89	C	0.824552	-0.000040	0.111614
C90	C	1.324552	0.499960	0.611614
N91	N	0.820232	0.206534	-0.092492
N92	N	1.320232	0.706534	0.407508
C93	C	0.814744	0.000006	-0.219503
C94	C	1.314744	0.500006	0.280497
C95	C	0.815873	0.000018	-0.296607
C96	C	1.315873	0.500018	0.203393
C97	C	0.887320	-0.000046	0.156310
C98	C	1.387320	0.499954	0.656310
C99	C	0.886259	-0.000034	0.228757
C100	C	1.386259	0.499966	0.728757
C101	C	0.822427	-0.000030	0.256505
C102	C	1.322427	0.499970	0.756505
C103	C	0.759651	-0.000019	0.211799
C104	C	1.259651	0.499981	0.711799
C105	C	0.760713	-0.000024	0.139354
C106	C	1.260713	0.499976	0.639354
C107	C	0.772243	-0.046467	0.364793
C108	C	1.272243	0.453533	0.864793
C109	C	0.771183	-0.046467	0.437237
C110	C	1.271183	0.453533	0.937237
C111	C	0.819147	-0.000012	0.479951
C112	C	1.319147	0.499988	0.979951
C113	C	0.868183	0.046432	0.450212
C114	C	1.368183	0.546432	0.950212
C115	C	0.869245	0.046428	0.377767
C116	C	1.369245	0.546428	0.877767
C117	C	0.821268	-0.000025	0.335059
C118	C	1.321268	0.499975	0.835059
C119	C	0.880769	-0.000004	0.603202
C120	C	1.380769	0.499996	1.103202
C121	C	0.879706	0.000013	0.675650
C122	C	1.379706	0.500013	1.175650
C123	C	0.753096	0.000020	0.658691
C124	C	1.253096	0.500020	1.158691
C125	C	0.754161	0.000010	0.586245
C126	C	1.254161	0.500010	1.086245
C127	C	0.818000	-0.000006	0.558505
C128	C	1.318000	0.499994	1.058505
H129	H	0.376026	-0.100433	-0.167301
H130	H	0.876026	0.399567	0.332699
H131	H	0.709598	-0.000019	0.102962
H132	H	1.209598	0.499981	0.602962
O133	O	0.732955	-0.203316	-0.005106
O134	O	1.232955	0.296684	0.494894
H135	H	0.740024	-0.138275	-0.012147
H136	H	1.240024	0.361725	0.487853
O137	O	0.953964	-0.000052	0.276973
O138	O	1.453964	0.499948	0.776973
H139	H	0.942498	-0.000045	0.332009
H140	H	1.442498	0.499955	0.832009
H141	H	0.244605	-0.100459	-0.165352
H142	H	0.744605	0.399541	0.334648
O143	O	0.949619	-0.000005	0.573274
O144	O	1.449619	0.499995	1.073274
H145	H	0.993089	0.000007	0.616529
H146	H	1.493089	0.500007	1.116529
O147	O	0.172076	0.150197	-0.090338
O148	O	0.672076	0.650197	0.409662
H149	H	0.151841	0.184851	-0.137473
H150	H	0.651841	0.684851	0.362527
O151	O	0.907499	-0.623252	-0.179841
O152	O	1.407499	-0.123252	0.320159
H153	H	0.874079	-0.585236	-0.217259
H154	H	1.374079	-0.085236	0.282741
H155	H	0.896407	-0.785690	-0.168737
H156	H	1.396407	-0.285690	0.331263
O157	O	0.021527	-0.150293	-0.088267
O158	O	0.521527	0.349707	0.411733
H159	H	-0.017750	-0.153663	-0.135174
H160	H	0.482250	0.346337	0.364826
O161	O	0.732969	-0.796783	-0.005126
O162	O	1.232969	-0.296783	0.494874
H163	H	0.703782	-0.753762	0.024112
H164	H	1.203782	-0.253762	0.524112
O165	O	0.956170	-0.000041	0.126388
O166	O	1.456170	0.499959	0.626388
H167	H	0.999639	-0.000032	0.169644
H168	H	1.499639	0.499968	0.669644
H169	H	0.477937	-0.131128	-0.094802
H170	H	0.977937	0.368872	0.405198
H171	H	0.744041	-0.634351	-0.016244
H172	H	1.244041	-0.134351	0.483756
O173	O	0.021498	0.150209	-0.088103
O174	O	0.521498	0.650209	0.411897
H175	H	0.029067	0.184887	-0.135630
H176	H	0.529067	0.684887	0.364370
O177	O	0.172045	-0.150237	-0.090323
O178	O	0.672045	0.349763	0.409677
H179	H	0.228505	-0.138097	-0.091162
H180	H	0.728505	0.361903	0.408838
H181	H	0.896377	-0.214291	-0.168741
H182	H	1.396377	0.285709	0.331259
H183	H	0.731253	-0.084281	0.461444
H184	H	1.231253	0.415719	0.961444
H185	H	0.733183	-0.084300	0.330021
H186	H	1.233183	0.415700	0.830021
O187	O	0.907485	-0.376713	-0.179841
O188	O	1.407485	0.123287	0.320159
H189	H	0.936674	-0.333667	-0.209068
H190	H	1.436674	0.166333	0.290932
H191	H	0.744034	-0.365745	-0.016248
H192	H	1.244034	0.134255	0.483752
O193	O	0.256247	0.115046	-0.006821
O194	O	0.756247	0.615046	0.493179
H195	H	0.297396	0.153535	0.020933
H196	H	0.797396	0.653535	0.520933
O197	O	0.922118	0.096529	0.345686
O198	O	1.422118	0.596529	0.845686
H199	H	0.955290	0.128842	0.387552
H200	H	1.455290	0.628842	0.887552
H201	H	0.907239	0.084260	0.484988
H202	H	1.407239	0.584260	0.984988
O203	O	0.947408	-0.000001	0.723864
O204	O	1.447408	0.499999	1.223864
H205	H	0.991974	-0.000022	0.692400
H206	H	1.491974	0.499978	1.192400
O207	O	0.684245	0.000020	0.688607
O208	O	1.184245	0.500020	1.188607
H209	H	0.694050	0.000017	0.746492
H210	H	1.194050	0.500017	1.246492
H211	H	0.703049	0.000011	0.549852
H212	H	1.203049	0.500011	1.049852
H213	H	0.707678	-0.000015	0.234396
H214	H	1.207678	0.499985	0.734396
H215	H	0.477947	0.131112	-0.094825
H216	H	0.977947	0.631112	0.405175
O217	O	0.406828	0.115060	-0.009027
O218	O	0.906828	0.615060	0.490973
H219	H	0.462375	0.105755	-0.016682
H220	H	0.962375	0.605755	0.483318
O221	O	0.618958	0.150209	-0.096886
O222	O	1.118958	0.650209	0.403114
H223	H	0.581600	0.200462	-0.096352
H224	H	1.081600	0.700462	0.403648
H225	H	0.609367	-0.131125	-0.096729
H226	H	1.109367	0.368875	0.403271
