data_functionalizedCrystal
_audit_creation_method	'MofGen! by Chris Wilmer'
_symmetry_space_group_name_H-M	'P1'
_symmetry_Int_Tables_number	1
_symmetry_cell_setting	triclinic
loop_
_symmetry_equiv_pos_as_xyz
  x,y,z
_cell_length_a	17.077404
_cell_length_b	13.032721
_cell_length_c	17.077395
_cell_angle_alpha	97.154458
_cell_angle_beta	89.982416
_cell_angle_gamma	97.203039
loop_
_atom_site_label
_atom_site_type_symbol
_atom_site_fract_x
_atom_site_fract_y
_atom_site_fract_z
Zn1	Zn	1.160336	-0.416103	-0.483569
Zn2	Zn	1.143582	-0.590865	-0.368971
Zn3	Zn	1.029074	-0.416130	-0.352315
Zn4	Zn	1.012372	-0.590801	-0.500184
O5	O	1.086341	-0.503474	-0.426260
O6	O	1.267959	-0.439301	-0.468384
O7	O	1.128371	-0.567724	-0.256918
O8	O	1.060487	-0.269887	-0.355802
O9	O	1.255650	-0.567698	-0.384190
O10	O	1.156924	-0.269868	-0.452234
O11	O	1.044242	-0.439347	-0.244681
O12	O	0.917013	-0.439284	-0.371913
O13	O	1.032022	-0.567588	-0.607823
O14	O	0.904742	-0.567614	-0.480552
O15	O	1.140730	-0.439239	-0.595616
O16	O	1.112176	-0.737095	-0.400300
O17	O	1.015777	-0.737048	-0.496702
C18	C	0.882396	-0.503446	-0.426228
C19	C	0.795145	-0.503459	-0.426236
C20	C	0.425721	-0.436767	-0.470223
C21	C	0.507702	-0.436760	-0.470214
C22	C	0.542292	-0.503497	-0.426282
C23	C	0.494896	-0.570253	-0.382362
C24	C	0.412916	-0.570265	-0.382377
C25	C	0.665769	-0.570221	-0.382334
C26	C	0.747755	-0.570208	-0.382318
C27	C	0.760555	-0.436716	-0.470171
C28	C	0.678575	-0.436728	-0.470185
C29	C	0.631185	-0.503483	-0.426265
C30	C	1.060368	-0.774990	-0.452129
C31	C	1.049328	-0.891145	-0.463222
C32	C	1.092145	-0.942919	-0.420505
C33	C	1.080735	-1.062972	-0.431970
C34	C	1.291083	-0.503504	-0.426292
C35	C	1.378331	-0.503516	-0.426305
C36	C	1.086382	-0.503403	-0.630997
C37	C	1.086399	-0.503373	-0.718244
C38	C	1.112438	-0.230899	-0.400307
C39	C	1.123558	-0.114744	-0.389247
C40	C	1.143104	-0.436400	-1.087691
C41	C	1.143084	-0.436436	-1.005713
C42	C	1.086473	-0.503274	-0.971084
C43	C	1.029882	-0.570088	-1.018437
C44	C	1.029906	-0.570056	-1.100413
C45	C	1.029836	-0.570148	-0.847572
C46	C	1.029811	-0.570179	-0.765591
C47	C	1.143014	-0.436529	-0.752873
C48	C	1.143038	-0.436497	-0.834849
C49	C	1.086446	-0.503309	-0.882196
C50	C	1.086353	-0.503470	-0.222311
C51	C	1.086516	-0.503206	-0.135037
H52	H	0.775915	-0.624554	-0.346548
H53	H	0.983827	-0.624457	-1.138962
H54	H	1.168668	-1.070196	-0.344189
N55	N	1.151894	-0.883910	-0.360824
H56	H	1.124285	-0.838687	-0.320130
H57	H	1.178886	-0.935017	-0.333950
H58	H	1.189165	-0.382039	-0.967167
N59	N	0.641266	-0.364731	-0.517551
H60	H	0.683726	-0.322437	-0.545370
H61	H	0.603192	-0.407328	-0.557890
N62	N	0.989580	-0.950156	-0.522904
H63	H	0.935282	-0.931288	-0.508868
H64	H	1.003593	-0.931135	-0.577178
N65	N	1.020989	-1.121969	-0.491664
H66	H	1.021308	-1.199367	-0.491393
H67	H	0.966723	-1.103019	-0.477595
N68	N	1.204168	-0.364305	-1.125029
H69	H	1.236487	-0.406767	-1.163089
H70	H	1.176863	-0.315866	-1.154381
H71	H	0.546284	-0.382410	-0.505979
H72	H	1.189133	-0.382067	-0.863041
H73	H	1.189092	-0.382126	-0.714319
N74	N	0.968765	-0.642283	-0.728238
H75	H	0.932925	-0.684615	-0.770671
H76	H	0.996095	-0.690650	-0.698838
H77	H	0.397565	-0.382416	-0.505992
N78	N	0.811664	-0.364704	-0.517535
H79	H	0.868847	-0.374821	-0.510862
H80	H	0.795799	-0.381057	-0.575139
H81	H	0.983755	-0.624557	-0.886121
N82	N	0.614647	-0.642215	-0.334965
H83	H	0.621778	-0.716904	-0.354172
H84	H	0.630472	-0.625791	-0.277354
N85	N	0.532197	-0.642235	-0.334975
H86	H	0.561595	-0.690714	-0.371424
H87	H	0.570217	-0.599618	-0.294595
N88	N	0.361798	-0.642262	-0.335012
H89	H	0.396149	-0.684537	-0.307178
H90	H	0.331837	-0.599666	-0.294686
N91	N	0.968821	-0.642183	-0.981096
H92	H	0.996071	-0.690630	-0.951696
H93	H	0.936517	-0.599646	-0.943077
