data_functionalizedCrystal
_audit_creation_method	'MofGen! by Chris Wilmer'
_symmetry_space_group_name_H-M	'P1'
_symmetry_Int_Tables_number	1
_symmetry_cell_setting	triclinic
loop_
_symmetry_equiv_pos_as_xyz
  x,y,z
_cell_length_a	12.759401
_cell_length_b	13.897441
_cell_length_c	12.759399
_cell_angle_alpha	90.029233
_cell_angle_beta	89.984458
_cell_angle_gamma	89.981179
loop_
_atom_site_label
_atom_site_type_symbol
_atom_site_fract_x
_atom_site_fract_y
_atom_site_fract_z
Zn1	Zn	1.606254	-0.545341	0.418221
Zn2	Zn	1.939588	-0.212008	0.751554
Zn3	Zn	2.272921	0.121326	1.084888
Zn4	Zn	1.606147	-0.384046	0.593931
Zn5	Zn	1.939480	-0.050713	0.927265
Zn6	Zn	2.272814	0.282620	1.260598
Zn7	Zn	1.430556	-0.384065	0.418268
Zn8	Zn	1.763889	-0.050732	0.751602
Zn9	Zn	2.097222	0.282602	1.084935
Zn10	Zn	1.430544	-0.545304	0.593860
Zn11	Zn	1.763877	-0.211971	0.927193
Zn12	Zn	2.097210	0.121362	1.260526
O13	O	1.518375	-0.464689	0.506070
O14	O	1.851709	-0.131356	0.839403
O15	O	2.185042	0.201977	1.172737
O16	O	1.753261	-0.523953	0.441539
O17	O	2.086595	-0.190619	0.774873
O18	O	2.419928	0.142714	1.108206
O19	O	1.582814	-0.249067	0.570679
O20	O	1.916148	0.084266	0.904012
O21	O	2.249481	0.417600	1.237346
O22	O	1.453913	-0.405482	0.271241
O23	O	1.787246	-0.072148	0.604574
O24	O	2.120579	0.261185	0.937908
O25	O	1.753182	-0.405450	0.570633
O26	O	2.086515	-0.072117	0.903966
O27	O	2.419849	0.261217	1.237300
O28	O	1.582998	-0.523971	0.271206
O29	O	1.916331	-0.190637	0.604539
O30	O	2.249664	0.142696	0.937873
O31	O	1.453808	-0.249081	0.441620
O32	O	1.787142	0.084253	0.774954
O33	O	2.120475	0.417586	1.108287
O34	O	1.283533	-0.405446	0.441551
O35	O	1.616867	-0.072113	0.774884
O36	O	1.950200	0.261221	1.108217
O37	O	1.453892	-0.680291	0.570511
O38	O	1.787225	-0.346958	0.903844
O39	O	2.120559	-0.013624	1.237178
O40	O	1.283524	-0.523908	0.570557
O41	O	1.616858	-0.190575	0.903890
O42	O	1.950191	0.142759	1.237224
O43	O	1.582986	-0.680318	0.441470
O44	O	1.916319	-0.346985	0.774803
O45	O	2.249653	-0.013651	1.108137
O46	O	1.582803	-0.405414	0.740943
O47	O	1.916136	-0.072081	1.074276
O48	O	2.249469	0.261252	1.407610
O49	O	1.453788	-0.523890	0.740890
O50	O	1.787121	-0.190557	1.074224
O51	O	2.120455	0.142777	1.407557
C52	C	1.245408	-0.464676	0.506052
C53	C	1.578741	-0.131342	0.839385
C54	C	1.912075	0.201991	1.172719
C55	C	1.128631	-0.464693	0.506070
C56	C	1.461965	-0.131359	0.839403
C57	C	1.795298	0.201974	1.172736
C58	C	1.073811	-0.526492	0.438972
C59	C	1.407144	-0.193159	0.772305
C60	C	1.740478	0.140175	1.105639
C61	C	0.964087	-0.526498	0.438983
C62	C	1.297420	-0.193165	0.772316
C63	C	1.630754	0.140168	1.105649
C64	C	0.964013	-0.402903	0.573198
C65	C	1.297346	-0.069570	0.906531
C66	C	1.630680	0.263763	1.239864
C67	C	1.073735	-0.402893	0.573181
C68	C	1.407068	-0.069559	0.906514
C69	C	1.740402	0.263774	1.239847
C70	C	1.518450	-0.716282	0.505977
C71	C	1.851783	-0.382949	0.839311
C72	C	2.185116	-0.049616	1.172644
C73	C	1.518482	-0.823496	0.505938
C74	C	1.851815	-0.490163	0.839271
C75	C	2.185148	-0.156830	1.172604
C76	C	1.518510	-1.019792	0.505867
C77	C	1.851843	-0.686458	0.839200
C78	C	2.185177	-0.353125	1.172533
C79	C	1.518491	-0.910559	0.505909
C80	C	1.851824	-0.577226	0.839242
C81	C	2.185158	-0.243892	1.172576
C82	C	1.792408	-0.464703	0.506089
C83	C	2.125742	-0.131370	0.839422
C84	C	2.459075	0.201963	1.172756
C85	C	1.909185	-0.464709	0.506097
C86	C	2.242518	-0.131376	0.839430
C87	C	2.575852	0.201957	1.172764
C88	C	1.518311	-0.464667	0.779037
C89	C	1.851644	-0.131334	1.112371
C90	C	2.184977	0.201999	1.445704
C91	C	1.518379	-0.464690	0.895814
C92	C	1.851713	-0.131357	1.229147
C93	C	2.185046	0.201977	1.562481
C94	C	1.518361	-0.214075	0.506087
C95	C	1.851695	0.119258	0.839420
C96	C	2.185028	0.452592	1.172753
C97	C	1.518533	-0.106861	0.505830
C98	C	1.851867	0.226472	0.839164
C99	C	2.185200	0.559805	1.172497
C100	C	1.518468	-0.464732	0.232037
C101	C	1.851802	-0.131399	0.565370
C102	C	2.185135	0.201934	0.898703
C103	C	1.518508	-0.464751	0.115260
C104	C	1.851842	-0.131417	0.448593
C105	C	2.185175	0.201916	0.781927
C106	C	1.585634	-0.403070	0.950668
C107	C	1.918967	-0.069737	1.284002
C108	C	2.252301	0.263597	1.617335
C109	C	1.585702	-0.403102	1.060392
C110	C	1.919035	-0.069769	1.393726
C111	C	2.252368	0.263564	1.727059
C112	C	1.451251	-0.526378	1.060398
C113	C	1.784584	-0.193044	1.393731
C114	C	2.117917	0.140289	1.727065
C115	C	1.451189	-0.526349	0.950676
C116	C	1.784523	-0.193016	1.284009
C117	C	2.117856	0.140317	1.617343
H118	H	0.919457	-0.576820	0.384343
H119	H	1.252791	-0.243487	0.717677
H120	H	1.586124	0.089846	1.051010
H121	H	1.640346	-0.352865	0.906002
H122	H	1.973679	-0.019531	1.239336
H123	H	2.307013	0.313802	1.572669
H124	H	1.640469	-0.352926	1.105050
H125	H	1.973802	-0.019593	1.438383
H126	H	2.307135	0.313740	1.771717
H127	H	1.396422	-0.576532	0.906010
H128	H	1.729756	-0.243199	1.239344
H129	H	2.063089	0.090134	1.572677
F130	F	0.905579	-0.337137	0.644620
F131	F	1.238913	-0.003804	0.977954
F132	F	1.572246	0.329529	1.311287
H133	H	1.118371	-0.352563	0.627821
H134	H	1.451704	-0.019230	0.961154
H135	H	1.785037	0.314104	1.294487
H136	H	1.118504	-0.576810	0.384322
H137	H	1.451838	-0.243477	0.717656
H138	H	1.785171	0.089856	1.050989
F139	F	1.379744	-0.591994	1.118795
F140	F	1.713077	-0.258661	1.452128
F141	F	2.046411	0.074673	1.785462
