data_functionalizedCrystal
_audit_creation_method	'MofGen! by Chris Wilmer'
_symmetry_space_group_name_H-M	'P1'
_symmetry_Int_Tables_number	1
_symmetry_cell_setting	triclinic
loop_
_symmetry_equiv_pos_as_xyz
  x,y,z
_cell_length_a	15.944551
_cell_length_b	15.944551
_cell_length_c	15.021413
_cell_angle_alpha	90.003065
_cell_angle_beta	89.997174
_cell_angle_gamma	83.498738
loop_
_atom_site_label
_atom_site_type_symbol
_atom_site_fract_x
_atom_site_fract_y
_atom_site_fract_z
O1	O	1.114529	0.108321	-0.073941
O2	O	0.869979	0.121677	-0.073964
O3	O	0.998932	-0.007276	-0.073944
O4	O	0.985576	0.237274	-0.073961
O5	O	0.998912	-0.007257	0.074121
O6	O	0.869959	0.121695	0.074101
O7	O	1.114508	0.108339	0.074123
Zn8	Zn	0.992230	0.115020	0.097620
Zn9	Zn	0.992257	0.114996	-0.097461
O10	O	0.985555	0.237292	0.074103
C11	C	0.838675	0.121132	0.000066
C12	C	0.745429	0.119470	0.000057
C13	C	0.998367	-0.038561	0.000089
C14	C	0.996705	-0.131807	0.000089
C15	C	0.530572	0.035565	0.000081
C16	C	0.469562	0.074518	-0.072926
C17	C	0.574703	0.116462	0.000068
C18	C	0.469564	0.074556	0.073054
C19	C	0.409790	0.113551	0.000083
C20	C	0.514921	0.155438	-0.072998
C21	C	0.514930	0.155464	0.073047
C22	C	0.453937	0.194476	0.000023
C23	C	0.669705	0.118137	0.000059
C24	C	0.314789	0.111883	0.000085
C25	C	0.912801	-0.346663	0.000069
C26	C	0.951753	-0.407672	0.073077
C27	C	0.993698	-0.302533	0.000082
C28	C	0.951792	-0.407673	-0.072903
C29	C	0.990787	-0.467445	0.000071
C30	C	1.032672	-0.362313	0.073150
C31	C	1.032700	-0.362308	-0.072895
C32	C	1.071711	-0.423298	0.000131
C33	C	0.995372	-0.207530	0.000089
C34	C	0.989119	-0.562446	0.000070
C35	C	1.145813	0.108885	0.000092
C36	C	1.239059	0.110547	0.000094
C37	C	0.986120	0.268577	0.000069
C38	C	0.987782	0.361823	0.000063
N39	N	0.992218	0.115036	0.230758
N40	N	0.992276	0.114973	-0.230598
C41	C	0.932581	0.174636	0.470432
C42	C	1.008481	0.190943	0.529772
C43	C	0.992239	0.115015	0.412365
C44	C	0.916360	0.098727	0.529766
C45	C	0.992253	0.114997	0.587789
C46	C	1.068178	0.131360	0.470398
C47	C	0.976006	0.039111	0.470387
C48	C	1.051962	0.055386	0.529701
C49	C	0.992230	0.115028	0.311307
C50	C	0.992271	0.114984	0.688844
H51	H	0.449461	0.040295	-0.134642
H52	H	0.420779	0.261683	-0.000023
H53	H	1.102474	0.004956	0.555561
O54	O	0.911096	-0.431621	-0.146630
C55	C	0.906768	-0.434488	-0.306942
C56	C	0.952956	-0.407342	-0.223527
H57	H	0.940582	-0.414854	-0.369133
H58	H	0.906458	-0.505952	-0.306645
H59	H	0.839023	-0.402701	-0.306795
H60	H	1.020719	-0.439070	-0.223619
H61	H	0.953197	-0.335871	-0.223855
O62	O	1.024758	0.267508	0.561006
C63	C	0.975131	0.389343	0.649202
C64	C	0.956610	0.302636	0.613913
H65	H	0.920038	0.417778	0.691968
H66	H	1.035183	0.381412	0.691003
H67	H	0.983867	0.433061	0.590697
H68	H	0.947833	0.258873	0.672363
H69	H	0.896578	0.310633	0.572085
O70	O	0.832682	-0.306959	0.000301
C71	C	0.699527	-0.284939	0.077501
C72	C	0.790241	-0.329943	0.077355
H73	H	0.665181	-0.303518	0.139783
H74	H	0.701487	-0.213690	0.076922
H75	H	0.664733	-0.304340	0.015861
H76	H	0.825087	-0.310611	0.138984
H77	H	0.788219	-0.401183	0.077888
O78	O	0.910983	-0.431807	0.146675
C79	C	0.864339	-0.547397	0.229452
C80	C	0.910555	-0.520187	0.146082
H81	H	0.863963	-0.618851	0.228991
H82	H	0.898164	-0.527915	0.291702
H83	H	0.796616	-0.515553	0.229352
H84	H	0.978280	-0.552018	0.146096
H85	H	0.876665	-0.539654	0.083870
O86	O	0.538924	0.196135	0.146766
C87	C	0.543250	0.199510	0.307065
C88	C	0.516045	0.153367	0.223644
H89	H	0.524748	0.164961	0.369241
H90	H	0.614575	0.200889	0.306058
H91	H	0.510513	0.266887	0.307647
H92	H	0.548723	0.085971	0.223007
H93	H	0.444713	0.152056	0.224683
O94	O	0.538917	0.196158	-0.146689
C95	C	0.654267	0.243451	-0.229338
C96	C	0.627207	0.197304	-0.145858
H97	H	0.725648	0.244408	-0.228685
H98	H	0.635262	0.209193	-0.291505
H99	H	0.621905	0.310976	-0.229594
H100	H	0.659556	0.129778	-0.145516
H101	H	0.646196	0.231628	-0.083729
O102	O	0.445703	0.033619	0.146660
C103	C	0.457916	-0.096439	0.229793
C104	C	0.485020	-0.050166	0.146417
H105	H	0.489678	-0.164193	0.229614
H106	H	0.477497	-0.062668	0.292038
H107	H	0.386451	-0.096722	0.229421
H108	H	0.556481	-0.049869	0.146703
H109	H	0.465378	-0.083952	0.084209
O110	O	1.073391	-0.338314	0.146841
C111	C	1.120680	-0.222963	0.229490
C112	C	1.074536	-0.250024	0.146010
H113	H	1.121637	-0.151581	0.228836
H114	H	1.086420	-0.241966	0.291656
H115	H	1.188205	-0.255324	0.229750
H116	H	1.007010	-0.217676	0.145664
H117	H	1.108862	-0.231037	0.083882
O118	O	0.872558	0.234876	0.439268
C119	C	0.842876	0.361050	0.351189
C120	C	0.910928	0.292871	0.386406
H121	H	0.873874	0.407967	0.308458
H122	H	0.795268	0.330075	0.309368
H123	H	0.809105	0.395614	0.409729
H124	H	0.944761	0.258284	0.327920
H125	H	0.958480	0.323896	0.428253
H126	H	1.132368	0.145206	0.444430
O127	O	0.959438	-0.037399	0.439278
C128	C	0.860706	-0.141086	0.434222
C129	C	0.879367	-0.054418	0.469498
H130	H	0.795978	-0.154882	0.458656
H131	H	0.861421	-0.140538	0.358334
H132	H	0.910943	-0.192032	0.459612
H133	H	0.829150	-0.003424	0.444174
H134	H	0.878683	-0.055038	0.545384
H135	H	0.563905	-0.031573	-0.000005
O136	O	0.839839	0.082338	0.561025
C137	C	0.754395	0.063130	0.690154
C138	C	0.841089	0.081708	0.654879
H139	H	0.755383	0.062598	0.766038
H140	H	0.703576	0.114042	0.665870
H141	H	0.740061	-0.001068	0.664657
H142	H	0.855504	0.145882	0.680361
H143	H	0.891860	0.030746	0.679156
H144	H	1.066896	-0.342185	-0.134615
O145	O	1.151900	-0.462827	0.000341
C146	C	1.285098	-0.484496	0.077477
C147	C	1.194304	-0.439691	0.077356
H148	H	1.319413	-0.465794	0.139728
H149	H	1.283302	-0.555769	0.076945
H150	H	1.319816	-0.465050	0.015805
H151	H	1.159533	-0.459069	0.139018
H152	H	1.196161	-0.368427	0.077842
