data_functionalizedCrystal
_audit_creation_method	'MofGen! by Chris Wilmer'
_symmetry_space_group_name_H-M	'P1'
_symmetry_Int_Tables_number	1
_symmetry_cell_setting	triclinic
loop_
_symmetry_equiv_pos_as_xyz
  x,y,z
_cell_length_a	16.109301
_cell_length_b	26.210047
_cell_length_c	16.109301
_cell_angle_alpha	90.003078
_cell_angle_beta	96.538519
_cell_angle_gamma	90.006315
loop_
_atom_site_label
_atom_site_type_symbol
_atom_site_fract_x
_atom_site_fract_y
_atom_site_fract_z
O1	O	1.103139	0.042398	-0.106855
O2	O	0.861077	0.042407	-0.120155
O3	O	0.988757	0.042397	0.007526
O4	O	0.975458	0.042408	-0.234536
O5	O	0.988733	-0.042461	0.007506
O6	O	0.861052	-0.042451	-0.120174
O7	O	1.103114	-0.042460	-0.106875
Cu8	Cu	0.982081	-0.050204	-0.113527
Cu9	Cu	0.982110	0.050151	-0.113503
O10	O	0.975433	-0.042450	-0.234556
C11	C	0.830090	-0.000021	-0.119626
C12	C	0.737794	-0.000018	-0.118011
N13	N	0.982066	-0.120788	-0.113543
C14	C	0.515522	-0.000021	-0.190018
C15	C	0.428801	-0.000024	-0.188494
C16	C	0.448676	-0.000029	-0.037006
C17	C	0.535394	-0.000029	-0.038530
C18	C	0.568815	-0.000023	-0.115039
C19	C	0.395376	-0.000026	-0.111990
C20	C	0.301350	-0.000029	-0.110337
C21	C	0.662847	-0.000020	-0.116693
C22	C	1.038641	-0.473306	-0.056979
C23	C	1.038659	-0.686965	-0.056967
O24	O	1.086729	-0.714590	-0.008878
N25	N	0.982114	-0.713682	-0.113485
C26	C	0.925557	-0.686981	-0.170006
O27	O	0.877457	-0.714608	-0.218071
C28	C	0.925535	-0.473323	-0.170012
C29	C	0.982090	-0.446609	-0.113497
C30	C	1.095190	-0.446592	-0.000467
C31	C	1.095188	-0.393180	-0.000474
C32	C	1.038637	-0.366483	-0.056992
C33	C	0.982088	-0.393197	-0.113503
C34	C	0.868975	-0.446623	-0.226529
C35	C	0.868973	-0.393205	-0.226524
C36	C	0.925527	-0.366491	-0.170008
C37	C	0.925534	-0.313089	-0.170028
N38	N	0.982079	-0.286372	-0.113510
C39	C	1.038631	-0.313069	-0.056992
C40	C	0.925573	-0.799154	-0.169999
C41	C	0.925580	-0.852568	-0.169998
C42	C	1.038681	-0.852548	-0.056959
C43	C	1.038678	-0.799133	-0.056964
C44	C	0.982119	-0.772437	-0.113482
C45	C	1.038623	-0.200901	-0.057011
C46	C	1.038618	-0.147485	-0.057025
C47	C	0.925513	-0.147509	-0.170061
C48	C	0.925521	-0.200921	-0.170050
C49	C	0.982079	-0.227615	-0.113518
O50	O	0.877483	-0.285430	-0.218085
O51	O	1.086712	-0.285433	-0.008922
C52	C	1.038643	-0.526717	-0.056972
C53	C	0.982094	-0.553432	-0.113484
C54	C	0.925543	-0.526735	-0.170002
C55	C	0.982100	-0.606846	-0.113483
C56	C	1.038652	-0.633543	-0.056965
C57	C	1.095197	-0.606826	-0.000448
C58	C	1.095195	-0.553415	-0.000454
C59	C	0.868998	-0.553452	-0.226519
C60	C	0.869005	-0.606863	-0.226509
C61	C	0.925556	-0.633560	-0.169991
C62	C	1.134101	-0.000031	-0.107404
C63	C	1.226397	-0.000030	-0.109019
C64	C	0.988206	-0.000032	0.038491
C65	C	0.986591	-0.000033	0.130786
N66	N	0.982131	0.120735	-0.113480
C67	C	0.975984	-0.000020	-0.265521
C68	C	0.977600	-0.000016	-0.357816
C69	C	1.058599	-0.000027	0.353059
C70	C	1.057075	-0.000023	0.439779
C71	C	0.905586	-0.000020	0.419905
C72	C	0.907111	-0.000020	0.333186
C73	C	0.983620	-0.000027	0.299766
C74	C	0.980571	-0.000022	0.473205
C75	C	0.978918	-0.000017	0.567231
C76	C	0.985273	-0.000030	0.205734
H77	H	0.542730	-0.000020	-0.252317
Cl78	Cl	0.809409	-0.000012	0.461926
H79	H	0.385413	-0.000024	-0.249550
Cl80	Cl	1.109776	-0.765555	0.014088
H81	H	0.421454	-0.000037	0.025285
Cl82	Cl	0.602397	-0.000036	0.055737
H83	H	0.879537	-0.874315	-0.216027
Cl84	Cl	1.109721	-0.113904	0.014027
H85	H	0.846050	-0.000018	0.289792
H86	H	0.822953	-0.628610	-0.272538
H87	H	1.084676	-0.222630	-0.010976
H88	H	1.141237	-0.371433	0.045548
Cl89	Cl	1.166293	-0.480145	0.070593
H90	H	0.879472	-0.125764	-0.216080
Cl91	Cl	1.109772	-0.886121	0.014093
H92	H	0.879514	-0.777422	-0.216024
Cl93	Cl	0.797872	-0.480196	-0.297578
H94	H	0.822912	-0.371472	-0.272546
Cl95	Cl	0.854430	-0.234503	-0.241110
Cl96	Cl	1.151339	-0.000023	0.506773
H97	H	1.141246	-0.531668	0.045566
Cl98	Cl	1.166291	-0.640398	0.070601
Cl99	Cl	0.797899	-0.519896	-0.297578
H100	H	1.120897	-0.000031	0.325851
