data_functionalizedCrystal
_audit_creation_method	'MofGen! by Chris Wilmer'
_symmetry_space_group_name_H-M	'P1'
_symmetry_Int_Tables_number	1
_symmetry_cell_setting	triclinic
loop_
_symmetry_equiv_pos_as_xyz
  x,y,z
_cell_length_a	10.540539
_cell_length_b	14.519709
_cell_length_c	13.596369
_cell_angle_alpha	90.006934
_cell_angle_beta	89.998267
_cell_angle_gamma	95.897182
loop_
_atom_site_label
_atom_site_type_symbol
_atom_site_fract_x
_atom_site_fract_y
_atom_site_fract_z
O1	O	1.684562	-0.129969	-0.081713
O2	O	2.017895	0.203364	0.251621
O3	O	2.351228	0.536697	0.584954
O4	O	1.315024	-0.142215	-0.081733
O5	O	1.648357	0.191119	0.251601
O6	O	1.981690	0.524452	0.584934
O7	O	1.509591	-0.001906	-0.081713
O8	O	1.842924	0.331427	0.251620
O9	O	2.176257	0.664760	0.584953
O10	O	1.489995	-0.270278	-0.081732
O11	O	1.823328	0.063056	0.251601
O12	O	2.156662	0.396389	0.584935
O13	O	1.509571	-0.001899	0.081870
O14	O	1.842904	0.331435	0.415203
O15	O	2.176238	0.664768	0.748536
O16	O	1.315004	-0.142207	0.081850
O17	O	1.648338	0.191126	0.415183
O18	O	1.981671	0.524460	0.748517
O19	O	1.684542	-0.129962	0.081870
O20	O	2.017876	0.203372	0.415203
O21	O	2.351209	0.536705	0.748537
Zn22	Zn	1.499770	-0.136083	0.107832
Zn23	Zn	1.833104	0.197250	0.441166
Zn24	Zn	2.166437	0.530584	0.774499
Zn25	Zn	1.499796	-0.136093	-0.107695
Zn26	Zn	1.833129	0.197240	0.225638
Zn27	Zn	2.166463	0.530573	0.558972
O28	O	1.489976	-0.270270	0.081851
O29	O	1.823309	0.063063	0.415184
O30	O	2.156642	0.396397	0.748517
C31	C	1.508668	0.032462	0.000078
C32	C	1.842001	0.365796	0.333412
C33	C	2.175334	0.699129	0.666745
C34	C	1.505931	0.134858	0.000079
C35	C	1.839264	0.468192	0.333412
C36	C	2.172598	0.801525	0.666745
C37	C	1.267720	-0.141293	0.000056
C38	C	1.601054	0.192041	0.333390
C39	C	1.934387	0.525374	0.666723
C40	C	1.126800	-0.138545	0.000049
C41	C	1.460134	0.194788	0.333382
C42	C	1.793467	0.528122	0.666716
C43	C	1.731846	-0.130884	0.000079
C44	C	2.065179	0.202450	0.333412
C45	C	2.398512	0.535783	0.666746
C46	C	1.872766	-0.133631	0.000080
C47	C	2.206099	0.199702	0.333413
C48	C	2.539432	0.533035	0.666746
C49	C	2.055118	-0.238911	0.000417
C50	C	2.388451	0.094423	0.333751
C51	C	2.721785	0.427756	0.667084
C52	C	1.908528	-0.236126	0.000065
C53	C	2.241861	0.097208	0.333398
C54	C	2.575195	0.430541	0.666732
C55	C	1.934912	-0.084310	-0.093336
C56	C	2.268246	0.249023	0.239997
C57	C	2.601579	0.582356	0.573331
C58	C	2.081421	-0.087808	-0.093431
C59	C	2.414754	0.245525	0.239902
C60	C	2.748088	0.578858	0.573236
C61	C	2.081990	-0.085716	0.092594
C62	C	2.415323	0.247617	0.425927
C63	C	2.748656	0.580951	0.759260
C64	C	1.935018	-0.084772	0.093845
C65	C	2.268351	0.248561	0.427178
C66	C	2.601684	0.581895	0.760511
C67	C	1.490899	-0.304639	0.000057
C68	C	1.824232	0.028695	0.333390
C69	C	2.157565	0.362028	0.666724
C70	C	1.493635	-0.407035	0.000050
C71	C	1.826968	-0.073701	0.333383
C72	C	2.160302	0.259632	0.666717
N73	N	1.499762	-0.136076	0.254924
N74	N	1.833095	0.197258	0.588258
N75	N	2.166429	0.530591	0.921591
C76	C	1.495856	0.509808	0.000052
C77	C	1.829190	0.843142	0.333386
C78	C	2.162523	1.176475	0.666719
C79	C	1.498654	0.405485	0.000060
C80	C	1.831987	0.738819	0.333393
C81	C	2.165321	1.072152	0.666727
C82	C	1.500893	0.322337	0.000066
C83	C	1.834227	0.655670	0.333400
C84	C	2.167560	0.989003	0.666733
C85	C	1.503692	0.218007	0.000072
C86	C	1.837025	0.551340	0.333406
C87	C	2.170358	0.884674	0.666739
N88	N	1.499814	-0.136093	-0.254787
N89	N	1.833147	0.197240	0.078546
N90	N	2.166481	0.530573	0.411880
C91	C	1.499794	-0.136094	0.656215
C92	C	1.833127	0.197239	0.989549
C93	C	2.166461	0.530573	1.322882
C94	C	1.499781	-0.136092	0.544564
C95	C	1.833115	0.197241	0.877897
C96	C	2.166448	0.530575	1.211231
C97	C	1.499779	-0.136086	0.455573
C98	C	1.833112	0.197248	0.788907
C99	C	2.166445	0.530581	1.122240
C100	C	1.499765	-0.136082	0.343915
C101	C	1.833098	0.197251	0.677248
C102	C	2.166432	0.530584	1.010582
H103	H	1.865538	-0.274939	0.067026
H104	H	2.198872	0.058395	0.400359
H105	H	2.532205	0.391728	0.733693
H106	H	2.084902	-0.279236	-0.066204
H107	H	2.418235	0.054097	0.267130
H108	H	2.751569	0.387431	0.600463
H109	H	1.891917	-0.118554	-0.162850
H110	H	2.225250	0.214780	0.170483
H111	H	2.558583	0.548113	0.503816
Cl112	Cl	1.898800	0.030601	0.102574
Cl113	Cl	2.232134	0.363935	0.435908
Cl114	Cl	2.565467	0.697268	0.769241
H115	H	2.109237	-0.124267	-0.163264
H116	H	2.442570	0.209066	0.170069
H117	H	2.775904	0.542399	0.503402
Cl118	Cl	2.156087	0.028576	0.093578
Cl119	Cl	2.489420	0.361910	0.426911
Cl120	Cl	2.822753	0.695243	0.760245
H121	H	2.113218	-0.118884	0.163389
H122	H	2.446551	0.214449	0.496722
H123	H	2.779884	0.547783	0.830055
Cl124	Cl	1.871265	-0.140411	0.200545
Cl125	Cl	2.204598	0.192922	0.533879
Cl126	Cl	2.537932	0.526256	0.867212
H127	H	1.866363	-0.275209	-0.067010
H128	H	2.199696	0.058124	0.266323
H129	H	2.533030	0.391458	0.599657
Cl130	Cl	2.099470	-0.301684	0.103388
Cl131	Cl	2.432804	0.031649	0.436721
Cl132	Cl	2.766137	0.364982	0.770055
H133	H	2.130141	-0.014097	-0.097682
H134	H	2.463475	0.319237	0.235651
H135	H	2.796808	0.652570	0.568984
H136	H	1.913326	-0.009041	-0.096800
H137	H	2.246660	0.324292	0.236534
H138	H	2.579993	0.657625	0.569867
