data_functionalizedCrystal
_audit_creation_method	'MofGen! by Chris Wilmer'
_symmetry_space_group_name_H-M	'P1'
_symmetry_Int_Tables_number	1
_symmetry_cell_setting	triclinic
loop_
_symmetry_equiv_pos_as_xyz
  x,y,z
_cell_length_a	10.489711
_cell_length_b	9.565339
_cell_length_c	19.288857
_cell_angle_alpha	90.001917
_cell_angle_beta	83.830058
_cell_angle_gamma	90.005127
loop_
_atom_site_label
_atom_site_type_symbol
_atom_site_fract_x
_atom_site_fract_y
_atom_site_fract_z
O1	O	1.691856	0.116318	0.097890
O2	O	1.320447	0.116310	0.107110
O3	O	1.516889	0.116298	0.001441
O4	O	1.495414	0.116331	0.203559
O5	O	1.516873	-0.116223	0.001447
O6	O	1.320431	-0.116210	0.107116
O7	O	1.691841	-0.116202	0.097897
Zn8	Zn	1.506133	-0.153124	0.102507
Zn9	Zn	1.506154	0.153232	0.102499
O10	O	1.495399	-0.116189	0.203566
C11	C	1.272922	0.000049	0.106421
C12	C	1.131338	0.000046	0.104351
C13	C	0.947511	0.000072	0.167897
C14	C	1.040384	0.114709	0.136152
C15	C	1.040342	-0.114537	0.136141
C16	C	0.971957	0.114807	0.068882
C17	C	0.971906	-0.114543	0.068881
C18	C	1.064752	0.000122	0.037087
N19	N	1.506129	-0.362203	0.102513
C20	C	1.415254	-0.453400	0.151365
C21	C	1.530434	-0.546574	0.165412
C22	C	1.390999	-0.546584	0.088471
C23	C	1.621367	-0.453325	0.116592
C24	C	1.481856	-0.453327	0.039623
C25	C	1.597119	-0.546459	0.053644
C26	C	1.739365	0.000062	0.098585
C27	C	1.880949	0.000075	0.100655
C28	C	1.516191	0.000036	-0.024437
C29	C	1.514122	0.000032	-0.101555
N30	N	1.506169	0.362311	0.102488
C31	C	1.513165	0.126779	-0.137776
C32	C	1.511202	0.126789	-0.210235
C33	C	1.510223	0.000046	-0.246472
C34	C	1.511173	-0.126718	-0.210242
C35	C	1.513123	-0.126725	-0.137784
C36	C	1.581835	-0.097046	-0.366225
C37	C	1.579893	-0.097034	-0.438682
C38	C	1.504204	0.000061	-0.469958
C39	C	1.430474	0.097168	-0.428768
C40	C	1.432423	0.097162	-0.356309
C41	C	1.508108	0.000039	-0.325041
C42	C	1.501117	0.126828	-0.584747
C43	C	1.499147	0.126833	-0.657207
C44	C	1.499130	-0.126678	-0.657214
C45	C	1.501088	-0.126679	-0.584754
C46	C	1.502087	0.000078	-0.548526
C47	C	1.496096	0.000075	0.229444
C48	C	1.498165	0.000088	0.306561
H49	H	1.070740	0.211632	0.164602
H50	H	1.674070	-0.587063	0.012319
H51	H	0.896568	0.000195	0.223165
N52	N	0.932027	0.243331	0.031220
H53	H	0.836000	0.242571	0.030049
H54	H	0.957594	0.329750	0.056448
H55	H	1.461262	-0.412337	-0.013534
H56	H	1.513897	-0.229941	-0.108293
H57	H	1.639934	-0.176100	-0.472214
H58	H	1.293618	-0.587553	0.076606
H59	H	1.115463	0.000171	-0.018232
H60	H	1.498361	0.230050	-0.686696
H61	H	1.501923	0.230041	-0.555247
H62	H	1.718768	-0.412533	0.128521
N63	N	1.514238	0.263489	-0.098700
H64	H	1.513332	0.343785	-0.132645
H65	H	1.435994	0.269011	-0.063396
H66	H	1.510415	0.230005	-0.239731
N67	N	1.498060	-0.263384	-0.696286
H68	H	1.496676	-0.244150	-0.747685
H69	H	1.577448	-0.318738	-0.688866
N70	N	1.502134	-0.263386	-0.545683
H71	H	1.501218	-0.343679	-0.579632
H72	H	1.581996	-0.268904	-0.520863
H73	H	1.372387	0.176227	-0.322775
N74	N	1.663481	-0.201771	-0.332495
H75	H	1.607063	-0.261511	-0.298640
H76	H	1.709888	-0.263180	-0.369624
N77	N	1.348836	0.201909	-0.462488
H78	H	1.358780	0.187179	-0.514640
H79	H	1.255991	0.188906	-0.443642
N80	N	1.510133	-0.263422	-0.249323
H81	H	1.431418	-0.318841	-0.231479
H82	H	1.508808	-0.244067	-0.300713
N83	N	0.931656	-0.242937	0.031226
H84	H	0.869295	-0.299365	0.063542
H85	H	0.889155	-0.213624	-0.011034
N86	N	1.080496	-0.242914	0.173842
H87	H	1.037398	-0.242796	0.223252
H88	H	1.054367	-0.329438	0.148891
H89	H	1.338473	-0.412540	0.192716
N90	N	1.557677	-0.600831	0.235843
H91	H	1.488972	-0.566990	0.272724
H92	H	1.558348	-0.706405	0.235112
