data_functionalizedCrystal
_audit_creation_method	'MofGen! by Chris Wilmer'
_symmetry_space_group_name_H-M	'P1'
_symmetry_Int_Tables_number	1
_symmetry_cell_setting	triclinic
loop_
_symmetry_equiv_pos_as_xyz
  x,y,z
_cell_length_a	27.732048
_cell_length_b	27.732064
_cell_length_c	10.868271
_cell_angle_alpha	89.998962
_cell_angle_beta	90.001179
_cell_angle_gamma	82.646039
loop_
_atom_site_label
_atom_site_type_symbol
_atom_site_fract_x
_atom_site_fract_y
_atom_site_fract_z
O1	O	0.640930	0.057517	-0.102154
O2	O	0.500137	0.066262	-0.102189
O3	O	0.574902	-0.008507	-0.102175
O4	O	0.566165	0.132286	-0.102168
O5	O	0.574896	-0.008509	0.102470
O6	O	0.500131	0.066259	0.102455
O7	O	0.640924	0.057514	0.102491
Zn8	Zn	0.570527	0.061886	0.134965
Zn9	Zn	0.570535	0.061890	-0.134663
O10	O	0.566159	0.132283	0.102477
C11	C	0.482127	0.066077	0.000128
C12	C	0.428473	0.065524	0.000114
C13	C	0.089660	0.106228	0.000170
C14	C	-0.112000	0.104177	0.000181
O15	O	-0.143253	0.141397	0.000236
N16	N	-0.131126	0.059842	0.000176
C17	C	-0.099834	0.016017	0.000177
O18	O	-0.120729	-0.021740	0.000186
C19	C	0.101825	0.018068	0.000175
C20	C	0.120948	0.062406	0.000167
C21	C	0.108784	0.150562	0.000163
C22	C	0.159196	0.151074	0.000154
C23	C	0.190484	0.107252	0.000151
C24	C	0.171360	0.062918	0.000157
C25	C	0.133116	-0.025756	0.000184
C26	C	0.183533	-0.025240	0.000187
C27	C	0.202656	0.019098	0.000179
C28	C	0.253060	0.019609	0.000145
N29	N	0.272186	0.063944	0.000150
C30	C	0.240898	0.107765	0.000152
C31	C	-0.205708	0.014943	0.000176
C32	C	-0.256123	0.014430	0.000174
C33	C	-0.268285	0.102590	0.000180
C34	C	-0.217870	0.103103	0.000173
C35	C	-0.186582	0.059278	0.000180
C36	C	0.346768	0.108838	0.000132
C37	C	0.397185	0.109346	0.000117
C38	C	0.409342	0.021186	0.000118
C39	C	0.358930	0.020678	0.000126
C40	C	0.327643	0.064507	0.000137
O41	O	0.284342	-0.017592	0.000104
O42	O	0.261803	0.145516	0.000171
C43	C	0.039248	0.105716	0.000179
C44	C	0.020124	0.061381	0.000186
C45	C	0.051412	0.017560	0.000183
C46	C	-0.030290	0.060868	0.000184
C47	C	-0.061578	0.104690	0.000187
C48	C	-0.042452	0.149025	0.000191
C49	C	0.007960	0.149537	0.000182
C50	C	0.032286	-0.026775	0.000178
C51	C	-0.018127	-0.027284	0.000186
C52	C	-0.049415	0.016538	0.000189
C53	C	0.574715	-0.026515	0.000143
C54	C	0.574159	-0.080169	0.000132
C55	C	0.526192	-0.457242	0.000115
C56	C	0.528238	-0.255582	0.000114
O57	O	0.491017	-0.224329	0.000055
N58	N	0.572572	-0.236454	0.000125
C59	C	0.616398	-0.267745	0.000128
O60	O	0.654154	-0.246849	0.000125
C61	C	0.614351	-0.469405	0.000120
C62	C	0.570014	-0.488529	0.000122
C63	C	0.481858	-0.476367	0.000115
C64	C	0.481347	-0.526779	0.000122
C65	C	0.525169	-0.558066	0.000129
C66	C	0.569503	-0.538941	0.000129
C67	C	0.658177	-0.500695	0.000115
C68	C	0.657661	-0.551112	0.000110
C69	C	0.613324	-0.570237	0.000111
C70	C	0.612814	-0.620640	0.000143
N71	N	0.568480	-0.639768	0.000131
C72	C	0.524658	-0.608481	0.000125
C73	C	0.617469	-0.161871	0.000134
C74	C	0.617981	-0.111456	0.000139
C75	C	0.529821	-0.099296	0.000122
C76	C	0.529310	-0.149712	0.000127
C77	C	0.573135	-0.180998	0.000123
C78	C	0.523588	-0.714350	0.000140
C79	C	0.523080	-0.764767	0.000152
C80	C	0.611241	-0.776923	0.000163
C81	C	0.611748	-0.726511	0.000157
C82	C	0.567918	-0.695225	0.000142
O83	O	0.650016	-0.651921	0.000187
O84	O	0.486907	-0.629387	0.000101
C85	C	0.526703	-0.406830	0.000108
C86	C	0.571036	-0.387705	0.000108
C87	C	0.614859	-0.418992	0.000115
C88	C	0.571548	-0.337290	0.000112
C89	C	0.527726	-0.306003	0.000105
C90	C	0.483391	-0.325131	0.000094
C91	C	0.482880	-0.375543	0.000101
C92	C	0.659193	-0.399865	0.000126
C93	C	0.659701	-0.349452	0.000120
C94	C	0.615878	-0.318165	0.000113
C95	C	0.658934	0.057699	0.000171
C96	C	0.712589	0.058252	0.000177
C97	C	0.566347	0.150291	0.000156
C98	C	0.566903	0.203945	0.000159
N99	N	0.570525	0.061883	0.318979
N100	N	0.570541	0.061889	-0.318677
C101	C	0.570532	0.061889	0.569985
C102	C	0.570527	0.061887	0.430308
H103	H	0.057756	-0.062461	0.000179
H104	H	0.446171	-0.450897	0.000105
H105	H	0.486974	-0.780335	0.000159
H106	H	0.493206	-0.165279	0.000133
O107	O	0.340294	-0.022361	0.000288
C108	C	0.311515	-0.025303	0.106303
H109	H	0.298681	0.012890	0.141640
H110	H	0.278638	-0.044323	0.082482
H111	H	0.333953	-0.046857	0.180512
H112	H	0.695808	-0.333886	0.000129
O113	O	0.439768	-0.394036	0.000039
C114	C	0.401205	-0.355603	0.000062
H115	H	0.414499	-0.321451	-0.038678
H116	H	0.370227	-0.365910	-0.059359
H117	H	0.387704	-0.348370	0.098237
O118	O	0.480967	-0.684033	0.000184
C119	C	0.441733	-0.711733	0.000155
H120	H	0.454297	-0.749451	0.038901
H121	H	0.411049	-0.692918	0.059567
H122	H	0.428125	-0.715227	-0.098024
O123	O	0.661008	-0.092801	0.000203
C124	C	0.652069	-0.041595	0.000171
H125	H	0.614258	-0.029478	0.038913
H126	H	0.680418	-0.026322	0.059585
H127	H	0.654305	-0.027576	-0.098008
O128	O	0.487295	-0.068831	0.000052
C129	C	0.497260	-0.020234	0.000084
H130	H	0.535217	-0.018582	-0.038636
H131	H	0.469312	0.002813	-0.059349
H132	H	0.495310	-0.005638	0.098260
O133	O	0.440834	-0.294713	-0.000134
C134	C	0.438508	-0.265182	-0.106111
H135	H	0.463368	-0.283831	-0.180179
H136	H	0.399529	-0.259225	-0.141700
H137	H	0.450743	-0.228610	-0.082150
O138	O	0.653821	-0.807300	0.000381
C139	C	0.680773	-0.798678	0.106347
H140	H	0.655128	-0.781260	0.180434
H141	H	0.700429	-0.834594	0.141915
H142	H	0.708557	-0.773209	0.082381
H143	H	0.321299	0.144528	0.000145
H144	H	-0.271688	-0.021674	0.000161
H145	H	-0.067936	0.184706	0.000189
O146	O	0.439721	-0.021392	-0.000103
C147	C	0.431098	-0.048343	-0.106069
H148	H	0.413675	-0.022697	-0.180153
H149	H	0.467013	-0.067995	-0.141644
H150	H	0.405633	-0.076130	-0.082100
H151	H	0.083313	0.186249	0.000170
O152	O	-0.036619	-0.070400	0.000247
C153	C	0.001813	-0.108964	0.000214
H154	H	0.035967	-0.095671	0.038942
H155	H	-0.008492	-0.139941	0.059640
H156	H	0.009041	-0.122466	-0.097963
H157	H	0.209006	-0.060928	0.000194
H158	H	0.694879	-0.425334	0.000130
H159	H	-0.293769	0.138272	0.000182
O160	O	0.660089	-0.192191	0.000197
C161	C	0.699324	-0.164491	0.000180
H162	H	0.686758	-0.126773	0.038920
H163	H	0.730005	-0.183306	0.059605
H164	H	0.712935	-0.160997	-0.097993
H165	H	0.445243	-0.542345	0.000112
H166	H	0.023525	0.185642	0.000177
H167	H	0.694281	-0.485133	0.000113
O168	O	-0.199376	0.146214	0.000228
C169	C	-0.237808	0.184779	0.000193
H170	H	-0.271960	0.171487	0.038932
H171	H	-0.227500	0.215757	0.059609
H172	H	-0.245040	0.198278	-0.097986
H173	H	0.412752	0.145453	0.000110
O174	O	0.700266	-0.581455	-0.000055
C175	C	0.727200	-0.572842	-0.106058
H176	H	0.715035	-0.534510	-0.141398
H177	H	0.767542	-0.576678	-0.082221
H178	H	0.720803	-0.600375	-0.180272
O179	O	0.177688	0.194187	0.000215
C180	C	0.139254	0.232750	0.000193
H181	H	0.105103	0.219453	0.038930
H182	H	0.149561	0.263726	0.059617
H183	H	0.132019	0.246253	-0.097982
H184	H	-0.180238	-0.020747	0.000182
H185	H	0.117555	-0.061861	0.000192
H186	H	0.647851	-0.710939	0.000173
