data_functionalizedCrystal
_audit_creation_method	'MofGen! by Chris Wilmer'
_symmetry_space_group_name_H-M	'P1'
_symmetry_Int_Tables_number	1
_symmetry_cell_setting	triclinic
loop_
_symmetry_equiv_pos_as_xyz
  x,y,z
_cell_length_a	10.723024
_cell_length_b	17.038272
_cell_length_c	9.198806
_cell_angle_alpha	89.996565
_cell_angle_beta	89.996352
_cell_angle_gamma	87.789713
loop_
_atom_site_label
_atom_site_type_symbol
_atom_site_fract_x
_atom_site_fract_y
_atom_site_fract_z
O1	O	1.667337	0.109720	-0.120885
O2	O	2.167337	0.609720	0.379115
O3	O	1.305156	0.120222	-0.120890
O4	O	1.805156	0.620222	0.379110
O5	O	1.484094	0.001144	-0.120876
O6	O	1.984094	0.501144	0.379124
O7	O	1.488399	0.228799	-0.120899
O8	O	1.988399	0.728799	0.379101
O9	O	1.484079	0.001144	0.120909
O10	O	1.984079	0.501144	0.620909
O11	O	1.305141	0.120222	0.120895
O12	O	1.805141	0.620222	0.620895
O13	O	1.667322	0.109720	0.120900
O14	O	2.167322	0.609720	0.620900
Cu15	Cu	1.486230	0.114971	0.142975
Cu16	Cu	1.986230	0.614971	0.642975
Cu17	Cu	1.486248	0.114971	-0.142964
Cu18	Cu	1.986248	0.614971	0.357036
O19	O	1.488384	0.228798	0.120886
O20	O	1.988384	0.728798	0.620886
C21	C	1.258578	0.119458	0.000002
C22	C	1.758578	0.619458	0.500002
C23	C	1.119813	0.117171	0.000000
C24	C	1.619813	0.617171	0.500000
C25	C	1.480171	-0.028006	0.000016
C26	C	1.980171	0.471994	0.500016
C27	C	1.468489	-0.114864	0.000016
C28	C	1.968489	0.385136	0.500016
C29	C	1.050993	0.183801	-0.000007
C30	C	1.550993	0.683801	0.499993
C31	C	0.907571	0.181440	-0.000009
C32	C	1.407571	0.681440	0.499991
C33	C	1.575744	-0.164385	0.000019
C34	C	2.075744	0.335615	0.500019
C35	C	1.564760	-0.245996	0.000005
C36	C	2.064760	0.254004	0.500005
C37	C	1.446520	-0.278084	-0.000002
C38	C	1.946520	0.221916	0.499998
C39	C	1.339256	-0.228557	-0.000009
C40	C	1.839256	0.271443	0.499991
C41	C	1.350241	-0.146947	-0.000006
C42	C	1.850241	0.353053	0.499994
C43	C	1.407711	-0.524057	-0.000022
C44	C	1.907711	-0.024057	0.499978
C45	C	1.396734	-0.605673	-0.000021
C46	C	1.896734	-0.105673	0.499979
C47	C	1.622239	-0.623107	-0.000010
C48	C	2.122239	-0.123107	0.499990
C49	C	1.633214	-0.541495	0.000002
C50	C	2.133214	-0.041495	0.500002
C51	C	1.525950	-0.491974	-0.000013
C52	C	2.025950	0.008026	0.499987
C53	C	1.435289	-0.361504	-0.000011
C54	C	1.935289	0.138496	0.499989
C55	C	1.537182	-0.408556	-0.000014
C56	C	2.037182	0.091444	0.499986
C57	C	1.713900	0.110484	0.000005
C58	C	2.213900	0.610484	0.500005
C59	C	1.852666	0.112771	-0.000003
C60	C	2.352666	0.612771	0.499997
C61	C	1.492307	0.257948	-0.000009
C62	C	1.992307	0.757948	0.499991
C63	C	1.503989	0.344806	-0.000018
C64	C	2.003989	0.844806	0.499982
N65	N	1.486226	0.114970	0.344089
N66	N	1.986226	0.614970	0.844089
N67	N	1.486261	0.114966	-0.344078
N68	N	1.986261	0.614966	0.155922
C69	C	1.561337	0.064752	0.416291
C70	C	2.061337	0.564752	0.916291
C71	C	1.561356	0.064749	0.583704
C72	C	2.061356	0.564749	1.083704
H73	H	1.098254	0.242594	-0.000005
H74	H	1.598254	0.742594	0.499995
Cl75	Cl	0.816245	0.269511	-0.000030
Cl76	Cl	1.316245	0.769511	0.499970
Cl77	Cl	0.943984	0.024696	-0.000004
Cl78	Cl	1.443984	0.524696	0.499996
H79	H	1.421957	0.157965	0.593840
H80	H	1.921957	0.657965	1.093840
Cl81	Cl	1.046857	0.026395	0.000020
Cl82	Cl	1.546857	0.526395	0.500020
Cl83	Cl	1.248077	-0.646011	-0.000021
Cl84	Cl	1.748077	-0.146011	0.499979
Cl85	Cl	1.724397	-0.124054	0.000042
Cl86	Cl	2.224397	0.375946	0.500042
H87	H	1.625624	0.021757	0.354170
H88	H	2.125624	0.521757	0.854170
Cl89	Cl	1.699603	-0.308249	0.000013
Cl90	Cl	2.199603	0.191751	0.500013
H91	H	1.421931	0.157959	0.406212
H92	H	1.921931	0.657959	0.906212
Cl93	Cl	1.272863	-0.461813	-0.000045
Cl94	Cl	1.772863	0.038187	0.499955
Cl95	Cl	1.660650	-0.001629	0.679562
Cl96	Cl	2.160650	0.498371	1.179562
H97	H	1.242982	-0.254689	-0.000024
H98	H	1.742982	0.245311	0.499976
Cl99	Cl	1.781865	-0.501161	-0.000037
Cl100	Cl	2.281865	-0.001161	0.499963
H101	H	1.262902	-0.106627	-0.000008
H102	H	1.762902	0.393373	0.499992
H103	H	1.633453	-0.382426	-0.000040
H104	H	2.133453	0.117574	0.499960
H105	H	1.339017	-0.387640	-0.000014
H106	H	1.839017	0.112360	0.499986
H107	H	1.709567	-0.663435	-0.000001
H108	H	2.209567	-0.163435	0.499999
