data_functionalizedCrystal
_audit_creation_method	'MofGen! by Chris Wilmer'
_symmetry_space_group_name_H-M	'P1'
_symmetry_Int_Tables_number	1
_symmetry_cell_setting	triclinic
loop_
_symmetry_equiv_pos_as_xyz
  x,y,z
_cell_length_a	18.050589
_cell_length_b	13.897449
_cell_length_c	13.897441
_cell_angle_alpha	90.026069
_cell_angle_beta	89.972127
_cell_angle_gamma	89.971851
loop_
_atom_site_label
_atom_site_type_symbol
_atom_site_fract_x
_atom_site_fract_y
_atom_site_fract_z
Zn1	Zn	-0.295637	-1.474632	-0.545537
Zn2	Zn	-0.419841	-1.474496	-0.384246
Zn3	Zn	-0.295670	-1.313321	-0.384240
Zn4	Zn	-0.419790	-1.313273	-0.545483
O5	O	-0.357734	-1.393931	-0.464876
O6	O	-0.312121	-1.609596	-0.524166
O7	O	-0.403405	-1.453080	-0.249263
O8	O	-0.191741	-1.334796	-0.405656
O9	O	-0.403374	-1.609496	-0.405666
O10	O	-0.191717	-1.453311	-0.524160
O11	O	-0.312176	-1.334665	-0.249259
O12	O	-0.312126	-1.178333	-0.405605
O13	O	-0.403285	-1.334715	-0.680472
O14	O	-0.403317	-1.178298	-0.524069
O15	O	-0.312071	-1.453264	-0.680511
O16	O	-0.523759	-1.453033	-0.405614
O17	O	-0.523721	-1.334583	-0.524075
C18	C	-0.357720	-1.143316	-0.464831
C19	C	-0.357732	-1.036103	-0.464835
C20	C	-0.550687	-1.393814	-0.464860
C21	C	-0.633232	-1.393853	-0.464886
C22	C	-0.357733	-0.949033	-0.464847
C23	C	-0.357737	-0.839800	-0.464871
C24	C	-0.832689	-1.329503	-0.529282
C25	C	-0.882135	-1.305986	-0.441261
C26	C	-0.784363	-1.393948	-0.464898
C27	C	-0.881999	-1.417512	-0.552929
C28	C	-0.930348	-1.394037	-0.464918
C29	C	-0.832721	-1.370384	-0.376831
C30	C	-0.832581	-1.481951	-0.488558
C31	C	-0.882004	-1.458468	-0.400477
C32	C	-0.700264	-1.393893	-0.464888
C33	C	-1.014444	-1.394092	-0.464919
C34	C	-0.164029	-1.394074	-0.464914
C35	C	-0.081483	-1.394135	-0.464930
C36	C	-0.357669	-1.393999	-0.716470
C37	C	-0.357641	-1.394028	-0.823684
C38	C	-0.357746	-0.645524	-0.464911
C39	C	-0.357744	-0.752738	-0.464896
C40	C	-0.357591	-1.394055	-1.019979
C41	C	-0.357621	-1.394037	-0.910746
C42	C	-0.357746	-1.393918	-0.214262
C43	C	-0.357565	-1.394076	-0.107049
H44	H	-0.811035	-1.274924	-0.583652
H45	H	-0.903521	-1.513005	-0.345975
H46	H	-0.903645	-1.437407	-0.627368
H47	H	-0.810800	-1.556314	-0.508594
H48	H	-0.903917	-1.231606	-0.421268
H49	H	-0.811164	-1.350403	-0.302372
