data_functionalizedCrystal
_audit_creation_method	'MofGen! by Chris Wilmer'
_symmetry_space_group_name_H-M	'P1'
_symmetry_Int_Tables_number	1
_symmetry_cell_setting	triclinic
loop_
_symmetry_equiv_pos_as_xyz
  x,y,z
_cell_length_a	19.288840
_cell_length_b	10.540539
_cell_length_c	17.766277
_cell_angle_alpha	90.000648
_cell_angle_beta	89.986186
_cell_angle_gamma	83.825754
loop_
_atom_site_label
_atom_site_type_symbol
_atom_site_fract_x
_atom_site_fract_y
_atom_site_fract_z
O1	O	0.922417	0.158185	-0.062717
O2	O	1.255751	0.491518	0.270617
O3	O	1.589084	0.824852	0.603950
O4	O	0.720297	0.179579	-0.062690
O5	O	1.053630	0.512912	0.270643
O6	O	1.386964	0.846245	0.603977
O7	O	0.825969	-0.015928	-0.062703
O8	O	1.159302	0.317405	0.270630
O9	O	1.492635	0.650739	0.603964
O10	O	0.816746	0.353692	-0.062704
O11	O	1.150079	0.687025	0.270630
O12	O	1.483413	1.020359	0.603963
O13	O	0.825954	-0.015921	0.062485
O14	O	1.159288	0.317412	0.395819
O15	O	1.492621	0.650746	0.729152
O16	O	0.720283	0.179586	0.062498
O17	O	1.053616	0.512919	0.395832
O18	O	1.386950	0.846252	0.729165
O19	O	0.922403	0.158192	0.062472
O20	O	1.255737	0.491525	0.395805
O21	O	1.589070	0.824859	0.729139
Cu22	Cu	0.821342	0.168890	0.073916
Cu23	Cu	1.154675	0.502223	0.407249
Cu24	Cu	1.488008	0.835556	0.740583
Cu25	Cu	0.821359	0.168881	-0.074134
Cu26	Cu	1.154692	0.502215	0.259199
Cu27	Cu	1.488025	0.835548	0.592533
O28	O	0.816732	0.353699	0.062485
O29	O	1.150065	0.687032	0.395818
O30	O	1.483398	1.020366	0.729151
C31	C	0.694409	0.178899	-0.000092
C32	C	1.027742	0.512233	0.333241
C33	C	1.361075	0.845566	0.666574
C34	C	0.617290	0.176849	-0.000082
C35	C	0.950624	0.510182	0.333251
C36	C	1.283957	0.843515	0.666584
C37	C	0.581088	0.175860	-0.068325
C38	C	0.914421	0.509193	0.265009
C39	C	1.247755	0.842526	0.598342
C40	C	0.508628	0.173919	-0.068334
C41	C	0.841962	0.507252	0.264999
C42	C	1.175295	0.840586	0.598333
C43	C	0.472375	0.172942	-0.000097
C44	C	0.805709	0.506275	0.333236
C45	C	1.139042	0.839608	0.666570
C46	C	0.508586	0.173938	0.068154
C47	C	0.841919	0.507271	0.401487
C48	C	1.175253	0.840604	0.734821
C49	C	0.581043	0.175891	0.068161
C50	C	0.914377	0.509225	0.401495
C51	C	1.247710	0.842558	0.734828
C52	C	0.362525	0.095502	0.052172
C53	C	0.695858	0.428835	0.385505
C54	C	1.029192	0.762168	0.718838
C55	C	0.290069	0.093540	0.052162
C56	C	0.623402	0.426874	0.385495
C57	C	0.956736	0.760207	0.718828
C58	C	0.248891	0.166922	-0.000117
C59	C	0.582225	0.500255	0.333217
C60	C	0.915558	0.833588	0.666550
C61	C	0.280180	0.242248	-0.052397
C62	C	0.613513	0.575582	0.280936
C63	C	0.946846	0.908915	0.614269
C64	C	0.352637	0.244202	-0.052390
C65	C	0.685970	0.577535	0.280943
C66	C	1.019304	0.910869	0.614277
C67	C	0.393807	0.170824	-0.000097
C68	C	0.727140	0.504157	0.333236
C69	C	1.060474	0.837491	0.666569
C70	C	0.134120	0.163830	-0.068374
C71	C	0.467453	0.497164	0.264960
C72	C	0.800786	0.830497	0.598293
C73	C	0.061658	0.161897	-0.068380
C74	C	0.394991	0.495231	0.264953
C75	C	0.728325	0.828564	0.598287
C76	C	0.061618	0.161903	0.068110
C77	C	0.394951	0.495237	0.401443
C78	C	0.728284	0.828570	0.734777
C79	C	0.134077	0.163849	0.068115
C80	C	0.467411	0.497182	0.401448
C81	C	0.800744	0.830516	0.734781
C82	C	0.170324	0.164806	-0.000129
C83	C	0.503658	0.498140	0.333204
C84	C	0.836991	0.831473	0.666537
C85	C	0.825270	-0.063212	-0.000110
C86	C	1.158603	0.270121	0.333223
C87	C	1.491936	0.603455	0.666557
C88	C	0.823201	-0.204114	-0.000114
C89	C	1.156534	0.129220	0.333219
C90	C	1.489867	0.462553	0.666553
C91	C	0.743911	-0.385760	-0.000384
C92	C	1.077244	-0.052427	0.332949
C93	C	1.410577	0.280906	0.666282
C94	C	0.746008	-0.239189	-0.000103
C95	C	1.079342	0.094144	0.333230
C96	C	1.412675	0.427477	0.666564
C97	C	0.860341	-0.266601	0.071370
C98	C	1.193674	0.066732	0.404703
C99	C	1.527007	0.400065	0.738037
C100	C	0.857706	-0.413087	0.071431
C101	C	1.191040	-0.079753	0.404764
C102	C	1.524373	0.253580	0.738097
C103	C	0.859292	-0.413648	-0.070932
C104	C	1.192626	-0.080315	0.262401
C105	C	1.525959	0.253018	0.595734
C106	C	0.860004	-0.266682	-0.071878
C107	C	1.193337	0.066651	0.261456
C108	C	1.526670	0.399984	0.594789
C109	C	0.948292	0.158872	-0.000127
C110	C	1.281625	0.492205	0.333206
C111	C	1.614958	0.825538	0.666539
C112	C	1.025410	0.160922	-0.000142
C113	C	1.358743	0.494255	0.333191
C114	C	1.692076	0.827589	0.666524
C115	C	0.817431	0.400983	-0.000110
C116	C	1.150764	0.734316	0.333223
C117	C	1.484097	1.067650	0.666557
C118	C	0.819500	0.541884	-0.000111
C119	C	1.152833	0.875218	0.333222
C120	C	1.486166	1.208551	0.666556
N121	N	0.821335	0.168895	0.178046
N122	N	1.154668	0.502228	0.511380
N123	N	1.488002	0.835561	0.844713
N124	N	0.821371	0.168866	-0.178264
N125	N	1.154704	0.502199	0.155069
N126	N	1.488037	0.835533	0.488402
C127	C	0.863876	0.245637	0.782328
C128	C	1.197210	0.578970	1.115661
C129	C	1.530543	0.912304	1.448995
C130	C	0.863869	0.245649	0.703526
C131	C	1.197203	0.578983	1.036860
C132	C	1.530536	0.912316	1.370193
C133	C	0.821365	0.168867	0.664135
C134	C	1.154698	0.502201	0.997468
C135	C	1.488032	0.835534	1.330802
C136	C	0.778851	0.092092	0.703552
C137	C	1.112184	0.425425	1.036885
C138	C	1.445518	0.758758	1.370219
C139	C	0.778854	0.092091	0.782352
C140	C	1.112187	0.425424	1.115686
C141	C	1.445520	0.758758	1.449019
C142	C	0.818875	0.054425	0.539292
C143	C	1.152208	0.387758	0.872625
C144	C	1.485542	0.721092	1.205958
C145	C	0.818877	0.054423	0.460493
C146	C	1.152210	0.387756	0.793826
C147	C	1.485544	0.721090	1.127160
C148	C	0.821352	0.168870	0.421089
C149	C	1.154685	0.502203	0.754422
C150	C	1.488019	0.835537	1.087755
C151	C	0.823840	0.283321	0.460493
C152	C	1.157173	0.616654	0.793826
C153	C	1.490506	0.949988	1.127160
C154	C	0.823843	0.283321	0.539293
C155	C	1.157176	0.616654	0.872627
C156	C	1.490509	0.949987	1.205960
C157	C	0.821357	0.168860	0.578689
C158	C	1.154690	0.502193	0.912023
C159	C	1.488024	0.835526	1.245356
C160	C	0.863853	0.245661	0.296235
C161	C	1.197186	0.578994	0.629569
C162	C	1.530519	0.912327	0.962902
C163	C	0.863841	0.245676	0.217432
C164	C	1.197174	0.579009	0.550765
C165	C	1.530507	0.912342	0.884099
C166	C	0.778826	0.092106	0.217459
C167	C	1.112159	0.425440	0.550793
C168	C	1.445493	0.758773	0.884126
C169	C	0.778834	0.092103	0.296261
C170	C	1.112167	0.425436	0.629594
C171	C	1.445501	0.758770	0.962928
C172	C	0.821351	0.168878	0.335644
C173	C	1.154684	0.502212	0.668978
C174	C	1.488018	0.835545	1.002311
H175	H	0.163554	0.164646	0.123685
H176	H	0.496887	0.497979	0.457018
H177	H	0.830221	0.831313	0.790351
H178	H	0.917028	-0.245520	0.074021
H179	H	1.250362	0.087813	0.407354
H180	H	1.583695	0.421147	0.740687
Br181	Br	0.693135	-0.435570	0.084330
Br182	Br	1.026468	-0.102236	0.417663
Br183	Br	1.359802	0.231097	0.750996
H184	H	0.032183	0.161100	-0.123953
H185	H	0.365516	0.494433	0.209380
H186	H	0.698849	0.827767	0.542714
Br187	Br	0.721146	-0.012094	0.349746
Br188	Br	1.054479	0.321239	0.683080
Br189	Br	1.387813	0.654572	1.016413
H190	H	0.915048	-0.462126	-0.071420
H191	H	1.248381	-0.128793	0.261913
H192	H	1.581715	0.204541	0.595246
Br193	Br	0.721160	-0.012103	0.650095
Br194	Br	1.054494	0.321230	0.983428
Br195	Br	1.387827	0.654563	1.316761
Br196	Br	0.953807	-0.228411	-0.079093
Br197	Br	1.287140	0.104922	0.254240
Br198	Br	1.620473	0.438256	0.587573
H199	H	0.479146	0.173116	-0.123907
H200	H	0.812480	0.506449	0.209427
H201	H	1.145813	0.839782	0.542760
Br202	Br	0.395098	0.346429	-0.123336
Br203	Br	0.728431	0.679762	0.209997
Br204	Br	1.061765	1.013095	0.543330
H205	H	0.898496	0.308156	0.814389
H206	H	1.231829	0.641489	1.147723
H207	H	1.565162	0.974822	1.481056
H208	H	0.264601	0.032199	0.094728
H209	H	0.597934	0.365532	0.428061
H210	H	0.931267	0.698865	0.761395
Br211	Br	0.921570	0.349826	0.650033
Br212	Br	1.254904	0.683159	0.983366
Br213	Br	1.588237	1.016493	1.316699
H214	H	0.816856	-0.038771	0.428416
H215	H	1.150190	0.294563	0.761749
H216	H	1.483523	0.627896	1.095083
H217	H	0.816853	-0.038776	0.571368
H218	H	1.150186	0.294557	0.904702
H219	H	1.483520	0.627890	1.238035
H220	H	0.898469	0.308182	0.328303
H221	H	1.231802	0.641515	0.661636
H222	H	1.565136	0.974848	0.994970
Br223	Br	0.827214	0.438639	0.592769
Br224	Br	1.160548	0.771972	0.926102
Br225	Br	1.493881	1.105305	1.259435
Br226	Br	0.224305	0.341848	-0.123350
Br227	Br	0.557638	0.675181	0.209983
Br228	Br	0.890971	1.008515	0.543316
H229	H	0.825855	0.376515	0.428412
H230	H	1.159189	0.709848	0.761745
H231	H	1.492522	1.043182	1.095078
Br232	Br	0.921513	0.349910	0.163949
Br233	Br	1.254847	0.683243	0.497282
Br234	Br	1.588180	1.016576	0.830615
H235	H	0.396047	0.035742	0.094746
H236	H	0.729380	0.369076	0.428080
H237	H	1.062713	0.702409	0.761413
Br238	Br	0.721132	-0.012086	0.164008
Br239	Br	1.054466	0.321248	0.497341
Br240	Br	1.387799	0.654581	0.830675
Br241	Br	0.693092	-0.432285	-0.085826
Br242	Br	1.026426	-0.098952	0.247507
Br243	Br	1.359759	0.234382	0.580840
Br244	Br	0.721162	-0.012104	0.835838
Br245	Br	1.054495	0.321229	1.169171
Br246	Br	1.387829	0.654563	1.502504
H247	H	0.610596	0.176639	-0.123894
H248	H	0.943929	0.509973	0.209439
H249	H	1.277263	0.843306	0.542772
H250	H	0.830246	-0.440667	0.124874
H251	H	1.163579	-0.107334	0.458207
H252	H	1.496913	0.226000	0.791540
H253	H	0.163633	0.164623	-0.123942
H254	H	0.496966	0.497957	0.209392
H255	H	0.830299	0.831290	0.542725
Br256	Br	0.012424	0.160596	0.160719
Br257	Br	0.345757	0.493929	0.494053
Br258	Br	0.679091	0.827262	0.827386
H259	H	0.834315	-0.444643	-0.125113
H260	H	1.167649	-0.111310	0.208220
H261	H	1.500982	0.222023	0.541554
Br262	Br	0.817323	-0.194635	0.160049
Br263	Br	1.150656	0.138698	0.493382
Br264	Br	1.483990	0.472032	0.826715
Br265	Br	0.630179	0.177236	0.160783
Br266	Br	0.963512	0.510570	0.494117
Br267	Br	1.296845	0.843903	0.827450
Br268	Br	0.459387	0.172625	0.160762
Br269	Br	0.792720	0.505959	0.494096
Br270	Br	1.126053	0.839292	0.827429
H271	H	0.716784	-0.195933	-0.051345
H272	H	1.050117	0.137401	0.281988
H273	H	1.383451	0.470734	0.615322
H274	H	0.716567	-0.196770	0.051232
H275	H	1.049901	0.136564	0.384566
H276	H	1.383234	0.469897	0.717899
H277	H	0.832828	-0.225217	-0.124759
H278	H	1.166162	0.108117	0.208574
H279	H	1.499495	0.441450	0.541907
Br280	Br	0.950232	-0.495122	0.076834
Br281	Br	1.283565	-0.161789	0.410167
Br282	Br	1.616898	0.171545	0.743500
