data_functionalizedCrystal
_audit_creation_method	'MofGen! by Chris Wilmer'
_symmetry_space_group_name_H-M	'P1'
_symmetry_Int_Tables_number	1
_symmetry_cell_setting	triclinic
loop_
_symmetry_equiv_pos_as_xyz
  x,y,z
_cell_length_a	12.759395
_cell_length_b	12.759394
_cell_length_c	13.032268
_cell_angle_alpha	82.850556
_cell_angle_beta	82.835934
_cell_angle_gamma	90.015598
loop_
_atom_site_label
_atom_site_type_symbol
_atom_site_fract_x
_atom_site_fract_y
_atom_site_fract_z
Zn1	Zn	1.530772	-0.493643	0.590820
Zn2	Zn	1.552990	-0.647045	0.416083
Zn3	Zn	1.377396	-0.471385	0.416100
Zn4	Zn	1.355067	-0.669278	0.590776
O5	O	1.454056	-0.570338	0.503445
O6	O	1.680739	-0.514003	0.567652
O7	O	1.548340	-0.605123	0.269854
O8	O	1.397787	-0.327320	0.439303
O9	O	1.697062	-0.626706	0.439273
O10	O	1.510472	-0.343673	0.567669
O11	O	1.419332	-0.476066	0.269867
O12	O	1.227414	-0.497625	0.439260
O13	O	1.359732	-0.664599	0.737013
O14	O	1.211010	-0.643016	0.567593
O15	O	1.488821	-0.535561	0.737045
O16	O	1.526689	-0.797012	0.439230
O17	O	1.381276	-0.813346	0.567577
C18	C	1.181091	-0.570318	0.503424
C19	C	1.064313	-0.570339	0.503440
C20	C	0.827848	-0.453253	0.637372
C21	C	0.874203	-0.394684	0.704308
C22	C	0.983927	-0.394664	0.704290
C23	C	1.047299	-0.453221	0.637331
C24	C	1.000944	-0.511790	0.570395
C25	C	0.891217	-0.511802	0.570418
C26	C	1.017958	-0.628908	0.436504
C27	C	0.908235	-0.628924	0.436515
C28	C	1.081330	-0.687465	0.369545
C29	C	1.034976	-0.746030	0.302602
C30	C	0.925245	-0.746047	0.302622
C31	C	0.861880	-0.687492	0.369579
C32	C	1.453996	-0.843302	0.503419
C33	C	1.454062	-0.960082	0.503444
C34	C	1.605569	-0.943032	0.369896
C35	C	1.681348	-0.989369	0.303135
C36	C	1.681406	-1.099095	0.303164
C37	C	1.605679	-1.162486	0.369963
C38	C	1.529900	-1.116148	0.436724
C39	C	1.529848	-1.006420	0.436686
C40	C	1.378400	-1.133199	0.570275
C41	C	1.378335	-1.023473	0.570243
C42	C	1.302672	-1.196590	0.637074
C43	C	1.226887	-1.150252	0.703831
C44	C	1.226831	-1.040520	0.703799
C45	C	1.302556	-0.977135	0.637004
C46	C	1.728087	-0.570358	0.503466
C47	C	1.844862	-0.570366	0.503475
C48	C	1.419307	-0.605043	0.776005
C49	C	1.404499	-0.619833	0.892154
C50	C	1.454142	-0.296310	0.503493
C51	C	1.454179	-0.179536	0.503513
C52	C	1.488730	-0.535691	0.231944
C53	C	1.503742	-0.520606	0.115796
C54	C	1.461768	-0.562581	0.943953
C55	C	1.446465	-0.577865	1.064000
H56	H	0.738507	-0.453238	0.637371
C57	C	1.543315	-0.481077	0.883810
C58	C	1.507318	-0.389104	0.808759
C59	C	1.588868	-0.307599	0.748618
C60	C	1.706414	-0.318067	0.763529
C61	C	1.742416	-0.410044	0.838583
C62	C	1.660867	-0.491549	0.898724
H63	H	1.420298	-0.381351	0.797719
H64	H	1.562216	-0.239512	0.693058
H65	H	1.766782	-0.257732	0.719009
H66	H	1.829436	-0.417797	0.849623
H67	H	1.687519	-0.559636	0.954284
H68	H	1.086580	-0.793708	0.248094
H69	H	0.887509	-0.793746	0.248119
C70	C	1.364915	-0.659376	1.124136
C71	C	1.400914	-0.751350	1.199185
C72	C	1.319366	-0.832859	1.259323
C73	C	1.201820	-0.822393	1.244412
C74	C	1.165816	-0.730415	1.169360
C75	C	1.247363	-0.648907	1.109222
H76	H	1.487934	-0.759100	1.210226
H77	H	1.346020	-0.900947	1.314882
H78	H	1.141454	-0.882731	1.288930
H79	H	1.078796	-0.722665	1.158319
H80	H	1.220710	-0.580819	1.053664
C81	C	1.764648	-0.919639	0.229661
C82	C	1.764593	-0.798944	0.229622
C83	C	1.847896	-0.729219	0.156153
C84	C	1.931254	-0.780189	0.082722
C85	C	1.931312	-0.900891	0.082759
C86	C	1.848009	-0.970616	0.156228
H87	H	1.702884	-0.761207	0.283982
H88	H	1.847853	-0.639868	0.156126
H89	H	1.992920	-0.728575	0.028336
H90	H	1.993022	-0.938628	0.028399
H91	H	1.848053	-1.059967	0.156255
C92	C	1.034924	-0.330239	0.777919
C93	C	0.965228	-0.265832	0.851573
C94	C	1.016226	-0.201408	0.925201
C95	C	1.136919	-0.201392	0.925175
C96	C	1.206622	-0.265802	0.851518
C97	C	1.155624	-0.330225	0.777890
H98	H	0.875877	-0.265841	0.851595
H99	H	0.964627	-0.153727	0.979727
H100	H	1.174671	-0.153701	0.979679
H101	H	1.295973	-0.265792	0.851496
H102	H	1.207224	-0.377906	0.723364
H103	H	1.344133	-0.680156	0.936681
C104	C	1.764759	-1.150074	0.229726
C105	C	1.771408	-1.119930	0.110920
C106	C	1.854759	-1.170910	0.037483
C107	C	1.931462	-1.252035	0.082852
C108	C	1.924817	-1.282183	0.201665
C109	C	1.841465	-1.231203	0.275102
H110	H	1.714625	-1.059873	0.077330
H111	H	1.859678	-1.148592	-0.050469
H112	H	1.993164	-1.289774	0.028490
H113	H	1.981599	-1.342240	0.235255
H114	H	1.836546	-1.253521	0.363054
C115	C	1.143470	-0.989552	0.777239
C116	C	1.060181	-1.059283	0.850708
C117	C	0.976818	-1.008321	0.924148
C118	C	0.976745	-0.887627	0.924120
C119	C	1.060038	-0.817889	0.850648
C120	C	1.143400	-0.868852	0.777208
H121	H	1.060232	-1.148634	0.850731
H122	H	0.915159	-1.059946	0.978537
H123	H	0.915035	-0.849902	0.978485
H124	H	1.059987	-0.728538	0.850625
H125	H	1.205059	-0.817226	0.722819
H126	H	1.170671	-0.687452	0.369541
C127	C	1.585291	-0.439092	1.055664
C128	C	1.549292	-0.347115	0.980618
C129	C	1.630839	-0.265602	0.920487
C130	C	1.748384	-0.276065	0.935401
C131	C	1.784389	-0.368046	1.010450
C132	C	1.702842	-0.449559	1.070581
H133	H	1.462273	-0.339366	0.969574
H134	H	1.604185	-0.197512	0.864930
H135	H	1.808750	-0.215724	0.890888
H136	H	1.871408	-0.375795	1.021494
H137	H	1.729496	-0.517649	1.126138
H138	H	1.136640	-0.453210	0.637332
H139	H	0.822593	-0.347010	0.758828
H140	H	0.772537	-0.687486	0.369589
H141	H	1.605518	-0.853685	0.369853
H142	H	1.605741	-1.251830	0.369989
H143	H	1.302512	-0.887789	0.636965
H144	H	1.302729	-1.285934	0.637097
H145	H	1.165240	-1.201874	0.758218
