data_functionalizedCrystal
_audit_creation_method	'MofGen! by Chris Wilmer'
_symmetry_space_group_name_H-M	'P1'
_symmetry_Int_Tables_number	1
_symmetry_cell_setting	triclinic
loop_
_symmetry_equiv_pos_as_xyz
  x,y,z
_cell_length_a	13.032831
_cell_length_b	16.959454
_cell_length_c	13.033109
_cell_angle_alpha	97.156051
_cell_angle_beta	76.665514
_cell_angle_gamma	82.825094
loop_
_atom_site_label
_atom_site_type_symbol
_atom_site_fract_x
_atom_site_fract_y
_atom_site_fract_z
Zn1	Zn	1.700086	-0.555675	-0.806431
Zn2	Zn	1.677413	-0.668626	-0.628819
Zn3	Zn	1.499912	-0.517229	-0.606323
Zn4	Zn	1.522428	-0.668557	-0.783863
O5	O	1.599960	-0.602522	-0.706359
O6	O	1.845714	-0.586777	-0.801730
O7	O	1.634955	-0.632483	-0.477202
O8	O	1.526532	-0.411728	-0.632898
O9	O	1.829056	-0.669762	-0.671239
O10	O	1.673599	-0.439973	-0.779917
O11	O	1.504547	-0.521252	-0.460675
O12	O	1.354264	-0.521184	-0.611014
O13	O	1.564906	-0.669643	-0.935489
O14	O	1.370806	-0.632364	-0.741452
O15	O	1.695431	-0.586710	-0.952070
O16	O	1.656787	-0.779219	-0.649356
O17	O	1.542920	-0.779168	-0.763266
C18	C	1.323995	-0.572595	-0.671344
C19	C	1.205940	-0.559814	-0.656389
C20	C	1.161507	-0.609192	-0.714164
C21	C	1.039490	-0.595984	-0.698709
C22	C	1.599869	-0.807877	-0.706330
C23	C	1.599931	-0.895742	-0.706365
C24	C	1.540767	-1.267233	-0.765677
C25	C	1.659462	-1.267251	-0.647186
C26	C	1.659424	-1.184700	-0.647172
C27	C	1.600055	-1.143412	-0.706410
C28	C	1.540724	-1.184674	-0.765662
C29	C	1.718745	-1.143429	-0.587912
C30	C	1.718708	-1.060873	-0.587894
C31	C	1.659344	-1.019585	-0.647139
C32	C	1.600012	-1.060853	-0.706395
C33	C	1.540643	-1.019564	-0.765632
C34	C	1.481316	-1.060832	-0.824895
C35	C	1.481361	-1.143386	-0.824907
C36	C	1.659300	-0.937031	-0.647127
C37	C	1.540600	-0.937005	-0.765617
C38	C	1.877002	-0.632566	-0.741511
C39	C	1.995061	-0.645369	-0.756491
C40	C	1.635209	-0.632457	-0.983396
C41	C	1.650231	-0.645214	-1.101452
C42	C	1.600083	-0.396371	-0.706415
C43	C	1.600136	-0.308522	-0.706439
C44	C	1.592404	-0.595866	-1.145908
C45	C	1.607928	-0.609050	-1.267926
C46	C	1.564908	-0.572652	-0.430408
C47	C	1.550093	-0.559696	-0.312378
H48	H	1.047348	-0.697422	-0.817406
H49	H	1.213799	-0.661243	-0.775072
C50	C	1.468837	-0.490364	-1.242517
C51	C	1.469615	-0.491054	-1.135386
C52	C	1.394787	-0.427194	-1.071002
H53	H	1.399696	-0.496069	-1.251454
H54	H	1.486706	-0.440868	-1.262569
H55	H	1.451739	-0.540539	-1.115340
H56	H	1.538738	-0.485339	-1.126415
H57	H	1.412657	-0.377697	-1.091053
H58	H	1.325652	-0.432904	-1.079948
H59	H	1.395312	-0.427649	-0.998307
H60	H	0.987203	-0.543925	-0.637805
H61	H	1.707791	-1.300871	-0.598951
H62	H	1.711230	-0.697223	-1.153725
H63	H	1.531399	-0.543861	-1.093635
H64	H	1.668931	-0.661062	-1.320195
H65	H	1.492259	-0.903394	-0.813861
H66	H	1.153649	-0.507759	-0.595490
H67	H	1.432972	-1.027205	-0.873121
C68	C	1.416969	-1.188323	-0.889123
C69	C	1.429687	-1.269452	-0.876426
C70	C	1.370372	-1.310873	-0.935549
H71	H	1.441463	-1.184262	-0.962499
H72	H	1.343600	-1.165455	-0.864447
H73	H	1.503040	-1.292314	-0.901108
H74	H	1.405187	-1.273537	-0.803063
H75	H	1.297003	-1.288004	-0.910873
H76	H	1.394871	-1.306805	-1.008922
H77	H	1.378985	-1.365921	-0.926935
C78	C	1.783049	-1.188382	-0.523587
C79	C	1.770358	-1.269506	-0.536257
C80	C	1.829538	-1.310937	-0.476972
H81	H	1.758433	-1.165534	-0.450231
H82	H	1.856429	-1.184316	-0.548150
H83	H	1.696993	-1.273568	-0.511689
H84	H	1.794980	-1.292377	-0.609600
H85	H	1.902919	-1.306870	-0.501535
H86	H	1.804917	-1.288082	-0.403619
H87	H	1.820943	-1.365985	-0.485569
H88	H	1.767016	-1.027278	-0.539641
C89	C	1.723809	-0.892376	-0.582761
C90	C	1.775823	-0.946206	-0.530900
C91	C	1.835272	-0.905101	-0.471603
H92	H	1.677408	-0.850796	-0.531219
H93	H	1.775273	-0.869567	-0.629270
H94	H	1.724366	-0.969002	-0.484395
H95	H	1.822243	-0.987786	-0.582416
H96	H	1.886736	-0.882293	-0.518112
H97	H	1.788863	-0.863523	-0.420067
H98	H	1.870578	-0.941620	-0.436416
H99	H	1.492468	-1.300838	-0.813931
