data_functionalizedCrystal
_audit_creation_method	'MofGen! by Chris Wilmer'
_symmetry_space_group_name_H-M	'P1'
_symmetry_Int_Tables_number	1
_symmetry_cell_setting	triclinic
loop_
_symmetry_equiv_pos_as_xyz
  x,y,z
_cell_length_a	14.519731
_cell_length_b	14.519709
_cell_length_c	9.130313
_cell_angle_alpha	90.006165
_cell_angle_beta	90.000589
_cell_angle_gamma	83.684499
loop_
_atom_site_label
_atom_site_type_symbol
_atom_site_fract_x
_atom_site_fract_y
_atom_site_fract_z
O1	O	1.223850	0.120986	0.121806
O2	O	1.557183	0.454319	0.455139
O3	O	1.890517	0.787653	0.788472
O4	O	0.955376	0.135202	0.121808
O5	O	1.288709	0.468535	0.455142
O6	O	1.622042	0.801869	0.788475
O7	O	1.096731	-0.006144	0.121794
O8	O	1.430064	0.327189	0.455127
O9	O	1.763398	0.660523	0.788460
O10	O	1.082495	0.262332	0.121820
O11	O	1.415828	0.595665	0.455154
O12	O	1.749161	0.928999	0.788487
O13	O	1.096730	-0.006151	-0.121805
O14	O	1.430063	0.327183	0.211528
O15	O	1.763396	0.660516	0.544862
O16	O	0.955374	0.135195	-0.121791
O17	O	1.288708	0.468529	0.211543
O18	O	1.622041	0.801862	0.544876
O19	O	1.223849	0.120979	-0.121793
O20	O	1.557182	0.454312	0.211540
O21	O	1.890515	0.787646	0.544874
Cu22	Cu	1.089611	0.128087	-0.144034
Cu23	Cu	1.422945	0.461420	0.189299
Cu24	Cu	1.756278	0.794753	0.522632
Cu25	Cu	1.089613	0.128095	0.144050
Cu26	Cu	1.422946	0.461428	0.477383
Cu27	Cu	1.756280	0.794761	0.810716
O28	O	1.082493	0.262325	-0.121779
O29	O	1.415827	0.595658	0.211555
O30	O	1.749160	0.928992	0.544888
C31	C	0.921016	0.134532	0.000009
C32	C	1.254349	0.467866	0.333342
C33	C	1.587682	0.801199	0.666676
C34	C	0.818635	0.132536	0.000010
C35	C	1.151969	0.465870	0.333343
C36	C	1.485302	0.799203	0.666676
C37	C	0.735491	0.130915	0.000015
C38	C	1.068825	0.464248	0.333349
C39	C	1.402158	0.797581	0.666682
C40	C	0.631182	0.128888	0.000016
C41	C	0.964516	0.462221	0.333349
C42	C	1.297849	0.795555	0.666682
C43	C	0.548043	0.127280	0.000016
C44	C	0.881377	0.460613	0.333349
C45	C	1.214710	0.793946	0.666682
C46	C	0.443728	0.125253	0.000019
C47	C	0.777061	0.458586	0.333352
C48	C	1.110395	0.791920	0.666685
C49	C	1.096067	-0.040507	-0.000006
C50	C	1.429400	0.292826	0.333327
C51	C	1.762734	0.626160	0.666661
C52	C	1.094079	-0.142889	-0.000007
C53	C	1.427412	0.190445	0.333327
C54	C	1.760745	0.523778	0.666660
C55	C	1.086759	-0.517785	0.000031
C56	C	1.420093	-0.184452	0.333365
C57	C	1.753426	0.148882	0.666698
C58	C	1.088792	-0.413477	0.000020
C59	C	1.422125	-0.080143	0.333354
C60	C	1.755459	0.253190	0.666687
C61	C	1.090419	-0.330340	0.000011
C62	C	1.423752	0.002993	0.333344
C63	C	1.757085	0.336327	0.666678
C64	C	1.092452	-0.226025	0.000003
C65	C	1.425785	0.107308	0.333336
C66	C	1.759118	0.440641	0.666669
C67	C	1.258209	0.121649	0.000009
C68	C	1.591542	0.454982	0.333343
C69	C	1.924875	0.788315	0.666676
C70	C	1.360589	0.123645	0.000018
C71	C	1.693922	0.456978	0.333352
C72	C	2.027256	0.790311	0.666685
C73	C	1.083157	0.296688	0.000024
C74	C	1.416491	0.630022	0.333358
C75	C	1.749824	0.963355	0.666691
C76	C	1.085146	0.399070	0.000035
C77	C	1.418479	0.732403	0.333368
C78	C	1.751812	1.065736	0.666701
N79	N	1.089615	0.128094	0.346672
N80	N	1.422948	0.461427	0.680005
N81	N	1.756281	0.794760	1.013339
N82	N	1.089617	0.128080	-0.346657
N83	N	1.422950	0.461414	-0.013324
N84	N	1.756284	0.794747	0.320010
C85	C	1.152324	0.065628	0.423318
C86	C	1.485657	0.398961	0.756651
C87	C	1.818990	0.732295	1.089984
C88	C	1.152327	0.065623	0.576654
C89	C	1.485661	0.398957	0.909988
C90	C	1.818994	0.732290	1.243321
C91	C	1.026905	0.190552	0.576687
C92	C	1.360238	0.523886	0.910020
C93	C	1.693572	0.857219	1.243354
C94	C	1.026906	0.190561	0.423353
C95	C	1.360240	0.523894	0.756686
C96	C	1.693573	0.857228	1.090019
H97	H	1.203386	0.014765	0.360888
H98	H	1.536719	0.348098	0.694221
H99	H	1.870052	0.681431	1.027554
H100	H	1.203392	0.014759	0.639055
H101	H	1.536725	0.348093	0.972388
H102	H	1.870059	0.681426	1.305722
C103	C	0.972723	0.350013	0.623960
C104	C	1.306056	0.683346	0.957293
C105	C	1.639390	1.016679	1.290626
C106	C	0.957974	0.259208	0.660983
C107	C	1.291308	0.592542	0.994317
C108	C	1.624641	0.925875	1.327650
H109	H	0.930169	0.392396	0.676008
H110	H	1.263502	0.725729	1.009341
H111	H	1.596836	1.059062	1.342674
H112	H	0.963746	0.358954	0.521683
H113	H	1.297079	0.692287	0.855017
H114	H	1.630412	1.025620	1.188350
H115	H	1.034255	0.360274	0.649104
H116	H	1.367589	0.693607	0.982438
H117	H	1.700922	1.026941	1.315771
H118	H	0.896444	0.248945	0.635828
H119	H	1.229777	0.582278	0.969162
H120	H	1.563111	0.915611	1.302495
H121	H	0.966944	0.250263	0.763283
H122	H	1.300278	0.583597	1.096616
H123	H	1.633611	0.916930	1.429949
C124	C	0.867277	0.244064	0.376131
C125	C	1.200610	0.577397	0.709464
C126	C	1.533944	0.910731	1.042797
C127	C	0.957969	0.259225	0.339089
C128	C	1.291302	0.592559	0.672423
C129	C	1.624636	0.925892	1.005756
H130	H	0.824724	0.286451	0.324101
H131	H	1.158057	0.619784	0.657434
H132	H	1.491391	0.953117	0.990768
H133	H	0.858304	0.253004	0.478411
H134	H	1.191637	0.586337	0.811744
H135	H	1.524970	0.919670	1.145078
H136	H	0.857294	0.182457	0.350976
H137	H	1.190628	0.515790	0.684309
H138	H	1.523961	0.849123	1.017643
H139	H	0.967954	0.320831	0.364254
H140	H	1.301287	0.654164	0.697588
H141	H	1.634621	0.987497	1.030921
H142	H	0.966946	0.250293	0.236786
H143	H	1.300279	0.583626	0.570120
H144	H	1.633613	0.916960	0.903453
