data_functionalizedCrystal
_audit_creation_method	'MofGen! by Chris Wilmer'
_symmetry_space_group_name_H-M	'P1'
_symmetry_Int_Tables_number	1
_symmetry_cell_setting	triclinic
loop_
_symmetry_equiv_pos_as_xyz
  x,y,z
_cell_length_a	11.169417
_cell_length_b	19.077068
_cell_length_c	19.077174
_cell_angle_alpha	94.657148
_cell_angle_beta	87.687813
_cell_angle_gamma	92.327792
loop_
_atom_site_label
_atom_site_type_symbol
_atom_site_fract_x
_atom_site_fract_y
_atom_site_fract_z
Zn1	Zn	1.842479	-0.296659	-0.409791
Zn2	Zn	1.826830	-0.409814	-0.296635
Zn3	Zn	1.634039	-0.291947	-0.291927
Zn4	Zn	1.633960	-0.414511	-0.414486
O5	O	1.734327	-0.353233	-0.353210
O6	O	2.008353	-0.311675	-0.394786
O7	O	1.794740	-0.390241	-0.197362
O8	O	1.668272	-0.193923	-0.303626
O9	O	1.996855	-0.394810	-0.311650
O10	O	1.821412	-0.197385	-0.390220
O11	O	1.653098	-0.303644	-0.193903
O12	O	1.466079	-0.308199	-0.308179
O13	O	1.668136	-0.402816	-0.512511
O14	O	1.466020	-0.398246	-0.398223
O15	O	1.821334	-0.316230	-0.509061
O16	O	1.794663	-0.509086	-0.316203
O17	O	1.652962	-0.512537	-0.402788
C18	C	1.422502	-0.353222	-0.353200
C19	C	1.289102	-0.353235	-0.353213
C20	C	1.722139	-0.536391	-0.360532
C21	C	1.717036	-0.614748	-0.363688
C22	C	1.788477	-0.649742	-0.320128
C23	C	1.783685	-0.723366	-0.323100
C24	C	1.707445	-0.761996	-0.369629
C25	C	1.636002	-0.726998	-0.413194
C26	C	1.640801	-0.653374	-0.410225
C27	C	1.685180	-0.982382	-0.383344
C28	C	1.680384	-1.056010	-0.386308
C29	C	1.828070	-1.052374	-0.296215
C30	C	1.832857	-0.978749	-0.293246
C31	C	1.761418	-0.943757	-0.336814
N32	N	1.702542	-0.837253	-0.372667
N33	N	1.766328	-0.868502	-0.333779
C34	C	2.047369	-0.353244	-0.353219
C35	C	2.180769	-0.353249	-0.353224
C36	C	1.746472	-0.360573	-0.537080
C37	C	1.751647	-0.363700	-0.615434
C38	C	1.746596	-0.169360	-0.345874
C39	C	1.751825	-0.091004	-0.342748
C40	C	1.680336	-0.320085	-0.650444
C41	C	1.685194	-0.323029	-0.724066
C42	C	1.761370	-0.369587	-0.762678
C43	C	1.832683	-0.413207	-0.727663
C44	C	1.827818	-0.410266	-0.654042
C45	C	1.783821	-0.383223	-0.983055
C46	C	1.788683	-0.386160	-1.056681
C47	C	1.641192	-0.295982	-1.053079
C48	C	1.636339	-0.293042	-0.979457
C49	C	1.707648	-0.336665	-0.944448
N50	N	1.766340	-0.372597	-0.837932
N51	N	1.702670	-0.333658	-0.869196
C52	C	1.722302	-0.345870	-0.170053
C53	C	1.717372	-0.342544	-0.091691
H54	H	1.850554	-0.618294	-0.282235
H55	H	1.885897	-0.445777	-0.625538
C56	C	1.916194	-0.464581	-0.770145
N57	N	1.978998	-0.503332	-0.802143
C58	C	1.862268	-0.761856	-0.275176
N59	N	1.921459	-0.790845	-0.239076
H60	H	1.894937	-0.947298	-0.255358
H61	H	1.618315	-1.087462	-0.424211
H62	H	1.850720	-0.424073	-1.088117
H63	H	1.886233	-1.080873	-0.260746
C64	C	1.606658	-0.943902	-0.431306
N65	N	1.547535	-0.914917	-0.467446
H66	H	1.574305	-0.255132	-0.948024
C67	C	1.552132	-0.769493	-0.464375
N68	N	1.488955	-0.801500	-0.502922
H69	H	1.582627	-0.624883	-0.445697
H70	H	1.618312	-0.282168	-0.619011
C71	C	1.606758	-0.275041	-0.762573
N72	N	1.547681	-0.238892	-0.791576
C73	C	1.562749	-0.248005	-1.091594
N74	N	1.503659	-0.211868	-1.120604
C75	C	1.862333	-0.431171	-0.944554
N76	N	1.921497	-0.467274	-0.915552
