data_functionalizedCrystal
_audit_creation_method	'MofGen! by Chris Wilmer'
_symmetry_space_group_name_H-M	'P1'
_symmetry_Int_Tables_number	1
_symmetry_cell_setting	triclinic
loop_
_symmetry_equiv_pos_as_xyz
  x,y,z
_cell_length_a	18.101398
_cell_length_b	29.839131
_cell_length_c	18.101389
_cell_angle_alpha	89.978713
_cell_angle_beta	89.975673
_cell_angle_gamma	90.036686
loop_
_atom_site_label
_atom_site_type_symbol
_atom_site_fract_x
_atom_site_fract_y
_atom_site_fract_z
Zn1	Zn	1.132068	-0.178957	-0.418824
Zn2	Zn	1.131941	-0.254074	-0.294976
Zn3	Zn	1.008227	-0.178952	-0.294985
Zn4	Zn	1.008155	-0.254055	-0.418765
O5	O	1.070098	-0.216510	-0.356887
O6	O	1.235684	-0.188932	-0.402416
O7	O	1.115507	-0.244115	-0.191344
O8	O	1.024737	-0.116086	-0.311441
O9	O	1.235591	-0.244119	-0.311426
O10	O	1.115723	-0.116089	-0.402425
O11	O	1.024615	-0.188924	-0.191351
O12	O	0.904584	-0.188905	-0.311384
O13	O	1.024615	-0.244087	-0.522406
O14	O	0.904532	-0.244082	-0.402324
O15	O	1.115654	-0.188913	-0.522449
O16	O	1.115438	-0.316938	-0.311369
O17	O	1.024493	-0.316924	-0.402315
C18	C	0.877687	-0.216491	-0.356849
C19	C	0.795373	-0.216494	-0.356850
C20	C	0.496282	-0.216522	-0.356912
C21	C	0.527616	-0.181633	-0.299974
C22	C	0.613234	-0.181726	-0.299731
C23	C	0.644665	-0.216508	-0.356881
C24	C	0.613533	-0.263830	-0.335553
C25	C	0.527888	-0.263636	-0.335157
C26	C	0.527900	-0.204501	-0.435313
C27	C	0.613552	-0.203447	-0.434885
C28	C	0.728524	-0.216503	-0.356865
C29	C	0.412423	-0.216531	-0.356926
C30	C	1.069964	-0.333232	-0.356851
C31	C	1.069975	-0.383167	-0.356860
C32	C	1.117539	-0.692805	-0.309601
C33	C	1.117631	-0.880478	-0.309629
O34	O	1.157965	-0.904738	-0.269420
N35	N	1.070251	-0.903952	-0.356943
C36	C	1.022849	-0.880504	-0.404257
O37	O	0.982558	-0.904777	-0.444506
C38	C	1.022762	-0.692832	-0.404231
C39	C	1.070139	-0.669361	-0.356909
C40	C	1.164913	-0.669333	-0.262283
C41	C	1.164887	-0.622418	-0.262273
C42	C	1.117487	-0.598974	-0.309582
C43	C	1.070113	-0.622445	-0.356899
C44	C	0.975365	-0.669386	-0.451548
C45	C	0.975348	-0.622465	-0.451539
C46	C	1.022725	-0.598993	-0.404217
C47	C	1.022687	-0.552086	-0.404198
N48	N	1.070066	-0.528612	-0.356884
C49	C	1.117466	-0.552056	-0.309576
C50	C	1.022898	-0.979035	-0.404266
C51	C	1.022918	-1.025953	-0.404272
C52	C	1.117700	-1.025923	-0.309645
C53	C	1.117675	-0.979004	-0.309636
C54	C	1.070277	-0.955561	-0.356952
C55	C	1.117407	-0.453530	-0.309559
C56	C	1.117374	-0.406610	-0.309551
C57	C	1.022595	-0.406645	-0.404181
C58	C	1.022625	-0.453560	-0.404186
C59	C	1.070037	-0.477002	-0.356872
O60	O	0.982379	-0.527797	-0.444393
O61	O	1.157763	-0.527776	-0.269344
C62	C	1.117565	-0.739720	-0.309610
C63	C	1.070192	-0.763192	-0.356928
C64	C	1.022792	-0.739748	-0.404236
C65	C	1.070212	-0.810109	-0.356934
C66	C	1.117612	-0.833553	-0.309625
C67	C	1.164991	-0.810079	-0.262311
C68	C	1.164965	-0.763164	-0.262302
C69	C	0.975413	-0.763222	-0.451550
C70	C	0.975442	-0.810137	-0.451556
C71	C	1.022842	-0.833581	-0.404247
C72	C	1.263260	-0.216528	-0.356927
C73	C	1.345574	-0.216536	-0.356943
C74	C	1.070141	-0.216498	-0.550049
C75	C	1.070159	-0.216493	-0.632364
C76	C	1.070252	-0.099331	-0.356941
C77	C	1.070318	-0.049397	-0.356963
C78	C	1.070202	-0.216409	-0.931455
C79	C	1.012726	-0.251013	-0.900102
C80	C	1.012881	-0.251173	-0.814484
C81	C	1.070180	-0.216451	-0.783072
C82	C	1.148202	-0.229306	-0.814177
C83	C	1.147881	-0.229533	-0.899822
C84	C	1.050335	-0.168874	-0.899883
C85	C	1.048599	-0.169148	-0.814232
C86	C	1.070172	-0.216474	-0.699213
C87	C	1.070215	-0.216387	-1.015314
C88	C	1.070098	-0.216488	-0.164477
C89	C	1.070223	-0.216367	-0.082163
H90	H	0.633906	-0.168623	-0.450967
H91	H	0.506064	-0.189489	-0.242218
N92	N	0.940306	-0.241086	-0.788081
N93	N	0.928004	-0.239482	-0.720179
H94	H	0.876744	-0.232359	-0.701533
N95	N	0.976588	-0.156966	-0.788705
N96	N	0.949004	-0.120280	-0.807373
H97	H	0.898150	-0.111673	-0.789332
N98	N	0.502787	-0.276419	-0.263250
N99	N	0.520452	-0.253580	-0.208138
H100	H	0.502729	-0.262606	-0.157351
H101	H	1.165337	-0.263685	-0.792732
H102	H	1.192156	-0.205424	-0.920564
H103	H	1.156254	-0.959896	-0.271103
N104	N	1.097264	-0.135079	-0.787406
N105	N	1.088173	-0.095230	-0.806668
H106	H	1.122542	-0.071168	-0.787715
H107	H	1.203544	-0.744057	-0.223768
N108	N	1.166111	-1.049882	-0.261321
N109	N	1.166117	-1.091772	-0.261340
H110	H	1.200308	-1.108696	-0.227216
H111	H	1.192175	-0.204894	-0.793833
H112	H	0.994431	-0.157163	-0.921470
N113	N	0.939928	-0.241018	-0.925925
N114	N	0.929553	-0.208278	-0.967740
H115	H	0.878137	-0.201219	-0.985985
N116	N	0.639640	-0.137702	-0.316493
N117	N	0.623136	-0.119656	-0.376584
H118	H	0.641779	-0.088561	-0.388416
H119	H	1.092198	-0.143093	-0.920161
N120	N	0.640347	-0.233030	-0.490942
N121	N	0.683000	-0.264361	-0.474242
H122	H	0.701904	-0.285267	-0.513827
N123	N	0.500845	-0.161970	-0.459650
N124	N	0.432946	-0.155866	-0.467113
H125	H	0.413836	-0.125828	-0.484295
H126	H	0.633685	-0.189673	-0.241637
H127	H	1.025711	-0.286032	-0.921625
N128	N	0.501888	-0.297354	-0.384909
N129	N	0.546998	-0.320955	-0.419809
H130	H	0.528639	-0.344770	-0.454943
H131	H	0.507636	-0.229913	-0.477737
H132	H	1.025997	-0.286408	-0.793999
N133	N	0.926990	-0.739285	-0.499885
N134	N	0.884696	-0.760254	-0.542124
H135	H	0.850492	-0.743351	-0.576261
N136	N	1.169019	-0.273125	-0.924881
N137	N	1.183902	-0.303169	-0.879118
H138	H	1.198832	-0.333957	-0.896811
H139	H	1.155954	-0.387501	-0.271013
N140	N	0.927052	-0.834116	-0.499897
N141	N	0.927079	-0.876007	-0.499910
H142	H	0.892909	-0.892942	-0.534054
N143	N	0.974229	-0.477547	-0.452509
N144	N	0.927072	-0.503767	-0.426413
H145	H	0.892896	-0.520707	-0.460545
N146	N	0.974528	-1.049925	-0.452614
N147	N	1.000567	-1.076076	-0.499840
H148	H	0.966392	-1.093006	-0.533987
N149	N	0.639084	-0.297312	-0.385945
N150	N	0.706788	-0.304314	-0.393076
H151	H	0.724837	-0.327959	-0.428667
H152	H	1.203584	-0.829176	-0.223789
H153	H	0.507056	-0.146434	-0.313196
N154	N	0.974178	-0.382685	-0.452492
N155	N	0.974168	-0.340795	-0.452471
H156	H	0.939975	-0.323872	-0.486593
H157	H	1.203467	-0.603310	-0.223741
N158	N	0.640396	-0.276839	-0.264429
N159	N	0.682460	-0.251341	-0.229325
H160	H	0.701432	-0.260526	-0.179092
N161	N	1.165839	-0.477464	-0.261224
N162	N	1.208128	-0.456494	-0.218981
H163	H	1.242330	-0.473396	-0.184840
H164	H	1.203515	-0.688416	-0.223758
H165	H	0.984298	-0.959951	-0.442797
H166	H	0.936751	-0.603380	-0.490072
N167	N	0.926964	-0.693347	-0.499892
N168	N	0.884656	-0.672400	-0.542128
H169	H	0.850470	-0.689321	-0.576275
