data_functionalizedCrystal
_audit_creation_method	'MofGen! by Chris Wilmer'
_symmetry_space_group_name_H-M	'P1'
_symmetry_Int_Tables_number	1
_symmetry_cell_setting	triclinic
loop_
_symmetry_equiv_pos_as_xyz
  x,y,z
_cell_length_a	17.077404
_cell_length_b	12.594516
_cell_length_c	17.077396
_cell_angle_alpha	89.976855
_cell_angle_beta	89.980499
_cell_angle_gamma	90.016278
loop_
_atom_site_label
_atom_site_type_symbol
_atom_site_fract_x
_atom_site_fract_y
_atom_site_fract_z
Zn1	Zn	1.200092	-0.423736	-0.443872
Zn2	Zn	1.200015	-0.601736	-0.312618
Zn3	Zn	1.068824	-0.423773	-0.312620
Zn4	Zn	1.068807	-0.601673	-0.443842
O5	O	1.134434	-0.512730	-0.378238
O6	O	1.309929	-0.447359	-0.426473
O7	O	1.182586	-0.578171	-0.202771
O8	O	1.086276	-0.274822	-0.330044
O9	O	1.309872	-0.578135	-0.330041
O10	O	1.182718	-0.274795	-0.426474
O11	O	1.086201	-0.447422	-0.202773
O12	O	0.958975	-0.447361	-0.330015
O13	O	1.086248	-0.578027	-0.553693
O14	O	0.958963	-0.578064	-0.426423
O15	O	1.182702	-0.447297	-0.553715
O16	O	1.182571	-0.750674	-0.330012
O17	O	1.086173	-0.750627	-0.426421
C18	C	0.930487	-0.512710	-0.378216
C19	C	0.843237	-0.512728	-0.378226
C20	C	0.802261	-0.580887	-0.428345
C21	C	0.720280	-0.580890	-0.428357
C22	C	0.679277	-0.512737	-0.378246
C23	C	0.720259	-0.444570	-0.328125
C24	C	0.802238	-0.444563	-0.328117
C25	C	0.549389	-0.444591	-0.328144
C26	C	0.467404	-0.444599	-0.328150
C27	C	0.467431	-0.580917	-0.428384
C28	C	0.549410	-0.580910	-0.428376
C29	C	0.590386	-0.512745	-0.378253
C30	C	1.134383	-0.789271	-0.378230
C31	C	1.134433	-0.907576	-0.378253
C32	C	1.081997	-0.976843	-0.430653
C33	C	1.062873	-1.047703	-0.359026
C34	C	1.153628	-1.047515	-0.449893
C35	C	1.115271	-0.976878	-0.306587
C36	C	1.206059	-0.976684	-0.397503
C37	C	1.186963	-1.047512	-0.325826
C38	C	1.339179	-0.512750	-0.378260
C39	C	1.426428	-0.512758	-0.378269
C40	C	1.134482	-0.512651	-0.582982
C41	C	1.134502	-0.512618	-0.670232
C42	C	1.134507	-0.235109	-0.378263
C43	C	1.134539	-0.116803	-0.378273
C44	C	1.184728	-0.444541	-0.711235
C45	C	1.184737	-0.444506	-0.793216
C46	C	1.134524	-0.512553	-0.834192
C47	C	1.084293	-0.580633	-0.793183
C48	C	1.084281	-0.580662	-0.711204
C49	C	1.084325	-0.580569	-0.964053
C50	C	1.084339	-0.580541	-1.046038
C51	C	1.184782	-0.444412	-1.046065
C52	C	1.184769	-0.444442	-0.964086
C53	C	1.134538	-0.512523	-0.923083
C54	C	1.134432	-0.512731	-0.174290
C55	C	1.134564	-0.512465	-0.087041
H56	H	0.582749	-0.389073	-0.287335
C57	C	0.846633	-0.654923	-0.482840
C58	C	0.793197	-0.714592	-0.526750
C59	C	0.834042	-0.782794	-0.576970
H60	H	0.878596	-0.701342	-0.452842
H61	H	0.878617	-0.614285	-0.517131
H62	H	0.761227	-0.755227	-0.492463
H63	H	0.761233	-0.668202	-0.556764
H64	H	0.866026	-0.742155	-0.611261
H65	H	0.866003	-0.829205	-0.546965
H66	H	0.797792	-0.823280	-0.606774
H67	H	1.231351	-1.078346	-0.281470
H68	H	0.434065	-0.636417	-0.469198
H69	H	0.582793	-0.636412	-0.469177
H70	H	1.043406	-0.636034	-0.826552
H71	H	0.434022	-0.389090	-0.287355
C72	C	0.675885	-0.370458	-0.273687
C73	C	0.729320	-0.310745	-0.229807
C74	C	0.688474	-0.242453	-0.179656
H75	H	0.643882	-0.411000	-0.239367
H76	H	0.643942	-0.324080	-0.303757
H77	H	0.761250	-0.357117	-0.199740
H78	H	0.761325	-0.270181	-0.264106
H79	H	0.656530	-0.196075	-0.209726
H80	H	0.656473	-0.283004	-0.145341
H81	H	0.724723	-0.201923	-0.149883
H82	H	1.225619	-0.389132	-0.677878
C83	C	0.846832	-0.370737	-0.273653
C84	C	0.893880	-0.430912	-0.223277
C85	C	0.934979	-0.362935	-0.173103
H86	H	0.810764	-0.330124	-0.243733
H87	H	0.878877	-0.324428	-0.303716
H88	H	0.861838	-0.477202	-0.193217
H89	H	0.929963	-0.471523	-0.253176
H90	H	0.967024	-0.316626	-0.203166
H91	H	0.898905	-0.322325	-0.143188
H92	H	0.966911	-0.403753	-0.138922
H93	H	1.037575	-0.945811	-0.474902
H94	H	1.002349	-1.078921	-0.342760
C95	C	1.239358	-0.370557	-0.837592
C96	C	1.283348	-0.310997	-0.784160
C97	C	1.333682	-0.242872	-0.825010
H98	H	1.209439	-0.324067	-0.869573
H99	H	1.273594	-0.411245	-0.869558
H100	H	1.249116	-0.270312	-0.752208
H101	H	1.313283	-0.357459	-0.752177
H102	H	1.367918	-0.283560	-0.856976
H103	H	1.303757	-0.196388	-0.856990
H104	H	1.363540	-0.202459	-0.788763
H105	H	1.043374	-0.636087	-0.677820
H106	H	0.686922	-0.636393	-0.469169
C107	C	1.093557	-0.935479	-0.225856
C108	C	1.093703	-0.824317	-0.226801
C109	C	1.073691	-0.786142	-0.152451
H110	H	1.130577	-0.960128	-0.188544
H111	H	1.042852	-0.960329	-0.212098
H112	H	1.144400	-0.799477	-0.240550
H113	H	1.056682	-0.799640	-0.264098
H114	H	1.022985	-0.810991	-0.138693
H115	H	1.110713	-0.810797	-0.115145
H116	H	1.073780	-0.710715	-0.153085
C117	C	1.286715	-0.935108	-0.419395
C118	C	1.306455	-0.970811	-0.494482
C119	C	1.380744	-0.932519	-0.514688
H120	H	1.324212	-0.960331	-0.382775
H121	H	1.286215	-0.859682	-0.418801
H122	H	1.306961	-1.046221	-0.495070
H123	H	1.268978	-0.945590	-0.531118
H124	H	1.380245	-0.857092	-0.514094
H125	H	1.418235	-0.957744	-0.478063
H126	H	1.394145	-0.956729	-0.565638
C127	C	1.175117	-1.088742	-0.530733
C128	C	1.119980	-1.052912	-0.585339
C129	C	1.139750	-1.090852	-0.659818
H130	H	1.175457	-1.164158	-0.530152
H131	H	1.225591	-1.063349	-0.544802
H132	H	1.069520	-1.078310	-0.571273
H133	H	1.119633	-0.977501	-0.585944
H134	H	1.190223	-1.065459	-0.673887
H135	H	1.140089	-1.166267	-0.659229
H136	H	1.102347	-1.066539	-0.696878
H137	H	1.225661	-0.389037	-0.930725
C138	C	1.239180	-0.370346	-1.090614
C139	C	1.194755	-0.302078	-1.137653
C140	C	1.244838	-0.233827	-1.178697
H141	H	1.273394	-0.410919	-1.122666
H142	H	1.269068	-0.329766	-1.054490
H143	H	1.164881	-0.342654	-1.173773
H144	H	1.160543	-0.261482	-1.105621
H145	H	1.274726	-0.193247	-1.142572
H146	H	1.279050	-0.274408	-1.210744
H147	H	1.214703	-0.187493	-1.210612
C148	C	1.029776	-0.654624	-0.919675
C149	C	0.985827	-0.714243	-0.973104
C150	C	0.935587	-0.782494	-0.932252
H151	H	0.995504	-0.614057	-0.887681
H152	H	1.059786	-0.701063	-0.887722
H153	H	0.955819	-0.667810	-1.005044
H154	H	1.020078	-0.754832	-1.005100
H155	H	0.965597	-0.828934	-0.900299
H156	H	0.901321	-0.741919	-0.900260
H157	H	0.905767	-0.822961	-0.968497
H158	H	1.043449	-0.635949	-1.079398
