data_functionalizedCrystal
_audit_creation_method	'MofGen! by Chris Wilmer'
_symmetry_space_group_name_H-M	'P1'
_symmetry_Int_Tables_number	1
_symmetry_cell_setting	triclinic
loop_
_symmetry_equiv_pos_as_xyz
  x,y,z
_cell_length_a	29.839134
_cell_length_b	29.839131
_cell_length_c	21.395355
_cell_angle_alpha	90.027826
_cell_angle_beta	90.034273
_cell_angle_gamma	90.030088
loop_
_atom_site_label
_atom_site_type_symbol
_atom_site_fract_x
_atom_site_fract_y
_atom_site_fract_z
Zn1	Zn	0.686793	-0.178967	0.354383
Zn2	Zn	1.186793	0.321033	0.854383
Zn3	Zn	0.686718	-0.254082	0.249589
Zn4	Zn	1.186718	0.245918	0.749589
Zn5	Zn	0.611660	-0.178960	0.249602
Zn6	Zn	1.111660	0.321040	0.749602
Zn7	Zn	0.611632	-0.254064	0.354311
Zn8	Zn	1.111632	0.245936	0.854311
O9	O	0.649201	-0.216518	0.301971
O10	O	1.149201	0.283482	0.801971
O11	O	0.749650	-0.188942	0.340507
O12	O	1.249650	0.311058	0.840507
O13	O	0.676741	-0.244122	0.161913
O14	O	1.176741	0.255878	0.661913
O15	O	0.621670	-0.116094	0.263538
O16	O	1.121670	0.383906	0.763538
O17	O	0.749595	-0.244128	0.263515
O18	O	1.249595	0.255872	0.763515
O19	O	0.676870	-0.116099	0.340520
O20	O	1.176870	0.383901	0.840520
O21	O	0.621597	-0.188930	0.161923
O22	O	1.121597	0.311070	0.661923
O23	O	0.548789	-0.188912	0.263468
O24	O	1.048789	0.311088	0.763468
O25	O	0.621622	-0.244097	0.441999
O26	O	1.121622	0.255903	0.941999
O27	O	0.548769	-0.244091	0.340397
O28	O	1.048769	0.255909	0.840397
O29	O	0.676843	-0.188924	0.442052
O30	O	1.176843	0.311076	0.942052
O31	O	0.676714	-0.316947	0.263445
O32	O	1.176714	0.183053	0.763445
O33	O	0.621549	-0.316933	0.340384
O34	O	1.121549	0.183067	0.840384
C35	C	0.532478	-0.216499	0.301926
C36	C	1.032478	0.283501	0.801926
C37	C	0.482544	-0.216502	0.301922
C38	C	0.982544	0.283498	0.801922
C39	C	0.172899	-0.245292	0.341979
C40	C	0.672899	0.254708	0.841979
C41	C	-0.014774	-0.245305	0.342007
C42	C	0.485226	0.254695	0.842007
O43	O	-0.039040	-0.269762	0.376039
O44	O	0.460960	0.230238	0.876039
N45	N	-0.038241	-0.216535	0.302019
N46	N	0.461759	0.283465	0.802019
C47	C	-0.014788	-0.187758	0.262023
C48	C	0.485212	0.312242	0.762023
O49	O	-0.039054	-0.163284	0.228015
O50	O	0.460946	0.336716	0.728015
C51	C	0.172885	-0.187743	0.261999
C52	C	0.672885	0.312257	0.761999
C53	C	0.196350	-0.216518	0.301986
C54	C	0.696350	0.283482	0.801986
C55	C	0.196364	-0.274065	0.381963
C56	C	0.696364	0.225935	0.881963
C57	C	0.243280	-0.274063	0.381954
C58	C	0.743280	0.225937	0.881954
C59	C	0.266730	-0.245289	0.341960
C60	C	0.766730	0.254711	0.841960
C61	C	0.243265	-0.216516	0.301976
C62	C	0.743265	0.283484	0.801976
C63	C	0.196338	-0.158964	0.222007
C64	C	0.696338	0.341036	0.722007
C65	C	0.243259	-0.158962	0.222006
C66	C	0.743259	0.341038	0.722006
C67	C	0.266724	-0.187737	0.261992
C68	C	0.766724	0.312263	0.761992
C69	C	0.313631	-0.187740	0.261972
C70	C	0.813631	0.312260	0.761972
N71	N	0.337098	-0.216510	0.301961
N72	N	0.837098	0.283490	0.801961
C73	C	0.313648	-0.245285	0.341955
C74	C	0.813648	0.254715	0.841955
C75	C	-0.113318	-0.187768	0.262038
C76	C	0.386682	0.312232	0.762038
C77	C	-0.160236	-0.187772	0.262043
C78	C	0.339764	0.312228	0.762043
C79	C	-0.160219	-0.245319	0.342028
C80	C	0.339781	0.254681	0.842028
C81	C	-0.113300	-0.245317	0.342019
C82	C	0.386700	0.254683	0.842019
C83	C	-0.089851	-0.216538	0.302026
C84	C	0.410149	0.283462	0.802026
C85	C	0.412174	-0.245279	0.341931
C86	C	0.912174	0.254721	0.841931
C87	C	0.459093	-0.245276	0.341915
C88	C	0.959093	0.254724	0.841915
C89	C	0.459072	-0.187728	0.261933
C90	C	0.959072	0.312272	0.761933
C91	C	0.412157	-0.187732	0.261946
C92	C	0.912157	0.312268	0.761946
C93	C	0.388709	-0.216509	0.301949
C94	C	0.888709	0.283491	0.801949
O95	O	0.337926	-0.163292	0.227963
O96	O	0.837926	0.336708	0.727963
O97	O	0.337923	-0.269748	0.375967
O98	O	0.837923	0.230252	0.875967
C99	C	0.125984	-0.245294	0.341989
C100	C	0.625984	0.254706	0.841989
C101	C	0.102519	-0.216521	0.302005
C102	C	0.602519	0.283479	0.802005
C103	C	0.125969	-0.187747	0.262011
C104	C	0.625969	0.312253	0.762011
C105	C	0.055601	-0.216526	0.302010
C106	C	0.555601	0.283474	0.802010
C107	C	0.032150	-0.245300	0.342004
C108	C	0.532150	0.254700	0.842004
C109	C	0.055618	-0.274070	0.381993
C110	C	0.555618	0.225930	0.881993
C111	C	0.102533	-0.274068	0.381983
C112	C	0.602533	0.225932	0.881983
C113	C	0.102502	-0.158977	0.222023
C114	C	0.602502	0.341023	0.722023
C115	C	0.055586	-0.158982	0.222035
C116	C	0.555586	0.341018	0.722035
C117	C	0.032136	-0.187756	0.262029
C118	C	0.532136	0.312244	0.762029
C119	C	0.649132	-0.333241	0.301919
C120	C	1.149132	0.166759	0.801919
C121	C	0.649144	-0.383175	0.301917
C122	C	1.149144	0.116825	0.801917
C123	C	0.677937	-0.692786	0.342113
C124	C	1.177937	-0.192786	0.842113
C125	C	0.677986	-0.880459	0.342151
C126	C	1.177986	-0.380459	0.842151
O127	O	0.702400	-0.904697	0.376288
O128	O	1.202400	-0.404697	0.876288
N129	N	0.649277	-0.903960	0.302041
N130	N	1.149277	-0.403960	0.802041
C131	C	0.620552	-0.880540	0.261922
C132	C	1.120552	-0.380540	0.761922
O133	O	0.596131	-0.904836	0.227811
O134	O	1.096131	-0.404836	0.727811
C135	C	0.620501	-0.692868	0.261888
C136	C	1.120501	-0.192868	0.761888
C137	C	0.649215	-0.669369	0.301996
C138	C	1.149215	-0.169369	0.801996
C139	C	0.706649	-0.669288	0.382218
C140	C	1.206649	-0.169288	0.882218
C141	C	0.706638	-0.622372	0.382206
C142	C	1.206638	-0.122372	0.882206
C143	C	0.677916	-0.598955	0.342089
C144	C	1.177916	-0.098955	0.842089
C145	C	0.649204	-0.622454	0.301983
C146	C	1.149204	-0.122454	0.801983
C147	C	0.591774	-0.669449	0.221772
C148	C	1.091774	-0.169449	0.721772
C149	C	0.591763	-0.622528	0.221768
C150	C	1.091763	-0.122528	0.721768
C151	C	0.620477	-0.599029	0.261876
C152	C	1.120477	-0.099029	0.761876
C153	C	0.620472	-0.552122	0.261854
C154	C	1.120472	-0.052122	0.761854
N155	N	0.649181	-0.528621	0.301964
N156	N	1.149181	-0.028621	0.801964
C157	C	0.677903	-0.552038	0.342081
C158	C	1.177903	-0.052038	0.842081
C159	C	0.620581	-0.979071	0.261942
C160	C	1.120581	-0.479071	0.761942
C161	C	0.620594	-1.025989	0.261949
C162	C	1.120594	-0.525989	0.761949
C163	C	0.678028	-1.025905	0.342179
C164	C	1.178028	-0.525905	0.842179
C165	C	0.678017	-0.978986	0.342168
C166	C	1.178017	-0.478986	0.842168
C167	C	0.649290	-0.955570	0.302051
C168	C	1.149290	-0.455570	0.802051
C169	C	0.677878	-0.453512	0.342052
C170	C	1.177878	0.046488	0.842052
C171	C	0.677866	-0.406592	0.342034
C172	C	1.177866	0.093408	0.842034
C173	C	0.620431	-0.406680	0.261807
C174	C	1.120431	0.093320	0.761807
C175	C	0.620444	-0.453596	0.261822
C176	C	1.120444	0.046404	0.761822
C177	C	0.649170	-0.477010	0.301950
C178	C	1.149170	0.022990	0.801950
O179	O	0.596067	-0.527855	0.227740
O180	O	1.096067	-0.027855	0.727740
O181	O	0.702313	-0.527734	0.376196
O182	O	1.202313	-0.027734	0.876196
C183	C	0.677948	-0.739702	0.342125
C184	C	1.177948	-0.239702	0.842125
C185	C	0.649237	-0.763200	0.302020
C186	C	1.149237	-0.263200	0.802020
C187	C	0.620515	-0.739784	0.261903
C188	C	1.120515	-0.239784	0.761903
C189	C	0.649250	-0.810118	0.302028
C190	C	1.149250	-0.310118	0.802028
C191	C	0.677972	-0.833535	0.342145
C192	C	1.177972	-0.333535	0.842145
C193	C	0.706681	-0.810034	0.382255
C194	C	1.206681	-0.310034	0.882255
C195	C	0.706670	-0.763119	0.382243
C196	C	1.206670	-0.263119	0.882243
C197	C	0.591806	-0.763284	0.221793
C198	C	1.091806	-0.263284	0.721793
C199	C	0.591819	-0.810200	0.221808
C200	C	1.091819	-0.310200	0.721808
C201	C	0.620541	-0.833617	0.261925
C202	C	1.120541	-0.333617	0.761925
C203	C	0.766379	-0.216538	0.302017
C204	C	1.266379	0.283462	0.802017
C205	C	0.816314	-0.216546	0.302037
C206	C	1.316314	0.283454	0.802037
C207	C	0.649238	-0.216509	0.465395
C208	C	1.149238	0.283491	0.965395
C209	C	0.649254	-0.216505	0.535036
C210	C	1.149254	0.283495	1.035036
C211	C	0.649282	-0.099340	0.302038
C212	C	1.149282	0.400660	0.802038
C213	C	0.649316	-0.049406	0.302067
C214	C	1.149316	0.450594	0.802067
C215	C	0.649190	-0.216495	0.139184
C216	C	1.149190	0.283505	0.639184
C217	C	0.649261	-0.216372	0.069543
C218	C	1.149261	0.283628	0.569543
C219	C	0.678006	-0.187775	0.567778
C220	C	1.178006	0.312225	1.067778
C221	C	0.678006	-0.187756	0.633213
C222	C	1.178006	0.312244	1.133213
C223	C	0.649258	-0.216475	0.665904
C224	C	1.149258	0.283525	1.165904
C225	C	0.620500	-0.245207	0.633155
C226	C	1.120500	0.254793	1.133155
C227	C	0.620498	-0.245222	0.567721
C228	C	1.120498	0.254778	1.067721
C229	C	0.645686	-0.256926	0.769560
C230	C	1.145686	0.243074	1.269560
C231	C	0.645691	-0.256911	0.834993
C232	C	1.145691	0.243089	1.334993
C233	C	0.649260	-0.216427	0.867725
C234	C	1.149260	0.283573	1.367725
C235	C	0.652834	-0.175957	0.835017
C236	C	1.152834	0.324043	1.335017
C237	C	0.652832	-0.175972	0.769582
C238	C	1.152832	0.324028	1.269582
C239	C	0.649256	-0.216461	0.736857
C240	C	1.149256	0.283539	1.236857
C241	C	0.678013	-0.187674	0.971420
C242	C	1.178013	0.312326	1.471420
C243	C	0.678010	-0.187654	1.036856
C244	C	1.178010	0.312346	1.536856
C245	C	0.620506	-0.245109	1.036797
C246	C	1.120506	0.254891	1.536797
C247	C	0.620508	-0.245125	0.971361
C248	C	1.120508	0.254875	1.471361
C249	C	0.649264	-0.216408	0.938677
C250	C	1.149264	0.283592	1.438677
H251	H	0.393051	-0.164302	0.229384
H252	H	0.893051	0.335698	0.729384
O253	O	0.592640	-1.048791	0.223050
O254	O	1.092640	-0.548791	0.723050
C255	C	0.547859	-1.037343	0.236667
C256	C	1.047859	-0.537343	0.736667
H257	H	0.545572	-1.024429	0.286717
H258	H	1.045572	-0.524429	0.786717
H259	H	0.525670	-1.068215	0.231238
H260	H	1.025670	-0.568215	0.731238
H261	H	0.536123	-1.010130	0.203056
H262	H	1.036123	-0.510130	0.703056
O263	O	0.705962	-0.159911	0.665095
O264	O	1.205962	0.340089	1.165095
C265	C	0.734965	-0.185492	0.702947
C266	C	1.234965	0.314508	1.202947
H267	H	0.719091	-0.219531	0.712727
H268	H	1.219091	0.280469	1.212727
H269	H	0.741003	-0.167186	0.748971
H270	H	1.241003	0.332814	1.248971
H271	H	0.768252	-0.190443	0.677753
H272	H	1.268252	0.309557	1.177753
H273	H	0.701250	-0.387461	0.374695
H274	H	1.201250	0.112539	0.874695
H275	H	0.701426	-0.164289	0.944806
H276	H	1.201426	0.335711	1.444806
H277	H	0.701266	-0.472570	0.374732
H278	H	1.201266	0.027430	0.874732
H279	H	0.597082	-0.268617	0.541063
H280	H	1.097082	0.231383	1.041063
H281	H	0.597188	-0.960009	0.229272
H282	H	1.097188	-0.460009	0.729272
H283	H	0.730018	-0.603243	0.414867
H284	H	1.230018	-0.103243	0.914867
O285	O	0.563836	-0.692198	0.182793
O286	O	1.063836	-0.192198	0.682793
C287	C	0.538493	-0.661460	0.147381
C288	C	1.038493	-0.161460	0.647381
H289	H	0.536928	-0.628007	0.173041
H290	H	1.036928	-0.128007	0.673041
H291	H	0.503099	-0.675040	0.140651
H292	H	1.003099	-0.175040	0.640651
H293	H	0.554956	-0.656478	0.099817
H294	H	1.054956	-0.156478	0.599817
O295	O	0.734595	-0.691961	0.421210
O296	O	1.234595	-0.191961	0.921210
C297	C	0.759921	-0.661151	0.456612
C298	C	1.259921	-0.161151	0.956612
H299	H	0.761468	-0.627718	0.430940
H300	H	1.261468	-0.127718	0.930940
H301	H	0.795322	-0.674668	0.463350
H302	H	1.295322	-0.174668	0.963350
H303	H	0.743453	-0.656152	0.504173
H304	H	1.243453	-0.156152	1.004173
H305	H	0.568369	-0.603465	0.189101
H306	H	1.068369	-0.103465	0.689101
H307	H	0.393088	-0.268711	0.374507
H308	H	0.893088	0.231289	0.874507
H309	H	0.597094	-0.268487	1.063413
H310	H	1.097094	0.231513	1.563413
H311	H	0.262349	-0.135523	0.189441
H312	H	0.762349	0.364477	0.689441
H313	H	0.478196	-0.268710	0.374478
H314	H	0.978196	0.231290	0.874478
H315	H	0.597097	-0.268522	0.944703
H316	H	1.097097	0.231478	1.444703
O317	O	0.592512	-0.476356	0.222839
O318	O	1.092512	0.023644	0.722839
C319	C	0.567170	-0.445624	0.187414
C320	C	1.067170	0.054376	0.687414
H321	H	0.565601	-0.412167	0.213065
H322	H	1.065601	0.087833	0.713065
H323	H	0.531777	-0.459206	0.180683
H324	H	1.031777	0.040794	0.680683
H325	H	0.583636	-0.440648	0.139852
H326	H	1.083636	0.059352	0.639852
H327	H	0.730052	-0.743990	0.414903
H328	H	1.230052	-0.243990	0.914903
O329	O	0.705863	-1.048676	0.381219
O330	O	1.205863	-0.548676	0.881219
C331	C	0.680271	-1.075825	0.421633
C332	C	1.180271	-0.575825	0.921633
H333	H	0.644884	-1.061708	0.425441
H334	H	1.144884	-0.561708	0.925441
H335	H	0.696496	-1.076329	0.469880
H336	H	1.196496	-0.576329	0.969880
H337	H	0.678737	-1.111392	0.402260
H338	H	1.178737	-0.611392	0.902260
H339	H	0.730069	-0.829108	0.414918
H340	H	1.230069	-0.329108	0.914918
O341	O	0.656214	-0.136629	0.866827
O342	O	1.156214	0.363371	1.366827
C343	C	0.617974	-0.130834	0.904650
C344	C	1.117974	0.369166	1.404650
H345	H	0.589076	-0.151459	0.884902
H346	H	1.089076	0.348541	1.384902
H347	H	0.608217	-0.093905	0.905382
H348	H	1.108217	0.406095	1.405382
H349	H	0.625706	-0.142452	0.954249
H350	H	1.125706	0.357548	1.454249
O351	O	0.592597	-0.273168	0.664839
O352	O	1.092597	0.226832	1.164839
C353	C	0.602390	-0.317949	0.648856
C354	C	1.102390	0.182051	1.148856
H355	H	0.619657	-0.318893	0.601359
H356	H	1.119657	0.181107	1.101359
H357	H	0.569953	-0.338088	0.646588
H358	H	1.069953	0.161912	1.146588
H359	H	0.625478	-0.333077	0.685697
H360	H	1.125478	0.166923	1.185697
H361	H	-0.094198	-0.268747	0.374581
H362	H	0.405802	0.231253	0.874581
H363	H	0.597047	-0.387607	0.229142
H364	H	1.097047	0.112393	0.729142
H365	H	-0.179337	-0.164345	0.229475
H366	H	0.320663	0.335655	0.729475
H367	H	0.701422	-0.164256	1.063513
H368	H	1.201422	0.335744	1.563513
H369	H	0.642784	-0.289864	0.861619
H370	H	1.142784	0.210136	1.361619
O371	O	0.563882	-0.832954	0.182823
O372	O	1.063882	-0.332954	0.682823
C373	C	0.538539	-0.802219	0.147405
C374	C	1.038539	-0.302219	0.647405
H375	H	0.536973	-0.768764	0.173060
H376	H	1.036973	-0.268764	0.673060
H377	H	0.503146	-0.815800	0.140675
H378	H	1.003146	-0.315800	0.640675
H379	H	0.555003	-0.797240	0.099841
H380	H	1.055003	-0.297240	0.599841
O381	O	0.266049	-0.301964	0.420893
O382	O	0.766049	0.198036	0.920893
C383	C	0.254604	-0.292214	0.483362
C384	C	0.754604	0.207786	0.983362
H385	H	0.241729	-0.256327	0.486617
H386	H	0.741729	0.243673	0.986617
H387	H	0.285468	-0.296116	0.514311
H388	H	0.785468	0.203884	1.014311
H389	H	0.227362	-0.316315	0.499674
H390	H	0.727362	0.183685	0.999674
O391	O	0.173569	-0.301955	0.420882
O392	O	0.673569	0.198045	0.920882
C393	C	0.146451	-0.276432	0.461421
C394	C	0.646451	0.223568	0.961421
H395	H	0.160600	-0.241049	0.465389
H396	H	0.660600	0.258951	0.965389
H397	H	0.145942	-0.292735	0.509592
H398	H	0.645942	0.207265	1.009592
H399	H	0.110882	-0.274873	0.442063
H400	H	0.610882	0.225127	0.942063
O401	O	-0.183073	-0.273226	0.380861
O402	O	0.316927	0.226774	0.880861
C403	C	-0.229514	-0.267064	0.372275
C404	C	0.270486	0.232936	0.872275
H405	H	-0.235911	-0.232374	0.351842
H406	H	0.264089	0.267626	0.851842
H407	H	-0.247327	-0.270154	0.419199
H408	H	0.252673	0.229846	0.919199
H409	H	-0.242858	-0.293679	0.338843
H410	H	0.257142	0.206321	0.838843
O411	O	0.642192	-0.296292	0.737864
O412	O	1.142192	0.203708	1.237864
C413	C	0.639008	-0.332005	0.780762
C414	C	1.139008	0.167995	1.280762
H415	H	0.654152	-0.321382	0.827405
H416	H	1.154152	0.178618	1.327405
H417	H	0.658018	-0.362232	0.761841
H418	H	1.158018	0.137768	1.261841
H419	H	0.602281	-0.341278	0.787728
H420	H	1.102281	0.158722	1.287728
O421	O	-0.090612	-0.159797	0.223124
O422	O	0.409388	0.340203	0.723124
C423	C	-0.121391	-0.134401	0.187846
C424	C	0.378609	0.365599	0.687846
H425	H	-0.154843	-0.152808	0.185637
H426	H	0.345157	0.347192	0.685637
H427	H	-0.107862	-0.129555	0.138490
H428	H	0.392138	0.370445	0.638490
H429	H	-0.126357	-0.100306	0.210884
H430	H	0.373643	0.399694	0.710884
O431	O	0.125327	-0.131089	0.183137
O432	O	0.625327	0.368911	0.683137
C433	C	0.152421	-0.156623	0.142581
C434	C	0.652421	0.343377	0.642581
H435	H	0.159451	-0.190689	0.164587
H436	H	0.659451	0.309311	0.664587
H437	H	0.185415	-0.138311	0.134217
H438	H	0.685415	0.361689	0.634217
H439	H	0.134307	-0.161515	0.096144
H440	H	0.634307	0.338485	0.596144
H441	H	0.177240	-0.135533	0.189444
H442	H	0.677240	0.364467	0.689444
H443	H	0.478174	-0.164302	0.229369
H444	H	0.978174	0.335698	0.729369
O445	O	0.032813	-0.301956	0.420911
O446	O	0.532813	0.198044	0.920911
C447	C	0.005699	-0.276416	0.461435
C448	C	0.505699	0.223584	0.961435
H449	H	0.019863	-0.241039	0.465398
H450	H	0.519863	0.258961	0.965398
H451	H	0.005177	-0.292713	0.509611
H452	H	0.505177	0.207287	1.009611
H453	H	-0.029867	-0.274845	0.442067
H454	H	0.470133	0.225155	0.942067
O455	O	0.125254	-0.302033	0.420888
O456	O	0.625254	0.197967	0.920888
C457	C	0.094488	-0.327434	0.456174
C458	C	0.594488	0.172566	0.956174
H459	H	0.061054	-0.309033	0.458392
H460	H	0.561054	0.190967	0.958392
H461	H	0.108061	-0.332278	0.505527
H462	H	0.608061	0.167722	1.005527
H463	H	0.089469	-0.361530	0.433138
H464	H	0.589469	0.138470	0.933138
O465	O	0.705920	-0.956231	0.381192
O466	O	1.205920	-0.456231	0.881192
C467	C	0.731280	-0.986966	0.416587
C468	C	1.231280	-0.486966	0.916587
H469	H	0.712886	-1.020424	0.418727
H470	H	1.212886	-0.520424	0.918727
H471	H	0.736050	-0.973390	0.465961
H472	H	1.236050	-0.473390	0.965961
H473	H	0.765410	-0.991937	0.393697
H474	H	1.265410	-0.491937	0.893697
H475	H	0.568416	-0.744222	0.189125
H476	H	1.068416	-0.244222	0.689125
H477	H	0.655740	-0.143020	0.742954
H478	H	1.155740	0.356980	1.242954
O479	O	0.705950	-0.159835	0.536126
O480	O	1.205950	0.340165	1.036126
C481	C	0.731335	-0.134481	0.579062
C482	C	1.231335	0.365519	1.079062
H483	H	0.712937	-0.132913	0.625692
H484	H	1.212937	0.367087	1.125692
H485	H	0.736152	-0.099089	0.560170
H486	H	1.236152	0.400911	1.060170
H487	H	0.765444	-0.150937	0.586043
H488	H	1.265444	0.349063	1.086043
O489	O	0.032865	-0.130985	0.183168
O490	O	0.532865	0.369015	0.683168
C491	C	0.063630	-0.105598	0.147860
C492	C	0.563630	0.394402	0.647860
H493	H	0.097088	-0.104075	0.173523
H494	H	0.597088	0.395925	0.673523
H495	H	0.050092	-0.070193	0.141280
H496	H	0.550092	0.429807	0.641280
H497	H	0.068585	-0.121996	0.100227
H498	H	0.568585	0.378004	0.600227
