data_functionalizedCrystal
_audit_creation_method	'MofGen! by Chris Wilmer'
_symmetry_space_group_name_H-M	'P1'
_symmetry_Int_Tables_number	1
_symmetry_cell_setting	triclinic
loop_
_symmetry_equiv_pos_as_xyz
  x,y,z
_cell_length_a	13.897449
_cell_length_b	21.295417
_cell_length_c	21.295420
_cell_angle_alpha	90.017905
_cell_angle_beta	90.005229
_cell_angle_gamma	90.030982
loop_
_atom_site_label
_atom_site_type_symbol
_atom_site_fract_x
_atom_site_fract_y
_atom_site_fract_z
Zn1	Zn	1.474474	-0.250676	0.355896
Zn2	Zn	1.974474	0.249324	0.855896
Zn3	Zn	1.474378	-0.355923	0.250623
Zn4	Zn	1.974378	0.144077	0.750623
Zn5	Zn	1.313207	-0.250674	0.250643
Zn6	Zn	1.813207	0.249326	0.750643
Zn7	Zn	1.313112	-0.355914	0.355857
Zn8	Zn	1.813112	0.144086	0.855857
O9	O	1.393793	-0.303297	0.303255
O10	O	1.893793	0.196703	0.803255
O11	O	1.609443	-0.264642	0.341939
O12	O	2.109443	0.235358	0.841939
O13	O	1.452998	-0.341965	0.162537
O14	O	1.952998	0.158035	0.662537
O15	O	1.334680	-0.162585	0.264630
O16	O	1.834680	0.337415	0.764630
O17	O	1.609373	-0.341967	0.264596
O18	O	2.109373	0.158033	0.764596
O19	O	1.453162	-0.162587	0.341959
O20	O	1.953162	0.337413	0.841959
O21	O	1.334587	-0.264639	0.162551
O22	O	1.834587	0.235361	0.662551
O23	O	1.178213	-0.264630	0.264592
O24	O	1.678213	0.235370	0.764592
O25	O	1.334517	-0.341951	0.443952
O26	O	1.834517	0.158049	0.943952
O27	O	1.178143	-0.341949	0.341892
O28	O	1.678143	0.158051	0.841892
O29	O	1.453069	-0.264633	0.443980
O30	O	1.953069	0.235367	0.943980
O31	O	1.452906	-0.444011	0.264558
O32	O	1.952906	0.055989	0.764558
O33	O	1.334424	-0.444004	0.341873
O34	O	1.834424	0.055996	0.841873
C35	C	1.143179	-0.303288	0.303241
C36	C	1.643179	0.196712	0.803241
C37	C	1.035965	-0.303300	0.303249
C38	C	1.535965	0.196700	0.803249
C39	C	0.839670	-0.303302	0.303266
C40	C	1.339670	0.196698	0.803266
C41	C	0.948902	-0.303299	0.303255
C42	C	1.448902	0.196701	0.803255
C43	C	1.393670	-0.466848	0.303223
C44	C	1.893670	0.033152	0.803223
C45	C	1.393706	-0.536817	0.303231
C46	C	1.893706	-0.036817	0.803231
C47	C	1.455364	-0.569627	0.343524
C48	C	1.955364	-0.069627	0.843524
C49	C	1.455398	-0.635369	0.343540
C50	C	1.955398	-0.135369	0.843540
C51	C	1.393784	-0.668299	0.303250
C52	C	1.893784	-0.168299	0.803250
C53	C	1.332113	-0.635481	0.262954
C54	C	1.832113	-0.135481	0.762954
C55	C	1.332074	-0.569740	0.262944
C56	C	1.832074	-0.069740	0.762944
N57	N	1.386518	-0.771549	0.248159
N58	N	1.886518	-0.271549	0.748159
N59	N	1.386560	-0.834000	0.248171
N60	N	1.886560	-0.334000	0.748171
C61	C	1.393896	-0.866374	0.303279
C62	C	1.893896	-0.366374	0.803279
N63	N	1.401207	-0.833936	0.358377
N64	N	1.901207	-0.333936	0.858377
N65	N	1.401169	-0.771479	0.358365
N66	N	1.901169	-0.271479	0.858365
C67	C	1.393819	-0.739584	0.303257
C68	C	1.893819	-0.239584	0.803257
C69	C	1.455595	-0.970470	0.343593
C70	C	1.955595	-0.470470	0.843593
C71	C	1.455622	-1.036213	0.343610
C72	C	1.955622	-0.536213	0.843610
C73	C	1.332343	-1.036323	0.263018
C74	C	1.832343	-0.536323	0.763018
C75	C	1.332310	-0.970581	0.263007
C76	C	1.832310	-0.470581	0.763007
C77	C	1.393942	-0.937658	0.303293
C78	C	1.893942	-0.437658	0.803293
C79	C	1.645386	-0.303306	0.303270
C80	C	2.145386	0.196694	0.803270
C81	C	1.752600	-0.303309	0.303276
C82	C	2.252600	0.196691	0.803276
C83	C	1.393793	-0.303291	0.467445
C84	C	1.893793	0.196709	0.967445
C85	C	1.393793	-0.303289	0.537413
C86	C	1.893793	0.196711	1.037413
C87	C	1.393943	-0.139107	0.303301
C88	C	1.893943	0.360893	0.803301
C89	C	1.394006	-0.069138	0.303320
C90	C	1.894006	0.430862	0.803320
C91	C	1.455481	-0.263037	1.036887
C92	C	1.955481	0.236963	1.536887
C93	C	1.455491	-0.263038	0.971145
C94	C	1.955491	0.236962	1.471145
C95	C	1.393769	-0.303291	0.938253
C96	C	1.893769	0.196709	1.438253
C97	C	1.332050	-0.343558	0.971109
C98	C	1.832050	0.156442	1.471109
C99	C	1.332049	-0.343560	1.036850
C100	C	1.832049	0.156440	1.536850
N101	N	1.309333	-0.308114	0.835025
N102	N	1.809333	0.191886	1.335025
N103	N	1.309338	-0.308109	0.772574
N104	N	1.809338	0.191891	1.272574
C105	C	1.393772	-0.303288	0.740178
C106	C	1.893772	0.196712	1.240178
N107	N	1.478204	-0.298462	0.772593
N108	N	1.978204	0.201538	1.272593
N109	N	1.478198	-0.298464	0.835050
N110	N	1.978198	0.201536	1.335050
C111	C	1.393765	-0.303294	0.866967
C112	C	1.893765	0.196706	1.366967
C113	C	1.455503	-0.263029	0.636044
C114	C	1.955503	0.236971	1.136044
C115	C	1.455515	-0.263034	0.570301
C116	C	1.955515	0.236966	1.070301
C117	C	1.332065	-0.343551	0.570266
C118	C	1.832065	0.156449	1.070266
C119	C	1.332062	-0.343549	0.636009
C120	C	1.832062	0.156451	1.136009
C121	C	1.393779	-0.303284	0.668894
C122	C	1.893779	0.196716	1.168894
C123	C	1.393781	-0.303311	1.139703
C124	C	1.893781	0.196689	1.639703
C125	C	1.393766	-0.303296	1.069735
C126	C	1.893766	0.196704	1.569735
H127	H	1.505545	-0.542823	0.376330
H128	H	2.005545	-0.042823	0.876330
H129	H	1.505756	-0.230242	0.662821
H130	H	2.005756	0.269758	1.162821
H131	H	1.505776	-0.943663	0.376399
H132	H	2.005776	-0.443663	0.876399
O133	O	1.515420	-0.223972	0.538293
O134	O	2.015420	0.276028	1.038293
C135	C	1.570050	-0.188231	0.437031
C136	C	2.070050	0.311769	0.937031
C137	C	1.502187	-0.232519	0.473202
C138	C	2.002187	0.267481	0.973202
H139	H	1.559360	-0.195116	0.384399
H140	H	2.059360	0.304884	0.884399
H141	H	1.647850	-0.199265	0.449905
H142	H	2.147850	0.300735	0.949905
H143	H	1.553130	-0.137486	0.450017
H144	H	2.053130	0.362514	0.950017
H145	H	1.519019	-0.283279	0.460235
H146	H	2.019019	0.216721	0.960235
H147	H	1.424406	-0.221431	0.460325
H148	H	1.924406	0.278569	0.960325
O149	O	1.272204	-0.382753	0.939186
O150	O	1.772204	0.117247	1.439186
C151	C	1.225280	-0.489832	0.919052
C152	C	1.725280	0.010168	1.419052
C153	C	1.293123	-0.445510	0.955234
C154	C	1.793123	0.054490	1.455234
H155	H	1.242155	-0.540579	0.932024
H156	H	1.742155	-0.040579	1.432024
H157	H	1.235891	-0.482967	0.866415
H158	H	1.735891	0.017033	1.366415
H159	H	1.147512	-0.478753	0.931965
H160	H	1.647512	0.021247	1.431965
H161	H	1.370917	-0.456561	0.942374
H162	H	1.870917	0.043439	1.442374
H163	H	1.282428	-0.452382	1.007862
H164	H	1.782428	0.047618	1.507862
O165	O	1.272232	-0.382737	1.068788
O166	O	1.772232	0.117263	1.568788
C167	C	1.259186	-0.467704	1.143010
C168	C	1.759186	0.032296	1.643010
C169	C	1.327038	-0.423385	1.106868
C170	C	1.827038	0.076615	1.606868
H171	H	1.303469	-0.500570	1.173816
H172	H	1.803469	-0.000570	1.673816
H173	H	1.215094	-0.496524	1.108238
H174	H	1.715094	0.003476	1.608238
H175	H	1.208749	-0.438793	1.173766
H176	H	1.708749	0.061207	1.673766
H177	H	1.377534	-0.452247	1.076111
H178	H	1.877534	0.047753	1.576111
H179	H	1.371063	-0.394563	1.141674
H180	H	1.871063	0.105437	1.641674
H181	H	1.505832	-1.062926	0.376424
H182	H	2.005832	-0.562926	0.876424
H183	H	1.281813	-0.376329	0.543486
H184	H	1.781813	0.123671	1.043486
O185	O	1.272150	-0.382741	0.667849
O186	O	1.772150	0.117259	1.167849
C187	C	1.225275	-0.489823	0.687944
C188	C	1.725275	0.010177	1.187944
C189	C	1.293171	-0.445503	0.651838
C190	C	1.793171	0.054497	1.151838
H191	H	1.242260	-0.540575	0.675023
H192	H	1.742260	-0.040575	1.175023
H193	H	1.147491	-0.478819	0.675002
H194	H	1.647491	0.021181	1.175002
H195	H	1.235854	-0.482881	0.740578
H196	H	1.735854	0.017119	1.240578
H197	H	1.282677	-0.452420	0.599196
H198	H	1.782677	0.047580	1.099196
H199	H	1.370930	-0.456517	0.664832
H200	H	1.870930	0.043483	1.164832
O201	O	1.515377	-0.667153	0.382709
O202	O	2.015377	-0.167153	0.882709
C203	C	1.637593	-0.660111	0.462679
C204	C	2.137593	-0.160111	0.962679
C205	C	1.569740	-0.624040	0.418338
C206	C	2.069740	-0.124040	0.918338
H207	H	1.681548	-0.625270	0.491506
H208	H	2.181548	-0.125270	0.991506
H209	H	1.688148	-0.690859	0.433848
H210	H	2.188148	-0.190859	0.933848
H211	H	1.593256	-0.690913	0.495543
H212	H	2.093256	-0.190913	0.995543
H213	H	1.613998	-0.593204	0.385465
H214	H	2.113998	-0.093204	0.885465
H215	H	1.519181	-0.593331	0.447208
H216	H	2.019181	-0.093331	0.947208
O217	O	1.515530	-0.223910	1.068733
O218	O	2.015530	0.276090	1.568733
C219	C	1.637932	-0.144022	1.061826
C220	C	2.137932	0.355978	1.561826
C221	C	1.569989	-0.188309	1.025681
C222	C	2.069989	0.311691	1.525681
H223	H	1.681965	-0.115219	1.027035
H224	H	2.181965	0.384781	1.527035
H225	H	1.688410	-0.172895	1.092579
H226	H	2.188410	0.327105	1.592579
H227	H	1.593660	-0.111135	1.092632
H228	H	2.093660	0.388865	1.592632
H229	H	1.614183	-0.221206	0.994841
H230	H	2.114183	0.278794	1.494841
H231	H	1.519508	-0.159398	0.994968
H232	H	2.019508	0.340602	1.494968
H233	H	1.505746	-0.230252	0.944394
H234	H	2.005746	0.269748	1.444394
H235	H	1.281945	-0.662296	0.230151
H236	H	1.781945	-0.162296	0.730151
H237	H	1.282169	-1.063134	0.230217
H238	H	1.782169	-0.563134	0.730217
O239	O	1.272046	-0.537934	0.223829
O240	O	1.772046	-0.037934	0.723829
C241	C	1.107993	-0.517897	0.193199
C242	C	1.607993	-0.017897	0.693199
C243	C	1.175864	-0.553969	0.237527
C244	C	1.675864	-0.053969	0.737527
H245	H	1.030215	-0.530838	0.204266
H246	H	1.530215	-0.030838	0.704266
H247	H	1.124921	-0.530850	0.142442
H248	H	1.624921	-0.030850	0.642442
H249	H	1.118603	-0.465258	0.200100
H250	H	1.618603	0.034742	0.700100
H251	H	1.165292	-0.606616	0.230681
H252	H	1.665292	-0.106616	0.730681
H253	H	1.158920	-0.540963	0.288267
H254	H	1.658920	-0.040963	0.788267
H255	H	1.282106	-0.943865	0.230193
H256	H	1.782106	-0.443865	0.730193
