data_functionalizedCrystal
_audit_creation_method	'MofGen! by Chris Wilmer'
_symmetry_space_group_name_H-M	'P1'
_symmetry_Int_Tables_number	1
_symmetry_cell_setting	triclinic
loop_
_symmetry_equiv_pos_as_xyz
  x,y,z
_cell_length_a	16.120530
_cell_length_b	29.839131
_cell_length_c	16.120256
_cell_angle_alpha	92.869474
_cell_angle_beta	90.128265
_cell_angle_gamma	87.136742
loop_
_atom_site_label
_atom_site_type_symbol
_atom_site_fract_x
_atom_site_fract_y
_atom_site_fract_z
Zn1	Zn	1.247310	-0.227608	-0.534531
Zn2	Zn	1.254220	-0.299123	-0.395461
Zn3	Zn	1.115304	-0.220015	-0.388450
Zn4	Zn	1.108176	-0.298711	-0.527431
O5	O	1.181252	-0.261364	-0.461468
O6	O	1.364591	-0.240445	-0.521989
O7	O	1.241667	-0.285623	-0.278166
O8	O	1.132907	-0.158158	-0.407864
O9	O	1.369667	-0.292986	-0.419815
O10	O	1.229890	-0.163737	-0.515190
O11	O	1.139607	-0.227503	-0.273014
O12	O	0.997995	-0.227104	-0.400980
O13	O	1.120757	-0.292285	-0.644739
O14	O	0.992757	-0.284921	-0.503089
O15	O	1.222978	-0.240046	-0.649955
O16	O	1.234755	-0.361932	-0.412931
O17	O	1.127458	-0.361629	-0.509889
C18	C	0.965204	-0.255144	-0.450504
C19	C	0.872776	-0.252495	-0.445833
C20	C	0.703550	-0.247647	-0.437312
C21	C	0.659793	-0.275116	-0.485685
C22	C	0.565629	-0.272419	-0.480944
C23	C	0.797722	-0.250343	-0.442052
C24	C	1.181104	-0.378081	-0.461419
C25	C	1.181116	-0.428016	-0.461430
C26	C	1.237215	-0.737814	-0.411065
C27	C	1.237316	-0.925491	-0.411102
O28	O	1.284896	-0.949883	-0.368242
N29	N	1.181422	-0.948813	-0.461540
C30	C	1.125502	-0.925213	-0.511975
O31	O	1.077968	-0.949356	-0.554882
C32	C	1.125405	-0.737537	-0.511942
C33	C	1.181298	-0.714217	-0.461495
C34	C	1.293103	-0.714494	-0.360623
C35	C	1.293075	-0.667578	-0.360611
C36	C	1.237157	-0.643981	-0.411041
C37	C	1.181269	-0.667301	-0.461483
C38	C	1.069490	-0.713938	-0.562381
C39	C	1.069472	-0.667016	-0.562370
C40	C	1.125365	-0.643696	-0.511923
C41	C	1.125323	-0.596787	-0.511900
N42	N	1.181217	-0.573465	-0.461463
C43	C	1.237134	-0.597062	-0.411033
C44	C	1.125555	-1.023745	-0.511988
C45	C	1.125578	-1.070664	-0.511996
C46	C	1.237394	-1.070939	-0.411124
C47	C	1.237366	-1.024019	-0.411112
C48	C	1.181450	-1.000423	-0.461551
C49	C	1.237069	-0.498534	-0.411011
C50	C	1.237033	-0.451613	-0.411000
C51	C	1.125221	-0.451342	-0.511875
C52	C	1.125254	-0.498259	-0.511883
C53	C	1.181185	-0.521854	-0.461448
O54	O	1.077774	-0.572367	-0.554745
O55	O	1.284673	-0.572912	-0.368146
C56	C	1.237244	-0.784731	-0.411077
C57	C	1.181355	-0.808050	-0.461519
C58	C	1.125438	-0.784454	-0.511949
C59	C	1.181378	-0.854969	-0.461527
C60	C	1.237296	-0.878566	-0.411097
C61	C	1.293190	-0.855244	-0.360660
C62	C	1.293161	-0.808327	-0.360647
C63	C	1.069544	-0.807775	-0.562386
C64	C	1.069577	-0.854692	-0.562394
C65	C	1.125494	-0.878289	-0.511964
C66	C	1.398145	-0.267609	-0.472476
C67	C	1.490571	-0.270270	-0.477167
C68	C	1.170302	-0.266967	-0.678362
C69	C	1.165635	-0.269354	-0.770790
C70	C	1.181423	-0.144192	-0.461537
C71	C	1.181495	-0.094261	-0.461566
C72	C	1.205586	-0.248902	-0.983777
C73	C	1.157088	-0.273694	-0.940009
C74	C	1.161845	-0.271278	-0.845847
C75	C	1.200830	-0.251317	-1.077948
C76	C	1.192208	-0.255752	-0.245420
C77	C	1.197036	-0.253243	-0.153002
H78	H	1.282547	-0.432628	-0.369918
O79	O	0.699374	-0.305650	-0.539289
C80	C	0.724085	-0.383892	-0.580665
C81	C	0.679190	-0.349360	-0.519923
H82	H	0.707796	-0.419239	-0.565018
H83	H	0.703696	-0.377356	-0.646920
H84	H	0.794056	-0.380643	-0.574989
H85	H	0.609212	-0.352589	-0.525524
H86	H	0.699646	-0.355907	-0.453692
O87	O	1.291289	-0.521499	-0.361982
C88	C	1.308292	-0.571896	-0.250282
C89	C	1.246798	-0.545918	-0.305758
H90	H	1.272344	-0.591637	-0.204799
H91	H	1.349811	-0.596091	-0.290668
H92	H	1.348251	-0.547160	-0.214270
H93	H	1.206784	-0.570620	-0.341779
H94	H	1.205336	-0.521716	-0.265327
O95	O	0.663752	-0.217216	-0.383679
C96	C	0.532237	-0.186724	-0.330057
C97	C	0.577216	-0.221213	-0.390820
H98	H	0.462265	-0.189937	-0.335823
H99	H	0.552549	-0.193302	-0.263796
H100	H	0.548606	-0.151375	-0.345612
H101	H	0.560868	-0.256575	-0.375342
H102	H	0.556901	-0.214596	-0.457064
O103	O	1.347457	-0.645000	-0.311593
C104	C	1.458342	-0.650241	-0.211520
C105	C	1.396804	-0.675862	-0.267005
H106	H	1.498243	-0.675181	-0.175443
H107	H	1.499910	-0.630495	-0.251900
H108	H	1.422383	-0.626070	-0.166096
H109	H	1.432695	-0.700056	-0.312438
H110	H	1.355236	-0.695579	-0.226574
H111	H	1.080019	-1.004536	-0.553062
H112	H	1.338642	-0.733702	-0.319557
H113	H	1.282879	-1.005035	-0.370035
H114	H	1.250676	-0.225866	-0.950532
H115	H	1.282924	-1.090159	-0.370062
O116	O	1.071248	-1.093245	-0.561070
C117	C	0.960311	-1.088006	-0.661086
C118	C	1.021806	-1.062379	-0.605558
H119	H	0.920310	-1.063061	-0.697056
H120	H	0.996222	-1.112151	-0.706594
H121	H	0.918835	-1.107780	-0.620665
H122	H	1.063298	-1.042580	-0.645913
H123	H	0.985844	-1.038261	-0.560045
H124	H	1.111990	-0.296729	-0.973256
H125	H	1.023973	-0.732917	-0.603456
O126	O	1.015334	-0.784843	-0.611468
C127	C	0.998328	-0.734413	-0.723117
C128	C	1.059821	-0.760365	-0.667602
H129	H	1.034271	-0.714609	-0.768502
H130	H	0.958401	-0.759128	-0.759223
H131	H	0.956776	-0.710265	-0.682674
H132	H	1.101427	-0.784514	-0.707983
H133	H	1.099690	-0.735624	-0.631489
O134	O	1.015190	-0.644148	-0.611485
C135	C	0.967609	-0.632259	-0.750853
C136	C	1.029116	-0.658195	-0.695328
H137	H	0.978858	-0.643599	-0.818653
H138	H	0.901296	-0.639229	-0.732870
H139	H	0.977176	-0.594720	-0.742140
H140	H	1.019624	-0.695742	-0.704012
H141	H	1.095406	-0.651187	-0.713325
H142	H	1.079744	-0.517247	-0.552963
H143	H	1.079691	-0.432122	-0.552932
H144	H	1.338674	-0.789344	-0.319569
H145	H	1.338718	-0.874465	-0.319595
O146	O	1.015247	-0.877274	-0.611478
C147	C	0.904318	-0.872035	-0.711503
C148	C	0.965805	-0.846408	-0.655965
H149	H	0.864316	-0.847090	-0.747472
H150	H	0.940236	-0.896176	-0.757011
H151	H	0.862841	-0.891812	-0.671088
H152	H	1.007296	-0.826604	-0.696313
H153	H	0.929835	-0.822293	-0.610451
