data_functionalizedCrystal
_audit_creation_method	'MofGen! by Chris Wilmer'
_symmetry_space_group_name_H-M	'P1'
_symmetry_Int_Tables_number	1
_symmetry_cell_setting	triclinic
loop_
_symmetry_equiv_pos_as_xyz
  x,y,z
_cell_length_a	16.120530
_cell_length_b	25.639240
_cell_length_c	16.120256
_cell_angle_alpha	92.863576
_cell_angle_beta	90.128265
_cell_angle_gamma	87.127770
loop_
_atom_site_label
_atom_site_type_symbol
_atom_site_fract_x
_atom_site_fract_y
_atom_site_fract_z
Zn1	Zn	1.247376	-0.264893	-0.534488
Zn2	Zn	1.254306	-0.348122	-0.395404
Zn3	Zn	1.115368	-0.256055	-0.388408
Zn4	Zn	1.108263	-0.347643	-0.527374
O5	O	1.181328	-0.304178	-0.461418
O6	O	1.364660	-0.279833	-0.521943
O7	O	1.241750	-0.332411	-0.278111
O8	O	1.132953	-0.184066	-0.407834
O9	O	1.369752	-0.340980	-0.419759
O10	O	1.229938	-0.190559	-0.515158
O11	O	1.139673	-0.264770	-0.272971
O12	O	0.998060	-0.264305	-0.400937
O13	O	1.120842	-0.340164	-0.644683
O14	O	0.992840	-0.331595	-0.503035
O15	O	1.223048	-0.279368	-0.649909
O16	O	1.234860	-0.421220	-0.412862
O17	O	1.127563	-0.420868	-0.509820
C18	C	0.965278	-0.296939	-0.450455
C19	C	0.872850	-0.293856	-0.445785
C20	C	0.703621	-0.288214	-0.437265
C21	C	0.659872	-0.320183	-0.485632
C22	C	0.565708	-0.317044	-0.480892
C23	C	0.797794	-0.291352	-0.442004
C24	C	1.181214	-0.440015	-0.461347
C25	C	1.181240	-0.498130	-0.461349
C26	C	1.231850	-0.861844	-0.517400
C27	C	1.231874	-0.916450	-0.517418
O28	O	1.274768	-0.947529	-0.565000
N29	N	1.181440	-0.940424	-0.461505
C30	C	1.130972	-0.909789	-0.405576
O31	O	1.088076	-0.935194	-0.358019
C32	C	1.130945	-0.855184	-0.405562
C33	C	1.181388	-0.831213	-0.461473
C34	C	1.282289	-0.837873	-0.573307
C35	C	1.282266	-0.783271	-0.573287
C36	C	1.231805	-0.752640	-0.517361
C37	C	1.181366	-0.776611	-0.461454
C38	C	1.080474	-0.824550	-0.349638
C39	C	1.080450	-0.769942	-0.349629
C40	C	1.130894	-0.745971	-0.405540
C41	C	1.130881	-0.691379	-0.405508
N42	N	1.181316	-0.667405	-0.461421
C43	C	1.231777	-0.698036	-0.517347
C44	C	1.131033	-1.024462	-0.405609
C45	C	1.131064	-1.079066	-0.405618
C46	C	1.231965	-1.085723	-0.517461
C47	C	1.231937	-1.031119	-0.517448
C48	C	1.181467	-1.000488	-0.461522
C49	C	1.231726	-0.583368	-0.517302
C50	C	1.231702	-0.528761	-0.517275
C51	C	1.130798	-0.522108	-0.405435
C52	C	1.130826	-0.576710	-0.405458
C53	C	1.181292	-0.607339	-0.461399
O54	O	1.088007	-0.660266	-0.357952
O55	O	1.274658	-0.672623	-0.564903
C56	C	1.398222	-0.311446	-0.472425
C57	C	1.490650	-0.314543	-0.477115
C58	C	1.170379	-0.310699	-0.678312
C59	C	1.165714	-0.313477	-0.770738
C60	C	1.181465	-0.167812	-0.461509
C61	C	1.181523	-0.109701	-0.461548
C62	C	1.205658	-0.289675	-0.983730
C63	C	1.157167	-0.318527	-0.939957
C64	C	1.161924	-0.315717	-0.845795
C65	C	1.200903	-0.292485	-1.077900
C66	C	1.192282	-0.297647	-0.245372
C67	C	1.197109	-0.294727	-0.152953
H68	H	0.670359	-0.258489	-0.392299
H69	H	1.272782	-0.509246	-0.562805
C70	C	1.097195	-0.354360	-0.984322
C71	C	1.141792	-0.390913	-1.036549
C72	C	1.086582	-0.423937	-1.077425
H73	H	1.059278	-0.334209	-1.016441
H74	H	1.067416	-0.372127	-0.944497
H75	H	1.171557	-0.373148	-1.076369
H76	H	1.179705	-0.411076	-1.004451
H77	H	1.056803	-0.441704	-1.037599
H78	H	1.048668	-0.403782	-1.109539
H79	H	1.116833	-0.448745	-1.112859
C80	C	1.286694	-1.118921	-0.578321
C81	C	1.264373	-1.107478	-0.659655
C82	C	1.314775	-1.138045	-0.715736
H83	H	1.279527	-1.154887	-0.570436
H84	H	1.343197	-1.111445	-0.569085
H85	H	1.207884	-1.114958	-0.668888
H86	H	1.271543	-1.071518	-0.667567
H87	H	1.371278	-1.130569	-0.706500
H88	H	1.307605	-1.174009	-0.707843
H89	H	1.299643	-1.130282	-0.770927
H90	H	0.693137	-0.349909	-0.530602
C91	C	1.265651	-0.253892	-0.939297
C92	C	1.221080	-0.217353	-0.887025
C93	C	1.276320	-0.184389	-0.846062
H94	H	1.295480	-0.236107	-0.979046
H95	H	1.303523	-0.274105	-0.907204
H96	H	1.183222	-0.197143	-0.919115
H97	H	1.191253	-0.235124	-0.847261
H98	H	1.314192	-0.204602	-0.813969
H99	H	1.306146	-0.166607	-0.885816
H100	H	1.246087	-0.159597	-0.810585
H101	H	1.272815	-0.608299	-0.562859
C102	C	1.337057	-0.757348	-0.634090
C103	C	1.381230	-0.795870	-0.683080
C104	C	1.431704	-0.772014	-0.739112
H105	H	1.374982	-0.736299	-0.604247
H106	H	1.303398	-0.736090	-0.668723
H107	H	1.414887	-0.817120	-0.648451
H108	H	1.343326	-0.816921	-0.712941
H109	H	1.398045	-0.750755	-0.773745
H110	H	1.469625	-0.750965	-0.709262
H111	H	1.461676	-0.798146	-0.772364
H112	H	1.323381	-0.862807	-0.618854
H113	H	1.089997	-1.098578	-0.360081
C114	C	1.286561	-1.005025	-0.578198
C115	C	1.236731	-0.973702	-0.629048
C116	C	1.287022	-0.949654	-0.685018
H117	H	1.316632	-1.031035	-0.611585
H118	H	1.324399	-0.983941	-0.548278
H119	H	1.198908	-0.994785	-0.658966
H120	H	1.206661	-0.947683	-0.595685
H121	H	1.324860	-0.928570	-0.655098
H122	H	1.317091	-0.975668	-0.718398
H123	H	1.253221	-0.928395	-0.719521
H124	H	1.089937	-0.999525	-0.360061
H125	H	1.039397	-0.844057	-0.304108
H126	H	1.039348	-0.745005	-0.304089
H127	H	1.089757	-0.596228	-0.359925
H128	H	1.089715	-0.497160	-0.359898
