data_functionalizedCrystal
_audit_creation_method	'MofGen! by Chris Wilmer'
_symmetry_space_group_name_H-M	'P1'
_symmetry_Int_Tables_number	1
_symmetry_cell_setting	triclinic
loop_
_symmetry_equiv_pos_as_xyz
  x,y,z
_cell_length_a	13.033291
_cell_length_b	13.032721
_cell_length_c	12.759393
_cell_angle_alpha	82.850203
_cell_angle_beta	97.210938
_cell_angle_gamma	105.184202
loop_
_atom_site_label
_atom_site_type_symbol
_atom_site_fract_x
_atom_site_fract_y
_atom_site_fract_z
Zn1	Zn	1.570250	-0.216757	0.822554
Zn2	Zn	1.547560	-0.394413	0.666642
Zn3	Zn	1.392604	-0.239346	0.627046
Zn4	Zn	1.370029	-0.416863	0.822433
O5	O	1.470111	-0.316844	0.734669
O6	O	1.715883	-0.221474	0.818493
O7	O	1.526956	-0.373901	0.514369
O8	O	1.435113	-0.087708	0.636460
O9	O	1.699213	-0.351997	0.703945
O10	O	1.565628	-0.071112	0.780099
O11	O	1.413111	-0.259974	0.485279
O12	O	1.240966	-0.281743	0.636343
O13	O	1.396637	-0.390260	0.969469
O14	O	1.224380	-0.412164	0.779893
O15	O	1.543738	-0.243243	0.969558
O16	O	1.505066	-0.546032	0.703828
O17	O	1.374635	-0.562526	0.818287
C18	C	1.194132	-0.351841	0.703809
C19	C	1.076064	-0.366839	0.690635
C20	C	0.909635	-0.324535	0.727939
C21	C	1.031664	-0.309036	0.741555
C22	C	1.434967	-0.592816	0.765367
C23	C	1.420030	-0.710866	0.778546
C24	C	1.477963	-0.755294	0.727844
C25	C	1.462526	-0.877304	0.741464
C26	C	1.747167	-0.281712	0.765649
C27	C	1.865232	-0.266740	0.778851
C28	C	1.470200	-0.316736	1.008700
C29	C	1.470238	-0.316689	1.125475
C30	C	1.505420	-0.039791	0.703876
C31	C	1.520466	0.078272	0.690754
C32	C	1.470092	-0.316868	0.461702
C33	C	1.470298	-0.316589	0.344917
C34	C	1.529556	-0.375929	1.305215
C35	C	1.529524	-0.375982	1.195493
C36	C	1.410973	-0.257348	1.165184
C37	C	1.411000	-0.257301	1.274903
H38	H	1.023742	-0.427797	0.636963
N39	N	1.347038	-0.193388	1.089666
H40	H	1.309501	-0.155790	1.131470
H41	H	1.292359	-0.242873	1.043445
N42	N	0.934534	-0.186003	0.849949
H43	H	0.913206	-0.205020	0.924703
H44	H	0.924908	-0.112551	0.823091
H45	H	1.401499	-0.929591	0.794964
H46	H	1.083988	-0.248074	0.795221
N47	N	1.601318	-0.852480	0.619899
H48	H	1.600890	-0.775135	0.620213
H49	H	1.582389	-0.873973	0.545158
N50	N	1.339196	-0.780118	0.849411
H51	H	1.339627	-0.857462	0.849097
H52	H	1.265760	-0.770490	0.822381
N53	N	1.558811	-0.686040	0.656995
H54	H	1.558381	-0.608696	0.657311
H55	H	1.539884	-0.707530	0.582252
H56	H	1.577778	-0.424303	1.163175
H57	H	1.362740	-0.208979	1.307227
H58	H	1.577838	-0.424207	1.362217
N59	N	0.840341	-0.405284	0.656849
H60	H	0.861667	-0.386273	0.582094
H61	H	0.763012	-0.404878	0.657284
