data_functionalizedCrystal
_audit_creation_method	'MofGen! by Chris Wilmer'
_symmetry_space_group_name_H-M	'P1'
_symmetry_Int_Tables_number	1
_symmetry_cell_setting	triclinic
loop_
_symmetry_equiv_pos_as_xyz
  x,y,z
_cell_length_a	27.731994
_cell_length_b	27.732048
_cell_length_c	11.295483
_cell_angle_alpha	94.055952
_cell_angle_beta	85.935820
_cell_angle_gamma	82.631595
loop_
_atom_site_label
_atom_site_type_symbol
_atom_site_fract_x
_atom_site_fract_y
_atom_site_fract_z
O1	O	0.644220	0.054117	-0.098866
O2	O	0.503424	0.062889	-0.098908
O3	O	0.578194	-0.011894	-0.098863
O4	O	0.569450	0.128900	-0.098911
O5	O	0.571627	-0.005336	0.099184
O6	O	0.496857	0.069447	0.099139
O7	O	0.637652	0.060675	0.099181
Cu8	Cu	0.566655	0.065660	0.117243
Cu9	Cu	0.574421	0.057904	-0.116970
O10	O	0.562882	0.135458	0.099136
C11	C	0.482133	0.065988	0.000111
C12	C	0.428477	0.065445	0.000096
C13	C	0.092177	0.065605	0.108098
C14	C	-0.109481	0.063544	0.108113
O15	O	-0.138598	0.066297	0.199924
N16	N	-0.131116	0.059713	0.000158
C17	C	-0.102333	0.056394	-0.107809
O18	O	-0.125362	0.053084	-0.199631
C19	C	0.099325	0.058452	-0.107822
C20	C	0.120957	0.062288	0.000140
C21	C	0.113809	0.069441	0.216052
C22	C	0.164221	0.069959	0.216047
C23	C	0.193000	0.066641	0.108089
C24	C	0.171368	0.062806	0.000136
C25	C	0.128108	0.055130	-0.215787
C26	C	0.178525	0.055643	-0.215781
C27	C	0.200157	0.059479	-0.107818
C28	C	0.250559	0.060006	-0.107827
N29	N	0.272194	0.063837	0.000128
C30	C	0.243414	0.067155	0.108086
C31	C	-0.208207	0.055315	-0.107794
C32	C	-0.258621	0.054802	-0.107792
C33	C	-0.265766	0.061951	0.108130
C34	C	-0.215351	0.062468	0.108126
C35	C	-0.186572	0.059146	0.000161
C36	C	0.349282	0.068243	0.108068
C37	C	0.399698	0.068762	0.108054
C38	C	0.406838	0.061610	-0.107867
C39	C	0.356427	0.061093	-0.107854
C40	C	0.327650	0.064408	0.000124
O41	O	0.279706	0.057250	-0.199591
O42	O	0.266453	0.070454	0.199895
C43	C	0.041766	0.065088	0.108103
C44	C	0.020134	0.061252	0.000150
C45	C	0.048913	0.057935	-0.107808
C46	C	-0.030280	0.060739	0.000153
C47	C	-0.059060	0.064056	0.108111
C48	C	-0.037425	0.067887	0.216066
C49	C	0.012987	0.068405	0.216061
C50	C	0.027278	0.054104	-0.215764
C51	C	-0.023133	0.053587	-0.215750
C52	C	-0.051913	0.056904	-0.107792
C53	C	0.574726	-0.026622	0.000164
C54	C	0.574173	-0.080276	0.000173
C55	C	0.614880	-0.419101	0.000124
C56	C	0.612829	-0.620760	0.000107
O57	O	0.650052	-0.652025	0.000066
N58	N	0.568493	-0.639876	0.000095
C59	C	0.524667	-0.608573	0.000080
O60	O	0.486910	-0.629460	0.000057
C61	C	0.526718	-0.406915	0.000088
C62	C	0.571057	-0.387802	0.000112
C63	C	0.659215	-0.399987	0.000147
C64	C	0.659727	-0.349575	0.000158
C65	C	0.615904	-0.318276	0.000146
C66	C	0.571569	-0.337390	0.000123
C67	C	0.482893	-0.375613	0.000064
C68	C	0.483410	-0.325196	0.000063
C69	C	0.527748	-0.306083	0.000087
C70	C	0.528258	-0.255679	0.000122
N71	N	0.572594	-0.236563	0.000134
C72	C	0.616417	-0.267862	0.000146
C73	C	0.523593	-0.714447	0.000077
C74	C	0.523080	-0.764861	0.000077
C75	C	0.611243	-0.777045	0.000102
C76	C	0.611755	-0.726630	0.000111
C77	C	0.567929	-0.695332	0.000089
C78	C	0.617488	-0.161992	0.000169
C79	C	0.617996	-0.111575	0.000185
C80	C	0.529834	-0.099396	0.000154
C81	C	0.529326	-0.149808	0.000144
C82	C	0.573157	-0.181106	0.000148
O83	O	0.491055	-0.224386	0.000150
O84	O	0.654169	-0.246967	0.000142
C85	C	0.614368	-0.469513	0.000113
C86	C	0.570033	-0.488626	0.000091
C87	C	0.526210	-0.457327	0.000079
C88	C	0.569520	-0.539040	0.000091
C89	C	0.613343	-0.570339	0.000103
C90	C	0.657679	-0.551224	0.000114
C91	C	0.658191	-0.500812	0.000125
C92	C	0.481874	-0.476443	0.000067
C93	C	0.481366	-0.526856	0.000057
C94	C	0.525189	-0.558154	0.000069
C95	C	0.658943	0.057576	0.000160
C96	C	0.712599	0.058119	0.000167
C97	C	0.566350	0.150186	0.000107
C98	C	0.566903	0.203840	0.000089
N99	N	0.561196	0.071115	0.281976
N100	N	0.579884	0.052445	-0.281703
C101	C	0.619181	0.013152	0.531300
C102	C	0.615059	0.017278	0.655962
C103	C	0.548828	0.083489	0.655962
C104	C	0.552950	0.079363	0.531301
C105	C	0.588128	0.044194	0.468974
C106	C	0.592252	0.040071	0.344311
C107	C	0.526019	0.106280	0.344314
C108	C	0.521897	0.110406	0.468975
H109	H	0.181829	0.073079	0.303961
H110	H	-0.040742	0.050467	-0.303673
O111	O	0.318146	0.071991	0.224409
H112	H	0.299470	0.039035	0.229786
H113	H	0.110505	0.052005	-0.303702
H114	H	-0.289207	0.064653	0.196034
H115	H	0.201955	0.052938	-0.303701
H116	H	0.520184	0.112120	0.706725
H117	H	0.500735	0.131558	0.293554
O118	O	0.058317	0.050527	-0.332208
H119	H	0.045794	0.081675	-0.383975
O120	O	0.423029	0.072908	0.224502
H121	H	0.394544	0.075126	0.299570
O122	O	0.665821	-0.090960	0.000193
H123	H	0.696207	-0.121197	0.000181
H124	H	0.338812	0.057978	-0.195765
O125	O	0.437884	0.058021	-0.224306
H126	H	0.476574	0.059017	-0.206161
H127	H	0.494155	-0.073903	0.000148
O128	O	0.483959	0.148340	0.536199
H129	H	0.486312	0.145997	0.633355
O130	O	0.648553	-0.016204	0.723181
H131	H	0.639776	-0.007431	0.820337
H132	H	0.487903	-0.688968	0.000060
H133	H	0.486975	-0.780418	0.000078
H134	H	0.090382	0.072141	0.303969
O135	O	0.707550	-0.328964	0.000149
H136	H	0.737933	-0.359204	0.000136
O137	O	0.036315	0.072550	0.332506
H138	H	0.007827	0.074769	0.407566
H139	H	0.694296	-0.485255	0.000144
H140	H	-0.060866	0.070591	0.303969
H141	H	0.620897	0.011436	0.293566
O142	O	0.435071	-0.396221	0.000034
H143	H	0.404690	-0.365981	0.000011
H144	H	-0.197742	0.065592	0.196039
O145	O	0.664761	-0.195745	0.000191
H146	H	0.695672	-0.173977	0.000223
O147	O	-0.281950	0.050656	-0.224235
H148	H	-0.253462	0.048426	-0.299299
H149	H	0.694903	-0.425466	0.000152
H150	H	0.647827	-0.015481	0.480553
H151	H	0.646925	-0.802538	0.000113
H152	H	0.447721	-0.299715	0.000044
O153	O	-0.177169	0.051738	-0.224250
H154	H	-0.200689	0.048993	-0.299306
H155	H	0.647859	-0.711072	0.000130
H156	H	0.493221	-0.165370	0.000158
O157	O	0.704947	-0.584986	0.000128
H158	H	0.697137	-0.623252	0.000110
H159	H	0.445257	-0.542412	0.000048
O160	O	0.434605	-0.442686	0.000076
H161	H	0.403693	-0.464453	0.000080
