data_functionalizedCrystal
_audit_creation_method	'MofGen! by Chris Wilmer'
_symmetry_space_group_name_H-M	'P1'
_symmetry_Int_Tables_number	1
_symmetry_cell_setting	triclinic
loop_
_symmetry_equiv_pos_as_xyz
  x,y,z
_cell_length_a	14.971506
_cell_length_b	17.019294
_cell_length_c	13.448316
_cell_angle_alpha	86.114424
_cell_angle_beta	89.992937
_cell_angle_gamma	83.508029
loop_
_atom_site_label
_atom_site_type_symbol
_atom_site_fract_x
_atom_site_fract_y
_atom_site_fract_z
O1	O	1.186681	0.102877	-0.091506
O2	O	0.926252	0.115171	-0.092559
O3	O	1.063731	-0.005802	-0.082196
O4	O	1.049202	0.223849	-0.101870
O5	O	1.063714	-0.005809	0.083189
O6	O	0.926235	0.115163	0.072825
O7	O	1.186663	0.102869	0.073878
Cu8	Cu	1.056448	0.109016	0.088453
Cu9	Cu	1.056468	0.109024	-0.107134
O10	O	1.049184	0.223842	0.063515
C11	C	0.892921	0.114614	-0.009820
C12	C	0.793629	0.112958	-0.009678
C13	C	1.063171	-0.035195	0.003012
C14	C	1.061518	-0.122768	0.010508
C15	C	0.355185	0.177707	-0.015235
C16	C	0.448482	0.179257	-0.015372
C17	C	0.505878	0.108181	-0.009279
C18	C	0.469974	0.035550	-0.003058
C19	C	0.376679	0.034001	-0.002928
C20	C	0.664429	0.038784	-0.003327
C21	C	0.757730	0.040333	-0.003455
C22	C	0.736231	0.184040	-0.015771
C23	C	0.642937	0.182491	-0.015641
C24	C	0.607039	0.109860	-0.009418
C25	C	1.060753	-0.163901	-0.076121
C26	C	1.059194	-0.246184	-0.069074
C27	C	1.058407	-0.287333	0.024602
C28	C	1.059169	-0.246193	0.111237
C29	C	1.060722	-0.163911	0.104190
C30	C	1.053713	-0.535771	0.050390
C31	C	1.052163	-0.618059	0.057431
C32	C	1.052186	-0.618043	-0.122881
C33	C	1.053744	-0.535760	-0.129920
C34	C	1.054501	-0.494628	-0.043285
C35	C	1.056816	-0.371439	0.031806
C36	C	1.056086	-0.410522	-0.050491
C37	C	1.219995	0.103426	-0.008864
C38	C	1.319287	0.105082	-0.009012
C39	C	1.049744	0.253236	-0.021696
C40	C	1.051397	0.340808	-0.029198
N41	N	1.056440	0.109009	0.226017
N42	N	1.056483	0.109025	-0.244698
C43	C	1.117334	0.055464	0.282645
C44	C	1.117340	0.055464	0.386748
C45	C	1.056455	0.109012	0.434222
C46	C	0.995554	0.162559	0.377587
C47	C	0.995544	0.162555	0.273486
C48	C	0.995578	0.162565	0.594566
C49	C	0.995588	0.162570	0.698674
C50	C	1.117374	0.055473	0.707829
C51	C	1.117365	0.055469	0.603728
C52	C	1.056465	0.109017	0.547100
H53	H	0.308458	0.235586	-0.020190
H54	H	1.054347	-0.502293	0.120935
H55	H	1.166918	0.011862	0.243999
H56	H	1.166924	0.011863	0.432854
H57	H	1.051567	-0.651542	-0.193415
H58	H	0.477705	0.238396	-0.020449
H59	H	1.166946	0.011870	0.565075
H60	H	0.596206	0.240367	-0.020596
H61	H	0.765463	0.243179	-0.020837
H62	H	0.347453	-0.025138	0.002138
H63	H	1.058575	-0.279671	-0.139617
H64	H	0.635205	-0.020360	0.001736
H65	H	1.061399	-0.130404	-0.152402
H66	H	1.054386	-0.502263	-0.206201
H67	H	1.061332	-0.130420	0.174732
H68	H	1.056178	-0.404952	0.108078
H69	H	0.516714	-0.022321	0.001897
H70	H	1.058523	-0.279703	0.187510
H71	H	1.051517	-0.651560	0.133717
H72	H	1.166960	0.011872	0.753941
H73	H	1.056721	-0.377014	-0.126762
H74	H	0.946008	0.206173	0.737322
H75	H	0.945984	0.206167	0.548463
H76	H	0.945975	0.206157	0.416246
H77	H	0.804461	-0.017543	0.001499
H78	H	0.945957	0.206156	0.227380
