data_functionalizedCrystal
_audit_creation_method	'MofGen! by Chris Wilmer'
_symmetry_space_group_name_H-M	'P1'
_symmetry_Int_Tables_number	1
_symmetry_cell_setting	triclinic
loop_
_symmetry_equiv_pos_as_xyz
  x,y,z
_cell_length_a	16.120484
_cell_length_b	16.120542
_cell_length_c	13.032268
_cell_angle_alpha	85.358095
_cell_angle_beta	99.642751
_cell_angle_gamma	89.836765
loop_
_atom_site_label
_atom_site_type_symbol
_atom_site_fract_x
_atom_site_fract_y
_atom_site_fract_z
Zn1	Zn	-0.462338	-1.180621	-0.695185
Zn2	Zn	0.037662	-0.680621	-0.195185
Zn3	Zn	-0.585460	-1.191127	-0.528926
Zn4	Zn	-0.085460	-0.691127	-0.028926
Zn5	Zn	-0.437668	-1.061095	-0.511303
Zn6	Zn	0.062332	-0.561095	-0.011303
Zn7	Zn	-0.594189	-1.034575	-0.694224
Zn8	Zn	-0.094189	-0.534575	-0.194224
O9	O	-0.519914	-1.116854	-0.607409
O10	O	-0.019914	-0.616854	-0.107409
O11	O	-0.485342	-1.297554	-0.680907
O12	O	0.014658	-0.797554	-0.180907
O13	O	-0.551878	-1.189373	-0.380455
O14	O	-0.051878	-0.689373	0.119545
O15	O	-0.323910	-1.083653	-0.528721
O16	O	0.176090	-0.583653	-0.028721
O17	O	-0.575799	-1.305272	-0.558758
O18	O	-0.075799	-0.805272	-0.058758
O19	O	-0.342034	-1.171468	-0.663819
O20	O	0.157966	-0.671468	-0.163819
O21	O	-0.443296	-1.093840	-0.367508
O22	O	0.056704	-0.593840	0.132492
O23	O	-0.451760	-0.942038	-0.527790
O24	O	0.048240	-0.442038	-0.027790
O25	O	-0.590676	-1.038453	-0.840485
O26	O	-0.090676	-0.538453	-0.340485
O27	O	-0.566754	-0.922554	-0.662182
O28	O	-0.066754	-0.422554	-0.162182
O29	O	-0.493806	-1.145752	-0.841190
O30	O	0.006194	-0.645752	-0.341190
O31	O	-0.703649	-1.163658	-0.557827
O32	O	-0.203649	-0.663658	-0.057827
O33	O	-0.710062	-1.048640	-0.679271
O34	O	-0.210062	-0.548640	-0.179271
C35	C	-0.737204	-1.104431	-0.620381
C36	C	-0.237204	-0.604431	-0.120381
C37	C	-0.830169	-1.099188	-0.625971
C38	C	-0.330169	-0.599188	-0.125971
C39	C	-0.507528	-0.902338	-0.592970
C40	C	-0.007528	-0.402338	-0.092970
C41	C	-0.502252	-0.810563	-0.586819
C42	C	-0.002252	-0.310563	-0.086819
C43	C	-0.545966	-1.087972	-0.879788
C44	C	-0.045966	-0.587972	-0.379788
C45	C	-0.557068	-1.075664	-0.995859
C46	C	-0.057068	-0.575664	-0.495859
C47	C	-1.000380	-1.089618	-0.636197
C48	C	-0.500380	-0.589618	-0.136197
C49	C	-1.038617	-1.144237	-0.578649
C50	C	-0.538617	-0.644237	-0.078649
C51	C	-1.133328	-1.138912	-0.584339
C52	C	-0.633328	-0.638912	-0.084339
C53	C	-0.905660	-1.094942	-0.630508
C54	C	-0.405660	-0.594942	-0.130508
C55	C	-0.301779	-1.129346	-0.594411
C56	C	0.198221	-0.629346	-0.094411
C57	C	-0.208823	-1.134670	-0.588872
C58	C	0.291177	-0.634670	-0.088872
C59	C	-0.547253	-0.592022	-0.639258
C60	C	-0.047253	-0.092022	-0.139258
C61	C	-0.492626	-0.642532	-0.575588
C62	C	0.007374	-0.142532	-0.075588
C63	C	-0.497983	-0.736033	-0.581839
C64	C	0.002017	-0.236033	-0.081839
C65	C	-0.541897	-0.498513	-0.633009
C66	C	-0.041897	0.001487	-0.133009
C67	C	-0.532343	-0.332211	-0.621891
C68	C	-0.032343	0.167789	-0.121891
C69	C	-0.537625	-0.423987	-0.628024
C70	C	-0.037625	0.076013	-0.128024
C71	C	-0.514089	-1.123267	-1.047956
C72	C	-0.014089	-0.623267	-0.547956
C73	C	-0.525562	-1.110547	-1.167922
C74	C	-0.025562	-0.610547	-0.667922
C75	C	-0.493905	-1.145675	-0.336091
C76	C	0.006095	-0.645675	0.163909
C77	C	-0.482577	-1.158156	-0.220017
C78	C	0.017423	-0.658156	0.279983
H79	H	-1.000223	-1.194996	-0.525106
H80	H	-0.500223	-0.694996	-0.025106
H81	H	-0.468795	-1.173435	-1.003744
H82	H	0.031205	-0.673435	-0.503744
Cl83	Cl	-0.414212	-0.600885	-0.484174
Cl84	Cl	0.085788	-0.100885	0.015826
Cl85	Cl	-0.595488	-1.033077	-1.236168
Cl86	Cl	-0.095488	-0.533077	-0.736168
H87	H	-0.437278	-1.208326	-1.175810
H88	H	0.062722	-0.708326	-0.675810
Cl89	Cl	-1.059654	-1.011252	-0.718855
Cl90	Cl	-0.559654	-0.511252	-0.218855
H91	H	-0.598040	-0.618998	-0.698458
H92	H	-0.098040	-0.118998	-0.198458
H93	H	-0.602353	-1.025489	-1.040070
H94	H	-0.102353	-0.525489	-0.540070
