data_functionalizedCrystal
_audit_creation_method	'MofGen! by Chris Wilmer'
_symmetry_space_group_name_H-M	'P1'
_symmetry_Int_Tables_number	1
_symmetry_cell_setting	triclinic
loop_
_symmetry_equiv_pos_as_xyz
  x,y,z
_cell_length_a	14.908979
_cell_length_b	14.908520
_cell_length_c	18.215399
_cell_angle_alpha	86.730636
_cell_angle_beta	86.724863
_cell_angle_gamma	96.420994
loop_
_atom_site_label
_atom_site_type_symbol
_atom_site_fract_x
_atom_site_fract_y
_atom_site_fract_z
Zn1	Zn	1.362991	-0.280443	0.365225
Zn2	Zn	1.354150	-0.431822	0.249698
Zn3	Zn	1.211624	-0.289214	0.249703
Zn4	Zn	1.202858	-0.440510	0.380246
O5	O	1.282906	-0.360497	0.311218
O6	O	1.488482	-0.293217	0.343612
O7	O	1.335212	-0.412940	0.146718
O8	O	1.239072	-0.161380	0.258743
O9	O	1.481986	-0.404435	0.258735
O10	O	1.350280	-0.154936	0.343617
O11	O	1.230499	-0.308167	0.146721
O12	O	1.083797	-0.316590	0.273308
O13	O	1.224131	-0.419241	0.481235
O14	O	1.077357	-0.427746	0.369217
O15	O	1.341780	-0.301641	0.470199
O16	O	1.326712	-0.559645	0.273300
O17	O	1.215559	-0.566028	0.369213
C18	C	1.047734	-0.374063	0.322893
C19	C	0.947126	-0.379889	0.327906
C20	C	0.801988	-0.446061	0.384827
C21	C	0.896519	-0.440588	0.380123
C22	C	0.903196	-0.324661	0.280389
C23	C	0.808665	-0.330134	0.285093
C24	C	0.758065	-0.390835	0.337314
C25	C	0.663533	-0.396303	0.342021
C26	C	0.670210	-0.280382	0.242284
C27	C	0.764741	-0.274909	0.237580
C28	C	1.269249	-0.595680	0.322901
C29	C	1.263490	-0.696287	0.327919
C30	C	1.368530	-0.878624	0.237545
C31	C	1.363122	-0.973154	0.242258
C32	C	1.247270	-0.979876	0.342060
C33	C	1.252678	-0.885347	0.337348
C34	C	1.313310	-0.834724	0.285088
C35	C	1.318713	-0.740193	0.280372
C36	C	1.202866	-0.746917	0.380177
C37	C	1.197457	-0.841446	0.384890
C38	C	1.518995	-0.346879	0.299498
C39	C	1.619602	-0.341075	0.294504
C40	C	1.282964	-0.360432	0.503165
C41	C	1.282989	-0.360404	0.584962
C42	C	1.296640	-0.124395	0.299505
C43	C	1.302493	-0.023783	0.294513
C44	C	1.282903	-0.360494	0.120012
C45	C	1.283068	-0.360257	0.038194
C46	C	1.344273	-0.299114	0.767407
C47	C	1.344285	-0.299087	0.844264
C48	C	1.221778	-0.421550	0.855744
C49	C	1.221762	-0.421572	0.778889
C50	C	1.283015	-0.360355	0.734722
C51	C	1.283043	-0.360306	0.888434
C52	C	1.283056	-0.360277	0.971766
C53	C	1.283001	-0.360382	0.651385
H54	H	0.760789	-0.495478	0.427353
H55	H	0.944410	-0.275249	0.237867
H56	H	0.634438	-0.235410	0.203598
C57	C	1.410899	-0.232558	0.879611
C58	C	1.464549	-0.178970	0.824479
C59	C	1.525933	-0.117678	0.857012
H60	H	1.378681	-0.195018	0.909346
H61	H	1.448379	-0.264877	0.909336
H62	H	1.427074	-0.146653	0.794767
H63	H	1.496787	-0.216485	0.794741
H64	H	1.563413	-0.149997	0.886738
H65	H	1.493707	-0.080145	0.886746
H66	H	1.562347	-0.081317	0.819611
C67	C	1.384628	-0.685387	0.223610
C68	C	1.431847	-0.744069	0.182998
C69	C	1.492587	-0.693616	0.130709
H70	H	1.352237	-0.650556	0.191330
H71	H	1.426205	-0.646193	0.247974
H72	H	1.390277	-0.783247	0.158635
H73	H	1.464257	-0.778901	0.215257
H74	H	1.534163	-0.654423	0.155073
H75	H	1.460189	-0.658788	0.098434
H76	H	1.524638	-0.733425	0.103152
C77	C	1.155184	-0.488059	0.903572
C78	C	1.101516	-0.541680	0.858495
C79	C	1.040154	-0.602954	0.902526
H80	H	1.187419	-0.525578	0.933802
H81	H	1.117714	-0.455725	0.933782
H82	H	1.138981	-0.574012	0.828298
H83	H	1.069262	-0.504186	0.828266
H84	H	1.002684	-0.570620	0.932736
H85	H	1.072396	-0.640466	0.932754
H86	H	1.003727	-0.639338	0.871948
C87	C	0.944044	-0.500588	0.431801
C88	C	0.879494	-0.554899	0.478550
C89	C	0.923240	-0.610177	0.526174
H90	H	0.978624	-0.537929	0.403807
H91	H	0.982917	-0.463896	0.460401
H92	H	0.840637	-0.591587	0.449953
H93	H	0.844910	-0.517582	0.506561
H94	H	0.962113	-0.573485	0.554774
H95	H	0.957820	-0.647513	0.498173
H96	H	0.879451	-0.647028	0.557903
C97	C	0.608750	-0.462291	0.398743
C98	C	0.667454	-0.509499	0.439333
C99	C	0.617024	-0.570304	0.491586
H100	H	0.573886	-0.429948	0.431042
H101	H	0.569592	-0.503870	0.374352
H102	H	0.706596	-0.467925	0.463723
H103	H	0.702319	-0.541859	0.407054
H104	H	0.577865	-0.611883	0.467195
H105	H	0.582161	-0.537954	0.523880
H106	H	0.656846	-0.602348	0.519128
H107	H	1.394147	-0.249265	0.731448
H108	H	1.171871	-0.471441	0.752276
H109	H	0.805952	-0.225491	0.195061
H110	H	1.417893	-0.837407	0.194989
C111	C	1.131491	-0.896304	0.441586
C112	C	1.043260	-0.878556	0.428809
C113	C	0.982466	-0.929062	0.481028
H114	H	1.136053	-0.958911	0.437640
H115	H	1.145533	-0.879980	0.489625
H116	H	1.029221	-0.894886	0.380782
H117	H	1.038668	-0.815959	0.432761
H118	H	0.996508	-0.912739	0.529068
H119	H	0.987037	-0.991667	0.477078
H120	H	0.922596	-0.917022	0.472371
H121	H	1.408090	-1.008893	0.203546
C122	C	1.181472	-1.035008	0.398722
C123	C	1.188546	-1.127189	0.392660
C124	C	1.127938	-1.178004	0.444838
H125	H	1.195502	-1.018817	0.446787
H126	H	1.121523	-1.023149	0.390153
H127	H	1.248482	-1.139042	0.401234
H128	H	1.174508	-1.143407	0.344607
H129	H	1.067988	-1.166145	0.436269
H130	H	1.141973	-1.161805	0.492899
H131	H	1.132724	-1.240554	0.440727
H132	H	1.157898	-0.711163	0.418887
