data_functionalizedCrystal
_audit_creation_method	'MofGen! by Chris Wilmer'
_symmetry_space_group_name_H-M	'P1'
_symmetry_Int_Tables_number	1
_symmetry_cell_setting	triclinic
loop_
_symmetry_equiv_pos_as_xyz
  x,y,z
_cell_length_a	12.594516
_cell_length_b	12.594517
_cell_length_c	12.594509
_cell_angle_alpha	90.021327
_cell_angle_beta	89.972932
_cell_angle_gamma	89.982028
loop_
_atom_site_label
_atom_site_type_symbol
_atom_site_fract_x
_atom_site_fract_y
_atom_site_fract_z
Zn1	Zn	-0.423716	-1.627251	-0.601869
Zn2	Zn	-0.601726	-1.627136	-0.423894
Zn3	Zn	-0.423761	-1.449255	-0.423897
Zn4	Zn	-0.601652	-1.449231	-0.601824
O5	O	-0.512714	-1.538218	-0.512871
O6	O	-0.447341	-1.776182	-0.578277
O7	O	-0.578169	-1.603501	-0.274948
O8	O	-0.274809	-1.472925	-0.447526
O9	O	-0.578124	-1.776097	-0.447520
O10	O	-0.274776	-1.603698	-0.578281
O11	O	-0.447419	-1.472813	-0.274951
O12	O	-0.447347	-1.300306	-0.447483
O13	O	-0.577998	-1.472884	-0.750776
O14	O	-0.578042	-1.300288	-0.578204
O15	O	-0.447269	-1.603675	-0.750809
O16	O	-0.750662	-1.603477	-0.447476
O17	O	-0.750608	-1.472772	-0.578201
C18	C	-0.512692	-1.261677	-0.512840
C19	C	-0.512709	-1.143372	-0.512851
C20	C	-0.789255	-1.538138	-0.512856
C21	C	-0.907560	-1.538201	-0.512886
C22	C	-0.512621	-1.538289	-0.790492
C23	C	-0.512581	-1.538320	-0.908797
C24	C	-1.047586	-1.467168	-0.583951
C25	C	-0.976675	-1.564203	-0.610065
C26	C	-0.976899	-1.441176	-0.486819
C27	C	-1.047435	-1.635461	-0.539090
C28	C	-1.047665	-1.512369	-0.415798
C29	C	-0.976786	-1.609471	-0.441876
C30	C	-0.235093	-1.538327	-0.512909
C31	C	-0.116787	-1.538374	-0.512925
C32	C	-0.512736	-1.815839	-0.512903
C33	C	-0.512745	-1.934144	-0.512917
C34	C	-0.441526	-1.074098	-0.441887
C35	C	-0.538615	-1.003283	-0.415710
C36	C	-0.415668	-1.003387	-0.539048
C37	C	-0.609849	-1.074115	-0.486623
C38	C	-0.486836	-1.074226	-0.610006
C39	C	-0.583991	-1.003443	-0.583865
C40	C	-0.583644	-1.467205	-0.978033
C41	C	-0.609650	-1.564325	-1.048824
C42	C	-0.486510	-1.441276	-1.048806
C43	C	-0.538638	-1.635490	-0.978030
C44	C	-0.415453	-1.512376	-0.978006
C45	C	-0.441422	-1.609563	-1.048765
C46	C	-0.512730	-1.538208	-0.236330
C47	C	-0.512470	-1.538384	-0.118025
H48	H	-1.078669	-1.407100	-0.644077
C49	C	-1.088360	-1.745088	-0.568614
C50	C	-1.002268	-1.813052	-0.586884
C51	C	-1.039929	-1.914047	-0.614073
H52	H	-1.130288	-1.740325	-0.631104
H53	H	-1.130367	-1.772266	-0.512156
H54	H	-0.960279	-1.785880	-0.643337
H55	H	-0.960332	-1.817846	-0.524407
H56	H	-1.081937	-1.941225	-0.557615
H57	H	-1.081857	-1.909274	-0.676562
H58	H	-0.981523	-1.960176	-0.626463
H59	H	-1.078869	-1.490412	-0.333701
C60	C	-0.935751	-1.331573	-0.457519
C61	C	-0.971660	-1.257442	-0.532144
C62	C	-0.933802	-1.156460	-0.505183
H63	H	-0.860335	-1.332289	-0.457088
H64	H	-0.961149	-1.312633	-0.389039
H65	H	-0.946257	-1.276377	-0.600606
H66	H	-1.047072	-1.256693	-0.532586
H67	H	-0.959199	-1.137520	-0.436703
H68	H	-0.858387	-1.157188	-0.504752
H69	H	-0.958168	-1.106149	-0.555805
H70	H	-0.381389	-1.105121	-0.381802
C71	C	-0.664533	-0.962384	-0.663780
C72	C	-0.765943	-0.998393	-0.635896
C73	C	-0.840168	-0.960576	-0.709475
H74	H	-0.646871	-0.987725	-0.732606
H75	H	-0.663766	-0.886954	-0.663767
H76	H	-0.766707	-1.073807	-0.635920
H77	H	-0.783638	-0.973055	-0.567083
H78	H	-0.839401	-0.885146	-0.709462
H79	H	-0.822496	-0.985919	-0.778296
H80	H	-0.908984	-0.984994	-0.690560
C81	C	-0.719112	-1.593805	-1.090173
C82	C	-0.746822	-1.694737	-1.052758
C83	C	-0.847655	-1.721915	-1.090815
H84	H	-0.718223	-1.594338	-1.165587
H85	H	-0.769611	-1.543245	-1.065934
H86	H	-0.696336	-1.745284	-1.077002
H87	H	-0.747735	-1.694230	-0.977348
H88	H	-0.898154	-1.671355	-1.066577
H89	H	-0.846756	-1.722442	-1.166229
H90	H	-0.866474	-1.790395	-1.065427
H91	H	-0.560522	-0.972123	-0.333576
C92	C	-0.935148	-1.593238	-0.719636
C93	C	-0.970991	-1.518515	-0.793699
C94	C	-0.932750	-1.545212	-0.894645
H95	H	-0.960312	-1.661701	-0.738803
H96	H	-0.859720	-1.593554	-0.718708
H97	H	-1.046403	-1.518211	-0.794630
H98	H	-0.945830	-1.450046	-0.774568
H99	H	-0.857323	-1.545527	-0.893718
H100	H	-0.957916	-1.613676	-0.913801
H101	H	-0.957056	-1.494512	-0.944908
H102	H	-0.333385	-1.490369	-0.946876
H103	H	-0.643833	-1.407113	-0.946976
H104	H	-0.945897	-1.669683	-0.381795
C105	C	-0.719336	-1.115211	-0.456808
C106	C	-0.746360	-1.078370	-0.355432
C107	C	-0.847213	-1.116196	-0.327935
H108	H	-0.718769	-1.190630	-0.456847
H109	H	-0.769993	-1.090422	-0.506880
H110	H	-0.695717	-1.103164	-0.305373
H111	H	-0.746951	-1.002956	-0.355367
H112	H	-0.897870	-1.091408	-0.378007
H113	H	-0.846637	-1.191614	-0.327979
H114	H	-0.865566	-1.091198	-0.259154
H115	H	-0.333597	-0.972264	-0.561140
H116	H	-0.381279	-1.669799	-1.079626
C117	C	-0.457373	-1.115759	-0.719452
C118	C	-0.355628	-1.080009	-0.746437
C119	C	-0.328434	-1.118262	-0.847244
H120	H	-0.507144	-1.090541	-0.770174
H121	H	-0.458154	-1.191186	-0.718801
H122	H	-0.354855	-1.004598	-0.747097
H123	H	-0.305835	-1.105224	-0.695742
H124	H	-0.329215	-1.193689	-0.846593
H125	H	-0.378211	-1.093041	-0.897957
H126	H	-0.259394	-1.094019	-0.865562
C127	C	-0.568148	-1.744900	-0.936553
C128	C	-0.567934	-1.743570	-0.825391
C129	C	-0.595131	-1.844330	-0.787144
H130	H	-0.517990	-1.795571	-0.961223
H131	H	-0.636918	-1.763475	-0.961331
H132	H	-0.499174	-1.725008	-0.800623
H133	H	-0.618093	-1.692920	-0.800693
H134	H	-0.663901	-1.862905	-0.811922
H135	H	-0.544969	-1.894993	-0.811821
H136	H	-0.594998	-1.843438	-0.711718
C137	C	-0.457308	-1.331719	-1.090115
C138	C	-0.532018	-1.257564	-1.054253
C139	C	-0.505154	-1.156627	-1.092272
H140	H	-0.456863	-1.332545	-1.165531
H141	H	-0.388853	-1.312718	-1.064796
H142	H	-0.600455	-1.276560	-1.079578
H143	H	-0.532474	-1.256705	-0.978843
H144	H	-0.436699	-1.137626	-1.066953
H145	H	-0.504709	-1.157464	-1.167687
H146	H	-0.555834	-1.106299	-1.067938
