data_functionalizedCrystal
_audit_creation_method	'MofGen! by Chris Wilmer'
_symmetry_space_group_name_H-M	'P1'
_symmetry_Int_Tables_number	1
_symmetry_cell_setting	triclinic
loop_
_symmetry_equiv_pos_as_xyz
  x,y,z
_cell_length_a	10.723024
_cell_length_b	15.021413
_cell_length_c	10.723023
_cell_angle_alpha	90.004758
_cell_angle_beta	84.467709
_cell_angle_gamma	89.992288
loop_
_atom_site_label
_atom_site_type_symbol
_atom_site_fract_x
_atom_site_fract_y
_atom_site_fract_z
O1	O	-1.657195	0.074038	-0.175011
O2	O	-1.294042	0.074038	-0.191764
O3	O	-1.483996	0.074033	-0.001811
O4	O	-1.467241	0.074042	-0.364964
O5	O	-1.483966	-0.074031	-0.001838
O6	O	-1.294012	-0.074026	-0.191791
O7	O	-1.657165	-0.074026	-0.175038
Zn8	Zn	-1.475584	-0.097535	-0.183419
Zn9	Zn	-1.475623	0.097546	-0.183383
O10	O	-1.467211	-0.074022	-0.364991
C11	C	-1.247528	0.000006	-0.190558
C12	C	-1.108973	0.000006	-0.186911
N13	N	-1.475565	-0.230672	-0.183442
C14	C	-1.033991	0.000008	-0.293198
C15	C	-0.890787	0.000008	-0.289431
C16	C	-1.387717	-0.470354	-0.271235
C17	C	-1.500686	-0.529687	-0.296421
C18	C	-1.475597	-0.412279	-0.183412
C19	C	-1.362659	-0.529687	-0.158254
C20	C	-1.475618	-0.587703	-0.183384
C21	C	-1.588624	-0.470307	-0.208654
C22	C	-1.450522	-0.470301	-0.070437
C23	C	-1.563572	-0.529608	-0.095576
C24	C	-1.475584	-0.311222	-0.183430
C25	C	-1.475644	-0.688759	-0.183365
C26	C	-0.703679	0.000006	-0.176243
C27	C	-0.842234	0.000006	-0.179891
C28	C	-1.482762	0.000002	0.044675
C29	C	-1.479114	0.000004	0.183229
N30	N	-1.475651	0.230684	-0.183350
C31	C	-1.473735	0.076708	0.388205
C32	C	-1.477504	0.076707	0.245002
C33	C	-1.468445	0.000009	0.588523
C34	C	-1.472093	0.000007	0.449969
H35	H	-0.826354	0.000014	-0.380421
C36	C	-1.471863	0.165427	0.459975
C37	C	-1.364171	0.232029	0.428956
C38	C	-1.362298	0.320752	0.500720
C39	C	-1.468118	0.342872	0.603503
C40	C	-1.575818	0.276268	0.634527
C41	C	-1.577690	0.187545	0.562763
H42	H	-1.285830	0.215656	0.352866
H43	H	-1.282571	0.370057	0.477754
H44	H	-1.466732	0.408550	0.656627
H45	H	-1.654159	0.292642	0.710617
H46	H	-1.657417	0.138241	0.585729
H47	H	-1.067152	0.000026	-0.093125
H48	H	-1.478906	0.142373	0.191885
C49	C	-0.929260	0.000003	-0.056955
C50	C	-1.022591	-0.076884	-0.028207
C51	C	-1.109628	-0.076887	0.094729
C52	C	-1.103334	-0.000003	0.188917
C53	C	-1.009999	0.076889	0.160173
C54	C	-0.922962	0.076892	0.037237
H55	H	-1.027254	-0.133803	-0.097934
H56	H	-1.178721	-0.133808	0.116007
H57	H	-1.167764	-0.000006	0.279922
H58	H	-1.005337	0.133808	0.229899
H59	H	-0.853870	0.133813	0.015958
C60	C	-1.421803	-0.435025	0.058572
C61	C	-1.417680	-0.334031	0.082492
C62	C	-1.388945	-0.298752	0.211502
C63	C	-1.364332	-0.364467	0.316591
C64	C	-1.368454	-0.465467	0.292674
C65	C	-1.397189	-0.500746	0.163665
H66	H	-1.435900	-0.285379	0.004696
H67	H	-1.385893	-0.223984	0.229206
H68	H	-1.343061	-0.338351	0.412091
H69	H	-1.350234	-0.514119	0.370470
H70	H	-1.400241	-0.575513	0.145960
H71	H	-1.313476	-0.444336	-0.345566
H72	H	-1.684164	-0.444333	-0.230035
C73	C	-1.529366	-0.564936	-0.425466
C74	C	-1.441844	-0.541564	-0.543272
C75	C	-1.470515	-0.576808	-0.672320
C76	C	-1.586707	-0.635424	-0.683562
C77	C	-1.674237	-0.658799	-0.565751
C78	C	-1.645567	-0.623555	-0.436703
H79	H	-1.355825	-0.498170	-0.534955
H80	H	-1.405719	-0.559504	-0.759531
H81	H	-1.607931	-0.661514	-0.779090
H82	H	-1.760257	-0.702192	-0.574069
H83	H	-1.710363	-0.640858	-0.349492
C84	C	-1.477208	-0.088716	0.254965
C85	C	-1.366673	-0.110833	0.331258
C86	C	-1.364766	-0.199553	0.403004
C87	C	-1.473394	-0.266157	0.398457
C88	C	-1.583936	-0.244042	0.322161
C89	C	-1.585843	-0.155322	0.250415
H90	H	-1.286254	-0.061527	0.334626
H91	H	-1.282935	-0.215924	0.459483
H92	H	-1.471982	-0.331833	0.451568
H93	H	-1.664356	-0.293348	0.318793
H94	H	-1.667675	-0.138951	0.193936
C95	C	-1.233623	-0.564923	-0.129510
C96	C	-1.115788	-0.541538	-0.216982
C97	C	-0.986750	-0.576771	-0.188251
C98	C	-0.975547	-0.635388	-0.072048
C99	C	-1.093387	-0.658777	0.015431
C100	C	-1.222425	-0.623544	-0.013300
H101	H	-1.124077	-0.498143	-0.303009
H102	H	-0.899517	-0.559457	-0.253009
H103	H	-0.880026	-0.661470	-0.050779
H104	H	-1.085098	-0.702172	0.101458
H105	H	-1.309657	-0.640858	0.051459
H106	H	-1.075812	0.000006	-0.386984
H107	H	-1.473484	-0.065660	0.396831
C108	C	-1.664083	-0.564545	0.004778
C109	C	-1.802903	-0.540874	-0.002664
C110	C	-1.903417	-0.575813	0.097684
C111	C	-1.865111	-0.634423	0.205474
C112	C	-1.726285	-0.658097	0.212920
C113	C	-1.625771	-0.623158	0.112572
H114	H	-1.831265	-0.497485	-0.082460
H115	H	-2.006185	-0.558287	0.092171
H116	H	-1.939517	-0.660287	0.279757
H117	H	-1.697923	-0.701486	0.292717
H118	H	-1.523003	-0.640684	0.118085
