data_functionalizedCrystal
_audit_creation_method	'MofGen! by Chris Wilmer'
_symmetry_space_group_name_H-M	'P1'
_symmetry_Int_Tables_number	1
_symmetry_cell_setting	triclinic
loop_
_symmetry_equiv_pos_as_xyz
  x,y,z
_cell_length_a	18.050590
_cell_length_b	18.050588
_cell_length_c	19.805399
_cell_angle_alpha	90.025240
_cell_angle_beta	90.002950
_cell_angle_gamma	90.018727
loop_
_atom_site_label
_atom_site_type_symbol
_atom_site_fract_x
_atom_site_fract_y
_atom_site_fract_z
Zn1	Zn	1.135313	-0.295891	0.382430
Zn2	Zn	1.135212	-0.420084	0.269247
Zn3	Zn	1.011124	-0.295888	0.269288
Zn4	Zn	1.011077	-0.420021	0.382426
O5	O	1.073182	-0.357971	0.325848
O6	O	1.239224	-0.312393	0.367401
O7	O	1.118729	-0.403634	0.174536
O8	O	1.027659	-0.191964	0.284315
O9	O	1.239150	-0.403637	0.284245
O10	O	1.118900	-0.191966	0.367441
O11	O	1.027562	-0.312388	0.174566
O12	O	0.907193	-0.312327	0.284311
O13	O	1.027580	-0.403530	0.477143
O14	O	0.907159	-0.403527	0.367434
O15	O	1.118855	-0.312332	0.477146
O16	O	1.118684	-0.524000	0.284241
O17	O	1.027482	-0.523954	0.367394
C18	C	1.073087	-0.550923	0.325828
C19	C	1.073115	-0.633469	0.325842
C20	C	0.880229	-0.357920	0.325877
C21	C	0.797684	-0.357917	0.325905
C22	C	1.023598	-0.882296	0.371060
C23	C	1.091315	-0.832839	0.387653
C24	C	1.073269	-0.930589	0.325879
C25	C	1.005479	-0.832965	0.309300
C26	C	1.073190	-0.784604	0.325862
C27	C	1.141023	-0.882219	0.342504
C28	C	1.055142	-0.882349	0.264122
C29	C	1.122906	-0.832914	0.280691
C30	C	1.073314	-1.014688	0.325891
C31	C	1.073153	-0.700508	0.325851
C32	C	0.598236	-0.407653	0.371000
C33	C	0.548845	-0.339937	0.387654
C34	C	0.646553	-0.357958	0.325872
C35	C	0.548862	-0.425713	0.309217
C36	C	0.500568	-0.358004	0.325842
C37	C	0.598250	-0.290206	0.342559
C38	C	0.598271	-0.376028	0.264093
C39	C	0.548903	-0.308265	0.280724
C40	C	0.730652	-0.357932	0.325892
C41	C	0.416472	-0.358022	0.325822
C42	C	1.266887	-0.358023	0.325819
C43	C	1.349433	-0.358044	0.325807
C44	C	1.073223	-0.357924	0.502391
C45	C	1.073241	-0.357904	0.577623
C46	C	1.073296	-0.164265	0.325883
C47	C	1.073345	-0.081720	0.325898
C48	C	1.073183	-0.357964	0.149992
C49	C	1.073309	-0.357775	0.074760
C50	C	1.120769	-0.310416	0.612969
C51	C	1.120777	-0.310394	0.683658
C52	C	1.073259	-0.357866	0.718998
C53	C	1.025726	-0.405356	0.683647
C54	C	1.025715	-0.405374	0.612959
C55	C	1.025768	-0.405287	0.968720
C56	C	1.025784	-0.405268	1.039412
C57	C	1.120829	-0.310308	1.039419
C58	C	1.120819	-0.310325	0.968731
C59	C	1.073283	-0.357813	0.933386
C60	C	1.073274	-0.357834	0.856737
C61	C	1.073271	-0.357848	0.795645
H62	H	1.106619	-0.811094	0.439872
C63	C	0.974022	-0.456816	0.574549
C64	C	0.926424	-0.414767	0.533993
C65	C	0.878785	-0.462130	0.498610
H66	H	1.002320	-0.489205	0.546910
H67	H	0.945684	-0.485072	0.605702
H68	H	0.954759	-0.386523	0.502844
H69	H	0.898110	-0.382380	0.561615
H70	H	0.850447	-0.490386	0.529763
H71	H	0.907088	-0.494517	0.470975
H72	H	0.846479	-0.433607	0.471094
H73	H	0.619998	-0.391317	0.211876
H74	H	1.039818	-0.904112	0.211918
C75	C	0.967802	-0.911177	0.422159
C76	C	0.987093	-0.886103	0.486719
C77	C	0.935723	-0.912703	0.533809
H78	H	0.919766	-0.893607	0.410910
H79	H	0.967918	-0.963806	0.421565
H80	H	0.986970	-0.833485	0.487310
H81	H	1.035121	-0.903671	0.497989
H82	H	0.935838	-0.965332	0.533216
H83	H	0.887689	-0.895131	0.522554
H84	H	0.948808	-0.895700	0.577619
C85	C	1.172340	-0.258712	0.721942
C86	C	1.156225	-0.185236	0.704741
C87	C	1.203718	-0.137602	0.739985
H88	H	1.165592	-0.265390	0.769114
H89	H	1.222242	-0.269557	0.710335
H90	H	1.106335	-0.174395	0.716352
H91	H	1.162977	-0.178535	0.657575
H92	H	1.253619	-0.148447	0.728378
H93	H	1.196966	-0.144287	0.787155
H94	H	1.192794	-0.087744	0.728314
C95	C	0.929122	-0.803976	0.290653
C96	C	0.930245	-0.726418	0.290313
C97	C	0.859913	-0.699695	0.273155
H98	H	0.915861	-0.821579	0.247091
H99	H	0.893910	-0.820847	0.322817
H100	H	0.965445	-0.709554	0.258149
H101	H	0.943493	-0.708795	0.333868
H102	H	0.824702	-0.716566	0.305319
H103	H	0.846658	-0.717303	0.229594
H104	H	0.860664	-0.647069	0.272927
H105	H	0.619854	-0.232909	0.356692
C106	C	1.179049	-0.804218	0.229825
C107	C	1.249836	-0.829294	0.247487
C108	C	1.301576	-0.802864	0.200654
H109	H	1.166710	-0.821903	0.186066
H110	H	1.178476	-0.751588	0.229843
H111	H	1.250406	-0.881913	0.247462
H112	H	1.262198	-0.811611	0.291238
H113	H	1.301003	-0.750234	0.200672
H114	H	1.289229	-0.820550	0.156898
H115	H	1.349611	-0.819868	0.212635
C116	C	0.520033	-0.319603	0.457353
C117	C	0.579942	-0.307574	0.500911
C118	C	0.553430	-0.288859	0.565126
H119	H	0.491096	-0.275776	0.454447
H120	H	0.490356	-0.358906	0.474278
H121	H	0.609607	-0.268275	0.483991
H122	H	0.608884	-0.351392	0.503838
H123	H	0.523753	-0.328161	0.582051
H124	H	0.524493	-0.245033	0.562213
H125	H	0.594073	-0.280701	0.594690
H126	H	1.198335	-0.903766	0.356580
H127	H	0.619899	-0.449604	0.409206
H128	H	0.527378	-0.266211	0.242548
C129	C	1.172239	-0.258827	0.574518
C130	C	1.130210	-0.211239	0.533938
C131	C	1.177597	-0.163708	0.498503
H132	H	1.200560	-0.230470	0.605620
H133	H	1.204567	-0.287227	0.546895
H134	H	1.097894	-0.182842	0.561559
H135	H	1.101890	-0.239576	0.502824
H136	H	1.209925	-0.192108	0.470880
H137	H	1.205916	-0.135356	0.529610
H138	H	1.149088	-0.131418	0.470961
C139	C	0.520030	-0.502153	0.290543
C140	C	0.545039	-0.553925	0.337967
C141	C	0.518501	-0.624350	0.320789
H142	H	0.467410	-0.501604	0.290277
H143	H	0.537697	-0.515360	0.246986
H144	H	0.527368	-0.540721	0.381512
H145	H	0.597656	-0.554497	0.338240
H146	H	0.536169	-0.637557	0.277233
H147	H	0.465882	-0.623794	0.320523
H148	H	0.535472	-0.659487	0.352960
H149	H	1.159515	-0.271671	0.939961
H150	H	1.159533	-0.271638	1.068205
H151	H	0.987086	-0.443926	1.068184
C152	C	0.974120	-0.456914	0.930473
C153	C	0.932521	-0.498491	0.976555
C154	C	0.884934	-0.546061	0.941343
H155	H	0.941711	-0.428573	0.902912
H156	H	1.002473	-0.489333	0.902895
H157	H	0.904170	-0.466077	1.004121
H158	H	0.964910	-0.526847	1.004117
H159	H	0.913286	-0.578479	0.913766
H160	H	0.852530	-0.517714	0.913784
H161	H	0.856708	-0.574281	0.972604
H162	H	0.987034	-0.444006	0.712426
