data_functionalizedCrystal
_audit_creation_method	'MofGen! by Chris Wilmer'
_symmetry_space_group_name_H-M	'P1'
_symmetry_Int_Tables_number	1
_symmetry_cell_setting	triclinic
loop_
_symmetry_equiv_pos_as_xyz
  x,y,z
_cell_length_a	16.120297
_cell_length_b	16.959455
_cell_length_c	16.959453
_cell_angle_alpha	89.983065
_cell_angle_beta	92.871658
_cell_angle_gamma	87.120459
loop_
_atom_site_label
_atom_site_type_symbol
_atom_site_fract_x
_atom_site_fract_y
_atom_site_fract_z
Zn1	Zn	-0.471356	-1.185758	-0.337425
Zn2	Zn	0.028644	-0.685758	0.162575
Zn3	Zn	-0.331944	-1.192373	-0.462905
Zn4	Zn	0.168056	-0.692373	0.037095
Zn5	Zn	-0.331963	-1.060278	-0.330739
Zn6	Zn	0.168037	-0.560278	0.169261
Zn7	Zn	-0.471313	-1.053554	-0.469557
Zn8	Zn	0.028687	-0.553554	0.030443
O9	O	-0.401644	-1.122991	-0.400156
O10	O	0.098356	-0.622991	0.099844
O11	O	-0.452874	-1.297246	-0.354085
O12	O	0.047126	-0.797246	0.145915
O13	O	-0.215284	-1.180433	-0.439791
O14	O	0.284716	-0.680433	0.060209
O15	O	-0.350480	-1.076969	-0.221016
O16	O	0.149520	-0.576969	0.278984
O17	O	-0.350448	-1.302106	-0.446275
O18	O	0.149552	-0.802106	0.053725
O19	O	-0.452892	-1.169159	-0.225929
O20	O	0.047108	-0.669159	0.274071
O21	O	-0.215297	-1.083383	-0.342689
O22	O	0.284703	-0.583383	0.157311
O23	O	-0.350437	-0.948776	-0.349138
O24	O	0.149563	-0.448776	0.150862
O25	O	-0.587981	-1.065509	-0.457611
O26	O	-0.087981	-0.565509	0.042389
O27	O	-0.452817	-0.943835	-0.451127
O28	O	0.047183	-0.443835	0.048873
O29	O	-0.588014	-1.162639	-0.360535
O30	O	-0.088014	-0.662639	0.139465
O31	O	-0.350405	-1.173913	-0.574397
O32	O	0.149595	-0.673913	-0.074397
O33	O	-0.452799	-1.071923	-0.579284
O34	O	0.047201	-0.571923	-0.079284
C35	C	-0.401625	-0.917625	-0.400129
C36	C	0.098375	-0.417625	0.099871
C37	C	-0.401636	-0.829768	-0.400138
C38	C	0.098364	-0.329768	0.099862
C39	C	-0.619093	-1.112586	-0.410561
C40	C	-0.119093	-0.612586	0.089439
C41	C	-0.711756	-1.108152	-0.414995
C42	C	-0.211756	-0.608152	0.085005
C43	C	-0.401613	-1.122926	-0.605521
C44	C	0.098387	-0.622926	-0.105521
C45	C	-0.401628	-1.122970	-0.693379
C46	C	0.098372	-0.622970	-0.193379
C47	C	-0.881414	-1.100027	-0.423072
C48	C	-0.381414	-0.600027	0.076928
C49	C	-0.922726	-1.146110	-0.377004
C50	C	-0.422726	-0.646110	0.122996
C51	C	-1.017129	-1.141589	-0.381499
C52	C	-0.517129	-0.641589	0.118501
C53	C	-0.787002	-1.104547	-0.418579
C54	C	-0.287002	-0.604547	0.081421
C55	C	-0.185041	-1.133401	-0.389736
C56	C	0.314959	-0.633401	0.110264
C57	C	-0.092378	-1.137988	-0.385079
C58	C	0.407622	-0.637988	0.114921
C59	C	-0.401664	-1.329158	-0.400184
C60	C	0.098336	-0.829158	0.099816
C61	C	-0.401672	-1.417014	-0.400196
C62	C	0.098328	-0.917014	0.099804
C63	C	-0.348446	-0.460835	-0.347015
C64	C	0.151554	0.039165	0.152985
C65	C	-0.454889	-0.455747	-0.453366
C66	C	0.045111	0.044253	0.046634
C67	C	-0.454884	-0.538293	-0.453354
C68	C	0.045116	-0.038293	0.046646
C69	C	-0.401659	-0.582114	-0.400173
C70	C	0.098341	-0.082114	0.099827
C71	C	-0.348438	-0.543389	-0.347003
C72	C	0.151562	-0.043389	0.152997
C73	C	-0.508098	-0.577025	-0.506528
C74	C	-0.008098	-0.077025	-0.006528
C75	C	-0.508095	-0.659577	-0.506519
C76	C	-0.008095	-0.159577	-0.006519
C77	C	-0.454872	-0.703399	-0.453333
C78	C	0.045128	-0.203399	0.046667
C79	C	-0.401650	-0.664668	-0.400161
C80	C	0.098350	-0.164668	0.099839
C81	C	-0.348424	-0.708489	-0.346980
C82	C	0.151576	-0.208489	0.153020
C83	C	-0.295206	-0.669760	-0.293803
C84	C	0.204794	-0.169760	0.206197
C85	C	-0.295215	-0.587211	-0.293817
C86	C	0.204785	-0.087211	0.206183
C87	C	-0.454862	-0.785947	-0.453319
C88	C	0.045138	-0.285947	0.046681
C89	C	-0.348416	-0.791043	-0.346968
C90	C	0.151584	-0.291043	0.153032
C91	C	-0.455071	-1.171054	-1.067359
C92	C	0.044929	-0.671054	-0.567359
C93	C	-0.348341	-1.075142	-1.062356
C94	C	0.151659	-0.575142	-0.562356
C95	C	-0.348322	-1.075114	-0.979810
C96	C	0.151678	-0.575114	-0.479810
C97	C	-0.401679	-1.123055	-0.941034
C98	C	0.098321	-0.623055	-0.441034
C99	C	-0.455055	-1.171025	-0.984805
C100	C	0.044945	-0.671025	-0.484805
C101	C	-0.294953	-1.027139	-0.936033
C102	C	0.205047	-0.527139	-0.436033
C103	C	-0.294933	-1.027108	-0.853481
C104	C	0.205067	-0.527108	-0.353481
C105	C	-0.348286	-1.075054	-0.814703
C106	C	0.151714	-0.575054	-0.314703
C107	C	-0.401663	-1.123027	-0.858480
C108	C	0.098337	-0.623027	-0.358480
C109	C	-0.455020	-1.170968	-0.819704
C110	C	0.044980	-0.670968	-0.319704
C111	C	-0.508394	-1.218945	-0.863478
C112	C	-0.008394	-0.718945	-0.363478
C113	C	-0.508408	-1.218971	-0.946028
C114	C	-0.008408	-0.718971	-0.446028
C115	C	-0.348272	-1.075028	-0.732154
C116	C	0.151728	-0.575028	-0.232154
C117	C	-0.455004	-1.170939	-0.737150
C118	C	0.044996	-0.670939	-0.237150
C119	C	-0.401693	-1.123076	-0.193991
C120	C	0.098307	-0.623076	0.306009
C121	C	-0.401714	-1.123112	-0.106135
C122	C	0.098286	-0.623112	0.393865
H123	H	-0.887196	-1.188957	-0.334189
H124	H	-0.387196	-0.688957	0.165811
H125	H	-0.551841	-1.257976	-0.831898
H126	H	-0.051841	-0.757976	-0.331898
H127	H	-0.916942	-1.057184	-0.465884
H128	H	-0.416942	-0.557184	0.034116
N129	N	-0.290794	-1.023440	-1.104177
N130	N	0.209206	-0.523440	-0.604177
H131	H	-0.231238	-1.038612	-1.086976
H132	H	0.268762	-0.538612	-0.586976
H133	H	-0.303751	-0.966350	-1.090444
H134	H	0.196249	-0.466350	-0.590444
N135	N	-0.512253	-0.827721	-0.510667
N136	N	-0.012253	-0.327721	-0.010667
H137	H	-0.478296	-0.863583	-0.545614
H138	H	0.021704	-0.363583	-0.045614
H139	H	-0.545956	-0.787386	-0.544308
H140	H	-0.045956	-0.287386	-0.044308
N141	N	-0.291016	-0.838304	-0.289599
N142	N	0.208984	-0.338304	0.210401
H143	H	-0.257310	-0.801242	-0.255915
H144	H	0.242690	-0.301242	0.244085
H145	H	-0.252367	-0.874392	-0.319858
H146	H	0.247633	-0.374392	0.180142
H147	H	-0.251865	-0.705450	-0.250506
H148	H	0.248135	-0.205450	0.249494
H149	H	-0.251887	-0.555670	-0.250525
H150	H	0.248113	-0.055670	0.249475
N151	N	-0.565972	-1.270713	-0.993240
N152	N	-0.065972	-0.770713	-0.493240
H153	H	-0.557887	-1.263452	-1.051418
H154	H	-0.057887	-0.763452	-0.551418
H155	H	-0.625498	-1.255511	-0.981642
H156	H	-0.125498	-0.755511	-0.481642
H157	H	-0.305119	-0.429298	-0.303717
H158	H	0.194881	0.070702	0.196283
H159	H	-0.498218	-0.420064	-0.496668
H160	H	0.001782	0.079936	0.003332
N161	N	-0.290704	-1.023294	-0.684942
N162	N	0.209296	-0.523294	-0.184942
H163	H	-0.298787	-1.030553	-0.626763
H164	H	0.201213	-0.530553	-0.126763
H165	H	-0.303630	-0.966218	-0.700018
H166	H	0.196370	-0.466218	-0.200018
H167	H	-0.551426	-0.541341	-0.549830
H168	H	-0.051426	-0.041341	-0.049830
N169	N	-0.237405	-0.975437	-0.977853
N170	N	0.262595	-0.475437	-0.477853
H171	H	-0.177849	-0.990605	-0.960645
H172	H	0.322151	-0.490605	-0.460645
H173	H	-0.250367	-0.918346	-0.964126
H174	H	0.249633	-0.418346	-0.464126
N175	N	-0.565490	-0.701346	-0.563871
N176	N	-0.065490	-0.201346	-0.063871
H177	H	-0.599208	-0.661059	-0.597562
H178	H	-0.099208	-0.161059	-0.097562
H179	H	-0.604130	-0.733757	-0.533596
H180	H	-0.104130	-0.233757	-0.033596
N181	N	-0.512550	-1.222653	-0.695329
N182	N	-0.012550	-0.722653	-0.195329
H183	H	-0.546361	-1.253047	-0.735587
H184	H	-0.046361	-0.753047	-0.235587
H185	H	-0.551097	-1.188591	-0.662932
H186	H	-0.051097	-0.688591	-0.162932
N187	N	-0.512632	-1.222803	-1.114565
N188	N	-0.012632	-0.722803	-0.614565
H189	H	-0.504547	-1.215552	-1.172745
H190	H	-0.004547	-0.715552	-0.672745
H191	H	-0.572159	-1.207601	-1.102971
H192	H	-0.072159	-0.707601	-0.602971
N193	N	-0.237365	-0.975369	-0.806270
N194	N	0.262635	-0.475369	-0.306270
H195	H	-0.203566	-0.945005	-0.843361
H196	H	0.296434	-0.445005	-0.343361
H197	H	-0.198808	-1.009412	-0.770174
H198	H	0.301192	-0.509412	-0.270174
