data_functionalizedCrystal
_audit_creation_method	'MofGen! by Chris Wilmer'
_symmetry_space_group_name_H-M	'P1'
_symmetry_Int_Tables_number	1
_symmetry_cell_setting	triclinic
loop_
_symmetry_equiv_pos_as_xyz
  x,y,z
_cell_length_a	16.992694
_cell_length_b	15.995350
_cell_length_c	16.053802
_cell_angle_alpha	92.567808
_cell_angle_beta	87.249047
_cell_angle_gamma	87.080299
loop_
_atom_site_label
_atom_site_type_symbol
_atom_site_fract_x
_atom_site_fract_y
_atom_site_fract_z
O1	O	1.043694	0.174244	-0.069318
O2	O	1.377027	0.507577	0.264016
O3	O	1.710361	0.840911	0.597349
O4	O	0.815410	0.172295	-0.069342
O5	O	1.148743	0.505628	0.263991
O6	O	1.482076	0.838962	0.597324
O7	O	0.935792	0.051799	-0.069329
O8	O	1.269125	0.385133	0.264005
O9	O	1.602459	0.718466	0.597338
O10	O	0.923312	0.294739	-0.069332
O11	O	1.256645	0.628073	0.264002
O12	O	1.589978	0.961406	0.597335
O13	O	0.929166	0.058403	0.069530
O14	O	1.262499	0.391736	0.402863
O15	O	1.595833	0.725069	0.736196
O16	O	0.808784	0.178898	0.069516
O17	O	1.142117	0.512232	0.402849
O18	O	1.475450	0.845565	0.736182
O19	O	1.037068	0.180847	0.069540
O20	O	1.370401	0.514181	0.402874
O21	O	1.703734	0.847514	0.736207
Zn22	Zn	0.921874	0.180921	0.091575
Zn23	Zn	1.255207	0.514254	0.424908
Zn24	Zn	1.588540	0.847588	0.758241
Zn25	Zn	0.930604	0.172221	-0.091377
Zn26	Zn	1.263937	0.505554	0.241957
Zn27	Zn	1.597271	0.838888	0.575290
O28	O	0.916685	0.301343	0.069527
O29	O	1.250019	0.634676	0.402860
O30	O	1.583352	0.968009	0.736193
C31	C	0.782884	0.173091	0.000083
C32	C	1.116218	0.506424	0.333417
C33	C	1.449551	0.839757	0.666750
C34	C	0.695841	0.165614	0.000074
C35	C	1.029174	0.498947	0.333407
C36	C	1.362507	0.832281	0.666741
C37	C	0.645600	0.237749	0.000074
C38	C	0.978934	0.571083	0.333407
C39	C	1.312267	0.904416	0.666740
C40	C	0.563813	0.230720	0.000085
C41	C	0.897146	0.564054	0.333419
C42	C	1.230480	0.897387	0.666752
C43	C	0.532268	0.151555	0.000091
C44	C	0.865601	0.484888	0.333424
C45	C	1.198935	0.818221	0.666758
C46	C	0.582515	0.079414	0.000094
C47	C	0.915848	0.412748	0.333427
C48	C	1.249182	0.746081	0.666761
C49	C	0.664300	0.086444	0.000088
C50	C	0.997634	0.419778	0.333422
C51	C	1.330967	0.753111	0.666755
C52	C	0.288669	0.122417	0.000114
C53	C	0.622003	0.455751	0.333447
C54	C	0.955336	0.789084	0.666780
C55	C	0.206878	0.115392	0.000117
C56	C	0.540211	0.448726	0.333450
C57	C	0.873544	0.782059	0.666784
C58	C	0.188181	0.266699	0.000110
C59	C	0.521515	0.600033	0.333443
C60	C	0.854848	0.933366	0.666777
C61	C	0.269969	0.273722	0.000099
C62	C	0.603303	0.607056	0.333433
C63	C	0.936636	0.940389	0.666766
C64	C	0.320209	0.201582	0.000106
C65	C	0.653542	0.534915	0.333440
C66	C	0.986875	0.868249	0.666773
N67	N	0.448669	0.144368	0.000100
N68	N	0.782002	0.477701	0.333434
N69	N	1.115336	0.811035	0.666767
N70	N	0.403806	0.208770	0.000103
N71	N	0.737139	0.542103	0.333436
N72	N	1.070473	0.875437	0.666770
C73	C	0.931963	0.023872	0.000099
C74	C	1.265296	0.357205	0.333432
C75	C	1.598630	0.690538	0.666765
C76	C	0.930417	-0.069182	0.000094
C77	C	1.263750	0.264151	0.333427
C78	C	1.597083	0.597484	0.666761
C79	C	0.924861	-0.407302	0.000096
C80	C	1.258194	-0.073968	0.333429
C81	C	1.591528	0.259365	0.666763
C82	C	0.839142	-0.365620	-0.000225
C83	C	1.172475	-0.032286	0.333109
C84	C	1.505809	0.301047	0.666442
C85	C	0.840674	-0.268811	0.000089
C86	C	1.174007	0.064522	0.333422
C87	C	1.507341	0.397856	0.666755
C88	C	0.927617	-0.239557	0.000095
C89	C	1.260950	0.093777	0.333428
C90	C	1.594283	0.427110	0.666761
C91	C	0.966120	-0.274034	0.079392
C92	C	1.299453	0.059300	0.412726
C93	C	1.632787	0.392633	0.746059
C94	C	0.963963	-0.370810	0.079459
C95	C	1.297296	-0.037477	0.412792
C96	C	1.630630	0.295856	0.746125
C97	C	0.973269	-0.378559	-0.078449
C98	C	1.306603	-0.045226	0.254884
C99	C	1.639936	0.288108	0.588218
C100	C	0.973299	-0.281665	-0.079497
C101	C	1.306632	0.051668	0.253836
C102	C	1.639966	0.385002	0.587170
C103	C	0.929179	-0.144755	0.000096
C104	C	1.262512	0.188579	0.333430
C105	C	1.595845	0.521912	0.666763
C106	C	0.923302	-0.502103	0.000100
C107	C	1.256635	-0.168770	0.333433
C108	C	1.589968	0.164563	0.666766
C109	C	1.069593	0.180051	0.000113
C110	C	1.402927	0.513385	0.333446
C111	C	1.736260	0.846718	0.666779
C112	C	1.156637	0.187528	0.000117
C113	C	1.489971	0.520861	0.333450
C114	C	1.823304	0.854194	0.666783
C115	C	0.920515	0.329270	0.000097
C116	C	1.253848	0.662604	0.333431
C117	C	1.587181	0.995937	0.666764
C118	C	0.922061	0.422324	0.000097
C119	C	1.255395	0.755658	0.333430
C120	C	1.588728	1.088991	0.666763
N121	N	0.915921	0.186859	0.216434
N122	N	1.249255	0.520192	0.549768
N123	N	1.582588	0.853525	0.883101
N124	N	0.936563	0.166277	-0.216236
N125	N	1.269896	0.499611	0.117097
N126	N	1.603229	0.832944	0.450430
C127	C	0.967163	0.135608	0.260134
C128	C	1.300496	0.468942	0.593468
C129	C	1.633829	0.802275	0.926801
C130	C	0.963006	0.139770	0.347541
C131	C	1.296340	0.473103	0.680874
C132	C	1.629673	0.806437	1.014207
C133	C	0.907611	0.195187	0.391245
C134	C	1.240945	0.528520	0.724579
C135	C	1.574278	0.861854	1.057912
C136	C	0.856364	0.246439	0.347539
C137	C	1.189698	0.579773	0.680873
C138	C	1.523031	0.913106	1.014206
C139	C	0.860518	0.242273	0.260135
C140	C	1.193851	0.575606	0.593468
C141	C	1.527184	0.908939	0.926801
C142	C	0.889469	0.213363	0.652653
C143	C	1.222802	0.546697	0.985986
C144	C	1.556136	0.880030	1.319320
C145	C	0.885321	0.217528	0.740064
C146	C	1.218654	0.550861	1.073397
C147	C	1.551988	0.884194	1.406730
C148	C	0.991962	0.110857	0.740059
C149	C	1.325296	0.444190	1.073392
C150	C	1.658629	0.777524	1.406725
C151	C	0.996114	0.106699	0.652652
C152	C	1.329447	0.440032	0.985986
C153	C	1.662781	0.773365	1.319319
C154	C	0.944864	0.157948	0.608954
C155	C	1.278198	0.491281	0.942287
C156	C	1.611531	0.824615	1.275621
N157	N	0.903363	0.199444	0.480589
N158	N	1.236696	0.532777	0.813922
N159	N	1.570030	0.866111	1.147255
N160	N	0.949109	0.153686	0.519612
N161	N	1.282443	0.487019	0.852946
N162	N	1.615776	0.820353	1.186279
H163	H	0.705206	0.027704	0.000088
H164	H	1.038539	0.361037	0.333421
H165	H	1.371873	0.694371	0.666755
H166	H	1.036930	-0.262288	-0.084280
H167	H	1.370263	0.071045	0.249053
H168	H	1.703596	0.404379	0.582387
H169	H	1.036506	-0.406115	-0.078977
H170	H	1.369840	-0.072782	0.254356
H171	H	1.703173	0.260551	0.587689
H172	H	0.811257	0.291558	0.383129
H173	H	1.144590	0.624891	0.716462
H174	H	1.477923	0.958225	1.049796
H175	H	1.004731	0.098037	0.383120
H176	H	1.338064	0.431371	0.716454
H177	H	1.671397	0.764704	1.049787
F178	F	0.805977	0.296818	0.213627
F179	F	1.139310	0.630152	0.546961
F180	F	1.472643	0.963485	0.880294
H181	H	0.810146	-0.245316	-0.056756
H182	H	1.143479	0.088017	0.276578
H183	H	1.476813	0.421350	0.609911
H184	H	0.933934	-0.244811	0.138399
H185	H	1.267267	0.088522	0.471732
H186	H	1.600600	0.421855	0.805066
H187	H	0.840209	0.262658	0.775644
H188	H	1.173543	0.595991	1.108978
H189	H	1.506876	0.929325	1.442311
H190	H	0.671277	0.302214	0.000068
H191	H	1.004610	0.635548	0.333402
H192	H	1.337944	0.968881	0.666735
F193	F	0.173307	0.031131	0.000138
F194	F	0.506641	0.364464	0.333471
F195	F	0.839974	0.697797	0.666804
H196	H	0.807588	-0.389148	-0.057091
H197	H	1.140922	-0.055815	0.276242
H198	H	1.474255	0.277518	0.609576
F199	F	1.026126	0.076629	0.213628
F200	F	1.359459	0.409963	0.546962
F201	F	1.692793	0.743296	0.880295
H202	H	1.041221	0.061574	0.617070
H203	H	1.374554	0.394907	0.950403
H204	H	1.707888	0.728241	1.283736
H205	H	0.804493	-0.240478	0.057023
H206	H	1.137827	0.092855	0.390356
H207	H	1.471160	0.426189	0.723689
H208	H	0.522910	0.289461	0.000084
H209	H	0.856243	0.622794	0.333418
H210	H	1.189577	0.956127	0.666751
H211	H	0.948107	-0.403833	-0.138552
H212	H	1.281440	-0.070499	0.194782
H213	H	1.614773	0.262834	0.528115
H214	H	0.945181	-0.259275	-0.138159
H215	H	1.278514	0.074059	0.195174
H216	H	1.611848	0.407392	0.528507
F217	F	0.790918	-0.390998	0.073477
F218	F	1.124252	-0.057665	0.406811
F219	F	1.457585	0.275669	0.740144
H220	H	0.329565	0.063675	0.000120
H221	H	0.662898	0.397009	0.333454
H222	H	0.996232	0.730342	0.666787
F223	F	1.046501	0.056315	0.786571
F224	F	1.379834	0.389649	1.119904
F225	F	1.713167	0.722982	1.453237
H226	H	1.026736	-0.398675	0.083061
H227	H	1.360070	-0.065342	0.416394
H228	H	1.693403	0.267991	0.749727
F229	F	0.303535	0.357981	0.000089
F230	F	0.636869	0.691314	0.333422
F231	F	0.970202	1.024647	0.666755
F232	F	0.134708	0.343471	0.000104
F233	F	0.468041	0.676804	0.333438
F234	F	0.801375	1.010137	0.666771
F235	F	0.834928	0.267908	0.606153
F236	F	1.168261	0.601242	0.939486
F237	F	1.501595	0.934575	1.272819
F238	F	0.548940	-0.004840	0.000105
F239	F	0.882274	0.328493	0.333439
F240	F	1.215607	0.661827	0.666772
F241	F	0.919959	-0.393747	0.156929
F242	F	1.253292	-0.060414	0.490262
F243	F	1.586625	0.272920	0.823596
H244	H	1.029854	-0.255493	0.082346
H245	H	1.363187	0.077840	0.415679
H246	H	1.696520	0.411173	0.749012
