data_functionalizedCrystal
_audit_creation_method	'MofGen! by Chris Wilmer'
_symmetry_space_group_name_H-M	'P1'
_symmetry_Int_Tables_number	1
_symmetry_cell_setting	triclinic
loop_
_symmetry_equiv_pos_as_xyz
  x,y,z
_cell_length_a	16.959453
_cell_length_b	16.959455
_cell_length_c	16.959447
_cell_angle_alpha	89.980633
_cell_angle_beta	90.029791
_cell_angle_gamma	89.981398
loop_
_atom_site_label
_atom_site_type_symbol
_atom_site_fract_x
_atom_site_fract_y
_atom_site_fract_z
Zn1	Zn	-0.314705	-1.208413	0.446934
Zn2	Zn	-0.446895	-1.208327	0.314754
Zn3	Zn	-0.314731	-1.076233	0.314768
Zn4	Zn	-0.446842	-1.076206	0.446889
O5	O	-0.380793	-1.142295	0.380836
O6	O	-0.332251	-1.319012	0.429413
O7	O	-0.429395	-1.190780	0.204145
O8	O	-0.204116	-1.093814	0.332325
O9	O	-0.429371	-1.318949	0.332301
O10	O	-0.204098	-1.190926	0.429427
O11	O	-0.332295	-1.093731	0.204155
O12	O	-0.332245	-0.965618	0.332282
O13	O	-0.429281	-1.093768	0.557506
O14	O	-0.429306	-0.965599	0.429350
O15	O	-0.332201	-1.190900	0.557539
O16	O	-0.557499	-1.190754	0.332257
O17	O	-0.557460	-1.093685	0.429336
C18	C	-0.380773	-0.936928	0.380813
C19	C	-0.380784	-0.849072	0.380822
C20	C	-0.431276	-0.807763	0.330188
C21	C	-0.330296	-0.807827	0.431461
C22	C	-0.330301	-0.725281	0.431469
C23	C	-0.380794	-0.683972	0.380835
C24	C	-0.431281	-0.725210	0.330192
C25	C	-0.279808	-0.684038	0.482105
C26	C	-0.279811	-0.601487	0.482115
C27	C	-0.330308	-0.560176	0.431484
C28	C	-0.380799	-0.601419	0.380840
C29	C	-0.431291	-0.560110	0.330205
C30	C	-0.481786	-0.601351	0.279564
C31	C	-0.481779	-0.683899	0.279561
C32	C	-0.330316	-0.477628	0.431487
C33	C	-0.431296	-0.477557	0.330210
C34	C	-0.586160	-1.142229	0.380807
C35	C	-0.674016	-1.142273	0.380821
C36	C	-1.045423	-1.192926	0.431493
C37	C	-1.045560	-1.091884	0.330298
C38	C	-0.963014	-1.091855	0.330279
C39	C	-0.921669	-1.142361	0.380869
C40	C	-0.962870	-1.192896	0.431478
C41	C	-0.921807	-1.041315	0.279678
C42	C	-0.839256	-1.041283	0.279658
C43	C	-0.797910	-1.091794	0.330245
C44	C	-0.839115	-1.142332	0.380855
C45	C	-0.797770	-1.192837	0.431445
C46	C	-0.838975	-1.243380	0.482051
C47	C	-0.921523	-1.243407	0.482064
C48	C	-0.715361	-1.091767	0.330231
C49	C	-0.715217	-1.192808	0.431430
C50	C	-0.174625	-1.142382	0.380883
C51	C	-0.086768	-1.142420	0.380903
C52	C	-0.380732	-1.142341	0.587005
C53	C	-0.380706	-1.142360	0.674861
C54	C	-0.380810	-0.348463	0.380856
C55	C	-0.380809	-0.436319	0.380852
C56	C	-0.380797	-1.142294	0.175470
C57	C	-0.380600	-1.142428	0.087614
C58	C	-0.431249	-1.192899	0.716131
C59	C	-0.330144	-1.091835	0.716145
C60	C	-0.330121	-1.091848	0.798691
C61	C	-0.380663	-1.142387	0.839961
C62	C	-0.431229	-1.192913	0.798685
C63	C	-0.279562	-1.041318	0.839973
C64	C	-0.279537	-1.041329	0.922524
C65	C	-0.330076	-1.091873	0.963795
C66	C	-0.380643	-1.142401	0.922514
C67	C	-0.431186	-1.192940	0.963785
C68	C	-0.481749	-1.243472	0.922505
C69	C	-0.481768	-1.243456	0.839957
C70	C	-0.330058	-1.091889	1.046344
C71	C	-0.431166	-1.192953	1.046338
H72	H	-0.522887	-0.717485	0.238330
H73	H	-0.288891	-1.050745	1.079950
Br74	Br	-0.977447	-1.311991	0.550740
Br75	Br	-0.783343	-0.972688	0.210984
Br76	Br	-0.659444	-1.023176	0.261561
H77	H	-0.288999	-1.050684	0.682538
Br78	Br	-0.210934	-0.972735	0.978539
Br79	Br	-0.499756	-1.261552	1.102341
Br80	Br	-0.550348	-1.312050	0.978524
H81	H	-0.522935	-1.284596	0.806339
Br82	Br	-0.659112	-1.261362	0.500085
H83	H	-0.472414	-1.234044	0.682518
H84	H	-0.238418	-1.000167	0.806365
H85	H	-0.472418	-0.443929	0.288980
H86	H	-0.522895	-0.567707	0.238335
Br87	Br	-0.211285	-0.740102	0.550818
Br88	Br	-0.261785	-0.421661	0.500199
Br89	Br	-0.261769	-0.863889	0.500172
Br90	Br	-0.499807	-0.863729	0.261469
Br91	Br	-1.101671	-1.023330	0.261657
H92	H	-0.805302	-1.284499	0.523245
Br93	Br	-0.211287	-0.545524	0.550842
H94	H	-0.955476	-1.000194	0.238492
H95	H	-1.078975	-1.234078	0.472693
