data_functionalizedCrystal
_audit_creation_method	'MofGen! by Chris Wilmer'
_symmetry_space_group_name_H-M	'P1'
_symmetry_Int_Tables_number	1
_symmetry_cell_setting	triclinic
loop_
_symmetry_equiv_pos_as_xyz
  x,y,z
_cell_length_a	16.109301
_cell_length_b	16.109301
_cell_length_c	15.186229
_cell_angle_alpha	89.999624
_cell_angle_beta	90.015371
_cell_angle_gamma	96.538519
loop_
_atom_site_label
_atom_site_type_symbol
_atom_site_fract_x
_atom_site_fract_y
_atom_site_fract_z
O1	O	0.106879	-1.103129	0.073176
O2	O	0.120178	-0.861067	0.073190
O3	O	-0.007503	-0.988748	0.073174
O4	O	0.234559	-0.975448	0.073192
O5	O	-0.007530	-0.988743	-0.073284
O6	O	0.120151	-0.861062	-0.073267
O7	O	0.106852	-1.103124	-0.073282
Zn8	Zn	0.113497	-0.982092	-0.096528
Zn9	Zn	0.113532	-0.982099	0.096436
O10	O	0.234532	-0.975443	-0.073265
C11	C	-0.038491	-0.988206	-0.000056
C12	C	-0.130786	-0.986591	-0.000057
C13	C	0.119626	-0.830090	-0.000037
C14	C	0.118011	-0.737794	-0.000032
C15	C	0.107404	-1.134101	-0.000053
C16	C	0.109019	-1.226397	-0.000052
C17	C	-0.353059	-1.058599	-0.000047
C18	C	-0.439779	-1.057075	-0.000040
C19	C	-0.419905	-0.905586	-0.000034
C20	C	-0.333186	-0.907111	-0.000035
C21	C	-0.299766	-0.983620	-0.000046
C22	C	-0.473205	-0.980571	-0.000038
C23	C	-0.567231	-0.978918	-0.000030
C24	C	-0.205734	-0.985273	-0.000052
C25	C	0.265521	-0.975984	-0.000034
C26	C	0.357816	-0.977600	-0.000027
N27	N	0.113473	-0.982094	-0.228220
C28	C	0.190018	-0.515522	-0.000036
C29	C	0.188494	-0.428801	-0.000042
C30	C	0.037006	-0.448676	-0.000050
C31	C	0.038530	-0.535394	-0.000051
C32	C	0.115039	-0.568815	-0.000039
C33	C	0.111990	-0.395376	-0.000045
C34	C	0.110337	-0.301350	-0.000051
C35	C	0.116693	-0.662847	-0.000035
N36	N	0.113550	-0.982104	0.228129
C37	C	0.164057	-1.032392	0.546077
C38	C	0.164069	-1.032396	0.453887
C39	C	0.062961	-0.931803	0.453838
C40	C	0.062945	-0.931804	0.546026
C41	C	0.113498	-0.982097	0.592143
C42	C	0.113525	-0.982100	0.407765
C43	C	0.113538	-0.982104	0.307809
C44	C	0.113484	-0.982095	0.692106
H45	H	-0.325851	-1.120897	-0.000054
Br46	Br	0.232684	-1.100660	0.391372
H47	H	0.021769	-0.890847	0.583534
Br48	Br	-0.066823	-0.403314	-0.000062
Br49	Br	-0.063234	-0.607728	-0.000066
H50	H	-0.483168	-1.118130	-0.000039
Br51	Br	-0.465267	-0.801758	-0.000017
H52	H	-0.289792	-0.846050	-0.000032
H53	H	0.205220	-1.073344	0.583623
Br54	Br	0.290256	-0.356477	-0.000042
H55	H	0.021803	-0.890855	0.416278
H56	H	0.252317	-0.542730	-0.000034
