data_functionalizedCrystal
_audit_creation_method	'MofGen! by Chris Wilmer'
_symmetry_space_group_name_H-M	'P1'
_symmetry_Int_Tables_number	1
_symmetry_cell_setting	triclinic
loop_
_symmetry_equiv_pos_as_xyz
  x,y,z
_cell_length_a	19.288864
_cell_length_b	23.532407
_cell_length_c	18.366186
_cell_angle_alpha	89.989089
_cell_angle_beta	89.977106
_cell_angle_gamma	82.992461
loop_
_atom_site_label
_atom_site_type_symbol
_atom_site_fract_x
_atom_site_fract_y
_atom_site_fract_z
O1	O	0.921134	0.071045	-0.060790
O2	O	0.718843	0.080629	-0.060742
O3	O	0.826089	-0.007082	-0.060754
O4	O	0.813889	0.158756	-0.060778
O5	O	0.826071	-0.007086	0.060345
O6	O	0.718825	0.080625	0.060358
O7	O	0.921116	0.071041	0.060309
Zn8	Zn	0.819968	0.075832	0.079560
Zn9	Zn	0.819991	0.075838	-0.079993
O10	O	0.813870	0.158752	0.060321
C11	C	0.692959	0.080319	-0.000186
C12	C	0.615858	0.079393	-0.000166
C13	C	0.571003	0.130858	-0.000185
C14	C	0.498559	0.129988	-0.000193
C15	C	0.470973	0.077651	-0.000197
C16	C	0.515838	0.026179	-0.000174
C17	C	0.588280	0.027050	-0.000159
C18	C	0.362844	0.036509	-0.042642
C19	C	0.290402	0.035640	-0.042662
C20	C	0.247535	0.074961	-0.000240
C21	C	0.277118	0.115162	0.042191
C22	C	0.349561	0.116033	0.042206
C23	C	0.392422	0.076700	-0.000213
C24	C	0.124127	0.125487	-0.000267
C25	C	0.051682	0.124615	-0.000270
C26	C	0.068962	0.020805	-0.000258
C27	C	0.141406	0.021678	-0.000248
C28	C	0.168984	0.074021	-0.000255
C29	C	0.825769	-0.028301	-0.000203
C30	C	0.824835	-0.091520	-0.000197
C31	C	0.882442	-0.490503	-0.000251
C32	C	0.881574	-0.549905	-0.000256
O33	O	0.934976	-0.586539	-0.000296
N34	N	0.817817	-0.572664	-0.000240
C35	C	0.754923	-0.536017	-0.000226
O36	O	0.700613	-0.560829	-0.000214
C37	C	0.755792	-0.476616	-0.000226
C38	C	0.819553	-0.453861	-0.000235
C39	C	0.946198	-0.467748	-0.000260
C40	C	0.947065	-0.408350	-0.000253
C41	C	0.884177	-0.371707	-0.000237
C42	C	0.820420	-0.394463	-0.000228
C43	C	0.692899	-0.439970	-0.000217
C44	C	0.693773	-0.380565	-0.000218
C45	C	0.757534	-0.357810	-0.000226
C46	C	0.758399	-0.298422	-0.000205
N47	N	0.822156	-0.275664	-0.000221
C48	C	0.885045	-0.312307	-0.000237
C49	C	0.753104	-0.660763	-0.000228
C50	C	0.752235	-0.720163	-0.000223
C51	C	0.878886	-0.734047	-0.000254
C52	C	0.879755	-0.674647	-0.000254
C53	C	0.816861	-0.638005	-0.000244
C54	C	0.886862	-0.187566	-0.000222
C55	C	0.887724	-0.128162	-0.000213
C56	C	0.761073	-0.114283	-0.000185
C57	C	0.760211	-0.173681	-0.000191
C58	C	0.823111	-0.210322	-0.000212
O59	O	0.705025	-0.261754	-0.000168
O60	O	0.939346	-0.287486	-0.000259
C61	C	0.947000	0.071351	-0.000249
C62	C	1.024101	0.072277	-0.000273
C63	C	0.814190	0.179971	-0.000232
C64	C	0.815124	0.243190	-0.000242
N65	N	0.819956	0.075828	0.188452
N66	N	0.820008	0.075837	-0.188884
C67	C	0.867460	0.037009	0.226546
C68	C	0.867464	0.037006	0.302774
C69	C	0.819972	0.075833	0.340904
C70	C	0.772459	0.114655	0.302800
C71	C	0.772452	0.114653	0.226574
C72	C	0.810514	0.127724	0.461659
C73	C	0.810526	0.127727	0.537884
C74	C	0.819991	0.075840	0.576012
C75	C	0.829459	0.023947	0.537906
C76	C	0.829451	0.023945	0.461679
C77	C	0.819975	0.075839	0.423559
C78	C	0.867502	0.037014	0.696762
C79	C	0.867502	0.037011	0.772991
C80	C	0.772500	0.114665	0.773015
C81	C	0.772497	0.114663	0.696788
C82	C	0.820002	0.075839	0.658665
H83	H	0.242217	0.147181	0.076735
H84	H	0.930094	-0.763893	-0.000269
H85	H	0.015161	0.166526	-0.000281
H86	H	0.733818	0.146276	0.665769
H87	H	0.177928	-0.020230	-0.000236
H88	H	0.998986	-0.389829	-0.000263
O89	O	0.918694	-0.004869	0.185433
H90	H	0.910713	0.001652	0.126027
O91	O	0.721289	0.156562	0.814122
H92	H	0.667187	0.149429	0.799530
O93	O	0.624125	-0.464500	-0.000208
H94	H	0.620706	-0.491225	-0.049565
H95	H	0.837166	-0.018304	0.568948
O96	O	0.450166	0.185498	-0.000210
H97	H	0.416772	0.187579	-0.049573
H98	H	0.931675	-0.656124	-0.000261
H99	H	0.906182	0.005399	0.665721
O100	O	0.800329	0.183693	0.578983
H101	H	0.793737	0.219773	0.539666
H102	H	0.700314	-0.738684	-0.000203
O103	O	1.014033	-0.507266	-0.000267
H104	H	1.058506	-0.481453	-0.000266
O105	O	0.636667	-0.028460	-0.000142
H106	H	0.605318	-0.065002	-0.000148
O107	O	0.721245	0.156543	0.343920
H108	H	0.667145	0.149402	0.329330
O109	O	0.381475	0.159366	0.087998
H110	H	0.339503	0.186556	0.117509
H111	H	0.146582	0.168107	-0.000262
H112	H	0.701886	-0.630931	-0.000213
O113	O	0.600740	0.187315	-0.000181
H114	H	0.633355	0.190204	-0.049534
H115	H	0.939648	-0.109639	-0.000218
H116	H	0.642556	-0.350733	-0.000211
O117	O	0.691442	-0.198230	-0.000180
H118	H	0.647858	-0.162768	-0.000171
H119	H	0.906149	0.005393	0.333797
O120	O	0.258497	-0.007722	-0.088414
H121	H	0.300475	-0.034928	-0.117895
H122	H	0.397741	0.004488	-0.077191
O123	O	0.693244	-0.074757	-0.000169
H124	H	0.704565	-0.029630	-0.000175
H125	H	0.733768	0.146265	0.195556
O126	O	0.839650	-0.032019	0.420576
H127	H	0.846227	-0.068102	0.459889
O128	O	0.954702	-0.227082	-0.000234
H129	H	0.999175	-0.201271	-0.000231
H130	H	0.046503	-0.021810	-0.000307
H131	H	0.906183	0.005397	0.804008
O132	O	0.486091	-0.030273	-0.000178
H133	H	0.428180	-0.022233	-0.000199
O134	O	0.800309	0.183691	0.420536
H135	H	0.793740	0.219774	0.459837
