data_functionalizedCrystal
_audit_creation_method	'MofGen! by Chris Wilmer'
_symmetry_space_group_name_H-M	'P1'
_symmetry_Int_Tables_number	1
_symmetry_cell_setting	triclinic
loop_
_symmetry_equiv_pos_as_xyz
  x,y,z
_cell_length_a	6.817900
_cell_length_b	16.418055
_cell_length_c	12.200875
_cell_angle_alpha	94.312575
_cell_angle_beta	107.143593
_cell_angle_gamma	103.389726
loop_
_atom_site_label
_atom_site_type_symbol
_atom_site_fract_x
_atom_site_fract_y
_atom_site_fract_z
V1	V	-4.067902	-0.116076	-0.358060
V2	V	-3.567902	0.383924	0.141940
O3	O	-4.055059	0.005382	-0.350834
O4	O	-3.555059	0.505382	0.149166
O5	O	-4.018728	-0.229971	-0.356005
O6	O	-3.518728	0.270029	0.143995
O7	O	-4.037632	-0.114376	-0.514042
O8	O	-3.537632	0.385624	-0.014042
O9	O	-4.036024	-0.111012	-0.191703
O10	O	-3.536024	0.388988	0.308297
V11	V	-4.549282	-0.101538	-0.338114
V12	V	-4.049282	0.398462	0.161886
O13	O	-4.333864	-0.147966	-0.401812
O14	O	-3.833864	0.352034	0.098188
O15	O	-4.733518	-0.069648	-0.294362
O16	O	-4.233518	0.430352	0.205638
O17	O	-4.375249	0.012357	-0.340169
O18	O	-3.875249	0.512357	0.159831
O19	O	-4.679522	-0.222996	-0.345340
O20	O	-4.179522	0.277004	0.154660
O21	O	-4.698556	-0.106601	-0.504471
O22	O	-4.198556	0.393399	-0.004471
O23	O	-4.356346	-0.103237	-0.182132
O24	O	-3.856346	0.396763	0.317868
C25	C	-3.862954	-0.257733	-0.350458
C26	C	-3.362954	0.242267	0.149542
C27	C	-3.904156	-0.350844	-0.349818
C28	C	-3.404156	0.149156	0.150182
C29	C	-4.220403	-0.656832	-0.353543
C30	C	-3.720403	-0.156832	0.146457
C31	C	-4.181699	-0.569343	-0.354126
C32	C	-3.681699	-0.069343	0.145874
C33	C	-3.816142	-0.560792	-0.342631
C34	C	-3.316142	-0.060792	0.157369
C35	C	-3.854844	-0.648279	-0.342040
C36	C	-3.354844	-0.148279	0.157960
C37	C	-4.056982	-0.696298	-0.347502
C38	C	-3.556982	-0.196298	0.152498
C39	C	-3.979576	-0.521321	-0.348676
C40	C	-3.479576	-0.021321	0.151324
C41	C	-3.937609	-0.426461	-0.349309
C42	C	-3.437609	0.073539	0.150691
C43	C	-4.098951	-0.791163	-0.346867
C44	C	-3.598951	-0.291163	0.153133
C45	C	-3.887066	-0.110280	-0.552049
C46	C	-3.387066	0.389720	-0.052049
C47	C	-3.943595	-0.109644	-0.679568
C48	C	-3.443595	0.390356	-0.179568
C49	C	-4.047051	-0.108481	-0.913038
C50	C	-3.547051	0.391519	-0.413038
C51	C	-3.989472	-0.109128	-0.783118
C52	C	-3.489472	0.390872	-0.283118
C53	C	-4.194365	0.040115	-0.345713
C54	C	-3.694365	0.540115	0.154287
C55	C	-4.132402	0.133225	-0.346361
C56	C	-3.632402	0.633225	0.153639
C57	C	-4.170253	-0.107337	-0.144119
C58	C	-3.670253	0.392663	0.355881
C59	C	-4.092962	-0.107968	-0.016599
C60	C	-3.592962	0.392032	0.483401
H61	H	-3.721755	-0.680412	-0.337118
H62	H	-3.221755	-0.180412	0.162882
H63	H	-4.314775	-0.537214	-0.359043
H64	H	-3.814775	-0.037214	0.140957
F65	F	-4.435533	-0.707934	-0.359353
F66	F	-3.935533	-0.207934	0.140647
F67	F	-3.601018	-0.509680	-0.336815
F68	F	-3.101018	-0.009680	0.163185
