data_functionalizedCrystal
_audit_creation_method	'MofGen! by Chris Wilmer'
_symmetry_space_group_name_H-M	'P1'
_symmetry_Int_Tables_number	1
_symmetry_cell_setting	triclinic
loop_
_symmetry_equiv_pos_as_xyz
  x,y,z
_cell_length_a	19.188905
_cell_length_b	17.666332
_cell_length_c	14.044190
_cell_angle_alpha	89.985524
_cell_angle_beta	88.163166
_cell_angle_gamma	90.001515
loop_
_atom_site_label
_atom_site_type_symbol
_atom_site_fract_x
_atom_site_fract_y
_atom_site_fract_z
O1	O	0.933772	-0.063083	0.118202
O2	O	1.267105	0.270251	0.451535
O3	O	1.600439	0.603584	0.784869
O4	O	0.731488	-0.063058	0.134153
O5	O	1.064821	0.270275	0.467486
O6	O	1.398154	0.603609	0.800820
O7	O	0.829591	-0.063055	-0.011794
O8	O	1.162924	0.270278	0.321539
O9	O	1.496258	0.603612	0.654872
O10	O	0.835669	-0.063085	0.264149
O11	O	1.169002	0.270248	0.597483
O12	O	1.502335	0.603581	0.930816
O13	O	0.829608	0.062842	-0.011814
O14	O	1.162942	0.396175	0.321520
O15	O	1.496275	0.729508	0.654853
O16	O	0.731505	0.062839	0.134134
O17	O	1.064838	0.396172	0.467467
O18	O	1.398172	0.729505	0.800800
O19	O	0.933789	0.062814	0.118183
O20	O	1.267123	0.396148	0.451516
O21	O	1.600456	0.729481	0.784849
Cu22	Cu	0.832649	0.074322	0.126156
Cu23	Cu	1.165982	0.407655	0.459490
Cu24	Cu	1.499315	0.740989	0.792823
Cu25	Cu	0.832628	-0.074566	0.126179
Cu26	Cu	1.165962	0.258768	0.459512
Cu27	Cu	1.499295	0.592101	0.792846
O28	O	0.835686	0.062811	0.264130
O29	O	1.169019	0.396145	0.597463
O30	O	1.502353	0.729478	0.930797
C31	C	0.705452	-0.000106	0.133631
C32	C	1.038785	0.333227	0.466964
C33	C	1.372119	0.666560	0.800297
C34	C	0.627847	-0.000096	0.132092
C35	C	0.961181	0.333237	0.465425
C36	C	1.294514	0.666571	0.798759
C37	C	0.591398	-0.068724	0.131363
C38	C	0.924732	0.264609	0.464697
C39	C	1.258065	0.597942	0.798030
C40	C	0.518481	-0.068734	0.129907
C41	C	0.851814	0.264600	0.463240
C42	C	1.185147	0.597933	0.796574
C43	C	0.482015	-0.000111	0.129160
C44	C	0.815349	0.333223	0.462493
C45	C	1.148682	0.666556	0.795827
C46	C	0.518473	0.068527	0.129894
C47	C	0.851806	0.401860	0.463228
C48	C	1.185140	0.735193	0.796561
C49	C	0.591389	0.068534	0.131360
C50	C	0.924722	0.401867	0.464693
C51	C	1.258056	0.735201	0.798027
N52	N	0.369373	0.050965	0.072924
N53	N	0.702706	0.384298	0.406257
N54	N	1.036039	0.717632	0.739590
N55	N	0.300106	0.050953	0.071529
N56	N	0.633439	0.384287	0.404863
N57	N	0.966772	0.717620	0.738196
C58	C	0.262324	-0.000128	0.124746
C59	C	0.595657	0.333205	0.458079
C60	C	0.928990	0.666538	0.791412
N61	N	0.296426	-0.051210	0.179397
N62	N	0.629759	0.282124	0.512731
N63	N	0.963093	0.615457	0.846064
N64	N	0.365700	-0.051200	0.180788
N65	N	0.699033	0.282133	0.514121
N66	N	1.032366	0.615466	0.847454
C67	C	0.402950	-0.000111	0.127571
C68	C	0.736284	0.333222	0.460905
C69	C	1.069617	0.666556	0.794238
C70	C	0.146809	-0.068771	0.122439
C71	C	0.480142	0.264562	0.455773
C72	C	0.813476	0.597895	0.789106
C73	C	0.073890	-0.068778	0.120989
C74	C	0.407223	0.264555	0.454322
C75	C	0.740557	0.597889	0.787655
C76	C	0.073884	0.068484	0.120966
C77	C	0.407217	0.401818	0.454300
C78	C	0.740551	0.735151	0.787633
C79	C	0.146802	0.068489	0.122426
C80	C	0.480135	0.401822	0.455760
C81	C	0.813468	0.735155	0.789093
C82	C	0.183260	-0.000141	0.123158
C83	C	0.516593	0.333192	0.456492
C84	C	0.849927	0.666525	0.789825
N85	N	0.832614	-0.179285	0.126188
N86	N	1.165947	0.154048	0.459522
N87	N	1.499280	0.487382	0.792855
C88	C	0.878450	-0.218911	0.183627
C89	C	1.211784	0.114422	0.516960
C90	C	1.545117	0.447756	0.850293
C91	C	0.878455	-0.298159	0.183627
C92	C	1.211788	0.035175	0.516961
C93	C	1.545122	0.368508	0.850294
C94	C	0.832630	-0.337777	0.126172
C95	C	1.165963	-0.004444	0.459506
C96	C	1.499297	0.328889	0.792839
C97	C	0.786785	-0.298142	0.068731
C98	C	1.120118	0.035192	0.402064
C99	C	1.453451	0.368525	0.735397
C100	C	0.786776	-0.218895	0.068738
C101	C	1.120110	0.114438	0.402072
C102	C	1.453443	0.447771	0.735405
N103	N	0.825716	-0.462180	0.043126
N104	N	1.159049	-0.128847	0.376460
N105	N	1.492382	0.204486	0.709793
N106	N	0.825727	-0.537461	0.043121
N107	N	1.159061	-0.204127	0.376455
N108	N	1.492394	0.129206	0.709788
C109	C	0.832651	-0.576541	0.126147
C110	C	1.165984	-0.243208	0.459480
C111	C	1.499317	0.090125	0.792813
N112	N	0.839575	-0.537497	0.209178
N113	N	1.172909	-0.204164	0.542512
N114	N	1.506242	0.129169	0.875845
N115	N	0.839567	-0.462210	0.209182
N116	N	1.172900	-0.128877	0.542515
N117	N	1.506234	0.204457	0.875849
C118	C	0.832633	-0.423706	0.126158
C119	C	1.165967	-0.090373	0.459491
C120	C	1.499300	0.242960	0.792825
C121	C	0.878495	-0.702097	0.183591
C122	C	1.211828	-0.368763	0.516924
C123	C	1.545162	-0.035430	0.850258
C124	C	0.878495	-0.781346	0.183594
C125	C	1.211828	-0.448012	0.516927
C126	C	1.545161	-0.114679	0.850261
C127	C	0.786828	-0.781327	0.068688
C128	C	1.120161	-0.447994	0.402022
C129	C	1.453494	-0.114660	0.735355
C130	C	0.786824	-0.702079	0.068694
C131	C	1.120158	-0.368746	0.402028
C132	C	1.453491	-0.035413	0.735361
C133	C	0.832662	-0.662469	0.126144
C134	C	1.165995	-0.329136	0.459477
C135	C	1.499328	0.004198	0.792811
C136	C	0.959825	-0.000139	0.118705
C137	C	1.293158	0.333194	0.452038
C138	C	1.626492	0.666527	0.785371
C139	C	1.037430	-0.000154	0.120244
C140	C	1.370763	0.333179	0.453577
C141	C	1.704096	0.666512	0.786910
C142	C	0.826941	-0.000104	-0.047107
C143	C	1.160274	0.333229	0.286226
C144	C	1.493608	0.666563	0.619559
C145	C	0.819010	-0.000096	-0.152299
C146	C	1.152343	0.333237	0.181034
C147	C	1.485677	0.666570	0.514367
N148	N	0.832668	0.179041	0.126140
N149	N	1.166002	0.512375	0.459473
N150	N	1.499335	0.845708	0.792806
C151	C	0.860758	-0.000131	-0.402764
C152	C	1.194091	0.333202	-0.069431
C153	C	1.527425	0.666535	0.263903
C154	C	0.804522	-0.000119	-0.344895
C155	C	1.137855	0.333214	-0.011562
C156	C	1.471189	0.666548	0.321772
C157	C	0.812585	-0.000107	-0.237725
C158	C	1.145918	0.333227	0.095608
C159	C	1.479252	0.666560	0.428942
C160	C	0.852696	-0.000144	-0.509944
C161	C	1.186029	0.333190	-0.176611
C162	C	1.519363	0.666523	0.156723
C163	C	0.838336	-0.000141	0.299443
C164	C	1.171669	0.333192	0.632776
C165	C	1.505003	0.666525	0.966109
C166	C	0.846267	-0.000154	0.404635
C167	C	1.179600	0.333179	0.737968
C168	C	1.512934	0.666513	1.071301
H169	H	0.044195	0.124358	0.120364
H170	H	0.377528	0.457692	0.453697
H171	H	0.710861	0.791025	0.787031
H172	H	0.749512	-0.813583	0.021913
H173	H	1.082845	-0.480250	0.355246
H174	H	1.416179	-0.146917	0.688580
C175	C	0.139470	0.204161	0.122246
C176	C	0.472803	0.537494	0.455579
C177	C	0.806136	0.870828	0.788912
C178	C	0.186872	0.143928	0.123212
C179	C	0.520205	0.477262	0.456545
C180	C	0.853538	0.810595	0.789879
H181	H	0.164209	0.250735	0.122727
H182	H	0.497542	0.584069	0.456060
H183	H	0.830875	0.917402	0.789394
H184	H	0.109143	0.201300	0.176921
H185	H	0.442476	0.534633	0.510254
H186	H	0.775809	0.867966	0.843587
H187	H	0.112918	0.201302	0.066423
H188	H	0.446251	0.534636	0.399756
H189	H	0.779584	0.867969	0.733090
H190	H	0.213420	0.146784	0.179039
H191	H	0.546753	0.480117	0.512372
H192	H	0.880087	0.813450	0.845705
H193	H	0.217211	0.146791	0.068532
H194	H	0.550544	0.480124	0.401865
H195	H	0.883877	0.813458	0.735199
C196	C	0.941974	-0.064834	-0.304810
C197	C	1.275307	0.268500	0.028524
C198	C	1.608641	0.601833	0.361857
C199	C	0.933923	-0.000125	-0.360994
C200	C	1.267256	0.333208	-0.027660
C201	C	1.600589	0.666541	0.305673
H202	H	0.987141	-0.064824	-0.279010
H203	H	1.320474	0.268510	0.054324
H204	H	1.653807	0.601843	0.387657
H205	H	0.936506	-0.108734	-0.342879
H206	H	1.269839	0.224599	-0.009546
H207	H	1.603172	0.557933	0.323788
H208	H	0.907741	-0.064819	-0.254426
H209	H	1.241074	0.268514	0.078907
H210	H	1.574408	0.601847	0.412240
H211	H	0.968153	-0.000142	-0.411381
H212	H	1.301486	0.333191	-0.078048
H213	H	1.634819	0.666524	0.255286
H214	H	0.939398	0.043787	-0.322922
H215	H	1.272731	0.377120	0.010411
H216	H	1.606065	0.710453	0.343744
H217	H	0.749502	-0.669815	0.021917
H218	H	1.082835	-0.336482	0.355251
H219	H	1.416169	-0.003149	0.688584
H220	H	0.915780	-0.330429	0.230405
H221	H	1.249114	0.002905	0.563738
H222	H	1.582447	0.336238	0.897071
C223	C	0.584074	-0.204401	0.131233
C224	C	0.917408	0.128932	0.464566
C225	C	1.250741	0.462265	0.797900
C226	C	0.631472	-0.144162	0.132177
C227	C	0.964805	0.189172	0.465511
C228	C	1.298139	0.522505	0.798844
H229	H	0.608817	-0.250972	0.131742
H230	H	0.942150	0.082361	0.465075
H231	H	1.275483	0.415695	0.798409
H232	H	0.557527	-0.201541	0.075415
H233	H	0.890861	0.131792	0.408748
H234	H	1.224194	0.465125	0.742082
H235	H	0.553742	-0.201550	0.185912
H236	H	0.887075	0.131783	0.519246
H237	H	1.220409	0.465116	0.852579
H238	H	0.661801	-0.147010	0.077494
H239	H	0.995135	0.186324	0.410827
H240	H	1.328468	0.519657	0.744161
H241	H	0.658031	-0.147023	0.188001
H242	H	0.991364	0.186310	0.521334
H243	H	1.324698	0.519643	0.854668
H244	H	0.915774	-0.186665	0.230408
H245	H	1.249107	0.146668	0.563742
H246	H	1.582440	0.480001	0.897075
C247	C	0.969100	-0.710072	0.297174
C248	C	1.302433	-0.376739	0.630508
C249	C	1.635767	-0.043405	0.963841
C250	C	0.928871	-0.658551	0.246747
C251	C	1.262205	-0.325217	0.580080
C252	C	1.595538	0.008116	0.913413
H253	H	1.000197	-0.683188	0.336167
H254	H	1.333530	-0.349855	0.669501
H255	H	1.666864	-0.016522	1.002834
H256	H	0.995047	-0.740966	0.253528
H257	H	1.328381	-0.407633	0.586861
H258	H	1.661714	-0.074300	0.920194
H259	H	0.939336	-0.740994	0.336040
H260	H	1.272670	-0.407661	0.669373
H261	H	1.606003	-0.074327	1.002707
H262	H	0.958635	-0.627632	0.207875
H263	H	1.291968	-0.294299	0.541209
H264	H	1.625302	0.039034	0.874542
H265	H	0.902922	-0.627643	0.290399
H266	H	1.236256	-0.294310	0.623732
H267	H	1.569589	0.039024	0.957066
C268	C	0.692564	-0.387277	0.062885
C269	C	1.025897	-0.053944	0.396218
C270	C	1.359231	0.279390	0.729552
C271	C	0.736412	-0.341687	0.005575
C272	C	1.069746	-0.008354	0.338908
C273	C	1.403079	0.324979	0.672242
H274	H	0.661467	-0.414162	0.023894
H275	H	0.994800	-0.080829	0.357228
H276	H	1.328133	0.252505	0.690561
H277	H	0.666617	-0.356378	0.106527
H278	H	0.999951	-0.023044	0.439860
H279	H	1.333284	0.310289	0.773194
H280	H	0.719873	-0.422218	0.097089
H281	H	1.053206	-0.088885	0.430422
H282	H	1.386539	0.244448	0.763755
H283	H	0.709104	-0.306742	-0.028624
H284	H	1.042437	0.026591	0.304710
H285	H	1.375771	0.359925	0.638043
H286	H	0.762361	-0.372589	-0.038084
H287	H	1.095694	-0.039256	0.295249
H288	H	1.429028	0.294077	0.628583
H289	H	0.915819	-0.813608	0.230373
H290	H	1.249153	-0.480275	0.563706
H291	H	1.582486	-0.146941	0.897040
C292	C	0.737420	-0.000120	-0.486284
C293	C	1.070753	0.333213	-0.152950
C294	C	1.404086	0.666547	0.180383
C295	C	0.731351	-0.000111	-0.386661
C296	C	1.064684	0.333223	-0.053327
C297	C	1.398018	0.666556	0.280006
H298	H	0.692248	-0.000108	-0.512069
H299	H	1.025582	0.333225	-0.178735
H300	H	1.358915	0.666558	0.154598
H301	H	0.762047	-0.044028	-0.507152
H302	H	1.095380	0.289306	-0.173819
H303	H	1.428713	0.622639	0.159514
H304	H	0.762071	0.043779	-0.507192
H305	H	1.095405	0.377112	-0.173859
H306	H	1.428738	0.710445	0.159474
H307	H	0.706704	-0.044013	-0.365751
H308	H	1.040037	0.289321	-0.032418
H309	H	1.373370	0.622654	0.300915
H310	H	0.706713	0.043801	-0.365784
H311	H	1.040047	0.377135	-0.032450
H312	H	1.373380	0.710468	0.300883
H313	H	0.488798	-0.124621	0.129315
H314	H	0.822131	0.208713	0.462648
H315	H	1.155465	0.542046	0.795982
H316	H	0.749449	-0.186632	0.021964
H317	H	1.082782	0.146701	0.355298
H318	H	1.416116	0.480034	0.688631
H319	H	0.621065	0.124421	0.131954
H320	H	0.954399	0.457754	0.465288
H321	H	1.287732	0.791088	0.798621
C322	C	0.439262	0.148157	0.046776
C323	C	0.772595	0.481490	0.380110
C324	C	1.105928	0.814823	0.713443
C325	C	0.478395	0.143960	0.129068
C326	C	0.811729	0.477293	0.462401
C327	C	1.145062	0.810627	0.795734
H328	H	0.414524	0.194730	0.046268
H329	H	0.747858	0.528064	0.379601
H330	H	1.081191	0.861397	0.712935
H331	H	0.407118	0.107287	0.046142
H332	H	0.740451	0.440621	0.379475
H333	H	1.073785	0.773954	0.712808
H334	H	0.469607	0.145311	-0.007891
H335	H	0.802940	0.478644	0.325443
H336	H	1.136274	0.811978	0.658776
H337	H	0.448049	0.146800	0.183735
H338	H	0.781383	0.480133	0.517068
H339	H	1.114716	0.813467	0.850402
H340	H	0.510543	0.184840	0.129711
H341	H	0.843876	0.518174	0.463044
H342	H	1.177209	0.851507	0.796378
C343	C	0.166490	-0.185762	0.204369
C344	C	0.499823	0.147572	0.537702
C345	C	0.833156	0.480905	0.871035
C346	C	0.186893	-0.144204	0.123265
C347	C	0.520227	0.189129	0.456598
C348	C	0.853560	0.522462	0.789932
H349	H	0.191239	-0.232328	0.204882
H350	H	0.524573	0.101006	0.538215
H351	H	0.857906	0.434339	0.871549
H352	H	0.117854	-0.195590	0.203387
H353	H	0.451187	0.137743	0.536721
H354	H	0.784520	0.471076	0.870054
H355	H	0.176551	-0.157554	0.259842
H356	H	0.509884	0.175780	0.593175
H357	H	0.843217	0.509113	0.926508
H358	H	0.176828	-0.172410	0.067792
H359	H	0.510161	0.160923	0.401125
H360	H	0.843494	0.494256	0.734458
H361	H	0.235541	-0.134378	0.124238
H362	H	0.568874	0.198955	0.457571
H363	H	0.902207	0.532289	0.790905
C364	C	-0.010881	-0.148434	0.200798
C365	C	0.322452	0.184900	0.534132
C366	C	0.655786	0.518233	0.867465
C367	C	0.033824	-0.144222	0.120192
C368	C	0.367157	0.189112	0.453525
C369	C	0.700491	0.522445	0.786859
H370	H	-0.035612	-0.195013	0.200307
H371	H	0.297721	0.138320	0.533641
H372	H	0.631054	0.471654	0.866974
H373	H	-0.043030	-0.107572	0.200146
H374	H	0.290303	0.225762	0.533479
H375	H	0.623636	0.559095	0.866812
H376	H	0.015685	-0.145586	0.256609
H377	H	0.349018	0.187748	0.589942
H378	H	0.682351	0.521081	0.923276
H379	H	0.007257	-0.147064	0.064381
H380	H	0.340591	0.186269	0.397714
H381	H	0.673924	0.519603	0.731048
H382	H	0.065977	-0.185095	0.120836
H383	H	0.399311	0.148238	0.454169
H384	H	0.732644	0.481572	0.787503
