data_functionalizedCrystal
_audit_creation_method	'MofGen! by Chris Wilmer'
_symmetry_space_group_name_H-M	'P1'
_symmetry_Int_Tables_number	1
_symmetry_cell_setting	triclinic
loop_
_symmetry_equiv_pos_as_xyz
  x,y,z
_cell_length_a	15.711784
_cell_length_b	19.188924
_cell_length_c	14.185569
_cell_angle_alpha	76.888872
_cell_angle_beta	107.179161
_cell_angle_gamma	101.365383
loop_
_atom_site_label
_atom_site_type_symbol
_atom_site_fract_x
_atom_site_fract_y
_atom_site_fract_z
O1	O	1.125814	0.393385	-0.083484
O2	O	0.874355	0.340271	-0.083473
O3	O	1.007347	0.267043	-0.083467
O4	O	0.992822	0.466613	-0.083490
O5	O	1.046633	0.245414	0.083369
O6	O	0.913642	0.318642	0.083363
O7	O	1.165100	0.371756	0.083352
Cu8	Cu	1.042958	0.343224	0.098591
Cu9	Cu	0.996497	0.368803	-0.098712
O10	O	1.032109	0.444984	0.083346
C11	C	0.861828	0.320780	-0.000054
C12	C	0.765969	0.294918	-0.000049
C13	C	0.641395	0.197558	-0.000037
C14	C	0.731468	0.221866	-0.000041
C15	C	0.710402	0.343692	-0.000059
C16	C	0.620325	0.319394	-0.000060
C17	C	0.585829	0.246327	-0.000048
C18	C	0.564759	0.368163	-0.000071
C19	C	0.474691	0.343867	-0.000066
C20	C	0.440188	0.270802	-0.000051
C21	C	0.495761	0.222031	-0.000043
C22	C	0.599258	0.441229	-0.000076
C23	C	0.543692	0.489998	-0.000087
C24	C	0.453621	0.465703	-0.000089
C25	C	0.419118	0.392638	-0.000074
C26	C	0.398048	0.514474	-0.000097
C27	C	0.307980	0.490178	-0.000093
C28	C	0.329050	0.368342	-0.000070
C29	C	1.026521	0.230096	-0.000048
C30	C	1.025113	0.152228	-0.000045
C31	C	1.003041	0.127449	-0.090988
C32	C	1.001703	0.054283	-0.090996
C33	C	1.022457	0.005900	-0.000055
C34	C	1.044528	0.030685	0.090899
C35	C	1.045856	0.103849	0.090904
N36	N	1.085454	-0.110402	0.067627
N37	N	1.084192	-0.179904	0.067616
C38	C	1.018455	-0.214539	-0.000065
N39	N	0.954033	-0.177044	-0.067750
N40	N	0.955298	-0.107536	-0.067742
C41	C	1.021019	-0.073435	-0.000051
C42	C	0.994929	-0.318652	-0.091022
C43	C	0.993587	-0.391821	-0.091026
C44	C	1.036421	-0.415417	0.090872
C45	C	1.037754	-0.342250	0.090873
C46	C	1.017011	-0.293871	-0.000077
C47	C	1.177627	0.391248	-0.000070
C48	C	1.273484	0.417110	-0.000081
C49	C	1.012934	0.481931	-0.000075
C50	C	1.014340	0.559801	-0.000085
N51	N	1.075643	0.325235	0.237364
N52	N	0.963819	0.386789	-0.237485
C53	C	0.867791	0.439611	0.605004
C54	C	0.892556	0.425991	0.710027
C55	C	1.010344	0.361188	0.709993
C56	C	0.985586	0.374800	0.604968
C57	C	0.914310	0.414013	0.552482
C58	C	1.032105	0.349202	0.552446
C59	C	1.007353	0.362817	0.447431
C60	C	0.936082	0.402029	0.394937
C61	C	0.889558	0.427627	0.447466
C62	C	1.103385	0.309994	0.604934
C63	C	1.149904	0.284396	0.552412
C64	C	1.125148	0.298006	0.447395
C65	C	1.053876	0.337219	0.394901
C66	C	1.171671	0.272408	0.394865
C67	C	1.146919	0.286022	0.289850
C68	C	1.029124	0.350833	0.289886
H69	H	0.366851	0.251020	-0.000039
C70	C	1.250071	0.229279	0.452603
H71	H	1.274235	0.215986	0.406281
H72	H	1.228782	0.186984	0.493587
H73	H	1.295576	0.258267	0.493551
H74	H	1.055735	-0.322075	0.164929
H75	H	1.123538	0.298914	0.690445
C76	C	0.457807	0.141658	-0.000039
H77	H	0.503799	0.116089	-0.000032
H78	H	0.409408	0.137194	-0.058216
H79	H	0.436813	0.122106	0.058151
H80	H	1.063827	0.124021	0.164963
H81	H	0.983723	0.034103	-0.165054
H82	H	0.613304	0.138061	-0.000038
H83	H	0.300960	0.308844	-0.000071
H84	H	0.776707	0.182148	-0.000035
C85	C	0.969302	-0.419078	-0.191068
H86	H	0.957146	-0.379783	-0.245229
H87	H	0.917544	-0.454659	-0.194854
H88	H	1.018245	-0.439597	-0.194848
H89	H	0.971078	0.382757	0.247149
H90	H	1.061423	-0.008713	0.164944
H91	H	0.978034	-0.279261	-0.165079
H92	H	0.915932	0.413117	0.309426
C93	C	0.811146	0.470750	0.389720
H94	H	0.803066	0.475185	0.319655
H95	H	0.824386	0.517473	0.406919
H96	H	0.757606	0.446183	0.406950
C97	C	0.748352	0.424061	-0.000078
H98	H	0.809950	0.431549	-0.000085
H99	H	0.742960	0.437573	0.058094
H100	H	0.715561	0.452646	-0.058273
C101	C	1.088739	0.318054	0.767733
H102	H	1.096815	0.313607	0.837799
H103	H	1.142280	0.342604	0.750503
H104	H	1.075473	0.271328	0.750528
C105	C	0.581642	0.570367	-0.000105
H106	H	0.643240	0.577855	-0.000113
H107	H	0.576250	0.583880	0.058066
H108	H	0.548851	0.598952	-0.058301
C109	C	0.436002	0.594842	-0.000106
H110	H	0.497602	0.602327	-0.000110
H111	H	0.430609	0.608350	0.058067
H112	H	0.403216	0.623432	-0.058299
H113	H	1.053313	-0.454811	0.164917
H114	H	0.809745	0.471535	0.562268
C115	C	0.246852	0.543822	-0.000117
H116	H	0.280293	0.590819	-0.000137
H117	H	0.224973	0.529338	0.058061
H118	H	0.197581	0.544413	-0.058305
H119	H	0.854669	0.446840	0.752785
C120	C	1.228299	0.241262	0.610152
H121	H	1.236376	0.236815	0.680219
H122	H	1.281841	0.265811	0.592922
H123	H	1.215034	0.194536	0.592947
H124	H	0.986148	0.166835	-0.165047
C125	C	1.198084	0.257863	0.232072
H126	H	1.244072	0.232553	0.278371
H127	H	1.224273	0.297464	0.191091
H128	H	1.157472	0.226185	0.191118
H129	H	0.672599	0.461008	-0.000075
