data_functionalizedCrystal
_audit_creation_method	'MofGen! by Chris Wilmer'
_symmetry_space_group_name_H-M	'P1'
_symmetry_Int_Tables_number	1
_symmetry_cell_setting	triclinic
loop_
_symmetry_equiv_pos_as_xyz
  x,y,z
_cell_length_a	10.654550
_cell_length_b	19.288865
_cell_length_c	9.130313
_cell_angle_alpha	89.990258
_cell_angle_beta	89.999724
_cell_angle_gamma	83.810589
loop_
_atom_site_label
_atom_site_type_symbol
_atom_site_fract_x
_atom_site_fract_y
_atom_site_fract_z
O1	O	1.665751	0.097555	-0.121709
O2	O	1.300074	0.106849	-0.121738
O3	O	1.493479	0.001141	-0.121693
O4	O	1.472346	0.203263	-0.121753
O5	O	1.493466	0.001138	0.121905
O6	O	1.300061	0.106846	0.121861
O7	O	1.665738	0.097552	0.121890
Cu8	Cu	1.482898	0.102198	0.144118
Cu9	Cu	1.482914	0.102202	-0.143966
O10	O	1.472333	0.203260	0.121846
C11	C	1.253284	0.106165	0.000059
C12	C	1.113884	0.104123	0.000049
C13	C	1.033066	0.166363	0.000035
C14	C	0.902087	0.164440	0.000061
C15	C	0.932756	0.038033	0.000109
C16	C	1.063733	0.039956	0.000094
C17	C	1.492792	-0.024742	0.000110
C18	C	1.490751	-0.101859	0.000123
C19	C	1.604232	-0.145812	0.000139
C20	C	1.602315	-0.218272	0.000116
C21	C	1.486909	-0.246775	0.000106
C22	C	1.373413	-0.202812	0.000081
C23	C	1.375334	-0.130354	0.000090
C24	C	1.396183	-0.355657	0.085426
C25	C	1.394266	-0.428114	0.085426
C26	C	1.480980	-0.470259	0.000073
C27	C	1.569631	-0.439940	-0.085263
C28	C	1.571552	-0.367482	-0.085254
C29	C	1.484814	-0.325343	0.000095
C30	C	1.592390	-0.592782	0.000061
C31	C	1.590467	-0.665243	0.000029
C32	C	1.361562	-0.649781	0.000009
C33	C	1.363488	-0.577322	0.000027
C34	C	1.478905	-0.548827	0.000060
C35	C	1.712528	0.098236	0.000090
C36	C	1.851928	0.100277	0.000091
C37	C	1.473020	0.229142	0.000039
C38	C	1.475061	0.306259	0.000016
N39	N	1.482896	0.102195	0.346741
N40	N	1.482925	0.102200	-0.346588
C41	C	1.568565	0.055408	0.423412
C42	C	1.568577	0.055408	0.576749
C43	C	1.397248	0.148990	0.576729
C44	C	1.397231	0.148986	0.423395
H45	H	0.891906	-0.014209	0.000154
C46	C	1.737904	-0.037099	0.438839
C47	C	1.662714	0.003970	0.339152
H48	H	1.796022	-0.068859	0.386819
H49	H	1.782913	-0.007953	0.498617
H50	H	1.685768	-0.062347	0.498669
H51	H	1.714850	0.029222	0.279328
H52	H	1.617703	-0.025179	0.279348
C53	C	1.148881	-0.122351	0.000071
C54	C	1.250586	-0.082035	0.000087
H55	H	1.071868	-0.092518	0.000080
H56	H	1.152895	-0.150920	-0.084880
H57	H	1.152896	-0.150947	0.085018
H58	H	1.246576	-0.053442	-0.084866
H59	H	1.246570	-0.053454	0.085046
C60	C	1.165857	-0.658922	0.125211
C61	C	1.234703	-0.681102	-0.000006
H62	H	1.087534	-0.678258	0.125188
H63	H	1.212559	-0.673986	0.210146
H64	H	1.150769	-0.609477	0.125203
H65	H	1.249799	-0.730547	0.000007
H66	H	1.187991	-0.666042	-0.084964
C67	C	1.796850	-0.253755	-0.125062
C68	C	1.727062	-0.266597	0.000143
H69	H	1.873866	-0.283586	-0.125036
H70	H	1.749525	-0.262449	-0.210006
H71	H	1.814509	-0.206523	-0.125040
H72	H	1.709395	-0.313829	0.000115
H73	H	1.774397	-0.257908	0.085108
H74	H	1.073895	0.218611	0.000009
C75	C	1.721079	-0.755717	0.125247
C76	C	1.715212	-0.713564	0.000038
H77	H	1.798089	-0.785552	0.125243
H78	H	1.717071	-0.727141	0.210187
H79	H	1.652062	-0.783055	0.125211
H80	H	1.784224	-0.686222	0.000079
H81	H	1.719232	-0.742143	-0.084925
C82	C	1.739200	-0.073290	-0.125065
C83	C	1.731097	-0.114491	0.000155
H84	H	1.817519	-0.053951	-0.125051
H85	H	1.733700	-0.101229	-0.209998
H86	H	1.671885	-0.036740	-0.125054
H87	H	1.798408	-0.151044	0.000138
H88	H	1.736610	-0.086551	0.085110
H89	H	1.643732	-0.342798	-0.154740
H90	H	1.129539	-0.010730	0.000109
C91	C	1.179630	0.188649	0.623972
C92	C	1.303093	0.200420	0.661000
H93	H	1.121505	0.220399	0.676004
H94	H	1.167364	0.195347	0.521692
H95	H	1.166286	0.142221	0.649132
H96	H	1.316440	0.246848	0.635830
H97	H	1.315364	0.193728	0.763302
H98	H	1.640241	-0.474253	-0.154767
H99	H	1.638334	0.017308	0.639171
H100	H	1.279449	-0.226024	0.000070
H101	H	0.836289	0.215122	0.000052
C102	C	1.818457	-0.615340	0.000044
C103	C	1.719252	-0.561454	0.000062
H104	H	1.896775	-0.595999	0.000030
H105	H	1.812954	-0.643287	0.084984
H106	H	1.812932	-0.643271	-0.084913
H107	H	1.724772	-0.533526	0.085025
H108	H	1.724758	-0.533495	-0.084887
H109	H	1.271079	-0.541534	0.000022
C110	C	1.221103	-0.409146	0.254122
C111	C	1.296824	-0.461438	0.179224
H112	H	1.160941	-0.429719	0.312023
H113	H	1.272546	-0.384316	0.315657
H114	H	1.178453	-0.377947	0.185477
H115	H	1.339482	-0.492635	0.247870
H116	H	1.245375	-0.486280	0.117685
C117	C	1.365973	-0.272007	0.280407
C118	C	1.300856	-0.309336	0.179257
H119	H	1.307120	-0.243409	0.338323
H120	H	1.415915	-0.303704	0.341924
H121	H	1.419029	-0.243581	0.229567
H122	H	1.247807	-0.337766	0.230098
H123	H	1.250893	-0.277636	0.117732
H124	H	1.327464	0.187086	0.360965
