data_functionalizedCrystal
_audit_creation_method	'MofGen! by Chris Wilmer'
_symmetry_space_group_name_H-M	'P1'
_symmetry_Int_Tables_number	1
_symmetry_cell_setting	triclinic
loop_
_symmetry_equiv_pos_as_xyz
  x,y,z
_cell_length_a	10.723024
_cell_length_b	12.837942
_cell_length_c	9.198806
_cell_angle_alpha	89.997396
_cell_angle_beta	89.996352
_cell_angle_gamma	89.648405
loop_
_atom_site_label
_atom_site_type_symbol
_atom_site_fract_x
_atom_site_fract_y
_atom_site_fract_z
O1	O	1.672992	0.145513	-0.120882
O2	O	1.311352	0.159441	-0.120887
O3	O	1.484153	0.001517	-0.120876
O4	O	1.500191	0.303437	-0.120894
O5	O	1.484138	0.001517	0.120909
O6	O	1.311337	0.159441	0.120898
O7	O	1.672977	0.145512	0.120903
Cu8	Cu	1.492155	0.152477	0.142977
Cu9	Cu	1.492173	0.152477	-0.142962
O10	O	1.500176	0.303436	0.120892
C11	C	1.264735	0.158427	0.000005
C12	C	1.125851	0.155395	0.000003
C13	C	1.060466	0.243761	-0.000003
C14	C	0.916922	0.240629	-0.000005
C15	C	1.478728	-0.037142	0.000016
C16	C	1.462569	-0.152334	0.000013
C17	C	1.656825	-0.391911	-0.000015
C18	C	1.641648	-0.500145	-0.000017
C19	C	1.417040	-0.477037	-0.000005
C20	C	1.432217	-0.368804	-0.000002
C21	C	1.552113	-0.326245	-0.000005
C22	C	1.567289	-0.218009	0.000008
C23	C	1.342681	-0.194904	0.000010
C24	C	1.327505	-0.303137	0.000007
C25	C	1.719594	0.146526	0.000008
C26	C	1.858478	0.149559	-0.000000
C27	C	1.505601	0.342096	-0.000003
C28	C	1.521760	0.457288	-0.000010
N29	N	1.492152	0.152476	0.344091
N30	N	1.492186	0.152470	-0.344076
C31	C	1.564674	0.085875	0.416293
C32	C	1.564693	0.085872	0.583705
H33	H	1.110757	0.321733	0.000001
O34	O	1.229725	-0.124083	0.000026
H35	H	1.231253	-0.074215	-0.098521
H36	H	1.626788	0.028856	0.645796
H37	H	1.430071	0.209488	0.406215
O38	O	1.409919	0.227989	0.573689
H39	H	1.468687	0.278628	0.504310
O40	O	0.842467	0.340840	0.000004
H41	H	0.782831	0.343996	-0.098536
O42	O	1.198192	-0.349041	0.000030
H43	H	1.205227	-0.435335	0.000040
H44	H	0.914686	0.073907	-0.000004
O45	O	1.059256	0.052102	0.000018
H46	H	0.999979	0.046344	-0.098533
H47	H	1.626745	0.028855	0.354171
H48	H	1.664914	-0.183360	0.000011
H49	H	1.754449	-0.357259	-0.000002
H50	H	1.319426	-0.511708	-0.000019
O51	O	1.754585	-0.570976	-0.000010
H52	H	1.840501	-0.523194	0.000002
