data_functionalizedCrystal
_audit_creation_method	'MofGen! by Chris Wilmer'
_symmetry_space_group_name_H-M	'P1'
_symmetry_Int_Tables_number	1
_symmetry_cell_setting	triclinic
loop_
_symmetry_equiv_pos_as_xyz
  x,y,z
_cell_length_a	31.640172
_cell_length_b	31.640172
_cell_length_c	17.917559
_cell_angle_alpha	90.007221
_cell_angle_beta	63.035634
_cell_angle_gamma	60.004780
loop_
_atom_site_label
_atom_site_type_symbol
_atom_site_fract_x
_atom_site_fract_y
_atom_site_fract_z
Zr1	Zr	0.457701	0.409659	-0.093763
O2	O	0.539987	0.345123	-0.207985
O3	O	0.371336	0.429435	-0.058750
O4	O	0.451810	0.433289	-0.207967
O5	O	0.465582	0.338238	0.058939
O6	O	0.451802	0.502846	-0.207951
O7	O	0.459513	0.341269	-0.058768
O8	O	0.307850	0.495952	0.058971
O9	O	0.609534	0.345132	-0.207984
O10	O	0.408364	0.489789	-0.043803
O11	O	0.412899	0.435618	0.044028
O12	O	0.507646	0.440155	-0.131656
O13	O	0.512181	0.385984	-0.043825
Zr14	Zr	0.467367	0.515761	0.093990
Zr15	Zr	0.457688	0.520594	-0.093738
Zr16	Zr	0.467380	0.404826	0.093965
Zr17	Zr	0.568621	0.409675	-0.093761
Zr18	Zr	0.356447	0.515746	0.093988
O19	O	0.553731	0.495985	0.058976
O20	O	0.539969	0.502858	-0.207949
O21	O	0.553749	0.338250	0.058940
O22	O	0.385081	0.580298	0.208211
O23	O	0.371318	0.587170	-0.058714
O24	O	0.385099	0.422563	0.208176
O25	O	0.459485	0.587182	-0.058712
O26	O	0.473258	0.492132	0.208193
O27	O	0.473266	0.422575	0.208177
O28	O	0.465554	0.584152	0.058994
O29	O	0.609524	0.433311	-0.207964
O30	O	0.315543	0.492110	0.208190
O31	O	0.315533	0.580288	0.208210
O32	O	0.307840	0.584130	0.058991
O33	O	0.617228	0.341290	-0.058765
O34	O	0.617218	0.429469	-0.058745
O35	O	0.417422	0.485265	0.131883
O36	O	0.412887	0.539436	0.044051
O37	O	0.512169	0.489803	-0.043802
O38	O	0.516704	0.435632	0.044030
C39	C	0.323789	0.462691	0.000110
C40	C	0.276701	0.462685	0.000110
C41	C	-0.017708	0.490997	-0.045726
C42	C	-0.194704	0.491008	-0.045725
O43	O	-0.219620	0.515074	-0.084685
N44	N	-0.214466	0.462731	0.000120
C45	C	-0.189978	0.434451	0.045973
O46	O	-0.210852	0.410404	0.084975
C47	C	-0.012986	0.434444	0.045977
C48	C	0.006777	0.462719	0.000122
C49	C	0.002055	0.519270	-0.091577
C50	C	0.046304	0.519265	-0.091580
C51	C	0.070789	0.490987	-0.045733
C52	C	0.051026	0.462714	0.000118
C53	C	0.011498	0.406168	0.091835
C54	C	0.055747	0.406169	0.091834
C55	C	0.075511	0.434444	0.045978
C56	C	0.119759	0.434430	0.045962
N57	N	0.139521	0.462707	0.000117
C58	C	0.115036	0.490986	-0.045731
C59	C	-0.282901	0.434456	0.045966
C60	C	-0.327148	0.434457	0.045964
C61	C	-0.331871	0.491015	-0.045733
C62	C	-0.287620	0.491011	-0.045736
C63	C	-0.263139	0.462734	0.000121
C64	C	0.207961	0.490973	-0.045735
C65	C	0.252216	0.490963	-0.045738
C66	C	0.256933	0.434408	0.045963
C67	C	0.212684	0.434415	0.045962
C68	C	0.188198	0.462701	0.000111
O69	O	0.144698	0.410381	0.084909
O70	O	0.135909	0.515038	-0.084711
C71	C	-0.061956	0.491002	-0.045722
C72	C	-0.081719	0.462729	0.000129
C73	C	-0.057234	0.434451	0.045976
C74	C	-0.125967	0.462730	0.000127
C75	C	-0.150452	0.491008	-0.045721
C76	C	-0.130690	0.519286	-0.091566
C77	C	-0.086441	0.519281	-0.091570
C78	C	-0.076996	0.406174	0.091821
C79	C	-0.121244	0.406181	0.091820
C80	C	-0.145730	0.434459	0.045973
C81	C	0.462550	0.323948	0.000082
C82	C	0.462555	0.276853	0.000071
C83	C	0.410705	0.010754	0.045989
C84	C	0.410695	-0.166232	0.046006
O85	O	0.366622	-0.167085	0.085039
N86	N	0.462519	-0.214270	0.000147
C87	C	0.514349	-0.218060	-0.045715
O88	O	0.558428	-0.262981	-0.084714
C89	C	0.514358	-0.041076	-0.045727
C90	C	0.462531	0.006962	0.000128
C91	C	0.358882	0.058789	0.091841
C92	C	0.358884	0.103033	0.091833
C93	C	0.410710	0.099241	0.045972
C94	C	0.462533	0.051205	0.000119
C95	C	0.566188	-0.044867	-0.091584
C96	C	0.566186	-0.000616	-0.091581
C97	C	0.514358	0.047422	-0.045725
C98	C	0.514362	0.091657	-0.045750
N99	N	0.462538	0.139695	0.000109
C100	C	0.410712	0.143487	0.045970
C101	C	0.514341	-0.310978	-0.045707
C102	C	0.514338	-0.355224	-0.045706
C103	C	0.410684	-0.303393	0.046017
C104	C	0.410687	-0.259146	0.046010
C105	C	0.462517	-0.262940	0.000152
C106	C	0.410722	0.236400	0.045948
C107	C	0.410729	0.280645	0.045932
C108	C	0.514383	0.228809	-0.045787
C109	C	0.514376	0.184568	-0.045775
C110	C	0.462541	0.188366	0.000099
O111	O	0.558413	0.092549	-0.084754
O112	O	0.366640	0.188411	0.084979
C113	C	0.410702	-0.033490	0.045998
C114	C	0.462525	-0.081525	0.000146
C115	C	0.514351	-0.085317	-0.045715
C116	C	0.462523	-0.125771	0.000147
C117	C	0.410697	-0.121980	0.046008
C118	C	0.358874	-0.073942	0.091867
C119	C	0.358876	-0.029698	0.091859
C120	C	0.566175	-0.133355	-0.091575
C121	C	0.566168	-0.177596	-0.091563
C122	C	0.514342	-0.173805	-0.045702
C123	C	0.601278	0.462729	0.000116
C124	C	0.648367	0.462736	0.000117
C125	C	0.450427	0.468756	-0.234706
C126	C	0.446318	0.470808	-0.314402
C127	C	0.462518	0.601473	0.000144
C128	C	0.462512	0.648568	0.000155
C129	C	0.486249	0.450856	-0.539436
C130	C	0.438821	0.474564	-0.460335
C131	C	0.442994	0.472473	-0.379131
C132	C	0.482077	0.452946	-0.620649
C133	C	0.474641	0.456665	0.234932
C134	C	0.478750	0.454613	0.314628
C135	C	0.323773	0.601454	0.000142
C136	C	0.276679	0.648542	0.000152
C137	C	0.335896	0.456646	0.234930
C138	C	0.292917	0.454587	0.314624
C139	C	0.335880	0.595408	0.234961
C140	C	0.292895	0.640445	0.314666
C141	C	0.589187	0.330012	-0.234735
C142	C	0.632172	0.284976	-0.314440
C143	C	0.601294	0.323967	0.000084
C144	C	0.648388	0.276878	0.000075
C145	C	0.589171	0.468775	-0.234704
C146	C	0.632151	0.470833	-0.314398
C147	C	0.252202	0.644740	-0.045711
C148	C	0.207958	0.688981	-0.045719
C149	C	0.188188	0.737023	0.000140
C150	C	0.212670	0.740824	0.046004
C151	C	0.256917	0.696584	0.046007
C152	C	0.275095	0.479536	0.397917
C153	C	0.234717	0.477600	0.472806
C154	C	0.212160	0.450718	0.464400
C155	C	0.229986	0.425766	0.381099
C156	C	0.270366	0.427699	0.306212
C157	C	0.270342	0.689876	0.306250
C158	C	0.229959	0.732197	0.381134
C159	C	0.212127	0.725085	0.464434
C160	C	0.234685	0.675649	0.472849
C161	C	0.275070	0.633330	0.397966
C162	C	0.654731	0.235545	-0.306024
C163	C	0.695128	0.193224	-0.380908
C164	C	0.712962	0.200335	-0.464208
C165	C	0.690401	0.249771	-0.472623
C166	C	0.650008	0.292091	-0.397739
C167	C	0.672869	0.280681	0.045930
C168	C	0.717125	0.236441	0.045917
C169	C	0.736896	0.188399	0.000055
C170	C	0.712412	0.184597	-0.045806
C171	C	0.668160	0.228837	-0.045798
C172	C	0.654695	0.497720	-0.305964
C173	C	0.695074	0.499664	-0.380839
C174	C	0.712910	0.474718	-0.464146
C175	C	0.690361	0.447830	-0.472578
C176	C	0.649980	0.445889	-0.397705
H177	H	-0.017878	0.542300	-0.128910
H178	H	0.529983	0.428990	-0.546170
H179	H	0.640180	0.518034	-0.238138
H180	H	0.268297	0.605626	-0.083066
C181	C	0.387019	0.500399	-0.534614
C182	C	0.379775	0.504079	-0.451236
H183	H	0.350568	0.518616	-0.528999
H184	H	0.407709	0.514550	-0.565750
H185	H	0.407686	0.465535	-0.565633
H186	H	0.359112	0.538944	-0.420219
H187	H	0.359077	0.489930	-0.420087
H188	H	0.179242	0.759549	0.525402
C189	C	0.359354	0.552932	0.366979
C190	C	0.299853	0.578995	0.407229
H191	H	0.374651	0.519390	0.372709
H192	H	0.375753	0.551104	0.306657
H193	H	0.368009	0.570622	0.394287
H194	H	0.291198	0.561307	0.379916
H195	H	0.283449	0.580821	0.467562
C196	C	-0.401808	0.516133	-0.086428
C197	C	-0.358796	0.522105	-0.096120
H198	H	-0.418436	0.535332	-0.117524
H199	H	-0.385711	0.481076	-0.109091
H200	H	-0.430452	0.527952	-0.026094
H201	H	-0.330150	0.510283	-0.156454
H202	H	-0.374893	0.557170	-0.073461
H203	H	0.196567	0.779946	0.083341
C204	C	0.662654	0.440377	-0.573842
C205	C	0.709972	0.420410	-0.564157
H206	H	0.674767	0.423449	-0.630383
H207	H	0.635385	0.435367	-0.530473
H208	H	0.645727	0.475855	-0.567254
H209	H	0.726897	0.384932	-0.570739
H210	H	0.737252	0.425415	-0.607539
C211	C	0.174860	0.715426	0.628358
C212	C	0.215074	0.667838	0.564418
H213	H	0.162748	0.710604	0.684889
H214	H	0.191787	0.733973	0.621789
H215	H	0.142766	0.733972	0.621767
H216	H	0.247170	0.649294	0.571005
H217	H	0.198147	0.649284	0.570991
C218	C	0.787045	0.191654	0.086655
C219	C	0.744025	0.240626	0.096343
H220	H	0.803651	0.194240	0.117784
H221	H	0.770961	0.172681	0.109284
H222	H	0.815703	0.174833	0.026325
H223	H	0.715364	0.257447	0.156673
H224	H	0.760109	0.259607	0.073717
C225	C	0.663485	0.175391	-0.222910
C226	C	0.635142	0.227719	-0.214465
H227	H	0.651399	0.170558	-0.166387
H228	H	0.654628	0.160057	-0.254018
H229	H	0.703653	0.160073	-0.254041
H230	H	0.594974	0.243037	-0.183340
H231	H	0.643995	0.243060	-0.183344
C232	C	0.141226	0.338796	0.083878
C233	C	0.082660	0.375084	0.142238
H234	H	0.157841	0.319608	0.114996
H235	H	0.146233	0.316533	0.040494
H236	H	0.159325	0.355639	0.056577
H237	H	0.064560	0.358241	0.169535
H238	H	0.077649	0.397351	0.185637
H239	H	0.713490	0.152975	-0.374039
H240	H	0.188030	0.685875	-0.083067
C241	C	-0.318037	0.378567	0.136625
C242	C	-0.348872	0.403380	0.096376
H243	H	-0.331454	0.359387	0.167758
H244	H	-0.278507	0.356295	0.093231
H245	H	-0.323246	0.403193	0.176193
H246	H	-0.343660	0.378753	0.056803
H247	H	-0.388412	0.425654	0.139775
C248	C	0.649391	0.343723	-0.495932
C249	C	0.625207	0.346426	-0.407000
H250	H	0.634078	0.377267	-0.501651
H251	H	0.689751	0.326051	-0.523222
H252	H	0.640738	0.326025	-0.523229
H253	H	0.633863	0.364120	-0.379704
H254	H	0.584838	0.364106	-0.379699
H255	H	0.179281	0.449148	0.525385
H256	H	0.745853	0.165871	-0.525176
H257	H	0.284871	0.407385	0.238394
C258	C	0.695684	0.550688	-0.282621
C259	C	0.719861	0.529213	-0.371556
H260	H	0.710990	0.568927	-0.276891
H261	H	0.655323	0.573366	-0.255317
H262	H	0.704351	0.524334	-0.255344
H263	H	0.711190	0.555568	-0.398832
H264	H	0.760232	0.506534	-0.398871
H265	H	0.152159	0.773042	0.000132
C266	C	0.261537	0.750029	0.223136
C267	C	0.289887	0.697701	0.214692
H268	H	0.273591	0.754862	0.166613
H269	H	0.221373	0.765350	0.254323
H270	H	0.270429	0.765362	0.254188
H271	H	0.280992	0.682369	0.183645
H272	H	0.330060	0.682375	0.183492
C273	C	-0.197422	0.367080	0.038008
C274	C	-0.255989	0.403366	0.096367
H275	H	-0.180809	0.347887	0.069123
H276	H	-0.192415	0.344820	-0.005384
H277	H	-0.179324	0.383925	0.010716
H278	H	-0.274089	0.386521	0.123654
H279	H	-0.261001	0.425629	0.139775
C280	C	0.326822	0.651795	0.086771
C281	C	0.283811	0.700768	0.096440
H282	H	0.343424	0.654382	0.117906
H283	H	0.310731	0.632828	0.109404
H284	H	0.355485	0.634968	0.026444
H285	H	0.255146	0.717594	0.156766
H286	H	0.299902	0.719743	0.073811
C287	C	0.243445	0.529045	0.555917
C288	C	0.215123	0.505035	0.564363
H289	H	0.231345	0.545985	0.612440
H290	H	0.283609	0.504212	0.524798
H291	H	0.234578	0.553227	0.524797
H292	H	0.223993	0.480850	0.595478
H293	H	0.174949	0.529871	0.595496
C294	C	0.750217	0.209994	-0.628132
C295	C	0.710004	0.257582	-0.564192
H296	H	0.762313	0.214817	-0.684663
H297	H	0.782314	0.191455	-0.621560
H298	H	0.733290	0.191441	-0.621544
H299	H	0.726932	0.276134	-0.570776
H300	H	0.677901	0.276129	-0.570767
C301	C	-0.296745	0.546915	-0.136370
C302	C	-0.265904	0.522096	-0.096131
H303	H	-0.283342	0.566110	-0.167477
H304	H	-0.291528	0.522296	-0.175951
H305	H	-0.336281	0.569179	-0.092965
H306	H	-0.226368	0.499830	-0.139536
H307	H	-0.271116	0.546719	-0.056546
H308	H	0.211614	0.403879	0.374268
H309	H	0.316681	0.142144	0.129169
H310	H	0.656776	0.319795	0.083282
C311	C	0.339094	0.505521	0.323858
C312	C	0.299887	0.509086	0.407171
H313	H	0.354396	0.523766	0.329579
H314	H	0.369252	0.470682	0.292740
H315	H	0.320219	0.519706	0.292760
H316	H	0.318762	0.494897	0.438268
H317	H	0.269724	0.543932	0.438303
C318	C	0.020664	0.350229	0.182405
C319	C	-0.010190	0.375056	0.142189
H320	H	0.007282	0.331014	0.213481
H321	H	0.060196	0.327988	0.139000
H322	H	0.015431	0.374849	0.222021
H323	H	-0.004953	0.350436	0.102568
H324	H	-0.049731	0.397299	0.185599
C325	C	0.598226	0.273624	-0.086508
C326	C	0.641245	0.224652	-0.096193
H327	H	0.581614	0.271037	-0.117625
H328	H	0.569576	0.290449	-0.026185
H329	H	0.614315	0.292595	-0.109159
H330	H	0.625155	0.205682	-0.073535
H331	H	0.669899	0.207820	-0.156528
H332	H	0.316673	0.009413	0.129201
C333	C	0.571349	0.106308	-0.160133
C334	C	0.571341	0.131761	-0.096188
H335	H	0.606519	0.073710	-0.191254
H336	H	0.540485	0.102235	-0.132811
H337	H	0.567056	0.125714	-0.199711
H338	H	0.575629	0.112357	-0.056606
H339	H	0.602214	0.135831	-0.123511
H340	H	0.772929	0.152380	0.000056
C341	C	0.217958	0.812590	0.412093
C342	C	0.205177	0.786530	0.371860
H343	H	0.202666	0.846130	0.406357
H344	H	0.201553	0.814421	0.472417
H345	H	0.258326	0.794894	0.384779
H346	H	0.164809	0.804224	0.399178
H347	H	0.221581	0.784701	0.311524
C348	C	0.773321	0.505718	-0.521437
C349	C	0.757300	0.476851	-0.546444
H350	H	0.800729	0.507032	-0.572243
H351	H	0.740542	0.539357	-0.487560
H352	H	0.789566	0.490335	-0.487560
H353	H	0.741051	0.492236	-0.580315
H354	H	0.790086	0.443205	-0.580335
C355	C	0.778151	0.093764	-0.086515
C356	C	0.734144	0.131786	-0.096207
H357	H	0.791563	0.061160	-0.117623
H358	H	0.808739	0.098237	-0.109165
H359	H	0.763991	0.096105	-0.026182
H360	H	0.748305	0.129448	-0.156540
H361	H	0.703550	0.127311	-0.073561
C362	C	0.586022	0.419860	-0.323679
C363	C	0.625224	0.416309	-0.406983
H364	H	0.570744	0.401594	-0.329414
H365	H	0.604888	0.405695	-0.292572
H366	H	0.555841	0.454700	-0.292562
H367	H	0.655407	0.381470	-0.438098
H368	H	0.606358	0.430472	-0.438104
H369	H	0.268306	0.513988	-0.083082
H370	H	0.188029	0.514006	-0.083070
H371	H	0.062391	0.542291	-0.128917
H372	H	0.276878	0.411383	0.083288
C373	C	0.132632	0.436242	0.160297
C374	C	0.190911	0.403364	0.096372
H375	H	0.119175	0.417083	0.191422
H376	H	0.127448	0.460842	0.199867
H377	H	0.111747	0.453093	0.132951
H378	H	0.211796	0.386516	0.123718
H379	H	0.196100	0.378755	0.056796
C380	C	-0.072408	0.586651	-0.083609
C381	C	-0.064725	0.550366	-0.141968
H382	H	-0.059001	0.605841	-0.114725
H383	H	-0.111941	0.608913	-0.040219
H384	H	-0.051485	0.569805	-0.056315
H385	H	-0.085652	0.567212	-0.169257
H386	H	-0.025186	0.528101	-0.185373
C387	C	-0.216177	0.586657	-0.083586
C388	C	-0.157612	0.550373	-0.141959
H389	H	-0.232798	0.605851	-0.114692
H390	H	-0.234270	0.569814	-0.056287
H391	H	-0.221179	0.608920	-0.040198
H392	H	-0.152609	0.528108	-0.185344
H393	H	-0.139513	0.567217	-0.169272
C394	C	-0.112129	0.350284	0.182478
C395	C	-0.142968	0.375100	0.142235
H396	H	-0.125545	0.331103	0.213610
H397	H	-0.072600	0.328013	0.139082
H398	H	-0.117337	0.374909	0.222047
H399	H	-0.137756	0.350475	0.102661
H400	H	-0.182507	0.397373	0.185637
H401	H	-0.057066	0.383147	0.129159
H402	H	0.368513	0.239500	0.083304
C403	C	0.308269	0.327428	0.136605
C404	C	0.353757	0.333449	0.096345
H405	H	0.273099	0.360026	0.167732
H406	H	0.308285	0.310159	0.093218
H407	H	0.312571	0.308023	0.176181
H408	H	0.349457	0.352851	0.056765
H409	H	0.353740	0.350726	0.139738
C410	C	0.629481	0.017497	-0.083642
C411	C	0.623160	-0.004790	-0.141992
H412	H	0.664656	0.014916	-0.114765
H413	H	0.598623	0.052435	-0.056347
H414	H	0.629460	0.000246	-0.040249
H415	H	0.623177	0.012464	-0.185381
H416	H	0.654027	-0.039734	-0.169301
C417	C	0.301880	0.037544	0.206224
C418	C	0.301907	0.062967	0.142258
H419	H	0.266702	0.040131	0.237350
H420	H	0.332733	0.002604	0.178918
H421	H	0.306178	0.052663	0.245794
H422	H	0.297613	0.047846	0.102684
H423	H	0.271045	0.097913	0.169564
C424	C	0.308232	-0.212368	0.136676
C425	C	0.353718	-0.206345	0.096426
H426	H	0.273061	-0.179772	0.167808
H427	H	0.308249	-0.229635	0.093284
H428	H	0.312535	-0.231777	0.176247
H429	H	0.349417	-0.186939	0.056850
H430	H	0.353700	-0.189071	0.139823
H431	H	0.368485	-0.300312	0.083354
H432	H	0.556549	-0.314076	-0.083057
C433	C	0.668643	-0.091636	-0.182210
C434	C	0.623160	-0.097664	-0.141975
H435	H	0.703817	-0.124232	-0.213312
H436	H	0.664354	-0.072242	-0.221795
H437	H	0.668608	-0.074353	-0.138804
H438	H	0.623193	-0.114944	-0.185381
H439	H	0.627451	-0.117066	-0.102386
C440	C	0.312856	-0.118763	0.132602
C441	C	0.301905	-0.069779	0.142284
H442	H	0.277688	-0.116194	0.163734
H443	H	0.332006	-0.135589	0.072281
H444	H	0.336295	-0.137721	0.155241
H445	H	0.278470	-0.050822	0.119639
H446	H	0.282747	-0.052945	0.202617
C447	C	0.616794	-0.402002	-0.136365
C448	C	0.571308	-0.408025	-0.096119
H449	H	0.651966	-0.434599	-0.167481
H450	H	0.612499	-0.382601	-0.175940
H451	H	0.616770	-0.384727	-0.092964
H452	H	0.571330	-0.425296	-0.139521
H453	H	0.575605	-0.427433	-0.056541
H454	H	0.608375	-0.216709	-0.128912
H455	H	0.556578	0.225731	-0.083129
H456	H	0.608379	-0.136450	-0.128922
