data_functionalizedCrystal
_audit_creation_method	'MofGen! by Chris Wilmer'
_symmetry_space_group_name_H-M	'P1'
_symmetry_Int_Tables_number	1
_symmetry_cell_setting	triclinic
loop_
_symmetry_equiv_pos_as_xyz
  x,y,z
_cell_length_a	12.594517
_cell_length_b	18.050590
_cell_length_c	12.594509
_cell_angle_alpha	89.967171
_cell_angle_beta	89.978673
_cell_angle_gamma	90.018352
loop_
_atom_site_label
_atom_site_type_symbol
_atom_site_fract_x
_atom_site_fract_y
_atom_site_fract_z
Zn1	Zn	1.627248	-0.295641	-0.601826
Zn2	Zn	1.627132	-0.419845	-0.423833
Zn3	Zn	1.449252	-0.295673	-0.423855
Zn4	Zn	1.449227	-0.419793	-0.601763
O5	O	1.538215	-0.357738	-0.512819
O6	O	1.776179	-0.312125	-0.578232
O7	O	1.603497	-0.403408	-0.274890
O8	O	1.472924	-0.191744	-0.447498
O9	O	1.776093	-0.403377	-0.447462
O10	O	1.603697	-0.191721	-0.578253
O11	O	1.472810	-0.312179	-0.274906
O12	O	1.300303	-0.312129	-0.447438
O13	O	1.472880	-0.403289	-0.750717
O14	O	1.300284	-0.403320	-0.578146
O15	O	1.603672	-0.312075	-0.750764
O16	O	1.603472	-0.523763	-0.447401
O17	O	1.472767	-0.523725	-0.578125
C18	C	1.261674	-0.357723	-0.512788
C19	C	1.143368	-0.357735	-0.512800
C20	C	1.074095	-0.308068	-0.441843
C21	C	1.003279	-0.375810	-0.415655
C22	C	1.003385	-0.290026	-0.539006
C23	C	1.074111	-0.425512	-0.486561
C24	C	1.074223	-0.339682	-0.609957
C25	C	1.003440	-0.407471	-0.583806
C26	C	1.538133	-0.550690	-0.512777
C27	C	1.538195	-0.633236	-0.512794
C28	C	1.609421	-0.832680	-0.441806
C29	C	1.635423	-0.882008	-0.538949
C30	C	1.538256	-0.784366	-0.512837
C31	C	1.512362	-0.882120	-0.415737
C32	C	1.538316	-0.930351	-0.512869
C33	C	1.564308	-0.832606	-0.610031
C34	C	1.441201	-0.832715	-0.486754
C35	C	1.467167	-0.882020	-0.583964
C36	C	1.538224	-0.700268	-0.512817
C37	C	1.538348	-1.014448	-0.512900
C38	C	1.815836	-0.357753	-0.512851
C39	C	1.934141	-0.357760	-0.512865
C40	C	1.538286	-0.357673	-0.790440
C41	C	1.538316	-0.357645	-0.908746
C42	C	1.538326	-0.164032	-0.512885
C43	C	1.538373	-0.081487	-0.512913
C44	C	1.467201	-0.407228	-0.977974
C45	C	1.564321	-0.425374	-1.048762
C46	C	1.441273	-0.339455	-1.048757
C47	C	1.635487	-0.375826	-0.977976
C48	C	1.512373	-0.289876	-0.977964
C49	C	1.609560	-0.307996	-1.048721
C50	C	1.538205	-0.357749	-0.236278
C51	C	1.538381	-0.357568	-0.117973
H52	H	0.972261	-0.232762	-0.561107
H53	H	1.407010	-0.903548	-0.644116
H54	H	1.359122	-0.811045	-0.464643
H55	H	0.972611	-0.449531	-0.643840
H56	H	1.359177	-0.324101	-1.079849
O57	O	1.681380	-0.806862	-0.370338
C58	C	1.865040	-0.802724	-0.317111
C59	C	1.783662	-0.831999	-0.398130
H60	H	1.947750	-0.823048	-0.339540
H61	H	1.863898	-0.739571	-0.317228
H62	H	1.843698	-0.823923	-0.234532
H63	H	1.804948	-0.810854	-0.480749
H64	H	1.784820	-0.895151	-0.397921
H65	H	1.586153	-0.810950	-0.692231
O66	O	1.111063	-0.258093	-0.370030
C67	C	1.116794	-0.220676	-0.186493
C68	C	1.074878	-0.277331	-0.267705
H69	H	1.087538	-0.236201	-0.103749
H70	H	1.207307	-0.220754	-0.187578
H71	H	1.086508	-0.163091	-0.208051
H72	H	1.105087	-0.334943	-0.246204
H73	H	0.984367	-0.277187	-0.266606
O74	O	1.733383	-0.907742	-0.565446
C75	C	1.872250	-0.910700	-0.697039
C76	C	1.761307	-0.881505	-0.667164
H77	H	1.894852	-0.889512	-0.779288
H78	H	1.932861	-0.890404	-0.636458
H79	H	1.871135	-0.973852	-0.697510
H80	H	1.762318	-0.818355	-0.666704
H81	H	1.700743	-0.901858	-0.727751
H82	H	1.105408	-0.324376	-0.692068
H83	H	1.717606	-0.391245	-0.947015
O84	O	0.965877	-0.394015	-0.317744
C85	C	0.811701	-0.414913	-0.208391
C86	C	0.853938	-0.394347	-0.319336
H87	H	0.721194	-0.415173	-0.209636
H88	H	0.841873	-0.472252	-0.185365
H89	H	0.840780	-0.372485	-0.148012
H90	H	0.824875	-0.436725	-0.379790
H91	H	0.823774	-0.336990	-0.342272
H92	H	1.669797	-0.266032	-1.079588
H93	H	1.105049	-0.482801	-0.464332
H94	H	1.407108	-0.449224	-0.946912
O95	O	1.486320	-0.907977	-0.317680
C96	C	1.531949	-0.912266	-0.131988
C97	C	1.561537	-0.882923	-0.242975
H98	H	1.592758	-0.892034	-0.071563
H99	H	1.449795	-0.891124	-0.109070
H100	H	1.531424	-0.975416	-0.133185
H101	H	1.562123	-0.819775	-0.241863
H102	H	1.643671	-0.904122	-0.265850
O103	O	1.590366	-0.493749	-1.085822
C104	C	1.544881	-0.623358	-1.091769
C105	C	1.515258	-0.545962	-1.049755
H106	H	1.484185	-0.665596	-1.062607
H107	H	1.545367	-0.622572	-1.182280
H108	H	1.627078	-0.639209	-1.061461
H109	H	1.433055	-0.530063	-1.079984
H110	H	1.514845	-0.546789	-0.959245
H111	H	1.490367	-0.232614	-0.946842
