data_functionalizedCrystal
_audit_creation_method	'MofGen! by Chris Wilmer'
_symmetry_space_group_name_H-M	'P1'
_symmetry_Int_Tables_number	1
_symmetry_cell_setting	triclinic
loop_
_symmetry_equiv_pos_as_xyz
  x,y,z
_cell_length_a	19.077105
_cell_length_b	16.625546
_cell_length_c	19.077174
_cell_angle_alpha	92.270997
_cell_angle_beta	85.483752
_cell_angle_gamma	87.718759
loop_
_atom_site_label
_atom_site_type_symbol
_atom_site_fract_x
_atom_site_fract_y
_atom_site_fract_z
Zn1	Zn	1.093718	-0.391770	-0.441833
Zn2	Zn	1.088907	-0.520961	-0.323942
Zn3	Zn	0.971103	-0.380499	-0.319231
Zn4	Zn	0.975801	-0.520909	-0.437060
O5	O	1.032382	-0.453535	-0.380517
O6	O	1.191730	-0.413647	-0.430164
O7	O	1.069300	-0.497634	-0.224668
O8	O	0.987415	-0.269165	-0.335520
O9	O	1.188196	-0.508563	-0.343550
O10	O	1.077500	-0.277446	-0.425596
O11	O	0.982750	-0.394436	-0.221206
O12	O	0.873076	-0.394385	-0.330892
O13	O	0.995423	-0.508473	-0.536343
O14	O	0.876527	-0.497544	-0.417460
O15	O	1.082056	-0.413595	-0.539850
O16	O	1.073856	-0.633783	-0.338921
O17	O	0.990757	-0.633745	-0.422029
C18	C	0.849223	-0.444736	-0.373147
C19	C	0.770867	-0.440993	-0.370012
C20	C	0.735868	-0.493017	-0.413539
C21	C	0.662244	-0.489489	-0.410596
C22	C	0.623621	-0.433940	-0.364122
C23	C	0.658625	-0.381910	-0.320592
C24	C	0.732248	-0.385434	-0.323539
C25	C	0.403240	-0.417627	-0.350485
C26	C	0.329612	-0.414107	-0.347540
C27	C	0.333237	-0.521686	-0.437545
C28	C	0.406860	-0.525210	-0.440485
C29	C	0.441858	-0.473177	-0.396959
N30	N	0.548366	-0.430334	-0.361111
N31	N	0.517112	-0.476779	-0.399974
C32	C	1.032314	-0.663021	-0.380484
C33	C	1.032351	-0.752644	-0.380497
C34	C	1.032477	-1.080829	-0.380575
C35	C	1.032439	-0.989518	-0.380555
C36	C	1.032413	-0.916740	-0.380536
C37	C	1.032377	-0.825423	-0.380516
C38	C	1.216257	-0.462368	-0.387915
C39	C	1.294613	-0.466132	-0.391068
C40	C	1.039800	-0.462286	-0.564390
C41	C	1.042961	-0.466015	-0.642746
C42	C	1.032470	-0.243232	-0.380565
C43	C	1.032508	-0.153614	-0.380586
C44	C	0.999386	-0.414038	-0.677755
C45	C	1.002353	-0.417549	-0.751379
C46	C	1.048900	-0.473032	-0.789992
C47	C	1.092477	-0.525014	-0.754978
C48	C	1.089505	-0.521507	-0.681355
C49	C	1.062615	-0.489286	-1.010373
C50	C	1.065585	-0.492788	-1.084001
C51	C	0.975460	-0.385323	-1.080397
C52	C	0.972496	-0.381818	-1.006773
C53	C	1.016070	-0.433802	-0.971765
N54	N	1.051935	-0.476620	-0.865247
N55	N	1.013030	-0.430218	-0.896511
C56	C	1.025034	-0.444761	-0.197360
C57	C	1.022010	-0.440812	-0.119010
H58	H	0.767310	-0.538254	-0.451381
C59	C	1.116203	-0.552910	-1.125970
C60	C	1.163126	-0.511445	-1.170055
C61	C	1.209767	-0.566798	-1.208722
H62	H	1.090455	-0.588125	-1.153657
H63	H	1.141771	-0.583363	-1.094605
H64	H	1.137561	-0.481006	-1.201417
H65	H	1.188891	-0.476233	-1.142386
H66	H	1.235335	-0.597251	-1.177357
H67	H	1.184012	-0.602011	-1.236405
H68	H	1.241613	-0.538672	-1.238633
C69	C	1.109964	-0.545584	-0.972279
C70	C	1.153447	-0.500087	-0.931826
C71	C	1.197070	-0.551922	-0.896711
H72	H	1.138178	-0.579146	-1.005740
H73	H	1.081841	-0.578039	-0.942426
H74	H	1.181567	-0.467646	-0.961676
H75	H	1.125252	-0.466528	-0.898352
H76	H	1.168947	-0.584377	-0.866858
H77	H	1.225279	-0.585481	-0.930178
H78	H	1.226574	-0.521060	-0.869255
C79	C	0.948731	-0.353895	-0.635867
C80	C	0.879696	-0.368972	-0.650953
C81	C	0.833010	-0.313593	-0.612374
H82	H	0.959460	-0.300756	-0.648328
H83	H	0.953153	-0.359253	-0.586997
H84	H	0.875276	-0.363607	-0.699813
H85	H	0.868944	-0.422100	-0.638490
H86	H	0.837433	-0.318951	-0.563504
H87	H	0.843746	-0.260457	-0.624838
H88	H	0.786165	-0.323819	-0.622600
H89	H	0.304734	-0.564048	-0.472983
C90	C	0.287603	-0.353724	-0.297203
C91	C	0.246969	-0.302019	-0.335526
C92	C	0.208258	-0.246386	-0.289186
H93	H	0.318917	-0.323158	-0.271694
H94	H	0.257580	-0.381628	-0.265287
H95	H	0.276988	-0.274117	-0.367430
H96	H	0.215641	-0.332562	-0.361034
H97	H	0.178236	-0.274291	-0.257269
H98	H	0.239578	-0.215827	-0.263679
H99	H	0.180679	-0.211303	-0.315180
H100	H	1.130372	-0.570194	-0.786422
H101	H	1.124994	-0.563826	-0.652852
C102	C	0.441315	-0.361272	-0.303185
C103	C	0.481749	-0.406709	-0.259630
C104	C	0.516842	-0.354820	-0.216050
H105	H	0.407842	-0.327672	-0.275021
H106	H	0.471180	-0.328858	-0.331336
H107	H	0.451887	-0.439109	-0.231481
H108	H	0.515235	-0.440307	-0.287774
H109	H	0.546706	-0.322407	-0.244201
H110	H	0.483363	-0.321223	-0.187891
H111	H	0.544285	-0.385642	-0.186498
C112	C	0.921909	-0.321705	-0.964764
C113	C	0.875010	-0.363172	-0.920656
C114	C	0.828406	-0.307819	-0.881942
H115	H	0.896312	-0.291229	-0.996079
H116	H	0.947709	-0.286509	-0.937096
H117	H	0.849212	-0.398353	-0.948321
H118	H	0.900587	-0.393644	-0.889327
H119	H	0.854206	-0.272624	-0.854274
H120	H	0.802814	-0.277346	-0.913262
H121	H	0.796584	-0.335946	-0.852005
H122	H	0.633752	-0.531854	-0.446040
C123	C	0.770119	-0.328914	-0.276194
C124	C	0.720538	-0.279528	-0.234847
C125	C	0.755398	-0.227457	-0.191217
H126	H	0.799945	-0.296416	-0.304285
H127	H	0.797565	-0.359596	-0.246541
H128	H	0.693104	-0.248849	-0.264496
H129	H	0.690709	-0.312004	-0.206740
H130	H	0.782844	-0.258139	-0.161564
H131	H	0.785223	-0.194965	-0.219314
H132	H	0.721762	-0.193948	-0.163153
C133	C	0.928179	-0.328988	-1.118534
C134	C	0.940727	-0.343945	-1.191274
C135	C	0.897174	-0.292072	-1.226427
H136	H	0.937988	-0.274703	-1.106981
H137	H	0.880309	-0.337950	-1.104599
H138	H	0.988587	-0.334976	-1.205204
H139	H	0.930914	-0.398220	-1.202847
H140	H	0.849304	-0.301035	-1.212491
H141	H	0.906987	-0.237791	-1.214868
H142	H	0.905678	-0.302219	-1.275784
H143	H	0.438302	-0.570446	-0.478328
H144	H	0.627172	-0.336677	-0.282755
H145	H	0.966867	-0.375227	-0.779880
