data_functionalizedCrystal
_audit_creation_method	'MofGen! by Chris Wilmer'
_symmetry_space_group_name_H-M	'P1'
_symmetry_Int_Tables_number	1
_symmetry_cell_setting	triclinic
loop_
_symmetry_equiv_pos_as_xyz
  x,y,z
_cell_length_a	15.995350
_cell_length_b	19.188924
_cell_length_c	15.072220
_cell_angle_alpha	89.996779
_cell_angle_beta	89.991149
_cell_angle_gamma	83.317170
loop_
_atom_site_label
_atom_site_type_symbol
_atom_site_fract_x
_atom_site_fract_y
_atom_site_fract_z
O1	O	1.110664	0.089992	-0.073711
O2	O	0.866847	0.101105	-0.073730
O3	O	0.995794	-0.006090	-0.073710
O4	O	0.981716	0.197187	-0.073732
O5	O	0.995763	-0.006084	0.073855
O6	O	0.866816	0.101111	0.073835
O7	O	1.110632	0.089998	0.073854
Zn8	Zn	0.988719	0.095555	0.097273
Zn9	Zn	0.988761	0.095548	-0.097150
O10	O	0.981685	0.197192	0.073833
C11	C	0.835638	0.100649	0.000050
C12	C	0.742693	0.099271	0.000043
C13	C	0.404964	0.094325	0.000062
C14	C	0.452680	0.017982	0.000400
C15	C	0.549365	0.019360	0.000061
C16	C	0.572515	0.096778	0.000053
C17	C	0.531307	0.134429	-0.084214
C18	C	0.434679	0.132512	-0.084278
C19	C	0.434298	0.134096	0.083531
C20	C	0.531243	0.134078	0.084638
C21	C	0.667208	0.098169	0.000045
C22	C	0.310271	0.092936	0.000064
C23	C	0.995324	-0.032099	0.000073
C24	C	0.993958	-0.109607	0.000076
C25	C	0.993338	-0.146011	-0.080362
C26	C	0.992043	-0.218837	-0.080369
C27	C	0.991385	-0.255258	0.000067
C28	C	0.992000	-0.218845	0.080515
C29	C	0.993287	-0.146020	0.080520
N30	N	1.037000	-0.374803	0.059937
N31	N	1.035779	-0.443984	0.059927
C32	C	0.987506	-0.474677	0.000058
N33	N	0.940511	-0.433576	-0.059815
N34	N	0.941735	-0.364389	-0.059807
C35	C	0.989989	-0.334225	0.000071
C36	C	0.985481	-0.590047	-0.080393
C37	C	0.984181	-0.662874	-0.080397
C38	C	0.984146	-0.662882	0.080490
C39	C	0.985438	-0.590055	0.080491
C40	C	0.986109	-0.553643	0.000047
C41	C	1.141841	0.090454	0.000071
C42	C	1.234786	0.091832	0.000072
C43	C	0.982155	0.223202	0.000048
C44	C	0.983521	0.300710	0.000040
N45	N	0.988696	0.095560	0.229962
N46	N	0.988790	0.095537	-0.229839
C47	C	0.988759	0.095545	0.589164
C48	C	0.919531	0.152710	0.551546
C49	C	0.919689	0.152919	0.448720
C50	C	0.988727	0.095553	0.410960
C51	C	1.076033	0.111464	0.448256
C52	C	1.075645	0.111870	0.551113
C53	C	0.971460	0.022298	0.551270
C54	C	0.969453	0.022787	0.448407
C55	C	0.988715	0.095555	0.310246
C56	C	0.988777	0.095543	0.689877
H57	H	0.545223	0.191306	-0.087353
O58	O	0.983433	-0.702158	0.167246
H59	H	0.984078	-0.664605	0.223183
O60	O	0.567529	0.097664	0.167218
H61	H	0.538037	0.124333	0.226702
O62	O	0.569021	0.099783	-0.167286
H63	H	0.617103	0.055754	-0.148768
O64	O	0.426884	-0.022263	-0.079190
H65	H	0.483123	-0.038970	-0.120478
O66	O	0.983479	-0.702140	-0.167159
H67	H	0.984158	-0.664582	-0.223091
H68	H	0.993788	-0.116380	0.146024
O69	O	0.991379	-0.258111	-0.167133
H70	H	0.933735	-0.285062	-0.170995
H71	H	0.985950	-0.560416	0.145993
H72	H	1.021947	-0.020242	0.575597
O73	O	0.986185	-0.550765	-0.167153
H74	H	1.042995	-0.570969	-0.205731
H75	H	0.930707	0.207274	0.424101
O76	O	1.095894	0.182626	0.582883
H77	H	1.047772	0.224155	0.557433
O78	O	0.587159	-0.019833	0.080080
H79	H	0.536385	-0.039949	0.119365
O80	O	0.933916	0.224307	0.585761
H81	H	0.944184	0.259101	0.528925
O82	O	0.407222	0.101035	0.168143
H83	H	0.372550	0.055883	0.151645
O84	O	1.145914	0.058824	0.584086
H85	H	1.180027	0.032999	0.526562
H86	H	0.854784	0.143439	0.423505
O87	O	0.410578	0.096121	-0.167701
H88	H	0.429314	0.125433	-0.226549
H89	H	0.546399	0.190534	0.089723
O90	O	0.428279	-0.022439	0.080449
H91	H	0.359491	-0.025831	0.079089
O92	O	1.145894	0.057785	0.415860
H93	H	1.119065	0.019106	0.372726
O94	O	0.991289	-0.258127	0.167270
H95	H	0.991930	-0.220574	0.223207
H96	H	0.854416	0.143386	0.576304
H97	H	0.577346	-0.010441	-0.060445
H98	H	0.402328	0.190382	0.084095
H99	H	1.016620	-0.021746	0.422706
O100	O	1.096777	0.181420	0.414134
H101	H	1.045046	0.204962	0.370623
H102	H	0.909194	0.006998	0.577258
H103	H	0.993882	-0.116368	-0.145866
O104	O	0.884378	0.006794	0.416132
H105	H	0.884328	0.004970	0.342527
O106	O	0.391678	0.206749	-0.089369
H107	H	0.439929	0.243860	-0.091782
