data_functionalizedCrystal
_audit_creation_method	'MofGen! by Chris Wilmer'
_symmetry_space_group_name_H-M	'P1'
_symmetry_Int_Tables_number	1
_symmetry_cell_setting	triclinic
loop_
_symmetry_equiv_pos_as_xyz
  x,y,z
_cell_length_a	21.395362
_cell_length_b	19.077068
_cell_length_c	21.395356
_cell_angle_alpha	92.271626
_cell_angle_beta	89.964230
_cell_angle_gamma	92.343691
loop_
_atom_site_label
_atom_site_type_symbol
_atom_site_fract_x
_atom_site_fract_y
_atom_site_fract_z
Zn1	Zn	0.947810	-0.279939	-0.364584
Zn2	Zn	1.447810	0.220061	0.135416
Zn3	Zn	0.943524	-0.397635	-0.264011
Zn4	Zn	1.443524	0.102365	0.235989
Zn5	Zn	0.843039	-0.279987	-0.259787
Zn6	Zn	1.343039	0.220013	0.240213
Zn7	Zn	0.838791	-0.397635	-0.368715
Zn8	Zn	1.338791	0.102365	0.131285
O9	O	0.893291	-0.338799	-0.314274
O10	O	1.393291	0.161201	0.185726
O11	O	1.034921	-0.295532	-0.351282
O12	O	1.534921	0.204468	0.148718
O13	O	0.930178	-0.382049	-0.175773
O14	O	1.430178	0.117951	0.324227
O15	O	0.860508	-0.181488	-0.270193
O16	O	1.360508	0.318512	0.229807
O17	O	1.031771	-0.382003	-0.277391
O18	O	1.531771	0.117997	0.222609
O19	O	0.937484	-0.181453	-0.347186
O20	O	1.437484	0.318547	0.152814
O21	O	0.856352	-0.295613	-0.172670
O22	O	1.356352	0.204387	0.327330
O23	O	0.754797	-0.295613	-0.274198
O24	O	1.254797	0.204387	0.225802
O25	O	0.853269	-0.382003	-0.455845
O26	O	1.353269	0.117997	0.044155
O27	O	0.751676	-0.382048	-0.354227
O28	O	1.251676	0.117952	0.145773
O29	O	0.933365	-0.295532	-0.452810
O30	O	1.433365	0.204468	0.047190
O31	O	0.926060	-0.496128	-0.281396
O32	O	1.426060	0.003872	0.218604
O33	O	0.849113	-0.496128	-0.358323
O34	O	1.349113	0.003872	0.141677
C35	C	0.730502	-0.338836	-0.314203
C36	C	1.230502	0.161164	0.185797
C37	C	0.660860	-0.338869	-0.314188
C38	C	1.160860	0.161131	0.185812
C39	C	0.626536	-0.383936	-0.355801
C40	C	1.126536	0.116064	0.144199
C41	C	0.561101	-0.383919	-0.355829
C42	C	1.061101	0.116081	0.144171
C43	C	0.529992	-0.338842	-0.314232
C44	C	1.029992	0.161158	0.185768
C45	C	0.564324	-0.293766	-0.272615
C46	C	1.064324	0.206234	0.227385
C47	C	0.629758	-0.293780	-0.272594
C48	C	1.129758	0.206220	0.227406
C49	C	0.426478	-0.333180	-0.257624
C50	C	0.926478	0.166820	0.242376
C51	C	0.361045	-0.333171	-0.257645
C52	C	0.861045	0.166829	0.242355
C53	C	0.328173	-0.338796	-0.314299
C54	C	0.828173	0.161204	0.185701
C55	C	0.360741	-0.344444	-0.370935
C56	C	0.860741	0.155556	0.129065
C57	C	0.426175	-0.344458	-0.370913
C58	C	0.926175	0.155542	0.129087
C59	C	0.459041	-0.338822	-0.314251
C60	C	0.959041	0.161178	0.185749
C61	C	0.222897	-0.383847	-0.355946
C62	C	0.722897	0.116153	0.144054
C63	C	0.157462	-0.383824	-0.355974
C64	C	0.657462	0.116176	0.144026
C65	C	0.160686	-0.293676	-0.272755
C66	C	0.660686	0.206324	0.227245
C67	C	0.226121	-0.293694	-0.272732
C68	C	0.726121	0.206306	0.227268
C69	C	0.257222	-0.338783	-0.314327
C70	C	0.757222	0.161217	0.185673
C71	C	0.886677	-0.521666	-0.320780
C72	C	1.386677	-0.021666	0.179220
C73	C	0.883905	-0.599897	-0.323584
C74	C	1.383905	-0.099897	0.176416
C75	C	0.922696	-0.636626	-0.284883
C76	C	1.422696	-0.136626	0.215117
C77	C	0.920092	-0.710133	-0.287524
C78	C	1.420092	-0.210133	0.212476
C79	C	0.878694	-0.746908	-0.328863
C80	C	1.378694	-0.246908	0.171137
C81	C	0.839901	-0.710173	-0.367568
C82	C	1.339901	-0.210173	0.132432
C83	C	0.842509	-0.636668	-0.364930
C84	C	1.342509	-0.136668	0.135070
C85	C	0.866600	-0.966747	-0.341047
C86	C	1.366600	-0.466747	0.158953
C87	C	0.863994	-1.040257	-0.343681
C88	C	1.363994	-0.540257	0.156319
C89	C	0.944186	-1.040212	-0.263638
C90	C	1.444186	-0.540212	0.236362
C91	C	0.946787	-0.966706	-0.261001
C92	C	1.446787	-0.466706	0.238999
C93	C	0.907997	-0.929977	-0.299708
C94	C	1.407997	-0.429977	0.200292
N95	N	0.876030	-0.822043	-0.331562
N96	N	1.376030	-0.322043	0.168438
N97	N	0.910664	-0.854843	-0.297012
N98	N	1.410664	-0.354843	0.202988
C99	C	1.056716	-0.338762	-0.314347
C100	C	1.556716	0.161238	0.185653
C101	C	1.126358	-0.338746	-0.314377
C102	C	1.626358	0.161254	0.185623
C103	C	0.893321	-0.338762	-0.477697
C104	C	1.393321	0.161238	0.022303
C105	C	0.893334	-0.338746	-0.547337
C106	C	1.393334	0.161254	-0.047337
C107	C	0.899948	-0.155218	-0.307758
C108	C	1.399948	0.344782	0.192242
C109	C	0.902785	-0.076987	-0.304980
C110	C	1.402785	0.423013	0.195020
C111	C	0.931851	-0.383606	-1.050745
C112	C	1.431851	0.116394	-0.550745
C113	C	0.931839	-0.383628	-0.985310
C114	C	1.431839	0.116372	-0.485310
C115	C	0.893398	-0.338635	-0.950972
C116	C	1.393398	0.161365	-0.450972
C117	C	0.854954	-0.293628	-0.982074
C118	C	1.354954	0.206372	-0.482074
C119	C	0.854962	-0.293612	-1.047508
C120	C	1.354962	0.206388	-0.547508
C121	C	0.890736	-0.275249	-0.845051
C122	C	1.390736	0.224751	-0.345051
C123	C	0.890732	-0.275264	-0.779618
C124	C	1.390732	0.224736	-0.279618
C125	C	0.893368	-0.338685	-0.749153
C126	C	1.393368	0.161315	-0.249153
C127	C	0.896021	-0.402092	-0.784128
C128	C	1.396021	0.097908	-0.284128
C129	C	0.896029	-0.402076	-0.849561
C130	C	1.396029	0.097924	-0.349561
C131	C	0.893384	-0.338647	-0.880020
C132	C	1.393384	0.161353	-0.380020
C133	C	0.931793	-0.383716	-0.647107
C134	C	1.431793	0.116284	-0.147107
C135	C	0.931776	-0.383739	-0.581671
C136	C	1.431776	0.116261	-0.081671
C137	C	0.854895	-0.293733	-0.578436
C138	C	1.354895	0.206267	-0.078436
C139	C	0.854908	-0.293716	-0.643871
C140	C	1.354908	0.206284	-0.143871
C141	C	0.893360	-0.338706	-0.678202
C142	C	1.393360	0.161294	-0.178202
C143	C	0.893299	-0.338785	-0.151486
C144	C	1.393299	0.161215	0.348514
C145	C	0.893415	-0.338602	-0.081839
C146	C	1.393415	0.161398	0.418161
H147	H	0.254068	-0.257000	-0.238843
H148	H	0.754068	0.243000	0.261157
Cl149	Cl	0.968862	-0.756304	-0.238871
Cl150	Cl	1.468862	-0.256304	0.261129
Cl151	Cl	0.806551	-0.237187	-0.535275
Cl152	Cl	1.306551	0.262813	-0.035275
H153	H	0.980496	-0.936765	-0.227339
H154	H	1.480496	-0.436765	0.272661
Cl155	Cl	0.114311	-0.440481	-0.408296
Cl156	Cl	0.614311	0.059519	0.091704
Cl157	Cl	0.817833	-0.920584	-0.389707
Cl158	Cl	1.317833	-0.420584	0.110293
H159	H	0.963148	-0.420267	-0.959988
H160	H	1.463148	0.079733	-0.459988
Cl161	Cl	0.992951	-1.086389	-0.214985
Cl162	Cl	1.492951	-0.586389	0.285015
Cl163	Cl	0.811938	-1.086488	-0.395646
Cl164	Cl	1.311938	-0.586488	0.104354
Cl165	Cl	0.887402	-0.195552	-0.735657
Cl166	Cl	1.387402	0.304448	-0.235657
Cl167	Cl	0.787861	-0.756405	-0.419541
Cl168	Cl	1.287861	-0.256405	0.080459
Cl169	Cl	0.793743	-0.590493	-0.413586
Cl170	Cl	1.293743	-0.090493	0.086414
H171	H	0.956404	-0.606689	-0.251218
H172	H	1.456404	-0.106689	0.248782
Cl173	Cl	0.319425	-0.351512	-0.442162
Cl174	Cl	0.819425	0.148488	0.057838
Cl175	Cl	0.980131	-0.440275	-0.690269
Cl176	Cl	1.480131	0.059725	-0.190269
Cl177	Cl	0.980184	-0.440173	-1.093901
Cl178	Cl	1.480184	0.059827	-0.593901
Cl179	Cl	0.899359	-0.481785	-0.893527
Cl180	Cl	1.399359	0.018215	-0.393527
H181	H	0.898168	-0.453735	-0.759324
H182	H	1.398168	0.046265	-0.259324
H183	H	0.963072	-0.420393	-0.556355
H184	H	1.463072	0.079607	-0.056355
Cl185	Cl	0.806629	-0.237063	-0.938907
Cl186	Cl	1.306629	0.262937	-0.438907
Cl187	Cl	0.262000	-0.440524	-0.408238
Cl188	Cl	0.762000	0.059476	0.091762
Cl189	Cl	0.806576	-0.237147	-0.682963
Cl190	Cl	1.306576	0.262853	-0.182963
H191	H	0.453237	-0.328596	-0.211487
H192	H	0.953237	0.171404	0.288513
H193	H	0.651855	-0.420650	-0.389672
H194	H	1.151855	0.079350	0.110328
H195	H	0.888631	-0.223597	-0.869850
H196	H	1.388631	0.276403	-0.369850
H197	H	0.823662	-0.256963	-1.072824
H198	H	1.323662	0.243037	-0.572824
Cl199	Cl	0.320109	-0.326070	-0.186448
Cl200	Cl	0.820109	0.173930	0.313552
Cl201	Cl	0.467116	-0.351554	-0.442108
Cl202	Cl	0.967116	0.148446	0.057892
Cl203	Cl	0.121584	-0.237003	-0.220465
Cl204	Cl	0.621584	0.262997	0.279535
Cl205	Cl	0.525217	-0.237095	-0.220325
Cl206	Cl	1.025217	0.262905	0.279675
Cl207	Cl	0.517942	-0.440579	-0.408146
Cl208	Cl	1.017942	0.059421	0.091854
H209	H	0.657704	-0.257079	-0.238707
H210	H	1.157704	0.242921	0.261293
