data_functionalizedCrystal
_audit_creation_method	'MofGen! by Chris Wilmer'
_symmetry_space_group_name_H-M	'P1'
_symmetry_Int_Tables_number	1
_symmetry_cell_setting	triclinic
loop_
_symmetry_equiv_pos_as_xyz
  x,y,z
_cell_length_a	17.640280
_cell_length_b	17.638574
_cell_length_c	17.639252
_cell_angle_alpha	65.700738
_cell_angle_beta	114.299740
_cell_angle_gamma	114.316947
loop_
_atom_site_label
_atom_site_type_symbol
_atom_site_fract_x
_atom_site_fract_y
_atom_site_fract_z
Zn1	Zn	-0.475861	-1.434136	0.640404
Zn2	Zn	-0.641471	-1.434097	0.474769
Zn3	Zn	-0.475764	-1.268476	0.474806
Zn4	Zn	-0.593716	-1.316137	0.592739
O5	O	-0.546703	-1.363211	0.545680
O6	O	-0.517855	-1.552827	0.638364
O7	O	-0.639434	-1.392164	0.356100
O8	O	-0.357105	-1.270521	0.516737
O9	O	-0.639528	-1.552798	0.516673
O10	O	-0.357177	-1.392231	0.638401
O11	O	-0.517690	-1.270483	0.356128
O12	O	-0.471385	-1.156102	0.470518
O13	O	-0.558137	-1.351753	0.717736
O14	O	-0.558043	-1.191118	0.557163
O15	O	-0.471550	-1.438446	0.752755
O16	O	-0.753807	-1.438379	0.470455
O17	O	-0.718722	-1.351714	0.557127
C18	C	-0.509522	-1.142834	0.508673
C19	C	-0.493633	-1.048562	0.492858
C20	C	-0.426022	-0.897436	0.425553
C21	C	-0.440957	-0.986020	0.440420
C22	C	-0.531398	-1.022536	0.530447
C23	C	-0.516474	-0.933953	0.515584
C24	C	-0.463784	-0.871409	0.463138
C25	C	-0.554236	-0.907926	0.553169
C26	C	-0.539309	-0.819350	0.538312
C27	C	-0.486620	-0.756801	0.485870
C28	C	-0.448858	-0.782833	0.448280
C29	C	-0.606920	-0.970471	0.605620
C30	C	-0.644682	-0.944445	0.643205
C31	C	-0.629761	-0.855867	0.628343
C32	C	-0.577072	-0.793318	0.575901
C33	C	-0.667523	-0.829836	0.665932
C34	C	-0.652596	-0.741260	0.651074
C35	C	-0.562145	-0.704743	0.561043
C36	C	-0.767036	-1.400240	0.508637
C37	C	-0.861303	-1.416164	0.492831
C38	C	-1.080154	-1.242642	0.666121
C39	C	-1.168738	-1.257602	0.651242
C40	C	-1.205200	-1.347932	0.561112
C41	C	-1.116617	-1.332983	0.575986
C42	C	-1.054101	-1.280337	0.628491
C43	C	-1.090564	-1.370677	0.538356
C44	C	-1.001989	-1.355726	0.553226
C45	C	-0.939468	-1.303080	0.605726
C46	C	-0.965526	-1.265385	0.643361
C47	C	-1.153082	-1.423318	0.485847
C48	C	-1.127028	-1.461013	0.448217
C49	C	-1.038452	-1.446067	0.463091
C50	C	-0.975931	-1.393421	0.515591
C51	C	-1.012394	-1.483762	0.425457
C52	C	-0.923820	-1.468810	0.440326
C53	C	-0.887357	-1.378469	0.530461
C54	C	-0.325511	-1.326064	0.582890
C55	C	-0.231252	-1.310234	0.598746
C56	C	-0.509527	-1.400420	0.766877
C57	C	-0.493686	-1.416277	0.861138
C58	C	-0.584022	-0.584447	0.582823
C59	C	-0.599907	-0.678716	0.598628
C60	C	-0.667004	-1.242775	1.079991
C61	C	-0.652110	-1.257691	1.168568
C62	C	-0.561954	-1.347957	1.205020
C63	C	-0.576837	-1.333046	1.116444
C64	C	-0.629363	-1.280455	1.053936
C65	C	-0.539196	-1.370726	1.090389
C66	C	-0.554082	-1.355819	1.001821
C67	C	-0.606608	-1.303233	0.939308
C68	C	-0.644249	-1.265548	0.965368
C69	C	-0.486675	-1.423321	1.152899
C70	C	-0.449035	-1.461001	1.126844
C71	C	-0.463915	-1.446090	1.038274
C72	C	-0.516441	-1.393503	0.975761
C73	C	-0.426274	-1.483774	1.012214
C74	C	-0.441159	-1.468867	0.923646
C75	C	-0.531326	-1.378597	0.887193
C76	C	-0.583753	-1.326140	1.325338
C77	C	-0.599598	-1.310273	1.231074
H78	H	-0.687580	-0.995379	0.685909
H79	H	-0.474560	-1.435459	1.225016
H80	H	-0.709752	-1.199927	1.029092
H81	H	-0.406270	-1.503823	1.177750
H82	H	-0.914622	-1.222523	0.686123
H83	H	-1.189944	-1.226914	0.681901
H84	H	-0.867346	-1.290901	0.617825
H85	H	-0.383514	-1.526600	1.063121
H86	H	-0.683343	-0.720069	0.681683
H87	H	-0.410194	-1.007205	0.409819
H88	H	-0.836452	-1.335607	0.573223
H89	H	-0.710416	-0.880771	0.708641
H90	H	-0.682766	-1.227003	1.189776
H91	H	-0.902608	-1.499504	0.409683
H92	H	-0.410507	-1.499549	0.902433
H93	H	-0.519240	-0.653815	0.518336
H94	H	-1.029250	-1.199779	0.708883
H95	H	-1.225204	-1.435492	0.473744
H96	H	-0.474463	-0.684678	0.473778
H97	H	-0.405953	-0.731905	0.405573
H98	H	-0.383117	-0.846508	0.382846
H99	H	-1.256112	-1.390793	0.518360
H100	H	-1.177940	-1.503875	0.405465
H101	H	-0.574075	-1.335748	0.836294
H102	H	-1.063307	-1.526619	0.382701
H103	H	-0.519190	-1.390779	1.255926
H104	H	-0.686997	-1.222700	0.914469
H105	H	-0.574295	-1.073471	0.573151
H106	H	-0.618730	-1.291101	0.867191
H107	H	-0.619065	-1.042594	0.617722
