data_functionalizedCrystal
_audit_creation_method	'MofGen! by Chris Wilmer'
_symmetry_space_group_name_H-M	'P1'
_symmetry_Int_Tables_number	1
_symmetry_cell_setting	triclinic
loop_
_symmetry_equiv_pos_as_xyz
  x,y,z
_cell_length_a	11.792240
_cell_length_b	11.792241
_cell_length_c	10.268362
_cell_angle_alpha	90.000374
_cell_angle_beta	90.014630
_cell_angle_gamma	84.193417
loop_
_atom_site_label
_atom_site_type_symbol
_atom_site_fract_x
_atom_site_fract_y
_atom_site_fract_z
O1	O	-0.155569	-1.506909	-0.108203
O2	O	0.177765	-1.173575	0.225130
O3	O	0.511098	-0.840242	0.558464
O4	O	-0.171602	-1.176568	-0.108236
O5	O	0.161732	-0.843234	0.225097
O6	O	0.495065	-0.509901	0.558430
O7	O	0.001585	-1.349755	-0.108179
O8	O	0.334919	-1.016421	0.225154
O9	O	0.668252	-0.683088	0.558487
O10	O	-0.328756	-1.333722	-0.108260
O11	O	0.004578	-1.000388	0.225073
O12	O	0.337911	-0.667055	0.558407
O13	O	0.001593	-1.349740	0.108421
O14	O	0.334926	-1.016406	0.441755
O15	O	0.668259	-0.683073	0.775088
O16	O	-0.171594	-1.176553	0.108364
O17	O	0.161739	-0.843219	0.441698
O18	O	0.495072	-0.509886	0.775031
O19	O	-0.155561	-1.506894	0.108398
O20	O	0.177772	-1.173560	0.441731
O21	O	0.511105	-0.840227	0.775064
Cu22	Cu	-0.163577	-1.341722	0.128158
Cu23	Cu	0.169756	-1.008388	0.461492
Cu24	Cu	0.503089	-0.675055	0.794825
Cu25	Cu	-0.163586	-1.341740	-0.127997
Cu26	Cu	0.169748	-1.008406	0.205336
Cu27	Cu	0.503081	-0.675073	0.538670
O28	O	-0.328748	-1.333707	0.108341
O29	O	0.004585	-1.000373	0.441674
O30	O	0.337918	-0.667040	0.775007
C31	C	0.043880	-1.348740	0.000128
C32	C	0.377213	-1.015407	0.333462
C33	C	0.710547	-0.682073	0.666795
C34	C	0.169894	-1.345726	0.000150
C35	C	0.503227	-1.012392	0.333483
C36	C	0.836560	-0.679059	0.666817
C37	C	-0.170591	-1.134269	0.000060
C38	C	0.162742	-0.800936	0.333394
C39	C	0.496076	-0.467603	0.666727
C40	C	-0.167576	-1.008255	0.000050
C41	C	0.165757	-0.674922	0.333383
C42	C	0.499090	-0.341589	0.666716
C43	C	-0.156572	-1.549192	0.000098
C44	C	0.176761	-1.215859	0.333431
C45	C	0.510094	-0.882525	0.666765
C46	C	-0.159587	-1.675206	0.000100
C47	C	0.173747	-1.341873	0.333434
C48	C	0.507080	-1.008539	0.666767
C49	C	0.400606	-1.340183	0.000170
C50	C	0.733939	-1.006849	0.333504
C51	C	1.067273	-0.673516	0.666837
C52	C	0.272221	-1.343262	0.000159
C53	C	0.605554	-1.009929	0.333492
C54	C	0.938887	-0.676596	0.666825
C55	C	0.628957	-1.334721	0.000076
C56	C	0.962290	-1.001388	0.333410
C57	C	1.295624	-0.668055	0.666743
C58	C	0.502943	-1.337736	0.000184
C59	C	0.836277	-1.004402	0.333518
C60	C	1.169610	-0.671069	0.666851
N61	N	-0.163571	-1.341717	0.308324
N62	N	0.169763	-1.008384	0.641658
N63	N	0.503096	-0.675051	0.974991
C64	C	-0.162034	-0.777543	0.000088
C65	C	0.171300	-0.444210	0.333422
C66	C	0.504633	-0.110877	0.666755
C67	C	-0.165113	-0.905928	0.000067
C68	C	0.168220	-0.572595	0.333400
C69	C	0.501553	-0.239262	0.666734
N70	N	-0.163584	-1.341753	-0.308163
N71	N	0.169750	-1.008420	0.025170
N72	N	0.503083	-0.675086	0.358504
C73	C	-0.163584	-1.341734	0.573995
C74	C	0.169750	-1.008401	0.907328
C75	C	0.503083	-0.675067	1.240661
C76	C	-0.163580	-1.341721	0.426157
C77	C	0.169754	-1.008388	0.759490
C78	C	0.503087	-0.675054	1.092824
