data_functionalizedCrystal
_audit_creation_method	'MofGen! by Chris Wilmer'
_symmetry_space_group_name_H-M	'P1'
_symmetry_Int_Tables_number	1
_symmetry_cell_setting	triclinic
loop_
_symmetry_equiv_pos_as_xyz
  x,y,z
_cell_length_a	14.971486
_cell_length_b	23.532407
_cell_length_c	14.048226
_cell_angle_alpha	89.988910
_cell_angle_beta	89.998499
_cell_angle_gamma	83.231404
loop_
_atom_site_label
_atom_site_type_symbol
_atom_site_fract_x
_atom_site_fract_y
_atom_site_fract_z
O1	O	1.186163	0.074216	-0.079061
O2	O	0.925669	0.083104	-0.079088
O3	O	1.063771	-0.004238	-0.079057
O4	O	1.048061	0.161558	-0.079093
O5	O	1.063755	-0.004243	0.079265
O6	O	0.925652	0.083099	0.079233
O7	O	1.186146	0.074211	0.079260
Zn8	Zn	1.055897	0.078654	0.104383
Zn9	Zn	1.055919	0.078661	-0.104212
O10	O	1.048044	0.161553	0.079228
C11	C	0.892340	0.082704	0.000069
C12	C	0.793056	0.081513	0.000059
C13	C	0.735288	0.132824	0.000050
C14	C	0.642001	0.131701	0.000064
C15	C	0.606482	0.079267	0.000082
C16	C	0.664257	0.027952	0.000094
C17	C	0.757543	0.029075	0.000087
C18	C	0.469819	0.025615	0.000108
C19	C	0.376527	0.024491	0.000114
C20	C	0.354277	0.128241	0.000085
C21	C	0.447563	0.129364	0.000078
C22	C	0.505331	0.078049	0.000089
C23	C	1.063363	-0.025458	0.000107
C24	C	1.062160	-0.088680	0.000114
C25	C	1.136342	-0.487466	0.000069
C26	C	1.135224	-0.546871	0.000062
O27	O	1.203992	-0.583321	0.000034
N28	N	1.053123	-0.569849	0.000054
C29	C	0.972133	-0.533418	0.000044
O30	O	0.902196	-0.558417	0.000036
C31	C	0.973251	-0.474014	0.000044
C32	C	1.055358	-0.451040	0.000062
C33	C	1.218442	-0.464491	0.000086
C34	C	1.219559	-0.405090	0.000095
C35	C	1.138576	-0.368664	0.000087
C36	C	1.056475	-0.391639	0.000071
C37	C	0.892263	-0.437584	0.000027
C38	C	0.893388	-0.378177	0.000027
C39	C	0.975495	-0.355203	0.000045
C40	C	0.976609	-0.295812	0.000073
N41	N	1.058711	-0.272834	0.000081
C42	C	1.139694	-0.309260	0.000088
C43	C	0.969791	-0.658170	0.000041
C44	C	0.968671	-0.717573	0.000047
C45	C	1.131763	-0.731022	0.000064
C46	C	1.132882	-0.671618	0.000064
C47	C	1.051892	-0.635193	0.000049
C48	C	1.142034	-0.184513	0.000108
C49	C	1.143143	-0.125106	0.000121
C50	C	0.980052	-0.111663	0.000100
C51	C	0.978942	-0.171064	0.000092
C52	C	1.059940	-0.207489	0.000093
O53	O	0.907878	-0.259327	0.000097
O54	O	1.209619	-0.284253	0.000084
C55	C	1.219475	0.074611	0.000101
C56	C	1.318760	0.075802	0.000104
C57	C	1.048453	0.182773	0.000063
C58	C	1.049655	0.245996	0.000050
N59	N	1.055889	0.078649	0.246744
N60	N	1.055934	0.078661	-0.246572
C61	C	1.117059	0.039990	0.296576
C62	C	1.117065	0.039990	0.396234
C63	C	1.055904	0.078652	0.446058
C64	C	0.994727	0.117313	0.396218
C65	C	0.994717	0.117310	0.296563
C66	C	0.994753	0.117317	0.603933
C67	C	0.994763	0.117320	0.703595
C68	C	1.117101	0.039997	0.703604
C69	C	1.117091	0.039994	0.603948
C70	C	1.055915	0.078656	0.554116
H71	H	0.635331	-0.014741	0.000122
H72	H	1.197704	-0.760691	0.000066
H73	H	0.825402	-0.456279	0.000007
H74	H	0.476478	0.172060	0.000054
H75	H	1.166912	0.008517	0.744183
O76	O	0.579697	0.187045	0.000056
H77	H	0.536651	0.189016	-0.064463
O78	O	1.231710	-0.100333	0.000131
H79	H	1.236126	-0.073605	0.064667
O80	O	0.928781	0.159007	0.757340
H81	H	0.886225	0.185881	0.705949
O82	O	0.806034	-0.338888	0.000022
H83	H	0.748759	-0.364848	0.000019
O84	O	0.880114	-0.742351	0.000046
H85	H	0.841236	-0.727717	-0.064488
H86	H	0.307237	0.170023	0.000080
O87	O	0.890390	-0.195853	0.000084
H88	H	0.851512	-0.181218	-0.064451
O89	O	0.892707	-0.072370	0.000091
H90	H	0.907286	-0.027205	0.000089
O91	O	1.183023	-0.001712	0.242838
H92	H	1.225552	-0.028598	0.294237
O93	O	1.221439	-0.646840	0.000077
H94	H	1.225855	-0.620089	-0.064450
O95	O	0.338212	-0.032060	0.000145
H96	H	0.394052	-0.067555	0.000168
H97	H	0.804577	-0.012707	0.000094
H98	H	1.166874	0.008511	0.436807
H99	H	0.516853	-0.016172	0.000118
H100	H	1.166897	0.008516	0.563382
H101	H	0.944924	0.148790	0.436791
O102	O	0.928776	0.159018	0.550179
H103	H	0.886256	0.185908	0.601565
H104	H	1.207990	-0.214164	0.000105
O105	O	1.308117	-0.380313	0.000086
H106	H	1.364234	-0.415630	0.000074
O107	O	0.882433	-0.618883	0.000050
H108	H	0.825162	-0.644846	0.000057
O109	O	0.928746	0.159008	0.242807
H110	H	0.886224	0.185897	0.294193
H111	H	0.764199	0.175522	0.000034
O112	O	1.305795	-0.503775	0.000107
H113	H	1.363064	-0.477810	0.000128
