data_functionalizedCrystal
_audit_creation_method	'MofGen! by Chris Wilmer'
_symmetry_space_group_name_H-M	'P1'
_symmetry_Int_Tables_number	1
_symmetry_cell_setting	triclinic
loop_
_symmetry_equiv_pos_as_xyz
  x,y,z
_cell_length_a	12.759401
_cell_length_b	16.625546
_cell_length_c	12.759393
_cell_angle_alpha	89.963806
_cell_angle_beta	89.981504
_cell_angle_gamma	90.022629
loop_
_atom_site_label
_atom_site_type_symbol
_atom_site_fract_x
_atom_site_fract_y
_atom_site_fract_z
Zn1	Zn	1.606199	-0.320951	-0.593948
Zn2	Zn	2.106199	0.179049	-0.093948
Zn3	Zn	1.606069	-0.455807	-0.418253
Zn4	Zn	2.106069	0.044193	0.081747
Zn5	Zn	1.430501	-0.320993	-0.418287
Zn6	Zn	1.930501	0.179007	0.081713
Zn7	Zn	1.430465	-0.455745	-0.593895
Zn8	Zn	1.930465	0.044255	-0.093895
O9	O	1.518308	-0.388374	-0.506096
O10	O	2.018308	0.111626	-0.006096
O11	O	1.753203	-0.338848	-0.570649
O12	O	2.253203	0.161152	-0.070649
O13	O	1.582740	-0.437968	-0.271237
O14	O	2.082740	0.062032	0.228763
O15	O	1.453876	-0.208155	-0.441625
O16	O	1.953876	0.291845	0.058375
O17	O	1.753107	-0.437927	-0.441568
O18	O	2.253107	0.062073	0.058432
O19	O	1.582961	-0.208124	-0.570682
O20	O	2.082961	0.291876	-0.070682
O21	O	1.453751	-0.338920	-0.271261
O22	O	1.953751	0.161080	0.228739
O23	O	1.283475	-0.338860	-0.441574
O24	O	1.783475	0.161140	0.058426
O25	O	1.453816	-0.437821	-0.740923
O26	O	1.953816	0.062179	-0.240923
O27	O	1.283449	-0.437862	-0.570592
O28	O	1.783449	0.062138	-0.070592
O29	O	1.582927	-0.338788	-0.740962
O30	O	2.082927	0.161212	-0.240962
O31	O	1.582706	-0.568632	-0.441517
O32	O	2.082706	-0.068632	0.058483
O33	O	1.453691	-0.568586	-0.570560
O34	O	1.953691	-0.068586	-0.070560
C35	C	1.245341	-0.388359	-0.506081
C36	C	1.745341	0.111641	-0.006081
C37	C	1.128564	-0.388372	-0.506100
C38	C	1.628564	0.111628	-0.006100
C39	C	1.073717	-0.440005	-0.573169
C40	C	1.573717	0.059995	-0.073169
C41	C	0.963992	-0.440015	-0.573180
C42	C	1.463992	0.059985	-0.073180
C43	C	0.963974	-0.336758	-0.439045
C44	C	1.463974	0.163242	0.060955
C45	C	1.073696	-0.336744	-0.439040
C46	C	1.573696	0.163256	0.060960
C47	C	1.128585	-0.491634	-0.640229
C48	C	1.628585	0.008366	-0.140229
C49	C	1.073737	-0.543271	-0.707303
C50	C	1.573737	-0.043271	-0.207303
C51	C	0.964013	-0.543282	-0.707314
C52	C	1.464013	-0.043282	-0.207314
C53	C	0.909137	-0.491654	-0.640252
C54	C	1.409137	0.008346	-0.140252
C55	C	1.518209	-0.597865	-0.506052
C56	C	2.018209	-0.097865	-0.006052
C57	C	1.518263	-0.687486	-0.506068
C58	C	2.018263	-0.187486	-0.006068
C59	C	1.518446	-1.015662	-0.506177
C60	C	2.018446	-0.515662	-0.006177
C61	C	1.518392	-0.924353	-0.506150
C62	C	2.018392	-0.424353	-0.006150
C63	C	1.518353	-0.851577	-0.506122
C64	C	2.018353	-0.351577	-0.006122
C65	C	1.518301	-0.760262	-0.506096
C66	C	2.018301	-0.260262	-0.006096
C67	C	1.792342	-0.388390	-0.506111
C68	C	2.292342	0.111610	-0.006111
C69	C	1.909118	-0.388396	-0.506117
C70	C	2.409118	0.111604	-0.006117
C71	C	1.518382	-0.388293	-0.780129
C72	C	2.018382	0.111707	-0.280129
C73	C	1.518413	-0.388258	-0.896906
C74	C	2.018413	0.111742	-0.396906
C75	C	1.518437	-0.178065	-0.506163
C76	C	2.018437	0.321935	-0.006163
C77	C	1.518492	-0.088444	-0.506191
C78	C	2.018492	0.411556	-0.006191
C79	C	1.585650	-0.336687	-0.951790
C80	C	2.085650	0.163313	-0.451790
C81	C	1.585675	-0.336657	-1.061514
C82	C	2.085675	0.163343	-0.561514
C83	C	1.451223	-0.439778	-1.061461
C84	C	1.951223	0.060222	-0.561461
C85	C	1.451194	-0.439803	-0.951739
C86	C	1.951194	0.060197	-0.451739
C87	C	1.652870	-0.285142	-0.896957
C88	C	2.152870	0.214858	-0.396957
C89	C	1.720113	-0.233567	-0.951841
C90	C	2.220113	0.266433	-0.451841
C91	C	1.720138	-0.233538	-1.061565
C92	C	2.220138	0.266462	-0.561565
C93	C	1.652920	-0.285084	-1.116405
C94	C	2.152920	0.214916	-0.616405
C95	C	1.518296	-0.388397	-0.233128
C96	C	2.018296	0.111603	0.266872
C97	C	1.518468	-0.388204	-0.116352
C98	C	2.018468	0.111796	0.383648
H99	H	0.919358	-0.585322	-0.761936
H100	H	1.419358	-0.085322	-0.261936
H101	H	1.118424	-0.585299	-0.761909
H102	H	1.618424	-0.085299	-0.261909
C103	C	1.679642	-0.361904	-0.739790
C104	C	2.179642	0.138096	-0.239790
C105	C	1.652900	-0.285183	-0.776348
C106	C	2.152900	0.214817	-0.276348
H107	H	1.679682	-0.361931	-0.665332
H108	H	2.179682	0.138069	-0.165332
H109	H	1.629970	-0.399969	-0.764564
H110	H	2.129970	0.100031	-0.264564
H111	H	1.747420	-0.375837	-0.764670
H112	H	2.247420	0.124163	-0.264670
H113	H	1.585118	-0.271253	-0.751474
H114	H	2.085118	0.228747	-0.251474
H115	H	1.702574	-0.247107	-0.751563
H116	H	2.202574	0.252893	-0.251563
H117	H	0.819792	-0.491660	-0.640276
H118	H	1.319792	0.008340	-0.140276
H119	H	1.774833	-0.191595	-0.907183
H120	H	2.274833	0.308405	-0.407183
H121	H	1.774883	-0.191537	-1.106249
H122	H	2.274883	0.308463	-0.606249
H123	H	0.919285	-0.294726	-0.384446
H124	H	1.419285	0.205274	0.115554
C125	C	1.726163	-0.228904	-1.273614
C126	C	2.226163	0.271096	-0.773614
C127	C	1.652951	-0.285056	-1.237017
C128	C	2.152951	0.214944	-0.737017
H129	H	1.726190	-0.228894	-1.348072
H130	H	2.226190	0.271106	-0.848072
H131	H	1.708015	-0.176883	-1.248821
H132	H	2.208015	0.323117	-0.748821
H133	H	1.793941	-0.242863	-1.248780
H134	H	2.293941	0.257137	-0.748780
H135	H	1.585172	-0.271093	-1.261845
H136	H	2.085172	0.228907	-0.761845
H137	H	1.671094	-0.337088	-1.261821
H138	H	2.171094	0.162912	-0.761821
H139	H	1.396497	-0.481744	-1.106120
H140	H	1.896497	0.018256	-0.606120
C141	C	1.399971	-0.576346	-0.917869
C142	C	1.899971	-0.076346	-0.417869
C143	C	1.377315	-0.496503	-0.891387
C144	C	1.877315	0.003497	-0.391387
H145	H	1.354368	-0.611351	-0.880599
H146	H	1.854368	-0.111351	-0.380599
H147	H	1.390348	-0.583710	-0.991050
H148	H	1.890348	-0.083710	-0.491050
H149	H	1.470560	-0.588130	-0.899898
H150	H	1.970560	-0.088130	-0.399898
H151	H	1.306727	-0.484717	-0.909364
H152	H	1.806727	0.015283	-0.409364
H153	H	1.386929	-0.489135	-0.818189
H154	H	1.886929	0.010865	-0.318189
C155	C	1.285775	-0.547838	-0.713244
C156	C	1.785775	-0.047838	-0.213244
C157	C	1.249194	-0.491621	-0.640221
C158	C	1.749194	0.008379	-0.140221
H159	H	1.360233	-0.547825	-0.713240
H160	H	1.860233	-0.047825	-0.213240
H161	H	1.260931	-0.599847	-0.694946
H162	H	1.760931	-0.099847	-0.194946
H163	H	1.260980	-0.533956	-0.781076
H164	H	1.760980	-0.033956	-0.281076
H165	H	1.273982	-0.505506	-0.572388
H166	H	1.773982	-0.005506	-0.072388
H167	H	1.274049	-0.439601	-0.658514
H168	H	1.774049	0.060399	-0.158514
H169	H	1.118354	-0.294694	-0.384435
H170	H	1.618354	0.205306	0.115565
