data_functionalizedCrystal
_audit_creation_method	'MofGen! by Chris Wilmer'
_symmetry_space_group_name_H-M	'P1'
_symmetry_Int_Tables_number	1
_symmetry_cell_setting	triclinic
loop_
_symmetry_equiv_pos_as_xyz
  x,y,z
_cell_length_a	8.597366
_cell_length_b	7.681481
_cell_length_c	16.109301
_cell_angle_alpha	84.258119
_cell_angle_beta	95.596823
_cell_angle_gamma	76.525280
loop_
_atom_site_label
_atom_site_type_symbol
_atom_site_fract_x
_atom_site_fract_y
_atom_site_fract_z
O1	O	2.099780	-0.172134	-0.114970
O2	O	1.635713	-0.101724	-0.128219
O3	O	1.880497	-0.138882	-0.000564
O4	O	1.854996	-0.134977	-0.242625
O5	O	1.910626	-0.436313	0.015184
O6	O	1.665842	-0.399155	-0.112471
O7	O	2.129909	-0.469566	-0.099222
Zn8	Zn	1.902659	-0.481584	-0.103347
Zn9	Zn	1.862963	-0.089705	-0.124095
O10	O	1.885125	-0.432408	-0.226877
C11	C	1.591395	-0.241430	-0.119800
C12	C	1.414452	-0.214584	-0.118166
N13	N	1.929762	-0.749032	-0.089186
C14	C	2.174227	-0.329856	-0.107642
C15	C	2.351169	-0.356690	-0.109277
C16	C	1.894528	-0.287441	0.038285
C17	C	1.891432	-0.286974	0.130581
N18	N	1.835872	0.177741	-0.138249
C19	C	1.871093	-0.283844	-0.265727
C20	C	1.874188	-0.284300	-0.358023
C21	C	2.029478	-0.307891	0.352836
C22	C	2.026555	-0.307433	0.439556
C23	C	1.736131	-0.263375	0.419714
C24	C	1.739054	-0.263821	0.332995
C25	C	1.885734	-0.286089	0.299559
C26	C	1.879887	-0.285185	0.472998
C27	C	1.876716	-0.284688	0.567024
C28	C	1.888905	-0.286582	0.205528
H29	H	1.333265	-0.072372	-0.124519
H30	H	1.740030	-0.732513	-0.188328
H31	H	2.148913	-0.326019	0.325616
H32	H	2.143606	-0.325183	0.482932
C33	C	1.459643	-0.546237	-0.100678
C34	C	1.574045	-0.572789	-0.029595
C35	C	1.674010	-0.747364	-0.021653
H36	H	1.396424	-0.631964	-0.094833
H37	H	1.513096	-0.560907	-0.149355
H38	H	1.520596	-0.558136	0.019070
H39	H	1.637301	-0.487104	-0.035423
H40	H	1.727463	-0.762035	-0.070329
H41	H	1.610778	-0.833077	-0.015810
H42	H	1.751653	-0.765397	0.026573
C43	C	2.057470	-0.868460	-0.022287
C44	C	2.026898	-0.819089	0.057002
C45	C	2.144515	-0.929049	0.118648
H46	H	2.054645	-0.991018	-0.023713
H47	H	2.160828	-0.853954	-0.032822
H48	H	1.923567	-0.833611	0.067535
H49	H	2.029738	-0.696548	0.058457
H50	H	2.247872	-0.914543	0.108113
H51	H	2.141680	-1.051601	0.117213
H52	H	2.123796	-0.895555	0.172452
H53	H	1.621992	-0.246060	0.289614
H54	H	1.616709	-0.245249	0.446948
