data_functionalizedCrystal
_audit_creation_method	'MofGen! by Chris Wilmer'
_symmetry_space_group_name_H-M	'P1'
_symmetry_Int_Tables_number	1
_symmetry_cell_setting	triclinic
loop_
_symmetry_equiv_pos_as_xyz
  x,y,z
_cell_length_a	14.519709
_cell_length_b	26.809956
_cell_length_c	14.519709
_cell_angle_alpha	90.003406
_cell_angle_beta	96.319855
_cell_angle_gamma	90.003229
loop_
_atom_site_label
_atom_site_type_symbol
_atom_site_fract_x
_atom_site_fract_y
_atom_site_fract_z
O1	O	1.223875	0.041416	-0.120878
O2	O	1.723875	0.541416	0.379122
O3	O	0.955398	0.041431	-0.135115
O4	O	1.455398	0.541431	0.364885
O5	O	1.096755	0.041419	0.006242
O6	O	1.596755	0.541419	0.506242
O7	O	1.082518	0.041428	-0.262235
O8	O	1.582518	0.541428	0.237765
O9	O	1.096728	-0.041541	0.006220
O10	O	1.596728	0.458459	0.506220
O11	O	0.955371	-0.041528	-0.135136
O12	O	1.455371	0.458472	0.364864
O13	O	1.223848	-0.041544	-0.120900
O14	O	1.723848	0.458456	0.379100
Zn15	Zn	1.089605	-0.054707	-0.128021
Zn16	Zn	1.589605	0.445293	0.371979
Zn17	Zn	1.089641	0.054595	-0.127993
Zn18	Zn	1.589641	0.554595	0.372007
O19	O	1.082491	-0.041531	-0.262257
O20	O	1.582491	0.458469	0.237743
C21	C	0.921025	-0.000047	-0.134462
C22	C	1.421025	0.499953	0.365538
C23	C	0.818643	-0.000041	-0.132474
C24	C	1.318643	0.499959	0.367526
C25	C	0.443748	-0.000064	-0.125154
C26	C	0.943748	0.499936	0.374846
C27	C	0.548056	-0.000057	-0.127187
C28	C	1.048056	0.499943	0.372813
C29	C	0.631192	-0.000052	-0.128814
C30	C	1.131192	0.499948	0.371186
C31	C	0.735507	-0.000046	-0.130847
C32	C	1.235507	0.499954	0.369153
N33	N	1.089588	-0.129303	-0.128040
N34	N	1.589588	0.370697	0.371960
C35	C	1.152225	-0.473935	-0.065416
C36	C	1.652225	0.026065	0.434584
C37	C	1.152247	-0.682813	-0.065402
C38	C	1.652247	-0.182813	0.434598
O39	O	1.205466	-0.709821	-0.012162
O40	O	1.705466	-0.209821	0.487838
N41	N	1.089645	-0.708930	-0.127973
N42	N	1.589645	-0.208930	0.372027
C43	C	1.027030	-0.682826	-0.190548
C44	C	1.527030	-0.182826	0.309452
O45	O	0.973777	-0.709833	-0.243761
O46	O	1.473777	-0.209833	0.256239
C47	C	1.027004	-0.473949	-0.190556
C48	C	1.527004	0.026051	0.309444
C49	C	1.089616	-0.447834	-0.127988
C50	C	1.589616	0.052166	0.372012
C51	C	1.214831	-0.447820	-0.002851
C52	C	1.714831	0.052180	0.497149
C53	C	1.214829	-0.395604	-0.002859
C54	C	1.714829	0.104396	0.497141
C55	C	1.152220	-0.369502	-0.065431
C56	C	1.652220	0.130498	0.434569
C57	C	1.089614	-0.395618	-0.127995
C58	C	1.589614	0.104382	0.372005
C59	C	0.964385	-0.447845	-0.253126
C60	C	1.464385	0.052155	0.246874
C61	C	0.964383	-0.395622	-0.253121
C62	C	1.464383	0.104378	0.246879
C63	C	1.026995	-0.369507	-0.190553
C64	C	1.526995	0.130493	0.309447
C65	C	1.027002	-0.317300	-0.190575
C66	C	1.527002	0.182700	0.309425
N67	N	1.089604	-0.291182	-0.128004
N68	N	1.589604	0.208818	0.371996
C69	C	1.152213	-0.317283	-0.065432
C70	C	1.652213	0.182717	0.434568
C71	C	1.027049	-0.792489	-0.190540
C72	C	1.527049	-0.292489	0.309460
C73	C	1.027056	-0.844708	-0.190539
C74	C	1.527056	-0.344708	0.309461
C75	C	1.152273	-0.844691	-0.065392
C76	C	1.652273	-0.344691	0.434608
C77	C	1.152269	-0.792471	-0.065398
C78	C	1.652269	-0.292471	0.434602
C79	C	1.089651	-0.766371	-0.127969
C80	C	1.589651	-0.266371	0.372031
C81	C	1.152203	-0.207625	-0.065453
C82	C	1.652203	0.292375	0.434547
C83	C	1.152197	-0.155405	-0.065468
C84	C	1.652197	0.344595	0.434532
C85	C	1.026978	-0.155426	-0.190612
C86	C	1.526978	0.344574	0.309388
C87	C	1.026986	-0.207642	-0.190600
C88	C	1.526986	0.292358	0.309400
C89	C	1.089602	-0.233741	-0.128013
C90	C	1.589602	0.266259	0.371987
O91	O	0.973804	-0.290259	-0.243780
O92	O	1.473804	0.209741	0.256220
O93	O	1.205443	-0.290267	-0.012212
O94	O	1.705443	0.209733	0.487788
C95	C	1.152228	-0.526151	-0.065408
C96	C	1.652228	-0.026151	0.434592
C97	C	1.089622	-0.552266	-0.127973
C98	C	1.589622	-0.052266	0.372027
C99	C	1.027013	-0.526165	-0.190545
C100	C	1.527013	-0.026165	0.309455
C101	C	1.089629	-0.604485	-0.127972
C102	C	1.589629	-0.104485	0.372028
C103	C	1.152238	-0.630587	-0.065400
C104	C	1.652238	-0.130587	0.434600
C105	C	1.214840	-0.604469	-0.002829
C106	C	1.714840	-0.104469	0.497171
C107	C	1.214837	-0.552252	-0.002836
C108	C	1.714837	-0.052252	0.497164
C109	C	0.964411	-0.552283	-0.253116
C110	C	1.464411	-0.052283	0.246884
C111	C	0.964420	-0.604499	-0.253104
C112	C	1.464420	-0.104499	0.246896
C113	C	1.027029	-0.630601	-0.190532
C114	C	1.527029	-0.130601	0.309468
C115	C	1.258221	-0.000065	-0.121553
C116	C	1.758221	0.499935	0.378447
C117	C	1.360602	-0.000067	-0.123541
C118	C	1.860602	0.499933	0.376459
C119	C	1.096078	-0.000061	0.040591
C120	C	1.596078	0.499939	0.540591
C121	C	1.094089	-0.000061	0.142972
C122	C	1.594089	0.499939	0.642972
N123	N	1.089665	0.129191	-0.127967
N124	N	1.589665	0.629191	0.372033
C125	C	1.083168	-0.000050	-0.296606
C126	C	1.583168	0.499950	0.203394
C127	C	1.085156	-0.000047	-0.398987
C128	C	1.585156	0.499953	0.101013
C129	C	1.086770	-0.000048	0.517868
C130	C	1.586770	0.499952	1.017868
C131	C	1.088803	-0.000052	0.413560
C132	C	1.588803	0.499948	0.913560
C133	C	1.090430	-0.000055	0.330423
C134	C	1.590430	0.499945	0.830423
C135	C	1.092463	-0.000058	0.226109
C136	C	1.592463	0.499942	0.726109
H137	H	1.203186	-0.134143	-0.014517
H138	H	1.703186	0.365857	0.485483
H139	H	0.976005	-0.134166	-0.241560
H140	H	1.476005	0.365834	0.258440
C141	C	1.283708	-0.633190	0.066003
C142	C	1.783708	-0.133190	0.566003
N143	N	1.335572	-0.654826	0.117848
N144	N	1.835572	-0.154826	0.617848
C145	C	0.958229	-0.763785	-0.259448
C146	C	1.458229	-0.263785	0.240552
N147	N	0.906420	-0.742168	-0.311377
N148	N	1.406420	-0.242168	0.188623
H149	H	1.265821	-0.530993	0.048113
H150	H	1.765821	-0.030993	0.548113
H151	H	0.976082	-0.865967	-0.241498
H152	H	1.476082	-0.365967	0.258502
C153	C	0.895536	-0.633220	-0.321938
C154	C	1.395536	-0.133220	0.178062
N155	N	0.843647	-0.654851	-0.373777
N156	N	1.343647	-0.154851	0.126223
H157	H	0.913426	-0.531035	-0.304068
H158	H	1.413426	-0.031035	0.195932
H159	H	1.265815	-0.469067	0.048106
H160	H	1.765815	0.030933	0.548106
H161	H	1.203189	-0.228869	-0.014487
H162	H	1.703189	0.271131	0.485513
H163	H	1.203252	-0.771212	-0.014448
H164	H	1.703252	-0.271212	0.485552
H165	H	1.265810	-0.374344	0.048092
H166	H	1.765810	0.125656	0.548092
H167	H	1.203253	-0.865952	-0.014444
H168	H	1.703253	-0.365952	0.485556
C169	C	0.895498	-0.476560	-0.321951
C170	C	1.395498	0.023440	0.178049
N171	N	0.843606	-0.498187	-0.373791
N172	N	1.343606	0.001813	0.126209
H173	H	0.913388	-0.374374	-0.304073
H174	H	1.413388	0.125626	0.195927
C175	C	0.958116	-0.236369	-0.259434
C176	C	1.458116	0.263631	0.240566
N177	N	0.906235	-0.258003	-0.311275
N178	N	1.406235	0.241997	0.188725
