data_functionalizedCrystal
_audit_creation_method	'MofGen! by Chris Wilmer'
_symmetry_space_group_name_H-M	'P1'
_symmetry_Int_Tables_number	1
_symmetry_cell_setting	triclinic
loop_
_symmetry_equiv_pos_as_xyz
  x,y,z
_cell_length_a	12.759401
_cell_length_b	19.121063
_cell_length_c	12.759393
_cell_angle_alpha	87.595965
_cell_angle_beta	90.020938
_cell_angle_gamma	92.470439
loop_
_atom_site_label
_atom_site_type_symbol
_atom_site_fract_x
_atom_site_fract_y
_atom_site_fract_z
Zn1	Zn	1.588334	-0.279551	0.611809
Zn2	Zn	2.088334	0.220449	1.111809
Zn3	Zn	1.580690	-0.397017	0.443603
Zn4	Zn	2.080690	0.102983	0.943603
Zn5	Zn	1.412630	-0.279588	0.436146
Zn6	Zn	1.912630	0.220412	0.936146
Zn7	Zn	1.405092	-0.396968	0.619238
Zn8	Zn	1.905092	0.103032	1.119238
O9	O	1.496686	-0.338281	0.527699
O10	O	1.996686	0.161719	1.027699
O11	O	1.734340	-0.295138	0.589508
O12	O	2.234340	0.204862	1.089508
O13	O	1.558352	-0.381476	0.295595
O14	O	2.058352	0.118524	0.795595
O15	O	1.442291	-0.181299	0.453218
O16	O	1.942291	0.318701	0.953218
O17	O	1.728724	-0.381440	0.465928
O18	O	2.228724	0.118560	0.965928
O19	O	1.571380	-0.181271	0.582277
O20	O	2.071380	0.318729	1.082277
O21	O	1.434879	-0.295201	0.290117
O22	O	1.934879	0.204799	0.790117
O23	O	1.264609	-0.295154	0.460422
O24	O	1.764609	0.204846	0.960422
O25	O	1.429444	-0.381356	0.765271
O26	O	1.929444	0.118644	1.265271
O27	O	1.259071	-0.381393	0.594938
O28	O	1.759071	0.118607	1.094938
O29	O	1.564071	-0.295090	0.759813
O30	O	2.064071	0.204910	1.259813
O31	O	1.551042	-0.495295	0.473132
O32	O	2.051042	0.004705	0.973132
O33	O	1.422032	-0.495259	0.602169
O34	O	1.922032	0.004741	1.102169
C35	C	1.223720	-0.338272	0.527678
C36	C	1.723720	0.161728	1.027678
C37	C	1.106942	-0.338286	0.527694
C38	C	1.606942	0.161714	1.027694
C39	C	1.049220	-0.383259	0.597636
C40	C	1.549220	0.116741	1.097636
C41	C	0.939495	-0.383261	0.597657
C42	C	1.439495	0.116739	1.097657
C43	C	0.945226	-0.293316	0.457786
C44	C	1.445226	0.206684	0.957786
C45	C	1.054948	-0.293311	0.457771
C46	C	1.554948	0.206689	0.957771
C47	C	1.484918	-0.520761	0.539289
C48	C	1.984918	-0.020761	1.039289
C49	C	1.479980	-0.598827	0.544282
C50	C	1.979980	-0.098827	1.044282
C51	C	1.544881	-0.635498	0.479500
C52	C	2.044881	-0.135498	0.979500
C53	C	1.540243	-0.708849	0.484203
C54	C	2.040243	-0.208849	0.984203
C55	C	1.470697	-0.745528	0.553682
C56	C	1.970697	-0.245528	1.053682
C57	C	1.405794	-0.708852	0.618471
C58	C	1.905794	-0.208852	1.118471
C59	C	1.410438	-0.635502	0.613773
C60	C	1.910438	-0.135502	1.113773
C61	C	1.453316	-0.966997	0.571229
C62	C	1.953316	-0.466997	1.071229
C63	C	1.448675	-1.040352	0.575920
C64	C	1.948675	-0.540352	1.075920
C65	C	1.583126	-1.040344	0.441653
C66	C	2.083126	-0.540344	0.941653
C67	C	1.587759	-0.966993	0.436957
C68	C	2.087759	-0.466993	0.936957
C69	C	1.522860	-0.930323	0.501749
C70	C	2.022860	-0.430323	1.001749
C71	C	1.465952	-0.820504	0.558488
C72	C	1.965952	-0.320504	1.058488
C73	C	1.527611	-0.855348	0.496948
C74	C	2.027611	-0.355348	0.996948
C75	C	1.770719	-0.338290	0.527721
C76	C	2.270719	0.161710	1.027721
C77	C	1.887495	-0.338294	0.527731
C78	C	2.387495	0.161706	1.027731
C79	C	1.496769	-0.338214	0.801728
C80	C	1.996769	0.161786	1.301728
C81	C	1.496805	-0.338185	0.918503
C82	C	1.996805	0.161815	1.418503
C83	C	1.508529	-0.155088	0.516087
C84	C	2.008529	0.344912	1.016087
C85	C	1.513576	-0.077023	0.511139
C86	C	2.013576	0.422977	1.011139
C87	C	1.496667	-0.338298	0.254733
C88	C	1.996667	0.161702	0.754733
C89	C	1.496848	-0.338128	0.137946
C90	C	1.996848	0.161872	0.637946
C91	C	1.566910	-0.293259	0.970524
C92	C	2.066910	0.206741	1.470524
C93	C	1.566930	-0.293229	1.080246
C94	C	2.066930	0.206771	1.580246
C95	C	1.426735	-0.383056	1.085917
C96	C	1.926735	0.116944	1.585917
C97	C	1.426711	-0.383083	0.976196
C98	C	1.926711	0.116917	1.476196
H99	H	0.902879	-0.256700	0.400855
H100	H	1.402879	0.243300	0.900855
H101	H	1.091550	-0.419879	0.654575
H102	H	1.591550	0.080121	1.154575
O103	O	1.358802	-0.426746	1.142016
O104	O	1.858802	0.073254	1.642016
C105	C	1.415697	-0.472086	1.208384
C106	C	1.915697	0.027914	1.708384
H107	H	1.498155	-0.476436	1.175606
H108	H	1.998155	0.023564	1.675606
H109	H	1.374203	-0.526134	1.213049
H110	H	1.874203	-0.026134	1.713049
H111	H	1.420741	-0.450350	1.290164
H112	H	1.920741	0.049650	1.790164
O113	O	0.883306	-0.426984	0.665452
O114	O	1.383306	0.073016	1.165452
C115	C	0.816902	-0.472312	0.608411
C116	C	1.316902	0.027688	1.108411
H117	H	0.802022	-0.447475	0.527280
H118	H	1.302022	0.052525	1.027280
H119	H	0.739160	-0.481763	0.651797
H120	H	1.239160	0.018237	1.151797
H121	H	0.855827	-0.524349	0.600033
H122	H	1.355827	-0.024349	1.100033
O123	O	1.358570	-0.426794	0.925823
O124	O	1.858570	0.073206	1.425823
C125	C	1.296698	-0.466409	1.000269
C126	C	1.796698	0.033591	1.500269
H127	H	1.339588	-0.468827	1.078645
H128	H	1.839588	0.031173	1.578645
H129	H	1.281906	-0.521752	0.972068
H130	H	1.781906	-0.021752	1.472068
H131	H	1.218572	-0.440682	1.010294
H132	H	1.718572	0.059318	1.510294
O133	O	1.634928	-0.249608	1.130943
O134	O	2.134928	0.250392	1.630943
C135	C	1.619937	-0.259219	1.240158
C136	C	2.119937	0.240781	1.740158
H137	H	1.537373	-0.282215	1.256587
H138	H	2.037373	0.217785	1.756587
H139	H	1.630469	-0.206598	1.278518
H140	H	2.130469	0.293402	1.778518
H141	H	1.679843	-0.296612	1.273683
H142	H	2.179843	0.203388	1.773683
H143	H	1.101948	-0.256684	0.400816
H144	H	1.601948	0.243316	0.900816
H145	H	1.601508	-0.605639	0.422919
H146	H	2.101508	-0.105639	0.922919
O147	O	1.595015	-0.819690	0.429343
O148	O	2.095015	-0.319690	0.929343
C149	C	1.537907	-0.777318	0.358748
C150	C	2.037907	-0.277318	0.858748
H151	H	1.453763	-0.799477	0.353609
H152	H	1.953763	-0.299477	0.853609
H153	H	1.575991	-0.776500	0.277872
H154	H	2.075991	-0.276500	0.777872
H155	H	1.537786	-0.721714	0.387677
H156	H	2.037786	-0.221714	0.887677
H157	H	1.409326	-0.850376	0.615056
H158	H	1.909326	-0.350376	1.115056
O159	O	1.603325	-0.744362	0.421165
O160	O	2.103325	-0.244362	0.921165
C161	C	1.665715	-0.696260	0.358847
C162	C	2.165715	-0.196260	0.858847
H163	H	1.625990	-0.644001	0.351827
H164	H	2.125990	-0.144001	0.851827
H165	H	1.675617	-0.717491	0.277438
H166	H	2.175617	-0.217491	0.777438
H167	H	1.745989	-0.688391	0.396882
H168	H	2.245989	-0.188391	0.896882
H169	H	1.644389	-0.937130	0.380382
H170	H	2.144389	-0.437130	0.880382
H171	H	1.635965	-1.070208	0.388904
H172	H	2.135965	-0.570208	0.888904
H173	H	1.392055	-1.070214	0.632517
H174	H	1.892055	-0.570214	1.132517
H175	H	1.400470	-0.937146	0.623984
H176	H	1.900470	-0.437146	1.123984
H177	H	1.349173	-0.738721	0.675047
H178	H	1.849173	-0.238721	1.175047
H179	H	1.357590	-0.605645	0.666526
H180	H	1.857590	-0.105645	1.166526
O181	O	1.635027	-0.249576	0.914638
O182	O	2.135027	0.250424	1.414638
C183	C	1.696924	-0.209929	0.984088
C184	C	2.196924	0.290071	1.484088
H185	H	1.654064	-0.207478	1.062139
H186	H	2.154064	0.292522	1.562139
H187	H	1.711701	-0.154599	0.948883
H188	H	2.211701	0.345401	1.448883
H189	H	1.775057	-0.235648	0.997401
H190	H	2.275057	0.264352	1.497401
