data_functionalizedCrystal
_audit_creation_method	'MofGen! by Chris Wilmer'
_symmetry_space_group_name_H-M	'P1'
_symmetry_Int_Tables_number	1
_symmetry_cell_setting	triclinic
loop_
_symmetry_equiv_pos_as_xyz
  x,y,z
_cell_length_a	14.044191
_cell_length_b	14.044220
_cell_length_c	14.048226
_cell_angle_alpha	89.992807
_cell_angle_beta	89.996146
_cell_angle_gamma	93.190327
loop_
_atom_site_label
_atom_site_type_symbol
_atom_site_fract_x
_atom_site_fract_y
_atom_site_fract_z
O1	O	1.277175	0.230202	-0.079119
O2	O	1.777175	0.730202	0.420881
O3	O	1.000503	0.221889	-0.079131
O4	O	1.500503	0.721889	0.420869
O5	O	1.134686	0.087710	-0.079116
O6	O	1.634686	0.587710	0.420884
O7	O	1.142992	0.364382	-0.079134
O8	O	1.642992	0.864382	0.420866
O9	O	1.134668	0.087700	0.079206
O10	O	1.634668	0.587700	0.579206
O11	O	1.000484	0.221879	0.079191
O12	O	1.500484	0.721879	0.579191
O13	O	1.277157	0.230192	0.079202
O14	O	1.777157	0.730192	0.579202
Zn15	Zn	1.138818	0.226034	0.104333
Zn16	Zn	1.638818	0.726034	0.604333
Zn17	Zn	1.138842	0.226047	-0.104262
Zn18	Zn	1.638842	0.726047	0.395738
O19	O	1.142973	0.364372	0.079187
O20	O	1.642973	0.864372	0.579187
C21	C	0.964872	0.218248	0.000029
C22	C	1.464872	0.718248	0.500029
C23	C	0.858728	0.207401	0.000024
C24	C	1.358728	0.707401	0.500024
C25	C	1.131041	0.052083	0.000045
C26	C	1.631041	0.552083	0.500045
C27	C	1.120197	-0.054060	0.000046
C28	C	1.620197	0.445940	0.500046
C29	C	0.613270	0.264501	0.000030
C30	C	1.113270	0.764501	0.500030
C31	C	0.664395	0.187585	0.000033
C32	C	1.164395	0.687585	0.500033
C33	C	0.772532	0.198613	0.000028
C34	C	1.272532	0.698613	0.500028
C35	C	0.505123	0.253474	0.000035
C36	C	1.005123	0.753474	0.500035
C37	C	1.100370	-0.248398	0.000032
C38	C	1.600370	0.251602	0.500032
C39	C	1.177285	-0.299526	0.000032
C40	C	1.677285	0.200474	0.500032
C41	C	1.166253	-0.407663	0.000024
C42	C	1.666253	0.092337	0.500024
C43	C	1.111400	-0.140252	0.000040
C44	C	1.611400	0.359748	0.500040
C45	C	1.312788	0.233834	0.000041
C46	C	1.812788	0.733834	0.500041
C47	C	1.418931	0.244681	0.000039
C48	C	1.918931	0.744681	0.500039
C49	C	1.146618	0.399998	0.000024
C50	C	1.646618	0.899998	0.500024
C51	C	1.157463	0.506142	0.000017
C52	C	1.657463	1.006142	0.500017
N53	N	1.138808	0.226025	0.246694
N54	N	1.638808	0.726025	0.746694
N55	N	1.138858	0.226050	-0.246622
N56	N	1.638858	0.726050	0.253378
C57	C	1.198247	0.166639	0.296519
C58	C	1.698247	0.666639	0.796519
C59	C	1.198254	0.166639	0.396177
C60	C	1.698254	0.666639	0.896177
C61	C	1.138825	0.226031	0.446008
C62	C	1.638825	0.726031	0.946008
C63	C	1.079379	0.285419	0.396176
C64	C	1.579379	0.785419	0.896176
C65	C	1.079369	0.285414	0.296520
C66	C	1.579369	0.785414	0.796520
C67	C	1.079408	0.285429	0.603890
C68	C	1.579408	0.785429	1.103890
C69	C	1.079419	0.285436	0.703553
C70	C	1.579419	0.785436	1.203553
C71	C	1.198292	0.166654	0.703547
C72	C	1.698292	0.666654	1.203547
C73	C	1.198282	0.166648	0.603891
C74	C	1.698282	0.666648	1.103891
C75	C	1.138837	0.226038	0.554066
C76	C	1.638837	0.726038	1.054066
H77	H	0.626952	0.113452	-0.000029
H78	H	1.126952	0.613452	0.499971
C79	C	0.663846	0.364641	0.000009
C80	C	1.163846	0.864641	0.500009
H81	H	0.730945	0.359008	-0.000003
H82	H	1.230945	0.859008	0.499997
H83	H	0.645908	0.398352	0.055212
H84	H	1.145908	0.898352	0.555212
H85	H	0.645906	0.398337	-0.055215
H86	H	1.145906	0.898337	0.444785
C87	C	1.000229	-0.298971	0.000035
C88	C	1.500229	0.201029	0.500035
H89	H	1.005860	-0.366070	0.000040
H90	H	1.505860	0.133930	0.500040
H91	H	0.966522	-0.281023	-0.055170
H92	H	1.466522	0.218977	0.444830
H93	H	0.966529	-0.281039	0.055257
H94	H	1.466529	0.218961	0.555257
C95	C	1.277434	-0.248953	0.000057
C96	C	1.777434	0.251047	0.500057
H97	H	1.271809	-0.181854	0.000073
H98	H	1.771809	0.318146	0.500073
H99	H	1.311156	-0.266881	-0.055146
H100	H	1.811156	0.233119	0.444854
H101	H	1.311114	-0.266912	0.055282
H102	H	1.811114	0.233088	0.555282
C103	C	1.263618	0.101305	0.241713
C104	C	1.763618	0.601305	0.741713
H105	H	1.299011	0.065931	0.285664
H106	H	1.799011	0.565931	0.785664
H107	H	1.306259	0.139027	0.202822
H108	H	1.806259	0.639027	0.702822
H109	H	1.225904	0.058632	0.202854
H110	H	1.725904	0.558632	0.702854
C111	C	1.263646	0.101324	0.450980
C112	C	1.763646	0.601324	0.950980
H113	H	1.299048	0.065963	0.407029
H114	H	1.799048	0.565963	0.907029
H115	H	1.225959	0.058653	0.489872
H116	H	1.725959	0.558653	0.989872
H117	H	1.306293	0.139068	0.489838
H118	H	1.806293	0.639068	0.989838
H119	H	1.246677	0.118292	0.563319
H120	H	1.746677	0.618292	1.063319
H121	H	1.030966	0.333771	0.255954
H122	H	1.530966	0.833771	0.755954
C123	C	1.263672	0.101318	0.758349
C124	C	1.763672	0.601318	1.258349
H125	H	1.255160	0.109815	0.824838
H126	H	1.755160	0.609815	1.324838
H127	H	1.328264	0.117111	0.742008
H128	H	1.828264	0.617111	1.242008
H129	H	1.247911	0.036714	0.742026
H130	H	1.747911	0.536714	1.242026
C131	C	1.013984	0.350699	0.758366
C132	C	1.513984	0.850699	1.258366
H133	H	0.978551	0.386041	0.714421
H134	H	1.478551	0.886041	1.214421
H135	H	1.051632	0.393389	0.797258
H136	H	1.551632	0.893389	1.297258
H137	H	0.971367	0.312905	0.797225
H138	H	1.471367	0.812905	1.297225
H139	H	1.030998	0.333787	0.563326
H140	H	1.530998	0.833787	1.063326
H141	H	1.030987	0.333774	0.436754
H142	H	1.530987	0.833774	0.936754
