data_functionalizedCrystal
_audit_creation_method	'MofGen! by Chris Wilmer'
_symmetry_space_group_name_H-M	'P1'
_symmetry_Int_Tables_number	1
_symmetry_cell_setting	triclinic
loop_
_symmetry_equiv_pos_as_xyz
  x,y,z
_cell_length_a	21.295411
_cell_length_b	11.169417
_cell_length_c	21.295418
_cell_angle_alpha	89.970735
_cell_angle_beta	89.982512
_cell_angle_gamma	90.021194
loop_
_atom_site_label
_atom_site_type_symbol
_atom_site_fract_x
_atom_site_fract_y
_atom_site_fract_z
Zn1	Zn	-0.355873	-1.834828	-0.250666
Zn2	Zn	0.144127	-1.334828	0.249334
Zn3	Zn	-0.250606	-1.834649	-0.355918
Zn4	Zn	0.249394	-1.334649	0.144082
Zn5	Zn	-0.250624	-1.634109	-0.250668
Zn6	Zn	0.249376	-1.134109	0.249332
Zn7	Zn	-0.355844	-1.634058	-0.355903
Zn8	Zn	0.144156	-1.134058	0.144097
O9	O	-0.303237	-1.734411	-0.303289
O10	O	0.196763	-1.234411	0.196711
O11	O	-0.341914	-2.002754	-0.264633
O12	O	0.158086	-1.502754	0.235367
O13	O	-0.162519	-1.807994	-0.341964
O14	O	0.337481	-1.307994	0.158036
O15	O	-0.264606	-1.660831	-0.162579
O16	O	0.235394	-1.160831	0.337421
O17	O	-0.264575	-2.002623	-0.341962
O18	O	0.235425	-1.502623	0.158038
O19	O	-0.341931	-1.808298	-0.162577
O20	O	0.158069	-1.308298	0.337423
O21	O	-0.162532	-1.660658	-0.264637
O22	O	0.337468	-1.160658	0.235363
O23	O	-0.264577	-1.466153	-0.264622
O24	O	0.235423	-0.966153	0.235378
O25	O	-0.443937	-1.660744	-0.341936
O26	O	0.056063	-1.160744	0.158064
O27	O	-0.341882	-1.466115	-0.341938
O28	O	0.158118	-0.966115	0.158062
O29	O	-0.443959	-1.808249	-0.264619
O30	O	0.056041	-1.308249	0.235381
O31	O	-0.264546	-1.807944	-0.444005
O32	O	0.235454	-1.307944	0.055995
O33	O	-0.341864	-1.660571	-0.443994
O34	O	0.158136	-1.160571	0.056006
C35	C	-0.303229	-1.422586	-0.303279
C36	C	0.196771	-0.922586	0.196721
C37	C	-0.303240	-1.289186	-0.303290
C38	C	0.196760	-0.789186	0.196710
C39	C	-0.467427	-1.734511	-0.303276
C40	C	0.032573	-1.234511	0.196724
C41	C	-0.537395	-1.734553	-0.303270
C42	C	-0.037395	-1.234553	0.196730
C43	C	-0.303214	-1.734265	-0.466841
C44	C	0.196786	-1.234265	0.033159
C45	C	-0.303225	-1.734313	-0.536809
C46	C	0.196775	-1.234313	-0.036809
C47	C	-0.570274	-1.811356	-0.263009
C48	C	-0.070274	-1.311356	0.236991
C49	C	-0.636017	-1.811354	-0.262982
C50	C	-0.136017	-1.311354	0.237018
C51	C	-0.668878	-1.734562	-0.303227
C52	C	-0.168878	-1.234562	0.196773
C53	C	-0.635991	-1.657745	-0.343490
C54	C	-0.135991	-1.157745	0.156510
C55	C	-0.570250	-1.657740	-0.343512
C56	C	-0.070250	-1.157740	0.156488
N57	N	-0.772098	-1.725307	-0.358294
N58	N	-0.272098	-1.225307	0.141706
N59	N	-0.834549	-1.725318	-0.358272
N60	N	-0.334549	-1.225318	0.141728
C61	C	-0.866953	-1.734570	-0.303163
C62	C	-0.366953	-1.234570	0.196837
N63	N	-0.834546	-1.743834	-0.248075
N64	N	-0.334546	-1.243834	0.251925
N65	N	-0.772088	-1.743828	-0.248099
N66	N	-0.272088	-1.243828	0.251901
C67	C	-0.740163	-1.734558	-0.303207
C68	C	-0.240163	-1.234558	0.196793
C69	C	-0.971117	-1.811375	-0.262869
C70	C	-0.471117	-1.311375	0.237131
C71	C	-1.036861	-1.811365	-0.262841
C72	C	-0.536861	-1.311365	0.237159
C73	C	-1.036834	-1.657762	-0.343355
C74	C	-0.536834	-1.157762	0.156645
C75	C	-0.971092	-1.657766	-0.343377
C76	C	-0.471092	-1.157766	0.156623
C77	C	-0.938237	-1.734579	-0.303135
C78	C	-0.438237	-1.234579	0.196865
C79	C	-0.139685	-1.734381	-0.303257
C80	C	0.360315	-1.234381	0.196743
C81	C	-0.069718	-1.734571	-0.303085
C82	C	0.430282	-1.234571	0.196915
C83	C	-0.303245	-2.047453	-0.303299
C84	C	0.196755	-1.547453	0.196701
C85	C	-0.303249	-2.180853	-0.303303
C86	C	0.196751	-1.680853	0.196697
C87	C	-0.343581	-1.811347	-1.036212
C88	C	0.156419	-1.311347	-0.536212
C89	C	-0.343571	-1.811312	-0.970470
C90	C	0.156429	-1.311312	-0.470470
C91	C	-0.303276	-1.734575	-0.937648
C92	C	0.196724	-1.234575	-0.437648
C93	C	-0.262977	-1.657889	-0.970574
C94	C	0.237023	-1.157889	-0.470574
C95	C	-0.262983	-1.657935	-1.036315
C96	C	0.237017	-1.157935	-0.536315
N97	N	-0.298389	-1.629451	-0.834478
N98	N	0.201611	-1.129451	-0.334478
N99	N	-0.298386	-1.629411	-0.772027
N100	N	0.201614	-1.129411	-0.272027
C101	C	-0.303253	-1.734434	-0.739573
C102	C	0.196747	-1.234434	-0.239573
N103	N	-0.308134	-1.839501	-0.771930
N104	N	0.191866	-1.339501	-0.271930
N105	N	-0.308140	-1.839539	-0.834387
N106	N	0.191860	-1.339539	-0.334387
C107	C	-0.303264	-1.734517	-0.866363
C108	C	0.196736	-1.234517	-0.366363
C109	C	-0.343536	-1.811082	-0.635370
C110	C	0.156464	-1.311082	-0.135370
C111	C	-0.343521	-1.811049	-0.569626
C112	C	0.156479	-1.311049	-0.069626
C113	C	-0.262930	-1.657616	-0.569731
C114	C	0.237070	-1.157616	-0.069731
C115	C	-0.262941	-1.657660	-0.635474
C116	C	0.237059	-1.157660	-0.135474
C117	C	-0.303247	-1.734391	-0.668289
C118	C	0.196753	-1.234391	-0.168289
C119	C	-0.303274	-1.734590	-0.139099
C120	C	0.196726	-1.234590	0.360901
C121	C	-0.303289	-1.734666	-0.069130
C122	C	0.196711	-1.234666	0.430870
H123	H	-0.543528	-1.873901	-0.230240
H124	H	-0.043528	-1.373901	0.269760
H125	H	-0.944321	-1.595232	-0.376166
H126	H	-0.444321	-1.095232	0.123834
H127	H	-0.376397	-1.873837	-1.062927
H128	H	0.123603	-1.373837	-0.562927
Br129	Br	-0.398255	-1.915388	-0.925785
Br130	Br	0.101745	-1.415388	-0.425785
H131	H	-0.662792	-1.873893	-0.230193
H132	H	-0.162792	-1.373893	0.269807
Br133	Br	-0.208235	-1.553485	-0.525194
Br134	Br	0.291765	-1.053485	-0.025194
Br135	Br	-0.398203	-1.915135	-0.524950
Br136	Br	0.101797	-1.415135	-0.024950
Br137	Br	-0.208259	-1.553582	-0.680151
Br138	Br	0.291741	-1.053582	-0.180151
Br139	Br	-0.398229	-1.915227	-0.679909
Br140	Br	0.101771	-1.415227	-0.179909
Br141	Br	-1.081424	-1.553528	-0.397966
Br142	Br	-0.581424	-1.053528	0.102034
H143	H	-0.662751	-1.595217	-0.376256
H144	H	-0.162751	-1.095217	0.123744
H145	H	-0.230167	-1.595410	-0.943847
H146	H	0.269833	-1.095410	-0.443847
Br147	Br	-0.525625	-1.553498	-0.398155
Br148	Br	-0.025625	-1.053498	0.101845
Br149	Br	-0.926525	-1.915613	-0.208254
Br150	Br	-0.426525	-1.415613	0.291746
H151	H	-1.063630	-1.873905	-0.230052
H152	H	-0.563630	-1.373905	0.269948
Br153	Br	-0.208297	-1.553861	-1.080993
Br154	Br	0.291703	-1.053861	-0.580993
