data_functionalizedCrystal
_audit_creation_method	'MofGen! by Chris Wilmer'
_symmetry_space_group_name_H-M	'P1'
_symmetry_Int_Tables_number	1
_symmetry_cell_setting	triclinic
loop_
_symmetry_equiv_pos_as_xyz
  x,y,z
_cell_length_a	6.817900
_cell_length_b	11.102233
_cell_length_c	11.102182
_cell_angle_alpha	91.951203
_cell_angle_beta	108.603774
_cell_angle_gamma	108.604738
loop_
_atom_site_label
_atom_site_type_symbol
_atom_site_fract_x
_atom_site_fract_y
_atom_site_fract_z
V1	V	-4.111511	-0.175853	-0.396262
O2	O	-4.070547	0.008437	-0.388714
O3	O	-4.088286	-0.348674	-0.393557
O4	O	-4.088285	-0.173154	-0.569084
O5	O	-4.070548	-0.168298	-0.211972
V6	V	-4.588615	-0.153809	-0.374219
O7	O	-4.386850	-0.224208	-0.444616
O8	O	-4.763473	-0.105454	-0.325866
O9	O	-4.388634	0.019012	-0.376925
O10	O	-4.746977	-0.338099	-0.381767
O11	O	-4.746976	-0.161364	-0.558509
O12	O	-4.388635	-0.156508	-0.201398
C13	C	-3.938597	-0.390803	-0.387307
C14	C	-4.001062	-0.532087	-0.386246
C15	C	-3.905082	-0.724741	-0.378395
C16	C	-3.846394	-0.591992	-0.379403
C17	C	-4.214441	-0.604939	-0.392096
C18	C	-4.273130	-0.737687	-0.391097
C19	C	-3.692589	-0.717265	-0.371061
C20	C	-3.633901	-0.584516	-0.372069
C21	C	-3.938594	-0.166909	-0.611207
C22	C	-4.001054	-0.165846	-0.752490
C23	C	-4.090566	-0.281725	-0.837029
C24	C	-4.149270	-0.280710	-0.969777
C25	C	-4.028930	-0.047926	-0.933434
C26	C	-3.970243	-0.048942	-0.800689
C27	C	-4.160035	-0.416121	-0.858011
C28	C	-4.218738	-0.415106	-0.990760
C29	C	-4.201666	0.061135	-0.383171
C30	C	-4.118440	0.202417	-0.384240
C31	C	-4.201668	-0.162757	-0.159267
C32	C	-4.118445	-0.163814	-0.017983
H33	H	-3.597209	-0.741740	-0.276288
Br34	Br	-3.394391	-0.496441	-0.218914
Br35	Br	-3.848703	0.108331	-0.685958
Br36	Br	-4.413392	-0.510709	-0.819658
Br37	Br	-3.987127	0.110721	-0.998857
Br38	Br	-3.922698	-0.477777	-0.791687
H39	H	-4.404263	-0.461522	-1.043563
H40	H	-4.446871	-0.796993	-0.395873
Br41	Br	-4.424364	-0.523643	-0.401405
H42	H	-3.597422	-0.555407	-0.462301
H43	H	-3.673113	-0.764357	-0.457327
Br44	Br	-4.054303	-0.492526	-1.055974
