data_functionalizedCrystal
_audit_creation_method	'MofGen! by Chris Wilmer'
_symmetry_space_group_name_H-M	'P1'
_symmetry_Int_Tables_number	1
_symmetry_cell_setting	triclinic
loop_
_symmetry_equiv_pos_as_xyz
  x,y,z
_cell_length_a	21.395364
_cell_length_b	18.101397
_cell_length_c	21.395355
_cell_angle_alpha	89.980066
_cell_angle_beta	89.975484
_cell_angle_gamma	90.016230
loop_
_atom_site_label
_atom_site_type_symbol
_atom_site_fract_x
_atom_site_fract_y
_atom_site_fract_z
Zn1	Zn	0.957904	-0.294999	-0.354255
Zn2	Zn	0.957825	-0.418822	-0.249475
Zn3	Zn	0.853119	-0.294990	-0.249491
Zn4	Zn	0.853107	-0.418794	-0.354215
O5	O	0.905488	-0.356901	-0.301859
O6	O	1.045571	-0.311440	-0.340365
O7	O	0.943907	-0.402404	-0.161799
O8	O	0.867057	-0.191358	-0.263412
O9	O	1.045513	-0.402412	-0.263383
O10	O	0.944042	-0.191365	-0.340381
O11	O	0.866980	-0.311425	-0.161811
O12	O	0.765439	-0.311397	-0.263374
O13	O	0.867036	-0.402364	-0.441898
O14	O	0.765430	-0.402356	-0.340313
O15	O	0.944030	-0.311413	-0.441927
O16	O	0.943896	-0.522451	-0.263345
O17	O	0.866960	-0.522431	-0.340297
C18	C	0.742701	-0.356873	-0.301841
C19	C	0.673060	-0.356879	-0.301849
C20	C	0.171293	-0.309644	-0.342017
C21	C	0.236728	-0.309638	-0.342017
C22	C	0.269421	-0.356924	-0.301873
C23	C	0.236673	-0.404232	-0.261737
C24	C	0.171239	-0.404242	-0.261743
C25	C	0.373059	-0.362659	-0.245406
C26	C	0.438492	-0.362644	-0.245399
C27	C	0.471242	-0.356899	-0.301856
C28	C	0.438551	-0.351154	-0.358321
C29	C	0.373117	-0.351163	-0.358327
C30	C	0.340374	-0.356919	-0.301863
C31	C	0.574935	-0.309592	-0.341992
C32	C	0.640371	-0.309592	-0.341993
C33	C	0.640315	-0.404182	-0.261707
C34	C	0.574880	-0.404186	-0.261712
C35	C	0.542193	-0.356887	-0.301853
C36	C	0.905435	-0.549312	-0.301828
C37	C	0.905469	-0.631626	-0.301836
C38	C	0.905549	-0.930717	-0.301894
C39	C	0.953820	-0.899374	-0.253348
C40	C	0.953987	-0.813755	-0.253473
C41	C	0.905510	-0.782334	-0.301865
C42	C	0.923415	-0.813358	-0.367907
C43	C	0.923788	-0.899003	-0.367643
C44	C	0.839244	-0.899216	-0.284968
C45	C	0.839571	-0.813567	-0.283494
C46	C	0.905486	-0.698475	-0.301852
C47	C	0.905574	-1.014576	-0.301910
C48	C	1.068912	-0.356930	-0.301877
C49	C	1.138553	-0.356943	-0.301884
C50	C	0.905540	-0.356886	-0.465282
C51	C	0.905563	-0.356880	-0.534923
C52	C	0.905559	-0.163739	-0.301903
C53	C	0.905589	-0.081425	-0.301922
C54	C	0.945652	-0.309519	-0.567653
C55	C	0.945651	-0.309488	-0.633088
C56	C	0.905567	-0.356830	-0.665792
C57	C	0.865471	-0.404193	-0.633055
C58	C	0.865468	-0.404219	-0.567620
C59	C	0.900602	-0.423510	-0.769456
C60	C	0.900608	-0.423487	-0.834889
C61	C	0.905571	-0.356751	-0.867613
C62	C	0.910541	-0.290038	-0.834895
C63	C	0.910538	-0.290063	-0.769461
C64	C	0.905565	-0.356807	-0.736744
C65	C	0.945662	-0.309352	-0.971295
C66	C	0.945656	-0.309319	-1.036731
C67	C	0.865479	-0.404032	-1.036696
C68	C	0.865481	-0.404058	-0.971261
C69	C	0.905576	-0.356719	-0.938564
C70	C	0.905473	-0.356863	-0.139071
C71	C	0.905572	-0.356661	-0.069430
H72	H	0.346503	-0.346487	-0.404303
F73	F	0.675215	-0.259252	-0.384714
F74	F	1.018184	-0.786909	-0.268113
F75	F	0.915823	-0.219064	-0.734643
H76	H	1.002667	-0.920849	-0.264417
F77	F	0.822809	-0.454576	-0.667861
F78	F	0.987137	-0.925050	-0.386381
F79	F	0.988334	-0.258917	-1.071564
F80	F	0.790031	-0.785620	-0.326325
F81	F	0.792234	-0.925712	-0.331182
F82	F	0.675105	-0.454512	-0.218987
F83	F	0.817954	-0.927513	-0.223114
F84	F	0.988321	-0.259134	-0.532858
H85	H	0.465215	-0.346472	-0.404293
H86	H	0.346399	-0.367340	-0.199429
F87	F	0.271468	-0.454559	-0.219015
F88	F	0.271580	-0.259293	-0.384733
H89	H	0.548320	-0.271078	-0.374677
H90	H	0.826071	-0.793296	-0.234892
H91	H	0.465103	-0.367318	-0.199421
F92	F	0.136509	-0.259309	-0.384743
F93	F	0.540034	-0.454519	-0.218988
H94	H	0.978295	-0.270917	-0.659742
F95	F	0.136394	-0.454584	-0.219024
H96	H	0.896566	-0.477809	-0.861522
F97	F	0.879824	-0.926103	-0.416528
F98	F	0.878863	-0.786762	-0.416457
H99	H	0.942785	-0.792782	-0.204504
H100	H	0.914583	-0.235696	-0.861538
F101	F	0.822798	-0.454628	-0.532786
F102	F	0.939359	-0.926344	-0.189148
F103	F	0.986055	-0.785258	-0.386965
F104	F	0.988330	-0.258968	-0.936494
H105	H	0.832836	-0.442571	-1.063323
F106	F	0.822815	-0.454469	-0.936427
H107	H	0.896393	-0.477840	-0.742818
