data_functionalizedCrystal
_audit_creation_method	'MofGen! by Chris Wilmer'
_symmetry_space_group_name_H-M	'P1'
_symmetry_Int_Tables_number	1
_symmetry_cell_setting	triclinic
loop_
_symmetry_equiv_pos_as_xyz
  x,y,z
_cell_length_a	10.489741
_cell_length_b	10.723024
_cell_length_c	9.198806
_cell_angle_alpha	90.002012
_cell_angle_beta	90.001259
_cell_angle_gamma	84.503522
loop_
_atom_site_label
_atom_site_type_symbol
_atom_site_fract_x
_atom_site_fract_y
_atom_site_fract_z
O1	O	-1.693940	-0.176060	-0.120798
O2	O	-1.193940	0.323940	0.379202
O3	O	-1.322734	-0.192587	-0.120821
O4	O	-0.822734	0.307413	0.379179
O5	O	-1.516900	-0.002753	-0.120804
O6	O	-1.016900	0.497247	0.379196
O7	O	-1.499775	-0.365895	-0.120816
O8	O	-0.999775	0.134105	0.379184
O9	O	-1.516884	-0.002752	0.120981
O10	O	-1.016884	0.497248	0.620981
O11	O	-1.322719	-0.192586	0.120964
O12	O	-0.822719	0.307414	0.620964
O13	O	-1.693925	-0.176060	0.120987
O14	O	-1.193925	0.323940	0.620987
Cu15	Cu	-1.508320	-0.184323	0.143052
Cu16	Cu	-1.008320	0.315677	0.643052
Cu17	Cu	-1.508339	-0.184324	-0.142887
Cu18	Cu	-1.008339	0.315676	0.357113
O19	O	-1.499759	-0.365894	0.120970
O20	O	-0.999759	0.134106	0.620970
C21	C	-1.275196	-0.191338	0.000069
C22	C	-0.775196	0.308662	0.500069
C23	C	-1.133569	-0.187604	0.000060
C24	C	-0.633569	0.312396	0.500060
C25	C	-1.515646	0.043748	0.000087
C26	C	-1.015646	0.543748	0.500087
C27	C	-1.511917	0.182305	0.000082
C28	C	-1.011917	0.682305	0.500082
C29	C	-1.741464	-0.177308	0.000094
C30	C	-1.241464	0.322692	0.500094
C31	C	-1.883091	-0.181043	0.000093
C32	C	-1.383091	0.318957	0.500093
C33	C	-1.065506	-0.066818	0.000078
C34	C	-0.565506	0.433182	0.500078
C35	C	-0.973350	-0.123876	-0.119133
C36	C	-0.473350	0.376124	0.380867
C37	C	-0.973369	-0.123905	0.119248
C38	C	-0.473369	0.376095	0.619248
C39	C	-1.043278	-0.244712	-0.119250
C40	C	-0.543278	0.255288	0.380750
C41	C	-1.043306	-0.244723	0.119239
C42	C	-0.543306	0.255277	0.619239
C43	C	-0.951178	-0.301869	-0.000002
C44	C	-0.451178	0.198131	0.499998
C45	C	-1.501013	-0.412395	0.000076
C46	C	-1.001013	0.087605	0.500076
C47	C	-1.504742	-0.550951	0.000071
C48	C	-1.004742	-0.050951	0.500071
N49	N	-1.508317	-0.184322	0.344166
N50	N	-1.008317	0.315678	0.844166
C51	C	-1.620562	0.257221	0.000086
C52	C	-1.120562	0.757221	0.500086
C53	C	-1.616711	0.400426	0.000081
C54	C	-1.116711	0.900426	0.500081
N55	N	-1.508352	-0.184315	-0.344000
N56	N	-1.008352	0.315685	0.156000
C57	C	-1.589841	-0.104264	0.416370
C58	C	-1.089841	0.395736	0.916370
C59	C	-1.589861	-0.104260	0.583783
C60	C	-1.089861	0.395740	1.083783
H61	H	-1.115259	0.032476	-0.000068
H62	H	-0.615259	0.532476	0.499932
Br63	Br	-1.094992	-0.329839	0.287226
Br64	Br	-0.594992	0.170161	0.787226
H65	H	-1.716428	0.215340	0.000101
H66	H	-1.216428	0.715340	0.500101
H67	H	-1.416051	0.224185	0.000066
H68	H	-0.916051	0.724185	0.500066
H69	H	-0.942375	-0.072769	-0.219917
H70	H	-0.442375	0.427231	0.280083
H71	H	-1.709719	0.464802	0.000091
H72	H	-1.209719	0.964802	0.500091
H73	H	-1.411728	0.384681	0.000077
H74	H	-0.911728	0.884681	0.500077
Br75	Br	-1.705830	0.010292	0.312843
Br76	Br	-1.205830	0.510292	0.812843
H77	H	-1.659662	-0.035724	0.645875
H78	H	-1.159662	0.464276	1.145875
H79	H	-1.438557	-0.252864	0.593916
H80	H	-0.938557	0.247136	1.093916
Br81	Br	-0.868690	-0.467538	-0.000106
Br82	Br	-0.368690	0.032462	0.499894
H83	H	-1.074080	-0.295779	-0.220147
H84	H	-0.574080	0.204221	0.279853
H85	H	-1.438530	-0.252855	0.406288
H86	H	-0.938530	0.247145	0.906288
H87	H	-0.942417	-0.072775	0.220032
H88	H	-0.442417	0.427225	0.720032
