data_functionalizedCrystal
_audit_creation_method	'MofGen! by Chris Wilmer'
_symmetry_space_group_name_H-M	'P1'
_symmetry_Int_Tables_number	1
_symmetry_cell_setting	triclinic
loop_
_symmetry_equiv_pos_as_xyz
  x,y,z
_cell_length_a	14.971486
_cell_length_b	15.944551
_cell_length_c	13.448316
_cell_angle_alpha	89.992444
_cell_angle_beta	89.998199
_cell_angle_gamma	83.556434
loop_
_atom_site_label
_atom_site_type_symbol
_atom_site_fract_x
_atom_site_fract_y
_atom_site_fract_z
O1	O	1.186829	0.109463	-0.082580
O2	O	1.686829	0.609463	0.417420
O3	O	0.926415	0.122572	-0.082607
O4	O	1.426415	0.622572	0.417393
O5	O	1.063733	-0.006250	-0.082584
O6	O	1.563733	0.493750	0.417416
O7	O	1.049511	0.238286	-0.082603
O8	O	1.549511	0.738286	0.417397
O9	O	1.063716	-0.006258	0.082800
O10	O	1.563716	0.493742	0.582800
O11	O	0.926398	0.122564	0.082777
O12	O	1.426398	0.622564	0.582777
O13	O	1.186812	0.109456	0.082804
O14	O	1.686812	0.609456	0.582804
Cu15	Cu	1.056603	0.116009	0.097891
Cu16	Cu	1.556603	0.616009	0.597891
Cu17	Cu	1.056624	0.116018	-0.097694
Cu18	Cu	1.556624	0.616018	0.402306
O19	O	1.049494	0.238278	0.082781
O20	O	1.549494	0.738278	0.582781
C21	C	0.893082	0.121982	0.000081
C22	C	1.393082	0.621982	0.500081
C23	C	0.793787	0.120225	0.000071
C24	C	1.293787	0.620225	0.500071
C25	C	1.063134	-0.037549	0.000108
C26	C	1.563134	0.462451	0.500108
C27	C	1.061364	-0.130797	0.000109
C28	C	1.561364	0.369203	0.500109
C29	C	0.736480	0.195904	0.000067
C30	C	1.236480	0.695904	0.500067
C31	C	0.643182	0.194249	0.000082
C32	C	1.143182	0.694249	0.500082
C33	C	0.607194	0.116913	0.000094
C34	C	1.107194	0.616913	0.500094
C35	C	0.664508	0.041227	0.000102
C36	C	1.164508	0.541227	0.500102
C37	C	0.757804	0.042884	0.000094
C38	C	1.257804	0.542884	0.500094
C39	C	0.470049	0.037780	0.000116
C40	C	0.970049	0.537780	0.500116
C41	C	0.376747	0.036123	0.000122
C42	C	0.876747	0.536123	0.500122
C43	C	0.355428	0.189145	0.000104
C44	C	0.855428	0.689145	0.500104
C45	C	0.448724	0.190801	0.000096
C46	C	0.948724	0.690801	0.500096
C47	C	0.506032	0.115116	0.000101
C48	C	1.006032	0.615116	0.500101
C49	C	0.972017	-0.345738	0.000086
C50	C	1.472017	0.154262	0.500086
C51	C	1.013498	-0.406720	0.081634
C52	C	1.513498	0.093280	0.581634
C53	C	1.058162	-0.301526	0.000101
C54	C	1.558162	0.198474	0.500101
C55	C	1.013536	-0.406696	-0.081421
C56	C	1.513536	0.093304	0.418579
C57	C	1.055062	-0.466441	0.000089
C58	C	1.555062	0.033559	0.500089
C59	C	1.099667	-0.361279	0.081717
C60	C	1.599667	0.138721	0.581717
C61	C	1.099692	-0.361248	-0.081412
C62	C	1.599692	0.138752	0.418588
C63	C	1.141236	-0.422212	0.000156
C64	C	1.641236	0.077788	0.500156
C65	C	1.059945	-0.206522	0.000109
C66	C	1.559945	0.293478	0.500109
C67	C	1.053286	-0.561444	0.000088
C68	C	1.553286	-0.061444	0.500088
C69	C	1.220145	0.110046	0.000113
C70	C	1.720145	0.610046	0.500113
C71	C	1.319440	0.111802	0.000117
C72	C	1.819440	0.611802	0.500117
C73	C	1.050093	0.269576	0.000087
C74	C	1.550093	0.769576	0.500087
C75	C	1.051863	0.362824	0.000080
C76	C	1.551863	0.862824	0.500080
N77	N	1.056595	0.116002	0.235456
N78	N	1.556595	0.616002	0.735456
N79	N	1.056639	0.116019	-0.235258
N80	N	1.556639	0.616019	0.264742
C81	C	1.117419	0.058983	0.287506
C82	C	1.617419	0.558983	0.787506
C83	C	1.117425	0.058982	0.391610
C84	C	1.617425	0.558982	0.891610
C85	C	1.056610	0.116005	0.443660
C86	C	1.556610	0.616005	0.943660
C87	C	0.995780	0.173027	0.391602
C88	C	1.495780	0.673027	0.891602
C89	C	0.995771	0.173023	0.287501
C90	C	1.495771	0.673023	0.787501
C91	C	0.995805	0.173033	0.608582
C92	C	1.495805	0.673033	1.108582
C93	C	0.995815	0.173038	0.712691
C94	C	1.495815	0.673038	1.212691
C95	C	1.117459	0.058992	0.712691
C96	C	1.617459	0.558992	1.212691
C97	C	1.117449	0.058988	0.608590
C98	C	1.617449	0.558988	1.108590
C99	C	1.056620	0.116011	0.556539
C100	C	1.556620	0.616011	1.056539
H101	H	0.765774	0.258881	0.000056
H102	H	1.265774	0.758881	0.500056
H103	H	0.977096	-0.426804	-0.150369
H104	H	1.477096	0.073196	0.349631
O105	O	1.176355	0.003521	0.236862
O106	O	1.676355	0.503521	0.736862
C107	C	1.128417	-0.048387	0.176715
C108	C	1.628417	0.451613	0.676715
H109	H	1.058446	-0.015011	0.161098
H110	H	1.558446	0.484989	0.661098
H111	H	1.165742	-0.061675	0.103518
H112	H	1.665742	0.438325	0.603518
H113	H	1.122299	-0.110449	0.216890
H114	H	1.622299	0.389551	0.716890
H115	H	0.900512	-0.312499	0.000160
H116	H	1.400512	0.187501	0.500160
H117	H	1.166951	0.012552	0.433989
H118	H	1.666951	0.512552	0.933989
O119	O	0.970085	-0.430910	0.163841
O120	O	1.470085	0.069090	0.663841
C121	C	0.969721	-0.519297	0.163129
C122	C	1.469721	-0.019297	0.663129
H123	H	1.027521	-0.549144	0.115132
H124	H	1.527521	-0.049144	0.615132
H125	H	0.978100	-0.544508	0.242303
H126	H	1.478100	-0.044508	0.742303
H127	H	0.903250	-0.535710	0.131378
H128	H	1.403250	-0.035710	0.631378
O129	O	0.936684	0.228507	0.558173
O130	O	1.436684	0.728507	1.058173
C131	C	0.882997	0.278827	0.626434
C132	C	1.382997	0.778827	1.126434
H133	H	0.919672	0.279833	0.700637
H134	H	1.419672	0.779833	1.200637
H135	H	0.869354	0.345887	0.596344
H136	H	1.369354	0.845887	1.096344
H137	H	0.816553	0.251454	0.637519
H138	H	1.316553	0.751454	1.137519
O139	O	0.936656	0.228495	0.237090
O140	O	1.436656	0.728495	0.737090
C141	C	0.882967	0.278813	0.305351
C142	C	1.382967	0.778813	0.805351
H143	H	0.919643	0.279824	0.379552
H144	H	1.419643	0.779824	0.879552
H145	H	0.869317	0.345871	0.275258
H146	H	1.369317	0.845871	0.775258
H147	H	0.816526	0.251434	0.316440
H148	H	1.316526	0.751434	0.816440
H149	H	0.596526	0.255875	0.000077
H150	H	1.096526	0.755875	0.500077
H151	H	0.308763	0.250771	0.000103
H152	H	0.808763	0.750771	0.500103
H153	H	0.946260	0.219453	0.433988
H154	H	1.446260	0.719453	0.933988
H155	H	0.478022	0.253775	0.000076
H156	H	0.978022	0.753775	0.500076
H157	H	1.166973	0.012560	0.566210
H158	H	1.666973	0.512560	1.066210
H159	H	0.347448	-0.026851	0.000133
H160	H	0.847448	0.473149	0.500133
O161	O	0.525592	-0.035819	0.000072
O162	O	1.025592	0.464181	0.500072
C163	C	0.473824	-0.104434	0.000103
C164	C	0.973824	0.395566	0.500103
H165	H	0.404190	-0.083181	-0.031198
H166	H	0.904190	0.416819	0.468802
H167	H	0.508233	-0.157459	-0.047918
H168	H	1.008233	0.342541	0.452082
H169	H	0.467188	-0.128145	0.079447
H170	H	0.967188	0.371855	0.579447
O171	O	0.629656	-0.033949	-0.000020
O172	O	1.129656	0.466051	0.499980
C173	C	0.658921	-0.080076	-0.085684
C174	C	1.158921	0.419924	0.414316
H175	H	0.723628	-0.057118	-0.114244
H176	H	1.223628	0.442882	0.385756
H177	H	0.671865	-0.150013	-0.066416
H178	H	1.171865	0.349987	0.433584
H179	H	0.604934	-0.070397	-0.145661
H180	H	1.104934	0.429603	0.354339
H181	H	1.166987	0.012562	0.755077
H182	H	1.666987	0.512562	1.255077
O183	O	1.226559	-0.461819	0.000144
O184	O	1.726559	0.038181	0.500144
C185	C	1.223985	-0.549940	-0.000660
C186	C	1.723985	-0.049940	0.499340
H187	H	1.156939	-0.564804	-0.032415
H188	H	1.656939	-0.064804	0.467585
H189	H	1.281160	-0.580942	-0.048705
H190	H	1.781160	-0.080942	0.451295
H191	H	1.231775	-0.575330	0.078486
H192	H	1.731775	-0.075330	0.578486
H193	H	1.136065	-0.341257	0.150735
H194	H	1.636065	0.158743	0.650735
H195	H	0.804463	-0.018742	0.000097
H196	H	1.304463	0.481258	0.500097
H197	H	1.136104	-0.341080	-0.150351
H198	H	1.636104	0.158920	0.349649
O199	O	0.936701	0.228306	0.763370
O200	O	1.436701	0.728306	1.263370
C201	C	0.881529	0.183222	0.823588
C202	C	1.381529	0.683222	1.323588
H203	H	0.917165	0.117551	0.839178
H204	H	1.417165	0.617551	1.339178
H205	H	0.867390	0.218253	0.896793
H206	H	1.367390	0.718253	1.396793
H207	H	0.815419	0.177405	0.783488
H208	H	1.315419	0.677405	1.283488
