data_functionalizedCrystal
_audit_creation_method	'MofGen! by Chris Wilmer'
_symmetry_space_group_name_H-M	'P1'
_symmetry_Int_Tables_number	1
_symmetry_cell_setting	triclinic
loop_
_symmetry_equiv_pos_as_xyz
  x,y,z
_cell_length_a	21.295418
_cell_length_b	29.839131
_cell_length_c	21.295411
_cell_angle_alpha	90.020364
_cell_angle_beta	90.043738
_cell_angle_gamma	90.057233
loop_
_atom_site_label
_atom_site_type_symbol
_atom_site_fract_x
_atom_site_fract_y
_atom_site_fract_z
Zn1	Zn	0.962308	-0.178715	0.356239
Zn2	Zn	1.462308	0.321285	0.856239
Zn3	Zn	0.962190	-0.253830	0.250967
Zn4	Zn	1.462190	0.246170	0.750967
Zn5	Zn	0.857031	-0.178736	0.250949
Zn6	Zn	1.357031	0.321264	0.750949
Zn7	Zn	0.856981	-0.253839	0.356163
Zn8	Zn	1.356981	0.246161	0.856163
O9	O	0.909628	-0.216280	0.303580
O10	O	1.409628	0.283720	0.803580
O11	O	1.050382	-0.188667	0.342314
O12	O	1.550382	0.311333	0.842314
O13	O	0.948213	-0.243874	0.162875
O14	O	1.448213	0.256126	0.662875
O15	O	0.871067	-0.115866	0.264940
O16	O	1.371067	0.384134	0.764940
O17	O	1.050295	-0.243854	0.264971
O18	O	1.550295	0.256146	0.764971
O19	O	0.948413	-0.115851	0.342296
O20	O	1.448413	0.384149	0.842296
O21	O	0.870953	-0.188703	0.162862
O22	O	1.370953	0.311297	0.662862
O23	O	0.768935	-0.188711	0.264867
O24	O	1.268935	0.311289	0.764867
O25	O	0.870981	-0.243869	0.444263
O26	O	1.370981	0.256131	0.944263
O27	O	0.768898	-0.243889	0.342167
O28	O	1.268898	0.256111	0.842167
O29	O	0.948364	-0.188675	0.444319
O30	O	1.448364	0.311325	0.944319
O31	O	0.948164	-0.316699	0.264897
O32	O	1.448164	0.183301	0.764897
O33	O	0.870866	-0.316705	0.342185
O34	O	1.370866	0.183295	0.842185
C35	C	0.746076	-0.216304	0.303507
C36	C	1.246076	0.283696	0.803507
C37	C	0.676108	-0.216325	0.303491
C38	C	1.176108	0.283675	0.803491
C39	C	0.643238	-0.245094	0.343681
C40	C	1.143238	0.254906	0.843681
C41	C	0.577496	-0.245083	0.343710
C42	C	1.077496	0.254917	0.843710
C43	C	0.544625	-0.216307	0.303536
C44	C	1.044625	0.283693	0.803536
C45	C	0.577503	-0.187532	0.263343
C46	C	1.077503	0.312468	0.763343
C47	C	0.643244	-0.187541	0.263321
C48	C	1.143244	0.312459	0.763321
N49	N	0.441350	-0.212791	0.248479
N50	N	0.941350	0.287209	0.748479
N51	N	0.378899	-0.212785	0.248502
N52	N	0.878899	0.287215	0.748502
C53	C	0.346551	-0.216279	0.303603
C54	C	0.846551	0.283721	0.803603
N55	N	0.379013	-0.219787	0.358681
N56	N	0.879013	0.280213	0.858681
N57	N	0.441470	-0.219795	0.358657
N58	N	0.941470	0.280205	0.858657
C59	C	0.473340	-0.216294	0.303557
C60	C	0.973340	0.283706	0.803557
C61	C	0.242396	-0.245037	0.343827
C62	C	0.742396	0.254963	0.843827
C63	C	0.176652	-0.245023	0.343857
C64	C	0.676652	0.254977	0.843857
C65	C	0.176660	-0.187475	0.263485
C66	C	0.676660	0.312525	0.763485
C67	C	0.242403	-0.187487	0.263461
C68	C	0.742403	0.312513	0.763461
C69	C	0.275266	-0.216271	0.303632
C70	C	0.775266	0.283729	0.803632
C71	C	0.909514	-0.333003	0.303548
C72	C	1.409514	0.166997	0.803548
C73	C	0.909523	-0.382937	0.303556
C74	C	1.409523	0.117063	0.803556
C75	C	0.949949	-0.692564	0.263395
C76	C	1.449949	-0.192564	0.763395
C77	C	0.950027	-0.880238	0.263419
C78	C	1.450027	-0.380238	0.763419
O79	O	0.984309	-0.904489	0.229249
O80	O	1.484309	-0.404489	0.729249
N81	N	0.909758	-0.903722	0.303627
N82	N	1.409758	-0.403722	0.803627
C83	C	0.869470	-0.880286	0.343835
C84	C	1.369470	-0.380286	0.843835
O85	O	0.835225	-0.904567	0.378039
O86	O	1.335225	-0.404567	0.878039
C87	C	0.869396	-0.692614	0.343813
C88	C	1.369396	-0.192614	0.843813
C89	C	0.909663	-0.669131	0.303598
C90	C	1.409663	-0.169131	0.803598
C91	C	0.990214	-0.669082	0.223184
C92	C	1.490214	-0.169082	0.723184
C93	C	0.990192	-0.622167	0.223176
C94	C	1.490192	-0.122167	0.723176
C95	C	0.949905	-0.598734	0.263379
C96	C	1.449905	-0.098734	0.763379
C97	C	0.909641	-0.622216	0.303590
C98	C	1.409641	-0.122216	0.803590
C99	C	0.829111	-0.669178	0.384023
C100	C	1.329111	-0.169178	0.884023
C101	C	0.829097	-0.622257	0.384015
C102	C	1.329097	-0.122257	0.884015
C103	C	0.869364	-0.598775	0.343800
C104	C	1.369364	-0.098775	0.843800
C105	C	0.869332	-0.551867	0.343785
C106	C	1.369332	-0.051867	0.843785
N107	N	0.909601	-0.528383	0.303577
N108	N	1.409601	-0.028383	0.803577
C109	C	0.949887	-0.551816	0.263374
C110	C	1.449887	-0.051816	0.763374
C111	C	0.869511	-0.978816	0.343842
C112	C	1.369511	-0.478816	0.843842
C113	C	0.869528	-1.025734	0.343847
C114	C	1.369528	-0.525734	0.843847
C115	C	0.950087	-1.025683	0.263432
C116	C	1.450087	-0.525683	0.763432
C117	C	0.950065	-0.978764	0.263425
C118	C	1.450065	-0.478764	0.763425
C119	C	0.909780	-0.955332	0.303634
C120	C	1.409780	-0.455332	0.803634
C121	C	0.949837	-0.453290	0.263359
C122	C	1.449837	0.046710	0.763359
C123	C	0.949810	-0.406370	0.263353
C124	C	1.449810	0.093630	0.763353
C125	C	0.869254	-0.406426	0.343770
C126	C	1.369254	0.093574	0.843770
C127	C	0.869279	-0.453341	0.343774
C128	C	1.369279	0.046659	0.843774
C129	C	0.909576	-0.476772	0.303567
C130	C	1.409576	0.023228	0.803567
O131	O	0.835073	-0.527587	0.377942
O132	O	1.335073	-0.027587	0.877942
O133	O	0.984137	-0.527526	0.229185
O134	O	1.484137	-0.027526	0.729185
C135	C	0.949972	-0.739480	0.263403
C136	C	1.449972	-0.239480	0.763403
C137	C	0.909707	-0.762962	0.303614
C138	C	1.409707	-0.262962	0.803614
C139	C	0.869421	-0.739529	0.343817
C140	C	1.369421	-0.239529	0.843817
C141	C	0.909725	-0.809880	0.303619
C142	C	1.409725	-0.309880	0.803619
C143	C	0.950012	-0.833313	0.263416
C144	C	1.450012	-0.333313	0.763416
C145	C	0.990281	-0.809829	0.223208
C146	C	1.490281	-0.309829	0.723208
C147	C	0.990258	-0.762913	0.223200
C148	C	1.490258	-0.262913	0.723200
C149	C	0.829152	-0.763014	0.384025
C150	C	1.329152	-0.263014	0.884025
C151	C	0.829177	-0.809929	0.384029
C152	C	1.329177	-0.309929	0.884029
C153	C	0.869463	-0.833362	0.343826
C154	C	1.369463	-0.333362	0.843826
C155	C	1.073818	-0.216257	0.303653
C156	C	1.573818	0.283743	0.803653
C157	C	1.143786	-0.216247	0.303684
C158	C	1.643786	0.283753	0.803684
C159	C	0.909680	-0.216271	0.467770
C160	C	1.409680	0.283729	0.967770
C161	C	0.909702	-0.216267	0.537738
C162	C	1.409702	0.283733	1.037738
C163	C	0.909759	-0.099102	0.303625
C164	C	1.409759	0.400898	0.803625
C165	C	0.909815	-0.049167	0.303644
C166	C	1.409815	0.450833	0.803644
C167	C	0.909612	-0.216257	0.140028
C168	C	1.409612	0.283743	0.640028
C169	C	0.909712	-0.216135	0.070060
C170	C	1.409712	0.283865	0.570060
C171	C	0.949994	-0.187526	0.570635
C172	C	1.449994	0.312474	1.070635
C173	C	0.949993	-0.187507	0.636377
C174	C	1.449993	0.312493	1.136377
C175	C	0.909707	-0.216236	0.669221
C176	C	1.409707	0.283764	1.169221
C177	C	0.869407	-0.244978	0.636316
C178	C	1.369407	0.255022	1.136316
C179	C	0.869405	-0.244994	0.570575
C180	C	1.369405	0.255006	1.070575
N181	N	0.904840	-0.255537	0.772436
N182	N	1.404840	0.244463	1.272436
N183	N	0.904846	-0.255521	0.834887
N184	N	1.404846	0.244479	1.334887
C185	C	0.909711	-0.216190	0.867295
C186	C	1.409711	0.283810	1.367295
N187	N	0.914582	-0.176875	0.834893
N188	N	1.414582	0.323125	1.334893
N189	N	0.914580	-0.176891	0.772436
N190	N	1.414580	0.323109	1.272436
C191	C	0.909705	-0.216222	0.740506
C192	C	1.409705	0.283778	1.240506
C193	C	0.950004	-0.187426	0.971478
C194	C	1.450004	0.312574	1.471478
C195	C	0.949999	-0.187406	1.037221
C196	C	1.449999	0.312594	1.537221
C197	C	0.869416	-0.244882	1.037159
C198	C	1.369416	0.255118	1.537159
C199	C	0.869418	-0.244898	0.971417
C200	C	1.369418	0.255102	1.471417
C201	C	0.909716	-0.216171	0.938580
C202	C	1.409716	0.283829	1.438580
H203	H	0.550728	-0.268510	0.376440
H204	H	1.050728	0.231490	0.876440
C205	C	0.183276	-0.130592	0.184043
C206	C	0.683276	0.369408	0.684043
C207	C	0.140538	-0.155842	0.219327
C208	C	0.640538	0.344158	0.719327
H209	H	0.160972	-0.111060	0.156785
H210	H	0.660972	0.388940	0.656785
H211	H	0.208855	-0.150144	0.159905
H212	H	0.708855	0.349856	0.659905
H213	H	0.208980	-0.113442	0.211511
H214	H	0.708980	0.386558	0.711511
H215	H	0.114837	-0.172994	0.191858
H216	H	0.614837	0.327006	0.691858
H217	H	0.114948	-0.136288	0.243467
H218	H	0.614948	0.363712	0.743467
H219	H	0.982813	-0.164032	0.944741
H220	H	1.482813	0.335968	1.444741
H221	H	0.836608	-0.268269	1.063899
H222	H	1.336608	0.231731	1.563899
C223	C	0.183251	-0.301917	0.423283
C224	C	0.683251	0.198083	0.923283
C225	C	0.140519	-0.276651	0.388035
C226	C	0.640519	0.223349	0.888035
H227	H	0.160942	-0.321445	0.450553
H228	H	0.660942	0.178555	0.950553
H229	H	0.208951	-0.282376	0.447406
H230	H	0.708951	0.217624	0.947406
H231	H	0.208834	-0.319072	0.395792
H232	H	0.708834	0.180928	0.895792
H233	H	0.114939	-0.259493	0.415526
H234	H	0.614939	0.240507	0.915526
H235	H	0.114808	-0.296195	0.363910
H236	H	0.614808	0.203805	0.863910
H237	H	0.982890	-1.044770	0.230698
H238	H	1.482890	-0.544770	0.730698
C239	C	1.034660	-0.181270	0.496748
C240	C	1.534660	0.318730	0.996748
C241	C	0.994265	-0.155939	0.534532
C242	C	1.494265	0.344061	1.034532
H243	H	1.061987	-0.161766	0.474460
H244	H	1.561987	0.338234	0.974460
H245	H	1.010664	-0.198392	0.467754
H246	H	1.510664	0.301608	0.967754
H247	H	1.058734	-0.200827	0.522410
H248	H	1.558734	0.299173	1.022410
H249	H	0.970188	-0.136384	0.508870
H250	H	1.470188	0.363616	1.008870
H251	H	1.018264	-0.138809	0.563529
H252	H	1.518264	0.361191	1.063529
H253	H	0.269155	-0.268472	0.376540
H254	H	0.769155	0.231528	0.876540
C255	C	0.476729	-0.161977	0.227680
C256	C	0.976729	0.338023	0.727680
C257	C	0.541374	-0.155906	0.219178
C258	C	1.041374	0.344094	0.719178
H259	H	0.454426	-0.142452	0.200410
H260	H	0.954426	0.357548	0.700410
H261	H	0.466013	-0.155441	0.269989
H262	H	0.966013	0.344559	0.769989
H263	H	0.465905	-0.192153	0.218396
H264	H	0.965905	0.307847	0.718396
H265	H	0.552199	-0.125730	0.228467
H266	H	1.052199	0.374270	0.728467
H267	H	0.552095	-0.162438	0.176859
H268	H	1.052095	0.337562	0.676859
C269	C	1.026104	-0.881732	0.187552
C270	C	1.526104	-0.381732	0.687552
C271	C	1.034585	-0.835593	0.179037
C272	C	1.534585	-0.335593	0.679037
H273	H	1.053465	-0.897638	0.160293
H274	H	1.553465	-0.397638	0.660293
H275	H	0.983828	-0.889466	0.178266
H276	H	1.483828	-0.389466	0.678266
H277	H	1.035278	-0.889383	0.229870
H278	H	1.535278	-0.389383	0.729870
H279	H	1.025406	-0.827941	0.136719
H280	H	1.525406	-0.327941	0.636719
H281	H	1.076871	-0.827855	0.188318
H282	H	1.576871	-0.327855	0.688318
H283	H	0.836612	-0.268304	0.944632
H284	H	1.336612	0.231696	1.444632
C285	C	1.029658	-0.130705	0.629842
C286	C	1.529658	0.369295	1.129842
C287	C	0.994289	-0.155916	0.672548
C288	C	1.494289	0.344084	1.172548
H289	H	1.057007	-0.111205	0.652172
H290	H	1.557007	0.388795	1.152172
H291	H	1.002254	-0.113527	0.604185
H292	H	1.502254	0.386473	1.104185
H293	H	1.053709	-0.150287	0.604214
H294	H	1.553709	0.349713	1.104214
H295	H	0.970234	-0.136333	0.698173
H296	H	1.470234	0.363667	1.198173
H297	H	1.021697	-0.173095	0.698216
H298	H	1.521697	0.326905	1.198216
C299	C	0.999082	-0.721894	0.138562
C300	C	1.499082	-0.221894	0.638562
C301	C	1.034524	-0.694854	0.179031
C302	C	1.534524	-0.194854	0.679031
H303	H	1.026446	-0.737809	0.111316
H304	H	1.526446	-0.237809	0.611316
H305	H	0.971685	-0.703634	0.114412
H306	H	1.471685	-0.203634	0.614412
H307	H	0.975088	-0.742584	0.162515
H308	H	1.475088	-0.242584	0.662515
H309	H	1.058515	-0.674162	0.155078
H310	H	1.558515	-0.174162	0.655078
H311	H	1.061933	-0.713115	0.203183
H312	H	1.561933	-0.213115	0.703183
H313	H	0.669992	-0.268531	0.376392
H314	H	1.169992	0.231469	0.876392
H315	H	0.982808	-0.163999	1.064005
H316	H	1.482808	0.336001	1.564005
H317	H	0.836604	-0.268368	0.663061
H318	H	1.336604	0.231632	1.163061
H319	H	0.670006	-0.164112	0.230593
H320	H	1.170006	0.335888	0.730593
C321	C	0.316252	-0.181170	0.178778
C322	C	0.816252	0.318830	0.678778
C323	C	0.278538	-0.155867	0.219276
C324	C	0.778538	0.344133	0.719276
H325	H	0.338562	-0.161647	0.151502
H326	H	0.838562	0.338353	0.651502
H327	H	0.290545	-0.200711	0.154660
H328	H	0.790545	0.299289	0.654660
H329	H	0.345233	-0.198308	0.202707
H330	H	0.845233	0.301692	0.702707
H331	H	0.249554	-0.138732	0.195347
H332	H	0.749554	0.361268	0.695347
H333	H	0.304247	-0.136319	0.243396
H334	H	0.804247	0.363681	0.743396
C335	C	0.838549	-0.391968	0.450322
C336	C	1.338549	0.108032	0.950322
C337	C	0.824979	-0.380661	0.387965
C338	C	1.324979	0.119339	0.887965
H339	H	0.811216	-0.376062	0.477609
H340	H	1.311216	0.123938	0.977609
H341	H	0.880836	-0.384240	0.459572
H342	H	1.380836	0.115760	0.959572
H343	H	0.832789	-0.423271	0.456077
H344	H	1.332789	0.076729	0.956077
H345	H	0.830743	-0.349358	0.382209
H346	H	1.330743	0.150642	0.882209
H347	H	0.782682	-0.388386	0.378712
H348	H	1.282682	0.111614	0.878712
H349	H	0.796292	-0.603181	0.416761
H350	H	1.296292	-0.103181	0.916761
C351	C	1.029444	-0.411039	0.183868
C352	C	1.529444	0.088961	0.683868
C353	C	0.994077	-0.380559	0.219148
C354	C	1.494077	0.119441	0.719148
H355	H	1.056775	-0.395105	0.156582
H356	H	1.556775	0.104895	0.656582
H357	H	1.002037	-0.429372	0.159759
H358	H	1.502037	0.070628	0.659759
H359	H	1.053514	-0.429308	0.211336
H360	H	1.553514	0.070692	0.711336
H361	H	0.970003	-0.362293	0.191680
H362	H	1.470003	0.137707	0.691680
H363	H	1.021487	-0.362219	0.243259
H364	H	1.521487	0.137781	0.743259
H365	H	0.982652	-0.472362	0.230620
H366	H	1.482652	0.027638	0.730620
H367	H	1.022982	-0.603050	0.190431
H368	H	1.522982	-0.103050	0.690431
C369	C	1.029692	-0.983437	0.183940
C370	C	1.529692	-0.483437	0.683940
C371	C	0.994332	-0.952955	0.219224
C372	C	1.494332	-0.452955	0.719224
H373	H	1.057024	-0.967504	0.156654
H374	H	1.557024	-0.467504	0.656654
H375	H	1.002282	-1.001766	0.159831
H376	H	1.502282	-0.501766	0.659831
H377	H	1.053761	-1.001708	0.211407
H378	H	1.553761	-0.501708	0.711407
H379	H	0.970260	-0.934686	0.191757
H380	H	1.470260	-0.434686	0.691757
H381	H	1.021746	-0.934617	0.243334
H382	H	1.521746	-0.434617	0.743334
C383	C	0.789876	-0.983590	0.423321
C384	C	1.289876	-0.483590	0.923321
C385	C	0.825217	-0.953063	0.388037
C386	C	1.325217	-0.453063	0.888037
H387	H	0.762527	-0.967692	0.450599
H388	H	1.262527	-0.467692	0.950599
H389	H	0.817299	-1.001855	0.447437
H390	H	1.317299	-0.501855	0.947437
H391	H	0.765827	-1.001922	0.395853
H392	H	1.265827	-0.501922	0.895853
H393	H	0.849269	-0.934733	0.415505
H394	H	1.349269	-0.434733	0.915505
H395	H	0.797791	-0.934791	0.363920
H396	H	1.297791	-0.434791	0.863920
C397	C	0.784617	-0.506183	0.352427
C398	C	1.284617	-0.006183	0.852427
C399	C	0.825011	-0.479154	0.387974
C400	C	1.325011	0.020846	0.887974
H401	H	0.757288	-0.522113	0.379719
H402	H	1.257288	-0.022113	0.879719
H403	H	0.808614	-0.526855	0.328495
H404	H	1.308614	-0.026855	0.828495
H405	H	0.760545	-0.487909	0.324966
H406	H	1.260545	0.012091	0.824966
H407	H	0.849086	-0.497428	0.415432
H408	H	1.349086	0.002572	0.915432
H409	H	0.801011	-0.458480	0.411916
H410	H	1.301011	0.041520	0.911916
H411	H	0.836591	-0.268397	0.543791
H412	H	1.336591	0.231603	1.043791
C413	C	0.860757	-1.078475	0.428519
C414	C	1.360757	-0.578475	0.928519
C415	C	0.825261	-1.051544	0.388048
C416	C	1.325261	-0.551544	0.888048
H417	H	0.833428	-1.094409	0.455806
H418	H	1.333428	-0.594409	0.955806
H419	H	0.888161	-1.060139	0.452625
H420	H	1.388161	-0.560139	0.952625
H421	H	0.884747	-1.099148	0.404570
H422	H	1.384747	-0.599148	0.904570
H423	H	0.801275	-1.030869	0.411996
H424	H	1.301275	-0.530869	0.911996
H425	H	0.797847	-1.069882	0.363939
H426	H	1.297847	-0.569882	0.863939
H427	H	0.796318	-0.688289	0.416767
H428	H	1.296318	-0.188289	0.916767
H429	H	0.796381	-0.829044	0.416777
H430	H	1.296381	-0.329044	0.916777
C431	C	0.820325	-0.710238	0.468690
C432	C	1.320325	-0.210238	0.968690
C433	C	0.784862	-0.737262	0.428218
C434	C	1.284862	-0.237262	0.928218
H435	H	0.792977	-0.694344	0.495975
H436	H	1.292977	-0.194344	0.995975
H437	H	0.844293	-0.689534	0.444746
H438	H	1.344293	-0.189534	0.944746
H439	H	0.847748	-0.728510	0.492804
H440	H	1.347748	-0.228510	0.992804
H441	H	0.757442	-0.718989	0.404101
H442	H	1.257442	-0.218989	0.904101
H443	H	0.760883	-0.757968	0.452165
H444	H	1.260883	-0.257968	0.952165
H445	H	1.023048	-0.743797	0.190453
H446	H	1.523048	-0.243797	0.690453
