data_functionalizedCrystal
_audit_creation_method	'MofGen! by Chris Wilmer'
_symmetry_space_group_name_H-M	'P1'
_symmetry_Int_Tables_number	1
_symmetry_cell_setting	triclinic
loop_
_symmetry_equiv_pos_as_xyz
  x,y,z
_cell_length_a	15.538191
_cell_length_b	10.540539
_cell_length_c	14.750779
_cell_angle_alpha	77.230089
_cell_angle_beta	97.572172
_cell_angle_gamma	65.898793
loop_
_atom_site_label
_atom_site_type_symbol
_atom_site_fract_x
_atom_site_fract_y
_atom_site_fract_z
O1	O	1.226941	-0.374141	-0.079847
O2	O	0.953666	-0.228028	-0.079842
O3	O	1.096539	-0.488740	-0.079843
O4	O	1.084069	-0.113428	-0.079846
O5	O	1.136927	-0.562434	0.079807
O6	O	0.994055	-0.301722	0.079808
O7	O	1.267329	-0.447835	0.079803
Zn8	Zn	1.137105	-0.386479	0.105153
Zn9	Zn	1.083891	-0.289384	-0.105192
O10	O	1.124457	-0.187122	0.079804
C11	C	0.938868	-0.249588	-0.000017
C12	C	0.834601	-0.204052	-0.000015
C13	C	0.543764	-0.656437	-0.000028
C14	C	0.445786	-0.613617	-0.000028
C15	C	0.424963	-0.372763	-0.000030
C16	C	0.522942	-0.415565	-0.000024
C17	C	0.582335	-0.557404	-0.000024
C18	C	0.561514	-0.316532	-0.000020
C19	C	0.659483	-0.359329	-0.000020
C20	C	0.718882	-0.501160	-0.000023
C21	C	0.680305	-0.600201	-0.000023
C22	C	0.502117	-0.174691	-0.000027
C23	C	0.540689	-0.075657	-0.000024
C24	C	0.638662	-0.118457	-0.000016
C25	C	0.698060	-0.260288	-0.000019
C26	C	0.677239	-0.019416	-0.000016
C27	C	0.775208	-0.062213	-0.000015
C28	C	0.796030	-0.303086	-0.000019
C29	C	1.115797	-0.572447	-0.000020
C30	C	1.112998	-0.712070	-0.000025
C31	C	1.005705	-0.844625	-0.000382
C32	C	1.008631	-0.699514	-0.000022
C33	C	1.186288	-0.839567	0.091142
C34	C	1.182746	-0.984462	0.091219
C35	C	1.138939	-0.902180	-0.090333
C36	C	1.139596	-0.755096	-0.091538
C37	C	1.282127	-0.426274	-0.000024
C38	C	1.386393	-0.471807	-0.000032
C39	C	1.105198	-0.103414	-0.000021
C40	C	1.107995	0.036211	-0.000022
N41	N	1.173428	-0.452748	0.248709
N42	N	1.047575	-0.223128	-0.248748
C43	C	0.946128	-0.038104	0.600529
C44	C	0.971588	-0.084536	0.701028
C45	C	1.098128	-0.315346	0.700989
C46	C	1.072676	-0.268936	0.600488
C47	C	0.996676	-0.130313	0.550266
C48	C	1.123223	-0.361145	0.550226
C49	C	1.097776	-0.314735	0.449734
C50	C	1.021781	-0.176117	0.399504
C51	C	0.971228	-0.083904	0.449774
C52	C	1.199228	-0.499763	0.600450
C53	C	1.249775	-0.591972	0.550187
C54	C	1.224323	-0.545567	0.449693
C55	C	1.148328	-0.406948	0.399464
C56	C	1.274876	-0.637780	0.399423
C57	C	1.249428	-0.591370	0.298931
C58	C	1.122881	-0.360539	0.298972
H59	H	0.376591	-0.257276	-0.000034
H60	H	0.844393	-0.418587	-0.000013
H61	H	0.628864	0.096073	-0.000025
C62	C	0.993787	-0.125066	0.288959
N63	N	0.972700	-0.086616	0.205696
H64	H	0.930420	-0.009435	0.741947
C65	C	0.403362	-0.722574	-0.000032
N66	N	0.371408	-0.804638	-0.000038
H67	H	0.985395	-0.669151	0.065440
C68	C	1.240515	-0.767577	-0.098975
N69	N	1.316536	-0.776990	-0.104567
C70	C	1.333371	-0.744456	0.605443
N71	N	1.396333	-0.859313	0.647061
C72	C	1.285562	-1.099816	0.096820
N73	N	1.363004	-1.186696	0.101045
C74	C	0.394346	-0.127614	-0.000032
N75	N	0.313173	-0.092158	-0.000035
C76	C	0.887585	0.068555	0.394524
N77	N	0.824577	0.183373	0.352909
H78	H	1.219947	-0.537541	0.682277
C79	C	0.817640	0.046727	-0.000009
N80	N	0.849598	0.128786	-0.000007
H81	H	0.798651	-0.535997	-0.000035
C82	C	1.162336	-0.802040	0.182799
N83	N	1.144289	-0.773774	0.251834
C84	C	0.972468	-0.899711	0.087467
N85	N	0.947443	-0.941199	0.153644
H86	H	1.214168	-0.984779	-0.090947
C87	C	0.932899	-0.575945	-0.088306
N88	N	0.875850	-0.482875	-0.154802
C89	C	0.927657	-0.816161	-0.088697
N90	N	0.868870	-0.794733	-0.155217
H91	H	1.087680	-0.885860	-0.159432
C92	C	0.862485	0.114355	0.545278
N93	N	0.799477	0.229172	0.503664
C94	C	1.290988	-0.860437	0.095736
N95	N	1.369846	-0.876144	0.099198
H96	H	1.336762	-0.750642	0.440328
C97	C	1.181724	-0.467830	0.756245
N98	N	1.244686	-0.582686	0.797863
H99	H	1.290591	-0.666457	0.258007
H100	H	0.728668	-0.715703	-0.000018
C101	C	1.155878	-1.041331	0.183281
N102	N	1.135637	-1.084156	0.252623
H103	H	0.592127	-0.771939	-0.000022
C104	C	1.066945	-0.634306	-0.182655
N105	N	1.012215	-0.543326	-0.251282
H106	H	0.492317	0.039830	-0.000028
H107	H	1.060987	-0.247664	0.258079
