data_functionalizedCrystal
_audit_creation_method	'MofGen! by Chris Wilmer'
_symmetry_space_group_name_H-M	'P1'
_symmetry_Int_Tables_number	1
_symmetry_cell_setting	triclinic
loop_
_symmetry_equiv_pos_as_xyz
  x,y,z
_cell_length_a	16.625548
_cell_length_b	19.077068
_cell_length_c	16.625539
_cell_angle_alpha	87.731298
_cell_angle_beta	89.982945
_cell_angle_gamma	87.671886
loop_
_atom_site_label
_atom_site_type_symbol
_atom_site_fract_x
_atom_site_fract_y
_atom_site_fract_z
Zn1	Zn	1.219728	0.280193	-0.468781
Zn2	Zn	1.214210	0.397894	-0.339355
Zn3	Zn	1.084897	0.280216	-0.333962
Zn4	Zn	1.079432	0.397857	-0.474143
O5	O	1.149567	0.339040	-0.404060
O6	O	1.331828	0.295812	-0.451625
O7	O	1.197034	0.382309	-0.225808
O8	O	1.107379	0.181722	-0.347345
O9	O	1.327774	0.382286	-0.356536
O10	O	1.206438	0.181705	-0.446396
O11	O	1.102028	0.295852	-0.221847
O12	O	0.971340	0.295816	-0.352545
O13	O	1.098065	0.382224	-0.586263
O14	O	0.967325	0.382246	-0.455535
O15	O	1.201140	0.295777	-0.582324
O16	O	1.191735	0.496380	-0.361736
O17	O	1.092715	0.496353	-0.460764
C18	C	0.940076	0.339030	-0.404037
C19	C	0.850455	0.339043	-0.404047
C20	C	1.141055	0.521905	-0.412435
C21	C	1.137488	0.600135	-0.416044
C22	C	1.149608	0.338994	-0.614367
C23	C	1.149626	0.338974	-0.703988
C24	C	0.522279	0.339048	-0.404082
C25	C	0.613587	0.339044	-0.404070
C26	C	0.686364	0.339046	-0.404064
C27	C	0.777678	0.339042	-0.404053
C28	C	1.359875	0.339051	-0.404084
C29	C	1.449496	0.339055	-0.404094
C30	C	1.158133	0.155462	-0.395671
C31	C	1.161784	0.077232	-0.392096
C32	C	1.187407	0.636878	-0.366224
C33	C	1.184056	0.710383	-0.369624
C34	C	1.130782	0.747144	-0.422840
C35	C	1.080861	0.710396	-0.472666
C36	C	1.084217	0.636892	-0.469270
C37	C	1.115218	0.966979	-0.438525
C38	C	1.111865	1.040489	-0.441916
C39	C	1.215061	1.040471	-0.338875
C40	C	1.218408	0.966966	-0.335480
C41	C	1.168491	0.930223	-0.385308
N42	N	1.127354	0.822279	-0.426315
N43	N	1.171923	0.855090	-0.381837
C44	C	1.149640	0.338958	-0.776769
C45	C	1.149660	0.338932	-0.868077
C46	C	1.149680	0.338908	-0.940852
C47	C	1.149702	0.338882	-1.032165
C48	C	1.149574	0.339036	-0.194569
C49	C	1.149722	0.338857	-0.104941
H50	H	1.230784	0.606952	-0.322886
F51	F	1.062090	0.927885	-0.491557
H52	H	1.261788	0.937036	-0.292147
F53	F	1.237189	0.749485	-0.316600
H54	H	1.255703	1.070394	-0.298308
F55	F	1.055153	1.079611	-0.498551
H56	H	1.037488	0.740332	-0.515999
F57	F	1.031088	0.597787	-0.522297
