data_functionalizedCrystal
_audit_creation_method	'MofGen! by Chris Wilmer'
_symmetry_space_group_name_H-M	'P1'
_symmetry_Int_Tables_number	1
_symmetry_cell_setting	triclinic
loop_
_symmetry_equiv_pos_as_xyz
  x,y,z
_cell_length_a	13.635800
_cell_length_b	14.712231
_cell_length_c	11.102315
_cell_angle_alpha	77.939247
_cell_angle_beta	108.606275
_cell_angle_gamma	102.130476
loop_
_atom_site_label
_atom_site_type_symbol
_atom_site_fract_x
_atom_site_fract_y
_atom_site_fract_z
V1	V	1.981008	-0.128675	0.396612
O2	O	2.038876	0.006178	0.388698
O3	O	1.895920	-0.255136	0.394250
O4	O	1.970549	-0.126698	0.569429
O5	O	1.963730	-0.123149	0.212307
V6	V	2.228931	-0.112545	0.374525
O7	O	2.098121	-0.164058	0.445062
O8	O	2.336916	-0.077162	0.326076
O9	O	2.202415	0.013916	0.376887
O10	O	2.229761	-0.247398	0.382440
O11	O	2.304906	-0.118071	0.558831
O12	O	2.127786	-0.114522	0.201709
V13	V	2.481008	-0.128675	0.396612
O14	O	2.538876	0.006178	0.388698
O15	O	2.395920	-0.255136	0.394250
O16	O	2.470549	-0.126698	0.569429
O17	O	2.463730	-0.123149	0.212307
V18	V	2.728931	-0.112545	0.374525
O19	O	2.598121	-0.164058	0.445062
O20	O	2.836916	-0.077162	0.326076
O21	O	2.702415	0.013916	0.376887
O22	O	2.729761	-0.247398	0.382440
O23	O	2.804906	-0.118071	0.558831
O24	O	2.627786	-0.114522	0.201709
C25	C	2.303164	-0.285964	0.388084
C26	C	2.274330	-0.389348	0.387305
C27	C	2.168708	-0.767919	0.384470
C28	C	2.198091	-0.662588	0.385258
C29	C	2.221518	-0.578636	0.385886
C30	C	2.250903	-0.473300	0.386677
C31	C	1.803164	-0.285964	0.388084
C32	C	1.774330	-0.389348	0.387305
C33	C	1.898360	-0.122127	0.611540
C34	C	1.930048	-0.121348	0.752820
C35	C	2.126839	0.044740	0.383050
C36	C	2.145293	0.148122	0.383837
C37	C	2.031644	-0.119095	0.159591
C38	C	1.989578	-0.119870	0.018309
C39	C	1.750910	-0.473305	0.386660
C40	C	1.721539	-0.578634	0.385858
C41	C	1.698137	-0.662587	0.385219
C42	C	1.668764	-0.767922	0.384415
C43	C	2.108675	-0.130642	0.765816
C44	C	2.212870	-0.134925	0.838686
C45	C	2.242638	-0.134191	0.971430
C46	C	2.168201	-0.129171	1.031306
C47	C	2.064006	-0.124887	0.958436
C48	C	2.034247	-0.125624	0.825689
C49	C	1.885382	-0.115587	0.945439
C50	C	1.855611	-0.116327	0.812696
C51	C	1.810946	-0.110566	1.005315
C52	C	1.706747	-0.106289	0.932445
C53	C	1.676981	-0.107025	0.799693
C54	C	1.751416	-0.112044	0.739825
C55	C	2.398360	-0.122127	0.611540
C56	C	2.430048	-0.121348	0.752820
C57	C	2.626839	0.044740	0.383050
C58	C	2.645293	0.148122	0.383837
C59	C	2.531644	-0.119095	0.159591
C60	C	2.489578	-0.119870	0.018309
C61	C	2.391246	-0.291683	0.789616
C62	C	2.386730	-0.376480	0.874386
C63	C	2.416506	-0.375742	1.007130
C64	C	2.450804	-0.290198	1.055106
C65	C	2.455320	-0.205400	0.970336
C66	C	2.425538	-0.206147	0.837591
C67	C	2.494128	-0.035068	0.933541
C68	C	2.464346	-0.035803	0.800796
C69	C	2.528426	0.050476	0.981516
C70	C	2.532936	0.135276	0.896746
C71	C	2.503156	0.134535	0.763994
C72	C	2.468862	0.048994	0.716026
H73	H	2.084443	-0.131252	0.657731
H74	H	2.327482	-0.137678	1.030762
N75	N	2.438461	0.048237	0.580434
N76	N	2.502896	0.082328	0.517986
H77	H	2.481427	0.081791	0.422222
H78	H	1.592140	-0.103515	0.740365
N79	N	1.721035	-0.112784	0.604231
N80	N	1.762642	-0.049329	0.533674
H81	H	1.741191	-0.049849	0.437908
H82	H	2.192450	-0.128562	1.139392
H83	H	2.366983	-0.292291	0.681530
H84	H	2.358805	-0.446129	0.835310
N85	N	2.558853	0.051253	1.117106
N86	N	2.649867	0.086016	1.173155
H87	H	2.671354	0.086570	1.268916
H88	H	2.412829	-0.444792	1.076151
H89	H	2.560868	0.204919	0.935820
N90	N	2.481236	-0.289461	1.190704
N91	N	2.477211	-0.365179	1.266378
H92	H	2.498706	-0.364659	1.362147
N93	N	2.507766	0.221165	0.677426
N94	N	2.455027	0.281869	0.674932
H95	H	2.458283	0.343054	0.613798
N96	N	2.288904	-0.140034	0.777517
N97	N	2.307228	-0.075620	0.690677
H98	H	2.360928	-0.079224	0.647477
H99	H	1.835192	-0.109963	1.113401
H100	H	1.646152	-0.102195	0.981206
