data_functionalizedCrystal
_audit_creation_method	'MofGen! by Chris Wilmer'
_symmetry_space_group_name_H-M	'P1'
_symmetry_Int_Tables_number	1
_symmetry_cell_setting	triclinic
loop_
_symmetry_equiv_pos_as_xyz
  x,y,z
_cell_length_a	14.395555
_cell_length_b	14.446369
_cell_length_c	14.395555
_cell_angle_alpha	60.001194
_cell_angle_beta	90.002623
_cell_angle_gamma	60.001246
loop_
_atom_site_label
_atom_site_type_symbol
_atom_site_fract_x
_atom_site_fract_y
_atom_site_fract_z
Zr1	Zr	0.894949	1.013163	-0.121860
O2	O	0.746626	1.206276	-0.270193
O3	O	0.940413	0.820050	-0.076388
O4	O	0.940421	1.013154	-0.270182
O5	O	0.746617	1.013179	0.076468
O6	O	1.093295	1.013147	-0.270174
O7	O	0.746618	1.013172	-0.076399
O8	O	1.093281	0.667719	0.076488
O9	O	0.746631	1.358607	-0.270194
O10	O	1.073897	0.899475	-0.056989
O11	O	0.959808	0.899485	0.057088
O12	O	0.959817	1.126841	-0.171079
O13	O	0.845728	1.126851	-0.057002
Zr14	Zr	1.138763	1.013163	0.121958
Zr15	Zr	1.138765	1.013152	-0.121847
Zr16	Zr	0.894947	1.013174	0.121945
Zr17	Zr	0.894957	1.256113	-0.121862
Zr18	Zr	1.138755	0.770213	0.121959
O19	O	1.093299	1.206276	0.076486
O20	O	1.093302	1.206260	-0.270175
O21	O	0.746623	1.206292	0.076467
O22	O	1.287086	0.820050	0.270291
O23	O	1.287089	0.820035	-0.076369
O24	O	0.940411	0.820066	0.270272
O25	O	1.287095	1.013147	-0.076370
O26	O	1.093291	1.013172	0.270279
O27	O	0.940417	1.013179	0.270271
O28	O	1.287094	1.013154	0.076497
O29	O	0.940433	1.358598	-0.270183
O30	O	1.093280	0.667728	0.270281
O31	O	1.287081	0.667719	0.270292
O32	O	1.287083	0.667711	0.076499
O33	O	0.746629	1.358616	-0.076401
O34	O	0.940431	1.358607	-0.076391
O35	O	1.073895	0.899485	0.171177
O36	O	1.187984	0.899475	0.057100
O37	O	1.073904	1.126841	-0.056990
O38	O	0.959815	1.126851	0.057087
C39	C	1.016846	0.709270	0.000050
C40	C	1.016843	0.606131	0.000051
C41	C	0.711879	1.013177	0.000033
C42	C	0.608372	1.013181	0.000027
C43	C	0.944882	0.566849	0.072009
C44	C	0.945212	0.459214	0.072391
C45	C	1.140866	0.371411	0.052158
C46	C	1.140456	0.478656	0.052705
C47	C	0.965812	0.653848	-0.124060
C48	C	0.963323	0.547675	-0.123875
C49	C	0.485582	1.137151	-0.062170
C50	C	0.454745	1.075175	-0.107244
C51	C	0.454786	1.075153	0.045093
C52	C	0.578899	0.951205	-0.045110
C53	C	0.578937	0.951200	0.107287
C54	C	0.548173	0.889133	0.062240
C55	C	1.321833	1.013149	0.000065
C56	C	1.425340	1.013145	0.000071
C57	C	1.016858	1.013149	-0.304915
C58	C	1.016859	1.013145	-0.408417
C59	C	1.016866	1.317057	0.000047
C60	C	1.016870	1.420195	0.000047
C61	C	1.079066	0.889175	-0.406798
C62	C	0.971792	0.951151	-0.499826
C63	C	1.124107	0.951174	-0.499817
C64	C	0.909522	1.075122	-0.500081
C65	C	1.061914	1.075126	-0.500058
C66	C	0.954576	1.137193	-0.593103
C67	C	1.016854	1.013177	0.305012
C68	C	1.016853	1.013181	0.408514
C69	C	1.321823	0.709256	0.000067
C70	C	1.425326	0.606113	0.000073
C71	C	1.016844	0.709283	0.305014
C72	C	1.016840	0.606149	0.408516
C73	C	1.321821	0.709270	0.305030
C74	C	1.425323	0.606131	0.408538
C75	C	0.711891	1.317057	-0.304932
C76	C	0.608389	1.420195	-0.408440
C77	C	0.711889	1.317070	0.000031
C78	C	0.608386	1.420214	0.000025
C79	C	1.016868	1.317043	-0.304916
C80	C	1.016873	1.420177	-0.408419
C81	C	1.644460	0.459797	0.071661
C82	C	1.536853	0.566722	0.072067
C83	C	1.428662	0.479260	0.052555
C84	C	1.536807	0.371882	0.053076
C85	C	1.535436	0.546847	-0.124100
C86	C	1.429097	0.655320	-0.123901
C87	C	0.944531	0.459842	0.483761
C88	C	0.944841	0.566760	0.376052
C89	C	1.140803	0.479294	0.483341
C90	C	1.140410	0.371922	0.590578
C91	C	0.966197	0.546897	0.592159
C92	C	0.963685	0.655364	0.483103
C93	C	1.500568	0.459800	0.627672
C94	C	1.392859	0.566740	0.520060
C95	C	1.500126	0.479283	0.411865
C96	C	1.607362	0.371888	0.520016
C97	C	1.608988	0.546827	0.518671
C98	C	1.499932	0.655316	0.412327
H99	H	0.853917	0.495757	0.037470
H100	H	1.448357	0.745773	0.412894
H101	H	0.632256	0.898844	-0.083310
H102	H	1.426519	0.440706	0.143036
H103	H	0.853558	0.656110	0.321587
H104	H	0.573826	0.784220	0.114844
H105	H	0.933676	0.898760	-0.500759
H106	H	1.197219	0.341967	0.669438
H107	H	1.100056	1.127472	-0.499081
H108	H	0.632449	0.898853	0.197959
H109	H	1.699636	0.370134	0.162681
H110	H	0.401230	1.127566	-0.197935
H111	H	1.525550	0.687437	0.332897
H112	H	1.687483	0.522027	0.491134
H113	H	1.010394	0.526487	-0.181917
H114	H	0.401282	1.127574	0.083189
H115	H	0.979976	0.529292	0.322078
H116	H	1.585632	0.586414	-0.167941
H117	H	1.197016	0.500903	0.003655
H118	H	1.131584	0.784350	-0.327035
H119	H	1.214812	0.898757	-0.500711
H120	H	1.538476	0.656067	0.036869
H121	H	0.818778	1.127481	-0.499264
H122	H	1.181637	0.440734	0.431554
H123	H	1.429623	0.745804	-0.163105
H124	H	1.181989	0.278973	0.142590
H125	H	0.980640	0.370269	0.163942
H126	H	0.901894	1.242107	-0.672734
H127	H	0.876291	0.586471	0.596285
H128	H	0.853344	0.655560	0.037276
H129	H	1.698608	0.497033	0.036638
H130	H	1.539318	0.529259	0.163641
H131	H	1.507891	0.522057	-0.177715
H132	H	1.587328	0.281131	0.144424
H133	H	0.872360	0.745858	0.431496
H134	H	1.510059	0.341928	0.004276
H135	H	0.853013	0.497084	0.481413
H136	H	1.613134	0.586383	0.568875
H137	H	1.350119	0.501507	0.002900
H138	H	1.349661	0.687446	-0.181754
H139	H	1.527461	0.501527	0.333330
H140	H	1.181280	0.437843	0.144022
H141	H	0.979969	0.530983	0.163019
H142	H	1.686222	0.341923	0.493273
H143	H	0.979337	0.370177	0.482724
H144	H	1.197022	0.501539	0.510671
H145	H	1.180958	0.281169	0.590305
H146	H	1.010884	0.687488	0.508718
H147	H	1.018618	0.522108	0.670653
H148	H	1.448321	0.440745	0.409709
H149	H	1.338409	0.656084	0.521688
H150	H	1.498236	0.497026	0.681828
H151	H	1.499516	0.370145	0.682836
H152	H	1.607076	0.281144	0.570524
H153	H	1.196841	0.342900	0.002240
H154	H	0.875854	0.747434	-0.167628
H155	H	1.338868	0.529294	0.522511
H156	H	0.460142	1.241979	-0.114849
H157	H	1.017968	0.680109	-0.177921
H158	H	0.871969	0.587126	-0.162808
