data_functionalizedCrystal
_audit_creation_method	'MofGen! by Chris Wilmer'
_symmetry_space_group_name_H-M	'P1'
_symmetry_Int_Tables_number	1
_symmetry_cell_setting	triclinic
loop_
_symmetry_equiv_pos_as_xyz
  x,y,z
_cell_length_a	13.032721
_cell_length_b	13.032831
_cell_length_c	19.076919
_cell_angle_alpha	85.386187
_cell_angle_beta	99.138159
_cell_angle_gamma	90.902885
loop_
_atom_site_label
_atom_site_type_symbol
_atom_site_fract_x
_atom_site_fract_y
_atom_site_fract_z
Zn1	Zn	-0.639106	1.481895	-0.579128
Zn2	Zn	-0.805708	1.466872	-0.474399
Zn3	Zn	-0.610392	1.318790	-0.445065
Zn4	Zn	-0.788961	1.288292	-0.575375
O5	O	-0.711042	1.388962	-0.518492
O6	O	-0.680232	1.622899	-0.579082
O7	O	-0.774791	1.453705	-0.372143
O8	O	-0.469746	1.359478	-0.452143
O9	O	-0.802634	1.611861	-0.502138
O10	O	-0.490842	1.479310	-0.550638
O11	O	-0.631293	1.344910	-0.350592
O12	O	-0.615053	1.171748	-0.448504
O13	O	-0.774090	1.307497	-0.674237
O14	O	-0.746247	1.149341	-0.544242
O15	O	-0.663993	1.449737	-0.676994
O16	O	-0.947942	1.424132	-0.498499
O17	O	-0.935637	1.292930	-0.572686
C18	C	-0.675718	1.123467	-0.492784
C19	C	-0.660632	1.009883	-0.481804
C20	C	-0.718915	0.948176	-0.524222
C21	C	-0.703325	0.830780	-0.512875
C22	C	-0.979250	1.353618	-0.538386
C23	C	-1.094004	1.338589	-0.546929
C24	C	-1.151227	1.396858	-0.514069
C25	C	-1.269831	1.381327	-0.522899
C26	C	-0.441791	1.424472	-0.498537
C27	C	-0.327053	1.439604	-0.490034
C28	C	-0.720377	1.376891	-0.701833
C29	C	-0.724355	1.371747	-0.779963
C30	C	-0.746504	1.655494	-0.544300
C31	C	-0.761616	1.769074	-0.555299
C32	C	-0.668904	1.443383	-0.818105
C33	C	-0.672636	1.438538	-0.891514
C34	C	-0.731825	1.362060	-0.926781
C35	C	-0.787277	1.290416	-0.888634
C36	C	-0.783539	1.295258	-0.815225
C37	C	-0.749148	1.339634	-1.146175
C38	C	-0.752885	1.334800	-1.219590
C39	C	-0.638241	1.482920	-1.222465
C40	C	-0.634513	1.487759	-1.149055
C41	C	-0.689961	1.416112	-1.110914
N42	N	-0.735644	1.357107	-1.001818
N43	N	-0.686135	1.421061	-1.035877
C44	C	-0.701677	1.401055	-0.335863
C45	C	-0.697434	1.406436	-0.257732
H46	H	-0.641875	0.796704	-0.468159
Br47	Br	-0.821328	1.004968	-0.598752
Br48	Br	-0.864012	0.825860	-0.629847
H49	H	-0.835466	1.228143	-0.917353
Br50	Br	-0.558213	0.953091	-0.407277
Br51	Br	-1.158688	1.236282	-0.604723
Br52	Br	-1.086545	1.499183	-0.456290
H53	H	-1.308643	1.319942	-0.557574
H54	H	-1.288243	1.500996	-0.455366
Br55	Br	-0.588581	1.547186	-0.770251
Br56	Br	-0.597433	1.535804	-0.943284
Br57	Br	-0.554186	1.591557	-1.101198
H58	H	-0.593098	1.541250	-1.253528
H59	H	-0.801085	1.272519	-1.248302
H60	H	-0.794314	1.281307	-1.115131
Br61	Br	-0.858789	1.198028	-0.763458
