data_functionalizedCrystal
_audit_creation_method	'MofGen! by Chris Wilmer'
_symmetry_space_group_name_H-M	'P1'
_symmetry_Int_Tables_number	1
_symmetry_cell_setting	triclinic
loop_
_symmetry_equiv_pos_as_xyz
  x,y,z
_cell_length_a	21.295417
_cell_length_b	16.625547
_cell_length_c	16.625539
_cell_angle_alpha	90.027058
_cell_angle_beta	89.966627
_cell_angle_gamma	89.970308
loop_
_atom_site_label
_atom_site_type_symbol
_atom_site_fract_x
_atom_site_fract_y
_atom_site_fract_z
Zn1	Zn	-0.250622	-1.232635	-0.456021
Zn2	Zn	-0.355895	-1.232520	-0.321176
Zn3	Zn	-0.250642	-1.097797	-0.321186
Zn4	Zn	-0.355855	-1.097749	-0.455950
O5	O	-0.303254	-1.165175	-0.388583
O6	O	-0.264594	-1.345452	-0.438158
O7	O	-0.341958	-1.214620	-0.208345
O8	O	-0.162550	-1.115753	-0.339105
O9	O	-0.341938	-1.345367	-0.339088
O10	O	-0.162535	-1.214818	-0.438168
O11	O	-0.264629	-1.115640	-0.208352
O12	O	-0.264591	-0.984958	-0.339037
O13	O	-0.341871	-1.115670	-0.568792
O14	O	-0.341891	-0.984923	-0.438048
O15	O	-0.264556	-1.214771	-0.568844
O16	O	-0.443979	-1.214573	-0.339020
O17	O	-0.443950	-1.115558	-0.438039
C18	C	-0.303239	-0.955684	-0.388537
C19	C	-0.303248	-0.866063	-0.388536
C20	C	-0.303249	-0.793281	-0.388543
C21	C	-0.303251	-0.701972	-0.388560
C22	C	-0.303256	-0.629196	-0.388578
C23	C	-0.303260	-0.537882	-0.388593
C24	C	-0.466805	-1.165070	-0.388538
C25	C	-0.536773	-1.165098	-0.388546
C26	C	-0.569634	-1.216701	-0.337040
C27	C	-0.635377	-1.216739	-0.337058
C28	C	-0.668256	-1.165159	-0.388574
C29	C	-0.635387	-1.113552	-0.440090
C30	C	-0.569646	-1.113522	-0.440076
N31	N	-0.771521	-1.094624	-0.394705
N32	N	-0.833972	-1.094656	-0.394714
C33	C	-0.866331	-1.165250	-0.388620
N34	N	-0.833878	-1.235813	-0.382502
N35	N	-0.771421	-1.235780	-0.382490
C36	C	-0.739541	-1.165187	-0.388595
C37	C	-0.970477	-1.216898	-0.337131
C38	C	-1.036221	-1.216937	-0.337155
C39	C	-1.036230	-1.113743	-0.440183
C40	C	-0.970487	-1.113712	-0.440163
C41	C	-0.937615	-1.165288	-0.388633
C42	C	-0.139063	-1.165303	-0.388646
C43	C	-0.069095	-1.165358	-0.388672
C44	C	-0.303207	-1.165228	-0.598892
C45	C	-0.303187	-1.165250	-0.688513
C46	C	-0.303266	-0.375484	-0.388620
C47	C	-0.303265	-0.465105	-0.388611
C48	C	-0.303116	-1.165287	-1.016689
C49	C	-0.303138	-1.165275	-0.925381
C50	C	-0.303152	-1.165269	-0.852604
C51	C	-0.303173	-1.165256	-0.761290
C52	C	-0.303255	-1.165170	-0.179092
C53	C	-0.303098	-1.165303	-0.089472
H54	H	-0.542871	-1.258700	-0.295084
Cl55	Cl	-1.077557	-1.048905	-0.504952
H56	H	-0.662137	-1.258764	-0.295116
H57	H	-0.542890	-1.071500	-0.482020
H58	H	-0.943711	-1.258897	-0.295175
Cl59	Cl	-1.077532	-1.281822	-0.272404
H60	H	-0.662161	-1.071557	-0.482036
Cl61	Cl	-0.929174	-1.048831	-0.504914
