data_functionalizedCrystal
_audit_creation_method	'MofGen! by Chris Wilmer'
_symmetry_space_group_name_H-M	'P1'
_symmetry_Int_Tables_number	1
_symmetry_cell_setting	triclinic
loop_
_symmetry_equiv_pos_as_xyz
  x,y,z
_cell_length_a	16.959455
_cell_length_b	16.959454
_cell_length_c	16.959447
_cell_angle_alpha	90.026736
_cell_angle_beta	90.019044
_cell_angle_gamma	90.018257
loop_
_atom_site_label
_atom_site_type_symbol
_atom_site_fract_x
_atom_site_fract_y
_atom_site_fract_z
Zn1	Zn	-1.208384	0.314704	-0.447028
Zn2	Zn	-0.708384	0.814704	0.052972
Zn3	Zn	-1.208306	0.446897	-0.314858
Zn4	Zn	-0.708306	0.946897	0.185142
Zn5	Zn	-1.076212	0.314732	-0.314855
Zn6	Zn	-0.576212	0.814732	0.185145
Zn7	Zn	-1.076177	0.446840	-0.446985
Zn8	Zn	-0.576177	0.946840	0.053015
O9	O	-1.142270	0.380793	-0.380931
O10	O	-0.642270	0.880793	0.119069
O11	O	-1.318984	0.332252	-0.429514
O12	O	-0.818984	0.832252	0.070486
O13	O	-1.190766	0.429400	-0.204246
O14	O	-0.690766	0.929400	0.295754
O15	O	-1.093792	0.204117	-0.332404
O16	O	-0.593792	0.704117	0.167596
O17	O	-1.318927	0.429373	-0.332409
O18	O	-0.818927	0.929373	0.167591
O19	O	-1.190898	0.204097	-0.429511
O20	O	-0.690898	0.704097	0.070489
O21	O	-1.093717	0.332299	-0.204244
O22	O	-0.593717	0.832299	0.295756
O23	O	-0.965597	0.332244	-0.332363
O24	O	-0.465597	0.832244	0.167637
O25	O	-1.093732	0.429277	-0.557602
O26	O	-0.593732	0.929277	-0.057602
O27	O	-0.965571	0.429304	-0.429439
O28	O	-0.465571	0.929304	0.070561
O29	O	-1.190864	0.332197	-0.557633
O30	O	-0.690864	0.832197	-0.057633
O31	O	-1.190732	0.557500	-0.332368
O32	O	-0.690732	1.057500	0.167632
O33	O	-1.093657	0.557459	-0.429442
O34	O	-0.593657	1.057459	0.070558
C35	C	-0.936904	0.380772	-0.380896
C36	C	-0.436904	0.880772	0.119104
C37	C	-0.849047	0.380781	-0.380900
C38	C	-0.349047	0.880781	0.119100
C39	C	-0.807763	0.330174	-0.330436
C40	C	-0.307763	0.830174	0.169564
C41	C	-0.807777	0.431393	-0.431372
C42	C	-0.307777	0.931393	0.068628
C43	C	-0.725231	0.431401	-0.431380
C44	C	-0.225231	0.931401	0.068620
C45	C	-0.683948	0.380794	-0.380917
C46	C	-0.183948	0.880794	0.119083
C47	C	-0.725209	0.330179	-0.330445
C48	C	-0.225209	0.830179	0.169555
C49	C	-0.683963	0.482010	-0.481857
C50	C	-0.183963	0.982010	0.018143
C51	C	-0.601412	0.482019	-0.481868
C52	C	-0.101412	0.982019	0.018132
C53	C	-0.560127	0.431416	-0.431400
C54	C	-0.060127	0.931416	0.068600
C55	C	-0.601394	0.380799	-0.380925
C56	C	-0.101394	0.880799	0.119075
C57	C	-0.560110	0.330192	-0.330461
C58	C	-0.060110	0.830192	0.169539
C59	C	-0.601376	0.279579	-0.279982
C60	C	-0.101376	0.779579	0.220018
C61	C	-0.683924	0.279575	-0.279977
C62	C	-0.183924	0.779575	0.220023
C63	C	-0.477579	0.431419	-0.431405
C64	C	0.022421	0.931419	0.068595
C65	C	-0.477557	0.330197	-0.330470
C66	C	0.022443	0.830197	0.169530
C67	C	-1.142204	0.586160	-0.380918
C68	C	-0.642204	1.086160	0.119082
C69	C	-1.142248	0.674016	-0.380939
C70	C	-0.642248	1.174016	0.119061
C71	C	-1.142303	0.380728	-0.587100
C72	C	-0.642303	0.880728	-0.087100
C73	C	-1.142317	0.380700	-0.674956
C74	C	-0.642317	0.880700	-0.174956
C75	C	-0.348438	0.380812	-0.380957
C76	C	0.151562	0.880812	0.119043
C77	C	-0.436295	0.380812	-0.380942
C78	C	0.063705	0.880812	0.119058
C79	C	-1.142358	0.174625	-0.380962
C80	C	-0.642358	0.674625	0.119038
C81	C	-1.142395	0.086768	-0.380975
C82	C	-0.642395	0.586768	0.119025
C83	C	-1.091796	1.045500	-0.431472
C84	C	-0.591796	1.545500	0.068528
C85	C	-1.192964	1.045483	-0.330471
C86	C	-0.692964	1.545483	0.169529
C87	C	-1.192936	0.962937	-0.330464
C88	C	-0.692936	1.462937	0.169536
C89	C	-1.142337	0.921669	-0.380961
C90	C	-0.642337	1.421669	0.119039
C91	C	-1.091765	0.962947	-0.431465
C92	C	-0.591765	1.462947	0.068535
C93	C	-1.243501	0.921654	-0.279955
C94	C	-0.743501	1.421654	0.220045
C95	C	-1.243475	0.839103	-0.279945
C96	C	-0.743475	1.339103	0.220055
C97	C	-1.192879	0.797833	-0.330446
C98	C	-0.692879	1.297833	0.169554
C99	C	-1.142306	0.839116	-0.380953
C100	C	-0.642306	1.339116	0.119047
C101	C	-1.091707	0.797847	-0.431450
C102	C	-0.591707	1.297847	0.068550
C103	C	-1.041137	0.839128	-0.481962
C104	C	-0.541137	1.339128	0.018038
C105	C	-1.041170	0.921677	-0.481966
C106	C	-0.541170	1.421677	0.018034
C107	C	-1.192847	0.715284	-0.330442
C108	C	-0.692847	1.215284	0.169558
C109	C	-1.091676	0.715294	-0.431443
C110	C	-0.591676	1.215294	0.068557
C111	C	-1.091839	0.431162	-1.046418
C112	C	-0.591839	0.931162	-0.546418
C113	C	-1.192983	0.330072	-1.046446
C114	C	-0.692983	0.830072	-0.546446
C115	C	-1.192962	0.330088	-0.963900
C116	C	-0.692962	0.830088	-0.463900
C117	C	-1.142380	0.380643	-0.922609
C118	C	-0.642380	0.880643	-0.422609
C119	C	-1.091818	0.431182	-0.963865
C120	C	-0.591818	0.931182	-0.463865
C121	C	-1.243529	0.279557	-0.922639
C122	C	-0.743529	0.779557	-0.422639
C123	C	-1.243510	0.279572	-0.840088
C124	C	-0.743510	0.779572	-0.340088
C125	C	-1.192923	0.330124	-0.798795
C126	C	-0.692923	0.830124	-0.298795
C127	C	-1.142359	0.380663	-0.840056
C128	C	-0.642359	0.880663	-0.340056
C129	C	-1.091776	0.431218	-0.798765
C130	C	-0.591776	0.931218	-0.298765
C131	C	-1.041207	0.481755	-0.840024
C132	C	-0.541207	0.981755	-0.340024
C133	C	-1.041231	0.481733	-0.922573
C134	C	-0.541231	0.981733	-0.422573
C135	C	-1.192899	0.330145	-0.716247
C136	C	-0.692899	0.830145	-0.216247
C137	C	-1.091755	0.431238	-0.716212
C138	C	-0.591755	0.931238	-0.216212
C139	C	-1.142283	0.380801	-0.175565
C140	C	-0.642283	0.880801	0.324435
C141	C	-1.142422	0.380607	-0.087709
C142	C	-0.642422	0.880607	0.412291
H143	H	-0.717583	0.523209	-0.522944
H144	H	-0.217583	1.023209	-0.022944
H145	H	-1.000063	0.522880	-0.956173
H146	H	-0.500063	1.022880	-0.456173
H147	H	-0.567751	0.238371	-0.238898
H148	H	-0.067751	0.738371	0.261102
H149	H	-1.284690	0.955260	-0.238837
H150	H	-0.784690	1.455260	0.261163
H151	H	-1.234154	1.079089	-0.289354
H152	H	-0.734154	1.579089	0.210646
C153	C	-1.299206	0.319208	-0.623428
C154	C	-0.799206	0.819208	-0.123428
C155	C	-1.248483	0.274604	-0.670897
C156	C	-0.748483	0.774604	-0.170897
H157	H	-1.333525	0.284915	-0.595437
H158	H	-0.833525	0.784915	-0.095437
H159	H	-1.269075	0.349306	-0.587025
H160	H	-0.769075	0.849306	-0.087025
H161	H	-1.329428	0.353644	-0.655634
H162	H	-0.829428	0.853644	-0.155634
H163	H	-1.218257	0.240172	-0.638691
H164	H	-0.718257	0.740172	-0.138691
H165	H	-1.278617	0.244492	-0.707304
H166	H	-0.778617	0.744492	-0.207304
C167	C	-1.002543	0.813650	-0.615768
C168	C	-0.502543	1.313650	-0.115768
C169	C	-0.985522	0.793761	-0.537469
C170	C	-0.485522	1.293761	-0.037469
H171	H	-0.968206	0.785642	-0.650034
H172	H	-0.468206	1.285642	-0.150034
H173	H	-1.055634	0.800076	-0.627375
H174	H	-0.555634	1.300076	-0.127375
H175	H	-0.995319	0.868721	-0.622999
H176	H	-0.495319	1.368721	-0.122999
H177	H	-0.992751	0.738690	-0.530237
H178	H	-0.492751	1.238690	-0.030237
H179	H	-0.932418	0.807329	-0.525858
H180	H	-0.432418	1.307329	-0.025858
H181	H	-1.050626	1.079115	-0.472600
H182	H	-0.550626	1.579115	0.027400
H183	H	-1.284651	0.805497	-0.238817
H184	H	-0.784651	1.305497	0.261183
H185	H	-0.717530	0.238368	-0.238880
H186	H	-0.217530	0.738368	0.261120
H187	H	-1.234016	0.681677	-0.289312
H188	H	-0.734016	1.181677	0.210688
H189	H	-0.443949	0.288987	-0.289374
H190	H	0.056051	0.788987	0.210626
H191	H	-0.567821	0.523233	-0.522970
H192	H	-0.067821	1.023233	-0.022970
H193	H	-1.284686	0.238422	-0.806502
H194	H	-0.784686	0.738422	-0.306502
C195	C	-0.452209	0.470058	-0.565193
C196	C	0.047791	0.970058	-0.065193
C197	C	-0.432217	0.487040	-0.486891
C198	C	0.067783	0.987040	0.013109
H199	H	-0.424207	0.504401	-0.599448
H200	H	0.075793	1.004401	-0.099448
H201	H	-0.438698	0.416968	-0.576833
H202	H	0.061302	0.916968	-0.076833
H203	H	-0.507281	0.477301	-0.572402
H204	H	-0.007281	0.977301	-0.072402
H205	H	-0.377146	0.479791	-0.479680
H206	H	0.122854	0.979791	0.020320
H207	H	-0.445723	0.540143	-0.475247
H208	H	0.054277	1.040143	0.024753
C209	C	-1.053078	0.689832	-0.565250
C210	C	-0.553078	1.189832	-0.065250
C211	C	-1.036056	0.669935	-0.486954
C212	C	-0.536056	1.169935	0.013046
H213	H	-1.018737	0.661832	-0.599519
H214	H	-0.518737	1.161832	-0.099519
H215	H	-1.106167	0.676254	-0.576860
H216	H	-0.606167	1.176254	-0.076860
H217	H	-1.045860	0.744905	-0.572474
H218	H	-0.545860	1.244905	-0.072474
H219	H	-1.043280	0.614863	-0.479729
H220	H	-0.543280	1.114863	0.020271
H221	H	-0.982954	0.683508	-0.475340
H222	H	-0.482954	1.183508	0.024660
C223	C	-0.833244	0.470045	-0.565151
C224	C	-0.333244	0.970045	-0.065151
C225	C	-0.853157	0.487014	-0.486842
C226	C	-0.353157	0.987014	0.013158
H227	H	-0.861267	0.504382	-0.599396
H228	H	-0.361267	1.004382	-0.099396
H229	H	-0.778183	0.477300	-0.572374
H230	H	-0.278183	0.977300	-0.072374
H231	H	-0.846790	0.416946	-0.576794
H232	H	-0.346790	0.916946	-0.076794
H233	H	-0.839606	0.540112	-0.475197
H234	H	-0.339606	1.040112	0.024803
H235	H	-0.908231	0.479766	-0.479615
H236	H	-0.408231	0.979766	0.020385
H237	H	-1.050665	0.472305	-1.080015
H238	H	-0.550665	0.972305	-0.580015
C239	C	-1.231550	0.196228	-1.071898
C240	C	-0.731550	0.696228	-0.571898
C241	C	-1.248583	0.274505	-1.091830
C242	C	-0.748583	0.774505	-0.591830
H243	H	-1.265880	0.161923	-1.099917
H244	H	-0.765880	0.661923	-0.599917
H245	H	-1.178457	0.184659	-1.085430
H246	H	-0.678457	0.684659	-0.585430
H247	H	-1.238776	0.189014	-1.016829
H248	H	-0.738776	0.689014	-0.516829
H249	H	-1.241352	0.281721	-1.146899
H250	H	-0.741352	0.781721	-0.646899
H251	H	-1.301689	0.286078	-1.078304
H252	H	-0.801689	0.786078	-0.578304
C253	C	-0.991786	0.531171	-0.724477
C254	C	-0.491786	1.031171	-0.224477
C255	C	-1.036159	0.486819	-0.670828
C256	C	-0.536159	0.986819	-0.170828
H257	H	-0.957470	0.565488	-0.696457
H258	H	-0.457470	1.065488	-0.196457
H259	H	-0.961569	0.496721	-0.756671
H260	H	-0.461569	0.996721	-0.256671
H261	H	-1.026229	0.561393	-0.756678
H262	H	-0.526229	1.061393	-0.256678
H263	H	-1.001716	0.456592	-0.638631
H264	H	-0.501716	0.956592	-0.138631
H265	H	-1.066378	0.521273	-0.638620
H266	H	-0.566378	1.021273	-0.138620
H267	H	-0.999998	0.955295	-0.523089
H268	H	-0.499998	1.455295	-0.023089
H269	H	-1.284715	0.238403	-0.956263
H270	H	-0.784715	0.738403	-0.456263
H271	H	-1.000026	0.522920	-0.806395
H272	H	-0.500026	1.022920	-0.306395
H273	H	-0.841365	0.288969	-0.289335
H274	H	-0.341365	0.788969	0.210665
