data_functionalizedCrystal
_audit_creation_method	'MofGen! by Chris Wilmer'
_symmetry_space_group_name_H-M	'P1'
_symmetry_Int_Tables_number	1
_symmetry_cell_setting	triclinic
loop_
_symmetry_equiv_pos_as_xyz
  x,y,z
_cell_length_a	17.699097
_cell_length_b	12.376717
_cell_length_c	17.699092
_cell_angle_alpha	77.306940
_cell_angle_beta	83.287399
_cell_angle_gamma	77.326329
loop_
_atom_site_label
_atom_site_type_symbol
_atom_site_fract_x
_atom_site_fract_y
_atom_site_fract_z
O1	O	0.991142	0.094090	0.082810
O2	O	1.491142	0.594090	0.582810
O3	O	0.770768	0.094071	0.095254
O4	O	1.270768	0.594071	0.595254
O5	O	0.887178	0.094078	-0.021156
O6	O	1.387178	0.594078	0.478844
O7	O	0.874731	0.094083	0.199220
O8	O	1.374731	0.594083	0.699220
O9	O	0.913005	-0.093922	0.004714
O10	O	1.413005	0.406078	0.504714
O11	O	0.796594	-0.093930	0.121124
O12	O	1.296594	0.406070	0.621124
O13	O	1.016968	-0.093911	0.108679
O14	O	1.516968	0.406089	0.608679
Zn15	Zn	0.910882	-0.123769	0.119009
Zn16	Zn	1.410882	0.376231	0.619009
Zn17	Zn	0.876854	0.123930	0.084924
Zn18	Zn	1.376854	0.623930	0.584924
O19	O	0.900558	-0.093918	0.225090
O20	O	1.400558	0.406082	0.725090
C21	C	0.755484	0.000068	0.107742
C22	C	1.255484	0.500068	0.607742
C23	C	0.671468	0.000061	0.106400
C24	C	1.171468	0.500061	0.606400
C25	C	0.141665	0.102586	0.084063
C26	C	0.641665	0.602586	0.584063
C27	C	0.220610	0.102580	0.085320
C28	C	0.720610	0.602580	0.585320
C29	C	0.274155	0.000097	0.100052
C30	C	0.774155	0.500097	0.600052
C31	C	0.248752	-0.102388	0.113519
C32	C	0.748752	0.397612	0.613519
C33	C	0.169809	-0.102382	0.112257
C34	C	0.669809	0.397618	0.612257
C35	C	0.567121	-0.102418	0.118611
C36	C	1.067121	0.397582	0.618611
C37	C	0.646068	-0.102417	0.119875
C38	C	1.146068	0.397583	0.619875
C39	C	0.617921	0.102544	0.091674
C40	C	1.117921	0.602544	0.591674
C41	C	0.538978	0.102551	0.090411
C42	C	1.038978	0.602551	0.590411
C43	C	0.513583	0.000067	0.103875
C44	C	1.013583	0.500067	0.603875
C45	C	0.427982	0.000074	0.102511
C46	C	0.927982	0.500074	0.602511
C47	C	0.359754	0.000088	0.101422
C48	C	0.859754	0.500088	0.601422
N49	N	0.934111	-0.292818	0.142271
N50	N	1.434111	0.207182	0.642271
C51	C	0.988062	-0.351978	0.196256
C52	C	1.488062	0.148022	0.696256
C53	C	1.004340	-0.470311	0.212522
C54	C	1.504340	0.029689	0.712522
C55	C	0.966664	-0.529494	0.174807
C56	C	1.466664	-0.029494	0.674807
C57	C	0.912707	-0.470334	0.120824
C58	C	1.412707	0.029666	0.620824
C59	C	0.896432	-0.351990	0.104553
C60	C	1.396432	0.148010	0.604553
C61	C	0.875034	-0.529506	0.083103
C62	C	1.375034	-0.029506	0.583103
C63	C	0.821078	-0.470345	0.029121
C64	C	1.321078	0.029655	0.529121
C65	C	0.804805	-0.352013	0.012852
C66	C	1.304805	0.147987	0.512852
C67	C	0.842481	-0.292829	0.050567
C68	C	1.342481	0.207171	0.550567
C69	C	0.891310	-0.647850	0.099375
C70	C	1.391310	-0.147850	0.599375
C71	C	0.799680	-0.647862	0.007671
C72	C	1.299680	-0.147862	0.507671
C73	C	0.783402	-0.529529	-0.008594
C74	C	1.283402	-0.029529	0.491406
C75	C	1.032251	0.000094	0.096191
C76	C	1.532251	0.500094	0.596191
C77	C	1.116267	0.000109	0.097532
C78	C	1.616267	0.500109	0.597532
C79	C	0.899644	0.000080	-0.036419
C80	C	1.399644	0.500080	0.463581
C81	C	0.898302	0.000085	-0.120437
C82	C	1.398302	0.500085	0.379563
N83	N	0.853631	0.292978	0.061657
N84	N	1.353631	0.792978	0.561657
C85	C	0.883596	0.102565	-0.174006
C86	C	1.383596	0.602565	0.325994
C87	C	0.882330	0.102567	-0.252950
C88	C	1.382330	0.602567	0.247050
C89	C	0.895778	0.000086	-0.278323
C90	C	1.395778	0.500086	0.221677
C91	C	0.910483	-0.102402	-0.224746
C92	C	1.410483	0.397598	0.275254
C93	C	0.911743	-0.102402	-0.145804
C94	C	1.411743	0.397598	0.354196
C95	C	0.905403	-0.102404	-0.543111
C96	C	1.405403	0.397596	-0.043111
C97	C	0.904145	-0.102396	-0.622061
C98	C	1.404145	0.397604	-0.122061
C99	C	0.875991	0.102565	-0.650257
C100	C	1.375991	0.602565	-0.150257
C101	C	0.877250	0.102565	-0.571315
C102	C	1.377250	0.602565	-0.071315
C103	C	0.891952	0.000077	-0.517745
C104	C	1.391952	0.500077	-0.017745
C105	C	0.893322	0.000077	-0.432146
C106	C	1.393322	0.500077	0.067854
C107	C	0.894413	0.000085	-0.363921
C108	C	1.394413	0.500085	0.136079
C109	C	0.888092	0.000083	0.240352
C110	C	1.388092	0.500083	0.740352
C111	C	0.889432	0.000085	0.324369
C112	C	1.389432	0.500085	0.824369
H113	H	0.689664	-0.185877	0.131872
H114	H	1.189664	0.314123	0.631872
Cl115	Cl	1.035425	-0.277571	0.243655
Cl116	Cl	1.535425	0.222429	0.743655
Cl117	Cl	0.736969	-0.277642	-0.055006
Cl118	Cl	1.236969	0.222358	0.444994
H119	H	0.292356	-0.185833	0.125509
H120	H	0.792356	0.314167	0.625509
Cl121	Cl	0.649851	0.231384	0.074742
Cl122	Cl	1.149851	0.731384	0.574742
H123	H	0.829229	-0.196473	0.037328
H124	H	1.329229	0.303527	0.537328
H125	H	0.739470	-0.481344	-0.052548
H126	H	1.239470	0.018656	0.447452
Cl127	Cl	0.752318	-0.722255	-0.039749
Cl128	Cl	1.252318	-0.222255	0.460251
H129	H	0.915094	-0.185853	-0.642714
H130	H	1.415094	0.314147	-0.142714
H131	H	0.241285	0.186027	0.074347
H132	H	0.741285	0.686027	0.574347
H133	H	0.870358	0.186016	-0.296564
H134	H	1.370358	0.686016	0.203436
Cl135	Cl	0.866695	0.231406	-0.142118
Cl136	Cl	1.366695	0.731406	0.357882
Cl137	Cl	0.923873	-0.231246	-0.475775
Cl138	Cl	1.423873	0.268754	0.024225
Cl139	Cl	0.987126	-0.678258	0.195259
Cl140	Cl	1.487126	-0.178258	0.695259
H141	H	0.098072	0.186040	0.072072
H142	H	0.598072	0.686040	0.572072
Cl143	Cl	0.930231	-0.231240	-0.078459
Cl144	Cl	1.430231	0.268760	0.421541
Cl145	Cl	0.927379	-0.231236	-0.256643
Cl146	Cl	1.427379	0.268764	0.243357
H147	H	0.864016	0.186015	-0.693883
H148	H	1.364016	0.686015	-0.193883
Cl149	Cl	0.959137	-0.722209	0.167237
Cl150	Cl	1.459137	-0.222209	0.667237
H151	H	1.048272	-0.518471	0.256473
H152	H	1.548272	-0.018471	0.756473
H153	H	0.495384	0.186004	0.078419
H154	H	0.995384	0.686004	0.578419
Cl155	Cl	0.137882	-0.231215	0.129183
Cl156	Cl	0.637882	0.268785	0.629183
Cl157	Cl	0.535203	-0.231256	0.135557
Cl158	Cl	1.035203	0.268744	0.635557
H159	H	0.866304	0.186015	-0.550662
H160	H	1.366304	0.686015	-0.050662
