data_functionalizedCrystal
_audit_creation_method	'MofGen! by Chris Wilmer'
_symmetry_space_group_name_H-M	'P1'
_symmetry_Int_Tables_number	1
_symmetry_cell_setting	triclinic
loop_
_symmetry_equiv_pos_as_xyz
  x,y,z
_cell_length_a	6.817900
_cell_length_b	17.513329
_cell_length_c	17.110486
_cell_angle_alpha	95.942660
_cell_angle_beta	99.060439
_cell_angle_gamma	106.556532
loop_
_atom_site_label
_atom_site_type_symbol
_atom_site_fract_x
_atom_site_fract_y
_atom_site_fract_z
V1	V	-3.992678	-0.110090	-0.247454
O2	O	-3.964580	0.005535	-0.241987
O3	O	-3.960067	-0.218525	-0.246489
O4	O	-3.922278	-0.108290	-0.355045
O5	O	-4.002631	-0.105464	-0.132679
V6	V	-4.477111	-0.096273	-0.233638
O7	O	-4.251941	-0.140400	-0.277761
O8	O	-4.668046	-0.065963	-0.203330
O9	O	-4.286516	0.012162	-0.234602
O10	O	-4.622606	-0.211898	-0.239105
O11	O	-4.584556	-0.100899	-0.348412
O12	O	-4.324305	-0.098073	-0.126046
C13	C	-3.809621	-0.244963	-0.242774
C14	C	-3.864097	-0.333610	-0.242702
C15	C	-4.181362	-0.835167	-0.242407
C16	C	-4.130164	-0.751876	-0.242485
C17	C	-3.922671	-0.706178	-0.238554
C18	C	-3.766363	-0.743775	-0.234536
C19	C	-3.817560	-0.827064	-0.234453
C20	C	-3.758987	-0.454495	-0.238601
C21	C	-3.707801	-0.371201	-0.238688
C22	C	-4.071606	-0.379308	-0.246635
C23	C	-4.122789	-0.462599	-0.246556
C24	C	-3.966477	-0.500187	-0.242534
C25	C	-3.870335	-0.621041	-0.238635
C26	C	-4.018812	-0.585322	-0.242447
C27	C	-3.761416	-0.104345	-0.381246
C28	C	-3.785244	-0.103590	-0.469207
C29	C	-3.978305	-0.107216	-0.514589
C30	C	-4.000682	-0.106506	-0.597238
C31	C	-3.829999	-0.102177	-0.634504
C32	C	-3.636921	-0.098549	-0.589115
C33	C	-3.614543	-0.099253	-0.506467
C34	C	-3.888464	-0.099847	-0.883843
C35	C	-3.910860	-0.099146	-0.966497
C36	C	-4.274618	-0.107102	-0.974614
C37	C	-4.252226	-0.107810	-0.891965
C38	C	-4.059149	-0.104178	-0.846583
C39	C	-3.852869	-0.101454	-0.718984
C40	C	-4.036278	-0.104895	-0.762103
C41	C	-4.100305	0.038596	-0.238316
C42	C	-4.025066	0.127241	-0.238393
C43	C	-4.148510	-0.102021	-0.099841
C44	C	-4.103920	-0.102771	-0.011879
H45	H	-4.257442	-0.721273	-0.245757
O46	O	-3.665516	-0.863476	-0.230445
C47	C	-3.516495	-0.829905	-0.159116
H48	H	-3.522413	-0.766993	-0.137331
H49	H	-3.354160	-0.825774	-0.170983
H50	H	-3.552405	-0.869802	-0.111357
H51	H	-4.391218	-0.111334	-0.861629
O52	O	-3.506111	-0.326921	-0.234823
C53	C	-3.379127	-0.377960	-0.231273
H54	H	-3.459479	-0.434584	-0.207184
H55	H	-3.222617	-0.345021	-0.189879
H56	H	-3.352601	-0.395545	-0.293884
O57	O	-4.382944	-0.879612	-0.246364
C58	C	-4.449326	-0.938813	-0.315464
H59	H	-4.348779	-0.918942	-0.361412
H60	H	-4.619476	-0.946953	-0.342107
H61	H	-4.433405	-0.998413	-0.298751
H62	H	-4.187751	-0.622531	-0.245641
H63	H	-3.701389	-0.583825	-0.235436
H64	H	-3.457321	-0.096281	-0.469515
O65	O	-4.144333	-0.111532	-0.478500
C66	C	-4.306389	-0.183159	-0.512350
H67	H	-4.286242	-0.204645	-0.574936
H68	H	-4.463201	-0.171169	-0.516376
H69	H	-4.300770	-0.231581	-0.473112
O70	O	-4.324234	-0.507042	-0.250242
C71	C	-4.338814	-0.544663	-0.181488
H72	H	-4.179924	-0.550046	-0.155067
H73	H	-4.457654	-0.607363	-0.198592
H74	H	-4.390653	-0.507006	-0.135212
O75	O	-3.607378	-0.491113	-0.234810
C76	C	-3.651963	-0.549804	-0.303453
H77	H	-3.826192	-0.569389	-0.329867
H78	H	-3.605156	-0.604236	-0.286209
H79	H	-3.560596	-0.523248	-0.349788
H80	H	-4.175243	-0.108417	-0.731758
O81	O	-3.700975	-0.096271	-0.839684
C82	C	-3.631079	-0.027121	-0.780373
H83	H	-3.708628	0.019406	-0.799737
H84	H	-3.454501	-0.000419	-0.772027
H85	H	-3.673586	-0.044433	-0.721394
O86	O	-3.686990	-0.097357	-0.755111
C87	C	-3.616872	-0.164494	-0.743666
H88	H	-3.667653	-0.189267	-0.688546
H89	H	-3.439386	-0.145280	-0.734609
H90	H	-3.686871	-0.213223	-0.798586
H91	H	-3.597413	-0.706560	-0.231330
O92	O	-4.462122	-0.110728	-1.018803
C93	C	-4.531932	-0.179942	-1.078035
H94	H	-4.392695	-0.199512	-1.090621
H95	H	-4.614301	-0.165528	-1.135356
H96	H	-4.645248	-0.230751	-1.056028
O97	O	-4.223302	-0.342731	-0.250389
C98	C	-4.178650	-0.284016	-0.181761
H99	H	-4.072760	-0.299294	-0.131312
H100	H	-4.330253	-0.283039	-0.162137
H101	H	-4.096834	-0.222239	-0.196340
H102	H	-3.771857	-0.095618	-0.996836
H103	H	-4.157886	-0.109454	-0.634184
O104	O	-3.471199	-0.094238	-0.625387
C105	C	-3.427272	-0.024212	-0.661740
H106	H	-3.573213	-0.004431	-0.673914
H107	H	-3.376375	-0.037638	-0.720658
H108	H	-3.296709	0.026057	-0.620046
