data_functionalizedCrystal
_audit_creation_method	'MofGen! by Chris Wilmer'
_symmetry_space_group_name_H-M	'P1'
_symmetry_Int_Tables_number	1
_symmetry_cell_setting	triclinic
loop_
_symmetry_equiv_pos_as_xyz
  x,y,z
_cell_length_a	14.971486
_cell_length_b	11.026607
_cell_length_c	13.448316
_cell_angle_alpha	89.996104
_cell_angle_beta	89.998199
_cell_angle_gamma	96.100073
loop_
_atom_site_label
_atom_site_type_symbol
_atom_site_fract_x
_atom_site_fract_y
_atom_site_fract_z
O1	O	1.212292	0.158181	-0.082572
O2	O	0.954927	0.177123	-0.082599
O3	O	1.062279	-0.009032	-0.082584
O4	O	1.104940	0.344336	-0.082587
O5	O	1.062260	-0.009044	0.082800
O6	O	0.954908	0.177112	0.082785
O7	O	1.212273	0.158169	0.082812
Cu8	Cu	1.083589	0.167639	0.097899
Cu9	Cu	1.083611	0.167653	-0.097686
O10	O	1.104921	0.344324	0.082797
C11	C	0.921457	0.176270	0.000090
C12	C	0.821753	0.173732	0.000079
C13	C	0.782051	0.283093	0.000080
C14	C	0.688368	0.280700	0.000095
C15	C	0.634389	0.168945	0.000102
C16	C	0.674098	0.059576	0.000105
C17	C	0.767779	0.061969	0.000097
C18	C	0.478837	0.054594	0.000118
C19	C	0.385150	0.052200	0.000124
C20	C	0.399426	0.273325	0.000116
C21	C	0.493107	0.275718	0.000109
C22	C	0.532809	0.166348	0.000109
C23	C	1.054400	-0.054260	0.000106
C24	C	1.030939	-0.189008	0.000100
C25	C	1.095719	-0.262720	0.000105
C26	C	1.071472	-0.401989	0.000099
C27	C	1.245743	0.159022	0.000121
C28	C	1.345447	0.161561	0.000125
C29	C	1.112800	0.389552	0.000105
C30	C	1.136261	0.524300	0.000104
N31	N	1.083579	0.167629	0.235463
N32	N	1.083626	0.167654	-0.235251
C33	C	1.131139	0.085233	0.287510
C34	C	1.131145	0.085232	0.391614
C35	C	1.083595	0.167634	0.443668
C36	C	1.036029	0.250033	0.391614
C37	C	1.036019	0.250028	0.287513
C38	C	1.036055	0.250042	0.608594
C39	C	1.036066	0.250049	0.712703
C40	C	1.131181	0.085246	0.712695
C41	C	1.131171	0.085241	0.608594
C42	C	1.083606	0.167642	0.556547
H43	H	0.367096	0.362378	0.000120
C44	C	0.325775	-0.070736	0.000134
N45	N	0.281053	-0.163334	0.000141
C46	C	1.235444	-0.421679	0.000116
N47	N	1.310147	-0.380990	0.000126
C48	C	0.972290	-0.456013	0.000090
N49	N	0.897588	-0.496705	0.000086
C50	C	1.183448	-0.005417	0.230260
N51	N	1.222846	-0.073701	0.187142
H52	H	0.957528	-0.229006	0.000086
C53	C	0.552482	0.398654	0.000105
N54	N	0.597203	0.491252	0.000107
C55	C	1.183478	-0.005405	0.551336
N56	N	1.222874	-0.073684	0.508209
C57	C	1.183499	-0.005401	0.769949
N58	N	1.222905	-0.073671	0.813076
C59	C	0.983753	0.340688	0.769960
N60	N	0.944348	0.408956	0.813087
C61	C	0.522507	-0.065720	0.000115
N62	N	0.555399	-0.156338	0.000106
H63	H	1.169129	-0.222722	0.000119
C64	C	0.983720	0.340675	0.551345
N65	N	0.944302	0.408939	0.508225
H66	H	0.825994	0.374096	0.000073
H67	H	1.169871	0.018139	0.433990
H68	H	0.630141	-0.031417	0.000125
C69	C	0.983708	0.340679	0.230262
N70	N	0.944306	0.408961	0.187141
H71	H	0.800103	-0.027084	0.000096
H72	H	0.656047	0.369753	0.000094
H73	H	0.997308	0.317122	0.434003
