data_functionalizedCrystal
_audit_creation_method	'MofGen! by Chris Wilmer'
_symmetry_space_group_name_H-M	'P1'
_symmetry_Int_Tables_number	1
_symmetry_cell_setting	triclinic
loop_
_symmetry_equiv_pos_as_xyz
  x,y,z
_cell_length_a	19.288859
_cell_length_b	15.995292
_cell_length_c	17.766277
_cell_angle_alpha	89.989466
_cell_angle_beta	89.993887
_cell_angle_gamma	83.301171
loop_
_atom_site_label
_atom_site_type_symbol
_atom_site_fract_x
_atom_site_fract_y
_atom_site_fract_z
O1	O	0.089340	1.110682	-0.062614
O2	O	0.100438	0.866858	-0.062611
O3	O	-0.006225	0.995818	-0.062608
O4	O	0.196002	0.981722	-0.062617
O5	O	-0.006230	0.995796	0.062580
O6	O	0.100432	0.866836	0.062577
O7	O	0.089334	1.110660	0.062574
Cu8	Cu	0.094883	0.988746	0.074007
Cu9	Cu	0.094889	0.988772	-0.074043
O10	O	0.195997	0.981700	0.062572
C11	C	0.099983	0.835653	-0.000016
C12	C	0.098629	0.742705	-0.000015
C13	C	0.093651	0.404986	-0.000023
C14	C	0.170637	0.428006	-0.000306
C15	C	0.172100	0.524676	-0.000021
C16	C	0.096121	0.572532	-0.000020
C17	C	0.057629	0.543564	0.071468
C18	C	0.056702	0.446777	0.071525
C19	C	0.055136	0.446953	-0.070838
C20	C	0.057989	0.543435	-0.071780
C21	C	0.097513	0.667223	-0.000015
C22	C	0.092257	0.310295	-0.000023
C23	C	-0.032105	0.995354	-0.000014
C24	C	-0.109212	0.993995	-0.000016
C25	C	-0.673092	1.060470	-0.000036
C26	C	-0.600642	1.061754	-0.000030
C27	C	-0.556119	0.986087	-0.000029
C28	C	-0.584050	0.909129	-0.000016
C29	C	-0.656499	0.907847	-0.000015
C30	C	-0.434980	0.929662	-0.043886
C31	C	-0.362533	0.930947	-0.043892
C32	C	-0.332663	0.990038	-0.000028
C33	C	-0.375251	1.047857	0.043831
C34	C	-0.447699	1.046575	0.043832
C35	C	-0.477560	0.987468	-0.000030
C36	C	-0.226182	1.068383	-0.000029
C37	C	-0.153731	1.069664	-0.000018
C38	C	-0.137140	0.917036	-0.000011
C39	C	-0.209590	0.915757	-0.000015
C40	C	-0.254107	0.991433	-0.000028
C41	C	0.221877	0.982164	-0.000024
C42	C	0.298984	0.983523	-0.000027
N43	N	0.094878	0.988733	0.178137
C44	C	0.089789	1.141865	-0.000022
C45	C	0.091143	1.234813	-0.000028
N46	N	0.094889	0.988792	-0.178174
C47	C	0.047671	1.045855	0.217525
C48	C	0.047668	1.045860	0.296327
C49	C	0.094883	0.988751	0.335738
C50	C	0.142094	0.931618	0.296340
C51	C	0.142091	0.931609	0.217540
C52	C	0.158144	0.977539	0.460573
C53	C	0.158148	0.977554	0.539372
C54	C	0.094892	0.988773	0.578784
C55	C	0.031629	0.999995	0.539387
C56	C	0.031627	0.999986	0.460587
C57	C	0.094891	0.988753	0.421183
C58	C	0.047677	1.045903	0.703618
C59	C	0.047673	1.045902	0.782421
C60	C	0.142106	0.931664	0.782433
C61	C	0.142104	0.931661	0.703631
C62	C	0.094890	0.988785	0.664228
H63	H	0.000255	0.432440	0.074773
O64	O	0.187865	0.876109	0.334704
C65	C	0.150649	0.824594	0.380293
H66	H	0.096308	0.858155	0.392097
H67	H	0.179639	0.811244	0.435704
H68	H	0.145908	0.762727	0.349943
O69	O	0.208362	0.546520	0.061139
C70	C	0.266169	0.586127	0.037348
H71	H	0.280444	0.566212	-0.022820
H72	H	0.312454	0.566846	0.076002
H73	H	0.252355	0.657351	0.039624
H74	H	0.180533	0.885093	0.185469
H75	H	-0.327864	0.883871	-0.079608
O76	O	0.219552	0.966763	0.422205
C77	C	0.225177	1.037820	0.376620
H78	H	0.170865	1.071467	0.364821
H79	H	0.251530	1.016940	0.321206
H80	H	0.257683	1.082512	0.406970
O81	O	0.084010	0.413230	-0.135465
C82	C	0.154950	0.426470	-0.138588
H83	H	0.163875	0.482408	-0.101543
H84	H	0.169706	0.439906	-0.199166
H85	H	0.188634	0.367802	-0.117583
O86	O	0.208175	0.547192	-0.061094
C87	C	0.277003	0.506439	-0.058355
H88	H	0.291101	0.488463	0.002299
H89	H	0.314551	0.550649	-0.080563
H90	H	0.281013	0.447254	-0.094587
O91	O	0.187903	0.876072	0.820672
C92	C	0.176596	0.793231	0.801422
H93	H	0.120983	0.793036	0.779770
H94	H	0.184574	0.751183	0.853253
H95	H	0.215086	0.768487	0.755681
O96	O	-0.009044	0.581936	0.074552
C97	C	-0.021923	0.635652	0.011923
H98	H	0.029659	0.653817	-0.010443
H99	H	-0.056850	0.694820	0.029611
H100	H	-0.048992	0.601758	-0.034041
H101	H	0.002532	0.576616	-0.076096
H102	H	0.084355	0.563512	0.124668
O103	O	0.001617	1.101253	0.179399
C104	C	-0.067074	1.087776	0.198851
H105	H	-0.067306	1.020697	0.220458
H106	H	-0.102063	1.097568	0.147136
H107	H	-0.087398	1.134165	0.244688
O108	O	0.219659	0.966607	0.577521
C109	C	0.275490	0.956712	0.525840
H110	H	0.256268	0.933776	0.469679
H111	H	0.318698	0.908659	0.548615
H112	H	0.296650	1.019696	0.517437
H113	H	0.086016	0.561907	-0.124666
O114	O	-0.093871	0.843552	-0.000145
C115	C	-0.051449	0.839744	-0.064970
H116	H	-0.077984	0.882670	-0.110289
H117	H	-0.043289	0.772269	-0.086731
H118	H	0.001229	0.861213	-0.050312
O119	O	0.206152	0.394461	-0.061391
C120	C	0.264393	0.339405	-0.037427
H121	H	0.279414	0.356934	0.022084
H122	H	0.310128	0.344805	-0.077079
H123	H	0.250731	0.271959	-0.037910
H124	H	-0.019884	1.009121	0.428514
O125	O	-0.126638	1.144437	-0.000158
C126	C	-0.149394	1.190559	-0.064992
H127	H	-0.164448	1.145558	-0.110305
H128	H	-0.105510	1.226020	-0.086756
H129	H	-0.196623	1.237396	-0.050342
O130	O	-0.716407	1.133923	0.000056
C131	C	-0.758803	1.137752	0.064902
H132	H	-0.762454	1.071303	0.086525
H133	H	-0.813260	1.169148	0.050317
H134	H	-0.734981	1.175903	0.110299
O135	O	-0.236754	0.841031	0.000115
C136	C	-0.278185	0.835720	0.064941
H137	H	-0.261064	0.879401	0.110259
H138	H	-0.271674	0.768208	0.086704
H139	H	-0.335320	0.855256	0.050281
O140	O	-0.463881	0.872233	-0.086576
C141	C	-0.410760	0.821474	-0.125281
H142	H	-0.362828	0.856558	-0.130568
H143	H	-0.430081	0.806367	-0.183806
H144	H	-0.396416	0.760453	-0.092769
H145	H	-0.019880	1.009130	0.571475
O146	O	-0.573623	1.136578	-0.000081
C147	C	-0.628450	1.203095	-0.000073
H148	H	-0.677663	1.179812	-0.023762
H149	H	-0.613316	1.256832	-0.036434
H150	H	-0.638706	1.226430	0.059981
O151	O	0.088436	0.414758	0.135346
C152	C	0.052194	0.450382	0.198713
H153	H	0.021753	0.513165	0.182404
H154	H	0.091073	0.460939	0.245093
H155	H	0.014451	0.405850	0.219884
O156	O	0.188064	0.876262	0.665401
C157	C	0.256827	0.889598	0.684658
H158	H	0.257186	0.956635	0.706303
H159	H	0.291684	0.879828	0.632835
H160	H	0.277215	0.843117	0.730408
O161	O	-0.488964	1.102766	0.086507
C162	C	-0.447075	1.155214	0.125209
H163	H	-0.391714	1.121959	0.130507
H164	H	-0.469619	1.169592	0.183730
H165	H	-0.446018	1.216501	0.092688
O166	O	0.001928	1.101515	0.665328
C167	C	0.039179	1.153005	0.619752
H168	H	0.093967	1.154131	0.643493
H169	H	0.010905	1.219688	0.618894
H170	H	0.042787	1.126834	0.560018
O171	O	0.205729	0.393230	0.060571
C172	C	0.161017	0.348134	0.103402
H173	H	0.104422	0.373482	0.091239
H174	H	0.172325	0.355858	0.165836
H175	H	0.170150	0.278598	0.087765
H176	H	-0.001531	0.433175	-0.071320
H177	H	-0.547795	0.847519	-0.000013
H178	H	-0.350933	1.095969	0.079554
O179	O	-0.269460	1.141867	-0.000165
C180	C	-0.311868	1.145694	-0.064993
H181	H	-0.285321	1.102786	-0.110309
H182	H	-0.320027	1.213177	-0.086756
H183	H	-0.364548	1.124216	-0.050337
O184	O	-0.683512	0.833023	-0.000045
C185	C	-0.628682	0.766508	-0.000020
H186	H	-0.579466	0.789794	-0.023718
H187	H	-0.643809	0.712771	-0.036364
H188	H	-0.618435	0.743172	0.060041
O189	O	0.001904	1.101388	0.334679
C190	C	0.039126	1.152914	0.380224
H191	H	0.093466	1.119352	0.392029
H192	H	0.010141	1.166283	0.435638
H193	H	0.043868	1.214771	0.349836
H194	H	0.009228	1.092415	0.814492
