data_functionalizedCrystal
_audit_creation_method	'MofGen! by Chris Wilmer'
_symmetry_space_group_name_H-M	'P1'
_symmetry_Int_Tables_number	1
_symmetry_cell_setting	triclinic
loop_
_symmetry_equiv_pos_as_xyz
  x,y,z
_cell_length_a	14.560438
_cell_length_b	21.606444
_cell_length_c	14.560438
_cell_angle_alpha	60.001537
_cell_angle_beta	90.001605
_cell_angle_gamma	60.000320
loop_
_atom_site_label
_atom_site_type_symbol
_atom_site_fract_x
_atom_site_fract_y
_atom_site_fract_z
Zr1	Zr	0.884741	0.677459	-0.120479
O2	O	0.738091	0.806576	-0.267123
O3	O	0.929698	0.548340	-0.075529
O4	O	0.929695	0.677460	-0.267126
O5	O	0.738097	0.677455	0.075615
O6	O	1.080833	0.677462	-0.267124
O7	O	0.738095	0.677457	-0.075526
O8	O	1.080839	0.446490	0.075609
O9	O	0.738090	0.908427	-0.267118
O10	O	1.061663	0.601450	-0.056351
O11	O	0.948871	0.601448	0.056441
O12	O	0.948867	0.753470	-0.169140
O13	O	0.836075	0.753468	-0.056347
Zr14	Zr	1.125791	0.677460	0.120576
Zr15	Zr	1.125789	0.677461	-0.120475
Zr16	Zr	0.884743	0.677457	0.120573
Zr17	Zr	0.884738	0.839899	-0.120471
Zr18	Zr	1.125794	0.515019	0.120569
O19	O	1.080834	0.806578	0.075626
O20	O	1.080831	0.806580	-0.267118
O21	O	0.738095	0.806574	0.075621
O22	O	1.272441	0.548342	0.267221
O23	O	1.272438	0.548344	-0.075523
O24	O	0.929701	0.548338	0.267215
O25	O	1.272436	0.677463	-0.075517
O26	O	1.080838	0.677458	0.267224
O27	O	0.929699	0.677456	0.267221
O28	O	1.272437	0.677462	0.075623
O29	O	0.929691	0.908429	-0.267115
O30	O	1.080841	0.446489	0.267213
O31	O	1.272442	0.446491	0.267216
O32	O	1.272440	0.446492	0.075612
O33	O	0.738092	0.908426	-0.075515
O34	O	0.929693	0.908428	-0.075511
O35	O	1.061665	0.601448	0.169238
O36	O	1.174457	0.601451	0.056445
O37	O	1.061661	0.753470	-0.056344
O38	O	0.948869	0.753468	0.056449
C39	C	1.005269	0.474271	0.000039
C40	C	1.005270	0.405311	0.000036
C41	C	1.064144	0.372914	-0.058842
C42	C	1.064148	0.308114	-0.058835
C43	C	1.005271	0.275717	0.000045
C44	C	0.946396	0.308116	0.058930
C45	C	0.946399	0.372910	0.058929
C46	C	0.946382	0.046806	0.058940
C47	C	0.946381	-0.017991	0.058934
C48	C	1.064131	-0.017989	-0.058824
C49	C	1.064135	0.046805	-0.058826
C50	C	1.005265	0.079195	0.000064
C51	C	1.005263	0.149458	0.000057
C52	C	1.005266	0.205460	0.000046
C53	C	0.703752	0.677456	0.000044
C54	C	0.601420	0.677454	0.000042
C55	C	0.612220	0.598103	0.058917
C56	C	0.516065	0.598107	0.058927
C57	C	0.398314	0.756821	-0.058821
C58	C	0.494468	0.756816	-0.058824
C59	C	0.719173	0.518742	0.117783
C60	C	0.729978	0.439384	0.176661
C61	C	0.633823	0.439388	0.176671
C62	C	0.526863	0.518750	0.117803
C63	C	1.306780	0.677463	0.000054
C64	C	1.409112	0.677464	0.000055
C65	C	1.005263	0.677461	-0.301470
C66	C	1.005262	0.677462	-0.403802
C67	C	1.005263	0.880647	0.000059
C68	C	1.005262	0.949607	0.000062
C69	C	1.088535	0.677456	-0.548024
C70	C	1.088529	0.677462	-0.451877
C71	C	0.921989	0.677465	-0.451887
C72	C	0.921991	0.677465	-0.548037
C73	C	1.171814	0.677447	-0.596087
C74	C	1.255087	0.677446	-0.548010
C75	C	1.255081	0.677452	-0.451863
C76	C	1.171803	0.677459	-0.403792
C77	C	1.005269	0.677457	0.301567
C78	C	1.005270	0.677456	0.403900
C79	C	1.306784	0.474275	0.000044
C80	C	1.409116	0.405316	0.000042
C81	C	1.005272	0.474269	0.301558
C82	C	1.005274	0.405308	0.403887
C83	C	1.306786	0.474272	0.301562
C84	C	1.409119	0.405313	0.403893
C85	C	0.703746	0.880646	-0.301465
C86	C	0.601413	0.949606	-0.403796
C87	C	0.703748	0.880644	0.000054
C88	C	0.601416	0.949603	0.000055
C89	C	1.005260	0.880649	-0.301460
C90	C	1.005258	0.949610	-0.403789
C91	C	1.398295	0.372931	-0.058847
C92	C	1.494438	0.308146	-0.058871
C93	C	1.601400	0.275742	0.000001
C94	C	1.612219	0.308132	0.058892
C95	C	1.516077	0.372921	0.058909
C96	C	1.064152	0.372924	0.510830
C97	C	1.064150	0.308136	0.606989
C98	C	1.005275	0.275731	0.596201
C99	C	0.946390	0.308122	0.489247
C100	C	0.946386	0.372912	0.393091
C101	C	1.516062	0.372930	0.393073
C102	C	1.612225	0.308144	0.489214
C103	C	1.601441	0.275737	0.596176
C104	C	1.494487	0.308127	0.606994
C105	C	1.398327	0.372916	0.510854
C106	C	0.494470	0.981997	-0.392975
C107	C	0.398308	1.046803	-0.489117
C108	C	0.409091	1.079212	-0.596078
C109	C	0.516045	1.046819	-0.606897
C110	C	0.612205	0.982018	-0.510756
C111	C	0.612237	0.981994	0.058935
C112	C	0.516094	1.046797	0.058932
C113	C	0.409132	1.079203	0.000056
C114	C	0.398313	1.046810	-0.058830
C115	C	0.494455	0.982012	-0.058834
C116	C	1.064144	0.981995	-0.392966
C117	C	1.064164	1.046783	-0.489106
C118	C	1.005291	1.079188	-0.596068
C119	C	0.946403	1.046797	-0.606890
C120	C	0.946390	0.982006	-0.510751
H121	H	1.112073	0.073185	-0.106775
N122	N	0.882887	-0.052946	0.122452
H123	H	0.800520	-0.003516	0.091583
H124	H	0.913875	-0.079846	0.204804
H125	H	0.485668	0.955612	-0.305890
N126	N	0.645461	0.353805	0.240172
H127	H	0.687946	0.319105	0.322537
H128	H	0.687890	0.319186	0.209189
H129	H	0.699280	0.955646	-0.519580
N130	N	0.832188	0.677454	-0.400027
H131	H	0.779439	0.677453	-0.445073
H132	H	0.788517	0.731418	-0.400168
N133	N	1.005286	0.205848	0.699918
H134	H	1.051525	0.190252	0.769299
H135	H	1.038773	0.152125	0.699868
H136	H	0.448572	0.518747	0.117823
H137	H	0.898455	0.281727	0.480480
N138	N	0.882811	0.407883	0.277746
H139	H	0.845498	0.377533	0.285514
H140	H	0.936814	0.396634	0.235226
H141	H	0.311211	1.073205	-0.106765
H142	H	0.524925	1.073161	0.106889
H143	H	0.797474	0.518729	0.117779
H144	H	1.311253	0.399274	0.519680
N145	N	0.882856	0.947095	-0.522446
H146	H	0.823598	0.958379	-0.485190
H147	H	0.936914	0.882064	-0.485204
N148	N	0.482771	0.947068	-0.122323
H149	H	0.559900	0.901098	-0.113397
H150	H	0.440247	0.996553	-0.204660
H151	H	1.112105	0.281771	0.694066
H152	H	1.699303	0.281779	0.480385
H153	H	1.485607	0.281782	-0.106827
H154	H	1.524864	0.399305	0.305988
H155	H	0.898451	0.073168	0.106896
H156	H	1.171799	0.677473	-0.325509
N157	N	1.705161	0.205858	0.699865
H158	H	1.774542	0.190263	0.676770
H159	H	1.705116	0.152133	0.746101
N160	N	1.705086	0.205863	-0.000027
H161	H	1.705116	0.152102	0.033473
H162	H	1.774439	0.190315	0.046184
N163	N	0.282960	1.081731	-0.477434
H164	H	0.290729	1.051357	-0.395084
H165	H	0.240493	1.070462	-0.514768
N166	N	1.482865	0.273170	0.722362
H167	H	1.560015	0.227210	0.781616
H168	H	1.440360	0.246325	0.731274
H169	H	0.854187	0.677466	-0.587182
H170	H	0.330782	1.131977	-0.674353
H171	H	0.898470	1.073191	-0.693991
N172	N	0.527667	1.081778	-0.722265
H173	H	0.450517	1.127739	-0.781518
H174	H	0.570172	1.032298	-0.731183
H175	H	0.898463	0.281728	0.106878
N176	N	1.171821	0.677438	-0.699785
H177	H	1.237210	0.677432	-0.722940
H178	H	1.099048	0.731405	-0.762918
H179	H	1.005310	1.131946	-0.674342
H180	H	0.485670	0.821431	-0.106743
H181	H	0.699323	0.955613	0.106886
N182	N	0.305440	1.149092	0.000065
H183	H	0.328536	1.164688	0.046305
H184	H	0.259204	1.126494	0.033550
H185	H	1.112086	0.955621	-0.305880
N186	N	0.882907	0.407851	0.122439
H187	H	0.845607	0.377496	0.159740
H188	H	0.823715	0.472895	0.068383
H189	H	1.112116	1.073149	-0.480273
H190	H	0.817068	0.374771	0.224596
H191	H	1.699321	0.281739	0.106824
H192	H	1.112082	0.399292	-0.106795
H193	H	1.112088	0.281737	-0.106777
H194	H	0.311223	0.821434	-0.106751
H195	H	1.322884	0.677447	-0.587160
H196	H	1.112071	-0.044371	-0.106771
N197	N	1.344882	0.677462	-0.400014
H198	H	1.397634	0.677457	-0.445055
H199	H	1.388548	0.623497	-0.320079
H200	H	1.311209	0.399315	-0.106802
H201	H	1.524904	0.399280	0.106870
H202	H	1.112095	0.399301	0.519635
