data_functionalizedCrystal
_audit_creation_method	'MofGen! by Chris Wilmer'
_symmetry_space_group_name_H-M	'P1'
_symmetry_Int_Tables_number	1
_symmetry_cell_setting	triclinic
loop_
_symmetry_equiv_pos_as_xyz
  x,y,z
_cell_length_a	29.839131
_cell_length_b	21.395364
_cell_length_c	21.395355
_cell_angle_alpha	90.024552
_cell_angle_beta	90.020172
_cell_angle_gamma	90.056371
loop_
_atom_site_label
_atom_site_type_symbol
_atom_site_fract_x
_atom_site_fract_y
_atom_site_fract_z
Zn1	Zn	-0.178726	0.957813	0.354254
Zn2	Zn	0.071274	1.207813	0.604254
Zn3	Zn	0.321274	1.457813	0.854254
Zn4	Zn	0.571274	1.707813	1.104254
Zn5	Zn	-0.253841	0.957696	0.249474
Zn6	Zn	-0.003841	1.207696	0.499474
Zn7	Zn	0.246159	1.457696	0.749474
Zn8	Zn	0.496159	1.707696	0.999474
Zn9	Zn	-0.178746	0.853028	0.249491
Zn10	Zn	0.071254	1.103028	0.499491
Zn11	Zn	0.321254	1.353028	0.749491
Zn12	Zn	0.571254	1.603028	0.999491
Zn13	Zn	-0.253849	0.852977	0.354214
Zn14	Zn	-0.003849	1.102977	0.604214
Zn15	Zn	0.246151	1.352977	0.854214
Zn16	Zn	0.496151	1.602977	1.104214
O17	O	-0.216291	0.905378	0.301858
O18	O	0.033709	1.155378	0.551858
O19	O	0.283709	1.405378	0.801858
O20	O	0.533709	1.655378	1.051858
O21	O	-0.188679	1.045475	0.340365
O22	O	0.061321	1.295475	0.590365
O23	O	0.311321	1.545475	0.840365
O24	O	0.561321	1.795475	1.090365
O25	O	-0.243885	0.943783	0.161798
O26	O	0.006115	1.193783	0.411798
O27	O	0.256115	1.443783	0.661798
O28	O	0.506115	1.693783	0.911798
O29	O	-0.115876	0.866998	0.263412
O30	O	0.134124	1.116998	0.513412
O31	O	0.384124	1.366998	0.763412
O32	O	0.634124	1.616998	1.013412
O33	O	-0.243866	1.045389	0.263383
O34	O	0.006134	1.295389	0.513383
O35	O	0.256134	1.545389	0.763383
O36	O	0.506134	1.795389	1.013383
O37	O	-0.115862	0.943983	0.340381
O38	O	0.134138	1.193983	0.590381
O39	O	0.384138	1.443983	0.840381
O40	O	0.634138	1.693983	1.090381
O41	O	-0.188712	0.866884	0.161811
O42	O	0.061288	1.116884	0.411811
O43	O	0.311288	1.366884	0.661811
O44	O	0.561288	1.616884	0.911811
O45	O	-0.188720	0.765343	0.263373
O46	O	0.061280	1.015343	0.513373
O47	O	0.311280	1.265343	0.763373
O48	O	0.561280	1.515343	1.013373
O49	O	-0.243879	0.866912	0.441897
O50	O	0.006121	1.116912	0.691897
O51	O	0.256121	1.366912	0.941897
O52	O	0.506121	1.616912	1.191897
O53	O	-0.243898	0.765306	0.340313
O54	O	0.006102	1.015306	0.590313
O55	O	0.256102	1.265306	0.840313
O56	O	0.506102	1.515306	1.090313
O57	O	-0.188687	0.943934	0.441927
O58	O	0.061313	1.193934	0.691927
O59	O	0.311313	1.443934	0.941927
O60	O	0.561313	1.693934	1.191927
O61	O	-0.316710	0.943734	0.263344
O62	O	-0.066710	1.193734	0.513344
O63	O	0.183290	1.443734	0.763344
O64	O	0.433290	1.693734	1.013344
O65	O	-0.316716	0.866798	0.340296
O66	O	-0.066716	1.116798	0.590296
O67	O	0.183284	1.366798	0.840296
O68	O	0.433284	1.616798	1.090296
C69	C	-0.216313	0.742591	0.301841
C70	C	0.033687	0.992591	0.551841
C71	C	0.283687	1.242591	0.801841
C72	C	0.533687	1.492591	1.051841
C73	C	-0.216333	0.672949	0.301848
C74	C	0.033667	0.922949	0.551848
C75	C	0.283667	1.172949	0.801848
C76	C	0.533667	1.422949	1.051848
C77	C	-0.187644	0.640303	0.341994
C78	C	0.062356	0.890303	0.591994
C79	C	0.312356	1.140303	0.841994
C80	C	0.562356	1.390303	1.091994
C81	C	-0.187632	0.574868	0.341997
C82	C	0.062368	0.824868	0.591997
C83	C	0.312368	1.074868	0.841997
C84	C	0.562368	1.324868	1.091997
C85	C	-0.216317	0.542081	0.301859
C86	C	0.033683	0.792081	0.551859
C87	C	0.283683	1.042081	0.801859
C88	C	0.533683	1.292081	1.051859
C89	C	-0.245008	0.574735	0.261705
C90	C	0.004992	0.824735	0.511705
C91	C	0.254992	1.074735	0.761705
C92	C	0.504992	1.324735	1.011705
C93	C	-0.245016	0.640169	0.261699
C94	C	0.004984	0.890169	0.511699
C95	C	0.254984	1.140169	0.761699
C96	C	0.504984	1.390169	1.011699
C97	C	-0.256775	0.438346	0.296820
C98	C	-0.006775	0.688346	0.546820
C99	C	0.243225	0.938346	0.796820
C100	C	0.493225	1.188346	1.046820
C101	C	-0.256768	0.372913	0.296830
C102	C	-0.006768	0.622913	0.546830
C103	C	0.243232	0.872913	0.796830
C104	C	0.493232	1.122913	1.046830
C105	C	-0.216292	0.340260	0.301873
C106	C	0.033708	0.590260	0.551873
C107	C	0.283708	0.840260	0.801873
C108	C	0.533708	1.090260	1.051873
C109	C	-0.175823	0.373048	0.306919
C110	C	0.074177	0.623048	0.556919
C111	C	0.324177	0.873048	0.806919
C112	C	0.574177	1.123048	1.056919
C113	C	-0.175831	0.438483	0.306914
C114	C	0.074169	0.688483	0.556914
C115	C	0.324169	0.938483	0.806914
C116	C	0.574169	1.188483	1.056914
C117	C	-0.216311	0.471129	0.301861
C118	C	0.033689	0.721129	0.551861
C119	C	0.283689	0.971129	0.801861
C120	C	0.533689	1.221129	1.051861
C121	C	-0.187588	0.236662	0.342024
C122	C	0.062412	0.486662	0.592024
C123	C	0.312412	0.736662	0.842024
C124	C	0.562412	0.986662	1.092024
C125	C	-0.187575	0.171225	0.342022
C126	C	0.062425	0.421225	0.592022
C127	C	0.312425	0.671225	0.842022
C128	C	0.562425	0.921225	1.092022
C129	C	-0.244955	0.171093	0.261734
C130	C	0.005045	0.421093	0.511734
C131	C	0.255045	0.671093	0.761734
C132	C	0.505045	0.921093	1.011734
C133	C	-0.244964	0.236529	0.261733
C134	C	0.005036	0.486529	0.511733
C135	C	0.255036	0.736529	0.761733
C136	C	0.505036	0.986529	1.011733
C137	C	-0.216281	0.269309	0.301881
C138	C	0.033719	0.519309	0.551881
C139	C	0.283719	0.769309	0.801881
C140	C	0.533719	1.019309	1.051881
C141	C	-0.333013	0.905265	0.301827
C142	C	-0.083013	1.155265	0.551827
C143	C	0.166987	1.405265	0.801827
C144	C	0.416987	1.655265	1.051827
C145	C	-0.382948	0.905274	0.301835
C146	C	-0.132948	1.155274	0.551835
C147	C	0.117052	1.405274	0.801835
C148	C	0.367052	1.655274	1.051835
C149	C	-0.692575	0.945512	0.261848
C150	C	-0.442575	1.195512	0.511848
C151	C	-0.192575	1.445512	0.761848
C152	C	0.057425	1.695512	1.011848
C153	C	-0.880248	0.945589	0.261872
C154	C	-0.630248	1.195589	0.511872
C155	C	-0.380248	1.445589	0.761872
C156	C	-0.130248	1.695589	1.011872
O157	O	-0.904500	0.979711	0.227850
O158	O	-0.654500	1.229711	0.477850
O159	O	-0.404500	1.479711	0.727850
O160	O	-0.154500	1.729711	0.977850
N161	N	-0.903733	0.905508	0.301905
N162	N	-0.653733	1.155508	0.551905
N163	N	-0.403733	1.405508	0.801905
N164	N	-0.153733	1.655508	1.051905
C165	C	-0.880296	0.865408	0.341939
C166	C	-0.630296	1.115408	0.591939
C167	C	-0.380296	1.365408	0.841939
C168	C	-0.130296	1.615408	1.091939
O169	O	-0.904577	0.831323	0.375994
O170	O	-0.654577	1.081323	0.625994
O171	O	-0.404577	1.331323	0.875994
O172	O	-0.154577	1.581323	1.125994
C173	C	-0.692624	0.865334	0.341917
C174	C	-0.442624	1.115334	0.591917
C175	C	-0.192624	1.365334	0.841917
C176	C	0.057376	1.615334	1.091917
C177	C	-0.669142	0.905413	0.301876
C178	C	-0.419142	1.155413	0.551876
C179	C	-0.169142	1.405413	0.801876
C180	C	0.080858	1.655413	1.051876
C181	C	-0.669093	0.985588	0.221811
C182	C	-0.419093	1.235588	0.471811
C183	C	-0.169093	1.485588	0.721811
C184	C	0.080907	1.735588	0.971811
C185	C	-0.622178	0.985566	0.221803
C186	C	-0.372178	1.235566	0.471803
C187	C	-0.122178	1.485566	0.721803
C188	C	0.127822	1.735566	0.971803
C189	C	-0.598744	0.945467	0.261832
C190	C	-0.348744	1.195467	0.511832
C191	C	-0.098744	1.445467	0.761832
C192	C	0.151256	1.695467	1.011832
C193	C	-0.622226	0.905391	0.301868
C194	C	-0.372226	1.155391	0.551868
C195	C	-0.122226	1.405391	0.801868
C196	C	0.127774	1.655391	1.051868
C197	C	-0.669188	0.825238	0.381953
C198	C	-0.419188	1.075238	0.631953
C199	C	-0.169188	1.325238	0.881953
C200	C	0.080812	1.575238	1.131953
C201	C	-0.622267	0.825224	0.381945
C202	C	-0.372267	1.075224	0.631945
C203	C	-0.122267	1.325224	0.881945
C204	C	0.127733	1.575224	1.131945
C205	C	-0.598785	0.865303	0.341904
C206	C	-0.348785	1.115303	0.591904
C207	C	-0.098785	1.365303	0.841904
C208	C	0.151215	1.615303	1.091904
C209	C	-0.551878	0.865271	0.341889
C210	C	-0.301878	1.115271	0.591889
C211	C	-0.051878	1.365271	0.841889
C212	C	0.198122	1.615271	1.091889
N213	N	-0.528393	0.905351	0.301856
N214	N	-0.278393	1.155351	0.551856
N215	N	-0.028393	1.405351	0.801856
N216	N	0.221607	1.655351	1.051856
C217	C	-0.551827	0.945450	0.261827
C218	C	-0.301827	1.195450	0.511827
C219	C	-0.051827	1.445450	0.761827
C220	C	0.198173	1.695450	1.011827
C221	C	-0.978827	0.865449	0.341946
C222	C	-0.728827	1.115449	0.591946
C223	C	-0.478827	1.365449	0.841946
C224	C	-0.228827	1.615449	1.091946
C225	C	-1.025744	0.865466	0.341951
C226	C	-0.775744	1.115466	0.591951
C227	C	-0.525744	1.365466	0.841951
C228	C	-0.275744	1.615466	1.091951
C229	C	-1.025694	0.945648	0.261885
C230	C	-0.775694	1.195648	0.511885
C231	C	-0.525694	1.445648	0.761885
C232	C	-0.275694	1.695648	1.011885
C233	C	-0.978775	0.945627	0.261878
C234	C	-0.728775	1.195627	0.511878
C235	C	-0.478775	1.445627	0.761878
C236	C	-0.228775	1.695627	1.011878
C237	C	-0.955342	0.905530	0.301913
C238	C	-0.705342	1.155530	0.551913
C239	C	-0.455342	1.405530	0.801913
C240	C	-0.205342	1.655530	1.051913
C241	C	-0.453301	0.945400	0.261813
C242	C	-0.203301	1.195400	0.511813
C243	C	0.046699	1.445400	0.761813
C244	C	0.296699	1.695400	1.011813
C245	C	-0.406381	0.945372	0.261806
C246	C	-0.156381	1.195372	0.511806
C247	C	0.093619	1.445372	0.761806
C248	C	0.343619	1.695372	1.011806
C249	C	-0.406436	0.865193	0.341874
C250	C	-0.156436	1.115193	0.591874
C251	C	0.093564	1.365193	0.841874
C252	C	0.343564	1.615193	1.091874
C253	C	-0.453352	0.865218	0.341878
C254	C	-0.203352	1.115218	0.591878
C255	C	0.046648	1.365218	0.841878
C256	C	0.296648	1.615218	1.091878
C257	C	-0.476783	0.905326	0.301845
C258	C	-0.226783	1.155326	0.551845
C259	C	0.023217	1.405326	0.801845
C260	C	0.273217	1.655326	1.051845
O261	O	-0.527597	0.831172	0.375898
O262	O	-0.277597	1.081172	0.625898
O263	O	-0.027597	1.331172	0.875898
O264	O	0.222403	1.581172	1.125898
O265	O	-0.527537	0.979540	0.227786
O266	O	-0.277537	1.229540	0.477786
O267	O	-0.027537	1.479540	0.727786
O268	O	0.222463	1.729540	0.977786
C269	C	-0.739491	0.945534	0.261856
C270	C	-0.489491	1.195534	0.511856
C271	C	-0.239491	1.445534	0.761856
C272	C	0.010509	1.695534	1.011856
C273	C	-0.762973	0.905458	0.301893
C274	C	-0.512973	1.155458	0.551893
C275	C	-0.262973	1.405458	0.801893
C276	C	-0.012973	1.655458	1.051893
C277	C	-0.739539	0.865359	0.341921
C278	C	-0.489539	1.115359	0.591921
C279	C	-0.239539	1.365359	0.841921
C280	C	0.010461	1.615359	1.091921
C281	C	-0.809891	0.905475	0.301897
C282	C	-0.559891	1.155475	0.551897
C283	C	-0.309891	1.405475	0.801897
C284	C	-0.059891	1.655475	1.051897
C285	C	-0.833324	0.945574	0.261869
C286	C	-0.583324	1.195574	0.511869
C287	C	-0.333324	1.445574	0.761869
C288	C	-0.083324	1.695574	1.011869
C289	C	-0.809840	0.985654	0.221835
C290	C	-0.559840	1.235654	0.471835
C291	C	-0.309840	1.485654	0.721835
C292	C	-0.059840	1.735654	0.971835
C293	C	-0.762924	0.985632	0.221827
C294	C	-0.512924	1.235632	0.471827
C295	C	-0.262924	1.485632	0.721827
C296	C	-0.012924	1.735632	0.971827
C297	C	-0.763024	0.825278	0.381955
C298	C	-0.513024	1.075278	0.631955
C299	C	-0.263024	1.325278	0.881955
C300	C	-0.013024	1.575278	1.131955
C301	C	-0.809939	0.825303	0.381959
C302	C	-0.559939	1.075303	0.631959
C303	C	-0.309939	1.325303	0.881959
C304	C	-0.059939	1.575303	1.131959
C305	C	-0.833373	0.865402	0.341930
C306	C	-0.583373	1.115402	0.591930
C307	C	-0.333373	1.365402	0.841930
C308	C	-0.083373	1.615402	1.091930
C309	C	-0.099112	0.905509	0.301903
C310	C	0.150888	1.155509	0.551903
C311	C	0.400888	1.405509	0.801903
C312	C	0.650888	1.655509	1.051903
C313	C	-0.049178	0.905565	0.301922
C314	C	0.200822	1.155565	0.551922
C315	C	0.450822	1.405565	0.801922
C316	C	0.700822	1.655565	1.051922
C317	C	-0.216269	1.068802	0.301876
C318	C	0.033731	1.318802	0.551876
C319	C	0.283731	1.568802	0.801876
C320	C	0.533731	1.818802	1.051876
C321	C	-0.216260	1.138443	0.301884
C322	C	0.033740	1.388443	0.551884
C323	C	0.283740	1.638443	0.801884
C324	C	0.533740	1.888443	1.051884
C325	C	-0.216282	0.905430	0.465282
C326	C	0.033718	1.155430	0.715282
C327	C	0.283718	1.405430	0.965282
C328	C	0.533718	1.655430	1.215282
C329	C	-0.216278	0.905452	0.534923
C330	C	0.033722	1.155452	0.784923
C331	C	0.283722	1.405452	1.034923
C332	C	0.533722	1.655452	1.284923
C333	C	-0.216267	0.905362	0.139071
C334	C	0.033733	1.155362	0.389071
C335	C	0.283733	1.405362	0.639071
C336	C	0.533733	1.655362	0.889071
C337	C	-0.216145	0.905462	0.069430
C338	C	0.033855	1.155462	0.319430
C339	C	0.283855	1.405462	0.569430
C340	C	0.533855	1.655462	0.819430
C341	C	-0.187538	0.945556	0.567652
C342	C	0.062462	1.195556	0.817652
C343	C	0.312462	1.445556	1.067652
C344	C	0.562462	1.695556	1.317652
C345	C	-0.187518	0.945555	0.633088
C346	C	0.062482	1.195555	0.883088
C347	C	0.312482	1.445555	1.133088
C348	C	0.562482	1.695555	1.383088
C349	C	-0.216247	0.905457	0.665791
C350	C	0.033753	1.155457	0.915791
C351	C	0.283753	1.405457	1.165791
C352	C	0.533753	1.655457	1.415791
C353	C	-0.244989	0.865346	0.633054
C354	C	0.005011	1.115346	0.883054
C355	C	0.255011	1.365346	1.133054
C356	C	0.505011	1.615346	1.383054
C357	C	-0.245005	0.865343	0.567620
C358	C	0.004995	1.115343	0.817620
C359	C	0.254995	1.365343	1.067620
C360	C	0.504995	1.615343	1.317620
C361	C	-0.256699	0.900471	0.769455
C362	C	-0.006699	1.150471	1.019455
C363	C	0.243301	1.400471	1.269455
C364	C	0.493301	1.650471	1.519455
C365	C	-0.256685	0.900478	0.834888
C366	C	-0.006685	1.150478	1.084888
C367	C	0.243315	1.400478	1.334888
C368	C	0.493315	1.650478	1.584888
C369	C	-0.216200	0.905461	0.867612
C370	C	0.033800	1.155461	1.117612
C371	C	0.283800	1.405461	1.367612
C372	C	0.533800	1.655461	1.617612
C373	C	-0.175728	0.910451	0.834895
C374	C	0.074272	1.160451	1.084895
C375	C	0.324272	1.410451	1.334895
C376	C	0.574272	1.660451	1.584895
C377	C	-0.175743	0.910449	0.769461
C378	C	0.074257	1.160449	1.019461
C379	C	0.324257	1.410449	1.269461
C380	C	0.574257	1.660449	1.519461
C381	C	-0.216234	0.905455	0.736744
C382	C	0.033766	1.155455	0.986744
C383	C	0.283766	1.405455	1.236744
C384	C	0.533766	1.655455	1.486744
C385	C	-0.187436	0.945566	0.971294
C386	C	0.062564	1.195566	1.221294
C387	C	0.312564	1.445566	1.471294
C388	C	0.562564	1.695566	1.721294
C389	C	-0.187416	0.945561	1.036731
C390	C	0.062584	1.195561	1.286731
C391	C	0.312584	1.445561	1.536731
C392	C	0.562584	1.695561	1.786731
C393	C	-0.244891	0.865355	1.036696
C394	C	0.005109	1.115355	1.286696
C395	C	0.255109	1.365355	1.536696
C396	C	0.505109	1.615355	1.786696
C397	C	-0.244907	0.865357	0.971260
C398	C	0.005093	1.115357	1.221260
C399	C	0.255093	1.365357	1.471260
C400	C	0.505093	1.615357	1.721260
C401	C	-0.216180	0.905466	0.938563
C402	C	0.033820	1.155466	1.188563
C403	C	0.283820	1.405466	1.438563
C404	C	0.533820	1.655466	1.688563
H405	H	-0.289720	0.346222	0.292724
H406	H	-0.039720	0.596222	0.542724
H407	H	0.210280	0.846222	0.792724
H408	H	0.460280	1.096222	1.042724
F409	F	-0.157116	0.675187	0.384723
F410	F	0.092884	0.925187	0.634723
F411	F	0.342884	1.175187	0.884723
F412	F	0.592884	1.425187	1.134723
H413	H	-0.164211	0.144646	0.374713
H414	H	0.085789	0.394646	0.624713
H415	H	0.335789	0.644646	0.874713
H416	H	0.585789	0.894646	1.124713
F417	F	-0.156962	0.988241	0.532858
F418	F	0.093038	1.238241	0.782858
F419	F	0.343038	1.488241	1.032858
F420	F	0.593038	1.738241	1.282858
H421	H	-0.268408	0.832683	0.540972
H422	H	-0.018408	1.082683	0.790972
H423	H	0.231592	1.332683	1.040972
H424	H	0.481592	1.582683	1.290972
H425	H	-0.603190	0.792572	0.414548
H426	H	-0.353190	1.042572	0.664548
H427	H	-0.103190	1.292572	0.914548
H428	H	0.146810	1.542572	1.164548
F429	F	-0.275498	0.822674	0.936426
F430	F	-0.025498	1.072674	1.186426
F431	F	0.224502	1.322674	1.436426
F432	F	0.474502	1.572674	1.686426
F433	F	-0.478344	0.822550	0.384482
F434	F	-0.228344	1.072550	0.634482
F435	F	0.021656	1.322550	0.884482
F436	F	0.271656	1.572550	1.134482
H437	H	-0.603062	1.018203	0.189201
H438	H	-0.353062	1.268203	0.439201
H439	H	-0.103062	1.518203	0.689201
H440	H	0.146938	1.768203	0.939201
F441	F	-0.275481	0.136203	0.219013
F442	F	-0.025481	0.386203	0.469013
F443	F	0.224519	0.636203	0.719013
F444	F	0.474519	0.886203	0.969013
F445	F	-0.299793	0.895181	0.734634
F446	F	-0.049793	1.145181	0.984634
F447	F	0.200207	1.395181	1.234634
F448	F	0.450207	1.645181	1.484634
H449	H	-0.268327	0.263109	0.229044
H450	H	-0.018327	0.513109	0.479044
H451	H	0.231673	0.763109	0.729044
H452	H	0.481673	1.013109	0.979044
F453	F	-0.275463	0.822674	1.071497
F454	F	-0.025463	1.072674	1.321497
F455	F	0.224537	1.322674	1.571497
F456	F	0.474537	1.572674	1.821497
H457	H	-0.289737	0.464927	0.292713
H458	H	-0.039737	0.714927	0.542713
H459	H	0.210263	0.964927	0.792713
H460	H	0.460263	1.214927	1.042713
F461	F	-0.737939	1.028292	0.179212
F462	F	-0.487939	1.278292	0.429212
F463	F	-0.237939	1.528292	0.679212
F464	F	0.012061	1.778292	0.929212
H465	H	-0.268363	0.548036	0.229025
H466	H	-0.018363	0.798036	0.479025
H467	H	0.231637	1.048036	0.729025
H468	H	0.481637	1.298036	0.979025
H469	H	-0.164230	0.263353	0.374712
H470	H	0.085770	0.513353	0.624712
H471	H	0.335770	0.763353	0.874712
H472	H	0.585770	1.013353	1.124712
H473	H	-0.289639	0.896418	0.861521
H474	H	-0.039639	1.146418	1.111521
H475	H	0.210361	1.396418	1.361521
H476	H	0.460361	1.646418	1.611521
H477	H	-0.164043	0.978222	0.944671
H478	H	0.085957	1.228222	1.194671
H479	H	0.335957	1.478222	1.444671
H480	H	0.585957	1.728222	1.694671
H481	H	-0.142761	0.914510	0.861537
H482	H	0.107239	1.164510	1.111537
H483	H	0.357239	1.414510	1.361537
H484	H	0.607239	1.664510	1.611537
F485	F	-0.275550	0.674914	0.218967
F486	F	-0.025550	0.924914	0.468967
F487	F	0.224450	1.174914	0.718967
F488	F	0.474450	1.424914	0.968967
F489	F	-0.381393	0.988032	0.219187
F490	F	-0.131393	1.238032	0.469187
F491	F	0.118607	1.488032	0.719187
F492	F	0.368607	1.738032	0.969187
F493	F	-0.275563	0.822669	0.667860
F494	F	-0.025563	1.072669	0.917860
F495	F	0.224437	1.322669	1.167860
F496	F	0.474437	1.572669	1.417860
F497	F	-0.156921	0.988231	0.667928
F498	F	0.093079	1.238231	0.917928
F499	F	0.343079	1.488231	1.167928
F500	F	0.593079	1.738231	1.417928
H501	H	-0.164268	0.548282	0.374688
H502	H	0.085732	0.798282	0.624688
H503	H	0.335732	1.048282	0.874688
H504	H	0.585732	1.298282	1.124688
H505	H	-0.142864	0.346464	0.311026
H506	H	0.107136	0.596464	0.561026
H507	H	0.357136	0.846464	0.811026
H508	H	0.607136	1.096464	1.061026
F509	F	-0.132761	0.473376	0.312282
F510	F	0.117239	0.723376	0.562282
F511	F	0.367239	0.973376	0.812282
F512	F	0.617239	1.223376	1.062282
F513	F	-0.694169	0.782585	0.424575
F514	F	-0.444169	1.032585	0.674575
F515	F	-0.194169	1.282585	0.924575
F516	F	0.055831	1.532585	1.174575
H517	H	-0.828928	1.018302	0.189241
H518	H	-0.578928	1.268302	0.439241
H519	H	-0.328928	1.518302	0.689241
H520	H	-0.078928	1.768302	0.939241
H521	H	-1.044781	0.978298	0.229292
H522	H	-0.794781	1.228298	0.479292
H523	H	-0.544781	1.478298	0.729292
H524	H	-0.294781	1.728298	0.979292
F525	F	-0.381488	0.822521	0.384475
F526	F	-0.131488	1.072521	0.634475
F527	F	0.118512	1.322521	0.884475
F528	F	0.368512	1.572521	1.134475
F529	F	-1.050731	0.822801	0.384560
F530	F	-0.800731	1.072801	0.634560
F531	F	-0.550731	1.322801	0.884560
F532	F	-0.300731	1.572801	1.134560
F533	F	-0.478232	0.988088	0.219205
F534	F	-0.228232	1.238088	0.469205
F535	F	0.021768	1.488088	0.719205
F536	F	0.271768	1.738088	0.969205
H537	H	-0.688168	1.018244	0.189215
H538	H	-0.438168	1.268244	0.439215
H539	H	-0.188168	1.518244	0.689215
H540	H	0.061832	1.768244	0.939215
H541	H	-0.829054	0.792660	0.414564
H542	H	-0.579054	1.042660	0.664564
H543	H	-0.329054	1.292660	0.914564
H544	H	-0.079054	1.542660	1.164564
H545	H	-0.959659	0.978263	0.229274
H546	H	-0.709659	1.228263	0.479274
H547	H	-0.459659	1.478263	0.729274
H548	H	-0.209659	1.728263	0.979274
H549	H	-0.959751	0.832795	0.374548
H550	H	-0.709751	1.082795	0.624548
H551	H	-0.459751	1.332795	0.874548
H552	H	-0.209751	1.582795	1.124548
F553	F	-0.738090	0.782598	0.424562
F554	F	-0.488090	1.032598	0.674562
F555	F	-0.238090	1.282598	0.924562
F556	F	0.011910	1.532598	1.174562
H557	H	-0.142790	0.914510	0.742825
H558	H	0.107210	1.164510	0.992825
H559	H	0.357210	1.414510	1.242825
H560	H	0.607210	1.664510	1.492825
F561	F	-0.156830	0.988254	1.071564
F562	F	0.093170	1.238254	1.321564
F563	F	0.343170	1.488254	1.571564
F564	F	0.593170	1.738254	1.821564
