data_functionalizedCrystal
_audit_creation_method	'MofGen! by Chris Wilmer'
_symmetry_space_group_name_H-M	'P1'
_symmetry_Int_Tables_number	1
_symmetry_cell_setting	triclinic
loop_
_symmetry_equiv_pos_as_xyz
  x,y,z
_cell_length_a	14.908571
_cell_length_b	15.297327
_cell_length_c	14.908308
_cell_angle_alpha	102.308214
_cell_angle_beta	90.175053
_cell_angle_gamma	96.991395
loop_
_atom_site_label
_atom_site_type_symbol
_atom_site_fract_x
_atom_site_fract_y
_atom_site_fract_z
Zn1	Zn	1.259455	-0.470251	-0.663960
Zn2	Zn	1.242018	-0.612780	-0.536750
Zn3	Zn	1.120930	-0.452943	-0.502147
Zn4	Zn	1.083241	-0.611710	-0.678228
O5	O	1.176411	-0.536921	-0.595271
O6	O	1.381564	-0.496849	-0.655596
O7	O	1.234431	-0.584782	-0.405232
O8	O	1.162376	-0.329146	-0.503159
O9	O	1.368753	-0.601565	-0.562136
O10	O	1.264150	-0.341862	-0.622043
O11	O	1.145468	-0.467350	-0.379809
O12	O	0.991508	-0.466312	-0.516994
O13	O	1.098141	-0.599740	-0.803264
O14	O	0.963819	-0.582958	-0.646360
O15	O	1.227605	-0.495811	-0.792781
O16	O	1.197885	-0.738732	-0.575970
O17	O	1.081233	-0.737945	-0.679913
C18	C	0.945402	-0.522641	-0.579471
C19	C	0.846570	-0.516555	-0.572737
C20	C	1.133600	-0.771036	-0.633267
C21	C	1.115365	-0.871198	-0.649557
C22	C	0.632047	-0.626752	-0.694664
C23	C	0.539185	-0.621037	-0.688340
C24	C	0.567982	-0.499405	-0.553769
C25	C	0.660844	-0.505121	-0.560093
C26	C	0.692873	-0.568797	-0.630542
C27	C	0.785736	-0.574516	-0.636861
C28	C	0.814532	-0.452881	-0.502295
C29	C	0.721670	-0.447166	-0.495971
C30	C	1.307088	-1.155071	-0.479176
C31	C	1.324221	-1.060963	-0.463866
C32	C	1.272009	-1.013517	-0.510288
C33	C	1.202660	-1.060188	-0.572022
C34	C	1.185521	-1.154304	-0.587328
C35	C	1.150441	-1.012750	-0.618439
C36	C	1.081092	-1.059421	-0.680173
C37	C	1.063957	-1.153528	-0.695477
C38	C	1.116169	-1.200974	-0.649056
C39	C	1.167580	-0.918634	-0.603133
C40	C	1.046013	-0.917868	-0.711285
C41	C	1.028880	-1.011975	-0.726595
C42	C	1.408322	-0.551257	-0.611134
C43	C	1.507148	-0.557366	-0.617894
C44	C	1.160614	-0.549587	-0.831854
C45	C	1.153882	-0.554984	-0.932671
C46	C	1.219412	-0.301895	-0.557150
C47	C	1.237736	-0.201741	-0.540904
C48	C	1.276044	-0.456884	-1.111201
C49	C	1.269722	-0.461953	-1.205927
C50	C	1.134914	-0.570184	-1.216852
C51	C	1.141235	-0.565116	-1.122125
C52	C	1.211804	-0.508465	-1.069303
C53	C	1.218128	-0.503402	-0.974576
C54	C	1.083317	-0.611628	-0.985501
C55	C	1.076995	-0.616697	-1.080227
C56	C	1.192210	-0.524243	-0.359602
C57	C	1.199160	-0.518602	-0.258756
H58	H	0.658124	-0.678604	-0.752022
C59	C	0.472275	-0.684786	-0.758870
H60	H	0.412382	-0.672260	-0.745020
H61	H	0.477324	-0.745531	-0.756362
H62	H	0.485833	-0.675882	-0.818747
H63	H	1.224045	-0.880644	-0.552868
C64	C	0.532737	-0.429378	-0.476276
H65	H	0.468720	-0.434284	-0.481692
H66	H	0.558122	-0.370502	-0.480845
H67	H	0.549615	-0.440165	-0.418475
C68	C	0.820972	-0.644558	-0.714346
H69	H	0.884988	-0.639671	-0.708925
H70	H	0.804092	-0.633793	-0.772151
H71	H	0.795580	-0.703430	-0.709753
H72	H	1.285962	-0.936891	-0.497817
C73	C	0.987676	-1.204867	-0.763381
H74	H	0.984944	-1.267710	-0.765843
H75	H	0.999389	-1.193473	-0.822706
H76	H	0.931629	-1.185099	-0.743472
C77	C	1.012649	-0.668368	-0.939412
H78	H	1.026516	-0.657235	-0.875430
H79	H	1.013551	-0.730545	-0.965651
H80	H	0.954282	-0.652316	-0.948709
C81	C	0.686432	-0.377133	-0.418480
H82	H	0.622414	-0.382032	-0.423892
H83	H	0.711820	-0.318259	-0.423055
H84	H	0.703312	-0.387915	-0.360678
H85	H	0.864067	-0.405692	-0.450081
H86	H	1.333507	-0.410762	-1.068193
C87	C	1.400502	-1.009633	-0.395971
H88	H	1.429150	-1.051367	-0.370523
H89	H	1.375842	-0.968747	-0.348135
H90	H	1.443593	-0.977127	-0.427377
H91	H	1.077460	-0.616306	-1.259875
C92	C	1.364514	-1.207261	-0.428124
H93	H	1.344377	-1.269994	-0.446087
H94	H	1.358426	-1.187811	-0.363780
H95	H	1.426176	-1.196188	-0.443023
H96	H	1.102225	-1.277604	-0.661521
H97	H	0.972416	-1.049987	-0.776859
H98	H	1.322031	-0.419948	-1.240036
C99	C	0.988580	-0.865687	-0.762355
H100	H	1.008726	-0.802956	-0.744406
H101	H	0.926920	-0.876760	-0.747468
H102	H	0.994680	-0.885143	-0.826702
H103	H	1.275590	-0.457275	-0.931569
C104	C	0.999379	-0.679011	-1.138337
H105	H	1.004817	-0.674647	-1.200754
H106	H	0.943085	-0.661310	-1.116589
H107	H	1.002366	-0.739529	-1.133526
