data_functionalizedCrystal
_audit_creation_method	'MofGen! by Chris Wilmer'
_symmetry_space_group_name_H-M	'P1'
_symmetry_Int_Tables_number	1
_symmetry_cell_setting	triclinic
loop_
_symmetry_equiv_pos_as_xyz
  x,y,z
_cell_length_a	23.532407
_cell_length_b	23.532407
_cell_length_c	13.330367
_cell_angle_alpha	89.990692
_cell_angle_beta	89.997789
_cell_angle_gamma	82.848678
loop_
_atom_site_label
_atom_site_type_symbol
_atom_site_fract_x
_atom_site_fract_y
_atom_site_fract_z
O1	O	0.755262	0.069134	-0.083308
O2	O	1.005262	0.319134	0.166692
O3	O	1.255262	0.569134	0.416692
O4	O	1.505262	0.819134	0.666692
O5	O	0.589399	0.079138	-0.083339
O6	O	0.839399	0.329138	0.166661
O7	O	1.089399	0.579138	0.416661
O8	O	1.339399	0.829138	0.666661
O9	O	0.677332	-0.008796	-0.083305
O10	O	0.927332	0.241204	0.166695
O11	O	1.177332	0.491204	0.416695
O12	O	1.427332	0.741204	0.666695
O13	O	0.667329	0.157068	-0.083343
O14	O	0.917329	0.407068	0.166657
O15	O	1.167329	0.657068	0.416657
O16	O	1.417329	0.907068	0.666657
O17	O	0.677319	-0.008798	0.083543
O18	O	0.927319	0.241202	0.333543
O19	O	1.177319	0.491202	0.583543
O20	O	1.427319	0.741202	0.833543
O21	O	0.589386	0.079136	0.083508
O22	O	0.839386	0.329136	0.333508
O23	O	1.089386	0.579136	0.583508
O24	O	1.339386	0.829136	0.833508
O25	O	0.755249	0.069133	0.083539
O26	O	1.005249	0.319133	0.333539
O27	O	1.255249	0.569133	0.583539
O28	O	1.505249	0.819133	0.833539
Cu29	Cu	0.672317	0.074134	0.098758
Cu30	Cu	0.922317	0.324134	0.348758
Cu31	Cu	1.172317	0.574134	0.598758
Cu32	Cu	1.422317	0.824134	0.848758
Cu33	Cu	0.672332	0.074136	-0.098558
Cu34	Cu	0.922332	0.324136	0.151442
Cu35	Cu	1.172332	0.574136	0.401442
Cu36	Cu	1.422332	0.824136	0.651442
O37	O	0.667316	0.157066	0.083504
O38	O	0.917316	0.407066	0.333504
O39	O	1.167316	0.657066	0.583504
O40	O	1.417316	0.907066	0.833504
C41	C	0.568176	0.078882	0.000081
C42	C	0.818176	0.328882	0.250081
C43	C	1.068176	0.578882	0.500081
C44	C	1.318176	0.828882	0.750081
C45	C	0.504959	0.078116	0.000070
C46	C	0.754959	0.328116	0.250070
C47	C	1.004959	0.578116	0.500070
C48	C	1.254959	0.828116	0.750070
C49	C	0.105856	0.125350	0.000104
C50	C	0.355856	0.375350	0.250104
C51	C	0.605856	0.625350	0.500104
C52	C	0.855856	0.875350	0.750104
C53	C	0.046456	0.124638	0.000110
C54	C	0.296456	0.374638	0.250110
C55	C	0.546456	0.624638	0.500110
C56	C	0.796456	0.874638	0.750110
O57	O	0.009711	0.168424	0.000137
O58	O	0.259711	0.418424	0.250137
O59	O	0.509711	0.668424	0.500137
O60	O	0.759711	0.918424	0.750137
N61	N	0.023830	0.072362	0.000121
N62	N	0.273830	0.322362	0.250121
N63	N	0.523830	0.572362	0.500121
N64	N	0.773830	0.822362	0.750121
C65	C	0.060607	0.020794	0.000135
C66	C	0.310607	0.270794	0.250135
C67	C	0.560607	0.520794	0.500135
C68	C	0.810607	0.770794	0.750135
O69	O	0.035908	-0.023737	0.000146
O70	O	0.285908	0.226263	0.250146
O71	O	0.535908	0.476263	0.500146
O72	O	0.785908	0.726263	0.750146
C73	C	0.120006	0.021506	0.000136
C74	C	0.370006	0.271506	0.250136
C75	C	0.620006	0.521506	0.500136
C76	C	0.870006	0.771506	0.750136
C77	C	0.142629	0.073785	0.000115
C78	C	0.392629	0.323785	0.250115
C79	C	0.642629	0.573785	0.500115
C80	C	0.892629	0.823785	0.750115
C81	C	0.128479	0.177625	0.000084
C82	C	0.378479	0.427625	0.250084
C83	C	0.628479	0.677625	0.500084
C84	C	0.878479	0.927625	0.750084
C85	C	0.187876	0.178336	0.000076
C86	C	0.437876	0.428336	0.250076
C87	C	0.687876	0.678336	0.500076
C88	C	0.937876	0.928336	0.750076
C89	C	0.224649	0.126772	0.000088
C90	C	0.474649	0.376772	0.250088
C91	C	0.724649	0.626772	0.500088
C92	C	0.974649	0.876772	0.750088
C93	C	0.202025	0.074496	0.000107
C94	C	0.452025	0.324496	0.250107
C95	C	0.702025	0.574496	0.500107
C96	C	0.952025	0.824496	0.750107
C97	C	0.156783	-0.030062	0.000158
C98	C	0.406783	0.219938	0.250158
C99	C	0.656783	0.469938	0.500158
C100	C	0.906783	0.719938	0.750158
C101	C	0.216185	-0.029345	0.000159
C102	C	0.466185	0.220655	0.250159
C103	C	0.716185	0.470655	0.500159
C104	C	0.966185	0.720655	0.750159
C105	C	0.238808	0.022934	0.000139
C106	C	0.488808	0.272934	0.250139
C107	C	0.738808	0.522934	0.500139
C108	C	0.988808	0.772934	0.750139
C109	C	0.298194	0.023643	0.000110
C110	C	0.548194	0.273643	0.250110
C111	C	0.798194	0.523643	0.500110
C112	C	1.048194	0.773643	0.750110
N113	N	0.320820	0.075920	0.000100
N114	N	0.570820	0.325920	0.250100
N115	N	0.820820	0.575920	0.500100
N116	N	1.070820	0.825920	0.750100
C117	C	0.284048	0.127484	0.000089
C118	C	0.534048	0.377484	0.250089
C119	C	0.784048	0.627484	0.500089
C120	C	1.034048	0.877484	0.750089
C121	C	-0.064135	0.019302	0.000135
C122	C	0.185865	0.269302	0.250135
C123	C	0.435865	0.519302	0.500135
C124	C	0.685865	0.769302	0.750135
C125	C	-0.123533	0.018589	0.000127
C126	C	0.126467	0.268589	0.250127
C127	C	0.376467	0.518589	0.500127
C128	C	0.626467	0.768589	0.750127
C129	C	-0.137680	0.122434	0.000104
C130	C	0.112320	0.372434	0.250104
C131	C	0.362320	0.622434	0.500104
C132	C	0.612320	0.872434	0.750104
C133	C	-0.078281	0.123146	0.000105
C134	C	0.171719	0.373146	0.250105
C135	C	0.421719	0.623146	0.500105
C136	C	0.671719	0.873146	0.750105
C137	C	-0.041509	0.071578	0.000125
C138	C	0.208491	0.321578	0.250125
C139	C	0.458491	0.571578	0.500125
C140	C	0.708491	0.821578	0.750125
C141	C	0.408784	0.128974	0.000071
C142	C	0.658784	0.378974	0.250071
C143	C	0.908784	0.628974	0.500071
C144	C	1.158784	0.878974	0.750071
C145	C	0.468186	0.129680	0.000058
C146	C	0.718186	0.379680	0.250058
C147	C	0.968186	0.629680	0.500058
C148	C	1.218186	0.879680	0.750058
C149	C	0.482329	0.025836	0.000087
C150	C	0.732329	0.275836	0.250087
C151	C	0.982329	0.525836	0.500087
C152	C	1.232329	0.775836	0.750087
C153	C	0.422932	0.025129	0.000094
C154	C	0.672932	0.275129	0.250094
C155	C	0.922932	0.525129	0.500094
C156	C	1.172932	0.775129	0.750094
C157	C	0.386160	0.076702	0.000089
C158	C	0.636160	0.326702	0.250089
C159	C	0.886160	0.576702	0.500089
C160	C	1.136160	0.826702	0.750089
O161	O	0.334974	-0.020119	0.000088
O162	O	0.584974	0.229881	0.250088
O163	O	0.834974	0.479881	0.500088
O164	O	1.084974	0.729881	0.750088
O165	O	0.308755	0.172007	0.000091
O166	O	0.558755	0.422007	0.250091
O167	O	0.808755	0.672007	0.500091
O168	O	1.058755	0.922007	0.750091
C169	C	0.677071	-0.030013	0.000122
C170	C	0.927071	0.219987	0.250122
C171	C	1.177071	0.469987	0.500122
C172	C	1.427071	0.719987	0.750122
C173	C	0.676305	-0.093230	0.000129
C174	C	0.926305	0.156770	0.250129
C175	C	1.176305	0.406770	0.500129
C176	C	1.426305	0.656770	0.750129
C177	C	0.723539	-0.492333	0.000083
C178	C	0.973539	-0.242333	0.250083
C179	C	1.223539	0.007667	0.500083
C180	C	1.473539	0.257667	0.750083
C181	C	0.722827	-0.551733	0.000075
C182	C	0.972827	-0.301733	0.250075
C183	C	1.222827	-0.051733	0.500075
C184	C	1.472827	0.198267	0.750075
O185	O	0.766613	-0.588478	0.000046
O186	O	1.016613	-0.338478	0.250046
O187	O	1.266613	-0.088478	0.500046
O188	O	1.516613	0.161522	0.750046
N189	N	0.670551	-0.574359	0.000066
N190	N	0.920551	-0.324359	0.250066
N191	N	1.170551	-0.074359	0.500066
N192	N	1.420551	0.175641	0.750066
C193	C	0.618983	-0.537582	0.000055
C194	C	0.868983	-0.287582	0.250055
C195	C	1.118983	-0.037582	0.500055
C196	C	1.368983	0.212418	0.750055
O197	O	0.574452	-0.562281	0.000045
O198	O	0.824452	-0.312281	0.250045
O199	O	1.074452	-0.062281	0.500045
O200	O	1.324452	0.187719	0.750045
C201	C	0.619695	-0.478182	0.000055
C202	C	0.869695	-0.228182	0.250055
C203	C	1.119695	0.021818	0.500055
C204	C	1.369695	0.271818	0.750055
C205	C	0.671974	-0.455560	0.000074
C206	C	0.921974	-0.205560	0.250074
C207	C	1.171974	0.044440	0.500074
C208	C	1.421974	0.294440	0.750074
C209	C	0.775814	-0.469710	0.000101
C210	C	1.025814	-0.219710	0.250101
C211	C	1.275814	0.030290	0.500101
C212	C	1.525814	0.280290	0.750101
C213	C	0.776525	-0.410313	0.000111
C214	C	1.026525	-0.160313	0.250111
C215	C	1.276525	0.089687	0.500111
C216	C	1.526525	0.339687	0.750111
C217	C	0.724961	-0.373540	0.000102
C218	C	0.974961	-0.123540	0.250102
C219	C	1.224961	0.126460	0.500102
C220	C	1.474961	0.376460	0.750102
C221	C	0.672685	-0.396164	0.000084
C222	C	0.922685	-0.146164	0.250084
C223	C	1.172685	0.103836	0.500084
C224	C	1.422685	0.353836	0.750084
C225	C	0.568127	-0.441406	0.000037
C226	C	0.818127	-0.191406	0.250037
C227	C	1.068127	0.058594	0.500037
C228	C	1.318127	0.308594	0.750037
C229	C	0.568844	-0.382004	0.000036
C230	C	0.818844	-0.132004	0.250036
C231	C	1.068844	0.117996	0.500036
C232	C	1.318844	0.367996	0.750036
C233	C	0.621123	-0.359381	0.000056
C234	C	0.871123	-0.109381	0.250056
C235	C	1.121123	0.140619	0.500056
C236	C	1.371123	0.390619	0.750056
C237	C	0.621832	-0.299995	0.000085
C238	C	0.871832	-0.049995	0.250085
C239	C	1.121832	0.200005	0.500085
C240	C	1.371832	0.450005	0.750085
N241	N	0.674109	-0.277368	0.000094
N242	N	0.924109	-0.027368	0.250094
N243	N	1.174109	0.222632	0.500094
N244	N	1.424109	0.472632	0.750094
C245	C	0.725673	-0.314141	0.000103
C246	C	0.975673	-0.064141	0.250103
C247	C	1.225673	0.185859	0.500103
C248	C	1.475673	0.435859	0.750103
C249	C	0.617491	-0.662324	0.000052
C250	C	0.867491	-0.412324	0.250052
C251	C	1.117491	-0.162324	0.500052
C252	C	1.367491	0.087676	0.750052
C253	C	0.616778	-0.721722	0.000058
C254	C	0.866778	-0.471722	0.250058
C255	C	1.116778	-0.221722	0.500058
C256	C	1.366778	0.028278	0.750058
C257	C	0.720623	-0.735869	0.000077
C258	C	0.970623	-0.485869	0.250077
C259	C	1.220623	-0.235869	0.500077
C260	C	1.470623	0.014131	0.750077
C261	C	0.721335	-0.676470	0.000078
C262	C	0.971335	-0.426470	0.250078
C263	C	1.221335	-0.176470	0.500078
C264	C	1.471335	0.073530	0.750078
C265	C	0.669767	-0.639698	0.000061
C266	C	0.919767	-0.389698	0.250061
C267	C	1.169767	-0.139698	0.500061
C268	C	1.419767	0.110302	0.750061
C269	C	0.727163	-0.189405	0.000124
C270	C	0.977163	0.060595	0.250124
C271	C	1.227163	0.310595	0.500124
C272	C	1.477163	0.560595	0.750124
C273	C	0.727869	-0.130003	0.000138
C274	C	0.977869	0.119997	0.250138
C275	C	1.227869	0.369997	0.500138
C276	C	1.477869	0.619997	0.750138
C277	C	0.624025	-0.115860	0.000114
C278	C	0.874025	0.134140	0.250114
C279	C	1.124025	0.384140	0.500114
C280	C	1.374025	0.634140	0.750114
C281	C	0.623318	-0.175257	0.000105
C282	C	0.873318	0.074743	0.250105
C283	C	1.123318	0.324743	0.500105
C284	C	1.373318	0.574743	0.750105
C285	C	0.674891	-0.212029	0.000107
C286	C	0.924891	0.037971	0.250107
C287	C	1.174891	0.287971	0.500107
C288	C	1.424891	0.537971	0.750107
O289	O	0.578070	-0.263215	0.000110
O290	O	0.828070	-0.013215	0.250110
O291	O	1.078070	0.236785	0.500110
O292	O	1.328070	0.486785	0.750110
O293	O	0.770196	-0.289433	0.000099
O294	O	1.020196	-0.039433	0.250099
O295	O	1.270196	0.210567	0.500099
O296	O	1.520196	0.460567	0.750099
C297	C	0.776472	0.069388	0.000117
C298	C	1.026472	0.319388	0.250117
C299	C	1.276472	0.569388	0.500117
C300	C	1.526472	0.819388	0.750117
C301	C	0.839689	0.070154	0.000121
C302	C	1.089689	0.320154	0.250121
C303	C	1.339689	0.570154	0.500121
C304	C	1.589689	0.820154	0.750121
C305	C	0.667577	0.178283	0.000076
C306	C	0.917577	0.428283	0.250076
C307	C	1.167577	0.678283	0.500076
C308	C	1.417577	0.928283	0.750076
C309	C	0.668343	0.241500	0.000062
C310	C	0.918343	0.491500	0.250062
C311	C	1.168343	0.741500	0.500062
C312	C	1.418343	0.991500	0.750062
N313	N	0.672310	0.074132	0.237539
N314	N	0.922310	0.324132	0.487539
N315	N	1.172310	0.574132	0.737539
N316	N	1.422310	0.824132	0.987539
N317	N	0.672342	0.074134	-0.237340
N318	N	0.922342	0.324134	0.012660
N319	N	1.172342	0.574134	0.262660
N320	N	1.422342	0.824134	0.512660
C321	C	0.633393	0.113058	0.710147
C322	C	0.883393	0.363058	0.960147
C323	C	1.133393	0.613058	1.210147
C324	C	1.383393	0.863058	1.460147
C325	C	0.711285	0.035210	0.710146
C326	C	0.961285	0.285210	0.960146
C327	C	1.211285	0.535210	1.210146
C328	C	1.461285	0.785210	1.460146
C329	C	0.711279	0.035208	0.605127
C330	C	0.961279	0.285208	0.855127
C331	C	1.211279	0.535208	1.105127
C332	C	1.461279	0.785208	1.355127
C333	C	0.672330	0.074132	0.552614
C334	C	0.922330	0.324132	0.802614
C335	C	1.172330	0.574132	1.052614
C336	C	1.422330	0.824132	1.302614
C337	C	0.633387	0.113058	0.605119
C338	C	0.883387	0.363058	0.855119
C339	C	1.133387	0.613058	1.105119
C340	C	1.383387	0.863058	1.355119
C341	C	0.750225	-0.003713	0.552614
C342	C	1.000225	0.246287	0.802614
C343	C	1.250225	0.496287	1.052614
C344	C	1.500225	0.746287	1.302614
C345	C	0.750221	-0.003716	0.447590
C346	C	1.000221	0.246284	0.697590
C347	C	1.250221	0.496284	0.947590
C348	C	1.500221	0.746284	1.197590
C349	C	0.711268	0.035206	0.395074
C350	C	0.961268	0.285206	0.645074
C351	C	1.211268	0.535206	0.895074
C352	C	1.461268	0.785206	1.145074
C353	C	0.672323	0.074133	0.447586
C354	C	0.922323	0.324133	0.697586
C355	C	1.172323	0.574133	0.947586
C356	C	1.422323	0.824133	1.197586
C357	C	0.633374	0.113057	0.395072
C358	C	0.883374	0.363057	0.645072
C359	C	1.133374	0.613057	0.895072
C360	C	1.383374	0.863057	1.145072
C361	C	0.594426	0.151982	0.447582
C362	C	0.844426	0.401982	0.697582
C363	C	1.094426	0.651982	0.947582
C364	C	1.344426	0.901982	1.197582
C365	C	0.594434	0.151980	0.552603
C366	C	0.844434	0.401980	0.802603
C367	C	1.094434	0.651980	1.052603
C368	C	1.344434	0.901980	1.302603
C369	C	0.711260	0.035208	0.290053
C370	C	0.961260	0.285208	0.540053
C371	C	1.211260	0.535208	0.790053
C372	C	1.461260	0.785208	1.040053
C373	C	0.633367	0.113058	0.290044
C374	C	0.883367	0.363058	0.540044
C375	C	1.133367	0.613058	0.790044
C376	C	1.383367	0.863058	1.040044
H377	H	0.246123	-0.071339	0.000176
H378	H	0.496123	0.178661	0.250176
H379	H	0.746123	0.428661	0.500176
H380	H	0.996123	0.678661	0.750176
H381	H	0.781933	-0.035411	0.404843
H382	H	1.031933	0.214589	0.654843
H383	H	1.281933	0.464589	0.904843
H384	H	1.531933	0.714589	1.154843
H385	H	0.763906	-0.658056	0.000092
H386	H	1.013906	-0.408056	0.250092
H387	H	1.263906	-0.158056	0.500092
H388	H	1.513906	0.091944	0.750092
H389	H	0.742973	0.003518	0.247304
H390	H	0.992973	0.253518	0.497304
H391	H	1.242973	0.503518	0.747304
H392	H	1.492973	0.753518	0.997304
H393	H	0.817806	-0.499645	0.000104
H394	H	1.067806	-0.249645	0.250104
H395	H	1.317806	0.000355	0.500104
H396	H	1.567806	0.250355	0.750104
H397	H	0.562724	0.183672	0.595363
H398	H	0.812724	0.433672	0.845363
H399	H	1.062724	0.683672	1.095363
H400	H	1.312724	0.933672	1.345363
H401	H	0.486602	0.172255	0.000041
H402	H	0.736602	0.422255	0.250041
H403	H	0.986602	0.672255	0.500041
H404	H	1.236602	0.922255	0.750041
H405	H	0.770443	-0.111587	0.000156
H406	H	1.020443	0.138413	0.250156
H407	H	1.270443	0.388413	0.500156
H408	H	1.520443	0.638413	0.750156
H409	H	0.378851	0.170970	0.000070
H410	H	0.628851	0.420970	0.250070
H411	H	0.878851	0.670970	0.500070
H412	H	1.128851	0.920970	0.750070
H413	H	0.762610	-0.765821	0.000080
H414	H	1.012610	-0.515821	0.250080
H415	H	1.262610	-0.265821	0.500080
H416	H	1.512610	-0.015821	0.750080
H417	H	0.574207	-0.740136	0.000060
H418	H	0.824207	-0.490136	0.250060
H419	H	1.074207	-0.240136	0.500060
H420	H	1.324207	0.009864	0.750060
H421	H	0.206289	0.220908	0.000059
H422	H	0.456289	0.470908	0.250059
H423	H	0.706289	0.720908	0.500059
H424	H	0.956289	0.970908	0.750059
H425	H	0.601648	0.144753	0.247294
H426	H	0.851648	0.394753	0.497294
H427	H	1.101648	0.644753	0.747294
H428	H	1.351648	0.894753	0.997294
H429	H	0.138375	-0.072634	0.000175
H430	H	0.388375	0.177366	0.250175
H431	H	0.638375	0.427366	0.500175
H432	H	0.888375	0.677366	0.750175
H433	H	0.098544	0.219617	0.000079
H434	H	0.348544	0.469617	0.250079
H435	H	0.598544	0.719617	0.500079
H436	H	0.848544	0.969617	0.750079
H437	H	0.582043	-0.085909	0.000110
H438	H	0.832043	0.164091	0.250110
H439	H	1.082043	0.414091	0.500110
H440	H	1.332043	0.664091	0.750110
H441	H	0.404512	-0.017441	0.000096
H442	H	0.654512	0.232559	0.250096
H443	H	0.904512	0.482559	0.500096
H444	H	1.154512	0.732559	0.750096
H445	H	-0.059867	0.165717	0.000094
H446	H	0.190133	0.415717	0.250094
H447	H	0.440133	0.665717	0.500094
H448	H	0.690133	0.915717	0.750094
H449	H	-0.141947	-0.023982	0.000128
H450	H	0.108053	0.226018	0.250128
H451	H	0.358053	0.476018	0.500128
H452	H	0.608053	0.726018	0.750128
H453	H	0.562715	0.183677	0.404813
H454	H	0.812715	0.433677	0.654813
H455	H	1.062715	0.683677	0.904813
H456	H	1.312715	0.933677	1.154813
H457	H	0.769159	-0.219337	0.000121
H458	H	1.019159	0.030663	0.250121
H459	H	1.269159	0.280663	0.500121
H460	H	1.519159	0.530663	0.750121
H461	H	0.512280	-0.016146	0.000092
H462	H	0.762280	0.233854	0.250092
H463	H	1.012280	0.483854	0.500092
H464	H	1.262280	0.733854	0.750092
H465	H	0.819097	-0.391900	0.000122
H466	H	1.069097	-0.141900	0.250122
H467	H	1.319097	0.108100	0.500122
H468	H	1.569097	0.358100	0.750122
H469	H	0.743000	0.003522	0.752905
H470	H	0.993000	0.253522	1.002905
H471	H	1.243000	0.503522	1.252905
H472	H	1.493000	0.753522	1.502905
H473	H	0.575496	-0.632386	0.000047
H474	H	0.825496	-0.382386	0.250047
H475	H	1.075496	-0.132386	0.500047
H476	H	1.325496	0.117614	0.750047
H477	H	-0.167632	0.164421	0.000100
H478	H	0.082368	0.414421	0.250100
H479	H	0.332368	0.664421	0.500100
H480	H	0.582368	0.914421	0.750100
H481	H	0.525555	-0.459814	0.000015
H482	H	0.775555	-0.209814	0.250015
H483	H	1.025555	0.040186	0.500015
H484	H	1.275555	0.290186	0.750015
H485	H	0.526850	-0.352066	0.000021
H486	H	0.776850	-0.102066	0.250021
H487	H	1.026850	0.147934	0.500021
H488	H	1.276850	0.397934	0.750021
H489	H	-0.034198	-0.022693	0.000142
H490	H	0.215802	0.227307	0.250142
H491	H	0.465802	0.477307	0.500142
H492	H	0.715802	0.727307	0.750142
H493	H	0.580748	-0.193677	0.000117
H494	H	0.830748	0.056323	0.250117
H495	H	1.080748	0.306323	0.500117
H496	H	1.330748	0.556323	0.750117
H497	H	0.601680	0.144748	0.752903
H498	H	0.851680	0.394748	1.002903
H499	H	1.101680	0.644748	1.252903
H500	H	1.351680	0.894748	1.502903
H501	H	0.781939	-0.035402	0.595374
H502	H	1.031939	0.214598	0.845374
H503	H	1.281939	0.464598	1.095374
H504	H	1.531939	0.714598	1.345374
