data_functionalizedCrystal
_audit_creation_method	'MofGen! by Chris Wilmer'
_symmetry_space_group_name_H-M	'P1'
_symmetry_Int_Tables_number	1
_symmetry_cell_setting	triclinic
loop_
_symmetry_equiv_pos_as_xyz
  x,y,z
_cell_length_a	10.654562
_cell_length_b	17.019294
_cell_length_c	9.730223
_cell_angle_alpha	86.119703
_cell_angle_beta	89.996961
_cell_angle_gamma	83.940708
loop_
_atom_site_label
_atom_site_type_symbol
_atom_site_fract_x
_atom_site_fract_y
_atom_site_fract_z
O1	O	1.666088	0.110838	-0.127495
O2	O	1.300447	0.121384	-0.128726
O3	O	1.493469	0.001335	-0.114521
O4	O	1.473067	0.230887	-0.141700
O5	O	1.493466	0.001338	0.114058
O6	O	1.300445	0.121387	0.099853
O7	O	1.666086	0.110841	0.101084
Zn8	Zn	1.483265	0.116115	0.136761
Zn9	Zn	1.483268	0.116111	-0.164403
O10	O	1.473064	0.230890	0.086879
C11	C	1.253660	0.120609	-0.014342
C12	C	1.114254	0.118286	-0.014061
C13	C	1.492694	-0.028057	0.003246
C14	C	1.490374	-0.115640	0.013608
C15	C	1.048739	0.117204	0.110656
C16	C	0.917751	0.115028	0.110890
C17	C	0.917804	0.115019	-0.138319
C18	C	1.048791	0.117189	-0.138552
C19	C	1.114203	0.118301	0.235147
C20	C	1.048687	0.117220	0.359873
C21	C	0.917699	0.115044	0.360108
C22	C	0.852226	0.113948	0.235616
C23	C	1.489288	-0.156784	-0.106122
C24	C	1.487100	-0.239077	-0.096382
C25	C	1.486007	-0.280225	0.033089
C26	C	1.487089	-0.239075	0.152828
C27	C	1.489268	-0.156783	0.143087
C28	C	1.479420	-0.528693	0.068736
C29	C	1.477245	-0.610991	0.078468
C30	C	1.477254	-0.610987	-0.170743
C31	C	1.479440	-0.528694	-0.180473
C32	C	1.480515	-0.487551	-0.060734
C33	C	1.483775	-0.364342	0.043048
C34	C	1.482739	-0.403435	-0.070695
C35	C	1.712873	0.111616	-0.013303
C36	C	1.852279	0.113939	-0.013593
C37	C	1.473839	0.260282	-0.030891
C38	C	1.476159	0.347865	-0.041262
N39	N	1.483272	0.116117	0.342297
N40	N	1.483271	0.116102	-0.369938
C41	C	1.568764	0.062977	0.420511
C42	C	1.568761	0.062968	0.564395
C43	C	1.397770	0.169244	0.551838
C44	C	1.397768	0.169249	0.407957
C45	C	1.654268	0.009845	0.354851
C46	C	1.739767	-0.043298	0.433065
C47	C	1.739764	-0.043308	0.576949
C48	C	1.654262	0.009826	0.642619
H49	H	1.102005	0.118106	0.461230
C50	C	1.483945	-0.358176	-0.213111
C51	C	1.374660	-0.361126	-0.315567
C52	C	1.375873	-0.315860	-0.457984
C53	C	1.486370	-0.267642	-0.497945
C54	C	1.595663	-0.264690	-0.395487
C55	C	1.594450	-0.309956	-0.253070
H56	H	1.292856	-0.396821	-0.285987
H57	H	1.294966	-0.318046	-0.533830
H58	H	1.487268	-0.234133	-0.603371
H59	H	1.677468	-0.228995	-0.425067
H60	H	1.675357	-0.307770	-0.177224
H61	H	1.809374	-0.086563	0.379590
C62	C	0.845784	0.113822	-0.275252
C63	C	0.770100	0.043956	-0.301263
C64	C	0.698082	0.042763	-0.438200
C65	C	0.701747	0.111436	-0.549124
C66	C	0.777434	0.181308	-0.523116
C67	C	0.849453	0.182501	-0.386180
H68	H	0.767384	-0.006885	-0.219147
H69	H	0.642053	-0.008961	-0.457452
H70	H	0.648435	0.110553	-0.650493
H71	H	0.780150	0.232149	-0.605232
H72	H	0.905481	0.234225	-0.366928
C73	C	1.480619	-0.483439	0.200440
C74	C	1.591110	-0.435219	0.228989
C75	C	1.592313	-0.389959	0.360698
C76	C	1.483024	-0.392918	0.463857
C77	C	1.372524	-0.441139	0.435311
C78	C	1.371322	-0.486400	0.303603
H79	H	1.672020	-0.433027	0.152621
H80	H	1.674113	-0.354262	0.381829
H81	H	1.483914	-0.359414	0.561356
H82	H	1.291615	-0.443332	0.511679
H83	H	1.289522	-0.522096	0.282472
C84	C	1.833805	-0.101764	0.662989
C85	C	1.927846	-0.160210	0.590763
C86	C	2.021894	-0.218665	0.676800
C87	C	2.021902	-0.218675	0.835064
C88	C	1.927857	-0.160227	0.907299
C89	C	1.833809	-0.101772	0.821262
H90	H	1.927843	-0.160205	0.473599
H91	H	2.091512	-0.261932	0.623326
H92	H	2.091522	-0.261947	0.898754
H93	H	1.927860	-0.160232	1.024463
H94	H	1.764191	-0.058505	0.874736
C95	C	1.303731	0.227694	0.624069
C96	C	1.303896	0.227796	0.782319
C97	C	1.209859	0.286249	0.854547
C98	C	1.115656	0.344600	0.768525
C99	C	1.115486	0.344500	0.610266
C100	C	1.209524	0.286047	0.538037
H101	H	1.373635	0.184599	0.846006
H102	H	1.209985	0.286323	0.971702
H103	H	1.046043	0.387871	0.821993
H104	H	1.045748	0.387697	0.546579
H105	H	1.209398	0.285973	0.420883
H106	H	1.482889	-0.397854	0.148465
H107	H	0.864362	0.114157	0.461666
C108	C	1.490464	-0.111521	0.274790
C109	C	1.381166	-0.114480	0.377938
C110	C	1.382354	-0.069218	0.509646
C111	C	1.492840	-0.020996	0.538205
C112	C	1.602146	-0.018034	0.435055
C113	C	1.600958	-0.063297	0.303347
H114	H	1.299370	-0.150179	0.356800
H115	H	1.301437	-0.071410	0.586005
H116	H	1.493719	0.012510	0.635703
H117	H	1.683942	0.017664	0.456193
H118	H	1.681875	-0.061104	0.226988
C119	C	1.120871	0.118383	-0.275736
C120	C	1.117257	0.049707	-0.370406
C121	C	1.189341	0.050898	-0.507592
C122	C	1.265039	0.120765	-0.550107
C123	C	1.268656	0.189446	-0.455435
C124	C	1.196571	0.188255	-0.318250
H125	H	1.061219	-0.002017	-0.338936
H126	H	1.186664	0.000055	-0.577674
H127	H	1.318400	0.121646	-0.651660
H128	H	1.324694	0.241170	-0.486906
H129	H	1.199249	0.239098	-0.248167
H130	H	1.654258	0.009808	0.759780
H131	H	1.328152	0.212520	0.344274
H132	H	1.654281	0.009849	0.237694
C133	C	1.476053	-0.656245	-0.302448
C134	C	1.583544	-0.721179	-0.329045
C135	C	1.582337	-0.766436	-0.460757
C136	C	1.473639	-0.746760	-0.565871
C137	C	1.366140	-0.681824	-0.539276
C138	C	1.367347	-0.636566	-0.407565
H139	H	1.664017	-0.735747	-0.251231
H140	H	1.661915	-0.814507	-0.480443
H141	H	1.472745	-0.780263	-0.663371
H142	H	1.285667	-0.667256	-0.617091
H143	H	1.287769	-0.588496	-0.387879
H144	H	1.220859	0.120075	0.234969
H145	H	0.745567	0.112174	0.235817
H146	H	1.490185	-0.123287	-0.211552
H147	H	1.486221	-0.272573	-0.193879
H148	H	1.480332	-0.495197	-0.285902
H149	H	1.486192	-0.272584	0.258247
H150	H	1.476348	-0.644491	0.183905
