data_functionalizedCrystal
_audit_creation_method	'MofGen! by Chris Wilmer'
_symmetry_space_group_name_H-M	'P1'
_symmetry_Int_Tables_number	1
_symmetry_cell_setting	triclinic
loop_
_symmetry_equiv_pos_as_xyz
  x,y,z
_cell_length_a	15.625950
_cell_length_b	10.654550
_cell_length_c	9.130313
_cell_angle_alpha	90.004369
_cell_angle_beta	108.069885
_cell_angle_gamma	95.641308
loop_
_atom_site_label
_atom_site_type_symbol
_atom_site_fract_x
_atom_site_fract_y
_atom_site_fract_z
O1	O	1.197097	-0.164067	0.513797
O2	O	0.934774	-0.183575	0.374514
O3	O	1.071967	0.008980	0.447367
O4	O	1.059904	-0.356623	0.440944
O5	O	1.071957	0.008986	0.690961
O6	O	0.934764	-0.183570	0.618108
O7	O	1.197087	-0.164062	0.757391
Cu8	Cu	1.065925	-0.173815	0.709992
Cu9	Cu	1.065936	-0.173822	0.421914
O10	O	1.059894	-0.356617	0.684538
C11	C	0.901179	-0.182685	0.478477
C12	C	0.801094	-0.180024	0.425335
C13	C	0.471805	-0.171326	0.914296
C14	C	0.377757	-0.168851	0.864293
C15	C	0.377814	-0.168858	0.598761
C16	C	0.471864	-0.171340	0.648742
C17	C	0.518852	-0.172572	0.806511
C18	C	0.518910	-0.172586	0.540957
C19	C	0.612952	-0.175060	0.590934
C20	C	0.659947	-0.176289	0.748697
C21	C	0.612894	-0.175047	0.856488
C22	C	0.471921	-0.171344	0.383189
C23	C	0.518967	-0.172590	0.275404
C24	C	0.613010	-0.175074	0.325380
C25	C	0.660005	-0.176303	0.483143
C26	C	0.660064	-0.176316	0.217589
C27	C	0.754105	-0.178791	0.267566
C28	C	0.754047	-0.178778	0.533120
C29	C	1.071076	0.055772	0.568693
C30	C	1.068426	0.195188	0.567284
C31	C	1.230682	-0.164952	0.653425
C32	C	1.330767	-0.167613	0.706557
C33	C	1.060785	-0.403409	0.563209
C34	C	1.063435	-0.542825	0.564608
N35	N	1.065924	-0.173810	0.912614
C36	C	1.149203	0.275505	0.610173
C37	C	1.146708	0.406501	0.608830
C38	C	0.982652	0.376847	0.521712
C39	C	0.985148	0.245855	0.523045
N40	N	1.065944	-0.173817	0.219295
C41	C	1.126693	-0.088582	1.021536
C42	C	1.126702	-0.088582	1.174877
C43	C	1.005168	-0.259049	1.110359
C44	C	1.005156	-0.259042	0.957019
H45	H	0.792306	-0.179801	0.661590
Cl46	Cl	0.671970	-0.176613	1.054830
Cl47	Cl	1.203083	0.018572	0.965717
H48	H	0.792411	-0.179812	0.179796
H49	H	1.176185	-0.019180	1.263560
H50	H	0.510064	-0.172349	1.042766
H51	H	1.217014	0.234257	0.646192
H52	H	0.955666	-0.328445	0.868324
H53	H	0.736522	-0.178303	0.789386
Cl54	Cl	0.318617	-0.167262	0.999814
Cl55	Cl	0.883591	0.144876	0.469110
Cl56	Cl	0.877964	0.440553	0.466101
H57	H	0.339544	-0.167848	0.470305
Cl58	Cl	0.928782	-0.366198	1.166193
H59	H	0.395345	-0.169335	0.342502
Cl60	Cl	0.600986	-0.174715	0.019261
H61	H	1.212485	0.471891	0.643751
H62	H	0.480697	-0.171580	0.146948
