data_functionalizedCrystal
_audit_creation_method	'MofGen! by Chris Wilmer'
_symmetry_space_group_name_H-M	'P1'
_symmetry_Int_Tables_number	1
_symmetry_cell_setting	triclinic
loop_
_symmetry_equiv_pos_as_xyz
  x,y,z
_cell_length_a	10.686220
_cell_length_b	10.686285
_cell_length_c	18.215399
_cell_angle_alpha	94.390852
_cell_angle_beta	85.648888
_cell_angle_gamma	90.345431
loop_
_atom_site_label
_atom_site_type_symbol
_atom_site_fract_x
_atom_site_fract_y
_atom_site_fract_z
Zn1	Zn	1.956157	-0.352094	0.312989
Zn2	Zn	1.972159	-0.561881	0.179848
Zn3	Zn	1.746391	-0.368247	0.198590
Zn4	Zn	1.762483	-0.577916	0.311528
O5	O	1.859298	-0.465034	0.250739
O6	O	2.133818	-0.366452	0.288096
O7	O	1.942173	-0.536245	0.079349
O8	O	1.760786	-0.190561	0.222220
O9	O	2.145575	-0.520582	0.190277
O10	O	1.914900	-0.178694	0.306269
O11	O	1.776302	-0.393983	0.093119
O12	O	1.572988	-0.409531	0.220803
O13	O	1.788211	-0.547910	0.414706
O14	O	1.584810	-0.563573	0.303778
O15	O	1.930503	-0.382000	0.415780
O16	O	1.957776	-0.739551	0.188861
O17	O	1.803728	-0.751332	0.285605
C18	C	1.533384	-0.490046	0.264166
C19	C	1.393959	-0.500776	0.269927
C20	C	1.884269	-0.790955	0.235055
C21	C	1.895066	-0.930377	0.228366
C22	C	2.186484	-0.439926	0.237259
C23	C	2.325911	-0.429227	0.231515
C24	C	1.859367	-0.464942	0.442693
C25	C	1.859397	-0.464903	0.524492
C26	C	1.834263	-0.137838	0.266498
C27	C	1.823595	0.001593	0.273214
C28	C	1.859293	-0.465030	0.059533
C29	C	1.859479	-0.464698	-0.022259
C30	C	1.933511	-0.378436	0.713249
C31	C	1.933524	-0.378398	0.790109
C32	C	1.785356	-0.551169	0.788979
C33	C	1.785338	-0.551199	0.712121
C34	C	1.859423	-0.464835	0.674257
C35	C	1.859453	-0.464766	0.827975
C36	C	1.859466	-0.464726	0.911310
C37	C	1.859409	-0.464873	0.590917
H38	H	1.374318	-0.359763	0.194221
C39	C	1.328561	-0.594633	0.320309
N40	N	1.279303	-0.665323	0.358258
H41	H	1.754146	-0.949989	0.316729
C42	C	1.988886	-0.995792	0.169569
N43	N	2.059551	-1.045064	0.125284
H44	H	1.993832	-0.308109	0.682423
C45	C	2.015030	-0.283356	0.832995
N46	N	2.076424	-0.211766	0.865297
C47	C	1.703827	-0.646246	0.669229
N48	N	1.642431	-0.717829	0.636922
H49	H	1.725042	-0.621486	0.819817
