data_functionalizedCrystal
_audit_creation_method	'MofGen! by Chris Wilmer'
_symmetry_space_group_name_H-M	'P1'
_symmetry_Int_Tables_number	1
_symmetry_cell_setting	triclinic
loop_
_symmetry_equiv_pos_as_xyz
  x,y,z
_cell_length_a	10.654556
_cell_length_b	17.699083
_cell_length_c	16.776229
_cell_angle_alpha	89.998433
_cell_angle_beta	89.992418
_cell_angle_gamma	83.885212
loop_
_atom_site_label
_atom_site_type_symbol
_atom_site_fract_x
_atom_site_fract_y
_atom_site_fract_z
O1	O	1.665981	0.106320	-0.066298
O2	O	1.300327	0.116443	-0.066298
O3	O	1.493485	0.001258	-0.066291
O4	O	1.472823	0.221505	-0.066305
O5	O	1.493457	0.001264	0.066286
O6	O	1.300299	0.116449	0.066278
O7	O	1.665953	0.106326	0.066278
Zn8	Zn	1.483121	0.111388	0.087328
Zn9	Zn	1.483158	0.111380	-0.087347
O10	O	1.472795	0.221511	0.066271
C11	C	1.253528	0.115701	-0.000010
C12	C	1.114124	0.113475	-0.000009
C13	C	0.917664	0.110338	-0.072283
C14	C	1.048650	0.112426	-0.072280
C15	C	1.048607	0.112428	0.072262
C16	C	0.917625	0.110335	0.072258
C17	C	0.917689	0.110340	-0.155734
C18	C	1.048674	0.112428	-0.155730
C19	C	1.492730	-0.026941	-0.000003
C20	C	1.490509	-0.110973	-0.000002
C21	C	1.603889	-0.158872	-0.000001
C22	C	1.601795	-0.237828	-0.000008
C23	C	1.486319	-0.268885	-0.000011
C24	C	1.372931	-0.220980	-0.000014
C25	C	1.375027	-0.142025	-0.000013
C26	C	1.364477	-0.539397	-0.000021
C27	C	1.362390	-0.618358	-0.000020
C28	C	1.591245	-0.635200	-0.000016
C29	C	1.593340	-0.556245	-0.000015
C30	C	1.479953	-0.508347	-0.000022
C31	C	1.482225	-0.422734	-0.000016
C32	C	1.484046	-0.354497	-0.000011
C33	C	1.712752	0.107067	-0.000012
C34	C	1.852156	0.109294	-0.000017
C35	C	1.473550	0.249709	-0.000019
C36	C	1.475771	0.333742	-0.000024
N37	N	1.483105	0.111393	0.206539
N38	N	1.483185	0.111369	-0.206559
C39	C	1.568725	0.060384	0.751707
C40	C	1.568719	0.060390	0.668255
C41	C	1.483165	0.111377	0.626538
C42	C	1.397620	0.162368	0.668279
C43	C	1.397634	0.162365	0.751729
C44	C	1.397567	0.162378	0.331732
C45	C	1.397558	0.162375	0.248275
C46	C	1.568652	0.060403	0.248257
C47	C	1.568665	0.060400	0.331708
C48	C	1.483126	0.111393	0.373441
C49	C	1.483135	0.111388	0.463929
C50	C	1.483149	0.111379	0.536052
H51	H	0.865045	0.164240	-0.181631
C52	C	0.886091	0.039025	-0.198443
C53	C	0.997712	-0.002506	-0.224564
C54	C	0.968654	-0.068209	-0.263900
H55	H	0.833544	0.052823	-0.242979
H56	H	0.843227	0.008821	-0.162861
H57	H	1.040557	0.027692	-0.260144
H58	H	1.050274	-0.016323	-0.180044
H59	H	0.925790	-0.098413	-0.228318
H60	H	0.916105	-0.054403	-0.308432
H61	H	1.044384	-0.096399	-0.281622
C62	C	1.080301	0.183748	-0.198430
C63	C	0.968698	0.225285	-0.224553
C64	C	0.997781	0.290994	-0.263874
H65	H	1.132875	0.169957	-0.242964
H66	H	1.123145	0.213945	-0.162839
H67	H	0.925873	0.195094	-0.260143
H68	H	0.916109	0.239095	-0.180035
H69	H	1.040625	0.321191	-0.228283
H70	H	1.050357	0.277196	-0.308405
H71	H	0.922063	0.319188	-0.281598
C72	C	1.661309	0.004971	0.202863
C73	C	1.594514	-0.041718	0.154971
C74	C	1.679808	-0.092799	0.113147
H75	H	1.712265	-0.025468	0.239586
H76	H	1.713512	0.032434	0.170243
H77	H	1.542333	-0.069180	0.187588
H78	H	1.543563	-0.011300	0.118233
H79	H	1.732011	-0.065336	0.080526
H80	H	1.730760	-0.123233	0.149875
H81	H	1.634501	-0.124479	0.080641
H82	H	1.101330	0.058524	-0.181622
H83	H	1.327915	0.203897	0.365704
H84	H	1.327887	0.203898	0.214311
C85	C	0.846311	0.109300	0.150658
C86	C	0.756755	0.173082	0.154878
C87	C	0.691023	0.172145	0.227085
H88	H	0.903906	0.110255	0.193770
H89	H	0.804855	0.064445	0.153656
H90	H	0.798209	0.217926	0.151888
H91	H	0.699134	0.172140	0.111783
H92	H	0.649567	0.127289	0.230083
H93	H	0.748628	0.173098	0.270192
H94	H	0.630245	0.215415	0.229955
H95	H	1.327965	0.203886	0.634309
H96	H	1.638388	0.018861	0.785667
H97	H	1.697922	-0.133592	0.000006
H98	H	1.638327	0.018879	0.365670
C99	C	1.718677	-0.522485	0.000149
C100	C	1.726569	-0.477665	0.068366
C101	C	1.842019	-0.446562	0.068546
H102	H	1.724380	-0.491981	-0.046029
H103	H	1.785942	-0.562299	0.000190
H104	H	1.659323	-0.437856	0.068318
H105	H	1.720889	-0.508151	0.114556
H106	H	1.909284	-0.486376	0.068586
H107	H	1.847712	-0.416061	0.022364
H108	H	1.847394	-0.416153	0.114833
C109	C	1.714396	-0.687169	0.000146
C110	C	1.783908	-0.673061	0.068366
C111	C	1.897350	-0.720924	0.068550
H112	H	1.761918	-0.677729	-0.046031
H113	H	1.696670	-0.738651	0.000184
H114	H	1.801638	-0.621591	0.068321
H115	H	1.736425	-0.682506	0.114553
H116	H	1.879623	-0.772407	0.068588
H117	H	1.944861	-0.711480	0.022371
H118	H	1.944523	-0.711364	0.114840
H119	H	1.694120	-0.276825	-0.000006
C120	C	1.304956	0.217808	0.797085
C121	C	1.371710	0.264528	0.844967
C122	C	1.286379	0.315621	0.886749
H123	H	1.252740	0.190378	0.829713
H124	H	1.254018	0.248217	0.760314
H125	H	1.422626	0.234122	0.881734
H126	H	1.423921	0.291975	0.812358
H127	H	1.235441	0.346030	0.849978
H128	H	1.234167	0.288184	0.919373
H129	H	1.331658	0.347331	0.919236
H130	H	1.101928	0.113276	0.131106
C131	C	1.237137	-0.652224	0.000010
C132	C	1.259577	-0.731622	0.000033
C133	C	1.144232	-0.762845	0.000071
H134	H	1.190384	-0.635911	-0.046214
H135	H	1.190430	-0.635868	0.046256
H136	H	1.306264	-0.747971	-0.046209
H137	H	1.306310	-0.747956	0.046254
H138	H	1.097526	-0.746489	0.046318
H139	H	1.097488	-0.746526	-0.046154
H140	H	1.159442	-0.816719	0.000095
C141	C	1.661441	0.004763	0.623160
C142	C	1.641011	-0.069631	0.643657
C143	C	1.726393	-0.120962	0.602203
H144	H	1.745279	0.013301	0.636847
H145	H	1.649361	0.011862	0.567444
H146	H	1.653101	-0.076727	0.699360
H147	H	1.557189	-0.078194	0.629968
H148	H	1.714314	-0.113863	0.546487
H149	H	1.810226	-0.112417	0.615893
H150	H	1.712536	-0.171444	0.616098
C151	C	1.241238	-0.487527	0.000024
C152	C	1.139667	-0.531628	0.000049
C153	C	1.026115	-0.483868	0.000104
H154	H	1.237118	-0.456358	-0.046195
H155	H	1.237222	-0.456390	0.046276
H156	H	1.143680	-0.562751	-0.046199
H157	H	1.143745	-0.562795	0.046264
H158	H	1.022099	-0.452731	0.046356
H159	H	1.022008	-0.452701	-0.046115
H160	H	0.957186	-0.513783	0.000128
H161	H	1.278909	-0.246272	-0.000021
H162	H	1.282701	-0.103026	-0.000014
