data_functionalizedCrystal
_audit_creation_method	'MofGen! by Chris Wilmer'
_symmetry_space_group_name_H-M	'P1'
_symmetry_Int_Tables_number	1
_symmetry_cell_setting	triclinic
loop_
_symmetry_equiv_pos_as_xyz
  x,y,z
_cell_length_a	16.959455
_cell_length_b	16.625545
_cell_length_c	16.959447
_cell_angle_alpha	89.970073
_cell_angle_beta	89.979626
_cell_angle_gamma	90.022578
loop_
_atom_site_label
_atom_site_type_symbol
_atom_site_fract_x
_atom_site_fract_y
_atom_site_fract_z
Zn1	Zn	1.208354	-0.321050	-0.447038
Zn2	Zn	1.541687	0.012284	-0.113705
Zn3	Zn	1.875020	0.345617	0.219628
Zn4	Zn	1.208264	-0.455897	-0.314861
Zn5	Zn	1.541597	-0.122564	0.018473
Zn6	Zn	1.874930	0.210769	0.351806
Zn7	Zn	1.076182	-0.321075	-0.314862
Zn8	Zn	1.409515	0.012258	0.018471
Zn9	Zn	1.742849	0.345591	0.351805
Zn10	Zn	1.076134	-0.455837	-0.446985
Zn11	Zn	1.409468	-0.122504	-0.113652
Zn12	Zn	1.742801	0.210830	0.219681
O13	O	1.142233	-0.388465	-0.380937
O14	O	1.475567	-0.055131	-0.047603
O15	O	1.808900	0.278202	0.285730
O16	O	1.318953	-0.338952	-0.429527
O17	O	1.652286	-0.005619	-0.096193
O18	O	1.985619	0.327715	0.237140
O19	O	1.190725	-0.438049	-0.204250
O20	O	1.524058	-0.104715	0.129083
O21	O	1.857392	0.228618	0.462417
O22	O	1.093773	-0.208239	-0.332418
O23	O	1.427106	0.125094	0.000915
O24	O	1.760439	0.458427	0.334248
O25	O	1.318886	-0.438024	-0.332416
O26	O	1.652220	-0.104691	0.000917
O27	O	1.985553	0.228643	0.334251
O28	O	1.190879	-0.208221	-0.429528
O29	O	1.524212	0.125113	-0.096194
O30	O	1.857545	0.458446	0.237139
O31	O	1.093685	-0.338995	-0.204251
O32	O	1.427019	-0.005662	0.129082
O33	O	1.760352	0.327671	0.462416
O34	O	0.965565	-0.338937	-0.332367
O35	O	1.298898	-0.005604	0.000967
O36	O	1.632232	0.327729	0.334300
O37	O	1.093691	-0.437921	-0.557603
O38	O	1.427024	-0.104588	-0.224270
O39	O	1.760358	0.228745	0.109063
O40	O	0.965530	-0.437946	-0.429437
O41	O	1.298863	-0.104613	-0.096104
O42	O	1.632196	0.228721	0.237229
O43	O	1.190832	-0.338894	-0.557642
O44	O	1.524165	-0.005560	-0.224309
O45	O	1.857499	0.327773	0.109024
O46	O	1.190679	-0.568722	-0.332365
O47	O	1.524012	-0.235388	0.000969
O48	O	1.857345	0.097945	0.334302
O49	O	1.093604	-0.568677	-0.429436
O50	O	1.426937	-0.235344	-0.096103
O51	O	1.760270	0.097989	0.237231
C52	C	0.936867	-0.388439	-0.380897
C53	C	1.270200	-0.055105	-0.047564
C54	C	1.603534	0.278228	0.285770
C55	C	0.849011	-0.388447	-0.380899
C56	C	1.182344	-0.055113	-0.047565
C57	C	1.515677	0.278220	0.285768
C58	C	0.477490	-0.440000	-0.330346
C59	C	0.810823	-0.106667	0.002988
C60	C	1.144156	0.226666	0.336321
C61	C	0.477580	-0.336996	-0.431624
C62	C	0.810913	-0.003663	-0.098291
C63	C	1.144247	0.329670	0.235043
C64	C	0.560126	-0.336983	-0.431605
C65	C	0.893459	-0.003650	-0.098272
C66	C	1.226793	0.329684	0.235062
C67	C	0.601358	-0.388480	-0.380956
C68	C	0.934691	-0.055147	-0.047623
C69	C	1.268024	0.278187	0.285711
C70	C	0.560043	-0.439990	-0.330326
C71	C	0.893377	-0.106657	0.003007
C72	C	1.226710	0.226676	0.336340
C73	C	0.601446	-0.285479	-0.482239
C74	C	0.934780	0.047854	-0.148906
C75	C	1.268113	0.381187	0.184428
C76	C	0.683997	-0.285464	-0.482223
C77	C	1.017331	0.047869	-0.148889
C78	C	1.350664	0.381202	0.184444
C79	C	0.725230	-0.336958	-0.431569
C80	C	1.058564	-0.003625	-0.098236
C81	C	1.391897	0.329709	0.235098
C82	C	0.683911	-0.388470	-0.380937
C83	C	1.017244	-0.055137	-0.047604
C84	C	1.350578	0.278197	0.285730
C85	C	0.725143	-0.439967	-0.330288
C86	C	1.058476	-0.106634	0.003045
C87	C	1.391809	0.226700	0.336379
C88	C	0.683825	-0.491476	-0.279651
C89	C	1.017158	-0.158142	0.053682
C90	C	1.350492	0.175191	0.387015
C91	C	0.601276	-0.491484	-0.279673
C92	C	0.934610	-0.158151	0.053660
C93	C	1.267943	0.175183	0.386994
C94	C	0.807779	-0.336950	-0.431547
C95	C	1.141112	-0.003616	-0.098214
C96	C	1.474446	0.329717	0.235119
C97	C	0.807696	-0.439957	-0.330269
C98	C	1.141030	-0.106624	0.003064
C99	C	1.474363	0.226710	0.336398
C100	C	1.142148	-0.597956	-0.380912
C101	C	1.475481	-0.264622	-0.047578
C102	C	1.808814	0.068711	0.285755
C103	C	1.142183	-0.687577	-0.380928
C104	C	1.475516	-0.354243	-0.047594
C105	C	1.808850	-0.020910	0.285739
C106	C	1.142214	-0.760359	-0.380943
C107	C	1.475547	-0.427026	-0.047610
C108	C	1.808880	-0.093693	0.285723
C109	C	1.142260	-0.851668	-0.380961
C110	C	1.475593	-0.518334	-0.047627
C111	C	1.808926	-0.185001	0.285706
C112	C	1.142301	-0.924444	-0.380971
C113	C	1.475634	-0.591111	-0.047637
C114	C	1.808968	-0.257777	0.285696
C115	C	1.142346	-1.015758	-0.380987
C116	C	1.475679	-0.682425	-0.047654
C117	C	1.809013	-0.349092	0.285680
C118	C	1.348402	-0.388492	-0.380977
C119	C	1.681735	-0.055158	-0.047644
C120	C	2.015068	0.278175	0.285690
C121	C	1.436258	-0.388503	-0.380994
C122	C	1.769592	-0.055170	-0.047661
C123	C	2.102925	0.278163	0.285672
C124	C	1.142266	-0.388398	-0.587105
C125	C	1.475600	-0.055065	-0.253772
C126	C	1.808933	0.278269	0.079562
C127	C	1.142280	-0.388370	-0.674962
C128	C	1.475614	-0.055036	-0.341628
C129	C	1.808947	0.278297	-0.008295
C130	C	1.142341	-0.178156	-0.380979
C131	C	1.475674	0.155177	-0.047646
C132	C	1.809008	0.488511	0.285688
C133	C	1.142387	-0.088535	-0.380997
C134	C	1.475720	0.244799	-0.047664
C135	C	1.809054	0.578132	0.285670
C136	C	1.091798	-0.439844	-1.046420
C137	C	1.425131	-0.106510	-0.713086
C138	C	1.758464	0.226823	-0.379753
C139	C	1.192952	-0.336726	-1.046455
C140	C	1.526285	-0.003392	-0.713122
C141	C	1.859618	0.329941	-0.379789
C142	C	1.192931	-0.336743	-0.963909
C143	C	1.526264	-0.003409	-0.630576
C144	C	1.859597	0.329924	-0.297243
C145	C	1.142343	-0.388312	-0.922615
C146	C	1.475677	-0.054979	-0.589281
C147	C	1.809010	0.278355	-0.255948
C148	C	1.091777	-0.439864	-0.963866
C149	C	1.425110	-0.106531	-0.630533
C150	C	1.758444	0.226803	-0.297199
C151	C	1.243502	-0.285197	-0.922652
C152	C	1.576835	0.048136	-0.589319
C153	C	1.910168	0.381470	-0.255985
C154	C	1.243483	-0.285213	-0.840101
C155	C	1.576817	0.048121	-0.506768
C156	C	1.910150	0.381454	-0.173434
C157	C	1.192891	-0.336779	-0.798805
C158	C	1.526225	-0.003445	-0.465471
C159	C	1.859558	0.329888	-0.132138
C160	C	1.142322	-0.388332	-0.840061
C161	C	1.475656	-0.054999	-0.506728
C162	C	1.808989	0.278334	-0.173395
C163	C	1.091735	-0.439902	-0.798767
C164	C	1.425068	-0.106568	-0.465433
C165	C	1.758402	0.226765	-0.132100
C166	C	1.041161	-0.491452	-0.840021
C167	C	1.374495	-0.158118	-0.506688
C168	C	1.707828	0.175215	-0.173355
C169	C	1.041185	-0.491430	-0.922570
C170	C	1.374518	-0.158097	-0.589237
C171	C	1.707851	0.175237	-0.255903
C172	C	1.192868	-0.336800	-0.716256
C173	C	1.526201	-0.003467	-0.382923
C174	C	1.859534	0.329866	-0.049590
C175	C	1.091714	-0.439922	-0.716213
C176	C	1.425047	-0.106589	-0.382880
C177	C	1.758381	0.226745	-0.049546
C178	C	1.142246	-0.388473	-0.175570
C179	C	1.475579	-0.055140	0.157763
C180	C	1.808913	0.278194	0.491096
C181	C	1.142385	-0.388274	-0.087714
C182	C	1.475719	-0.054941	0.245619
C183	C	1.809052	0.278392	0.578952
H184	H	0.841261	-0.481890	-0.289021
H185	H	1.174595	-0.148557	0.044312
H186	H	1.507928	0.184776	0.377645
F187	F	1.037866	-0.494806	-0.672271
F188	F	1.371200	-0.161473	-0.338937
F189	F	1.704533	0.171860	-0.005604
H190	H	1.050620	-0.481812	-1.080013
H191	H	1.383953	-0.148479	-0.746680
H192	H	1.717286	0.184854	-0.413346
H193	H	1.234046	-0.294831	-0.682670
H194	H	1.567380	0.038502	-0.349337
H195	H	1.900713	0.371835	-0.016004
H196	H	0.567628	-0.533419	-0.238447
H197	H	0.900961	-0.200086	0.094886
H198	H	1.234295	0.133248	0.428220
F199	F	0.727716	-0.546285	-0.225754
F200	F	1.061049	-0.212952	0.107580
F201	F	1.394383	0.120381	0.440913
H202	H	0.443845	-0.481935	-0.289116
H203	H	0.777179	-0.148602	0.044217
H204	H	1.110512	0.184732	0.377551
F205	F	0.727963	-0.230645	-0.536113
F206	F	1.061297	0.102688	-0.202780
F207	F	1.394630	0.436022	0.130553
F208	F	0.433697	-0.282200	-0.485532
F209	F	0.767030	0.051133	-0.152199
F210	F	1.100363	0.384466	0.181134
H211	H	1.234142	-0.294745	-1.080082
H212	H	1.567475	0.038589	-0.746749
H213	H	1.900809	0.371922	-0.413416
F214	F	0.987328	-0.546338	-0.796063
F215	F	1.320661	-0.213004	-0.462730
F216	F	1.653995	0.120329	-0.129397
F217	F	0.557561	-0.230686	-0.536148
F218	F	0.890894	0.102648	-0.202815
F219	F	1.224228	0.435981	0.130518
H220	H	0.841416	-0.295014	-0.472777
H221	H	1.174750	0.038319	-0.139443
H222	H	1.508083	0.371653	0.193890
F223	F	0.987369	-0.546291	-0.966481
F224	F	1.320702	-0.212958	-0.633148
F225	F	1.654035	0.120376	-0.299815
F226	F	1.297342	-0.230323	-0.966604
F227	F	1.630675	0.103010	-0.633271
F228	F	1.964009	0.436344	-0.299938
F229	F	1.297306	-0.230347	-0.796202
F230	F	1.630639	0.102986	-0.462868
F231	F	1.963972	0.436319	-0.129535
