data_functionalizedCrystal
_audit_creation_method	'MofGen! by Chris Wilmer'
_symmetry_space_group_name_H-M	'P1'
_symmetry_Int_Tables_number	1
_symmetry_cell_setting	triclinic
loop_
_symmetry_equiv_pos_as_xyz
  x,y,z
_cell_length_a	16.625546
_cell_length_b	16.625548
_cell_length_c	19.805399
_cell_angle_alpha	89.981391
_cell_angle_beta	89.972133
_cell_angle_gamma	90.023536
loop_
_atom_site_label
_atom_site_type_symbol
_atom_site_fract_x
_atom_site_fract_y
_atom_site_fract_z
Zn1	Zn	-0.320997	1.232665	-0.382701
Zn2	Zn	0.012336	1.565998	-0.049368
Zn3	Zn	0.345669	1.899332	0.283966
Zn4	Zn	-0.455835	1.232573	-0.269512
Zn5	Zn	-0.122501	1.565906	0.063821
Zn6	Zn	0.210832	1.899239	0.397155
Zn7	Zn	-0.321022	1.097831	-0.269527
Zn8	Zn	0.012311	1.431165	0.063806
Zn9	Zn	0.345645	1.764498	0.397139
Zn10	Zn	-0.455794	1.097797	-0.382661
Zn11	Zn	-0.122461	1.431130	-0.049327
Zn12	Zn	0.210873	1.764464	0.284006
O13	O	-0.388412	1.165216	-0.326100
O14	O	-0.055079	1.498550	0.007233
O15	O	0.278255	1.831883	0.340566
O16	O	-0.338890	1.345485	-0.367697
O17	O	-0.005557	1.678818	-0.034363
O18	O	0.327776	2.012152	0.298970
O19	O	-0.437979	1.214675	-0.174798
O20	O	-0.104645	1.548008	0.158536
O21	O	0.228688	1.881341	0.491869
O22	O	-0.208186	1.115770	-0.284563
O23	O	0.125147	1.449103	0.048770
O24	O	0.458480	1.782437	0.382103
O25	O	-0.437955	1.345417	-0.284537
O26	O	-0.104621	1.678751	0.048796
O27	O	0.228712	2.012084	0.382129
O28	O	-0.208168	1.214832	-0.367711
O29	O	0.125165	1.548165	-0.034378
O30	O	0.458498	1.881498	0.298955
O31	O	-0.338932	1.115681	-0.174809
O32	O	-0.005599	1.449014	0.158525
O33	O	0.327734	1.782347	0.491858
O34	O	-0.338893	0.984994	-0.284524
O35	O	-0.005560	1.318328	0.048809
O36	O	0.327773	1.651661	0.382142
O37	O	-0.437886	1.115712	-0.477383
O38	O	-0.104552	1.449045	-0.144049
O39	O	0.228781	1.782379	0.189284
O40	O	-0.437910	0.984969	-0.367643
O41	O	-0.104577	1.318303	-0.034310
O42	O	0.228757	1.651636	0.299024
O43	O	-0.338851	1.214799	-0.477412
O44	O	-0.005518	1.548132	-0.144079
O45	O	0.327815	1.881465	0.189254
O46	O	-0.568662	1.214642	-0.284498
O47	O	-0.235328	1.547975	0.048835
O48	O	0.098005	1.881308	0.382168
O49	O	-0.568632	1.115622	-0.367628
O50	O	-0.235299	1.448956	-0.034295
O51	O	0.098035	1.782289	0.299039
C52	C	-0.388401	0.955726	-0.326081
C53	C	-0.055067	1.289059	0.007252
C54	C	0.278266	1.622392	0.340585
C55	C	-0.388415	0.866105	-0.326089
C56	C	-0.055082	1.199438	0.007244
C57	C	0.278252	1.532771	0.340577
C58	C	-0.388420	0.537929	-0.326118
C59	C	-0.055087	0.871262	0.007215
C60	C	0.278246	1.204596	0.340548
C61	C	-0.388417	0.629237	-0.326108
C62	C	-0.055083	0.962571	0.007225
C63	C	0.278250	1.295904	0.340559
C64	C	-0.388418	0.702014	-0.326103
C65	C	-0.055085	1.035347	0.007230
C66	C	0.278249	1.368680	0.340563
C67	C	-0.388414	0.793328	-0.326094
C68	C	-0.055080	1.126661	0.007239
C69	C	0.278253	1.459995	0.340573
C70	C	-0.597903	1.165140	-0.326072
C71	C	-0.264570	1.498474	0.007261
C72	C	0.068764	1.831807	0.340595
C73	C	-0.687524	1.165181	-0.326082
C74	C	-0.354191	1.498515	0.007251
C75	C	-0.020857	1.831848	0.340584
C76	C	-1.015700	1.165322	-0.326153
C77	C	-0.682366	1.498655	0.007180
C78	C	-0.349033	1.831989	0.340514
C79	C	-0.924391	1.165280	-0.326135
C80	C	-0.591058	1.498614	0.007198
C81	C	-0.257724	1.831947	0.340531
C82	C	-0.851615	1.165251	-0.326117
C83	C	-0.518281	1.498584	0.007216
C84	C	-0.184948	1.831918	0.340549
C85	C	-0.760300	1.165211	-0.326100
C86	C	-0.426967	1.498544	0.007233
C87	C	-0.093634	1.831877	0.340566
C88	C	-0.178103	1.165315	-0.326144
C89	C	0.155230	1.498648	0.007190
C90	C	0.488564	1.831982	0.340523
C91	C	-0.088482	1.165357	-0.326162
C92	C	0.244851	1.498690	0.007171
C93	C	0.578185	1.832024	0.340505
C94	C	-0.388361	1.165262	-0.502643
C95	C	-0.055028	1.498595	-0.169310
C96	C	0.278305	1.831928	0.164024
C97	C	-0.388340	1.165281	-0.577875
C98	C	-0.055006	1.498614	-0.244542
C99	C	0.278327	1.831948	0.088792
C100	C	-0.388424	1.375525	-0.326120
C101	C	-0.055091	1.708859	0.007214
C102	C	0.278242	2.042192	0.340547
C103	C	-0.388429	1.465146	-0.326128
C104	C	-0.055096	1.798480	0.007205
C105	C	0.278237	2.131813	0.340539
C106	C	-0.336770	1.216877	-0.613236
C107	C	-0.003436	1.550210	-0.279902
C108	C	0.329897	1.883543	0.053431
C109	C	-0.336746	1.216885	-0.683924
C110	C	-0.003413	1.550218	-0.350591
C111	C	0.329920	1.883552	-0.017258
C112	C	-0.388297	1.165301	-0.719251
C113	C	-0.054964	1.498634	-0.385917
C114	C	0.278369	1.831968	-0.052584
C115	C	-0.439870	1.113700	-0.683885
C116	C	-0.106536	1.447033	-0.350552
C117	C	0.226797	1.780366	-0.017219
C118	C	-0.439888	1.113688	-0.613198
C119	C	-0.106555	1.447021	-0.279865
C120	C	0.226778	1.780355	0.053469
C121	C	-0.439795	1.113745	-0.968959
C122	C	-0.106461	1.447079	-0.635625
C123	C	0.226872	1.780412	-0.302292
C124	C	-0.439774	1.113763	-1.039651
C125	C	-0.106440	1.447096	-0.706317
C126	C	0.226893	1.780429	-0.372984
C127	C	-0.336652	1.216942	-1.039685
C128	C	-0.003319	1.550275	-0.706351
C129	C	0.330014	1.883609	-0.373018
C130	C	-0.336671	1.216930	-0.968998
C131	C	-0.003338	1.550264	-0.635664
C132	C	0.329996	1.883597	-0.302331
C133	C	-0.388240	1.165326	-0.933638
C134	C	-0.054907	1.498660	-0.600305
C135	C	0.278427	1.831993	-0.266972
C136	C	-0.388264	1.165317	-0.856990
C137	C	-0.054930	1.498650	-0.523656
C138	C	0.278403	1.831984	-0.190323
C139	C	-0.388278	1.165314	-0.795898
C140	C	-0.054945	1.498647	-0.462565
C141	C	0.278388	1.831981	-0.129231
C142	C	-0.388404	1.165218	-0.150244
C143	C	-0.055071	1.498551	0.183089
C144	C	0.278262	1.831884	0.516422
C145	C	-0.388199	1.165355	-0.075013
C146	C	-0.054866	1.498688	0.258321
C147	C	0.278468	1.832021	0.591654
H148	H	-0.294793	1.258885	-0.584478
H149	H	0.038540	1.592218	-0.251145
H150	H	0.371874	1.925551	0.082189
H151	H	-0.481797	1.071738	-0.940178
H152	H	-0.148463	1.405071	-0.606844
H153	H	0.184870	1.738405	-0.273511
H154	H	-0.481754	1.071753	-1.068412
H155	H	-0.148421	1.405087	-0.735078
H156	H	0.184912	1.738420	-0.401745
Cl157	Cl	-0.504675	1.048848	-0.728296
Cl158	Cl	-0.171341	1.382181	-0.394963
Cl159	Cl	0.161992	1.715515	-0.061629
H160	H	-0.294755	1.258901	-0.712712
H161	H	0.038579	1.592234	-0.379378
H162	H	0.371912	1.925568	-0.046045
Cl163	Cl	-0.504719	1.048820	-0.568744
Cl164	Cl	-0.171386	1.382153	-0.235411
Cl165	Cl	0.161947	1.715486	0.097922
Cl166	Cl	-0.271864	1.281784	-0.924591
Cl167	Cl	0.061469	1.615117	-0.591258
Cl168	Cl	0.394803	1.948450	-0.257924
H169	H	-0.294660	1.258958	-1.068483
H170	H	0.038674	1.592291	-0.735150
H171	H	0.372007	1.925624	-0.401816
