data_functionalizedCrystal
_audit_creation_method	'MofGen! by Chris Wilmer'
_symmetry_space_group_name_H-M	'P1'
_symmetry_Int_Tables_number	1
_symmetry_cell_setting	triclinic
loop_
_symmetry_equiv_pos_as_xyz
  x,y,z
_cell_length_a	10.723024
_cell_length_b	19.288864
_cell_length_c	18.366186
_cell_angle_alpha	90.022894
_cell_angle_beta	89.994974
_cell_angle_gamma	96.197942
loop_
_atom_site_label
_atom_site_type_symbol
_atom_site_fract_x
_atom_site_fract_y
_atom_site_fract_z
O1	O	0.155659	-0.922366	-0.060782
O2	O	0.655659	-0.422366	0.439218
O3	O	0.176657	-0.720242	-0.060732
O4	O	0.676657	-0.220242	0.439268
O5	O	-0.015516	-0.825966	-0.060755
O6	O	0.484484	-0.325966	0.439245
O7	O	0.347832	-0.816641	-0.060758
O8	O	0.847832	-0.316641	0.439242
O9	O	-0.015526	-0.825948	0.060344
O10	O	0.484474	-0.325948	0.560344
O11	O	0.176647	-0.720223	0.060368
O12	O	0.676647	-0.220223	0.560368
O13	O	0.155649	-0.922347	0.060318
O14	O	0.655649	-0.422347	0.560318
Zn15	Zn	0.166147	-0.821282	0.079570
Zn16	Zn	0.666147	-0.321282	0.579570
Zn17	Zn	0.166159	-0.821306	-0.079984
Zn18	Zn	0.666159	-0.321306	0.420016
O19	O	0.347822	-0.816623	0.060341
O20	O	0.847822	-0.316623	0.560341
C21	C	0.175976	-0.694352	-0.000176
C22	C	0.675976	-0.194352	0.499824
C23	C	0.173948	-0.617235	-0.000156
C24	C	0.673948	-0.117235	0.499844
C25	C	-0.062006	-0.825278	-0.000206
C26	C	0.437994	-0.325278	0.499794
C27	C	-0.200518	-0.823248	-0.000208
C28	C	0.299482	-0.323248	0.499792
C29	C	0.156330	-0.948237	-0.000240
C30	C	0.656330	-0.448237	0.499760
C31	C	0.158358	-1.025354	-0.000264
C32	C	0.658358	-0.525354	0.499736
C33	C	-0.276743	-0.882406	-0.000224
C34	C	0.223257	-0.382406	0.499776
C35	C	-0.419902	-0.880309	-0.000226
C36	C	0.080098	-0.380309	0.499774
C37	C	0.394313	-0.817311	-0.000209
C38	C	0.894313	-0.317311	0.499791
C39	C	0.532824	-0.819341	-0.000212
C40	C	1.032824	-0.319341	0.499788
N41	N	0.166138	-0.821271	0.188461
N42	N	0.666138	-0.321271	0.688461
C43	C	0.286707	-0.573272	-0.000169
C44	C	0.786707	-0.073272	0.499831
C45	C	0.284801	-0.500813	-0.000177
C46	C	0.784801	-0.000813	0.499823
C47	C	0.170131	-0.472319	-0.000187
C48	C	0.670131	0.027681	0.499813
C49	C	0.057358	-0.516291	-0.000171
C50	C	0.557358	-0.016291	0.499829
C51	C	0.059266	-0.588749	-0.000155
C52	C	0.559266	-0.088749	0.499845
C53	C	0.079991	-0.363477	-0.042637
C54	C	0.579991	0.136523	0.457363
C55	C	0.078087	-0.291020	-0.042657
C56	C	0.578087	0.208980	0.457343
C57	C	0.164239	-0.248835	-0.000231
C58	C	0.664239	0.251165	0.499769
C59	C	0.252317	-0.279115	0.042205
C60	C	0.752317	0.220885	0.542205
C61	C	0.254226	-0.351573	0.042221
C62	C	0.754226	0.148427	0.542221
C63	C	0.168049	-0.393752	-0.000203
C64	C	0.668049	0.106248	0.499797
C65	C	0.274939	-0.126303	-0.000251
C66	C	0.774939	0.373697	0.499749
C67	C	0.273029	-0.053843	-0.000255
C68	C	0.773029	0.446157	0.499745
C69	C	0.045582	-0.069323	-0.000256
C70	C	0.545582	0.430677	0.499744
C71	C	0.047496	-0.141782	-0.000245
C72	C	0.547496	0.358218	0.499755
C73	C	0.162178	-0.170267	-0.000246
C74	C	0.662178	0.329733	0.499754
N75	N	0.166159	-0.821323	-0.188875
N76	N	0.666159	-0.321323	0.311125
C77	C	0.081085	-0.868102	0.226551
C78	C	0.581085	-0.368102	0.726551
C79	C	0.081079	-0.868106	0.302779
C80	C	0.581079	-0.368106	0.802779
C81	C	0.166148	-0.821287	0.340914
C82	C	0.666148	-0.321287	0.840914
C83	C	0.251207	-0.774447	0.302815
C84	C	0.751207	-0.274447	0.802815
C85	C	0.251202	-0.774440	0.226588
C86	C	0.751202	-0.274440	0.726588
C87	C	0.279840	-0.812728	0.461675
C88	C	0.779840	-0.312728	0.961675
C89	C	0.279847	-0.812741	0.537899
C90	C	0.779847	-0.312741	1.037899
C91	C	0.166164	-0.821307	0.576021
C92	C	0.666164	-0.321307	1.076021
C93	C	0.052468	-0.829874	0.537909
C94	C	0.552468	-0.329874	1.037909
C95	C	0.052463	-0.829867	0.461682
C96	C	0.552463	-0.329867	0.961682
C97	C	0.166162	-0.821290	0.423569
C98	C	0.666162	-0.321290	0.923569
C99	C	0.081098	-0.868144	0.696766
C100	C	0.581098	-0.368144	1.196766
C101	C	0.081091	-0.868144	0.772995
C102	C	0.581091	-0.368144	1.272995
C103	C	0.251229	-0.774489	0.773030
C104	C	0.751229	-0.274489	1.273030
C105	C	0.251225	-0.774486	0.696802
C106	C	0.751225	-0.274486	1.196802
C107	C	0.166161	-0.821317	0.658675
C108	C	0.666161	-0.321317	1.158675
H109	H	-0.236017	-0.934605	-0.000232
H110	H	0.263983	-0.434605	0.499768
H111	H	0.320489	-0.736365	0.804079
H112	H	0.820489	-0.236365	1.304079
Br113	Br	-0.268383	-0.736240	-0.000197
Br114	Br	0.231617	-0.236240	0.499803
Br115	Br	0.434145	-0.801121	0.589616
Br116	Br	0.934145	-0.301121	1.089616
H117	H	-0.401687	-0.768695	-0.000194
H118	H	0.098313	-0.268695	0.499806
H119	H	0.380090	-0.596460	-0.000171
H120	H	0.880090	-0.096460	0.499829
H121	H	0.376626	-0.465012	-0.000185
H122	H	0.876626	0.034988	0.499815
H123	H	0.325938	-0.376223	0.076776
H124	H	0.825938	0.123777	0.576776
Br125	Br	0.369251	-0.221873	0.099785
Br126	Br	0.869251	0.278127	0.599785
H127	H	0.006374	-0.266372	-0.077214
H128	H	0.506374	0.233628	0.422786
H129	H	-0.036008	-0.493087	-0.000189
H130	H	0.463992	0.006913	0.499811
H131	H	0.320463	-0.736304	0.195575
H132	H	0.820463	-0.236304	0.695575
Br133	Br	0.430575	-0.164967	-0.000247
Br134	Br	0.930575	0.335033	0.499753
H135	H	0.364855	-0.018048	-0.000261
H136	H	0.864855	0.481952	0.499739
H137	H	-0.485398	-0.930952	-0.000236
H138	H	0.014602	-0.430952	0.499764
Br139	Br	-0.110045	-0.030661	-0.000257
Br140	Br	0.389955	0.469339	0.499743
Br141	Br	-0.034349	-0.931698	0.645020
Br142	Br	0.465651	-0.431698	1.145020
H143	H	0.372421	-0.805741	0.430642
H144	H	0.872421	-0.305741	0.930642
H145	H	-0.044325	-0.177577	-0.000239
H146	H	0.455675	0.322423	0.499761
Br147	Br	-0.034361	-0.931666	0.354482
Br148	Br	0.465639	-0.431666	0.854482
Br149	Br	0.366663	-0.710929	0.645102
Br150	Br	0.866663	-0.210929	1.145102
Br151	Br	-0.093775	-0.648417	-0.000137
Br152	Br	0.406225	-0.148417	0.499863
Br153	Br	-0.036945	-0.420721	-0.100219
Br154	Br	0.463055	0.079279	0.399781
Br155	Br	-0.034360	-0.931654	0.174806
Br156	Br	0.465640	-0.431654	0.674806
H157	H	-0.040112	-0.836841	0.430654
H158	H	0.459888	-0.336841	0.930654
H159	H	-0.040104	-0.836849	0.568946
H160	H	0.459896	-0.336849	1.068946
Br161	Br	0.366650	-0.710901	0.354566
Br162	Br	0.866650	-0.210901	0.854566
Br163	Br	-0.034358	-0.931698	0.824693
Br164	Br	0.465642	-0.431698	1.324693
