data_functionalizedCrystal
_audit_creation_method	'MofGen! by Chris Wilmer'
_symmetry_space_group_name_H-M	'P1'
_symmetry_Int_Tables_number	1
_symmetry_cell_setting	triclinic
loop_
_symmetry_equiv_pos_as_xyz
  x,y,z
_cell_length_a	19.188925
_cell_length_b	19.188930
_cell_length_c	8.140239
_cell_angle_alpha	90.008252
_cell_angle_beta	90.002413
_cell_angle_gamma	83.143665
loop_
_atom_site_label
_atom_site_type_symbol
_atom_site_fract_x
_atom_site_fract_y
_atom_site_fract_z
O1	O	0.926144	0.087148	0.136667
O2	O	0.722832	0.098886	0.136665
O3	O	0.830356	-0.008638	0.136634
O4	O	0.818621	0.194673	0.136698
O5	O	0.830352	-0.008639	-0.136593
O6	O	0.722829	0.098886	-0.136562
O7	O	0.926141	0.087147	-0.136560
Zn8	Zn	0.824484	0.093016	-0.179942
Zn9	Zn	0.824489	0.093017	0.180047
O10	O	0.818618	0.194672	-0.136529
C11	C	0.696820	0.098507	0.000051
C12	C	0.619315	0.097367	0.000049
C13	C	0.057545	0.152831	0.000070
C14	C	0.130368	0.153908	0.000079
C15	C	0.175302	0.090816	0.000056
C16	C	0.147408	0.026642	0.000067
C17	C	0.074586	0.025568	0.000074
N18	N	0.295978	0.045139	-0.092966
N19	N	0.365156	0.046165	-0.092977
C20	C	0.394712	0.094050	0.000038
N21	N	0.352475	0.140882	0.093043
N22	N	0.283291	0.139859	0.093046
C23	C	0.254267	0.091974	0.000050
C24	C	0.501561	0.159386	0.000049
C25	C	0.574385	0.160460	0.000069
C26	C	0.591425	0.033193	0.000040
C27	C	0.518601	0.032121	0.000037
C28	C	0.473673	0.095220	0.000034
C29	C	0.829974	-0.034650	0.000016
C30	C	0.828833	-0.112154	0.000002
C31	C	0.891924	-0.157079	-0.000006
C32	C	0.890852	-0.229903	0.000021
C33	C	0.826686	-0.257799	0.000021
C34	C	0.763587	-0.212864	0.000038
C35	C	0.764660	-0.140041	0.000028
N36	N	0.777638	-0.365803	-0.092964
N37	N	0.776622	-0.434981	-0.092958
C38	C	0.823448	-0.477207	0.000055
N39	N	0.871338	-0.447642	0.093040
N40	N	0.872356	-0.378458	0.093027
C41	C	0.825515	-0.336761	0.000033
C42	C	0.885381	-0.601097	0.000078
C43	C	0.884307	-0.673922	0.000115
C44	C	0.757040	-0.656880	0.000115
C45	C	0.758116	-0.584057	0.000095
C46	C	0.822289	-0.556170	0.000069
C47	C	0.952154	0.087527	0.000058
C48	C	1.029658	0.088666	0.000071
C49	C	0.819000	0.220684	0.000093
C50	C	0.820140	0.298188	0.000118
N51	N	0.824486	0.093015	-0.425624
N52	N	0.824492	0.093013	0.425729
H53	H	0.464978	0.210765	0.000050
H54	H	0.597088	0.212713	0.000082
H55	H	0.704794	-0.679592	0.000124
H56	H	0.495896	-0.020129	0.000028
H57	H	0.942230	-0.266488	0.000021
Cl58	Cl	0.647907	-0.046124	0.000036
Cl59	Cl	0.001068	0.232156	0.000089
H60	H	0.153078	0.206160	0.000063
Cl61	Cl	0.203896	-0.052674	0.000045
H62	H	0.051883	-0.026685	0.000075
Cl63	Cl	0.972598	-0.122025	0.000008
Cl64	Cl	0.682921	-0.247931	0.000052
H65	H	0.935686	-0.710500	0.000118
Cl66	Cl	0.966054	-0.566035	0.000036
Cl67	Cl	0.678797	-0.527576	0.000097
H68	H	0.713282	-0.103462	0.000033
