data_functionalizedCrystal
_audit_creation_method	'MofGen! by Chris Wilmer'
_symmetry_space_group_name_H-M	'P1'
_symmetry_Int_Tables_number	1
_symmetry_cell_setting	triclinic
loop_
_symmetry_equiv_pos_as_xyz
  x,y,z
_cell_length_a	10.723024
_cell_length_b	17.699077
_cell_length_c	16.176319
_cell_angle_alpha	89.993140
_cell_angle_beta	89.994397
_cell_angle_gamma	83.874223
loop_
_atom_site_label
_atom_site_type_symbol
_atom_site_fract_x
_atom_site_fract_y
_atom_site_fract_z
O1	O	0.157762	1.005077	-0.068733
O2	O	0.657762	1.505077	0.431267
O3	O	0.178299	0.784827	-0.068737
O4	O	0.678299	1.284827	0.431263
O5	O	-0.013633	0.900032	-0.068732
O6	O	0.486367	1.400032	0.431268
O7	O	0.349694	0.889872	-0.068739
O8	O	0.849694	1.389872	0.431261
O9	O	-0.013645	0.900016	0.068761
O10	O	0.486355	1.400016	0.568761
O11	O	0.178287	0.784811	0.068756
O12	O	0.678287	1.284811	0.568756
O13	O	0.157750	1.005061	0.068760
O14	O	0.657750	1.505061	0.568760
Cu15	Cu	0.168017	0.894934	0.081312
Cu16	Cu	0.668017	1.394934	0.581312
Cu17	Cu	0.168032	0.894953	-0.081290
Cu18	Cu	0.668032	1.394953	0.418710
O19	O	0.349682	0.889856	0.068755
O20	O	0.849682	1.389856	0.568755
C21	C	0.177559	0.756618	0.000009
C22	C	0.677559	1.256618	0.500009
C23	C	0.175355	0.672585	0.000007
C24	C	0.675355	1.172585	0.500007
C25	C	0.174310	0.633103	0.074956
C26	C	0.674310	1.133103	0.574956
C27	C	0.172219	0.554147	0.074957
C28	C	0.672219	1.054147	0.574957
C29	C	0.171182	0.514675	0.000008
C30	C	0.671182	1.014675	0.500008
C31	C	0.172224	0.554163	-0.074946
C32	C	0.672224	1.054163	0.425054
C33	C	0.174305	0.633118	-0.074946
C34	C	0.674305	1.133118	0.425054
C35	C	0.163827	0.235747	-0.074947
C36	C	0.663827	0.735747	0.425053
C37	C	0.161748	0.156786	-0.074942
C38	C	0.661748	0.656786	0.425058
C39	C	0.161740	0.156776	0.074955
C40	C	0.661740	0.656776	0.574955
C41	C	0.163822	0.235731	0.074955
C42	C	0.663822	0.735731	0.574955
C43	C	0.164856	0.275213	0.000002
C44	C	0.664856	0.775213	0.500002
C45	C	0.167121	0.360826	0.000002
C46	C	0.667121	0.860826	0.500002
C47	C	0.168927	0.429062	0.000008
C48	C	0.668927	0.929062	0.500008
C49	C	-0.060126	0.899285	0.000013
C50	C	0.439874	1.399285	0.500013
C51	C	-0.198642	0.897073	0.000010
C52	C	0.301358	1.397073	0.500010
C53	C	-0.274732	0.961535	0.000010
C54	C	0.225268	1.461535	0.500010
C55	C	-0.417896	0.959250	0.000007
C56	C	0.082104	1.459250	0.500007
C57	C	0.396175	0.890603	0.000007
C58	C	0.896175	1.390603	0.500007
C59	C	0.534691	0.892815	0.000005
C60	C	1.034691	1.392815	0.500005
C61	C	0.158490	1.033270	0.000012
C62	C	0.658490	1.533270	0.500012
C63	C	0.160694	1.117303	0.000008
C64	C	0.660694	1.617303	0.500008
N65	N	0.168006	0.894927	0.195677
N66	N	0.668006	1.394927	0.695677
N67	N	0.168033	0.894967	-0.195655
N68	N	0.668033	1.394967	0.304345
C69	C	0.083053	0.945955	0.238944
C70	C	0.583053	1.445955	0.738944
C71	C	0.083052	0.945959	0.325491
C72	C	0.583052	1.445959	0.825491
C73	C	0.168011	0.894937	0.368770
C74	C	0.668011	1.394937	0.868770
C75	C	0.252968	0.843903	0.325497
C76	C	0.752968	1.343903	0.825497
C77	C	0.252962	0.843896	0.238952
C78	C	0.752962	1.343896	0.738952
C79	C	0.252991	0.843929	0.674526
C80	C	0.752991	1.343929	1.174526
C81	C	0.252993	0.843942	0.761077
C82	C	0.752993	1.343942	1.261077
C83	C	0.083081	0.945992	0.761065
C84	C	0.583081	1.445992	1.261065
C85	C	0.083075	0.945985	0.674519
C86	C	0.583075	1.445985	1.174519
C87	C	0.168027	0.894949	0.631254
C88	C	0.668027	1.394949	1.131254
C89	C	0.168026	0.894944	0.537410
C90	C	0.668026	1.394944	1.037410
C91	C	0.168019	0.894945	0.462612
C92	C	0.668019	1.394945	0.962612
H93	H	0.160892	0.124620	0.135986
H94	H	0.660892	0.624620	0.635986
H95	H	0.013904	0.987546	0.796300
H96	H	0.513904	1.487546	1.296300
H97	H	0.013876	0.987510	0.360718
H98	H	0.513876	1.487510	0.860718
O99	O	0.164769	0.273960	0.147834
O100	O	0.664769	0.773960	0.647834
C101	C	0.163428	0.222178	0.213988
C102	C	0.663428	0.722178	0.713988
H103	H	0.122459	0.168827	0.192017
H104	H	0.622459	0.668827	0.692017
H105	H	0.103465	0.249480	0.266407
H106	H	0.603465	0.749480	0.766407
H107	H	0.263271	0.206355	0.237034
H108	H	0.763271	0.706355	0.737034
O109	O	0.335540	0.794433	0.196829
O110	O	0.835540	1.294433	0.696829
C111	C	0.412455	0.835355	0.146764
C112	C	0.912455	1.335355	0.646764
H113	H	0.362634	0.894320	0.133790
H114	H	0.862634	1.394320	0.633790
H115	H	0.432254	0.803863	0.085911
H116	H	0.932254	1.303863	0.585911
H117	H	0.504672	0.840974	0.180106
H118	H	1.004672	1.340974	0.680106
H119	H	0.175164	0.665234	0.135988
H120	H	0.675164	1.165234	0.635988
O121	O	-0.495708	1.025161	0.000043
O122	O	0.004292	1.525161	0.500043
C123	C	-0.423817	1.087375	0.000022
C124	C	0.076183	1.587375	0.500022
H125	H	-0.326598	1.068736	0.026054
H126	H	0.173402	1.568736	0.526054
H127	H	-0.472071	1.134909	0.039939
H128	H	0.027929	1.634909	0.539939
H129	H	-0.414649	1.108788	-0.065940
H130	H	0.085351	1.608788	0.434060
H131	H	0.322178	0.802391	0.796314
H132	H	0.822178	1.302391	1.296314
H133	H	-0.239487	0.840192	0.000004
H134	H	0.260513	1.340192	0.500004
O135	O	0.175105	0.671523	-0.147730
O136	O	0.675105	1.171523	0.352270
C137	C	0.068299	0.725222	-0.152205
C138	C	0.568299	1.225222	0.347795
H139	H	-0.007836	0.707027	-0.109671
H140	H	0.492164	1.207027	0.390329
H141	H	0.032067	0.728814	-0.218494
H142	H	0.532067	1.228814	0.281506
H143	H	0.094297	0.783247	-0.132071
H144	H	0.594297	1.283247	0.367929
O145	O	-0.387454	0.826922	-0.000106
O146	O	0.112546	1.326922	0.499894
C147	C	-0.409953	0.784511	-0.071329
C148	C	0.090047	1.284511	0.428671
H149	H	-0.508758	0.802515	-0.095071
H150	H	-0.008758	1.302515	0.404929
H151	H	-0.400477	0.721431	-0.055316
H152	H	0.099523	1.221431	0.444684
H153	H	-0.338817	0.795292	-0.121189
H154	H	0.161183	1.295292	0.378811
H155	H	0.322138	0.802357	0.360740
H156	H	0.822138	1.302357	0.860740
O157	O	0.335637	0.794331	0.632634
O158	O	0.835637	1.294331	1.132634
C159	C	0.410603	0.749292	0.689394
C160	C	0.910603	1.249292	1.189394
H161	H	0.411948	0.780337	0.751077
H162	H	0.911948	1.280337	1.251077
H163	H	0.510279	0.738256	0.664384
H164	H	1.010279	1.238256	1.164384
H165	H	0.370204	0.692863	0.698620
H166	H	0.870204	1.192863	1.198620
H167	H	0.013876	0.987506	0.203712
H168	H	0.513876	1.487506	0.703712
H169	H	0.171347	0.522005	0.135987
H170	H	0.671347	1.022005	0.635987
O171	O	-0.225867	1.029350	-0.000098
O172	O	0.274133	1.529350	0.499902
C173	C	-0.151480	1.034629	-0.071317
C174	C	0.348520	1.534629	0.428683
H175	H	-0.119010	0.975128	-0.095059
H176	H	0.380990	1.475128	0.404941
H177	H	-0.066265	1.065163	-0.055301
H178	H	0.433735	1.565163	0.444699
H179	H	-0.209010	1.067863	-0.121180
H180	H	0.290990	1.567863	0.378820
O181	O	0.160682	0.118563	-0.147825
O182	O	0.660682	0.618563	0.352175
C183	C	0.162072	0.170338	-0.213982
C184	C	0.662072	0.670338	0.286018
H185	H	0.124062	0.229549	-0.192012
H186	H	0.624062	0.729549	0.307988
H187	H	0.100913	0.152019	-0.266395
H188	H	0.600913	0.652019	0.233605
H189	H	0.262359	0.171314	-0.237035
H190	H	0.762359	0.671314	0.262965
O191	O	0.000284	0.995469	0.632584
O192	O	0.500284	1.495469	1.132584
C193	C	-0.123142	0.982470	0.653861
C194	C	0.376858	1.482470	1.153861
H195	H	-0.123496	0.921853	0.677625
H196	H	0.376504	1.421853	1.177625
H197	H	-0.185913	0.990859	0.597009
H198	H	0.314087	1.490859	1.097009
H199	H	-0.159822	1.024183	0.704151
H200	H	0.340178	1.524183	1.204151
O201	O	0.165014	0.274160	-0.147704
O202	O	0.665014	0.774160	0.352296
C203	C	0.274259	0.311800	-0.152205
C204	C	0.774259	0.811800	0.347795
H205	H	0.310576	0.320959	-0.087132
H206	H	0.810576	0.820959	0.412868
H207	H	0.251430	0.369123	-0.183936
H208	H	0.751430	0.869123	0.316064
H209	H	0.349107	0.275757	-0.189186
H210	H	0.849107	0.775757	0.310814
H211	H	0.171371	0.522019	-0.135970
H212	H	0.671371	1.022019	0.364030
