data_functionalizedCrystal
_audit_creation_method	'MofGen! by Chris Wilmer'
_symmetry_space_group_name_H-M	'P1'
_symmetry_Int_Tables_number	1
_symmetry_cell_setting	triclinic
loop_
_symmetry_equiv_pos_as_xyz
  x,y,z
_cell_length_a	17.699077
_cell_length_b	10.489716
_cell_length_c	16.776229
_cell_angle_alpha	89.997416
_cell_angle_beta	89.993415
_cell_angle_gamma	83.904856
loop_
_atom_site_label
_atom_site_type_symbol
_atom_site_fract_x
_atom_site_fract_y
_atom_site_fract_z
O1	O	1.005128	0.161261	-0.066271
O2	O	0.784885	0.182254	-0.066274
O3	O	0.900028	-0.013936	-0.066275
O4	O	0.889985	0.357451	-0.066269
O5	O	0.900012	-0.013948	0.066302
O6	O	0.784870	0.182242	0.066303
O7	O	1.005112	0.161249	0.066306
Zn8	Zn	0.894988	0.171744	0.087354
Zn9	Zn	0.895009	0.171760	-0.087321
O10	O	0.889970	0.357439	0.066307
C11	C	0.756675	0.181497	0.000014
C12	C	0.672642	0.179245	0.000013
C13	C	0.633160	0.178177	0.072281
C14	C	0.554203	0.176039	0.072282
C15	C	0.514730	0.174980	0.000013
C16	C	0.554219	0.176044	-0.072260
C17	C	0.633175	0.178172	-0.072260
C18	C	0.235800	0.167460	-0.072262
C19	C	0.156838	0.165336	-0.072256
C20	C	0.156829	0.165328	0.072280
C21	C	0.235784	0.167456	0.072280
C22	C	0.275266	0.168513	0.000007
C23	C	0.360880	0.170828	0.000007
C24	C	0.429118	0.172674	0.000013
C25	C	0.899265	-0.061460	0.000011
C26	C	0.897008	-0.203049	0.000004
C27	C	0.967617	-0.302037	0.000012
C28	C	0.930313	-0.378697	-0.065354
C29	C	0.930282	-0.378673	0.065356
C30	C	0.859734	-0.277844	-0.065416
C31	C	0.859712	-0.277814	0.065353
C32	C	0.822357	-0.354424	-0.000029
C33	C	1.033322	0.162006	0.000016
C34	C	1.117355	0.164259	0.000013
C35	C	0.890732	0.404963	0.000020
C36	C	0.892989	0.546552	0.000022
N37	N	0.894980	0.171732	0.206565
N38	N	0.895023	0.171761	-0.206533
C39	C	0.945981	0.084895	0.248282
C40	C	0.945985	0.084894	0.331734
C41	C	0.894992	0.171737	0.373468
C42	C	0.843985	0.258579	0.331746
C43	C	0.843978	0.258573	0.248295
C44	C	0.844013	0.258604	0.668293
C45	C	0.844025	0.258606	0.751749
C46	C	0.946020	0.084925	0.751732
C47	C	0.946013	0.084919	0.668281
C48	C	0.895004	0.171755	0.626566
C49	C	0.894999	0.171754	0.536078
C50	C	0.895000	0.171746	0.463955
H51	H	0.267919	0.168325	0.131128
N52	N	0.998060	-0.003817	0.205643
N53	N	0.998047	-0.003816	0.131134
H54	H	1.034828	-0.066474	0.101020
N55	N	0.116511	0.164220	0.146115
N56	N	0.151765	0.165168	0.210634
H57	H	0.123293	0.164388	0.262780
N58	N	0.791892	0.347299	0.374361
N59	N	0.746357	0.424823	0.337101
H60	H	0.709564	0.487485	0.367196
H61	H	0.267937	0.168317	-0.131111
H62	H	0.802481	0.329311	0.634335
N63	N	0.822382	-0.222854	-0.134833
N64	N	0.793991	-0.293129	-0.184266
H65	H	0.767615	-0.254293	-0.233294
N66	N	0.745253	-0.383648	-0.000053
N67	N	0.701681	-0.344987	0.055538
H68	H	0.647227	-0.365627	0.055519
H69	H	0.987552	0.014214	0.785705
N70	N	0.998106	-0.003804	0.625668
N71	N	0.996441	-0.121697	0.634998
H72	H	1.033234	-0.184363	0.604906
H73	H	0.960097	-0.422705	0.120617
N74	N	0.673518	0.179280	-0.146074
N75	N	0.744014	0.181179	-0.146065
H76	H	0.772508	0.181958	-0.198197
H77	H	0.802447	0.329283	0.214330
H78	H	0.665292	0.179050	0.131130
H79	H	0.522062	0.175148	0.131130
N80	N	0.116528	0.164256	-0.146088
N81	N	0.151787	0.165201	-0.210612
H82	H	0.123319	0.164440	-0.262753
N83	N	0.822349	-0.222543	0.134687
N84	N	0.846437	-0.255129	0.202512
H85	H	0.820055	-0.216095	0.251486
N86	N	0.791918	0.347311	0.794369
N87	N	0.721956	0.345695	0.785067
H88	H	0.685156	0.408339	0.815167
N89	N	0.513890	0.174947	-0.146075
N90	N	0.443395	0.173048	-0.146066
H91	H	0.414912	0.172275	-0.198199
N92	N	1.044666	-0.272525	-0.000074
N93	N	1.087908	-0.309509	-0.056288
H94	H	1.142323	-0.288666	-0.056352
H95	H	0.960126	-0.422742	-0.120616
N96	N	0.998084	-0.003822	0.374333
N97	N	1.043612	-0.081351	0.337062
H98	H	1.080409	-0.144013	0.367147
