data_functionalizedCrystal
_audit_creation_method	'MofGen! by Chris Wilmer'
_symmetry_space_group_name_H-M	'P1'
_symmetry_Int_Tables_number	1
_symmetry_cell_setting	triclinic
loop_
_symmetry_equiv_pos_as_xyz
  x,y,z
_cell_length_a	16.974800
_cell_length_b	15.995350
_cell_length_c	16.053802
_cell_angle_alpha	92.567808
_cell_angle_beta	91.074188
_cell_angle_gamma	83.440933
loop_
_atom_site_label
_atom_site_type_symbol
_atom_site_fract_x
_atom_site_fract_y
_atom_site_fract_z
O1	O	1.049077	0.106733	0.001485
O2	O	1.549077	0.606733	0.501485
O3	O	0.819616	0.119551	-0.014026
O4	O	1.319616	0.619551	0.485974
O5	O	0.940619	-0.008732	-0.005845
O6	O	1.440619	0.491268	0.494155
O7	O	0.928074	0.235016	-0.006695
O8	O	1.428074	0.735016	0.493305
O9	O	0.933958	-0.001700	0.132563
O10	O	1.433958	0.498300	0.632563
O11	O	0.812955	0.126582	0.124383
O12	O	1.312955	0.626582	0.624383
O13	O	1.042417	0.113765	0.139894
O14	O	1.542417	0.613765	0.639894
Zn15	Zn	0.926628	0.121290	0.154114
Zn16	Zn	1.426628	0.621290	0.654114
Zn17	Zn	0.935404	0.112025	-0.028246
Zn18	Zn	1.435404	0.612025	0.471754
O19	O	0.921414	0.242047	0.131714
O20	O	1.421414	0.742047	0.631714
C21	C	0.786922	0.122450	0.053194
C22	C	1.286922	0.622450	0.553194
C23	C	0.699430	0.120604	0.047279
C24	C	1.199430	0.620604	0.547279
C25	C	0.654700	0.123568	0.119949
C26	C	1.154700	0.623568	0.619949
C27	C	0.572492	0.121820	0.114394
C28	C	1.072492	0.621820	0.614394
C29	C	0.535016	0.117114	0.036168
C30	C	1.035016	0.617114	0.536168
C31	C	0.579753	0.114147	-0.036507
C32	C	1.079753	0.614147	0.463493
C33	C	0.661959	0.115890	-0.030951
C34	C	1.161959	0.615890	0.469049
C35	C	0.289546	0.111487	0.011462
C36	C	0.789546	0.611487	0.511462
C37	C	0.207333	0.109748	0.005912
C38	C	0.707333	0.609748	0.505912
C39	C	0.200079	0.117418	0.156814
C40	C	0.700079	0.617418	0.656814
C41	C	0.282286	0.119165	0.162362
C42	C	0.782286	0.619165	0.662362
C43	C	0.327016	0.116194	0.089687
C44	C	0.827016	0.616194	0.589687
N45	N	0.450987	0.115330	0.030489
N46	N	0.950987	0.615330	0.530489
N47	N	0.411044	0.117972	0.095368
N48	N	0.911044	0.617972	0.595368
C49	C	0.936770	-0.036412	0.063322
C50	C	1.436770	0.463588	0.563322
C51	C	0.935215	-0.129366	0.063212
C52	C	1.435215	0.370634	0.563212
C53	C	0.929631	-0.467126	0.062838
C54	C	1.429631	0.032874	0.562838
C55	C	0.843470	-0.419899	0.056702
C56	C	1.343470	0.080101	0.556702
C57	C	0.845010	-0.323189	0.057119
C58	C	1.345010	0.176811	0.557119
C59	C	0.932401	-0.299559	0.063023
C60	C	1.432401	0.200441	0.563023
C61	C	0.971103	-0.336527	0.144933
C62	C	1.471103	0.163473	0.644933
C63	C	0.968935	-0.433164	0.144853
C64	C	1.468935	0.066836	0.644853
C65	C	0.978289	-0.441514	-0.012423
C66	C	1.478289	0.058486	0.487577
C67	C	0.978319	-0.344622	-0.013469
C68	C	1.478319	0.155378	0.486531
C69	C	0.933971	-0.204858	0.063131
C70	C	1.433971	0.295142	0.563131
C71	C	0.928064	-0.561827	0.062736
C72	C	1.428064	-0.061827	0.562736
C73	C	1.075110	0.110865	0.072673
C74	C	1.575110	0.610865	0.572673
C75	C	1.162603	0.112711	0.078582
C76	C	1.662603	0.612711	0.578582
C77	C	0.925262	0.269727	0.062544
C78	C	1.425262	0.769727	0.562544
C79	C	0.926817	0.362681	0.062648
C80	C	1.426817	0.862681	0.562648
N81	N	0.920645	0.127613	0.278570
N82	N	1.420645	0.627613	0.778570
N83	N	0.941393	0.105696	-0.152701
N84	N	1.441393	0.605696	0.347299
C85	C	0.972151	0.073048	0.325746
C86	C	1.472151	0.573048	0.825746
C87	C	0.967973	0.077478	0.412870
C88	C	1.467973	0.577478	0.912870
C89	C	0.912293	0.136479	0.452817
C90	C	1.412293	0.636479	0.952817
C91	C	0.860781	0.191046	0.405634
C92	C	1.360781	0.691046	0.905634
C93	C	0.864956	0.186611	0.318511
C94	C	1.364956	0.686611	0.818511
C95	C	0.894057	0.155828	0.712994
C96	C	1.394057	0.655828	1.212994
C97	C	0.889887	0.160261	0.800123
C98	C	1.389887	0.660261	1.300123
C99	C	0.997079	0.046692	0.807353
C100	C	1.497079	0.546692	1.307353
C101	C	1.001252	0.042266	0.720228
C102	C	1.501252	0.542266	1.220228
C103	C	0.949738	0.096830	0.673053
C104	C	1.449738	0.596830	1.173053
N105	N	0.908022	0.141010	0.541872
N106	N	1.408022	0.641010	1.041872
N107	N	0.954005	0.092293	0.583999
N108	N	1.454005	0.592293	1.083999
H109	H	0.163651	0.119836	0.215981
H110	H	0.663651	0.619836	0.715981
F111	F	0.928817	-0.295613	0.219207
F112	F	1.428817	0.204387	0.719207
F113	F	1.022790	0.019404	0.463078
F114	F	1.522790	0.519404	0.963078
H115	H	1.017495	0.025007	0.293227
H116	H	1.517495	0.525007	0.793227
H117	H	0.685205	0.127406	0.183649
H118	H	1.185205	0.627406	0.683649
H119	H	0.536078	0.124219	0.173570
H120	H	1.036078	0.624219	0.673570
H121	H	0.952997	-0.465160	-0.074233
H122	H	1.452997	0.034840	0.425767
F123	F	1.060514	-0.020528	0.677715
F124	F	1.560514	0.479472	1.177715
F125	F	0.830622	0.223063	0.842632
F126	F	1.330622	0.723063	1.342632
H127	H	0.312794	0.122993	0.226062
H128	H	0.812794	0.622993	0.726062
H129	H	0.811754	-0.441387	-0.002305
H130	H	1.311754	0.058613	0.497695
F131	F	0.794998	-0.442158	0.127132
F132	F	1.294998	0.057842	0.627132
F133	F	0.167450	0.104741	-0.077350
F134	F	0.667450	0.604741	0.422650
F135	F	1.051898	-0.011377	0.857564
F136	F	1.551898	0.488623	1.357564
F137	F	0.839234	0.213901	0.662793
F138	F	1.339234	0.713901	1.162793
H139	H	0.808643	-0.292516	0.111599
H140	H	1.308643	0.207484	0.611599
F141	F	0.801517	0.253835	0.448149
F142	F	1.301517	0.753835	0.948149
H143	H	0.823014	0.231042	0.280101
H144	H	1.323014	0.731042	0.780101
H145	H	0.325955	0.109065	-0.047715
H146	H	0.825955	0.609065	0.452285
H147	H	0.698377	0.113478	-0.090127
H148	H	1.198377	0.613478	0.409873
H149	H	0.549234	0.110310	-0.100200
H150	H	1.049234	0.610310	0.399800
H151	H	0.935097	-0.448532	0.201841
H152	H	1.435097	0.051468	0.701841
F153	F	1.051405	-0.474895	0.155136
F154	F	1.551405	0.025105	0.655136
F155	F	1.054838	-0.317683	0.154448
F156	F	1.554838	0.182317	0.654448
F157	F	0.804902	-0.289897	-0.019887
F158	F	1.304902	0.210103	0.480113
F159	F	0.941690	-0.312590	-0.092629
F160	F	1.441690	0.187410	0.407371
H161	H	1.042278	-0.329361	-0.013936
H162	H	1.542278	0.170639	0.486064
F163	F	1.061370	-0.482880	-0.007509
F164	F	1.561370	0.017120	0.492491
