data_functionalizedCrystal
_audit_creation_method	'MofGen! by Chris Wilmer'
_symmetry_space_group_name_H-M	'P1'
_symmetry_Int_Tables_number	1
_symmetry_cell_setting	triclinic
loop_
_symmetry_equiv_pos_as_xyz
  x,y,z
_cell_length_a	16.992694
_cell_length_b	27.732048
_cell_length_c	15.455313
_cell_angle_alpha	92.637842
_cell_angle_beta	87.142206
_cell_angle_gamma	86.655439
loop_
_atom_site_label
_atom_site_type_symbol
_atom_site_fract_x
_atom_site_fract_y
_atom_site_fract_z
O1	O	1.042606	0.100467	-0.072038
O2	O	1.542606	0.600467	0.427962
O3	O	0.814336	0.099342	-0.072063
O4	O	1.314336	0.599342	0.427937
O5	O	0.935560	0.029815	-0.072033
O6	O	1.435560	0.529815	0.427967
O7	O	0.921382	0.169994	-0.072068
O8	O	1.421382	0.669994	0.427932
O9	O	0.928628	0.033773	0.072227
O10	O	1.428628	0.533773	0.572227
O11	O	0.807404	0.103301	0.072197
O12	O	1.307404	0.603301	0.572197
O13	O	1.035674	0.104425	0.072223
O14	O	1.535674	0.604425	0.572223
Cu15	Cu	0.920906	0.104225	0.085382
Cu16	Cu	1.420906	0.604225	0.585382
Cu17	Cu	0.929104	0.099543	-0.085222
Cu18	Cu	1.429104	0.599543	0.414778
O19	O	0.914450	0.173953	0.072193
O20	O	1.414450	0.673953	0.572193
C21	C	0.781675	0.099876	0.000064
C22	C	1.281675	0.599876	0.500064
C23	C	0.694684	0.095561	0.000055
C24	C	1.194684	0.595561	0.500055
C25	C	0.643939	0.137184	0.000046
C26	C	1.143939	0.637184	0.500046
C27	C	0.562201	0.133129	0.000059
C28	C	1.062201	0.633129	0.500059
C29	C	0.531209	0.087449	0.000075
C30	C	1.031209	0.587449	0.500075
C31	C	0.581960	0.045823	0.000087
C32	C	1.081960	0.545823	0.500087
C33	C	0.663696	0.049880	0.000080
C34	C	1.163696	0.549880	0.500080
C35	C	0.287814	0.070637	0.000102
C36	C	0.787814	0.570637	0.500102
C37	C	0.206071	0.066583	0.000106
C38	C	0.706071	0.566583	0.500106
C39	C	0.186318	0.153889	0.000080
C40	C	0.686318	0.653889	0.500080
C41	C	0.268057	0.157941	0.000068
C42	C	0.768057	0.657941	0.500068
C43	C	0.318800	0.116315	0.000084
C44	C	0.818800	0.616315	0.500084
N45	N	0.447660	0.083302	0.000086
N46	N	0.947660	0.583302	0.500086
N47	N	0.402347	0.120463	0.000080
N48	N	0.902347	0.620463	0.500080
C49	C	0.931796	0.013774	0.000100
C50	C	1.431796	0.513774	0.500100
C51	C	0.930900	-0.039919	0.000107
C52	C	1.430900	0.460081	0.500107
C53	C	0.996895	-0.375882	0.000069
C54	C	1.496895	0.124118	0.500069
C55	C	0.993571	-0.577686	0.000057
C56	C	1.493571	-0.077686	0.500057
O57	O	1.053919	-0.606333	0.000026
O58	O	1.553919	-0.106333	0.500026
N59	N	0.921689	-0.599917	0.000050
N60	N	1.421689	-0.099917	0.500050
C61	C	0.850634	-0.571695	0.000040
C62	C	1.350634	-0.071695	0.500040
O63	O	0.789419	-0.595235	0.000025
O64	O	1.289419	-0.095235	0.500025
C65	C	0.853960	-0.369892	0.000046
C66	C	1.353960	0.130108	0.500046
C67	C	0.925846	-0.347663	0.000062
C68	C	1.425846	0.152337	0.500062
C69	C	1.068775	-0.353652	0.000084
C70	C	1.568775	0.146348	0.500084
C71	C	1.069605	-0.303204	0.000092
C72	C	1.569605	0.196796	0.500092
C73	C	0.998556	-0.274986	0.000085
C74	C	1.498556	0.225014	0.500085
C75	C	0.926676	-0.297215	0.000070
C76	C	1.426676	0.202785	0.500070
C77	C	0.782906	-0.341671	0.000030
C78	C	1.282906	0.158329	0.500030
C79	C	0.783744	-0.291218	0.000030
C80	C	1.283744	0.208782	0.500030
C81	C	0.855630	-0.268989	0.000046
C82	C	1.355630	0.231011	0.500046
C83	C	0.856457	-0.218549	0.000071
C84	C	1.356457	0.281451	0.500071
N85	N	0.928338	-0.196317	0.000078
N86	N	1.428338	0.303683	0.500078
C87	C	0.999387	-0.224535	0.000085
C88	C	1.499387	0.275465	0.500085
C89	C	0.848893	-0.677644	0.000038
C90	C	1.348893	-0.177644	0.500038
C91	C	0.848061	-0.728095	0.000038
C92	C	1.348061	-0.228095	0.500038
C93	C	0.990998	-0.734082	0.000054
C94	C	1.490998	-0.234082	0.500054
C95	C	0.991829	-0.683630	0.000060
C96	C	1.491829	-0.183630	0.500060
C97	C	0.920775	-0.655413	0.000046
C98	C	1.420775	-0.155413	0.500046
C99	C	1.001126	-0.118591	0.000102
C100	C	1.501126	0.381409	0.500102
C101	C	1.001949	-0.068138	0.000114
C102	C	1.501949	0.431862	0.500114
C103	C	0.859013	-0.062155	0.000094
C104	C	1.359013	0.437845	0.500094
C105	C	0.858189	-0.112603	0.000087
C106	C	1.358189	0.387397	0.500087
C107	C	0.929251	-0.140820	0.000088
C108	C	1.429251	0.359180	0.500088
O109	O	0.796141	-0.189872	0.000092
O110	O	1.296141	0.310128	0.500092
O111	O	1.060595	-0.200987	0.000081
O112	O	1.560595	0.299013	0.500081
C113	C	0.996065	-0.426330	0.000062
C114	C	1.496065	0.073670	0.500062
C115	C	0.924185	-0.448559	0.000047
C116	C	1.424185	0.051441	0.500047
C117	C	0.853136	-0.420341	0.000039
C118	C	1.353136	0.079659	0.500039
C119	C	0.923354	-0.499010	0.000047
C120	C	1.423354	0.000990	0.500047
C121	C	0.994403	-0.527228	0.000054
C122	C	1.494403	-0.027228	0.500054
C123	C	1.066285	-0.504997	0.000061
C124	C	1.566285	-0.004997	0.500061
C125	C	1.067115	-0.454549	0.000069
C126	C	1.567115	0.045451	0.500069
C127	C	0.781254	-0.442573	0.000032
C128	C	1.281254	0.057427	0.500032
C129	C	0.780430	-0.493021	0.000025
C130	C	1.280430	0.006979	0.500025
C131	C	0.851480	-0.521240	0.000033
C132	C	1.351480	-0.021240	0.500033
C133	C	1.068335	0.103892	0.000094
C134	C	1.568335	0.603892	0.500094
C135	C	1.155327	0.108206	0.000097
C136	C	1.655327	0.608206	0.500097
C137	C	0.918214	0.189993	0.000058
C138	C	1.418214	0.689993	0.500058
C139	C	0.919111	0.243687	0.000046
C140	C	1.419111	0.743687	0.500046
N141	N	0.915146	0.107517	0.205376
N142	N	1.415146	0.607517	0.705376
N143	N	0.934870	0.096247	-0.205217
N144	N	1.434870	0.596247	0.294783
C145	C	0.966664	0.077992	0.250783
C146	C	1.466664	0.577992	0.750783
C147	C	0.962315	0.080486	0.341590
C148	C	1.462315	0.580486	0.841590
C149	C	0.906451	0.112509	0.386988
C150	C	1.406451	0.612509	0.886988
C151	C	0.854928	0.142036	0.341575
C152	C	1.354928	0.642036	0.841575
C153	C	0.859274	0.139538	0.250770
C154	C	1.359274	0.639538	0.750770
C155	C	0.887693	0.123276	0.658565
C156	C	1.387693	0.623276	1.158565
C157	C	0.883353	0.125773	0.749377
C158	C	1.383353	0.625773	1.249377
C159	C	0.990739	0.064222	0.749385
C160	C	1.490739	0.564222	1.249385
C161	C	0.995083	0.061730	0.658578
C162	C	1.495083	0.561730	1.158578
C163	C	0.943557	0.091254	0.613173
C164	C	1.443557	0.591254	1.113173
N165	N	0.902006	0.115061	0.479807
N166	N	1.402006	0.615061	0.979807
N167	N	0.947999	0.088700	0.520356
N168	N	1.447999	0.588700	1.020356
H169	H	0.144995	0.187778	0.000068
H170	H	0.644995	0.687778	0.500068
H171	H	0.180842	0.029383	0.000119
H172	H	0.680842	0.529383	0.500119
N173	N	0.550307	-0.000838	0.000087
N174	N	1.050307	0.499162	0.500087
N175	N	0.568965	-0.031281	-0.060718
N176	N	1.068965	0.468719	0.439282
H177	H	0.546612	-0.064238	-0.060722
H178	H	1.046612	0.435762	0.439278
N179	N	0.709478	-0.364371	-0.000011
N180	N	1.209478	0.135629	0.499989
N181	N	0.695992	-0.393513	-0.060833
N182	N	1.195992	0.106487	0.439167
H183	H	0.644129	-0.409544	-0.060867
H184	H	1.144129	0.090456	0.439133
N185	N	0.835054	0.153436	0.612206
N186	N	1.335054	0.653436	1.112206
N187	N	0.785180	0.182024	0.652754
N188	N	1.285180	0.682024	1.152754
H189	H	0.748000	0.203326	0.620011
H190	H	1.248000	0.703326	1.120011
N191	N	0.510362	0.175644	0.000070
N192	N	1.010362	0.675644	0.500070
N193	N	0.459647	0.184789	0.060894
N194	N	0.959647	0.684789	0.560894
H195	H	0.423037	0.214819	0.060910
H196	H	0.923037	0.714819	0.560910
N197	N	0.339629	0.028113	0.000116
N198	N	0.839629	0.528113	0.500116
N199	N	0.311944	-0.012668	0.000125
N200	N	0.811944	0.487332	0.500125
H201	H	0.348541	-0.042703	0.000133
H202	H	0.848541	0.457297	0.500133
N203	N	0.826272	0.158474	0.795757
N204	N	1.326272	0.658474	1.295757
N205	N	0.775399	0.142634	0.846444
N206	N	1.275399	0.642634	1.346444
H207	H	0.735088	0.165727	0.879202
H208	H	1.235088	0.665727	1.379202
N209	N	0.675579	0.183850	0.000039
N210	N	1.175579	0.683850	0.500039
N211	N	0.656918	0.214292	0.060844
N212	N	1.156918	0.714292	0.560844
H213	H	0.679261	0.247251	0.060844
H214	H	1.179261	0.747251	0.560844
N215	N	0.706994	-0.515724	0.000028
N216	N	1.206994	-0.015724	0.500028
N217	N	0.656310	-0.506421	0.060830
N218	N	1.156310	-0.006421	0.560830
H219	H	0.604448	-0.522454	0.060828
H220	H	1.104448	-0.022454	0.560828
N221	N	0.797863	0.174740	0.387959
N222	N	1.297863	0.674740	0.887959
N223	N	0.793989	0.176967	0.469034
N224	N	1.293989	0.676967	0.969034
H225	H	0.753686	0.200065	0.501792
H226	H	1.253686	0.700065	1.001792
N227	N	1.014942	0.050321	0.387958
N228	N	1.514942	0.550321	0.887958
N229	N	1.064819	0.021733	0.347414
N230	N	1.564819	0.521733	0.847414
H231	H	1.101989	0.000426	0.380160
H232	H	1.601989	0.500426	0.880160
N233	N	0.806663	0.169700	0.204372
N234	N	1.306663	0.669700	0.704372
N235	N	0.810551	0.167466	0.123296
N236	N	1.310551	0.667466	0.623296
H237	H	0.773392	0.188767	0.090526
H238	H	1.273392	0.688767	0.590526
N239	N	0.776314	-0.648818	0.000023
N240	N	1.276314	-0.148818	0.500023
N241	N	0.763744	-0.621662	-0.060787
N242	N	1.263744	-0.121662	0.439213
H243	H	0.712484	-0.601304	-0.060796
H244	H	1.212484	-0.101304	0.439204
N245	N	0.299699	0.204606	0.000040
N246	N	0.799699	0.704606	0.500040
N247	N	0.254382	0.241766	0.000026
N248	N	0.754382	0.741766	0.500026
H249	H	0.276729	0.274724	0.000001
H250	H	0.776729	0.774724	0.500001
H251	H	0.799653	-0.130703	0.000098
H252	H	1.299653	0.369297	0.500098
H253	H	1.040572	0.035654	0.621617
H254	H	1.540572	0.535654	1.121617
N255	N	1.043362	0.034069	0.795780
N256	N	1.543362	0.534069	1.295780
N257	N	1.039478	0.036301	0.876855
N258	N	1.539478	0.536301	1.376855
H259	H	1.076644	0.015003	0.909622
H260	H	1.576644	0.515003	1.409622
H261	H	0.705012	0.015986	0.000088
H262	H	1.205012	0.515986	0.500088
H263	H	1.060489	-0.050041	0.000129
H264	H	1.560489	0.449959	0.500129
N265	N	1.063583	-0.762903	0.000064
N266	N	1.563583	-0.262903	0.500064
N267	N	1.108615	-0.757614	0.060873
N268	N	1.608615	-0.257614	0.560873
H269	H	1.159876	-0.777971	0.060876
H270	H	1.659876	-0.277971	0.560876
H271	H	1.058992	-0.141559	0.000100
H272	H	1.558992	0.358441	0.500100
H273	H	1.128142	-0.285110	0.000102
H274	H	1.628142	0.214890	0.500102
H275	H	1.126636	-0.376623	0.000087
H276	H	1.626636	0.123377	0.500087
N277	N	1.138861	-0.533827	0.000049
N278	N	1.638861	-0.033827	0.500049
N279	N	1.189725	-0.531865	-0.060759
N280	N	1.689725	-0.031865	0.439241
H281	H	1.240980	-0.552229	-0.060773
H282	H	1.740980	-0.052229	0.439227
H283	H	1.050364	-0.665535	0.000072
H284	H	1.550364	-0.165535	0.500072
H285	H	0.789524	-0.746189	0.000040
H286	H	1.289524	-0.246189	0.500040
H287	H	0.725882	-0.268245	0.000017
H288	H	1.225882	0.231755	0.500017
N289	N	0.708674	-0.413751	0.000048
N290	N	1.208674	0.086249	0.500048
N291	N	0.690268	-0.383274	0.060866
N292	N	1.190268	0.116726	0.560866
H293	H	0.639003	-0.362920	0.060883
H294	H	1.139003	0.137080	0.560883
H295	H	1.012157	0.051917	0.213826
H296	H	1.512157	0.551917	0.713826
H297	H	0.801166	-0.039170	0.000091
H298	H	1.301166	0.460830	0.500091
N299	N	1.140552	-0.431854	0.000088
N300	N	1.640552	0.068146	0.500088
N301	N	1.203977	-0.457063	0.000096
N302	N	1.703977	0.042937	0.500096
H303	H	1.255847	-0.441038	0.000109
H304	H	1.755847	0.058962	0.500109
