data_functionalizedCrystal
_audit_creation_method	'MofGen! by Chris Wilmer'
_symmetry_space_group_name_H-M	'P1'
_symmetry_Int_Tables_number	1
_symmetry_cell_setting	triclinic
loop_
_symmetry_equiv_pos_as_xyz
  x,y,z
_cell_length_a	10.540491
_cell_length_b	10.540535
_cell_length_c	13.930277
_cell_angle_alpha	89.994124
_cell_angle_beta	90.006779
_cell_angle_gamma	95.485345
loop_
_atom_site_label
_atom_site_type_symbol
_atom_site_fract_x
_atom_site_fract_y
_atom_site_fract_z
O1	O	-1.685925	0.178607	-0.079825
O2	O	-1.185925	0.678607	0.420175
O3	O	-1.316504	0.195527	-0.079829
O4	O	-0.816504	0.695527	0.420171
O5	O	-1.509646	0.002359	-0.079817
O6	O	-1.009646	0.502359	0.420183
O7	O	-1.492784	0.371775	-0.079837
O8	O	-0.992784	0.871775	0.420163
O9	O	-1.509619	0.002354	0.079845
O10	O	-1.009619	0.502354	0.579845
O11	O	-1.316477	0.195523	0.079833
O12	O	-0.816477	0.695523	0.579833
O13	O	-1.685898	0.178603	0.079837
O14	O	-1.185898	0.678603	0.579837
Zn15	Zn	-1.501183	0.187062	0.105184
Zn16	Zn	-1.001183	0.687062	0.605184
Zn17	Zn	-1.501219	0.187068	-0.105177
Zn18	Zn	-1.001219	0.687068	0.394823
O19	O	-1.492756	0.371771	0.079825
O20	O	-0.992756	0.871771	0.579825
C21	C	-1.269187	0.194269	0.000001
C22	C	-0.769187	0.694269	0.500001
C23	C	-1.128236	0.190512	-0.000000
C24	C	-0.628236	0.690512	0.500000
C25	C	-0.910776	0.324711	-0.000376
C26	C	-0.410776	0.824711	0.499624
C27	C	-1.057373	0.328719	-0.000009
C28	C	-0.557373	0.828719	0.499991
C29	C	-1.083461	0.119766	0.091176
C30	C	-0.583461	0.619766	0.591176
C31	C	-0.936699	0.116736	0.091245
C32	C	-0.436699	0.616736	0.591245
C33	C	-0.936924	0.113863	-0.090320
C34	C	-0.436924	0.613863	0.409680
C35	C	-1.083266	0.120409	-0.091518
C36	C	-0.583266	0.620409	0.408482
C37	C	-1.508369	-0.044946	0.000014
C38	C	-1.008369	0.455054	0.500014
C39	C	-1.504589	-0.185894	0.000015
C40	C	-1.004589	0.314106	0.500015
C41	C	-1.363572	-0.222540	0.000007
C42	C	-0.863572	0.277460	0.500007
C43	C	-1.359595	-0.369140	-0.000373
C44	C	-0.859595	0.130860	0.499627
C45	C	-1.568977	-0.395228	-0.091003
C46	C	-1.068977	0.104772	0.408997
C47	C	-1.571977	-0.248463	-0.091062
C48	C	-1.071977	0.251537	0.408938
C49	C	-1.573998	-0.248606	0.090509
C50	C	-1.073998	0.251394	0.590509
C51	C	-1.567476	-0.394952	0.091688
C52	C	-1.067476	0.105048	0.591688
C53	C	-0.733214	0.179877	0.000002
C54	C	-0.233214	0.679877	0.500002
C55	C	-0.874158	0.183685	-0.000010
C56	C	-0.374158	0.683685	0.499990
C57	C	-1.494033	0.419076	-0.000009
C58	C	-0.994033	0.919076	0.499991
C59	C	-1.497813	0.560024	-0.000016
C60	C	-0.997813	1.060024	0.499984
N61	N	-1.501168	0.187057	0.248751
N62	N	-1.001168	0.687057	0.748751
N63	N	-1.501244	0.187062	-0.248743
N64	N	-1.001244	0.687062	0.251257
C65	C	-1.415692	0.272569	0.701015
C66	C	-0.915692	0.772569	1.201015
C67	C	-1.586781	0.101557	0.700995
C68	C	-1.086781	0.601557	1.200995
C69	C	-1.586766	0.101553	0.600499
C70	C	-1.086766	0.601553	1.100499
C71	C	-1.501214	0.187059	0.550256
C72	C	-1.001214	0.687059	1.050256
C73	C	-1.415677	0.272570	0.600510
C74	C	-0.915677	0.772570	1.100510
C75	C	-1.672309	0.016053	0.550238
C76	C	-1.172309	0.516053	1.050238
C77	C	-1.672299	0.016046	0.449736
C78	C	-1.172299	0.516046	0.949736
C79	C	-1.586740	0.101547	0.399492
C80	C	-1.086740	0.601547	0.899492
C81	C	-1.501198	0.187060	0.449751
C82	C	-1.001198	0.687060	0.949751
C83	C	-1.415647	0.272567	0.399509
C84	C	-0.915647	0.772567	0.899509
C85	C	-1.330098	0.358075	0.449766
C86	C	-0.830098	0.858075	0.949766
C87	C	-1.330118	0.358071	0.550265
C88	C	-0.830118	0.858071	1.050265
C89	C	-1.586720	0.101551	0.298993
C90	C	-1.086720	0.601551	0.798993
C91	C	-1.415631	0.272568	0.299004
C92	C	-0.915631	0.772568	0.799004
H93	H	-0.913705	0.013371	0.095392
H94	H	-0.413705	0.513371	0.595392
H95	H	-1.741955	-0.053580	0.408823
H96	H	-1.241955	0.446420	0.908823
Cl97	Cl	-1.779864	-0.091429	0.613397
Cl98	Cl	-1.279864	0.408571	1.113397
H99	H	-1.114303	0.168894	0.159024
H100	H	-0.614303	0.668894	0.659024
Cl101	Cl	-1.734182	-0.214379	0.091877
Cl102	Cl	-1.234182	0.285621	0.591877
H103	H	-1.260469	0.427690	0.591191
H104	H	-0.760469	0.927690	1.091191
Cl105	Cl	-0.871268	0.181175	-0.197017
Cl106	Cl	-0.371268	0.681175	0.302983
Cl107	Cl	-0.843586	0.407369	0.099993
Cl108	Cl	-0.343586	0.907369	0.599993
H109	H	-1.523940	-0.208273	-0.159339
H110	H	-1.023940	0.291727	0.340661
Cl111	Cl	-0.902730	-0.046336	-0.091262
Cl112	Cl	-0.402730	0.453664	0.408738
H113	H	-1.529983	-0.206150	0.159503
H114	H	-1.029983	0.293850	0.659503
Cl115	Cl	-1.156614	-0.037327	0.096420
Cl116	Cl	-0.656614	0.462673	0.596420
Cl117	Cl	-1.487524	-0.439113	0.195619
Cl118	Cl	-0.987524	0.060887	0.695619
Cl119	Cl	-1.279937	-0.157736	0.100733
Cl120	Cl	-0.779937	0.342264	0.600733
Cl121	Cl	-1.308146	0.380055	0.764190
Cl122	Cl	-0.808146	0.880055	1.264190
H123	H	-1.111895	0.171883	-0.158970
H124	H	-0.611895	0.671883	0.341030
H125	H	-1.085765	0.384397	0.065454
H126	H	-0.585765	0.884397	0.565454
Cl127	Cl	-1.281378	-0.155422	-0.100586
Cl128	Cl	-0.781378	0.344578	0.399414
H129	H	-1.675355	-0.225449	-0.094936
H130	H	-1.175355	0.274551	0.405064
H131	H	-1.656378	0.031937	0.258078
H132	H	-1.156378	0.531937	0.758078
Cl133	Cl	-1.159015	-0.035384	-0.100008
Cl134	Cl	-0.659015	0.464616	0.399992
H135	H	-1.303929	-0.398476	0.064832
H136	H	-0.803929	0.101524	0.564832
Cl137	Cl	-1.274134	-0.413049	-0.101680
Cl138	Cl	-0.774134	0.086951	0.398320
Cl139	Cl	-0.874582	0.191390	0.196460
Cl140	Cl	-0.374582	0.691390	0.696460
Cl141	Cl	-1.222560	0.465573	0.386594
Cl142	Cl	-0.722560	0.965573	0.886594
H143	H	-1.345960	0.342193	0.258102
H144	H	-0.845960	0.842193	0.758102
H145	H	-1.656441	0.031946	0.741905
H146	H	-1.156441	0.531946	1.241905
H147	H	-1.086729	0.384065	-0.065370
H148	H	-0.586729	0.884065	0.434630
H149	H	-0.868833	0.378557	-0.065764
H150	H	-0.368833	0.878557	0.434236
H151	H	-1.670745	-0.442601	-0.094131
H152	H	-1.170745	0.057399	0.405869
H153	H	-1.520174	-0.426109	-0.158982
H154	H	-1.020174	0.073891	0.341018
H155	H	-1.668357	-0.444005	0.097458
H156	H	-1.168357	0.055995	0.597458
