data_functionalizedCrystal
_audit_creation_method	'MofGen! by Chris Wilmer'
_symmetry_space_group_name_H-M	'P1'
_symmetry_Int_Tables_number	1
_symmetry_cell_setting	triclinic
loop_
_symmetry_equiv_pos_as_xyz
  x,y,z
_cell_length_a	19.805407
_cell_length_b	19.121063
_cell_length_c	19.805399
_cell_angle_alpha	92.411105
_cell_angle_beta	89.982197
_cell_angle_gamma	92.466276
loop_
_atom_site_label
_atom_site_type_symbol
_atom_site_fract_x
_atom_site_fract_y
_atom_site_fract_z
Zn1	Zn	1.023232	-0.279680	-0.394173
Zn2	Zn	1.523232	0.220320	0.105827
Zn3	Zn	1.018315	-0.397133	-0.285808
Zn4	Zn	1.518315	0.102867	0.214192
Zn5	Zn	0.910046	-0.279694	-0.281002
Zn6	Zn	1.410046	0.220306	0.218998
Zn7	Zn	0.905180	-0.397090	-0.398957
Zn8	Zn	1.405180	0.102910	0.101043
O9	O	0.964193	-0.338399	-0.339985
O10	O	1.464193	0.161601	0.160015
O11	O	1.117296	-0.295273	-0.379808
O12	O	1.617296	0.204727	0.120192
O13	O	1.003932	-0.381578	-0.190455
O14	O	1.503932	0.118422	0.309545
O15	O	0.929154	-0.181408	-0.292001
O16	O	1.429154	0.318592	0.207999
O17	O	1.113684	-0.381564	-0.300193
O18	O	1.613684	0.118436	0.199807
O19	O	1.012311	-0.181398	-0.375147
O20	O	1.512311	0.318602	0.124853
O21	O	0.924387	-0.295296	-0.186924
O22	O	1.424387	0.204704	0.313076
O23	O	0.814684	-0.295255	-0.296639
O24	O	1.314684	0.204745	0.203361
O25	O	0.920862	-0.381491	-0.493038
O26	O	1.420862	0.118509	0.006962
O27	O	0.811110	-0.381505	-0.383300
O28	O	1.311110	0.118495	0.116700
O29	O	1.007593	-0.295231	-0.489523
O30	O	1.507593	0.204769	0.010477
O31	O	0.999214	-0.495411	-0.304831
O32	O	1.499214	0.004589	0.195169
O33	O	0.916094	-0.495380	-0.387961
O34	O	1.416094	0.004620	0.112039
C35	C	0.788338	-0.338377	-0.339968
C36	C	1.288338	0.161623	0.160032
C37	C	0.713106	-0.338385	-0.339977
C38	C	1.213106	0.161615	0.160023
C39	C	0.679640	-0.293532	-0.381502
C40	C	1.179640	0.206468	0.118498
C41	C	0.608951	-0.293536	-0.381505
C42	C	1.108951	0.206464	0.118495
C43	C	0.571730	-0.338396	-0.339986
C44	C	1.071730	0.161604	0.160014
C45	C	0.605201	-0.383251	-0.298456
C46	C	1.105201	0.116749	0.201544
C47	C	0.675888	-0.383243	-0.298450
C48	C	1.175888	0.116757	0.201550
C49	C	0.320126	-0.383282	-0.298478
C50	C	0.820126	0.116718	0.201522
C51	C	0.249434	-0.383288	-0.298489
C52	C	0.749434	0.116712	0.201511
C53	C	0.253189	-0.293575	-0.381532
C54	C	0.753189	0.206425	0.118468
C55	C	0.323877	-0.293567	-0.381527
C56	C	0.823877	0.206433	0.118473
C57	C	0.357342	-0.338419	-0.339995
C58	C	0.857342	0.161581	0.160005
C59	C	0.433990	-0.338414	-0.339991
C60	C	0.933990	0.161586	0.160009
C61	C	0.495082	-0.338406	-0.339992
C62	C	0.995082	0.161594	0.160008
C63	C	0.956611	-0.520880	-0.347452
C64	C	1.456611	-0.020880	0.152548
C65	C	0.953430	-0.598946	-0.350668
C66	C	1.453430	-0.098946	0.149332
C67	C	0.995244	-0.635614	-0.308934
C68	C	1.495244	-0.135614	0.191066
C69	C	0.992256	-0.708966	-0.311964
C70	C	1.492256	-0.208966	0.188036
C71	C	0.947449	-0.745647	-0.356724
C72	C	1.447449	-0.245647	0.143276
C73	C	0.905632	-0.708973	-0.398463
C74	C	1.405632	-0.208973	0.101537
C75	C	0.908625	-0.635623	-0.395436
C76	C	1.408625	-0.135623	0.104564
C77	C	0.936251	-0.967116	-0.368029
C78	C	1.436251	-0.467116	0.131971
C79	C	0.933260	-1.040472	-0.371051
C80	C	1.433260	-0.540472	0.128949
C81	C	1.019885	-1.040459	-0.284552
C82	C	1.519885	-0.540459	0.215448
C83	C	1.022870	-0.967108	-0.281527
C84	C	1.522870	-0.467108	0.218473
C85	C	0.981056	-0.930440	-0.323268
C86	C	1.481056	-0.430440	0.176732
C87	C	0.944392	-0.820624	-0.359820
C88	C	1.444392	-0.320624	0.140180
C89	C	0.984117	-0.855465	-0.320175
C90	C	1.484117	-0.355465	0.179825
C91	C	1.140735	-0.338422	-0.340003
C92	C	1.640735	0.161578	0.159997
C93	C	1.215967	-0.338431	-0.340011
C94	C	1.715967	0.161569	0.159989
C95	C	0.964233	-0.338355	-0.516526
C96	C	1.464233	0.161645	-0.016526
C97	C	0.964250	-0.338336	-0.591757
C98	C	1.464250	0.161664	-0.091757
C99	C	0.971823	-0.155206	-0.332504
C100	C	1.471823	0.344794	0.167496
C101	C	0.975075	-0.077140	-0.329316
C102	C	1.475075	0.422860	0.170684
C103	C	1.009412	-0.293418	-0.625272
C104	C	1.509412	0.206582	-0.125272
C105	C	1.009420	-0.293398	-0.695960
C106	C	1.509420	0.206602	-0.195960
C107	C	0.964268	-0.338299	-0.733131
C108	C	1.464268	0.161701	-0.233131
C109	C	0.919101	-0.383219	-0.699611
C110	C	1.419101	0.116781	-0.199611
C111	C	0.919091	-0.383236	-0.628925
C112	C	1.419091	0.116764	-0.128925
C113	C	0.919142	-0.383154	-0.984682
C114	C	1.419142	0.116846	-0.484682
C115	C	0.919158	-0.383136	-1.055374
C116	C	1.419158	0.116864	-0.555374
C117	C	1.009472	-0.293316	-1.051717
C118	C	1.509472	0.206684	-0.551717
C119	C	1.009461	-0.293332	-0.981031
C120	C	1.509461	0.206668	-0.481031
C121	C	0.964292	-0.338249	-0.947517
C122	C	1.464292	0.161751	-0.447517
C123	C	0.964283	-0.338270	-0.870869
C124	C	1.464283	0.161730	-0.370869
C125	C	0.964280	-0.338283	-0.809778
C126	C	1.464280	0.161717	-0.309778
C127	C	0.964195	-0.338393	-0.164129
C128	C	1.464195	0.161607	0.335871
C129	C	0.964317	-0.338214	-0.088890
C130	C	1.464317	0.161786	0.411110
H131	H	0.574890	-0.419773	-0.264647
H132	H	1.074890	0.080227	0.235353
H133	H	0.709941	-0.257003	-0.415313
H134	H	1.209941	0.242997	0.084687
O135	O	0.359931	-0.249923	-0.421877
O136	O	0.859931	0.250077	0.078123
C137	C	0.315234	-0.210346	-0.458541
C138	C	0.815234	0.289654	0.041459
H139	H	0.264936	-0.207883	-0.430726
H140	H	0.764936	0.292117	0.069274
H141	H	0.306669	-0.236135	-0.510963
H142	H	0.806669	0.263865	-0.010963
C143	C	0.407699	-0.138632	-0.499513
C144	C	0.907699	0.361368	0.000487
C145	C	0.345924	-0.135601	-0.465347
C146	C	0.845924	0.364399	0.034653
H147	H	0.426631	-0.092526	-0.503715
H148	H	0.926631	0.407474	-0.003715
H149	H	0.437813	-0.165297	-0.474814
H150	H	0.937813	0.334703	0.025186
H151	H	0.400554	-0.160125	-0.543194
H152	H	0.900554	0.339875	-0.043194
H153	H	0.353072	-0.114116	-0.421664
H154	H	0.853072	0.385884	0.078336
H155	H	0.315812	-0.108930	-0.490040
H156	H	0.815812	0.391070	0.009960
O157	O	1.060483	-1.076187	-0.244084
O158	O	1.560483	-0.576187	0.255916
C159	C	1.048227	-1.148793	-0.256341
C160	C	1.548227	-0.648793	0.243659
H161	H	1.025613	-1.158792	-0.308965
H162	H	1.525613	-0.658792	0.191035
H163	H	1.011364	-1.169669	-0.217017
H164	H	1.511364	-0.669669	0.282983
C165	C	1.142960	-1.174114	-0.187131
C166	C	1.642960	-0.674114	0.312869
C167	C	1.115190	-1.186396	-0.251767
C168	C	1.615190	-0.686396	0.248233
H169	H	1.184265	-1.197311	-0.184306
H170	H	1.684265	-0.697311	0.315694
H171	H	1.151216	-1.125198	-0.178871
H172	H	1.651216	-0.625198	0.321129
H173	H	1.112234	-1.191512	-0.154368
H174	H	1.612234	-0.691512	0.345632
H175	H	1.145912	-1.168991	-0.284528
H176	H	1.645912	-0.668991	0.215472
H177	H	1.106941	-1.235310	-0.260032
H178	H	1.606941	-0.735310	0.239968
O179	O	0.889810	-1.076076	-0.414632
O180	O	1.389810	-0.576076	0.085368
C181	C	0.905290	-1.058087	-0.481363
C182	C	1.405290	-0.558087	0.018637
H183	H	0.960184	-1.037874	-0.483992
H184	H	1.460184	-0.537874	0.016008
H185	H	0.870726	-1.015533	-0.497275
H186	H	1.370726	-0.515533	0.002725
C187	C	0.827318	-1.148053	-0.525979
C188	C	1.327318	-0.648053	-0.025979
C189	C	0.894741	-1.123233	-0.529209
C190	C	1.394741	-0.623233	-0.029209
H191	H	0.820808	-1.188237	-0.555494
H192	H	1.320808	-0.688237	-0.055494
H193	H	0.816886	-1.160171	-0.481021
H194	H	1.316886	-0.660171	0.018979
H195	H	0.798522	-1.112585	-0.539238
H196	H	1.298522	-0.612585	-0.039238
H197	H	0.923535	-1.158698	-0.515942
H198	H	1.423535	-0.658698	-0.015942
H199	H	0.905178	-1.111122	-0.574166
H200	H	1.405178	-0.611122	-0.074166
O201	O	1.038807	-0.599909	-0.265543
O202	O	1.538807	-0.099909	0.234457
C203	C	1.084245	-0.557431	-0.302365
C204	C	1.584245	-0.057431	0.197635
H205	H	1.060791	-0.546422	-0.353182
H206	H	1.560791	-0.046422	0.146818
H207	H	1.133248	-0.585655	-0.311013
H208	H	1.633248	-0.085655	0.188987
C209	C	1.128171	-0.501295	-0.199844
C210	C	1.628171	-0.001295	0.300156
C211	C	1.099363	-0.487769	-0.262257
C212	C	1.599363	0.012231	0.237743
H213	H	1.137500	-0.458326	-0.175103
H214	H	1.637500	0.041674	0.324897
H215	H	1.097561	-0.529915	-0.175036
H216	H	1.597561	-0.029915	0.324964
H217	H	1.169004	-0.524817	-0.207059
H218	H	1.669004	-0.024817	0.292941
H219	H	1.058528	-0.464256	-0.255040
H220	H	1.558528	0.035744	0.244960
H221	H	1.129967	-0.459144	-0.287063
H222	H	1.629967	0.040856	0.212937
O223	O	1.032899	-0.744477	-0.271353
O224	O	1.532899	-0.244477	0.228647
C225	C	1.073096	-0.696372	-0.231206
C226	C	1.573096	-0.196372	0.268794
H227	H	1.047504	-0.644111	-0.226682
H228	H	1.547504	-0.144111	0.273318
H229	H	1.124809	-0.688510	-0.255710
H230	H	1.624809	-0.188510	0.244290
C231	C	1.113154	-0.789231	-0.165915
C232	C	1.613154	-0.289231	0.334085
C233	C	1.081718	-0.725044	-0.160355
C234	C	1.581718	-0.225044	0.339645
H235	H	1.118476	-0.806917	-0.122212
H236	H	1.618476	-0.306917	0.377788
H237	H	1.086075	-0.821640	-0.192965
H238	H	1.586075	-0.321640	0.307035
H239	H	1.156245	-0.782670	-0.186339
H240	H	1.656245	-0.282670	0.313661
H241	H	1.038625	-0.731606	-0.139940
H242	H	1.538625	-0.231606	0.360060
H243	H	1.108791	-0.692636	-0.133301
H244	H	1.608791	-0.192636	0.366699
H245	H	0.902203	-0.937268	-0.402015
H246	H	1.402203	-0.437268	0.097985
H247	H	0.225934	-0.257052	-0.415347
H248	H	0.725934	0.242948	0.084653
O249	O	0.708292	-0.426882	-0.258097
O250	O	1.208292	0.073118	0.241903
C251	C	0.660284	-0.466468	-0.221441
C252	C	1.160284	0.033532	0.278559
H253	H	0.609804	-0.468943	-0.249266
H254	H	1.109804	0.031057	0.250734
H255	H	0.653814	-0.440679	-0.169021
H256	H	1.153814	0.059321	0.330979
C257	C	0.746772	-0.538162	-0.180449
C258	C	1.246772	-0.038162	0.319551
C259	C	0.684773	-0.541207	-0.214627
C260	C	1.184773	-0.041207	0.285373
H261	H	0.761879	-0.584264	-0.176243
H262	H	1.261879	-0.084264	0.323757
H263	H	0.779117	-0.511491	-0.205143
H264	H	1.279117	-0.011491	0.294857
H265	H	0.741373	-0.516669	-0.136770
H266	H	1.241373	-0.016669	0.363230
H267	H	0.690175	-0.562692	-0.258308
H268	H	1.190175	-0.062692	0.241692
H269	H	0.652430	-0.567884	-0.189941
H270	H	1.152430	-0.067884	0.310059
O271	O	0.868104	-0.599968	-0.436046
O272	O	1.368104	-0.099968	0.063954
C273	C	0.908350	-0.557467	-0.478031
C274	C	1.408350	-0.057467	0.021969
H275	H	0.960755	-0.579529	-0.483168
H276	H	1.460755	-0.079529	0.016832
H277	H	0.912964	-0.501889	-0.454812
H278	H	1.412964	-0.001889	0.045188
C279	C	0.810927	-0.529216	-0.542008
C280	C	1.310927	-0.029216	-0.042008
C281	C	0.875290	-0.556317	-0.548322
C282	C	1.375290	-0.056317	-0.048322
H283	H	0.790533	-0.528503	-0.585366
H284	H	1.290533	-0.028503	-0.085366
H285	H	0.783811	-0.557847	-0.513721
H286	H	1.283811	-0.057847	-0.013721
H287	H	0.814780	-0.482904	-0.522656
H288	H	1.314780	0.017096	-0.022656
H289	H	0.871435	-0.602631	-0.567666
H290	H	1.371435	-0.102631	-0.067666
H291	H	0.902404	-0.527693	-0.576614
H292	H	1.402404	-0.027693	-0.076614
H293	H	1.046230	-0.256771	-0.950769
H294	H	1.546230	0.243229	-0.450769
H295	H	0.882372	-0.419738	-0.957404
H296	H	1.382372	0.080262	-0.457404
O297	O	1.066462	-0.931586	-0.238035
O298	O	1.566462	-0.431586	0.261965
C299	C	1.102719	-0.979681	-0.201837
C300	C	1.602719	-0.479681	0.298163
H301	H	1.102911	-1.031947	-0.231717
H302	H	1.602911	-0.531947	0.268283
H303	H	1.077648	-0.987534	-0.150731
H304	H	1.577648	-0.487534	0.349269
C305	C	1.175698	-0.886809	-0.154274
C306	C	1.675698	-0.386809	0.345726
C307	C	1.175938	-0.951002	-0.190975
C308	C	1.675938	-0.451002	0.309025
H309	H	1.220862	-0.869119	-0.147571
H310	H	1.720862	-0.369119	0.352429
H311	H	1.151269	-0.854406	-0.178659
H312	H	1.651269	-0.354406	0.321341
H313	H	1.154802	-0.893362	-0.111689
H314	H	1.654802	-0.393362	0.388311
H315	H	1.196826	-0.944447	-0.233562
H316	H	1.696826	-0.444447	0.266438
H317	H	1.200372	-0.983404	-0.166598
H318	H	1.700372	-0.483404	0.333402
H319	H	0.882387	-0.419701	-1.085637
H320	H	1.382387	0.080299	-0.585637
H321	H	0.869152	-0.738845	-0.434911
H322	H	1.369152	-0.238845	0.065089
O323	O	0.900938	-0.856227	-0.403392
O324	O	1.400938	-0.356227	0.096608
C325	C	0.916407	-0.838235	-0.470123
C326	C	1.416407	-0.338235	0.029877
H327	H	0.971299	-0.818018	-0.472760
H328	H	1.471299	-0.318018	0.027240
H329	H	0.881837	-0.795682	-0.486029
H330	H	1.381837	-0.295682	0.013971
C331	C	0.838434	-0.928204	-0.514732
C332	C	1.338434	-0.428204	-0.014732
C333	C	0.905855	-0.903379	-0.517971
C334	C	1.405855	-0.403379	-0.017971
H335	H	0.831922	-0.968387	-0.544248
H336	H	1.331922	-0.468387	-0.044248
H337	H	0.828010	-0.940325	-0.469774
H338	H	1.328010	-0.440325	0.030226
H339	H	0.809634	-0.892737	-0.527985
H340	H	1.309634	-0.392737	-0.027985
H341	H	0.934653	-0.938842	-0.504710
H342	H	1.434653	-0.438842	-0.004710
H343	H	0.916284	-0.891266	-0.562929
H344	H	1.416284	-0.391266	-0.062929
H345	H	0.581706	-0.257014	-0.415320
H346	H	1.081706	0.242986	0.084680
H347	H	1.020602	-0.825597	-0.283733
H348	H	1.520602	-0.325597	0.216267
O349	O	1.053298	-0.249734	-0.589269
O350	O	1.553298	0.250266	-0.089269
C351	C	1.093171	-0.210096	-0.634013
C352	C	1.593171	0.289904	-0.134013
H353	H	1.065556	-0.207650	-0.684296
H354	H	1.565556	0.292350	-0.184296
H355	H	1.143507	-0.235820	-0.642590
H356	H	1.643507	0.264180	-0.142590
C357	C	1.139953	-0.138356	-0.541618
C358	C	1.639953	0.361644	-0.041618
C359	C	1.106033	-0.135347	-0.603375
C360	C	1.606033	0.364653	-0.103375
H361	H	1.147890	-0.092248	-0.522720
H362	H	1.647890	0.407752	-0.022720
H363	H	1.113092	-0.165062	-0.511473
H364	H	1.613092	0.334938	-0.011473
H365	H	1.181896	-0.159796	-0.548775
H366	H	1.681896	0.340204	-0.048775
H367	H	1.064088	-0.113916	-0.596217
H368	H	1.564088	0.386084	-0.096217
H369	H	1.132887	-0.108636	-0.633519
H370	H	1.632887	0.391364	-0.133519
H371	H	1.046197	-0.256823	-0.723245
H372	H	1.546197	0.243177	-0.223245
H373	H	1.046248	-0.256740	-1.079013
H374	H	1.546248	0.243260	-0.579013
H375	H	0.882336	-0.419776	-0.729882
H376	H	1.382336	0.080224	-0.229882
H377	H	0.219130	-0.419821	-0.264677
H378	H	0.719130	0.080179	0.235323
H379	H	0.347365	-0.419804	-0.264661
H380	H	0.847365	0.080196	0.235339
H381	H	0.882308	-0.419805	-0.601638
H382	H	1.382308	0.080195	-0.101638
