data_functionalizedCrystal
_audit_creation_method	'MofGen! by Chris Wilmer'
_symmetry_space_group_name_H-M	'P1'
_symmetry_Int_Tables_number	1
_symmetry_cell_setting	triclinic
loop_
_symmetry_equiv_pos_as_xyz
  x,y,z
_cell_length_a	14.853566
_cell_length_b	14.044190
_cell_length_c	13.930277
_cell_angle_alpha	89.990896
_cell_angle_beta	89.995631
_cell_angle_gamma	88.413096
loop_
_atom_site_label
_atom_site_type_symbol
_atom_site_fract_x
_atom_site_fract_y
_atom_site_fract_z
O1	O	1.206177	0.123761	-0.079778
O2	O	0.944886	0.138506	-0.079795
O3	O	1.071607	-0.006856	-0.079768
O4	O	1.079457	0.269124	-0.079805
O5	O	1.071587	-0.006859	0.079894
O6	O	0.944867	0.138503	0.079867
O7	O	1.206158	0.123758	0.079884
Zn8	Zn	1.075509	0.131130	0.105225
Zn9	Zn	1.075535	0.131134	-0.105136
O10	O	1.079438	0.269120	0.079857
C11	C	0.911235	0.137837	0.000034
C12	C	0.810993	0.135835	0.000028
C13	C	0.387147	0.127372	-0.086986
C14	C	0.387148	0.127369	0.087084
C15	C	0.481331	0.129248	0.087081
C16	C	0.528426	0.130191	0.000043
C17	C	0.481339	0.129254	-0.086992
C18	C	0.528425	0.130195	0.174114
C19	C	0.622613	0.132075	0.174114
C20	C	0.669711	0.133011	0.087075
C21	C	0.622618	0.132073	0.000037
C22	C	0.669714	0.133016	-0.087001
C23	C	0.622623	0.132071	-0.174040
C24	C	0.528437	0.130190	-0.174030
C25	C	0.763897	0.134893	0.087066
C26	C	0.763905	0.134898	-0.087006
C27	C	1.068162	-0.042177	0.000065
C28	C	1.057918	-0.147416	0.000073
C29	C	1.111844	-0.397632	0.000039
C30	C	1.039204	-0.340098	0.000041
C31	C	1.049619	-0.232880	0.000059
C32	C	1.101431	-0.504860	0.000021
C33	C	1.239809	0.124428	0.000053
C34	C	1.340052	0.126429	0.000052
C35	C	1.082882	0.304441	0.000021
C36	C	1.093126	0.409680	0.000007
N37	N	1.075498	0.131127	0.248791
N38	N	1.075552	0.131130	-0.248702
C39	C	1.019419	0.195475	0.701048
C40	C	1.131675	0.066786	0.701042
C41	C	1.131664	0.066783	0.600546
C42	C	1.075531	0.131128	0.550297
C43	C	1.019408	0.195476	0.600543
C44	C	1.187793	0.002442	0.550292
C45	C	1.187785	0.002437	0.449790
C46	C	1.131646	0.066779	0.399539
C47	C	1.075520	0.131129	0.449792
C48	C	1.019386	0.195474	0.399543
C49	C	0.963255	0.259821	0.449793
C50	C	0.963269	0.259818	0.550292
C51	C	1.131632	0.066781	0.299040
C52	C	1.019376	0.195475	0.299037
H53	H	0.490072	0.129434	0.244975
Cl54	Cl	0.948854	0.276361	0.764215
H55	H	0.917570	0.312207	0.591213
H56	H	0.348802	0.126598	-0.157851
Cl57	Cl	0.823104	0.136076	-0.196432
H58	H	0.969193	-0.371365	0.000031
Cl59	Cl	0.892696	0.340715	0.386612
H60	H	0.490087	0.129420	-0.244893
H61	H	1.177382	0.014402	0.741958
Cl62	Cl	0.327940	0.126194	0.196496
H63	H	1.233500	-0.049942	0.591208
H64	H	1.233488	-0.049958	0.408882
H65	H	0.660980	0.132845	-0.244906
H66	H	0.660947	0.132843	0.244986
Cl67	Cl	0.823093	0.136087	0.196477
Cl68	Cl	1.219930	-0.349360	0.000061
H69	H	1.177337	0.014396	0.258131
Cl70	Cl	0.948798	0.276366	0.235875
