data_functionalizedCrystal
_audit_creation_method	'MofGen! by Chris Wilmer'
_symmetry_space_group_name_H-M	'P1'
_symmetry_Int_Tables_number	1
_symmetry_cell_setting	triclinic
loop_
_symmetry_equiv_pos_as_xyz
  x,y,z
_cell_length_a	6.817900
_cell_length_b	9.514072
_cell_length_c	9.170709
_cell_angle_alpha	80.287469
_cell_angle_beta	112.460645
_cell_angle_gamma	118.843421
loop_
_atom_site_label
_atom_site_type_symbol
_atom_site_fract_x
_atom_site_fract_y
_atom_site_fract_z
V1	V	-4.167775	-0.153165	-0.487201
O2	O	-4.065292	0.078225	-0.476670
O3	O	-4.202301	-0.371855	-0.485077
O4	O	-4.142564	-0.119715	-0.699134
O5	O	-4.125443	-0.175661	-0.261131
V6	V	-4.637653	-0.129162	-0.460014
O7	O	-4.458965	-0.205817	-0.546837
O8	O	-4.796660	-0.076510	-0.400378
O9	O	-4.379920	0.089528	-0.462137
O10	O	-4.857533	-0.360552	-0.470545
O11	O	-4.797382	-0.106666	-0.686084
O12	O	-4.439657	-0.162612	-0.248080
C13	C	-4.066725	-0.426139	-0.477703
C14	C	-4.176396	-0.604721	-0.477379
C15	C	-3.990523	-0.104507	-0.750752
C16	C	-4.051742	-0.078605	-0.924017
C17	C	-4.178841	0.143803	-0.469507
C18	C	-4.048411	0.322385	-0.469841
C19	C	-4.255042	-0.177827	-0.196454
C20	C	-4.173058	-0.203721	-0.023188
H21	H	-3.854900	-0.603401	-0.463557
O22	O	-3.983290	0.072933	-0.980652
C23	C	-3.655042	0.332710	-0.983814
C24	C	-3.732231	0.161164	-0.919531
H25	H	-3.452055	0.404085	-0.934451
H26	H	-3.737634	0.393714	-0.946576
H27	H	-3.718312	0.327290	-1.118114
H28	H	-3.668981	0.166440	-0.785231
H29	H	-3.649665	0.100228	-0.956891
O30	O	-4.407144	-0.693418	-0.484646
C31	C	-4.677182	-0.888696	-0.357624
C32	C	-4.415774	-0.788372	-0.349218
H33	H	-4.684241	-0.965466	-0.248130
H34	H	-4.784958	-0.969731	-0.467515
H35	H	-4.755868	-0.805060	-0.363411
H36	H	-4.336876	-0.871887	-0.343372
H37	H	-4.308167	-0.707319	-0.239345
H38	H	-4.230100	-0.330660	-0.975541
