data_functionalizedCrystal
_audit_creation_method	'MofGen! by Chris Wilmer'
_symmetry_space_group_name_H-M	'P1'
_symmetry_Int_Tables_number	1
_symmetry_cell_setting	triclinic
loop_
_symmetry_equiv_pos_as_xyz
  x,y,z
_cell_length_a	25.639239
_cell_length_b	13.897449
_cell_length_c	13.897441
_cell_angle_alpha	89.973931
_cell_angle_beta	90.034305
_cell_angle_gamma	89.961386
loop_
_atom_site_label
_atom_site_type_symbol
_atom_site_fract_x
_atom_site_fract_y
_atom_site_fract_z
Zn1	Zn	-0.208135	-1.474562	0.545494
Zn2	Zn	-0.295578	-1.474397	0.384185
Zn3	Zn	-0.208158	-1.313251	0.384197
Zn4	Zn	-0.295541	-1.313174	0.545422
O5	O	-0.251853	-1.393846	0.464824
O6	O	-0.219740	-1.609522	0.524120
O7	O	-0.284006	-1.452984	0.249204
O8	O	-0.134990	-1.334751	0.405628
O9	O	-0.283984	-1.609400	0.405607
O10	O	-0.134973	-1.453265	0.524132
O11	O	-0.219779	-1.334591	0.249214
O12	O	-0.219744	-1.178259	0.405559
O13	O	-0.283922	-1.334619	0.680413
O14	O	-0.283944	-1.178202	0.524011
O15	O	-0.219705	-1.453190	0.680466
O16	O	-0.368738	-1.452909	0.405538
O17	O	-0.368711	-1.334459	0.523998
C18	C	-0.251843	-1.143232	0.464779
C19	C	-0.251851	-1.036018	0.464782
C20	C	-0.251852	-0.948948	0.464794
C21	C	-0.251855	-0.839715	0.464819
C22	C	-0.387696	-1.393684	0.464780
C23	C	-0.445810	-1.393703	0.464793
C24	C	-0.806174	-1.455684	0.403247
C25	C	-0.860778	-1.455721	0.403260
O26	O	-0.889016	-1.508251	0.350882
N27	N	-0.888092	-1.394015	0.464888
C28	C	-0.860799	-1.332275	0.526515
O29	O	-0.889045	-1.279794	0.578936
C30	C	-0.806195	-1.332243	0.526506
C31	C	-0.778884	-1.393946	0.464867
C32	C	-0.778863	-1.517382	0.341614
C33	C	-0.724262	-1.517343	0.341600
C34	C	-0.696973	-1.455606	0.403219
C35	C	-0.724284	-1.393907	0.464853
C36	C	-0.778903	-1.270509	0.588136
C37	C	-0.724296	-1.270483	0.588123
C38	C	-0.696985	-1.332186	0.526484
C39	C	-0.642394	-1.332131	0.526458
N40	N	-0.615080	-1.393837	0.464830
C41	C	-0.642370	-1.455574	0.403210
C42	C	-0.975469	-1.332348	0.526529
C43	C	-1.030072	-1.332374	0.526534
C44	C	-1.030047	-1.455822	0.403280
C45	C	-0.975444	-1.455790	0.403272
C46	C	-0.948155	-1.394054	0.464901
C47	C	-0.527705	-1.455487	0.403185
C48	C	-0.473099	-1.455440	0.403174
C49	C	-0.473128	-1.331997	0.526431
C50	C	-0.527729	-1.332040	0.526439
C51	C	-0.555016	-1.393793	0.464813
O52	O	-0.614121	-1.279630	0.578812
O53	O	-0.614116	-1.508056	0.350807
C54	C	-0.115480	-1.394035	0.464890
C55	C	-0.057366	-1.394116	0.464918
C56	C	-0.251807	-1.393914	0.716417
C57	C	-0.251787	-1.393944	0.823631
C58	C	-0.251861	-0.645439	0.464859
C59	C	-0.251860	-0.752653	0.464843
C60	C	-0.251861	-1.393833	0.214210
C61	C	-0.251734	-1.393991	0.106997
C62	C	-0.251752	-1.393970	1.019927
C63	C	-0.251773	-1.393952	0.910694
H64	H	-0.450864	-1.505686	0.352976
H65	H	-0.702029	-1.567590	0.291411
F66	F	-1.059132	-1.266691	0.592128
F67	F	-0.444075	-1.266297	0.592010
H68	H	-0.953253	-1.282067	0.576713
F69	F	-0.807898	-1.583099	0.276025
H70	H	-0.953211	-1.506034	0.353080
F71	F	-0.556738	-1.521211	0.337596
H72	H	-1.052276	-1.506095	0.353110
H73	H	-0.801130	-1.220259	0.638325
H74	H	-0.702080	-1.220211	0.638312
H75	H	-0.549966	-1.281799	0.576634
