data_functionalizedCrystal
_audit_creation_method	'MofGen! by Chris Wilmer'
_symmetry_space_group_name_H-M	'P1'
_symmetry_Int_Tables_number	1
_symmetry_cell_setting	triclinic
loop_
_symmetry_equiv_pos_as_xyz
  x,y,z
_cell_length_a	10.723023
_cell_length_b	15.538191
_cell_length_c	9.798715
_cell_angle_alpha	89.999989
_cell_angle_beta	89.996770
_cell_angle_gamma	65.869821
loop_
_atom_site_label
_atom_site_type_symbol
_atom_site_fract_x
_atom_site_fract_y
_atom_site_fract_z
O1	O	1.596025	0.131731	-0.113463
O2	O	1.227018	0.144341	-0.113467
O3	O	1.483352	0.001370	-0.113471
O4	O	1.339691	0.274701	-0.113460
O5	O	1.483338	0.001370	0.113511
O6	O	1.227004	0.144341	0.113515
O7	O	1.596011	0.131730	0.113519
Zn8	Zn	1.411505	0.138035	0.149555
Zn9	Zn	1.411524	0.138036	-0.149503
O10	O	1.339677	0.274701	0.113523
C11	C	1.180937	0.143423	0.000023
C12	C	1.043658	0.140678	0.000021
C13	C	1.498376	-0.033628	0.000016
C14	C	1.543147	-0.137913	0.000003
C15	C	0.982446	0.139454	0.117603
C16	C	0.840561	0.136617	0.117603
C17	C	1.098354	-0.428577	0.000027
C18	C	1.140455	-0.526570	0.000030
C19	C	1.377263	-0.547484	0.000033
C20	C	1.335182	-0.449490	0.000022
C21	C	1.195726	-0.390043	0.000021
C22	C	1.432554	-0.410956	0.000017
C23	C	1.390476	-0.312971	0.000013
C24	C	1.251026	-0.253519	0.000016
C25	C	1.153648	-0.292058	0.000018
C26	C	1.572010	-0.470404	0.000028
C27	C	1.669382	-0.431871	0.000022
C28	C	1.627304	-0.333884	0.000009
C29	C	1.487854	-0.274431	0.000012
C30	C	1.724682	-0.295344	0.000007
C31	C	1.682604	-0.197359	0.000004
C32	C	1.445775	-0.176446	0.000009
C33	C	1.642092	0.132648	0.000026
C34	C	1.779372	0.135393	0.000019
C35	C	1.324654	0.309699	0.000033
C36	C	1.279882	0.413984	0.000037
N37	N	1.411502	0.138034	0.353655
N38	N	1.411540	0.138029	-0.353603
C39	C	1.519253	0.077741	0.421430
C40	C	1.519274	0.077737	0.578593
H41	H	1.035087	0.140501	0.218269
O42	O	0.770481	0.135509	0.250840
H43	H	0.751535	0.070527	0.256852
H44	H	1.761894	-0.165985	0.000001
H45	H	1.319265	0.189649	0.411981
H46	H	1.061152	-0.557939	0.000055
O47	O	1.527671	-0.611606	0.000044
H48	H	1.576385	-0.597815	-0.092468
O49	O	1.295358	-0.112323	0.000004
H50	H	1.282464	-0.037715	-0.000005
H51	H	0.832000	0.136451	-0.100653
H52	H	0.991022	0.139623	-0.100646
H53	H	1.216768	-0.173733	0.000022
O54	O	1.003231	-0.227933	0.000008
H55	H	0.978395	-0.182784	0.092518
H56	H	1.606265	-0.550190	0.000018
O57	O	0.947937	-0.364452	0.000028
H58	H	0.923109	-0.319316	-0.092490
O59	O	1.819791	-0.495988	0.000027
H60	H	1.832696	-0.570598	0.000025
O61	O	1.641414	0.009334	0.344190
H62	H	1.622217	0.020061	0.232869
H63	H	1.838227	-0.343760	0.000022
H64	H	1.611527	0.026121	0.636877
O65	O	1.289327	0.206398	0.569203
H66	H	1.321311	0.252241	0.504076
