data_functionalizedCrystal
_audit_creation_method	'MofGen! by Chris Wilmer'
_symmetry_space_group_name_H-M	'P1'
_symmetry_Int_Tables_number	1
_symmetry_cell_setting	triclinic
loop_
_symmetry_equiv_pos_as_xyz
  x,y,z
_cell_length_a	16.625539
_cell_length_b	12.759401
_cell_length_c	12.759400
_cell_angle_alpha	89.985155
_cell_angle_beta	89.974233
_cell_angle_gamma	90.017397
loop_
_atom_site_label
_atom_site_type_symbol
_atom_site_fract_x
_atom_site_fract_y
_atom_site_fract_z
Zn1	Zn	-0.455855	-1.606244	-0.418260
Zn2	Zn	0.044145	-1.106244	0.081740
Zn3	Zn	-0.321029	-1.606142	-0.593961
Zn4	Zn	0.178971	-1.106142	-0.093961
Zn5	Zn	-0.321043	-1.430549	-0.418297
Zn6	Zn	0.178957	-0.930549	0.081703
Zn7	Zn	-0.455826	-1.430535	-0.593898
Zn8	Zn	0.044174	-0.930535	-0.093898
O9	O	-0.388438	-1.518368	-0.506104
O10	O	0.111562	-1.018368	-0.006104
O11	O	-0.437976	-1.753252	-0.441578
O12	O	0.062024	-1.253252	0.058422
O13	O	-0.208198	-1.582812	-0.570701
O14	O	0.291802	-1.082812	-0.070701
O15	O	-0.338945	-1.453905	-0.271271
O16	O	0.161055	-0.953905	0.228729
O17	O	-0.338920	-1.753176	-0.570665
O18	O	0.161080	-1.253176	-0.070665
O19	O	-0.437991	-1.582987	-0.271244
O20	O	0.062009	-1.082987	0.228756
O21	O	-0.208209	-1.453805	-0.441641
O22	O	0.291791	-0.953805	0.058359
O23	O	-0.338916	-1.283526	-0.441580
O24	O	0.161084	-0.783526	0.058420
O25	O	-0.568662	-1.453880	-0.570557
O26	O	-0.068662	-0.953880	-0.070557
O27	O	-0.437941	-1.283516	-0.570593
O28	O	0.062059	-0.783516	-0.070593
O29	O	-0.568684	-1.582973	-0.441517
O30	O	-0.068684	-1.082973	0.058483
O31	O	-0.338891	-1.582798	-0.740974
O32	O	0.161109	-1.082798	-0.240974
O33	O	-0.437926	-1.453780	-0.740927
O34	O	0.062074	-0.953780	-0.240927
C35	C	-0.388427	-1.245400	-0.506085
C36	C	0.111573	-0.745400	-0.006085
C37	C	-0.388442	-1.128624	-0.506102
C38	C	0.111558	-0.628624	-0.006102
C39	C	-0.598747	-1.518436	-0.506026
C40	C	-0.098747	-1.018436	-0.006026
C41	C	-0.688368	-1.518465	-0.505992
C42	C	-0.188368	-1.018465	-0.005992
C43	C	-0.388421	-1.518305	-0.779071
C44	C	0.111579	-1.018305	-0.279071
C45	C	-0.388441	-1.518375	-0.895848
C46	C	0.111559	-1.018375	-0.395848
C47	C	-1.016544	-1.518513	-0.505875
C48	C	-0.516544	-1.018513	-0.005875
C49	C	-0.925236	-1.518497	-0.505911
C50	C	-0.425236	-1.018497	-0.005911
C51	C	-0.852459	-1.518490	-0.505934
C52	C	-0.352459	-1.018490	-0.005934
C53	C	-0.761145	-1.518472	-0.505969
C54	C	-0.261145	-1.018472	-0.005969
C55	C	-0.178947	-1.518360	-0.506106
C56	C	0.321053	-1.018360	-0.006106
C57	C	-0.089327	-1.518534	-0.505844
C58	C	0.410673	-1.018534	-0.005844
C59	C	-0.388450	-1.792401	-0.506124
C60	C	0.111550	-1.292401	-0.006124
C61	C	-0.388455	-1.909177	-0.506133
C62	C	0.111545	-1.409177	-0.006133
C63	C	-0.439918	-1.073783	-0.573386
C64	C	0.060082	-0.573783	-0.073386
C65	C	-0.439927	-0.964059	-0.573400
C66	C	0.060073	-0.464059	-0.073400
C67	C	-0.336976	-0.964025	-0.438841
C68	C	0.163024	-0.464025	0.061159
C69	C	-0.336972	-1.073747	-0.438823
C70	C	0.163028	-0.573747	0.061177
C71	C	-0.491388	-1.128660	-0.640665
C72	C	0.008612	-0.628660	-0.140665
C73	C	-0.542869	-1.073819	-0.707956
C74	C	-0.042869	-0.573819	-0.207956
C75	C	-0.542877	-0.964095	-0.707969
C76	C	-0.042877	-0.464095	-0.207969
C77	C	-0.491406	-0.909212	-0.640692
C78	C	0.008594	-0.409212	-0.140692
C79	C	-0.336931	-1.585629	-0.950699
C80	C	0.163069	-1.085629	-0.450699
C81	C	-0.336956	-1.585693	-1.060423
C82	C	0.163044	-1.085693	-0.560423
C83	C	-0.440004	-1.451241	-1.060435
C84	C	0.059996	-0.951241	-0.560435
C85	C	-0.439982	-1.451182	-0.950713
C86	C	0.060018	-0.951182	-0.450713
C87	C	-0.285390	-1.652821	-0.895834
C88	C	0.214610	-1.152821	-0.395834
C89	C	-0.233874	-1.720080	-0.950686
C90	C	0.266126	-1.220080	-0.450686
C91	C	-0.233899	-1.720144	-1.060410
C92	C	0.266101	-1.220144	-0.560410
C93	C	-0.285439	-1.652950	-1.115282
C94	C	0.214561	-1.152950	-0.615282
C95	C	-0.388473	-1.518459	-0.232071
C96	C	0.111527	-1.018459	0.267929
C97	C	-0.388488	-1.518498	-0.115294
C98	C	0.111512	-1.018498	0.384706
H99	H	-0.584780	-1.118513	-0.762724
H100	H	-0.084780	-0.618513	-0.262724
H101	H	-0.584801	-0.919447	-0.762753
H102	H	-0.084801	-0.419447	-0.262753
H103	H	-0.491424	-0.819867	-0.640699
H104	H	0.008576	-0.319867	-0.140699
O105	O	-0.285341	-1.653117	-1.221869
O106	O	0.214659	-1.153117	-0.721869
C107	C	-0.228844	-1.726912	-1.258520
C108	C	0.271156	-1.226912	-0.758520
H109	H	-0.181729	-1.741621	-1.195324
H110	H	0.318271	-1.241621	-0.695324
H111	H	-0.198245	-1.695276	-1.331983
H112	H	0.301755	-1.195276	-0.831983
H113	H	-0.260871	-1.803508	-1.277890
H114	H	0.239129	-1.303508	-0.777890
O115	O	-0.491378	-1.235244	-0.640845
O116	O	0.008622	-0.735244	-0.140845
C117	C	-0.470507	-1.271876	-0.741489
C118	C	0.029493	-0.771876	-0.241489
H119	H	-0.484205	-1.208645	-0.802037
H120	H	0.015795	-0.708645	-0.302037
H121	H	-0.506843	-1.345299	-0.760219
H122	H	-0.006843	-0.845299	-0.260219
H123	H	-0.403600	-1.291307	-0.743594
H124	H	0.096400	-0.791307	-0.243594
H125	H	-0.481965	-1.396533	-1.105121
H126	H	0.018035	-0.896533	-0.605121
O127	O	-0.490132	-1.385910	-0.897534
O128	O	0.009868	-0.885910	-0.397534
C129	C	-0.570514	-1.408854	-0.924233
C130	C	-0.070514	-0.908854	-0.424233
H131	H	-0.572226	-1.449271	-1.003871
H132	H	-0.072226	-0.949271	-0.503871
H133	H	-0.606627	-1.333011	-0.928000
H134	H	-0.106627	-0.833011	-0.428000
H135	H	-0.597687	-1.462831	-0.862419
H136	H	-0.097687	-0.962831	-0.362419
O137	O	-0.286997	-0.910552	-0.373602
O138	O	0.213003	-0.410552	0.126398
C139	C	-0.298051	-0.801949	-0.388032
C140	C	0.201949	-0.301949	0.111968
H141	H	-0.324357	-0.786972	-0.469155
H142	H	0.175643	-0.286972	0.030845
H143	H	-0.237665	-0.760223	-0.380823
H144	H	0.262335	-0.260223	0.119177
H145	H	-0.341067	-0.770831	-0.325787
H146	H	0.158933	-0.270831	0.174213
O147	O	-0.286885	-1.126863	-0.373440
O148	O	0.213115	-0.626863	0.126560
C149	C	-0.241463	-1.054903	-0.314054
C150	C	0.258537	-0.554903	0.185946
H151	H	-0.238620	-0.976680	-0.357089
H152	H	0.261380	-0.476680	0.142911
H153	H	-0.177947	-1.086578	-0.302748
H154	H	0.322053	-0.586578	0.197252
H155	H	-0.271089	-1.043262	-0.234308
H156	H	0.228911	-0.543262	0.265692
O157	O	-0.183785	-1.785448	-0.897550
O158	O	0.316215	-1.285448	-0.397550
C159	C	-0.138312	-1.844804	-0.969496
C160	C	0.361688	-1.344804	-0.469496
H161	H	-0.171360	-1.848468	-1.047673
H162	H	0.328640	-1.348468	-0.547673
H163	H	-0.129754	-1.927569	-0.937732
H164	H	0.370246	-1.427569	-0.437732
H165	H	-0.077054	-1.806377	-0.981259
H166	H	0.422946	-1.306377	-0.481259
H167	H	-0.191959	-1.774917	-1.105067
H168	H	0.308041	-1.274917	-0.605067
O169	O	-0.285289	-1.652926	-0.789250
O170	O	0.214711	-1.152926	-0.289250
C171	C	-0.228739	-1.726631	-0.752583
C172	C	0.271261	-1.226631	-0.252583
H173	H	-0.217497	-1.788059	-0.815771
H174	H	0.282503	-1.288059	-0.315771
H175	H	-0.253076	-1.766439	-0.679120
H176	H	0.246924	-1.266439	-0.179120
H177	H	-0.169916	-1.684996	-0.733208
H178	H	0.330084	-1.184996	-0.233208
