data_functionalizedCrystal
_audit_creation_method	'MofGen! by Chris Wilmer'
_symmetry_space_group_name_H-M	'P1'
_symmetry_Int_Tables_number	1
_symmetry_cell_setting	triclinic
loop_
_symmetry_equiv_pos_as_xyz
  x,y,z
_cell_length_a	10.868271
_cell_length_b	17.699083
_cell_length_c	17.699083
_cell_angle_alpha	83.283015
_cell_angle_beta	89.993975
_cell_angle_gamma	90.001712
loop_
_atom_site_label
_atom_site_type_symbol
_atom_site_fract_x
_atom_site_fract_y
_atom_site_fract_z
O1	O	0.102152	-1.004076	-0.095712
O2	O	0.102193	-0.783697	-0.108164
O3	O	0.102161	-0.900113	0.008251
O4	O	0.102185	-0.887660	-0.212127
O5	O	-0.102484	-0.900103	0.008256
O6	O	-0.102452	-0.783688	-0.108160
O7	O	-0.102492	-1.004066	-0.095707
Zn8	Zn	-0.134964	-0.893875	-0.101933
Zn9	Zn	0.134664	-0.893888	-0.101939
O10	O	-0.102460	-0.887651	-0.212123
C11	C	-0.000124	-0.755495	-0.107716
C12	C	-0.000109	-0.671477	-0.106377
N13	N	-0.318978	-0.893872	-0.101928
C14	C	-0.000162	-0.899662	0.036451
C15	C	-0.000162	-0.898323	0.120469
C16	C	-0.569984	-0.893884	-0.101937
C17	C	-0.430306	-0.893875	-0.101934
N18	N	0.318678	-0.893897	-0.101937
C19	C	-0.000173	-1.032268	-0.096156
C20	C	-0.000180	-1.116286	-0.097494
C21	C	-0.000102	-0.622856	-0.174710
C22	C	-0.000118	-0.543913	-0.173448
C23	C	-0.000133	-0.513592	-0.103852
C24	C	-0.000143	-0.562219	-0.035513
C25	C	-0.000136	-0.641161	-0.036776
C26	C	-0.000174	-0.243856	-0.030418
C27	C	-0.000178	-0.164908	-0.029160
C28	C	-0.000156	-0.146608	-0.167090
C29	C	-0.000149	-0.225550	-0.168353
C30	C	-0.000166	-0.274170	-0.100015
C31	C	-0.000151	-0.359769	-0.101384
C32	C	-0.000139	-0.427995	-0.102481
C33	C	-0.000135	-0.888102	-0.240322
C34	C	-0.000127	-0.889440	-0.324340
C35	C	-0.000176	-0.966656	0.169090
C36	C	-0.000165	-0.965394	0.248033
C37	C	-0.000149	-0.895798	0.278354
C38	C	-0.000131	-0.827459	0.229727
C39	C	-0.000133	-0.828722	0.150785
C40	C	-0.000120	-0.822364	0.548090
C41	C	-0.000121	-0.821106	0.627038
C42	C	-0.000152	-0.959036	0.645338
C43	C	-0.000154	-0.960299	0.566396
C44	C	-0.000130	-0.891961	0.517776
C45	C	-0.000140	-0.893330	0.432177
C46	C	-0.000148	-0.894427	0.363951
H47	H	-0.000111	-0.504328	-0.229092
H48	H	-0.000198	-1.023330	0.144409
C49	C	-0.000173	-1.023478	0.453510
C50	C	-0.000171	-1.036801	0.533067
H51	H	-0.000186	-1.070709	0.432937
H52	H	0.071191	-0.995355	0.436814
H53	H	-0.071538	-0.995345	0.436825
H54	H	0.071200	-1.064929	0.549753
H55	H	-0.071542	-1.064936	0.549770
C56	C	-0.000056	-0.684883	0.601022
C57	C	-0.000087	-0.744600	0.660367
H58	H	-0.000028	-0.637655	0.621601
H59	H	-0.071418	-0.688231	0.570617
H60	H	0.071311	-0.688257	0.570608
H61	H	-0.071460	-0.741228	0.690779
H62	H	0.071282	-0.741250	0.690785
H63	H	-0.000100	-0.766718	0.508512
C64	C	-0.000191	-1.095509	0.655497
C65	C	-0.000165	-1.034158	0.698783
H66	H	-0.000209	-1.141884	0.688492
H67	H	0.071167	-1.093137	0.624322
H68	H	-0.071562	-1.093120	0.624330
H69	H	0.071211	-1.036544	0.729946
H70	H	-0.071530	-1.036531	0.729971
C71	C	-0.000114	-0.769413	0.021644
C72	C	-0.000117	-0.753608	0.097336
H73	H	-0.000092	-0.723039	-0.011351
H74	H	-0.071481	-0.797946	0.012474
H75	H	0.071248	-0.797964	0.012473
H76	H	-0.071484	-0.725063	0.106509
H77	H	0.071258	-0.725064	0.106510
H78	H	-0.000149	-0.107012	-0.222734
C79	C	-0.000127	-0.764276	0.342611
C80	C	-0.000117	-0.750956	0.263053
H81	H	-0.000130	-0.717044	0.363182
H82	H	0.071227	-0.792403	0.359301
H83	H	-0.071502	-0.792405	0.359304
H84	H	0.071262	-0.722832	0.246360
H85	H	-0.071479	-0.722818	0.246356
H86	H	-0.000090	-0.647537	-0.231384
H87	H	-0.000173	-0.537526	0.021154
C88	C	0.105069	-0.234236	-0.286315
C89	C	-0.000132	-0.258871	-0.244859
H90	H	0.105071	-0.254802	-0.333549
H91	H	0.176417	-0.250937	-0.258188
H92	H	0.105051	-0.180262	-0.295332
H93	H	-0.000109	-0.312845	-0.235837
H94	H	-0.071498	-0.242175	-0.272992
C95	C	-0.000138	-0.651327	0.099693
C96	C	-0.000132	-0.694609	0.038338
H97	H	-0.000131	-0.684324	0.146066
H98	H	-0.071501	-0.620162	0.097320
H99	H	0.071228	-0.620149	0.097308
H100	H	-0.071504	-0.725782	0.040719
H101	H	0.071238	-0.725786	0.040712
C102	C	-0.000228	-0.190924	0.107063
C103	C	-0.000206	-0.131579	0.047346
H104	H	-0.000252	-0.170345	0.154291
H105	H	0.071134	-0.221330	0.103709
H106	H	-0.071595	-0.221337	0.103695
H107	H	0.071166	-0.101169	0.050712
H108	H	-0.071576	-0.101160	0.050702
H109	H	-0.000189	-0.283434	0.025228
H110	H	-0.000180	-1.021038	0.287618
