data_functionalizedCrystal
_audit_creation_method	'MofGen! by Chris Wilmer'
_symmetry_space_group_name_H-M	'P1'
_symmetry_Int_Tables_number	1
_symmetry_cell_setting	triclinic
loop_
_symmetry_equiv_pos_as_xyz
  x,y,z
_cell_length_a	14.044220
_cell_length_b	14.044190
_cell_length_c	13.101039
_cell_angle_alpha	93.663707
_cell_angle_beta	86.340132
_cell_angle_gamma	93.190328
loop_
_atom_site_label
_atom_site_type_symbol
_atom_site_fract_x
_atom_site_fract_y
_atom_site_fract_z
O1	O	1.281975	0.225348	-0.085126
O2	O	1.531975	0.475348	0.164874
O3	O	1.781975	0.725348	0.414874
O4	O	2.031975	0.975348	0.664874
O5	O	1.005305	0.217041	-0.085151
O6	O	1.255305	0.467041	0.164849
O7	O	1.505305	0.717041	0.414849
O8	O	1.755305	0.967041	0.664849
O9	O	1.139483	0.082859	-0.085118
O10	O	1.389483	0.332859	0.164882
O11	O	1.639483	0.582859	0.414882
O12	O	1.889483	0.832859	0.664882
O13	O	1.147797	0.359530	-0.085158
O14	O	1.397797	0.609530	0.164842
O15	O	1.647797	0.859530	0.414842
O16	O	1.897797	1.109530	0.664842
O17	O	1.129857	0.092504	0.085309
O18	O	1.379857	0.342504	0.335309
O19	O	1.629857	0.592504	0.585309
O20	O	1.879857	0.842504	0.835309
O21	O	0.995679	0.226686	0.085277
O22	O	1.245679	0.476686	0.335277
O23	O	1.495679	0.726686	0.585277
O24	O	1.745679	0.976686	0.835277
O25	O	1.272349	0.234993	0.085302
O26	O	1.522349	0.484993	0.335302
O27	O	1.772349	0.734993	0.585302
O28	O	2.022349	0.984993	0.835302
Zn29	Zn	1.132486	0.232371	0.112348
Zn30	Zn	1.382486	0.482371	0.362348
Zn31	Zn	1.632486	0.732371	0.612348
Zn32	Zn	1.882486	0.982371	0.862348
Zn33	Zn	1.145168	0.219663	-0.112197
Zn34	Zn	1.395168	0.469663	0.137803
Zn35	Zn	1.645168	0.719663	0.387803
Zn36	Zn	1.895168	0.969663	0.637803
O37	O	1.138172	0.369174	0.085270
O38	O	1.388172	0.619174	0.335270
O39	O	1.638172	0.869174	0.585270
O40	O	1.888172	1.119174	0.835270
C41	C	0.964870	0.218228	0.000060
C42	C	1.214870	0.468228	0.250060
C43	C	1.464870	0.718228	0.500060
C44	C	1.714870	0.968228	0.750060
C45	C	0.858728	0.207382	0.000051
C46	C	1.108728	0.457382	0.250051
C47	C	1.358728	0.707382	0.500051
C48	C	1.608728	0.957382	0.750051
C49	C	1.131033	0.052060	0.000098
C50	C	1.381033	0.302060	0.250098
C51	C	1.631033	0.552060	0.500098
C52	C	1.881033	0.802060	0.750098
C53	C	1.120185	-0.054083	0.000106
C54	C	1.370185	0.195917	0.250106
C55	C	1.620185	0.445917	0.500106
C56	C	1.870185	0.695917	0.750106
C57	C	0.664388	0.187557	0.000075
C58	C	0.914388	0.437557	0.250075
C59	C	1.164388	0.687557	0.500075
C60	C	1.414388	0.937557	0.750075
C61	C	0.613261	0.264472	0.000068
C62	C	0.863261	0.514472	0.250068
C63	C	1.113261	0.764472	0.500068
C64	C	1.363261	1.014472	0.750068
C65	C	0.505123	0.253441	0.000081
C66	C	0.755123	0.503441	0.250081
C67	C	1.005123	0.753441	0.500081
C68	C	1.255123	1.003441	0.750081
C69	C	0.772535	0.198587	0.000062
C70	C	1.022535	0.448587	0.250062
C71	C	1.272535	0.698587	0.500062
C72	C	1.522535	0.948587	0.750062
C73	C	1.177288	-0.299543	0.000071
C74	C	1.427288	-0.049543	0.250071
C75	C	1.677288	0.200457	0.500071
C76	C	1.927288	0.450457	0.750071
C77	C	1.100371	-0.248418	0.000071
C78	C	1.350371	0.001582	0.250071
C79	C	1.600371	0.251582	0.500071
C80	C	1.850371	0.501582	0.750071
C81	C	1.111398	-0.140280	0.000091
C82	C	1.361398	0.109720	0.250091
C83	C	1.611398	0.359720	0.500091
C84	C	1.861398	0.609720	0.750091
C85	C	1.166262	-0.407691	0.000052
C86	C	1.416262	-0.157691	0.250052
C87	C	1.666262	0.092309	0.500052
C88	C	1.916262	0.342309	0.750052
C89	C	1.312784	0.233806	0.000089
C90	C	1.562784	0.483806	0.250089
C91	C	1.812784	0.733806	0.500089
C92	C	2.062784	0.983806	0.750089
C93	C	1.418927	0.244651	0.000091
C94	C	1.668927	0.494651	0.250091
C95	C	1.918927	0.744651	0.500091
C96	C	2.168927	0.994651	0.750091
C97	C	1.146621	0.399974	0.000051
C98	C	1.396621	0.649974	0.250051
C99	C	1.646621	0.899974	0.500051
C100	C	1.896621	1.149974	0.750051
C101	C	1.157470	0.506116	0.000036
C102	C	1.407470	0.756116	0.250036
C103	C	1.657470	1.006116	0.500036
C104	C	1.907470	1.256116	0.750036
N105	N	1.123838	0.241043	0.265595
N106	N	1.373838	0.491043	0.515595
N107	N	1.623838	0.741043	0.765595
N108	N	1.873838	0.991043	1.015595
N109	N	1.153824	0.210984	-0.265444
N110	N	1.403824	0.460984	-0.015444
N111	N	1.653824	0.710984	0.234556
N112	N	1.903824	0.960984	0.484556
C113	C	1.112072	0.252851	0.474635
C114	C	1.362072	0.502851	0.724635
C115	C	1.612072	0.752851	0.974635
C116	C	1.862072	1.002851	1.224635
C117	C	1.165586	0.199179	0.525523
C118	C	1.415586	0.449179	0.775523
C119	C	1.665586	0.699179	1.025523
C120	C	1.915586	0.949179	1.275523
C121	C	1.159040	0.205749	0.641840
C122	C	1.409040	0.455749	0.891840
C123	C	1.659040	0.705749	1.141840
C124	C	1.909040	0.955749	1.391840
C125	C	1.118618	0.246282	0.358307
C126	C	1.368618	0.496282	0.608307
C127	C	1.618618	0.746282	0.858307
C128	C	1.868618	0.996282	1.108307
H129	H	0.650703	0.338605	0.000052
H130	H	0.900703	0.588605	0.250052
H131	H	1.150703	0.838605	0.500052
H132	H	1.400703	1.088605	0.750052
C133	C	0.613815	0.087416	0.000082
C134	C	0.863815	0.337416	0.250082
C135	C	1.113815	0.587416	0.500082
C136	C	1.363815	0.837416	0.750082
H137	H	0.546717	0.093047	0.000078
H138	H	0.796717	0.343047	0.250078
H139	H	1.046717	0.593047	0.500078
H140	H	1.296717	0.843047	0.750078
H141	H	0.628406	0.057067	0.059512
H142	H	0.878406	0.307067	0.309512
H143	H	1.128406	0.557067	0.559512
H144	H	1.378406	0.807067	0.809512
H145	H	0.635105	0.050359	-0.059359
H146	H	0.885105	0.300359	0.190641
H147	H	1.135105	0.550359	0.440641
H148	H	1.385105	0.800359	0.690641
H149	H	1.026240	-0.285862	0.000059
H150	H	1.276240	-0.035862	0.250059
H151	H	1.526240	0.214138	0.500059
H152	H	1.776240	0.464138	0.750059
H153	H	1.251413	-0.262101	0.000088
H154	H	1.501413	-0.012101	0.250088
H155	H	1.751413	0.237899	0.500088
H156	H	2.001413	0.487899	0.750088
C157	C	1.234152	0.130469	0.466374
C158	C	1.484152	0.380469	0.716374
C159	C	1.734152	0.630469	0.966374
C160	C	1.984152	0.880469	1.216374
H161	H	1.229634	0.135027	0.394823
H162	H	1.479634	0.385027	0.644823
H163	H	1.729634	0.635027	0.894823
H164	H	1.979634	0.885027	1.144823
H165	H	1.217351	0.066854	0.483888
H166	H	1.467351	0.316854	0.733888
H167	H	1.717351	0.566854	0.983888
H168	H	1.967351	0.816854	1.233888
H169	H	1.297789	0.147165	0.483909
H170	H	1.547789	0.397165	0.733909
H171	H	1.797789	0.647165	0.983909
H172	H	2.047789	0.897165	1.233909
C173	C	1.043551	0.321596	0.533783
C174	C	1.293551	0.571596	0.783783
C175	C	1.543551	0.821596	1.033783
C176	C	1.793551	1.071596	1.283783
H177	H	1.048096	0.317055	0.605334
H178	H	1.298096	0.567055	0.855334
H179	H	1.548096	0.817055	1.105334
H180	H	1.798096	1.067055	1.355334
H181	H	0.979904	0.304951	0.516273
H182	H	1.229904	0.554951	0.766273
H183	H	1.479904	0.804951	1.016273
H184	H	1.729904	1.054951	1.266273
H185	H	1.060401	0.385203	0.516253
H186	H	1.310401	0.635203	0.766253
H187	H	1.560401	0.885203	1.016253
H188	H	1.810401	1.135203	1.266253
