data_functionalizedCrystal
_audit_creation_method	'MofGen! by Chris Wilmer'
_symmetry_space_group_name_H-M	'P1'
_symmetry_Int_Tables_number	1
_symmetry_cell_setting	triclinic
loop_
_symmetry_equiv_pos_as_xyz
  x,y,z
_cell_length_a	10.540514
_cell_length_b	11.792241
_cell_length_c	10.268362
_cell_angle_alpha	90.005428
_cell_angle_beta	89.998857
_cell_angle_gamma	95.645712
loop_
_atom_site_label
_atom_site_type_symbol
_atom_site_fract_x
_atom_site_fract_y
_atom_site_fract_z
O1	O	1.685385	-0.159820	-0.108198
O2	O	1.315919	-0.174921	-0.108223
O3	O	1.509618	-0.002223	-0.108201
O4	O	1.491686	-0.332519	-0.108220
O5	O	1.509601	-0.002216	0.108400
O6	O	1.315902	-0.174914	0.108377
O7	O	1.685368	-0.159813	0.108403
Cu8	Cu	1.500634	-0.167363	0.128167
Cu9	Cu	1.500654	-0.167371	-0.127988
O10	O	1.491669	-0.332511	0.108380
C11	C	1.268611	-0.173791	0.000074
C12	C	1.127672	-0.170421	0.000065
C13	C	1.508483	0.040075	0.000099
C14	C	1.505112	0.166097	0.000097
C15	C	1.732677	-0.160943	0.000103
C16	C	1.873615	-0.164313	0.000103
C17	C	1.944723	-0.040801	0.000104
C18	C	2.091325	-0.044265	-0.000409
C19	C	2.065726	-0.231488	-0.123377
C20	C	1.919200	-0.227149	-0.123459
C21	C	1.918809	-0.228969	0.122865
C22	C	2.065784	-0.230161	0.124466
C23	C	1.492804	-0.374809	0.000078
C24	C	1.496176	-0.500831	0.000071
N25	N	1.500629	-0.167356	0.308333
C26	C	1.498912	0.396825	0.000075
C27	C	1.502357	0.268431	0.000087
N28	N	1.500669	-0.167369	-0.308154
C29	C	1.500647	-0.167369	0.574004
C30	C	1.500633	-0.167365	0.426166
H31	H	1.916755	0.009148	0.088902
O32	O	2.120287	-0.171050	0.245439
H33	H	2.076062	-0.213770	0.332927
O34	O	1.904898	0.024607	-0.116965
H35	H	1.834684	-0.030472	-0.175154
O36	O	1.881993	-0.168073	-0.246144
H37	H	1.777182	-0.164398	-0.247424
O38	O	2.097418	-0.351968	0.134830
H39	H	2.149525	-0.363262	0.227123
O40	O	1.855804	-0.349638	0.124471
H41	H	1.792601	-0.363551	0.038309
O42	O	2.146820	0.019071	-0.118312
H43	H	2.068927	0.052286	-0.175193
O44	O	2.094885	-0.354223	-0.129032
H45	H	2.153984	-0.373043	-0.043719
H46	H	1.870899	-0.317877	-0.128717
H47	H	1.887453	-0.187853	0.216465
O48	O	2.148067	0.019334	0.116787
H49	H	2.070804	0.052855	0.174337
O50	O	2.122263	-0.176010	-0.245539
H51	H	2.194464	-0.104956	-0.218650
