data_functionalizedCrystal
_audit_creation_method	'MofGen! by Chris Wilmer'
_symmetry_space_group_name_H-M	'P1'
_symmetry_Int_Tables_number	1
_symmetry_cell_setting	triclinic
loop_
_symmetry_equiv_pos_as_xyz
  x,y,z
_cell_length_a	13.339070
_cell_length_b	19.188930
_cell_length_c	12.376457
_cell_angle_alpha	101.232575
_cell_angle_beta	75.589755
_cell_angle_gamma	99.387037
loop_
_atom_site_label
_atom_site_type_symbol
_atom_site_fract_x
_atom_site_fract_y
_atom_site_fract_z
O1	O	1.360197	0.340100	-0.094096
O2	O	1.065870	0.294198	-0.094082
O3	O	1.221523	0.217159	-0.094067
O4	O	1.204545	0.417139	-0.094111
O5	O	1.182624	0.236385	0.093941
O6	O	1.026971	0.313424	0.093926
O7	O	1.321298	0.359326	0.093913
Zn8	Zn	1.167958	0.339428	0.123770
Zn9	Zn	1.219210	0.314097	-0.123939
O10	O	1.165645	0.436365	0.093898
C11	C	1.008765	0.296057	-0.000076
C12	C	0.896565	0.272945	-0.000070
C13	C	0.530988	0.452652	-0.000127
C14	C	0.636407	0.474369	-0.000136
C15	C	0.701451	0.424015	-0.000119
C16	C	0.661067	0.351940	-0.000094
C17	C	0.555640	0.330220	-0.000093
C18	C	0.726103	0.301583	-0.000086
C19	C	0.685719	0.229508	-0.000060
C20	C	0.580302	0.207792	-0.000059
C21	C	0.515258	0.258146	-0.000076
C22	C	0.831530	0.323303	-0.000086
C23	C	0.856182	0.200871	-0.000053
C24	C	0.750763	0.179154	-0.000043
C25	C	1.201522	0.200654	-0.000060
C26	C	1.199869	0.122827	-0.000050
C27	C	1.291202	0.095789	-0.000049
C28	C	1.289655	0.022659	-0.000067
C29	C	1.196764	-0.023428	-0.000063
C30	C	1.105420	0.003617	-0.000071
C31	C	1.106972	0.076744	-0.000064
N32	N	1.112522	-0.138794	0.063923
N33	N	1.111052	-0.208261	0.063919
C34	C	1.192081	-0.243757	-0.000086
N35	N	1.274646	-0.207158	-0.064073
N36	N	1.276118	-0.137684	-0.064064
C37	C	1.195070	-0.102723	-0.000071
C38	C	1.281743	-0.350089	-0.000106
C39	C	1.280193	-0.423221	-0.000131
C40	C	1.095953	-0.442261	-0.000124
C41	C	1.097508	-0.369132	-0.000110
C42	C	1.190404	-0.323049	-0.000096
C43	C	1.378403	0.357467	-0.000096
C44	C	1.490606	0.380578	-0.000110
C45	C	1.185646	0.452870	-0.000112
C46	C	1.187301	0.530696	-0.000130
N47	N	1.132988	0.356716	0.292825
N48	N	1.254188	0.296804	-0.292994
C49	C	1.335365	0.256657	0.647829
C50	C	1.359835	0.244556	0.529492
C51	C	1.303125	0.272595	0.470319
C52	C	1.221942	0.312738	0.529496
C53	C	1.197474	0.324845	0.647845
C54	C	1.165235	0.340783	0.470335
C55	C	1.084051	0.380926	0.529511
C56	C	1.059587	0.393031	0.647849
C57	C	1.116297	0.364992	0.707021
C58	C	1.189702	0.328675	0.351986
C59	C	1.051811	0.396863	0.352001
C60	C	1.027341	0.408964	0.470339
H61	H	0.864399	0.381987	-0.000102
H62	H	0.961240	0.441650	0.518535
C63	C	1.390124	-0.007092	-0.000054
C64	C	1.492304	0.043596	-0.000036
C65	C	1.592772	0.013848	-0.000019
C66	C	1.591060	-0.066589	-0.000020
C67	C	1.488877	-0.117282	-0.000038
C68	C	1.388409	-0.087534	-0.000055
H69	H	1.493575	0.103145	-0.000035
H70	H	1.668415	0.051374	-0.000006
H71	H	1.665433	-0.088611	-0.000008
H72	H	1.487606	-0.176831	-0.000039
H73	H	1.312766	-0.125060	-0.000069
H74	H	1.366847	0.133305	-0.000041
H75	H	0.787288	0.441701	-0.000129
H76	H	1.357386	-0.312567	-0.000100
H77	H	1.096371	0.374842	0.803381
H78	H	1.029788	-0.033912	-0.000071
C79	C	0.680826	0.553647	-0.000159
C80	C	0.609286	0.609037	-0.000173
C81	C	0.653706	0.688320	-0.000194
C82	C	0.769665	0.712212	-0.000201
C83	C	0.841213	0.656820	-0.000187
C84	C	0.796793	0.577538	-0.000166
H85	H	0.523439	0.591352	-0.000168
H86	H	0.600741	0.729324	-0.000205
H87	H	0.802547	0.770902	-0.000217
H88	H	0.927059	0.674506	-0.000192
H89	H	0.849758	0.536534	-0.000155
C90	C	1.278994	0.284516	0.286900
C91	C	1.274288	0.206415	0.303198
C92	C	1.363584	0.162252	0.238113
C93	C	1.457585	0.196188	0.156730
C94	C	1.462295	0.274292	0.140429
C95	C	1.372999	0.318456	0.205513
H96	H	1.204700	0.181290	0.363446
H97	H	1.360098	0.104434	0.250182
H98	H	1.523688	0.163495	0.108551
H99	H	1.531883	0.299418	0.080181
H100	H	1.376485	0.376274	0.193445
H101	H	1.023133	-0.347117	-0.000105
C102	C	0.989422	0.427708	0.286923
C103	C	1.016330	0.414388	0.156751
C104	C	0.953950	0.445232	0.091665
C105	C	0.864660	0.489396	0.156750
C106	C	0.837747	0.502717	0.286930
C107	C	0.900128	0.471873	0.352016
H108	H	1.082431	0.381694	0.108564
H109	H	0.973873	0.435370	-0.004703
H110	H	0.818482	0.512228	0.108569
H111	H	0.771646	0.535411	0.335116
H112	H	0.880205	0.481735	0.448384
H113	H	0.909143	0.159867	-0.000044
C114	C	1.449126	0.200398	0.464396
C115	C	1.511509	0.169551	0.529468
C116	C	1.600804	0.125390	0.464369
C117	C	1.627716	0.112076	0.334197
C118	C	1.565332	0.142924	0.269117
C119	C	1.476037	0.187085	0.334217
H120	H	1.491588	0.179406	0.625836
H121	H	1.646985	0.102554	0.512546
H122	H	1.693817	0.079385	0.286006
H123	H	1.585253	0.133069	0.172749
H124	H	1.429857	0.209921	0.286040
C125	C	1.397743	0.225820	0.712915
C126	C	1.399775	0.144391	0.696673
C127	C	1.462161	0.113551	0.761758
C128	C	1.522516	0.164140	0.843086
C129	C	1.520487	0.245574	0.859332
C130	C	1.458101	0.276414	0.794247
H131	H	1.355094	0.106937	0.636465
H132	H	1.463662	0.053268	0.749731
H133	H	1.568698	0.141310	0.891266
H134	H	1.565167	0.283027	0.919539
H135	H	1.456599	0.336697	0.806274
C136	C	0.970292	0.437192	0.712949
C137	C	0.858560	0.412015	0.696716
C138	C	0.769265	0.456176	0.761816
C139	C	0.791702	0.525514	0.843148
C140	C	0.903439	0.550695	0.859384
C141	C	0.992734	0.506533	0.794285
H142	H	0.841946	0.360684	0.636506
H143	H	0.686550	0.437536	0.749796
H144	H	0.725601	0.558205	0.891339
H145	H	0.920053	0.602026	0.919594
H146	H	1.075449	0.525174	0.806304
H147	H	0.478023	0.493642	-0.000150
H148	H	1.032595	0.098757	-0.000065
H149	H	0.429416	0.240467	-0.000068
H150	H	0.547428	0.149102	-0.000051
H151	H	0.717869	0.120468	-0.000032
H152	H	1.354572	-0.445233	-0.000136
H153	H	1.323053	0.262740	0.373963
H154	H	1.020320	-0.479785	-0.000127
