data_functionalizedCrystal
_audit_creation_method	'MofGen! by Chris Wilmer'
_symmetry_space_group_name_H-M	'P1'
_symmetry_Int_Tables_number	1
_symmetry_cell_setting	triclinic
loop_
_symmetry_equiv_pos_as_xyz
  x,y,z
_cell_length_a	33.428889
_cell_length_b	33.428139
_cell_length_c	33.424847
_cell_angle_alpha	60.004234
_cell_angle_beta	60.008465
_cell_angle_gamma	59.994972
loop_
_atom_site_label
_atom_site_type_symbol
_atom_site_fract_x
_atom_site_fract_y
_atom_site_fract_z
O1	O	0.055565	-0.584504	0.488714
O2	O	0.555565	-0.084504	0.988714
O3	O	0.020982	-0.455083	0.393778
O4	O	0.520982	0.044917	0.893778
O5	O	0.102943	-0.536959	0.393689
O6	O	0.602943	-0.036959	0.893689
O7	O	-0.026396	-0.502628	0.488803
O8	O	0.473604	-0.002628	0.988803
O9	O	0.130140	-0.509767	0.420792
O10	O	0.630140	-0.009767	0.920792
O11	O	0.048179	-0.427891	0.420881
O12	O	0.548179	0.072109	0.920881
O13	O	0.082762	-0.557312	0.515817
O14	O	0.582762	-0.057312	1.015817
Cu15	Cu	0.067954	-0.490119	0.470823
Cu16	Cu	0.567954	0.009881	0.970823
Cu17	Cu	0.035790	-0.522276	0.438771
Cu18	Cu	0.535790	-0.022276	0.938771
O19	O	0.000801	-0.475436	0.515906
O20	O	0.500801	0.024564	1.015906
N21	N	0.090577	-0.467504	0.493370
N22	N	0.590577	0.032496	0.993370
N23	N	0.013171	-0.544895	0.416225
N24	N	0.513171	-0.044895	0.916225
C25	C	0.143377	-0.280390	0.546067
C26	C	0.643377	0.219610	1.046067
C27	C	0.143515	-0.414755	0.680369
C28	C	0.643515	0.085245	1.180369
C29	C	0.143392	-0.414735	0.546069
C30	C	0.643392	0.085265	1.046069
C31	C	0.277766	-0.414702	0.545966
C32	C	0.777766	0.085298	1.045966
C33	C	0.158177	-0.324719	0.560828
C34	C	0.658177	0.175281	1.060828
C35	C	0.158255	-0.399967	0.636038
C36	C	0.658255	0.100033	1.136038
C37	C	0.233434	-0.399936	0.560773
C38	C	0.733434	0.100064	1.060773
C39	C	0.158186	-0.399955	0.560829
C40	C	0.658186	0.100045	1.060829
C41	C	0.124540	-0.223964	0.527278
C42	C	0.624540	0.276036	1.027278
C43	C	0.124565	-0.433545	0.527281
C44	C	0.624565	0.066455	1.027281
C45	C	0.177014	-0.381145	0.579617
C46	C	0.677014	0.118855	1.079617
C47	C	0.359814	-0.400540	0.502735
C48	C	0.859814	0.099460	1.002735
C49	C	0.411105	-0.417624	0.485606
C50	C	0.911105	0.082376	0.985606
C51	C	0.411136	-0.500620	0.517255
C52	C	0.911136	-0.000620	1.017255
C53	C	0.359845	-0.483534	0.534385
C54	C	0.859845	0.016466	1.034385
C55	C	0.136887	-0.198305	0.476855
C56	C	0.636887	0.301695	0.976855
C57	C	0.119761	-0.147011	0.459777
C58	C	0.619761	0.352989	0.959777
C59	C	0.077945	-0.147038	0.543547
C60	C	0.577945	0.352962	1.043547
C61	C	0.095072	-0.198332	0.560625
C62	C	0.595072	0.301668	1.060625
C63	C	0.074134	-0.421169	0.539710
C64	C	0.574134	0.078831	1.039710
C65	C	0.057023	-0.438269	0.522625
C66	C	0.557023	0.061731	1.022625
C67	C	0.140770	-0.480120	0.480694
C68	C	0.640770	0.019880	0.980694
C69	C	0.157883	-0.463020	0.497773
C70	C	0.657883	0.036980	0.997773
C71	C	0.074339	-0.421208	0.762475
C72	C	0.574339	0.078792	1.262475
C73	C	0.057288	-0.438323	0.813768
C74	C	0.557288	0.061677	1.313768
C75	C	0.141075	-0.480183	0.813699
C76	C	0.641075	0.019817	1.313699
C77	C	0.158125	-0.463069	0.762404
C78	C	0.658125	0.036931	1.262404
C79	C	0.124756	-0.433580	0.736794
C80	C	0.624756	0.066420	1.236794
C81	C	0.334186	-0.433494	0.527123
C82	C	0.834186	0.066506	1.027123
C83	C	-0.173769	-0.597444	0.363037
C84	C	0.326231	-0.097444	0.863037
C85	C	-0.039302	-0.597595	0.228856
C86	C	0.460698	-0.097595	0.728856
C87	C	-0.039496	-0.597587	0.363300
C88	C	0.460504	-0.097587	0.863300
C89	C	-0.039512	-0.731889	0.363237
C90	C	0.460488	-0.231889	0.863237
C91	C	-0.129442	-0.612265	0.348329
C92	C	0.370558	-0.112265	0.848329
C93	C	-0.054138	-0.612351	0.273187
C94	C	0.445862	-0.112351	0.773187
C95	C	-0.054257	-0.687554	0.348440
C96	C	0.445743	-0.187554	0.848440
C97	C	-0.054247	-0.612346	0.348477
C98	C	0.445753	-0.112346	0.848477
C99	C	-0.230191	-0.578579	0.381758
C100	C	0.269809	-0.078579	0.881758
C101	C	-0.020722	-0.578803	0.382168
C102	C	0.479278	-0.078803	0.882168
C103	C	-0.073020	-0.631130	0.329609
C104	C	0.426980	-0.131130	0.829609
C105	C	-0.053713	-0.813916	0.406386
C106	C	0.446287	-0.313916	0.906386
C107	C	-0.036654	-0.865210	0.423504
C108	C	0.463346	-0.365210	0.923504
C109	C	0.046338	-0.865293	0.391984
C110	C	0.546338	-0.365293	0.891984
C111	C	0.029278	-0.813999	0.374865
C112	C	0.529278	-0.313999	0.874865
C113	C	-0.255900	-0.590938	0.432169
C114	C	0.244100	-0.090938	0.932169
C115	C	-0.307191	-0.573786	0.449185
C116	C	0.192809	-0.073786	0.949185
C117	C	-0.307060	-0.531922	0.365377
C118	C	0.192940	-0.031922	0.865377
C119	C	-0.255769	-0.549074	0.348360
C120	C	0.244231	-0.049074	0.848360
C121	C	-0.033081	-0.528377	0.369764
C122	C	0.466919	-0.028377	0.869764
C123	C	-0.016014	-0.511306	0.386922
C124	C	0.483986	-0.011306	0.886922
C125	C	0.025770	-0.595083	0.428877
C126	C	0.525770	-0.095083	0.928877
C127	C	0.008703	-0.612156	0.411725
C128	C	0.508703	-0.112156	0.911725
C129	C	-0.032755	-0.528393	0.146761
C130	C	0.467245	-0.028393	0.646761
C131	C	-0.015585	-0.511324	0.095468
C132	C	0.484415	-0.011324	0.595468
C133	C	0.026262	-0.595106	0.095516
C134	C	0.526262	-0.095106	0.595516
C135	C	0.009094	-0.612174	0.146811
C136	C	0.509094	-0.112174	0.646811
C137	C	-0.020417	-0.578816	0.172432
C138	C	0.479583	-0.078816	0.672432
C139	C	-0.020748	-0.788312	0.382068
C140	C	0.479252	-0.288312	0.882068
N141	N	0.436037	-0.467415	0.493101
N142	N	0.936037	0.032585	0.993101
O143	O	0.592642	-0.471896	0.376066
O144	O	1.092642	0.028104	0.876066
O145	O	0.592838	-0.567146	0.505347
O146	O	1.092838	-0.067146	1.005347
O147	O	0.592754	-0.566928	0.423360
O148	O	1.092754	-0.066928	0.923360
O149	O	0.592727	-0.472113	0.458053
O150	O	1.092727	0.027887	0.958053
O151	O	0.511269	-0.539835	0.450606
O152	O	1.011269	-0.039835	0.950606
O153	O	0.511353	-0.540052	0.532594
O154	O	1.011353	-0.040052	1.032594
O155	O	0.511157	-0.444802	0.403312
O156	O	1.011157	0.055198	0.903312
Cu157	Cu	0.503815	-0.489954	0.470441
Cu158	Cu	1.003815	0.010046	0.970441
Cu159	Cu	0.600180	-0.521995	0.438219
Cu160	Cu	1.100180	-0.021995	0.938219
O161	O	0.511242	-0.445020	0.485300
O162	O	1.011242	0.054980	0.985300
N163	N	0.667959	-0.544533	0.415554
N164	N	1.167959	-0.044533	0.915554
N165	N	0.090544	-0.122107	0.493359
N166	N	0.590544	0.377893	0.993359
O167	O	-0.026406	0.034587	0.488773
O168	O	0.473594	0.534587	0.988773
O169	O	0.102877	0.034627	0.393499
O170	O	0.602877	0.534627	0.893499
O171	O	0.020848	0.034591	0.393771
O172	O	0.520848	0.534591	0.893771
O173	O	0.055623	0.034623	0.488500
O174	O	0.555623	0.534623	0.988500
O175	O	0.048051	-0.046899	0.420925
O176	O	0.548051	0.453101	0.920925
O177	O	0.130080	-0.046864	0.420653
O178	O	0.630080	0.453136	0.920653
O179	O	0.000796	-0.046903	0.515927
O180	O	0.500796	0.453097	1.015927
Cu181	Cu	0.067922	-0.054324	0.470769
Cu182	Cu	0.567922	0.445676	0.970769
Cu183	Cu	0.035752	0.042048	0.438656
Cu184	Cu	0.535752	0.542048	0.938656
O185	O	0.082825	-0.046867	0.515655
O186	O	0.582825	0.453133	1.015655
N187	N	0.013123	0.109830	0.416068
N188	N	0.513123	0.609830	0.916068
N189	N	0.090892	-0.467554	0.838649
N190	N	0.590892	0.032446	1.338649
O191	O	0.086330	-0.584488	0.995334
O192	O	0.586330	-0.084488	1.495334
O193	O	-0.008902	-0.455160	0.995379
O194	O	0.491098	0.044840	1.495379
O195	O	-0.008679	-0.537172	0.995355
O196	O	0.491321	-0.037172	1.495355
O197	O	0.086107	-0.502475	0.995358
O198	O	0.586107	-0.002475	1.495358
O199	O	0.018452	-0.509990	0.913868
O200	O	0.518452	-0.009990	1.413868
O201	O	0.018230	-0.427978	0.913891
O202	O	0.518230	0.072022	1.413891
O203	O	0.113461	-0.557306	0.913847
O204	O	0.613461	-0.057306	1.413847
Cu205	Cu	0.068323	-0.490160	0.906429
Cu206	Cu	0.568323	0.009840	1.406429
Cu207	Cu	0.036237	-0.522306	1.002797
Cu208	Cu	0.536237	-0.022306	1.502797
O209	O	0.113239	-0.475293	0.913870
O210	O	0.613239	0.024707	1.413870
N211	N	0.013667	-0.544916	1.070577
N212	N	0.513667	-0.044916	1.570577
C213	C	0.031339	-0.425179	0.394250
C214	C	0.531339	0.074821	0.894250
C215	C	0.132837	-0.526572	0.394139
C216	C	0.632837	-0.026572	0.894139
C217	C	0.072405	-0.587216	0.515344
C218	C	0.572405	-0.087216	1.015344
C219	C	-0.029093	-0.485823	0.515455
C220	C	0.470907	0.014177	1.015455
C221	C	0.552119	-0.566716	0.535258
C222	C	1.052119	-0.066716	1.035258
C223	C	0.552016	-0.566447	0.433726
C224	C	1.052016	-0.066447	0.933726
C225	C	0.551873	-0.445232	0.373402
C226	C	1.051873	0.054768	0.873402
C227	C	0.551980	-0.445502	0.474933
C228	C	1.051980	0.054498	0.974933
C229	C	0.132731	-0.006013	0.393923
C230	C	0.632731	0.493987	0.893923
C231	C	0.031182	-0.006158	0.394293
C232	C	0.531182	0.493842	0.894293
C233	C	-0.029092	-0.006163	0.515469
C234	C	0.470908	0.493837	1.015469
C235	C	0.072491	-0.006119	0.515133
C236	C	0.572491	0.493881	1.015133
C237	C	-0.008451	-0.425276	0.954641
C238	C	0.491549	0.074724	1.454641
C239	C	-0.008170	-0.526833	0.954596
C240	C	0.491830	-0.026833	1.454596
C241	C	0.113010	-0.587190	0.954585
C242	C	0.613010	-0.087190	1.454585
C243	C	0.112735	-0.485627	0.954611
C244	C	0.612735	0.014373	1.454611
H245	H	0.016234	-0.428240	0.834672
H246	H	0.516234	0.071760	1.334672
O247	O	0.081137	-0.631571	0.550935
O248	O	0.581137	-0.131571	1.050935
C249	C	0.057516	-0.703623	0.604441
C250	C	0.557516	-0.203623	1.104441
C251	C	0.047567	-0.653397	0.564144
C252	C	0.547567	-0.153397	1.064144
H253	H	0.030387	-0.721289	0.615125
H254	H	0.530387	-0.221289	1.115125
H255	H	0.053106	-0.698554	0.637884
H256	H	0.553106	-0.198554	1.137884
H257	H	0.096448	-0.728227	0.590119
H258	H	0.596448	-0.228227	1.090119
H259	H	0.008637	-0.628767	0.578420
H260	H	0.508637	-0.128767	1.078420
H261	H	0.052009	-0.658504	0.530709
H262	H	0.552009	-0.158504	1.030709
H263	H	-0.066242	-0.478508	0.545321
H264	H	0.433758	0.021492	1.045321
H265	H	0.198948	-0.473094	0.487648
H266	H	0.698948	0.026906	0.987648
O267	O	-0.073350	-0.006196	0.551213
O268	O	0.426650	0.493804	1.051213
C269	C	-0.123511	-0.006170	0.633811
C270	C	0.376489	0.493830	1.133811
C271	C	-0.073364	-0.006144	0.593378
C272	C	0.426636	0.493856	1.093378
H273	H	-0.123543	-0.006117	0.667907
H274	H	0.376457	0.493883	1.167907
H275	H	-0.130691	-0.040290	0.643117
H276	H	0.369309	0.459710	1.143117
H277	H	-0.153440	0.027917	0.620325
H278	H	0.346560	0.527917	1.120325
H279	H	-0.043404	-0.040208	0.606831
H280	H	0.456596	0.459792	1.106831
H281	H	-0.066227	0.027999	0.584079
H282	H	0.433773	0.527999	1.084079
H283	H	0.552170	-0.596617	0.572390
H284	H	1.052170	-0.096617	1.072390
H285	H	0.169984	-0.533889	0.364272
H286	H	0.669984	-0.033889	0.864272
O287	O	-0.043743	-0.535598	0.954576
O288	O	0.456257	-0.035598	1.454576
C289	C	-0.126273	-0.503512	0.954500
C290	C	0.373727	-0.003512	1.454500
C291	C	-0.086034	-0.493525	0.954533
C292	C	0.413966	0.006475	1.454533
H293	H	-0.160471	-0.469500	0.954455
H294	H	0.339529	0.030500	1.454455
H295	H	-0.135466	-0.535571	0.988593
H296	H	0.364534	-0.035571	1.488593
H297	H	-0.112655	-0.512854	0.920389
H298	H	0.387345	-0.012854	1.420389
H299	H	-0.099618	-0.484162	0.988622
H300	H	0.400382	0.015838	1.488622
H301	H	-0.076846	-0.461480	0.920418
H302	H	0.423154	0.038520	1.420418
O303	O	0.148620	-0.631533	0.954588
O304	O	0.648620	-0.131533	1.454588
C305	C	0.171416	-0.712236	0.954527
C306	C	0.671416	-0.212236	1.454527
C307	C	0.131040	-0.662045	0.954536
C308	C	0.631040	-0.162045	1.454536
H309	H	0.157220	-0.736915	0.954474
H310	H	0.657220	-0.236915	1.454474
H311	H	0.182112	-0.729872	0.988632
H312	H	0.682112	-0.229872	1.488632
H313	H	0.204822	-0.707063	0.920428
H314	H	0.704822	-0.207063	1.420428
H315	H	0.097607	-0.667175	0.988611
H316	H	0.597607	-0.167175	1.488611
H317	H	0.120385	-0.644426	0.920407
H318	H	0.620385	-0.144426	1.420407
H319	H	0.160882	-0.219171	0.449698
H320	H	0.660882	0.280829	0.949698
H321	H	0.018765	-0.653217	0.421828
H322	H	0.518765	-0.153217	0.921828
O323	O	0.334963	-0.351917	0.495660
O324	O	0.834963	0.148083	0.995660
C325	C	0.340349	-0.271397	0.462432
C326	C	0.840349	0.228603	0.962432
C327	C	0.368551	-0.326450	0.470424
C328	C	0.868551	0.173550	0.970424
H329	H	0.367493	-0.250790	0.442019
H330	H	0.867493	0.249210	0.942019
H331	H	0.316374	-0.265661	0.499410
H332	H	0.816374	0.234339	0.999410
H333	H	0.316298	-0.256979	0.439919
H334	H	0.816298	0.243021	0.939919
H335	H	0.392629	-0.340905	0.492919
H336	H	0.892629	0.159095	0.992919
H337	H	0.392496	-0.332154	0.433429
H338	H	0.892496	0.167846	0.933429
H339	H	0.169783	-0.005775	0.363939
H340	H	0.669783	0.494225	0.863939
H341	H	0.023733	-0.006162	0.364531
H342	H	0.523733	0.493838	0.864531
H343	H	0.023949	-0.388000	0.364433
H344	H	0.523949	0.112000	0.864433
H345	H	0.079939	-0.006110	0.544893
H346	H	0.579939	0.493890	1.044893
H347	H	0.142514	-0.478200	0.954606
H348	H	0.642514	0.021800	1.454606
O349	O	0.041856	-0.392582	0.737675
O350	O	0.541856	0.107418	1.237675
C351	C	-0.043050	-0.352842	0.743161
C352	C	0.456950	0.147158	1.243161
C353	C	-0.006318	-0.385270	0.771308
C354	C	0.493682	0.114730	1.271308
H355	H	-0.082007	-0.346911	0.770342
H356	H	0.417993	0.153089	1.270342
H357	H	-0.037199	-0.371623	0.719163
H358	H	0.462801	0.128377	1.219163
H359	H	-0.037134	-0.315952	0.719136
H360	H	0.462866	0.184048	1.219136
H361	H	-0.012212	-0.422165	0.795360
H362	H	0.487788	0.077835	1.295360
H363	H	-0.012178	-0.366451	0.795276
H364	H	0.487822	0.133549	1.295276
O365	O	0.173507	-0.508894	0.838558
O366	O	0.673507	-0.008894	1.338558
C367	C	0.239922	-0.584369	0.854174
C368	C	0.739922	-0.084369	1.354174
C369	C	0.203215	-0.551901	0.825998
C370	C	0.703215	-0.051901	1.325998
H371	H	0.263956	-0.619143	0.844022
H372	H	0.763956	-0.119143	1.344022
H373	H	0.219098	-0.594517	0.895250
H374	H	0.719098	-0.094517	1.395250
H375	H	0.263909	-0.563462	0.844083
H376	H	0.763909	-0.063462	1.344083
H377	H	0.179217	-0.572779	0.836048
H378	H	0.679217	-0.072779	1.336048
H379	H	0.224069	-0.541751	0.784928
H380	H	0.724069	-0.041751	1.284928
O381	O	0.207098	-0.475147	0.737438
O382	O	0.707098	0.024853	1.237438
C383	C	0.274977	-0.514566	0.679468
C384	C	0.774977	-0.014566	1.179468
C385	C	0.219513	-0.500930	0.707718
C386	C	0.719513	-0.000930	1.207718
H387	H	0.285030	-0.535405	0.655425
H388	H	0.785030	-0.035405	1.155425
H389	H	0.295921	-0.538606	0.706564
H390	H	0.795921	-0.038606	1.206564
H391	H	0.285038	-0.479746	0.655474
H392	H	0.785038	0.020254	1.155474
H393	H	0.209406	-0.535723	0.731713
H394	H	0.709406	-0.035723	1.231713
H395	H	0.198600	-0.476871	0.680596
H396	H	0.698600	0.023129	1.180596
O397	O	0.551992	-0.409920	0.483696
O398	O	1.051992	0.090080	0.983696
C399	C	0.551883	-0.327332	0.451664
C400	C	1.051883	0.172668	0.951664
C401	C	0.551879	-0.367587	0.441672
C402	C	1.051879	0.132413	0.941672
H403	H	0.551781	-0.293093	0.417698
H404	H	1.051781	0.206907	0.917698
H405	H	0.586017	-0.340856	0.460929
H406	H	1.086017	0.159144	0.960929
H407	H	0.517814	-0.318235	0.483780
H408	H	1.017814	0.181765	0.983780
H409	H	0.585924	-0.376702	0.409549
H410	H	1.085924	0.123298	0.909549
H411	H	0.517722	-0.354041	0.432435
H412	H	1.017722	0.145959	0.932435
H413	H	0.551811	-0.415327	0.336274
H414	H	1.051811	0.084673	0.836274
O415	O	0.041703	-0.392521	0.568347
O416	O	0.541703	0.107479	1.068347
C417	C	-0.043171	-0.352834	0.608154
C418	C	0.456829	0.147166	1.108154
C419	C	-0.006496	-0.385272	0.575708
C420	C	0.493504	0.114728	1.075708
H421	H	-0.082147	-0.346971	0.614124
H422	H	0.417853	0.153029	1.114124
H423	H	-0.037315	-0.315913	0.589366
H424	H	0.462685	0.184087	1.089366
H425	H	-0.037197	-0.371634	0.645023
H426	H	0.462803	0.128366	1.145023
H427	H	-0.012447	-0.366515	0.538834
H428	H	0.487553	0.133485	1.038834
H429	H	-0.012361	-0.422191	0.594534
H430	H	0.487639	0.077809	1.094534
H431	H	0.015959	-0.428182	0.532734
H432	H	0.515959	0.071818	1.032734
H433	H	0.167905	-0.504126	0.456671
H434	H	0.667905	-0.004126	0.956671
O435	O	-0.044181	-0.381008	0.954721
O436	O	0.455819	0.118992	1.454721
C437	C	-0.125879	-0.337255	0.996971
C438	C	0.374121	0.162745	1.496971
C439	C	-0.085461	-0.387421	0.996937
C440	C	0.414539	0.112579	1.496937
H441	H	-0.159260	-0.342422	1.031105
H442	H	0.340740	0.157578	1.531105
H443	H	-0.136617	-0.319651	0.962896
H444	H	0.363383	0.180349	1.462896
H445	H	-0.111665	-0.312547	0.996952
H446	H	0.388335	0.187453	1.496952
H447	H	-0.099641	-0.412167	0.996973
H448	H	0.400359	0.087833	1.496973
H449	H	-0.074729	-0.404986	1.031010
H450	H	0.425271	0.095014	1.531010
O451	O	0.334978	-0.515559	0.557995
O452	O	0.834978	-0.015559	1.057995
C453	C	0.319319	-0.575889	0.553444
C454	C	0.819319	-0.075889	1.053444
C455	C	0.347500	-0.539628	0.526648
C456	C	0.847500	-0.039628	1.026648
H457	H	0.329440	-0.595366	0.528115
H458	H	0.829440	-0.095366	1.028115
H459	H	0.278245	-0.555112	0.564429
H460	H	0.778245	-0.055112	1.064429
H461	H	0.329436	-0.604060	0.587646
H462	H	0.829436	-0.104060	1.087646
H463	H	0.337424	-0.511448	0.492428
H464	H	0.837424	-0.011448	0.992428
H465	H	0.388567	-0.560439	0.515700
H466	H	0.888567	-0.060439	1.015700
O467	O	0.131814	-0.122157	0.410778
O468	O	0.631814	0.377843	0.910778
C469	C	0.175066	-0.127542	0.329490
C470	C	0.675066	0.372458	0.829490
C471	C	0.161464	-0.155746	0.384967
C472	C	0.661464	0.344254	0.884967
H473	H	0.199032	-0.154687	0.308605
H474	H	0.699032	0.345313	0.808605
H475	H	0.195969	-0.103528	0.319348
H476	H	0.695969	0.396472	0.819348
H477	H	0.140230	-0.103524	0.319445
H478	H	0.640230	0.396476	0.819445
H479	H	0.196274	-0.179791	0.395051
H480	H	0.696274	0.320209	0.895051
H481	H	0.140542	-0.179729	0.395079
H482	H	0.640542	0.320271	0.895079
O483	O	-0.230721	-0.537099	0.299407
O484	O	0.269279	-0.037099	0.799407
C485	C	-0.151648	-0.544989	0.236046
C486	C	0.348352	-0.044989	0.736046
C487	C	-0.179955	-0.558580	0.291500
C488	C	0.320045	-0.058580	0.791500
H489	H	-0.110598	-0.562358	0.229635
H490	H	0.389402	-0.062358	0.729635
H491	H	-0.161658	-0.503462	0.218723
H492	H	0.338342	-0.003462	0.718723
H493	H	-0.161736	-0.559113	0.218724
H494	H	0.338264	-0.059113	0.718724
H495	H	-0.169881	-0.544488	0.308864
H496	H	0.330119	-0.044488	0.808864
H497	H	-0.169942	-0.600108	0.308787
H498	H	0.330058	-0.100108	0.808787
H499	H	0.431972	-0.390789	0.465748
H500	H	0.931972	0.109211	0.965748
O501	O	0.049311	-0.122213	0.576006
O502	O	0.549311	0.377787	1.076006
C503	C	0.009679	-0.127654	0.660899
C504	C	0.509679	0.372346	1.160899
C505	C	0.042103	-0.155827	0.624193
C506	C	0.542103	0.344173	1.124193
H507	H	0.003850	-0.154819	0.699866
H508	H	0.503850	0.345181	1.199866
H509	H	-0.027254	-0.103664	0.655060
H510	H	0.472746	0.396336	1.155060
H511	H	0.028470	-0.103617	0.654941
H512	H	0.528470	0.396383	1.154941
H513	H	0.023355	-0.179892	0.630129
H514	H	0.523355	0.320108	1.130129
H515	H	0.079035	-0.179787	0.630041
H516	H	0.579035	0.320213	1.130041
H517	H	0.085016	-0.219221	0.601683
H518	H	0.585016	0.280779	1.101683
O519	O	-0.027644	-0.462325	0.070611
O520	O	0.472356	0.037675	0.570611
C521	C	-0.070951	-0.381028	0.075983
C522	C	0.429049	0.118972	0.575983
C523	C	-0.057343	-0.436507	0.104194
C524	C	0.442657	0.063493	0.604194
H525	H	-0.094956	-0.360138	0.103123
H526	H	0.405044	0.139862	0.603123
H527	H	-0.091816	-0.370889	0.051927
H528	H	0.408184	0.129111	0.551927
H529	H	-0.036121	-0.370987	0.052010
H530	H	0.463879	0.129013	0.552010
H531	H	-0.092148	-0.446588	0.128194
H532	H	0.407852	0.053412	0.628194
H533	H	-0.036459	-0.446616	0.128219
H534	H	0.463541	0.053384	0.628219
O535	O	0.552007	-0.601922	0.424800
O536	O	1.052007	-0.101922	0.924800
C537	C	0.551990	-0.624346	0.366596
C538	C	1.051990	-0.124346	0.866596
C539	C	0.551989	-0.584125	0.376643
C540	C	1.051989	-0.084125	0.876643
H541	H	0.551986	-0.609976	0.327658
H542	H	1.051986	-0.109976	0.827658
H543	H	0.517911	-0.635086	0.393716
H544	H	1.017911	-0.135086	0.893716
H545	H	0.586114	-0.657771	0.370969
H546	H	1.086114	-0.157771	0.870969
H547	H	0.517889	-0.550674	0.372264
H548	H	1.017889	-0.050674	0.872264
H549	H	0.586091	-0.573427	0.349524
H550	H	1.086091	-0.073427	0.849524
H551	H	-0.327887	-0.507903	0.338181
H552	H	0.172113	-0.007903	0.838181
H553	H	0.432025	-0.541365	0.523165
H554	H	0.932025	-0.041365	1.023165
H555	H	-0.056788	-0.501226	0.167618
H556	H	0.443212	-0.001226	0.667618
H557	H	0.050281	-0.622271	0.074658
H558	H	0.550281	-0.122271	0.574658
H559	H	-0.057039	-0.501216	0.345698
H560	H	0.442961	-0.001216	0.845698
O561	O	0.021107	-0.661174	0.171670
O562	O	0.521107	-0.161174	0.671670
C563	C	0.064444	-0.742472	0.166302
C564	C	0.564444	-0.242472	0.666302
C565	C	0.050868	-0.686994	0.138090
C566	C	0.550868	-0.186994	0.638090
H567	H	0.088516	-0.763364	0.139165
H568	H	0.588516	-0.263364	0.639165
H569	H	0.029633	-0.752553	0.190248
H570	H	0.529633	-0.252553	0.690248
H571	H	0.085260	-0.752570	0.190387
H572	H	0.585260	-0.252570	0.690387
H573	H	0.030064	-0.676857	0.113979
H574	H	0.530064	-0.176857	0.613979
H575	H	0.085697	-0.676944	0.114175
H576	H	0.585697	-0.176944	0.614175
H577	H	0.049734	-0.622248	0.452940
H578	H	0.549734	-0.122248	0.952940
O579	O	-0.028033	-0.462306	0.374800
O580	O	0.471967	0.037694	0.874800
C581	C	-0.071269	-0.381008	0.331366
C582	C	0.428731	0.118992	0.831366
C583	C	-0.057692	-0.436486	0.345055
C584	C	0.442308	0.063514	0.845055
H585	H	-0.095258	-0.360117	0.307324
H586	H	0.404742	0.139883	0.807324
H587	H	-0.036454	-0.370943	0.310513
H588	H	0.463546	0.129057	0.810513
H589	H	-0.092173	-0.370895	0.366162
H590	H	0.407827	0.129105	0.866162
H591	H	-0.036800	-0.446639	0.310284
H592	H	0.463200	0.053361	0.810284
H593	H	-0.092525	-0.446521	0.365927
H594	H	0.407475	0.053479	0.865927
H595	H	0.087072	-0.886205	0.386121
H596	H	0.587072	-0.386205	0.886121
O597	O	0.061365	-0.789206	0.351272
O598	O	0.561365	-0.289206	0.851272
C599	C	0.145488	-0.794709	0.321796
C600	C	0.645488	-0.294709	0.821796
C601	C	0.109199	-0.822848	0.348531
C602	C	0.609199	-0.322848	0.848531
H603	H	0.184171	-0.821897	0.319562
H604	H	0.684171	-0.321897	0.819562
H605	H	0.135209	-0.770705	0.342777
H606	H	0.635209	-0.270705	0.842777
H607	H	0.143949	-0.770688	0.283221
H608	H	0.643949	-0.270688	0.783221
H609	H	0.110719	-0.846896	0.387106
H610	H	0.610719	-0.346896	0.887106
H611	H	0.119490	-0.846821	0.327513
H612	H	0.619490	-0.346821	0.827513
O613	O	-0.068713	-0.890032	0.447063
O614	O	0.431287	-0.390032	0.947063
C615	C	-0.128953	-0.905695	0.442369
C616	C	0.371047	-0.405695	0.942369
C617	C	-0.092675	-0.877544	0.415631
C618	C	0.407325	-0.377544	0.915631
H619	H	-0.148329	-0.895616	0.416964
H620	H	0.351671	-0.395616	0.916964
H621	H	-0.157203	-0.895575	0.476548
H622	H	0.342797	-0.395575	0.976548
H623	H	-0.108156	-0.946765	0.453382
H624	H	0.391844	-0.446765	0.953382
H625	H	-0.113430	-0.836467	0.404585
H626	H	0.386570	-0.336467	0.904585
H627	H	-0.064426	-0.887705	0.381474
H628	H	0.435574	-0.387705	0.881474
O629	O	-0.102288	-0.788902	0.413287
O630	O	0.397712	-0.288902	0.913287
C631	C	-0.164256	-0.730962	0.375366
C632	C	0.335744	-0.230962	0.875366
C633	C	-0.109232	-0.759252	0.367484
C634	C	0.390768	-0.259252	0.867484
H635	H	-0.169888	-0.706991	0.338341
H636	H	0.330112	-0.206991	0.838341
H637	H	-0.178735	-0.706905	0.397894
H638	H	0.321265	-0.206905	0.897894
H639	H	-0.184884	-0.758078	0.395706
H640	H	0.315116	-0.258078	0.895706
H641	H	-0.088563	-0.732171	0.347132
H642	H	0.411437	-0.232171	0.847132
H643	H	-0.094790	-0.783316	0.344977
H644	H	0.405210	-0.283316	0.844977
H645	H	-0.328125	-0.583847	0.490235
H646	H	0.171875	-0.083847	0.990235
O647	O	-0.231130	-0.619575	0.464677
O648	O	0.268870	-0.119575	0.964677
C649	C	-0.236673	-0.659306	0.549601
C650	C	0.263327	-0.159306	1.049601
C651	C	-0.264788	-0.626861	0.512840
C652	C	0.235212	-0.126861	1.012840
H653	H	-0.263873	-0.665216	0.588549
H654	H	0.236127	-0.165216	1.088549
H655	H	-0.212670	-0.640551	0.543776
H656	H	0.287330	-0.140551	1.043776
H657	H	-0.212656	-0.696204	0.543689
H658	H	0.287344	-0.196204	1.043689
H659	H	-0.288831	-0.589958	0.518730
H660	H	0.211169	-0.089958	1.018730
H661	H	-0.288760	-0.645655	0.518675
H662	H	0.211240	-0.145655	1.018675
