data_functionalizedCrystal
_audit_creation_method	'MofGen! by Chris Wilmer'
_symmetry_space_group_name_H-M	'P1'
_symmetry_Int_Tables_number	1
_symmetry_cell_setting	triclinic
loop_
_symmetry_equiv_pos_as_xyz
  x,y,z
_cell_length_a	19.805407
_cell_length_b	25.639240
_cell_length_c	19.805399
_cell_angle_alpha	90.035908
_cell_angle_beta	90.017803
_cell_angle_gamma	90.030074
loop_
_atom_site_label
_atom_site_type_symbol
_atom_site_fract_x
_atom_site_fract_y
_atom_site_fract_z
Zn1	Zn	1.034706	-0.208200	0.382648
Zn2	Zn	1.034608	-0.295634	0.269444
Zn3	Zn	0.921520	-0.208211	0.269477
Zn4	Zn	0.921471	-0.295602	0.382594
O5	O	0.978076	-0.251912	0.326041
O6	O	1.129409	-0.219808	0.367641
O7	O	1.019586	-0.284055	0.174732
O8	O	0.936596	-0.135044	0.284526
O9	O	1.129338	-0.284045	0.284470
O10	O	1.019753	-0.135037	0.367672
O11	O	0.936501	-0.219825	0.174756
O12	O	0.826797	-0.219794	0.284473
O13	O	0.936513	-0.283991	0.477318
O14	O	0.826761	-0.284001	0.367580
O15	O	1.019705	-0.219777	0.477358
O16	O	1.019539	-0.368795	0.284417
O17	O	0.936418	-0.368772	0.367548
C18	C	0.802220	-0.251896	0.326024
C19	C	0.726988	-0.251901	0.326033
C20	C	0.691682	-0.218512	0.369406
C21	C	0.620994	-0.218515	0.369409
C22	C	0.585613	-0.251910	0.326041
C23	C	0.620924	-0.285300	0.282664
C24	C	0.691611	-0.285295	0.282658
C25	C	0.335851	-0.285324	0.282684
C26	C	0.265159	-0.285328	0.282695
C27	C	0.265233	-0.218544	0.369435
C28	C	0.335921	-0.218538	0.369430
C29	C	0.371225	-0.251927	0.326050
C30	C	0.447874	-0.251923	0.326046
C31	C	0.508966	-0.251917	0.326048
C32	C	0.977981	-0.387755	0.325988
C33	C	0.978002	-0.445869	0.325988
C34	C	1.021398	-0.806189	0.369413
C35	C	1.021418	-0.860793	0.369427
O36	O	1.058201	-0.888994	0.406295
N37	N	0.978170	-0.888151	0.326106
C38	C	0.934895	-0.860901	0.282773
O39	O	0.898112	-0.889185	0.245927
C40	C	0.934873	-0.806298	0.282764
C41	C	0.978128	-0.778943	0.326083
C42	C	1.064649	-0.778834	0.412729
C43	C	1.064629	-0.724234	0.412715
C44	C	1.021359	-0.696988	0.369384
C45	C	0.978108	-0.724343	0.326068
C46	C	0.891595	-0.779049	0.239435
C47	C	0.891575	-0.724442	0.239429
C48	C	0.934830	-0.697088	0.282748
C49	C	0.934819	-0.642497	0.282722
N50	N	0.978066	-0.615139	0.326043
C51	C	1.021336	-0.642385	0.369374
C52	C	0.934946	-0.975572	0.282798
C53	C	0.934972	-1.030174	0.282804
C54	C	1.021493	-1.030063	0.369459
C55	C	1.021470	-0.975459	0.369449
C56	C	0.978193	-0.948214	0.326119
C57	C	1.021293	-0.527720	0.369339
C58	C	1.021272	-0.473114	0.369318
C59	C	0.934748	-0.473231	0.282666
C60	C	0.934772	-0.527831	0.282684
C61	C	0.978046	-0.555075	0.326026
O62	O	0.898053	-0.614261	0.245875
O63	O	1.058108	-0.614095	0.406220
C64	C	1.154619	-0.251929	0.326058
C65	C	1.229851	-0.251936	0.326065
C66	C	0.978114	-0.251879	0.502584
C67	C	0.978131	-0.251865	0.577816
C68	C	0.978191	-0.115539	0.326109
C69	C	0.978240	-0.057425	0.326138
C70	C	0.978078	-0.251907	0.150185
C71	C	0.978193	-0.251774	0.074953
C72	C	1.021450	-0.218427	0.613182
C73	C	1.021457	-0.218412	0.683870
C74	C	0.978147	-0.251838	0.719191
C75	C	0.934823	-0.285277	0.683820
C76	C	0.934813	-0.285289	0.613133
C77	C	0.934861	-0.285228	0.968894
C78	C	0.934876	-0.285215	1.039586
C79	C	1.021505	-0.218351	1.039631
C80	C	1.021495	-0.218363	0.968944
C81	C	0.978169	-0.251800	0.933579
C82	C	0.978161	-0.251816	0.856930
C83	C	0.978158	-0.251825	0.795838
H84	H	0.592111	-0.312489	0.247350
H85	H	0.856372	-0.801312	0.204159
N86	N	1.111274	-0.694736	0.459449
H87	H	1.104701	-0.656009	0.452874
H88	H	1.159624	-0.704258	0.448964
N89	N	0.374077	-0.182521	0.416209
H90	H	0.361793	-0.145154	0.405791
H91	H	0.424203	-0.187628	0.409603
N92	N	1.068187	-0.182344	0.722003
H93	H	1.099540	-0.203587	0.751328
H94	H	1.040661	-0.158108	0.751296
N95	N	0.227155	-0.182529	0.416224
H96	H	0.177006	-0.187597	0.409648
H97	H	0.239530	-0.145177	0.405785
H98	H	0.592251	-0.191327	0.404729
N99	N	0.888274	-0.946193	0.236048
H100	H	0.915791	-0.923540	0.204702
H101	H	0.856884	-0.923571	0.263561
H102	H	0.236353	-0.312524	0.247377
N103	N	0.844895	-0.695057	0.192695
H104	H	0.817500	-0.720675	0.165258
H105	H	0.872454	-0.672405	0.161388
H106	H	0.899592	-0.312463	0.940108
N107	N	1.068211	-0.182314	0.930847
H108	H	1.095655	-0.161128	0.963978
H109	H	1.040675	-0.158121	0.901526
H110	H	0.364587	-0.312511	0.247362
H111	H	0.899557	-0.312491	0.712584
H112	H	0.720356	-0.312483	0.247339
H113	H	1.099884	-0.801012	0.448019
N114	N	1.067928	-0.443610	0.416042
H115	H	1.095339	-0.469159	0.443495
H116	H	1.040350	-0.420952	0.447335
H117	H	1.056527	-0.549895	0.404637
H118	H	1.056781	-0.191123	1.068433
N119	N	1.068122	-0.945957	0.416172
H120	H	1.095536	-0.971508	0.443620
H121	H	1.040544	-0.923303	0.447469
N122	N	1.068165	-1.059454	0.416197
H123	H	1.061611	-1.098195	0.409628
H124	H	1.057597	-1.049889	0.464525
H125	H	0.899756	-1.052442	0.247522
N126	N	0.888128	-0.557339	0.235955
H127	H	0.860716	-0.531791	0.208501
H128	H	0.856794	-0.579994	0.263485
N129	N	0.888162	-0.321268	1.077685
H130	H	0.860711	-0.342452	1.044556
H131	H	0.856866	-0.299975	1.107021
H132	H	0.899531	-0.312512	0.584339
N133	N	0.888085	-0.443834	0.235933
H134	H	0.856699	-0.421182	0.263413
H135	H	0.860729	-0.469476	0.208498
N136	N	0.729841	-0.182496	0.416186
H137	H	0.696745	-0.161344	0.443662
H138	H	0.759173	-0.158270	0.388694
N139	N	1.068167	-0.182378	0.575088
H140	H	1.095610	-0.161193	0.608221
H141	H	1.040633	-0.158184	0.545766
