data_functionalizedCrystal
_audit_creation_method	'MofGen! by Chris Wilmer'
_symmetry_space_group_name_H-M	'P1'
_symmetry_Int_Tables_number	1
_symmetry_cell_setting	triclinic
loop_
_symmetry_equiv_pos_as_xyz
  x,y,z
_cell_length_a	12.759401
_cell_length_b	12.759399
_cell_length_c	12.759393
_cell_angle_alpha	89.970666
_cell_angle_beta	89.979213
_cell_angle_gamma	90.016228
loop_
_atom_site_label
_atom_site_type_symbol
_atom_site_fract_x
_atom_site_fract_y
_atom_site_fract_z
Zn1	Zn	1.606259	-0.418202	-0.594024
Zn2	Zn	1.606147	-0.593918	-0.418348
Zn3	Zn	1.430557	-0.418255	-0.418360
Zn4	Zn	1.430546	-0.593841	-0.593986
O5	O	1.518377	-0.506054	-0.506180
O6	O	1.753265	-0.441521	-0.570732
O7	O	1.582812	-0.570670	-0.271329
O8	O	1.453916	-0.271227	-0.441683
O9	O	1.753183	-0.570618	-0.441663
O10	O	1.583003	-0.271188	-0.570743
O11	O	1.453808	-0.441611	-0.271337
O12	O	1.283535	-0.441537	-0.441646
O13	O	1.453897	-0.570488	-0.741012
O14	O	1.283527	-0.570539	-0.570677
O15	O	1.582992	-0.441447	-0.741040
O16	O	1.582801	-0.740928	-0.441626
O17	O	1.453788	-0.740872	-0.570666
C18	C	1.245410	-0.506036	-0.506159
C19	C	1.128633	-0.506054	-0.506176
C20	C	0.963999	-0.573183	-0.438899
C21	C	1.073723	-0.573168	-0.438879
C22	C	1.073813	-0.438943	-0.573489
C23	C	0.964091	-0.438954	-0.573503
C24	C	1.223606	-0.610542	-0.314891
C25	C	1.278422	-0.677662	-0.247590
C26	C	1.242785	-0.780160	-0.231289
C27	C	1.152333	-0.815560	-0.282304
C28	C	1.097523	-0.748447	-0.349613
C29	C	1.133159	-0.645933	-0.365894
C30	C	0.814206	-0.401591	-0.697492
C31	C	0.759394	-0.334481	-0.764807
C32	C	0.795030	-0.231981	-0.781119
C33	C	0.885485	-0.196585	-0.730122
C34	C	0.940297	-0.263694	-0.662807
C35	C	0.904654	-0.366193	-0.646494
C36	C	1.518310	-0.779021	-0.506163
C37	C	1.518377	-0.895798	-0.506191
C38	C	1.451190	-0.950669	-0.573334
C39	C	1.451256	-1.060393	-0.573354
C40	C	1.585705	-1.060365	-0.439086
C41	C	1.585633	-0.950643	-0.439061
C42	C	1.327429	-1.210431	-0.610817
C43	C	1.260251	-1.265306	-0.677976
C44	C	1.244045	-1.229635	-0.780468
C45	C	1.295033	-1.139091	-0.815823
C46	C	1.362218	-1.084222	-0.748669
C47	C	1.378404	-1.119892	-0.646162
C48	C	1.709461	-0.800603	-0.401609
C49	C	1.776653	-0.745732	-0.334460
C50	C	1.792869	-0.781401	-0.231966
C51	C	1.741901	-0.871948	-0.196615
C52	C	1.674709	-0.926819	-0.263764
C53	C	1.658490	-0.891142	-0.366257
C54	C	1.792410	-0.506072	-0.506200
C55	C	1.909187	-0.506080	-0.506209
C56	C	1.518456	-0.505953	-0.780213
C57	C	1.518489	-0.505910	-0.896990
C58	C	1.518474	-0.232020	-0.506219
C59	C	1.518515	-0.115244	-0.506236
C60	C	1.585714	-0.438707	-0.951868
C61	C	1.585732	-0.438662	-1.061592
C62	C	1.451297	-0.573031	-1.061550
C63	C	1.451275	-0.573070	-0.951828
C64	C	1.623346	-0.314706	-1.211568
C65	C	1.690588	-0.247513	-1.266450
C66	C	1.793101	-0.231404	-1.230858
C67	C	1.828393	-0.282504	-1.140386
C68	C	1.761158	-0.349705	-1.085509
C69	C	1.658630	-0.365794	-1.121099
C70	C	1.413671	-0.697027	-0.801850
C71	C	1.346440	-0.764234	-0.746972
C72	C	1.243925	-0.780354	-0.782562
C73	C	1.208636	-0.729273	-0.873037
C74	C	1.275868	-0.662065	-0.927916
C75	C	1.378381	-0.645944	-0.892319
C76	C	1.518359	-0.506078	-0.233212
C77	C	1.518529	-0.505825	-0.116436
H78	H	0.785184	-0.485057	-0.684218
H79	H	1.396425	-0.906016	-0.627993
O80	O	1.656123	-0.197916	-1.354282
C81	C	1.551222	-0.226548	-1.373939
H82	H	1.513125	-0.254206	-1.297972
H83	H	1.506568	-0.155983	-1.405703
H84	H	1.549147	-0.292603	-1.434035
H85	H	1.911874	-0.269390	-1.111419
H86	H	1.123331	-0.899030	-0.269036
H87	H	0.919300	-0.627841	-0.384103
H88	H	1.539870	-0.327808	-1.240550
H89	H	1.640442	-0.384018	-0.907222
H90	H	1.847849	-0.176693	-1.275551
O91	O	1.296102	-0.845457	-0.166068
C92	C	1.330098	-0.934164	-0.222464
H93	H	1.334761	-0.914159	-0.309427
H94	H	1.410815	-0.958902	-0.193248
H95	H	1.272212	-1.001160	-0.210319
O96	O	1.411907	-0.996369	-0.783010
C97	C	1.521248	-1.011004	-0.776708
H98	H	1.539677	-1.098416	-0.777719
H99	H	1.560698	-0.971403	-0.846450
H100	H	1.551786	-0.975027	-0.700862
H101	H	1.281841	-1.110062	-0.899287
O102	O	1.795581	-0.399223	-0.997623
C103	C	1.900495	-0.370626	-0.977991
H104	H	1.917864	-0.292228	-1.017223
H105	H	1.913358	-0.363367	-0.889882
H106	H	1.955099	-0.433155	-1.010992
O107	O	1.178718	-1.283034	-0.845556
C108	C	1.137218	-1.370612	-0.792387
H109	H	1.140705	-1.356385	-0.704259
H110	H	1.052290	-1.383031	-0.817177
H111	H	1.185097	-1.443236	-0.812729
H112	H	0.750396	-0.177345	-0.835941
O113	O	1.366234	-0.643092	-0.198075
C114	C	1.385945	-0.538230	-0.226899
H115	H	1.310009	-0.500200	-0.254608
H116	H	1.417679	-0.493456	-0.156423
H117	H	1.446085	-0.536240	-0.292972
O118	O	1.343055	-1.244927	-0.511180
C119	C	1.311456	-1.166778	-0.439770
H120	H	1.252541	-1.112443	-0.479241
H121	H	1.273532	-1.205125	-0.368498
H122	H	1.382740	-1.119575	-0.413827
O123	O	0.671619	-0.369024	-0.814404
C124	C	0.696942	-0.455818	-0.877890
H125	H	0.771424	-0.494436	-0.847205
H126	H	0.629827	-0.514781	-0.875859
H127	H	0.710052	-0.428424	-0.961939
O128	O	1.858147	-0.728252	-0.166616
C129	C	1.861500	-0.779140	-0.068562
H130	H	1.838312	-0.864834	-0.078633
H131	H	1.944319	-0.774398	-0.035404
H132	H	1.804585	-0.739339	-0.012362
H133	H	1.218737	-1.339027	-0.649181
H134	H	1.640463	-1.105034	-0.384432
O135	O	1.625238	-1.014730	-0.229244
C136	C	1.653978	-1.034468	-0.124388
H137	H	1.681586	-0.958517	-0.086322
H138	H	1.583485	-1.066337	-0.079634
H139	H	1.720099	-1.094511	-0.122419
O140	O	1.178477	-0.845512	-0.729264
C141	C	1.089865	-0.788966	-0.695228
H142	H	1.078918	-0.716885	-0.746900
H143	H	1.017393	-0.840937	-0.700806
H144	H	1.101627	-0.763352	-0.610457
O145	O	1.258075	-0.510899	-0.330594
C146	C	1.179844	-0.439505	-0.299133
H147	H	1.125438	-0.478983	-0.240226
H148	H	1.218098	-0.368219	-0.261246
H149	H	1.132736	-0.413581	-0.370483
O150	O	1.028118	-0.229129	-0.613308
C151	C	1.047838	-0.124275	-0.642157
H152	H	0.971905	-0.086244	-0.669872
H153	H	1.079579	-0.079488	-0.571692
H154	H	1.107976	-0.122307	-0.708233
H155	H	1.755110	-0.900994	-0.113158
O156	O	1.386165	-0.638384	-1.114870
C157	C	1.445968	-0.706207	-1.178355
H158	H	1.528705	-0.712717	-1.145299
H159	H	1.407939	-0.787057	-1.179582
H160	H	1.449618	-0.673694	-1.261517
H161	H	1.818156	-0.672005	-0.363252
O162	O	1.380876	-0.813910	-0.659174
C163	C	1.467579	-0.877547	-0.684480
H164	H	1.506270	-0.846918	-0.758995
H165	H	1.526523	-0.875634	-0.617384
H166	H	1.440058	-0.961545	-0.697523
H167	H	1.125162	-0.742401	-0.902019
O168	O	0.919962	-0.096945	-0.745843
C169	C	0.841734	-0.025542	-0.714395
H170	H	0.787331	-0.065004	-0.655477
H171	H	0.879993	0.045752	-0.676527
H172	H	0.794624	0.000366	-0.785750
H173	H	1.118530	-0.384293	-0.628279
O174	O	1.241408	-0.612487	-1.015759
C175	C	1.136516	-0.641145	-1.035427
H176	H	1.098417	-0.668805	-0.959462
H177	H	1.091849	-0.570594	-1.067203
H178	H	1.134464	-0.707206	-1.095518
O179	O	1.693882	-0.766017	-0.501227
C180	C	1.790313	-0.764372	-0.555199
H181	H	1.847144	-0.821277	-0.516298
H182	H	1.777315	-0.788680	-0.640171
H183	H	1.824455	-0.681831	-0.552774
O184	O	1.009657	-0.782974	-0.399049
C185	C	0.989972	-0.887850	-0.370260
H186	H	1.029146	-0.905084	-0.291840
H187	H	0.901854	-0.900729	-0.362959
H188	H	1.022996	-0.942541	-0.432698
O189	O	1.513329	-0.681389	-0.767470
C190	C	1.584693	-0.712984	-0.845699
H191	H	1.544379	-0.710874	-0.925390
H192	H	1.654748	-0.657513	-0.846329
H193	H	1.612660	-0.796109	-0.828639
