data_functionalizedCrystal
_audit_creation_method	'MofGen! by Chris Wilmer'
_symmetry_space_group_name_H-M	'P1'
_symmetry_Int_Tables_number	1
_symmetry_cell_setting	triclinic
loop_
_symmetry_equiv_pos_as_xyz
  x,y,z
_cell_length_a	21.395362
_cell_length_b	16.120484
_cell_length_c	21.395364
_cell_angle_alpha	87.117689
_cell_angle_beta	90.025888
_cell_angle_gamma	92.942400
loop_
_atom_site_label
_atom_site_type_symbol
_atom_site_fract_x
_atom_site_fract_y
_atom_site_fract_z
Zn1	Zn	0.945128	-0.331680	0.367216
Zn2	Zn	1.445128	0.168320	0.867216
Zn3	Zn	0.939760	-0.471073	0.267746
Zn4	Zn	1.439760	0.028927	0.767746
Zn5	Zn	0.840375	-0.331713	0.262418
Zn6	Zn	1.340375	0.168287	0.762418
Zn7	Zn	0.835008	-0.471096	0.372452
Zn8	Zn	1.335008	0.028904	0.872452
O9	O	0.890067	-0.401391	0.317458
O10	O	1.390067	0.098609	0.817458
O11	O	1.032095	-0.350148	0.354059
O12	O	1.532095	0.149852	0.854059
O13	O	0.926576	-0.452591	0.179362
O14	O	1.426576	0.047409	0.679362
O15	O	0.858763	-0.215040	0.271899
O16	O	1.358763	0.284960	0.771899
O17	O	1.028151	-0.452559	0.280980
O18	O	1.528151	0.047441	0.780980
O19	O	0.935725	-0.215016	0.348893
O20	O	1.435725	0.284984	0.848893
O21	O	0.853558	-0.350203	0.175447
O22	O	1.353558	0.149797	0.675447
O23	O	0.751984	-0.350226	0.276976
O24	O	1.251984	0.149774	0.776976
O25	O	0.849616	-0.452599	0.459435
O26	O	1.349616	0.047401	0.959435
O27	O	0.748041	-0.452630	0.357817
O28	O	1.248041	0.047370	0.857817
O29	O	0.930521	-0.350170	0.455588
O30	O	1.430521	0.149830	0.955588
O31	O	0.921371	-0.587745	0.286057
O32	O	1.421371	-0.087745	0.786057
O33	O	0.844410	-0.587762	0.362984
O34	O	1.344410	-0.087762	0.862984
C35	C	0.727278	-0.401435	0.317387
C36	C	1.227278	0.098565	0.817387
C37	C	0.657635	-0.401474	0.317372
C38	C	1.157635	0.098526	0.817372
C39	C	0.622883	-0.454866	0.359409
C40	C	1.122883	0.045134	0.859409
C41	C	0.557448	-0.454846	0.359436
C42	C	1.057448	0.045154	0.859436
C43	C	0.526768	-0.401442	0.317416
C44	C	1.026768	0.098558	0.817416
C45	C	0.561529	-0.348039	0.275376
C46	C	1.061529	0.151961	0.775376
C47	C	0.626963	-0.348055	0.275354
C48	C	1.126963	0.151945	0.775354
C49	C	0.423317	-0.394722	0.260755
C50	C	0.923317	0.105278	0.760755
C51	C	0.357884	-0.394712	0.260776
C52	C	0.857884	0.105288	0.760776
C53	C	0.324950	-0.401387	0.317483
C54	C	0.824950	0.098613	0.817483
C55	C	0.357455	-0.408091	0.374172
C56	C	0.857455	0.091909	0.874172
C57	C	0.422888	-0.408107	0.374150
C58	C	0.922888	0.091893	0.874150
C59	C	0.455817	-0.401418	0.317435
C60	C	0.955817	0.098582	0.817435
C61	C	0.219245	-0.454761	0.359553
C62	C	0.719245	0.045239	0.859553
C63	C	0.153810	-0.454734	0.359581
C64	C	0.653810	0.045266	0.859581
C65	C	0.157892	-0.347931	0.275515
C66	C	0.657892	0.152069	0.775515
C67	C	0.223326	-0.347953	0.275492
C68	C	0.723326	0.152047	0.775492
C69	C	0.253999	-0.401372	0.317510
C70	C	0.753999	0.098628	0.817510
C71	C	0.881743	-0.618005	0.325680
C72	C	1.381743	-0.118005	0.825680
C73	C	0.878239	-0.710673	0.329219
C74	C	1.378239	-0.210673	0.829219
C75	C	0.871845	-0.880339	0.335692
C76	C	1.371845	-0.380339	0.835692
C77	C	0.908402	-0.921602	0.299234
C78	C	1.408402	-0.421602	0.799234
C79	C	0.904844	-1.016010	0.302836
C80	C	1.404844	-0.516010	0.802836
C81	C	0.875402	-0.785923	0.332091
C82	C	1.375402	-0.285923	0.832091
C83	C	1.053492	-0.401347	0.317530
C84	C	1.553492	0.098653	0.817530
C85	C	1.123134	-0.401328	0.317560
C86	C	1.623134	0.098672	0.817560
C87	C	0.890068	-0.401383	0.480881
C88	C	1.390068	0.098617	0.980881
C89	C	0.890069	-0.401380	0.550522
C90	C	1.390069	0.098620	1.050522
C91	C	0.898442	-0.183931	0.309217
C92	C	1.398442	0.316069	0.809217
C93	C	0.902010	-0.091262	0.305706
C94	C	1.402010	0.408738	0.805706
C95	C	0.932167	-0.348055	1.050317
C96	C	1.432167	0.151945	1.550317
C97	C	0.932173	-0.348056	0.984881
C98	C	1.432173	0.151944	1.484881
C99	C	0.890052	-0.401383	0.954161
C100	C	1.390052	0.098617	1.454161
C101	C	0.847931	-0.454728	0.988882
C102	C	1.347931	0.045272	1.488882
C103	C	0.847930	-0.454731	1.054316
C104	C	1.347930	0.045269	1.554316
C105	C	0.833350	-0.407977	0.850717
C106	C	1.333350	0.092023	1.350717
C107	C	0.833350	-0.407969	0.785283
C108	C	1.333350	0.092031	1.285283
C109	C	0.890055	-0.401380	0.752340
C110	C	1.390055	0.098620	1.252340
C111	C	0.946762	-0.394782	0.784837
C112	C	1.446762	0.105218	1.284837
C113	C	0.946761	-0.394784	0.850271
C114	C	1.446761	0.105216	1.350271
C115	C	0.890048	-0.401387	0.883208
C116	C	1.390048	0.098613	1.383208
C117	C	0.932183	-0.348044	0.646675
C118	C	1.432183	0.151956	1.146675
C119	C	0.932190	-0.348052	0.581238
C120	C	1.432190	0.151948	1.081238
C121	C	0.847943	-0.454719	0.585240
C122	C	1.347943	0.045281	1.085240
C123	C	0.847941	-0.454716	0.650675
C124	C	1.347941	0.045284	1.150675
C125	C	0.890060	-0.401374	0.681388
C126	C	1.390060	0.098626	1.181388
C127	C	0.890058	-0.401409	1.154671
C128	C	1.390058	0.098591	1.654671
C129	C	0.890050	-0.401389	1.085029
C130	C	1.390050	0.098611	1.585029
H131	H	0.244220	-0.498253	0.393769
H132	H	0.744220	0.001747	0.893769
N133	N	0.826843	-0.927453	0.380611
N134	N	1.326843	-0.427453	0.880611
H135	H	0.837090	-0.912315	0.424826
H136	H	1.337090	-0.412315	0.924826
H137	H	0.830668	-0.989178	0.376790
H138	H	1.330668	-0.489178	0.876790
N139	N	0.977586	-0.290515	1.083443
N140	N	1.477586	0.209485	1.583443
H141	H	1.004266	-0.256725	1.051519
H142	H	1.504266	0.243275	1.551519
H143	H	1.005282	-0.324431	1.111893
H144	H	1.505282	0.175569	1.611893
H145	H	0.942370	-0.886024	0.265317
H146	H	1.442370	-0.386024	0.765317
H147	H	0.966470	-0.304622	0.956613
H148	H	1.466470	0.195378	1.456613
N149	N	0.457949	-0.415334	0.435287
N150	N	0.957949	0.084666	0.935287
H151	H	0.427161	-0.419562	0.471217
H152	H	0.927161	0.080438	0.971217
H153	H	0.487073	-0.364554	0.439228
H154	H	0.987073	0.135446	0.939228
N155	N	1.007918	-0.387677	0.885323
N156	N	1.507918	0.112323	1.385323
H157	H	1.043843	-0.383503	0.854529
H158	H	1.543843	0.116497	1.354529
H159	H	1.011775	-0.438477	0.914395
H160	H	1.511775	0.061523	1.414395
H161	H	0.330641	-0.413525	0.420348
H162	H	0.830641	0.086475	0.920348
N163	N	1.007928	-0.387670	0.749316
N164	N	1.507928	0.112330	1.249316
H165	H	0.999327	-0.388673	0.702933
H166	H	1.499327	0.111327	1.202933
H167	H	1.034085	-0.435873	0.762594
H168	H	1.534085	0.064127	1.262594
H169	H	0.966478	-0.304610	0.671683
H170	H	1.466478	0.195390	1.171683
H171	H	0.251622	-0.304479	0.241258
H172	H	0.751622	0.195521	0.741258
N173	N	0.322828	-0.387489	0.199637
N174	N	0.822828	0.112511	0.699637
H175	H	0.353619	-0.383252	0.163710
H176	H	0.853619	0.116748	0.663710
H177	H	0.297671	-0.336115	0.198663
H178	H	0.797671	0.163885	0.698663
N179	N	0.977623	-0.290531	0.543795
N180	N	1.477623	0.209469	1.043795
H181	H	1.004302	-0.256741	0.573183
H182	H	1.504302	0.243259	1.073183
H183	H	0.953603	-0.251959	0.515171
H184	H	1.453603	0.248041	1.015171
H185	H	0.813649	-0.498142	0.560228
H186	H	1.313649	0.001858	1.060228
N187	N	0.802512	-0.512238	0.688120
N188	N	1.302512	-0.012238	1.188120
H189	H	0.775828	-0.546021	0.658731
H190	H	1.275828	-0.046021	1.158731
H191	H	0.774822	-0.478310	0.713971
H192	H	1.274822	0.021690	1.213971
H193	H	0.132913	-0.304445	0.241304
H194	H	0.632913	0.195555	0.741304
N195	N	0.116323	-0.512328	0.404920
N196	N	0.616323	-0.012328	0.904920
H197	H	0.145685	-0.546172	0.431530
H198	H	0.645685	-0.046172	0.931530
H199	H	0.087660	-0.550845	0.380832
H200	H	0.587660	-0.050845	0.880832
H201	H	0.787176	-0.413341	0.758829
H202	H	1.287176	0.086659	1.258829
H203	H	0.813637	-0.498148	0.963865
H204	H	1.313637	0.001852	1.463865
H205	H	0.787171	-0.413344	0.877534
H206	H	1.287171	0.086656	1.377534
N207	N	0.802503	-0.512258	1.091761
N208	N	1.302503	-0.012258	1.591761
H209	H	0.775820	-0.546045	1.062373
H210	H	1.275820	-0.046045	1.562373
H211	H	0.774811	-0.478330	1.117610
H212	H	1.274811	0.021670	1.617610
H213	H	0.647852	-0.498363	0.393625
H214	H	1.147852	0.001637	0.893625
H215	H	0.450127	-0.389282	0.214574
H216	H	0.950127	0.110718	0.714574
H217	H	0.529147	-0.498324	0.393670
H218	H	1.029147	0.001676	0.893670
H219	H	0.536546	-0.304555	0.241164
H220	H	1.036546	0.195445	0.741164
H221	H	0.655258	-0.304573	0.241123
H222	H	1.155258	0.195427	0.741123
