data_functionalizedCrystal
_audit_creation_method	'MofGen! by Chris Wilmer'
_symmetry_space_group_name_H-M	'P1'
_symmetry_Int_Tables_number	1
_symmetry_cell_setting	triclinic
loop_
_symmetry_equiv_pos_as_xyz
  x,y,z
_cell_length_a	27.732064
_cell_length_b	27.731996
_cell_length_c	13.330367
_cell_angle_alpha	89.989375
_cell_angle_beta	90.000086
_cell_angle_gamma	82.635407
loop_
_atom_site_label
_atom_site_type_symbol
_atom_site_fract_x
_atom_site_fract_y
_atom_site_fract_z
O1	O	0.640913	0.057556	-0.083257
O2	O	0.500119	0.066294	-0.083300
O3	O	0.574902	-0.008473	-0.083256
O4	O	0.566130	0.132323	-0.083302
O5	O	0.574891	-0.008475	0.083591
O6	O	0.500109	0.066292	0.083547
O7	O	0.640903	0.057555	0.083590
Cu8	Cu	0.570505	0.061923	0.098803
Cu9	Cu	0.570517	0.061925	-0.098513
O10	O	0.566120	0.132322	0.083545
C11	C	0.482107	0.066108	0.000118
C12	C	0.428453	0.065552	0.000102
C13	C	0.051389	0.017584	0.000175
C14	C	0.253049	0.019630	0.000149
O15	O	0.284309	-0.017592	0.000198
N16	N	0.272168	0.063966	0.000130
C17	C	0.240869	0.107793	0.000124
O18	O	0.261758	0.145549	0.000117
C19	C	0.039210	0.105746	0.000158
C20	C	0.020094	0.061407	0.000167
C21	C	0.032272	-0.026751	0.000185
C22	C	-0.018140	-0.027262	0.000186
C23	C	-0.049435	0.016562	0.000178
C24	C	-0.030318	0.060896	0.000168
C25	C	0.007912	0.149572	0.000159
C26	C	-0.042506	0.149057	0.000170
C27	C	-0.061622	0.104718	0.000179
C28	C	-0.112026	0.104209	0.000160
N29	N	-0.131145	0.059873	0.000179
C30	C	-0.099849	0.016050	0.000188
C31	C	0.346743	0.108864	0.000104
C32	C	0.397158	0.109376	0.000094
C33	C	0.409334	0.021213	0.000120
C34	C	0.358919	0.020702	0.000123
C35	C	0.327624	0.064529	0.000123
C36	C	-0.205719	0.014980	0.000190
C37	C	-0.256136	0.014473	0.000187
C38	C	-0.268308	0.102635	0.000166
C39	C	-0.217895	0.103142	0.000163
C40	C	-0.186601	0.059311	0.000179
O41	O	-0.143313	0.141411	0.000122
O42	O	-0.120748	-0.021702	0.000217
C43	C	0.101801	0.018095	0.000174
C44	C	0.120918	0.062430	0.000164
C45	C	0.089623	0.106253	0.000155
C46	C	0.171332	0.062941	0.000154
C47	C	0.202628	0.019118	0.000163
C48	C	0.183508	-0.025218	0.000182
C49	C	0.133096	-0.025729	0.000183
C50	C	0.108742	0.150589	0.000136
C51	C	0.159154	0.151096	0.000134
C52	C	0.190450	0.107273	0.000143
C53	C	0.574717	-0.026482	0.000171
C54	C	0.574174	-0.080138	0.000181
C55	C	0.570765	-0.412853	-0.090817
C56	C	0.568704	-0.614512	-0.090836
O57	O	0.568422	-0.640582	-0.168184
N58	N	0.568442	-0.639730	0.000112
C59	C	0.568692	-0.614530	0.091070
O60	O	0.568417	-0.640606	0.168426
C61	C	0.570750	-0.412872	0.091088
C62	C	0.571017	-0.387657	0.000134
C63	C	0.571031	-0.387639	-0.181763
C64	C	0.571549	-0.337227	-0.181758
C65	C	0.571801	-0.312031	-0.090806
C66	C	0.571535	-0.337246	0.000140
C67	C	0.570997	-0.387672	0.182045
C68	C	0.571510	-0.337254	0.182041
C69	C	0.571777	-0.312040	0.091088
C70	C	0.572304	-0.261638	0.091097
N71	N	0.572566	-0.236420	0.000149
C72	C	0.572314	-0.261617	-0.090802
C73	C	0.567613	-0.720403	0.091055
C74	C	0.567100	-0.770817	0.091051
C75	C	0.567110	-0.770796	-0.090855
C76	C	0.567627	-0.720381	-0.090850
C77	C	0.567875	-0.695185	0.000107
C78	C	0.573402	-0.155750	-0.090784
C79	C	0.573922	-0.105334	-0.090770
C80	C	0.573909	-0.105360	0.091135
C81	C	0.573392	-0.155771	0.091122
C82	C	0.573137	-0.180964	0.000155
O83	O	0.572581	-0.235537	0.168405
O84	O	0.572579	-0.235531	-0.168147
C85	C	0.570247	-0.463265	-0.090823
C86	C	0.569981	-0.488479	0.000123
C87	C	0.570233	-0.463283	0.091075
C88	C	0.569467	-0.538894	0.000119
C89	C	0.569216	-0.564090	-0.090832
C90	C	0.569478	-0.538872	-0.181780
C91	C	0.569995	-0.488461	-0.181774
C92	C	0.569971	-0.488501	0.182022
C93	C	0.569453	-0.538912	0.182009
C94	C	0.569202	-0.564109	0.091058
C95	C	0.658915	0.057740	0.000169
C96	C	0.712569	0.058296	0.000178
C97	C	0.566305	0.150330	0.000116
C98	C	0.566848	0.203986	0.000099
N99	N	0.570499	0.061922	0.237584
N100	N	0.570527	0.061923	-0.237295
C101	C	0.537402	0.095019	0.710187
C102	C	0.603645	0.028827	0.710195
C103	C	0.603640	0.028826	0.605177
C104	C	0.570516	0.061922	0.552659
C105	C	0.537397	0.095020	0.605159
C106	C	0.636762	-0.004268	0.552668
C107	C	0.636758	-0.004270	0.447643
C108	C	0.603631	0.028824	0.395124
C109	C	0.570510	0.061923	0.447631
C110	C	0.537386	0.095019	0.395113
C111	C	0.504262	0.128115	0.447618
C112	C	0.504269	0.128114	0.552640
C113	C	0.603624	0.028825	0.290102
C114	C	0.537380	0.095019	0.290085
H115	H	0.343358	-0.015402	0.000131
Cl116	Cl	0.569121	-0.570605	0.296363
Cl117	Cl	0.574225	-0.073675	0.205468
Cl118	Cl	0.109073	-0.081471	0.000190
H119	H	-0.180245	-0.020712	0.000202
Cl120	Cl	0.495733	0.136626	0.224071
Cl121	Cl	0.678405	-0.045870	0.618688
Cl122	Cl	0.222861	-0.080309	0.000189
H123	H	0.566906	-0.791319	-0.164912
Cl124	Cl	0.448686	-0.033879	0.000131
H125	H	0.510432	0.121965	0.752940
Cl126	Cl	0.462625	0.169723	0.381584
H127	H	0.663728	-0.031219	0.404900
H128	H	0.570176	-0.467991	0.256087
H129	H	0.477302	0.155060	0.595396
Cl130	Cl	0.183179	0.206842	0.000116
Cl131	Cl	0.567922	-0.688735	0.205414
H132	H	0.630594	0.001881	0.247357
Cl133	Cl	-0.042163	-0.083005	0.000189
Cl134	Cl	0.645289	-0.012775	0.776214
H135	H	0.573179	-0.176303	0.165184
Cl136	Cl	-0.280164	-0.041271	0.000191
Cl137	Cl	0.573083	-0.187414	-0.205145
Cl138	Cl	0.071607	-0.081851	0.000197
Cl139	Cl	-0.307660	0.157724	0.000150
Cl140	Cl	0.421183	0.165118	0.000062
Cl141	Cl	0.570658	-0.419358	0.296394
Cl142	Cl	0.571880	-0.305536	-0.296106
Cl143	Cl	0.307407	0.163966	0.000095
H144	H	0.571704	-0.316741	0.256112
H145	H	0.574140	-0.084807	-0.164839
Cl146	Cl	0.031931	0.205315	0.000149
H147	H	0.570212	-0.467936	-0.255838
Cl148	Cl	-0.193863	0.158882	0.000139
Cl149	Cl	0.069406	0.205687	0.000120
H150	H	0.570824	-0.408148	-0.255831
Cl151	Cl	-0.081845	0.204157	0.000174
H152	H	0.566890	-0.791344	0.165114
Cl153	Cl	0.567961	-0.688688	-0.205196
H154	H	0.569275	-0.559396	-0.255836
