data_functionalizedCrystal
_audit_creation_method	'MofGen! by Chris Wilmer'
_symmetry_space_group_name_H-M	'P1'
_symmetry_Int_Tables_number	1
_symmetry_cell_setting	triclinic
loop_
_symmetry_equiv_pos_as_xyz
  x,y,z
_cell_length_a	17.917603
_cell_length_b	19.377369
_cell_length_c	19.376995
_cell_angle_alpha	82.777024
_cell_angle_beta	90.922208
_cell_angle_gamma	45.288373
loop_
_atom_site_label
_atom_site_type_symbol
_atom_site_fract_x
_atom_site_fract_y
_atom_site_fract_z
Zr1	Zr	0.592772	0.749867	0.058854
O2	O	0.457696	0.880667	-0.022076
O3	O	0.659754	0.598520	0.067371
O4	O	0.659816	0.707370	-0.041492
O5	O	0.428495	0.812503	0.191192
O6	O	0.790161	0.697221	-0.038274
O7	O	0.457634	0.771816	0.086786
O8	O	0.790050	0.502507	0.156461
O9	O	0.428605	1.007216	-0.003543
O10	O	0.754699	0.660806	0.093089
O11	O	0.635677	0.698745	0.168604
O12	O	0.635750	0.826902	0.040433
O13	O	0.516729	0.864840	0.115948
Zr14	Zr	0.754183	0.798569	0.230502
Zr15	Zr	0.800657	0.733679	0.063986
Zr16	Zr	0.546298	0.814757	0.225370
Zr17	Zr	0.546376	0.951698	0.088413
Zr18	Zr	0.800580	0.596737	0.200943
O19	O	0.687201	0.949915	0.221985
O20	O	0.753282	0.857650	-0.014779
O21	O	0.391616	0.972932	0.214688
O22	O	0.889259	0.667769	0.311432
O23	O	0.955340	0.575503	0.074668
O24	O	0.593674	0.690785	0.304135
O25	O	0.918461	0.735933	0.098164
O26	O	0.687140	0.841065	0.330848
O27	O	0.556795	0.851215	0.327630
O28	O	0.889321	0.776619	0.202570
O29	O	0.593846	0.994349	0.000537
O30	O	0.753109	0.554086	0.288819
O31	O	0.918350	0.541219	0.292899
O32	O	0.955291	0.489640	0.160541
O33	O	0.391664	1.058795	0.128815
O34	O	0.556905	1.045928	0.132895
O35	O	0.711206	0.721534	0.248923
O36	O	0.830227	0.683595	0.173408
O37	O	0.711278	0.849691	0.120752
O38	O	0.592257	0.887629	0.196267
C39	C	0.731513	0.521757	0.107704
C40	C	0.751209	0.436074	0.095156
C41	C	0.505700	0.253036	0.251208
C42	C	0.524325	0.172444	0.239475
C43	C	0.648575	0.132849	0.160643
C44	C	0.629964	0.213436	0.172371
C45	C	0.558524	0.273525	0.217654
C46	C	0.682788	0.233925	0.138817
C47	C	0.664174	0.314508	0.150542
C48	C	0.592736	0.374602	0.195821
C49	C	0.539910	0.354108	0.229379
C50	C	0.754221	0.173839	0.093531
C51	C	0.807045	0.194328	0.059977
C52	C	0.788437	0.274908	0.071706
C53	C	0.716999	0.335002	0.116985
C54	C	0.841263	0.295402	0.038148
C55	C	0.822649	0.375986	0.049873
C56	C	0.698385	0.415586	0.128710
C57	C	0.413445	0.794466	0.138258
C58	C	0.325193	0.801338	0.136079
C59	C	0.163632	0.813891	0.132101
C60	C	0.183316	0.734548	0.157254
C61	C	0.093418	0.741533	0.155040
C62	C	0.253536	0.806908	0.134314
C63	C	0.933510	0.753970	0.151098
C64	C	1.021763	0.747097	0.153277
C65	C	0.731610	0.693050	-0.063608
C66	C	0.751340	0.665503	-0.134298
C67	C	0.615443	1.026678	0.181652
C68	C	0.595746	1.112361	0.194200
C69	C	0.841232	0.539982	-0.206450
C70	C	0.822686	0.565877	-0.140029
C71	C	0.698506	0.739274	-0.194993
C72	C	0.717037	0.713394	-0.261420
C73	C	0.788403	0.613746	-0.267142
C74	C	0.664208	0.787158	-0.322112
C75	C	0.682742	0.761279	-0.388533
C76	C	0.754106	0.661636	-0.394263
C77	C	0.806937	0.587867	-0.333564
C78	C	0.592848	0.886804	-0.316388
C79	C	0.540019	0.960569	-0.377080
C80	C	0.558547	0.934691	-0.443503
C81	C	0.629911	0.835048	-0.449232
C82	C	0.505716	1.008460	-0.504202
C83	C	0.524251	0.982581	-0.570623
C84	C	0.648446	0.809169	-0.515654
C85	C	0.615346	0.855385	0.352964
C86	C	0.595616	0.882933	0.423654
C87	C	0.991545	0.501509	0.114124
C88	C	1.099494	0.408954	0.103755
C89	C	0.673381	0.602925	0.315990
C90	C	0.673347	0.544789	0.374132
C91	C	0.933413	0.582676	0.322410
C92	C	1.021632	0.517669	0.382731
C93	C	0.413543	0.965759	-0.033054
C94	C	0.325323	1.030766	-0.093375
C95	C	0.355410	1.046927	0.175232
C96	C	0.247461	1.139481	0.185601
C97	C	0.673575	0.945511	-0.026634
C98	C	0.673608	1.003646	-0.084776
C99	C	1.110765	0.353591	0.056952
C100	C	1.212189	0.266631	0.047195
C101	C	1.302340	0.235033	0.084244
C102	C	1.291065	0.290405	0.131049
C103	C	1.189643	0.377366	0.140802
C104	C	0.712755	0.529387	0.443369
C105	C	0.712716	0.474777	0.498007
C106	C	0.673276	0.435564	0.483407
C107	C	0.633862	0.450972	0.414163
C108	C	0.633895	0.505587	0.359527
C109	C	1.125198	0.467337	0.371640
C110	C	1.208097	0.406264	0.428313
C111	C	1.187429	0.395518	0.496076
C112	C	1.083852	0.445859	0.507166
C113	C	1.000955	0.506936	0.450494
C114	C	0.221755	1.081108	-0.082282
C115	C	0.138851	1.142207	-0.138952
C116	C	0.159517	1.152956	-0.206714
C117	C	0.263095	1.102610	-0.217805
C118	C	0.345996	1.041519	-0.161135
C119	C	0.236190	1.194850	0.232398
C120	C	0.134767	1.281825	0.242140
C121	C	0.044616	1.313425	0.205089
C122	C	0.055891	1.258051	0.158287
C123	C	0.157313	1.171082	0.148542
C124	C	0.713057	1.042842	-0.070154
C125	C	0.713108	1.097457	-0.124779
C126	C	0.673702	1.112880	-0.194025
C127	C	0.634253	1.073677	-0.208647
C128	C	0.634210	1.019057	-0.154023
H129	H	0.481738	0.403036	0.266253
Br130	Br	0.673767	1.187012	-0.268150
H131	H	0.706738	0.083918	0.123771
H132	H	1.384918	0.164221	0.076296
Br133	Br	-0.093023	1.431459	0.218324
H134	H	1.221349	0.221557	0.009083
Br135	Br	0.291126	1.117207	-0.309773
H136	H	0.916630	0.547911	0.459534
Br137	Br	0.358522	1.151988	0.282688
H138	H	-0.017525	1.283793	0.128123
H139	H	0.673255	0.391094	0.527901
Br140	Br	0.323934	0.612581	0.195904
Br141	Br	0.580340	0.397747	0.394360
Br142	Br	1.153274	0.481909	0.279683
H143	H	0.602170	1.086243	-0.265034
H144	H	0.602081	0.987149	-0.165938
Br145	Br	0.766542	1.021926	0.023817
Br146	Br	1.299947	0.312623	0.572981
Br147	Br	-0.001707	1.210520	-0.123884
Br148	Br	0.452620	0.144648	0.285013
H149	H	1.364480	0.264664	0.161211
H150	H	0.079271	0.887058	0.108905
H151	H	0.166476	1.126003	0.110437
H152	H	0.577578	0.440221	0.205364
Br153	Br	0.745286	0.673932	-0.523427
Br154	Br	0.903778	0.452630	-0.341337
H155	H	1.292427	0.365279	0.419270
H156	H	0.640213	0.464514	0.165584
H157	H	0.745229	1.129374	-0.112860
Br158	Br	1.055821	0.431266	0.599135
H159	H	0.899421	0.246474	0.001274
Br160	Br	0.046995	1.235871	-0.283616
H161	H	0.601809	0.518117	0.303152
Br162	Br	0.938073	0.404745	-0.214223
Br163	Br	1.174365	0.452489	0.204327
Br164	Br	0.408756	0.334585	0.312670
Br165	Br	0.894427	0.465754	-0.057658
H166	H	0.481231	1.042647	-0.620042
H167	H	0.204909	1.072361	-0.027113
H168	H	0.744871	0.561310	0.455270
H169	H	0.769201	0.640567	-0.448348
H170	H	0.640404	0.820406	-0.190323
Br171	Br	0.486553	0.973197	-0.176203
Br172	Br	0.567698	0.921927	-0.226244
Br173	Br	0.443174	1.095800	-0.369306
H174	H	0.447619	1.089591	-0.499531
H175	H	1.037371	0.379311	0.026772
H176	H	0.769368	0.108228	0.083982
Br177	Br	0.903989	0.112778	-0.001480
Br178	Br	0.766212	0.453877	0.591972
H179	H	0.865663	0.392667	0.022549
Br180	Br	0.119491	1.356956	0.305661
