data_functionalizedCrystal
_audit_creation_method	'MofGen! by Chris Wilmer'
_symmetry_space_group_name_H-M	'P1'
_symmetry_Int_Tables_number	1
_symmetry_cell_setting	triclinic
loop_
_symmetry_equiv_pos_as_xyz
  x,y,z
_cell_length_a	19.121063
_cell_length_b	18.215407
_cell_length_c	18.215399
_cell_angle_alpha	89.983140
_cell_angle_beta	87.590157
_cell_angle_gamma	87.534992
loop_
_atom_site_label
_atom_site_type_symbol
_atom_site_fract_x
_atom_site_fract_y
_atom_site_fract_z
Zn1	Zn	-0.279693	-1.112556	0.428542
Zn2	Zn	-0.397148	-1.107208	0.310718
Zn3	Zn	-0.279707	-0.989488	0.305496
Zn4	Zn	-0.397100	-0.984200	0.433747
O5	O	-0.338412	-1.048363	0.369626
O6	O	-0.295288	-1.214830	0.412919
O7	O	-0.381595	-1.091567	0.207042
O8	O	-0.181421	-1.010264	0.317454
O9	O	-0.381581	-1.210901	0.326355
O10	O	-0.181410	-1.100681	0.407856
O11	O	-0.295312	-1.005078	0.203206
O12	O	-0.295265	-0.885803	0.322502
O13	O	-0.381499	-1.001252	0.536040
O14	O	-0.381513	-0.881918	0.416728
O15	O	-0.295241	-1.095554	0.532215
O16	O	-0.495426	-1.086440	0.331402
O17	O	-0.495390	-0.996066	0.421791
C18	C	-0.338386	-0.857158	0.369614
C19	C	-0.338392	-0.775359	0.369626
C20	C	-0.520892	-1.040119	0.377744
C21	C	-0.598958	-1.036660	0.381242
C22	C	-0.383383	-0.508294	0.418628
C23	C	-0.383379	-0.585153	0.418624
C24	C	-0.293434	-0.589173	0.320637
C25	C	-0.293443	-0.512316	0.320638
C26	C	-0.338416	-0.471878	0.369637
C27	C	-0.338403	-0.625595	0.369633
C28	C	-0.338398	-0.708928	0.369628
C29	C	-0.338422	-0.388539	0.369641
C30	C	-0.635628	-1.082124	0.335864
C31	C	-0.708979	-1.078874	0.339157
C32	C	-0.745659	-1.030157	0.387827
C33	C	-0.708983	-0.984691	0.433210
C34	C	-0.635633	-0.987945	0.429919
C35	C	-0.967128	-1.017982	0.400118
C36	C	-1.040483	-1.014730	0.403404
C37	C	-1.040474	-1.108915	0.309352
C38	C	-0.967123	-1.112160	0.306062
C39	C	-0.930454	-1.066697	0.351449
C40	C	-0.820635	-1.026833	0.391193
C41	C	-0.855478	-1.070026	0.348085
C42	C	-0.155219	-1.056659	0.361492
C43	C	-0.077153	-1.060194	0.358026
C44	C	-0.338363	-1.048410	0.561577
C45	C	-0.338343	-1.048430	0.643375
C46	C	-0.338433	-0.240315	0.369639
C47	C	-0.338427	-0.322114	0.369644
C48	C	-0.338409	-1.048361	0.178420
C49	C	-0.338232	-1.048492	0.096613
C50	C	-0.293386	-1.097552	0.829577
C51	C	-0.293366	-1.097562	0.906435
C52	C	-0.383191	-0.999365	0.910406
C53	C	-0.383207	-0.999352	0.833549
C54	C	-0.338306	-1.048450	0.793137
C55	C	-0.338269	-1.048472	0.946851
C56	C	-0.338247	-1.048482	1.030184
C57	C	-0.338327	-1.048439	0.709799
H58	H	-0.420003	-0.475372	0.458526
H59	H	-0.605769	-1.121791	0.296229
H60	H	-0.419996	-0.614799	0.458516
N61	N	-0.748532	-1.127906	0.290210
H62	H	-0.778917	-1.160650	0.321509
H63	H	-0.714121	-1.159211	0.258884
N64	N	-0.244962	-1.150507	0.785987
H65	H	-0.212419	-1.122073	0.752645
H66	H	-0.273574	-1.183299	0.755421
H67	H	-0.419749	-0.959393	0.943319
N68	N	-0.244925	-0.632795	0.267800
H69	H	-0.194758	-0.621679	0.277082
H70	H	-0.255832	-0.618900	0.215704
N71	N	-0.431665	-0.946393	0.794242
H72	H	-0.424859	-0.953835	0.739422
H73	H	-0.420726	-0.894330	0.807183
N74	N	-0.244945	-0.473032	0.267792
H75	H	-0.216450	-0.510310	0.236754
H76	H	-0.212481	-0.442611	0.296357
H77	H	-0.937260	-1.151830	0.266432
H78	H	-1.070338	-1.145929	0.272402
N79	N	-1.080047	-0.962182	0.455899
H80	H	-1.045687	-0.933876	0.484153
H81	H	-1.110439	-0.990775	0.491340
N82	N	-0.927583	-0.968943	0.449062
H83	H	-0.961951	-0.937584	0.480387
H84	H	-0.897195	-0.936252	0.417709
N85	N	-0.748540	-0.932148	0.485707
H86	H	-0.800572	-0.936982	0.480905
H87	H	-0.735762	-0.880162	0.473633
H88	H	-0.256786	-1.137544	0.936100
H89	H	-0.605777	-0.950924	0.466872
H90	H	-0.825612	-1.109694	0.308462
H91	H	-0.850508	-0.987166	0.430818
