data_functionalizedCrystal
_audit_creation_method	'MofGen! by Chris Wilmer'
_symmetry_space_group_name_H-M	'P1'
_symmetry_Int_Tables_number	1
_symmetry_cell_setting	triclinic
loop_
_symmetry_equiv_pos_as_xyz
  x,y,z
_cell_length_a	6.817900
_cell_length_b	19.551900
_cell_length_c	9.582880
_cell_angle_alpha	93.824329
_cell_angle_beta	111.207034
_cell_angle_gamma	101.664829
loop_
_atom_site_label
_atom_site_type_symbol
_atom_site_fract_x
_atom_site_fract_y
_atom_site_fract_z
V1	V	-4.107776	-0.096380	-0.467303
O2	O	-4.102840	0.004935	-0.457683
O3	O	-4.049994	-0.191397	-0.464803
O4	O	-4.098698	-0.094764	-0.670792
O5	O	-4.053799	-0.092367	-0.250268
V6	V	-4.587525	-0.084277	-0.441259
O7	O	-4.377315	-0.122928	-0.524431
O8	O	-4.768183	-0.057729	-0.384130
O9	O	-4.422100	0.010740	-0.443759
O10	O	-4.709858	-0.185592	-0.450878
O11	O	-4.758899	-0.088290	-0.658293
O12	O	-4.373396	-0.085893	-0.237770
C13	C	-3.891440	-0.214564	-0.457611
C14	C	-3.925746	-0.292241	-0.456923
C15	C	-4.356720	-0.855594	-0.460890
C16	C	-4.324501	-0.782607	-0.461526
C17	C	-4.124495	-0.742453	-0.452946
C18	C	-3.956680	-0.775287	-0.443690
C19	C	-3.988897	-0.848271	-0.443039
C20	C	-3.973590	-0.630355	-0.535223
C21	C	-3.941385	-0.557374	-0.535883
C22	C	-4.025117	-0.517346	-0.454946
C23	C	-4.141101	-0.550311	-0.373369
C24	C	-4.173318	-0.623295	-0.372718
C25	C	-4.089541	-0.663314	-0.453650
C26	C	-4.157984	-0.405379	-0.464880
C27	C	-4.125752	-0.332391	-0.465506
C28	C	-3.757934	-0.325073	-0.447685
C29	C	-3.790164	-0.398059	-0.447044
C30	C	-3.990195	-0.438209	-0.455649
C31	C	-3.953566	-0.091299	-0.720368
C32	C	-4.027366	-0.090607	-0.886726
C33	C	-4.243995	0.033903	-0.450947
C34	C	-4.188929	0.111580	-0.451644
C35	C	-4.181868	-0.089361	-0.188186
C36	C	-4.087308	-0.090049	-0.021826
H37	H	-3.905366	-0.662939	-0.601118
F38	F	-3.817961	-0.522298	-0.622710
F39	F	-3.545072	-0.282343	-0.438549
H40	H	-4.209285	-0.517721	-0.307462
H41	H	-3.653531	-0.424787	-0.439521
F42	F	-4.503100	-0.747664	-0.471385
F43	F	-3.743815	-0.732551	-0.434547
H44	H	-4.267748	-0.650131	-0.306293
H45	H	-4.320858	-0.438070	-0.471879
H46	H	-4.519596	-0.888278	-0.467892
F47	F	-4.304335	-0.297453	-0.475317
H48	H	-3.852257	-0.874998	-0.435514
