data_functionalizedCrystal
_audit_creation_method	'MofGen! by Chris Wilmer'
_symmetry_space_group_name_H-M	'P1'
_symmetry_Int_Tables_number	1
_symmetry_cell_setting	triclinic
loop_
_symmetry_equiv_pos_as_xyz
  x,y,z
_cell_length_a	13.897449
_cell_length_b	21.295417
_cell_length_c	13.897441
_cell_angle_alpha	90.036423
_cell_angle_beta	90.023394
_cell_angle_gamma	90.031333
loop_
_atom_site_label
_atom_site_type_symbol
_atom_site_fract_x
_atom_site_fract_y
_atom_site_fract_z
Zn1	Zn	1.474617	-0.250575	0.545411
Zn2	Zn	1.807950	0.082758	0.878744
Zn3	Zn	2.141283	0.416091	1.212077
Zn4	Zn	1.474475	-0.355854	0.384096
Zn5	Zn	1.807808	-0.022521	0.717429
Zn6	Zn	2.141141	0.310812	1.050762
Zn7	Zn	1.313306	-0.250604	0.384121
Zn8	Zn	1.646639	0.082729	0.717455
Zn9	Zn	1.979973	0.416062	1.050788
Zn10	Zn	1.313252	-0.355812	0.545341
Zn11	Zn	1.646585	-0.022479	0.878674
Zn12	Zn	1.979918	0.310855	1.212007
O13	O	1.393912	-0.303211	0.464742
O14	O	1.727246	0.030122	0.798075
O15	O	2.060579	0.363455	1.131409
O16	O	1.609580	-0.264546	0.524030
O17	O	1.942913	0.068787	0.857364
O18	O	2.276246	0.402120	1.190697
O19	O	1.453059	-0.341922	0.249117
O20	O	1.786392	-0.008589	0.582451
O21	O	2.119725	0.324744	0.915784
O22	O	1.334786	-0.162511	0.405557
O23	O	1.668120	0.170822	0.738890
O24	O	2.001453	0.504156	1.072224
O25	O	1.609475	-0.341894	0.405513
O26	O	1.942808	-0.008561	0.738846
O27	O	2.276142	0.324772	1.072179
O28	O	1.453301	-0.162490	0.524055
O29	O	1.786634	0.170844	0.857389
O30	O	2.119967	0.504177	1.190722
O31	O	1.334649	-0.264596	0.249136
O32	O	1.667982	0.068737	0.582470
O33	O	2.001315	0.402071	0.915803
O34	O	1.178317	-0.264555	0.405489
O35	O	1.511650	0.068778	0.738822
O36	O	1.844984	0.402112	1.072156
O37	O	1.334694	-0.341822	0.680332
O38	O	1.668027	-0.008489	1.013665
O39	O	2.001360	0.324844	1.346998
O40	O	1.178277	-0.341851	0.523936
O41	O	1.511610	-0.008517	0.857270
O42	O	1.844944	0.324816	1.190603
O43	O	1.453248	-0.264505	0.680383
O44	O	1.786581	0.068828	1.013716
O45	O	2.119915	0.402161	1.347050
O46	O	1.453006	-0.443938	0.405445
O47	O	1.786339	-0.110605	0.738778
O48	O	2.119673	0.222729	1.072112
O49	O	1.334556	-0.443907	0.523911
O50	O	1.667889	-0.110574	0.857244
O51	O	2.001223	0.222760	1.190578
C52	C	1.143298	-0.303202	0.464708
C53	C	1.476631	0.030132	0.798042
C54	C	1.809965	0.363465	1.131375
C55	C	1.036084	-0.303213	0.464717
C56	C	1.369417	0.030121	0.798050
C57	C	1.702751	0.363454	1.131384
C58	C	0.949014	-0.303215	0.464733
C59	C	1.282348	0.030118	0.798066
C60	C	1.615681	0.363452	1.131400
C61	C	0.839782	-0.303219	0.464762
C62	C	1.173115	0.030114	0.798096
C63	C	1.506448	0.363447	1.131429
C64	C	1.393786	-0.466763	0.464689
C65	C	1.727119	-0.133430	0.798022
C66	C	2.060452	0.199904	1.131355
C67	C	1.393820	-0.536731	0.464698
C68	C	1.727153	-0.203398	0.798031
C69	C	2.060487	0.129935	1.131365
C70	C	1.455552	-0.569593	0.403076
C71	C	1.788885	-0.236260	0.736409
C72	C	2.122218	0.097074	1.069743
C73	C	1.455597	-0.635336	0.403098
C74	C	1.788930	-0.302002	0.736431
C75	C	2.122263	0.031331	1.069764
C76	C	1.393893	-0.668214	0.464731
C77	C	1.727226	-0.334880	0.798065
C78	C	2.060560	-0.001547	1.131398
C79	C	1.332157	-0.635344	0.526365
C80	C	1.665490	-0.302011	0.859699
C81	C	1.998824	0.031323	1.193032
C82	C	1.332120	-0.569603	0.526349
C83	C	1.665454	-0.236269	0.859682
C84	C	1.998787	0.097064	1.193015
N85	N	1.309512	-0.771480	0.472074
N86	N	1.642845	-0.438147	0.805407
N87	N	1.976179	-0.104813	1.138740
N88	N	1.309550	-0.833931	0.472084
N89	N	1.642883	-0.500598	0.805417
N90	N	1.976216	-0.167265	1.138750
C91	C	1.394001	-0.866288	0.464787
C92	C	1.727334	-0.532955	0.798120
C93	C	2.060668	-0.199622	1.131453
N94	N	1.478416	-0.833835	0.457460
N95	N	1.811749	-0.500501	0.790794
N96	N	2.145082	-0.167168	1.124127
N97	N	1.478377	-0.771378	0.457445
N98	N	1.811710	-0.438044	0.790778
N99	N	2.145044	-0.104711	1.124112
C100	C	1.393926	-0.739499	0.464757
C101	C	1.727260	-0.406166	0.798090
C102	C	2.060593	-0.072832	1.131423
C103	C	1.455787	-0.970436	0.403185
C104	C	1.789120	-0.637102	0.736518
C105	C	2.122454	-0.303769	1.069851
C106	C	1.455834	-1.036179	0.403213
C107	C	1.789167	-0.702846	0.736547
C108	C	2.122501	-0.369513	1.069880
C109	C	1.332386	-1.036187	0.526476
C110	C	1.665719	-0.702853	0.859809
C111	C	1.999052	-0.369520	1.193143
C112	C	1.332347	-0.970444	0.526453
C113	C	1.665681	-0.637111	0.859786
C114	C	1.999014	-0.303777	1.193119
C115	C	1.394047	-0.937573	0.464802
C116	C	1.727380	-0.604239	0.798135
C117	C	2.060713	-0.270906	1.131468
C118	C	1.645505	-0.303222	0.464776
C119	C	1.978838	0.030112	0.798110
C120	C	2.312172	0.363445	1.131443
C121	C	1.752719	-0.303226	0.464791
C122	C	2.086052	0.030107	0.798124
C123	C	2.419386	0.363441	1.131458
C124	C	1.393981	-0.303156	0.716335
C125	C	1.727314	0.030178	1.049669
C126	C	2.060647	0.363511	1.383002
C127	C	1.394010	-0.303132	0.823549
C128	C	1.727343	0.030201	1.156883
C129	C	2.060676	0.363535	1.490216
C130	C	1.394065	-0.139021	0.464817
C131	C	1.727399	0.194312	0.798150
C132	C	2.060732	0.527646	1.131483
C133	C	1.394131	-0.069053	0.464849
C134	C	1.727464	0.264280	0.798182
C135	C	2.060797	0.597614	1.131515
C136	C	1.393900	-0.303221	0.214128
C137	C	1.727233	0.030112	0.547461
C138	C	2.060566	0.363445	0.880794
C139	C	1.394057	-0.303068	0.106914
C140	C	1.727391	0.030265	0.440248
C141	C	2.060724	0.363599	0.773581
C142	C	1.394036	-0.303090	1.019845
C143	C	1.727369	0.030244	1.353178
C144	C	2.060703	0.363577	1.686511
C145	C	1.394018	-0.303115	0.910612
C146	C	1.727352	0.030218	1.243945
C147	C	2.060685	0.363552	1.577279
H148	H	1.505793	-0.542831	0.352879
H149	H	1.839127	-0.209498	0.686212
H150	H	2.172460	0.123836	1.019545
H151	H	1.281850	-0.542846	0.576530
H152	H	1.615184	-0.209513	0.909863
H153	H	1.948517	0.123821	1.243197
H154	H	1.506030	-0.943671	0.352988
H155	H	1.839363	-0.610337	0.686321
H156	H	2.172696	-0.277004	1.019655
H157	H	1.505870	-0.662097	0.352918
H158	H	1.839203	-0.328764	0.686251
H159	H	2.172536	0.004570	1.019585
H160	H	1.281919	-0.662117	0.576550
H161	H	1.615253	-0.328784	0.909883
H162	H	1.948586	0.004549	1.243216
H163	H	1.282149	-1.062955	0.576664
H164	H	1.615483	-0.729622	0.909997
H165	H	1.948816	-0.396289	1.243330
H166	H	1.506109	-1.062935	0.353035
H167	H	1.839443	-0.729601	0.686368
H168	H	2.172776	-0.396268	1.019702
H169	H	1.282075	-0.943686	0.576627
H170	H	1.615409	-0.610353	0.909960
H171	H	1.948742	-0.277019	1.243294
