data_functionalizedCrystal
_audit_creation_method	'MofGen! by Chris Wilmer'
_symmetry_space_group_name_H-M	'P1'
_symmetry_Int_Tables_number	1
_symmetry_cell_setting	triclinic
loop_
_symmetry_equiv_pos_as_xyz
  x,y,z
_cell_length_a	10.489741
_cell_length_b	15.995350
_cell_length_c	8.965430
_cell_angle_alpha	89.999582
_cell_angle_beta	90.001511
_cell_angle_gamma	84.015774
loop_
_atom_site_label
_atom_site_type_symbol
_atom_site_fract_x
_atom_site_fract_y
_atom_site_fract_z
O1	O	0.164397	1.111977	-0.123912
O2	O	0.184699	0.868324	-0.123943
O3	O	-0.011127	0.995695	-0.123918
O4	O	0.360224	0.984606	-0.123937
O5	O	-0.011111	0.995683	0.124161
O6	O	0.184715	0.868313	0.124136
O7	O	0.164413	1.111965	0.124167
Cu8	Cu	0.174566	0.990138	0.146803
Cu9	Cu	0.174547	0.990152	-0.146579
O10	O	0.360240	0.984595	0.124142
C11	C	0.183868	0.837119	0.000093
C12	C	0.181352	0.744153	0.000081
C13	C	-0.058639	0.994852	0.000121
C14	C	-0.200234	0.992346	0.000118
C15	C	0.172315	0.406351	0.000113
C16	C	0.032851	0.452944	0.000674
C17	C	0.035368	0.549650	0.000104
C18	C	0.176797	0.573939	0.000098
C19	C	0.245577	0.533273	-0.141565
C20	C	0.242073	0.436616	-0.141673
C21	C	0.244973	0.436281	0.140439
C22	C	0.244940	0.533226	0.142301
C23	C	0.179338	0.668651	0.000085
C24	C	0.169778	0.311638	0.000116
C25	C	-0.267240	0.911304	0.000097
C26	C	-0.359890	0.949582	0.122417
C27	C	-0.359881	0.949612	-0.122169
C28	C	-0.291019	1.030657	0.122539
C29	C	-0.291000	1.030677	-0.122157
C30	C	-0.383624	1.069013	0.000193
C31	C	0.407752	0.985438	0.000100
C32	C	0.549346	0.987944	0.000093
C33	C	0.165244	1.143171	0.000128
C34	C	0.167761	1.236137	0.000130
N35	N	0.174578	0.990134	0.353152
N36	N	0.174524	0.990162	-0.352928
C37	C	0.265835	0.931719	0.549851
C38	C	0.150938	0.914092	0.450390
C39	C	0.289467	1.007725	0.450405
C40	C	0.059568	0.972496	0.549800
C41	C	0.198173	1.066163	0.549824
C42	C	0.083192	1.048566	0.450408
H43	H	-0.022890	0.434081	0.102266
H44	H	0.197792	0.561364	-0.246989
O45	O	0.127305	0.837348	0.398341
C46	C	0.223746	0.775925	0.449028
H47	H	0.313748	0.807036	0.476948
H48	H	0.246607	0.726851	0.358058
H49	H	0.188869	0.744220	0.553063
O50	O	-0.009160	1.107425	0.398704
C51	C	-0.130074	1.088588	0.449656
H52	H	-0.125520	1.018792	0.477438
H53	H	-0.204770	1.104578	0.358898
H54	H	-0.157709	1.127160	0.553829
O55	O	-0.254901	1.071658	0.245944
C56	C	-0.315739	1.154528	0.246256
H57	H	-0.343970	1.173926	0.127438
H58	H	-0.247212	1.198925	0.292536
H59	H	-0.405229	1.157744	0.319047
H60	H	-0.037635	0.957554	0.593278
O61	O	0.367976	0.552336	0.152246
C62	C	0.395246	0.603218	0.030308
H63	H	0.326920	0.593128	-0.065365
H64	H	0.498236	0.585585	-0.007754
H65	H	0.382635	0.672084	0.065437
O66	O	0.185152	0.565321	0.267485
C67	C	0.247151	0.528345	0.394435
H68	H	0.300791	0.465198	0.362642
H69	H	0.172856	0.518390	0.483736
H70	H	0.317938	0.571547	0.439585
O71	O	-0.443530	1.148622	0.000081
C72	C	-0.406824	1.191528	-0.127755
H73	H	-0.310711	1.160675	-0.169975
H74	H	-0.397639	1.259964	-0.098232
H75	H	-0.482439	1.188641	-0.218427
O76	O	0.369577	0.550764	-0.148065
C77	C	0.428407	0.513358	-0.276507
H78	H	0.374628	0.458531	-0.313349
H79	H	0.532141	0.489425	-0.250137
H80	H	0.426027	0.561869	-0.369896
O81	O	0.190272	0.411541	0.268406
C82	C	0.085477	0.366696	0.233032
H83	H	0.048936	0.385130	0.116619
H84	H	0.005501	0.382346	0.317752
H85	H	0.117250	0.296352	0.236123
O86	O	0.182423	0.414355	-0.268097
C87	C	0.267159	0.358498	-0.351948
H88	H	0.370216	0.367289	-0.320507
H89	H	0.251966	0.371986	-0.475895
H90	H	0.247814	0.291052	-0.327249
H91	H	0.347799	0.405140	0.141393
O92	O	-0.206942	0.831800	0.000489
C93	C	-0.241853	0.789372	0.129674
H94	H	-0.275244	0.837234	0.219370
H95	H	-0.155618	0.746818	0.172356
H96	H	-0.322923	0.749758	0.101758
O97	O	0.222284	1.142797	0.601915
C98	C	0.343581	1.161094	0.551332
H99	H	0.404880	1.100014	0.523434
H100	H	0.392533	1.195921	0.642356
H101	H	0.331416	1.202141	0.447305
O102	O	0.357850	0.872676	0.601700
C103	C	0.421659	0.830805	0.480292
H104	H	0.356955	0.836745	0.377860
H105	H	0.445810	0.761541	0.509062
H106	H	0.513806	0.860268	0.455781
O107	O	-0.396101	0.908587	-0.245500
C108	C	-0.336272	0.825458	-0.245020
H109	H	-0.246070	0.821982	-0.173409
H110	H	-0.309385	0.805554	-0.363976
H111	H	-0.404980	0.781618	-0.197289
O112	O	-0.396183	0.908753	0.245931
C113	C	-0.359416	0.950801	0.374699
H114	H	-0.276878	0.989045	0.346202
H115	H	-0.327381	0.902746	0.464607
H116	H	-0.444256	0.994610	0.417412
H117	H	0.386653	1.022602	0.406773
H118	H	-0.260442	1.064943	-0.225567
H119	H	-0.022646	0.433021	-0.100353
O120	O	-0.029343	0.583150	0.121126
C121	C	-0.157322	0.563735	0.115699
H122	H	-0.184062	0.550183	-0.004496
H123	H	-0.223568	0.619296	0.159703
H124	H	-0.167822	0.506029	0.187501
H125	H	0.344465	0.404985	-0.148106
O126	O	-0.029392	0.582589	-0.121310
C127	C	0.053850	0.624675	-0.211216
H128	H	0.136472	0.643494	-0.140371
H129	H	-0.000959	0.683365	-0.261140
H130	H	0.093345	0.581199	-0.304836
