data_functionalizedCrystal
_audit_creation_method	'MofGen! by Chris Wilmer'
_symmetry_space_group_name_H-M	'P1'
_symmetry_Int_Tables_number	1
_symmetry_cell_setting	triclinic
loop_
_symmetry_equiv_pos_as_xyz
  x,y,z
_cell_length_a	16.120530
_cell_length_b	16.120484
_cell_length_c	12.759393
_cell_angle_alpha	92.864008
_cell_angle_beta	87.079999
_cell_angle_gamma	90.167327
loop_
_atom_site_label
_atom_site_type_symbol
_atom_site_fract_x
_atom_site_fract_y
_atom_site_fract_z
Zn1	Zn	1.254505	-0.395558	-0.699367
Zn2	Zn	1.247340	-0.534629	-0.532099
Zn3	Zn	1.115436	-0.388538	-0.514373
Zn4	Zn	1.108357	-0.527511	-0.698406
O5	O	1.181409	-0.461559	-0.611061
O6	O	1.369920	-0.419923	-0.685000
O7	O	1.229807	-0.515291	-0.382727
O8	O	1.139845	-0.273106	-0.531897
O9	O	1.364657	-0.522098	-0.562108
O10	O	1.242018	-0.278264	-0.667811
O11	O	1.132898	-0.407958	-0.369704
O12	O	0.998131	-0.401056	-0.530965
O13	O	1.127779	-0.509966	-0.845554
O14	O	0.992930	-0.503159	-0.666173
O15	O	1.235153	-0.413021	-0.846261
O16	O	1.222943	-0.650048	-0.561176
O17	O	1.120832	-0.644818	-0.683361
C18	C	1.170365	-0.677606	-0.624112
C19	C	1.165716	-0.770035	-0.629736
C20	C	0.965358	-0.450574	-0.596542
C21	C	0.872929	-0.445895	-0.590356
C22	C	1.157233	-0.939265	-0.640025
C23	C	1.205735	-0.983020	-0.582125
C24	C	1.201015	-1.077185	-0.587850
C25	C	1.161952	-0.845091	-0.634301
C26	C	0.703702	-0.437332	-0.579071
C27	C	0.659954	-0.485848	-0.643132
C28	C	0.565790	-0.481083	-0.636853
C29	C	0.797874	-0.442095	-0.585349
C30	C	1.398304	-0.472588	-0.625638
C31	C	1.490732	-0.477287	-0.631850
C32	C	1.181476	-0.461482	-0.885094
C33	C	1.181504	-0.461450	-1.001871
C34	C	1.192520	-0.244670	-0.597984
C35	C	1.197255	-0.152245	-0.592411
C36	C	1.237418	-0.410962	-1.057102
C37	C	1.237434	-0.410927	-1.166825
C38	C	1.125619	-0.511874	-1.166076
C39	C	1.125600	-0.511904	-1.056354
C40	C	1.272197	-0.314330	-1.312863
C41	C	1.328124	-0.263850	-1.368099
C42	C	1.409911	-0.255220	-1.337180
C43	C	1.435787	-0.297083	-1.251029
C44	C	1.379864	-0.347569	-1.195800
C45	C	1.298066	-0.356183	-1.226715
C46	C	1.090845	-0.608503	-0.910315
C47	C	1.034926	-0.658994	-0.855084
C48	C	0.953137	-0.667633	-0.886001
C49	C	0.927263	-0.625784	-0.972156
C50	C	0.983182	-0.575293	-1.027387
C51	C	1.064971	-0.566653	-0.996463
C52	C	1.181394	-0.461578	-0.338094
C53	C	1.181539	-0.461384	-0.221315
H54	H	1.112167	-0.972524	-0.693889
O55	O	0.659654	-0.377578	-0.500166
H56	H	0.675518	-0.392593	-0.419628
H57	H	1.282937	-0.369876	-1.012744
O58	O	1.179066	-0.599195	-0.876967
H59	H	1.222583	-0.621109	-0.942687
O60	O	0.704016	-0.545609	-0.722025
H61	H	0.657441	-0.580413	-0.767990
O62	O	1.407757	-0.392715	-1.102878
H63	H	1.474026	-0.378233	-1.090652
O64	O	1.265433	-0.938965	-0.510766
H65	H	1.300239	-0.985546	-0.469237
O66	O	1.524009	-0.287783	-1.217697
H67	H	1.532607	-0.325379	-1.148522
O68	O	1.470231	-0.200764	-1.396740
H69	H	1.438497	-0.173099	-1.461830
O70	O	1.300216	-0.218684	-1.461004
H71	H	1.233940	-0.233148	-1.473212
O72	O	1.183976	-0.323629	-1.346199
H73	H	1.175386	-0.286047	-1.415389
H74	H	1.080105	-0.552955	-1.210450
H75	H	0.962109	-0.541218	-1.097540
O76	O	0.839045	-0.635089	-1.005508
H77	H	0.804506	-0.677220	-0.952621
H78	H	0.907611	-0.708755	-0.841027
O79	O	1.062827	-0.704133	-0.762155
H80	H	1.129092	-0.689635	-0.749921
