data_functionalizedCrystal
_audit_creation_method	'MofGen! by Chris Wilmer'
_symmetry_space_group_name_H-M	'P1'
_symmetry_Int_Tables_number	1
_symmetry_cell_setting	triclinic
loop_
_symmetry_equiv_pos_as_xyz
  x,y,z
_cell_length_a	10.685980
_cell_length_b	12.827892
_cell_length_c	10.685880
_cell_angle_alpha	94.339766
_cell_angle_beta	80.918858
_cell_angle_gamma	94.382190
loop_
_atom_site_label
_atom_site_type_symbol
_atom_site_fract_x
_atom_site_fract_y
_atom_site_fract_z
Zn1	Zn	1.995735	-0.344322	-0.866677
Zn2	Zn	1.979324	-0.506673	-0.654423
Zn3	Zn	1.767175	-0.344377	-0.638150
Zn4	Zn	1.783436	-0.531457	-0.850327
O5	O	1.881418	-0.431707	-0.752394
O6	O	2.171191	-0.355463	-0.852175
O7	O	1.937508	-0.474795	-0.474639
O8	O	1.797558	-0.198132	-0.668497
O9	O	2.159133	-0.474741	-0.696232
O10	O	1.965480	-0.198091	-0.836395
O11	O	1.781644	-0.355557	-0.462683
O12	O	1.591700	-0.379589	-0.652642
O13	O	1.825271	-0.516982	-1.030122
O14	O	1.603646	-0.517036	-0.808528
O15	O	1.981247	-0.379495	-1.042134
O16	O	1.953275	-0.656198	-0.680378
O17	O	1.809357	-0.674407	-0.824308
C18	C	1.551615	-0.451009	-0.727046
C19	C	1.410526	-0.459293	-0.716232
C20	C	1.881336	-0.703220	-0.752365
C21	C	1.881421	-0.819370	-0.752404
C22	C	1.964485	-0.871058	-0.835552
C23	C	1.964574	-0.991105	-0.835593
C24	C	2.212508	-0.412331	-0.777843
C25	C	2.353599	-0.404074	-0.788687
C26	C	1.906903	-0.450997	-1.083472
C27	C	1.917764	-0.459217	-1.224558
C28	C	1.881536	-0.159133	-0.752455
C29	C	1.881586	-0.042979	-0.752480
C30	C	1.856104	-0.412413	-0.422610
C31	C	1.845489	-0.403884	-0.281544
H32	H	1.351319	-0.512908	-0.645916
H33	H	2.035530	-0.826438	-0.906712
H34	H	1.987960	-0.512884	-1.283712
H35	H	1.775293	-0.350225	-1.222396
C36	C	1.433561	-0.331643	-0.883672
H37	H	1.378930	-0.298106	-0.927671
H38	H	1.489536	-0.371901	-0.942813
H39	H	1.481538	-0.280217	-0.839120
C40	C	2.060654	-1.051140	-0.931763
H41	H	2.112714	-1.003021	-0.983895
H42	H	2.016292	-1.099806	-0.983258
H43	H	2.112253	-1.087620	-0.887459
C44	C	1.785507	-0.982950	-0.656303
H45	H	1.733459	-1.031067	-0.604160
H46	H	1.733914	-0.946462	-0.700594
H47	H	1.829882	-0.934291	-0.604802
H48	H	1.810367	-0.863994	-0.681254
