data_functionalizedCrystal
_audit_creation_method	'MofGen! by Chris Wilmer'
_symmetry_space_group_name_H-M	'P1'
_symmetry_Int_Tables_number	1
_symmetry_cell_setting	triclinic
loop_
_symmetry_equiv_pos_as_xyz
  x,y,z
_cell_length_a	18.215407
_cell_length_b	16.959454
_cell_length_c	18.215399
_cell_angle_alpha	89.976304
_cell_angle_beta	89.980167
_cell_angle_gamma	90.020523
loop_
_atom_site_label
_atom_site_type_symbol
_atom_site_fract_x
_atom_site_fract_y
_atom_site_fract_z
Zn1	Zn	1.125097	-0.314680	-0.416138
Zn2	Zn	1.125015	-0.446866	-0.293080
Zn3	Zn	1.002029	-0.314706	-0.293085
Zn4	Zn	1.002005	-0.446822	-0.416105
O5	O	1.063537	-0.380768	-0.354602
O6	O	1.228070	-0.332222	-0.399825
O7	O	1.108677	-0.429364	-0.190097
O8	O	1.018398	-0.204092	-0.309424
O9	O	1.228010	-0.429339	-0.309416
O10	O	1.108815	-0.204073	-0.399830
O11	O	1.018319	-0.332267	-0.190100
O12	O	0.899042	-0.332224	-0.309392
O13	O	1.018358	-0.429264	-0.519094
O14	O	0.899024	-0.429289	-0.399775
O15	O	1.108792	-0.332180	-0.519118
O16	O	1.108654	-0.557471	-0.309385
O17	O	1.018279	-0.557438	-0.399770
C18	C	0.872330	-0.380755	-0.354581
C19	C	0.790531	-0.380768	-0.354589
C20	C	0.602348	-0.431389	-0.401593
C21	C	0.525489	-0.431392	-0.401602
C22	C	0.525478	-0.330162	-0.307628
C23	C	0.602335	-0.330156	-0.307623
C24	C	0.640768	-0.380774	-0.354604
C25	C	0.487052	-0.380782	-0.354618
C26	C	0.403718	-0.380785	-0.354628
C27	C	0.724107	-0.380771	-0.354596
C28	C	1.063475	-0.586135	-0.354590
C29	C	1.063516	-0.673991	-0.354609
C30	C	1.016547	-1.045480	-0.401661
C31	C	1.110731	-1.045454	-0.307618
C32	C	1.110706	-0.962908	-0.307611
C33	C	1.063599	-0.921644	-0.354629
C34	C	1.016518	-0.962926	-0.401654
C35	C	1.157781	-0.921619	-0.260582
C36	C	1.157756	-0.839068	-0.260573
C37	C	1.110653	-0.797803	-0.307595
C38	C	1.063570	-0.839091	-0.354622
C39	C	1.016464	-0.797827	-0.401640
C40	C	0.969384	-0.839113	-0.448672
C41	C	0.969414	-0.921661	-0.448676
C42	C	1.110623	-0.715255	-0.307591
C43	C	1.016435	-0.715273	-0.401634
C44	C	1.255489	-0.380783	-0.354624
C45	C	1.337288	-0.380789	-0.354633
C46	C	1.063581	-0.380714	-0.546555
C47	C	1.063601	-0.380691	-0.628354
C48	C	1.063619	-0.174600	-0.354631
C49	C	1.063653	-0.086744	-0.354643
C50	C	1.110707	-0.330092	-0.816562
C51	C	1.110716	-0.330069	-0.893420
C52	C	1.016546	-0.431167	-0.893384
C53	C	1.016534	-0.431186	-0.816527
C54	C	1.063619	-0.380649	-0.778118
C55	C	1.063639	-0.380608	-0.931834
C56	C	1.063649	-0.380583	-1.015168
C57	C	1.063609	-0.380672	-0.694779
C58	C	1.063534	-0.380766	-0.163396
C59	C	1.063658	-0.380566	-0.081597
H60	H	0.494211	-0.472606	-0.439866
H61	H	1.149079	-1.079055	-0.269334
H62	H	1.196091	-0.805459	-0.222279
C63	C	0.964729	-0.486803	-0.774236
N64	N	0.925709	-0.528690	-0.742383
C65	C	1.162518	-0.274454	-0.935705
N66	N	1.201538	-0.232562	-0.967554
H67	H	0.633638	-0.472604	-0.439850
C68	C	0.483194	-0.274489	-0.255947
N69	N	0.451347	-0.232557	-0.217018
H70	H	0.633617	-0.288934	-0.269359
H71	H	0.978077	-0.681682	-0.439924
C72	C	0.917568	-0.793712	-0.500390
N73	N	0.878542	-0.759513	-0.539343
C74	C	1.162407	-0.669844	-0.255861
N75	N	1.201417	-0.635642	-0.216896
H76	H	0.931084	-0.955284	-0.486966
C77	C	0.964759	-1.090894	-0.453390
N78	N	0.925750	-1.125101	-0.492351
H79	H	1.196127	-0.955222	-0.222297
H80	H	1.149044	-0.288940	-0.785291
H81	H	0.978214	-0.472314	-0.924667
