data_functionalizedCrystal
_audit_creation_method	'MofGen! by Chris Wilmer'
_symmetry_space_group_name_H-M	'P1'
_symmetry_Int_Tables_number	1
_symmetry_cell_setting	triclinic
loop_
_symmetry_equiv_pos_as_xyz
  x,y,z
_cell_length_a	16.625546
_cell_length_b	10.685972
_cell_length_c	10.686551
_cell_angle_alpha	98.409768
_cell_angle_beta	85.590142
_cell_angle_gamma	85.613069
loop_
_atom_site_label
_atom_site_type_symbol
_atom_site_fract_x
_atom_site_fract_y
_atom_site_fract_z
Zn1	Zn	-0.180768	-1.995753	-0.866726
Zn2	Zn	0.152565	-1.662419	-0.533392
Zn3	Zn	0.485898	-1.329086	-0.200059
Zn4	Zn	-0.326841	-1.979298	-0.654441
Zn5	Zn	0.006492	-1.645965	-0.321108
Zn6	Zn	0.339826	-1.312632	0.012226
Zn7	Zn	-0.203206	-1.767174	-0.638182
Zn8	Zn	0.130128	-1.433841	-0.304848
Zn9	Zn	0.463461	-1.100508	0.028485
Zn10	Zn	-0.326759	-1.783422	-0.850347
Zn11	Zn	0.006575	-1.450088	-0.517013
Zn12	Zn	0.339908	-1.116755	-0.183680
O13	O	-0.259393	-1.881412	-0.752424
O14	O	0.073940	-1.548078	-0.419090
O15	O	0.407273	-1.214745	-0.085757
O16	O	-0.190790	-2.171206	-0.852225
O17	O	0.142544	-1.837872	-0.518892
O18	O	0.475877	-1.504539	-0.185558
O19	O	-0.319865	-1.937474	-0.474651
O20	O	0.013468	-1.604141	-0.141317
O21	O	0.346802	-1.270807	0.192016
O22	O	-0.087390	-1.797582	-0.668548
O23	O	0.245943	-1.464249	-0.335215
O24	O	0.579276	-1.130916	-0.001882
O25	O	-0.298108	-2.159117	-0.696260
O26	O	0.035225	-1.825784	-0.362927
O27	O	0.368558	-1.492450	-0.029594
O28	O	-0.070906	-1.965518	-0.836459
O29	O	0.262428	-1.632184	-0.503125
O30	O	0.595761	-1.298851	-0.169792
O31	O	-0.229031	-1.781627	-0.462705
O32	O	0.104303	-1.448294	-0.129371
O33	O	0.437636	-1.114961	0.203962
O34	O	-0.228951	-1.591694	-0.652666
O35	O	0.104383	-1.258360	-0.319333
O36	O	0.437716	-0.925027	0.014000
O37	O	-0.297968	-1.825274	-1.030153
O38	O	0.035365	-1.491940	-0.696820
O39	O	0.368699	-1.158607	-0.363487
O40	O	-0.319725	-1.603631	-0.808543
O41	O	0.013609	-1.270297	-0.475210
O42	O	0.346942	-0.936964	-0.141877
O43	O	-0.190710	-1.981272	-1.042187
O44	O	0.142624	-1.647939	-0.708853
O45	O	0.475957	-1.314606	-0.375520
O46	O	-0.439669	-1.953228	-0.680379
O47	O	-0.106336	-1.619895	-0.347045
O48	O	0.226998	-1.286562	-0.013712
O49	O	-0.439609	-1.809319	-0.824310
O50	O	-0.106275	-1.475985	-0.490976
O51	O	0.227058	-1.142652	-0.157643
C52	C	-0.276764	-1.551603	-0.727064
C53	C	0.056569	-1.218270	-0.393731
C54	C	0.389903	-0.884937	-0.060397
C55	C	-0.284213	-1.410512	-0.716245
C56	C	0.049120	-1.077179	-0.382912
C57	C	0.382454	-0.743845	-0.049578
C58	C	-0.468893	-1.881288	-0.752361
C59	C	-0.135560	-1.547954	-0.419028
C60	C	0.197773	-1.214621	-0.085695
C61	C	-0.558510	-1.881354	-0.752386
C62	C	-0.225177	-1.548020	-0.419053
C63	C	0.108157	-1.214687	-0.085719
C64	C	-0.886667	-1.881585	-0.752535
C65	C	-0.553334	-1.548252	-0.419202
C66	C	-0.220000	-1.214919	-0.085869
C67	C	-0.795364	-1.881517	-0.752497
C68	C	-0.462030	-1.548184	-0.419164
C69	C	-0.128697	-1.214850	-0.085830
C70	C	-0.722591	-1.881469	-0.752460
C71	C	-0.389258	-1.548135	-0.419127
C72	C	-0.055925	-1.214802	-0.085793
C73	C	-0.631282	-1.881402	-0.752423
C74	C	-0.297949	-1.548069	-0.419090
C75	C	0.035384	-1.214736	-0.085756
C76	C	-0.049072	-1.881573	-0.752517
C77	C	0.284261	-1.548240	-0.419184
C78	C	0.617595	-1.214906	-0.085850
C79	C	0.040554	-1.881642	-0.752556
C80	C	0.373888	-1.548309	-0.419223
C81	C	0.707221	-1.214975	-0.085890
C82	C	-0.241827	-1.906921	-1.083516
C83	C	0.091506	-1.573587	-0.750183
C84	C	0.424840	-1.240254	-0.416850
C85	C	-0.234341	-1.917791	-1.224608
C86	C	0.098992	-1.584458	-0.891275
C87	C	0.432325	-1.251124	-0.557941
C88	C	-0.241950	-1.212508	-0.777877
C89	C	0.091383	-0.879174	-0.444544
C90	C	0.424716	-0.545841	-0.111211
C91	C	-0.234504	-1.353600	-0.788709
C92	C	0.098829	-1.020267	-0.455376
C93	C	0.432163	-0.686933	-0.122042
C94	C	-0.276829	-1.856075	-0.422625
C95	C	0.056504	-1.522742	-0.089292
C96	C	0.389837	-1.189408	0.244042
C97	C	-0.284075	-1.845451	-0.281553
C98	C	0.049258	-1.512117	0.051781
C99	C	0.382592	-1.178784	0.385114
H100	H	-0.186243	-1.412814	-0.859024
H101	H	0.147091	-1.079481	-0.525690
H102	H	0.480424	-0.746147	-0.192357
Br103	Br	-0.153828	-2.034902	-1.323258
Br104	Br	0.179506	-1.701569	-0.989924
Br105	Br	0.512839	-1.368235	-0.656591
H106	H	-0.332473	-1.351291	-0.645918
H107	H	0.000860	-1.017957	-0.312584
H108	H	0.334194	-0.684624	0.020749
H109	H	-0.332383	-1.775204	-1.222366
H110	H	0.000950	-1.441871	-0.889033
H111	H	0.334283	-1.108538	-0.555700
