data_functionalizedCrystal
_audit_creation_method	'MofGen! by Chris Wilmer'
_symmetry_space_group_name_H-M	'P1'
_symmetry_Int_Tables_number	1
_symmetry_cell_setting	triclinic
loop_
_symmetry_equiv_pos_as_xyz
  x,y,z
_cell_length_a	19.121275
_cell_length_b	19.121111
_cell_length_c	17.640968
_cell_angle_alpha	81.650773
_cell_angle_beta	99.301410
_cell_angle_gamma	90.071991
loop_
_atom_site_label
_atom_site_type_symbol
_atom_site_fract_x
_atom_site_fract_y
_atom_site_fract_z
Zn1	Zn	1.135481	0.255339	0.404642
Zn2	Zn	1.635481	0.755339	0.904642
Zn3	Zn	1.107160	0.393898	0.280465
Zn4	Zn	1.607160	0.893898	0.780465
Zn5	Zn	0.994939	0.271761	0.280012
Zn6	Zn	1.494939	0.771761	0.780012
Zn7	Zn	1.015269	0.365647	0.415667
Zn8	Zn	1.515269	0.865647	0.915667
O9	O	1.063212	0.321661	0.345196
O10	O	1.563212	0.821661	0.845196
O11	O	1.228998	0.278670	0.383745
O12	O	1.728998	0.778670	0.883745
O13	O	1.071913	0.396391	0.171664
O14	O	1.571913	0.896391	0.671664
O15	O	1.016926	0.172303	0.291741
O16	O	1.516926	0.672303	0.791741
O17	O	1.208191	0.380468	0.292513
O18	O	1.708191	0.880468	0.792513
O19	O	1.120181	0.160238	0.383306
O20	O	1.620181	0.660238	0.883306
O21	O	0.989465	0.306658	0.171331
O22	O	1.489465	0.806658	0.671331
O23	O	0.900362	0.279264	0.302431
O24	O	1.400362	0.779264	0.802431
O25	O	1.051576	0.332319	0.522945
O26	O	1.551576	0.832319	1.022945
O27	O	0.915299	0.348242	0.402096
O28	O	1.415299	0.848242	0.902096
O29	O	1.139895	0.251276	0.514846
O30	O	1.639895	0.751276	1.014846
O31	O	1.091627	0.487429	0.303203
O32	O	1.591627	0.987429	0.803203
O33	O	1.024115	0.466673	0.402536
O34	O	1.524115	0.966673	0.902536
C35	C	0.882608	0.312470	0.353411
C36	C	1.382608	0.812470	0.853411
C37	C	0.805348	0.308552	0.356945
C38	C	1.305348	0.808552	0.856945
C39	C	0.758203	0.359652	0.311027
C40	C	1.258203	0.859652	0.811027
C41	C	0.685611	0.355969	0.314358
C42	C	1.185611	0.855969	0.814358
C43	C	0.660164	0.301182	0.363602
C44	C	1.160164	0.801182	0.863602
C45	C	0.707314	0.250078	0.409525
C46	C	1.207314	0.750078	0.909525
C47	C	0.779906	0.253765	0.406198
C48	C	1.279906	0.753765	0.906198
C49	C	0.441527	0.287404	0.376031
C50	C	0.941527	0.787404	0.876031
C51	C	0.368930	0.283720	0.379353
C52	C	0.868930	0.783720	0.879353
C53	C	0.347231	0.389612	0.284187
C54	C	0.847231	0.889612	0.784187
C55	C	0.419825	0.393291	0.280861
C56	C	0.919825	0.893291	0.780861
C57	C	0.466969	0.342190	0.326786
C58	C	0.966969	0.842190	0.826786
C59	C	0.585963	0.297414	0.367006
C60	C	1.085963	0.797414	0.867006
C61	C	0.541170	0.345961	0.323386
C62	C	1.041170	0.845961	0.823386
C63	C	1.057026	0.502273	0.354131
C64	C	1.557026	1.002273	0.854131
C65	C	1.054448	0.579538	0.357976
C66	C	1.554448	1.079538	0.857976
C67	C	1.088429	0.626615	0.308105
C68	C	1.588429	1.126615	0.808105
C69	C	1.086009	0.699212	0.311726
C70	C	1.586009	1.199212	0.811726
C71	C	1.049604	0.724732	0.365215
C72	C	1.549604	1.224732	0.865215
C73	C	1.015622	0.677649	0.415091
C74	C	1.515622	1.177649	0.915091
C75	C	1.018047	0.605052	0.411473
C76	C	1.518047	1.105052	0.911473
C77	C	1.040528	0.943387	0.378727
C78	C	1.540528	1.443387	0.878727
C79	C	1.038104	1.015990	0.382339
C80	C	1.538104	1.515990	0.882339
C81	C	1.108492	1.037548	0.278975
C82	C	1.608492	1.537548	0.778975
C83	C	1.110910	0.964950	0.275359
C84	C	1.610910	1.464950	0.775359
C85	C	1.076931	0.917873	0.325238
C86	C	1.576931	1.417873	0.825238
C87	C	1.047128	0.798938	0.368916
C88	C	1.547128	1.298938	0.868916
C89	C	1.079412	0.843667	0.321540
C90	C	1.579412	1.343667	0.821540
C91	C	1.244522	0.330888	0.336950
C92	C	1.744522	0.830888	0.836950
C93	C	1.321785	0.334821	0.333436
C94	C	1.821785	0.834821	0.833436
C95	C	1.101163	0.286814	0.547879
C96	C	1.601163	0.786814	1.047879
C97	C	1.117335	0.271965	0.634250
C98	C	1.617335	0.771965	1.134250
C99	C	1.069441	1.140340	0.336253
C100	C	1.569441	1.640340	0.836253
C101	C	1.072085	1.063067	0.332468
C102	C	1.572085	1.563067	0.832468
C103	C	1.025452	0.356324	0.143298
C104	C	1.525452	0.856324	0.643298
C105	C	1.009421	0.370984	0.056911
C106	C	1.509421	0.870984	0.556911
C107	C	0.940634	0.434107	0.939400
C108	C	1.440634	0.934107	1.439400
C109	C	0.955846	0.420145	1.020558
C110	C	1.455846	0.920145	1.520558
C111	C	1.047804	0.335763	1.012114
C112	C	1.547804	0.835763	1.512114
C113	C	1.032598	0.349715	0.930953
C114	C	1.532598	0.849715	1.430953
C115	C	0.979013	0.398888	0.894603
C116	C	1.479013	0.898888	1.394603
C117	C	1.070977	0.314496	0.886157
C118	C	1.570977	0.814496	1.386157
C119	C	1.055775	0.328450	0.805003
C120	C	1.555775	0.828450	1.305003
C121	C	1.002194	0.377622	0.768647
C122	C	1.502194	0.877622	1.268647
C123	C	0.963811	0.412842	0.813450
C124	C	1.463811	0.912842	1.313450
C125	C	1.124565	0.265326	0.922508
C126	C	1.624565	0.765326	1.422508
C127	C	1.162944	0.230108	0.877712
C128	C	1.662944	0.730108	1.377712
C129	C	1.147739	0.244057	0.796557
C130	C	1.647739	0.744057	1.296557
C131	C	1.094158	0.293230	0.760200
C132	C	1.594158	0.793230	1.260200
C133	C	1.186122	0.208838	0.751754
C134	C	1.686122	0.708838	1.251754
C135	C	1.170920	0.222791	0.670601
C136	C	1.670920	0.722791	1.170601
C137	C	1.078956	0.307184	0.679047
C138	C	1.578956	0.807184	1.179047
H139	H	0.348214	0.239100	0.419451
H140	H	0.848214	0.739100	0.919451
F141	F	1.127172	0.599463	0.251170
F142	F	1.627172	1.099463	0.751170
H143	H	0.479905	0.245794	0.413428
H144	H	0.979905	0.745794	0.913428
H145	H	0.924589	0.448829	1.057029
H146	H	1.424589	0.948829	1.557029
H147	H	1.136157	1.075886	0.238367
H148	H	1.636157	1.575886	0.738367
H149	H	0.778916	0.404264	0.270924
H150	H	1.278916	0.904264	0.770924
F151	F	1.149667	0.937795	0.218437
F152	F	1.649667	1.437795	0.718437
H153	H	0.308839	0.431216	0.246798
H154	H	0.808839	0.931216	0.746798
H155	H	0.686590	0.205472	0.449624
H156	H	1.186590	0.705472	0.949624
F157	F	0.830081	0.199378	0.455071
F158	F	1.330081	0.699378	0.955071
H159	H	1.229755	0.168806	0.781363
H160	H	1.729755	0.668806	1.281363
F161	F	0.635437	0.410348	0.265472
F162	F	1.135437	0.910348	0.765472
H163	H	0.561893	0.390571	0.283296
H164	H	1.061893	0.890571	0.783296
F165	F	0.558873	0.239108	0.419415
F166	F	1.058873	0.739108	0.919415
F167	F	0.446899	0.451589	0.228429
F168	F	0.946899	0.951589	0.728429
H169	H	0.896984	0.474131	0.909801
H170	H	1.396984	0.974131	1.409801
H171	H	1.113680	0.737541	0.271115
H172	H	1.613680	1.237541	0.771115
F173	F	0.999346	1.043148	0.439264
F174	F	1.499346	1.543148	0.939264
H175	H	1.012859	0.905062	0.419339
H176	H	1.512859	1.405062	0.919339
F177	F	0.986017	0.392477	0.682275
F178	F	1.486017	0.892477	1.182275
H179	H	1.202171	0.194112	0.634126
H180	H	1.702171	0.694112	1.134126
H181	H	1.136943	0.253969	0.988589
H182	H	1.636943	0.753969	1.488589
F183	F	0.976882	0.704810	0.472022
F184	F	1.476882	1.204810	0.972022
H185	H	0.990377	0.566721	0.452085
H186	H	1.490377	1.066721	0.952085
F187	F	1.118159	0.816506	0.264618
F188	F	1.618159	1.316506	0.764618
F189	F	1.008383	0.826105	0.425840
F190	F	1.508383	1.326105	0.925840
F191	F	1.021919	0.359514	0.640356
F192	F	1.521919	0.859514	1.140356
F193	F	0.906774	0.465172	0.774759
F194	F	1.406774	0.965172	1.274759
H195	H	1.091435	0.295728	1.041721
H196	H	1.591435	0.795728	1.541721
H197	H	1.206575	0.190073	0.907319
H198	H	1.706575	0.690073	1.407319
