data_functionalizedCrystal
_audit_creation_method	'MofGen! by Chris Wilmer'
_symmetry_space_group_name_H-M	'P1'
_symmetry_Int_Tables_number	1
_symmetry_cell_setting	triclinic
loop_
_symmetry_equiv_pos_as_xyz
  x,y,z
_cell_length_a	10.723024
_cell_length_b	11.026607
_cell_length_c	9.483290
_cell_angle_alpha	98.149814
_cell_angle_beta	100.364002
_cell_angle_gamma	96.526943
loop_
_atom_site_label
_atom_site_type_symbol
_atom_site_fract_x
_atom_site_fract_y
_atom_site_fract_z
O1	O	1.672757	0.153432	-0.120874
O2	O	1.313127	0.169753	-0.120878
O3	O	1.463137	-0.015308	-0.120871
O4	O	1.522747	0.338493	-0.120881
O5	O	1.505597	0.018868	0.120904
O6	O	1.355587	0.203929	0.120897
O7	O	1.715217	0.187608	0.120902
Cu8	Cu	1.539279	0.198889	0.142975
Cu9	Cu	1.489065	0.158472	-0.142952
O10	O	1.565207	0.372669	0.120895
C11	C	1.287601	0.185653	0.000009
C12	C	1.148279	0.182099	0.000007
C13	C	0.932696	0.071709	0.000007
C14	C	1.076692	0.075380	0.000009
C15	C	1.473370	-0.043523	0.000015
C16	C	1.440585	-0.178510	0.000009
C17	C	1.531105	-0.251563	0.000008
C18	C	1.497223	-0.391080	0.000003
C19	C	1.740743	0.171707	0.000011
C20	C	1.880063	0.175260	0.000004
C21	C	1.554974	0.400883	0.000006
C22	C	1.587757	0.535870	0.000002
N23	N	1.574605	0.227315	0.344081
C24	C	1.528879	0.190506	0.583713
C25	C	1.499454	0.166846	0.416307
N26	N	1.453739	0.130046	0.655942
H27	H	0.941608	0.266632	0.000010
O28	O	1.304702	-0.232474	0.000005
H29	H	1.243546	-0.157740	-0.000002
H30	H	1.413330	0.097569	0.354216
O31	O	1.642964	0.282262	0.665945
H32	H	1.648183	0.286433	0.784528
H33	H	1.660718	0.296607	0.406171
O34	O	1.723648	-0.410188	-0.000013
H35	H	1.788146	-0.427046	0.098521
O36	O	0.851193	-0.049332	0.000016
H37	H	0.750882	-0.033221	0.000007
O38	O	1.136680	-0.042053	0.000025
H39	H	1.240368	-0.020740	0.000039
H40	H	1.633688	-0.210816	0.000019
O41	O	1.361332	-0.445025	0.000010
H42	H	1.356046	-0.546139	0.000020
O43	O	1.088297	0.299538	0.000019
H44	H	1.011806	0.289308	-0.098518
H45	H	1.367620	0.060773	0.593845
