data_functionalizedCrystal
_audit_creation_method	'MofGen! by Chris Wilmer'
_symmetry_space_group_name_H-M	'P1'
_symmetry_Int_Tables_number	1
_symmetry_cell_setting	triclinic
loop_
_symmetry_equiv_pos_as_xyz
  x,y,z
_cell_length_a	10.489716
_cell_length_b	27.732048
_cell_length_c	26.809956
_cell_angle_alpha	89.988846
_cell_angle_beta	89.976473
_cell_angle_gamma	83.585895
loop_
_atom_site_label
_atom_site_type_symbol
_atom_site_fract_x
_atom_site_fract_y
_atom_site_fract_z
O1	O	1.691113	0.068134	-0.041482
O2	O	1.319632	0.074547	-0.041484
O3	O	1.516910	0.001016	-0.041473
O4	O	1.493835	0.141665	-0.041492
O5	O	1.516821	0.001015	0.041486
O6	O	1.319543	0.074546	0.041475
O7	O	1.691024	0.068132	0.041478
Zn8	Zn	1.505269	0.071339	0.054648
Zn9	Zn	1.505387	0.071341	-0.054654
O10	O	1.493746	0.141663	0.041467
C11	C	1.272076	0.074064	-0.000005
C12	C	1.130509	0.072623	-0.000005
C13	C	1.030853	0.117714	-0.000013
C14	C	0.954510	0.093886	0.040896
C15	C	0.954605	0.093877	-0.040895
C16	C	1.056031	0.048814	0.040937
C17	C	1.056131	0.048811	-0.040891
C18	C	0.979838	0.024950	0.000028
C19	C	1.516381	-0.016995	0.000008
C20	C	1.514923	-0.070659	0.000012
C21	C	1.622319	-0.408799	-0.000013
C22	C	1.616907	-0.610493	-0.000020
O23	O	1.715114	-0.641132	-0.000041
N24	N	1.499930	-0.630351	-0.000020
C25	C	1.384296	-0.599782	-0.000022
O26	O	1.284675	-0.621301	-0.000028
C27	C	1.389709	-0.398090	-0.000019
C28	C	1.506695	-0.378235	-0.000013
C29	C	1.739295	-0.388944	-0.000008
C30	C	1.740646	-0.338523	-0.000004
C31	C	1.625022	-0.307958	-0.000004
C32	C	1.508046	-0.327814	-0.000009
C33	C	1.274077	-0.367522	-0.000024
C34	C	1.275441	-0.317096	-0.000025
C35	C	1.392426	-0.297241	-0.000019
C36	C	1.393774	-0.246829	-0.000005
N37	N	1.510751	-0.226971	-0.000005
C38	C	1.626376	-0.257536	-0.000004
C39	C	1.381463	-0.705674	-0.000023
C40	C	1.380109	-0.756097	-0.000023
C41	C	1.612721	-0.766804	-0.000022
C42	C	1.614073	-0.716380	-0.000018
C43	C	1.498441	-0.685816	-0.000023
C44	C	1.629205	-0.151649	0.000006
C45	C	1.630547	-0.101223	0.000012
C46	C	1.397936	-0.090521	0.000008
C47	C	1.396594	-0.140942	0.000004
C48	C	1.512239	-0.171505	0.000001
O49	O	1.295620	-0.216161	0.000011
O50	O	1.725982	-0.236008	-0.000010
C51	C	1.620967	-0.459220	-0.000018
C52	C	1.503991	-0.479075	-0.000022
C53	C	1.388367	-0.448511	-0.000023
C54	C	1.502638	-0.529498	-0.000022
C55	C	1.618262	-0.560063	-0.000022
C56	C	1.735240	-0.540205	-0.000022
C57	C	1.736592	-0.489785	-0.000017
C58	C	1.271389	-0.468369	-0.000023
C59	C	1.270047	-0.518790	-0.000027
C60	C	1.385671	-0.549355	-0.000027
C61	C	1.738580	0.068615	-0.000003
C62	C	1.880147	0.070057	-0.000006
C63	C	1.494275	0.159674	-0.000015
C64	C	1.495733	0.213338	-0.000023
N65	N	1.505199	0.071337	0.129244
N66	N	1.505467	0.071338	-0.129250
C67	C	1.417944	0.103884	0.526122
C68	C	1.417878	0.103884	0.317245
O69	O	1.343530	0.131550	0.290240
N70	N	1.505243	0.071336	0.291123
C71	C	1.592626	0.038784	0.317223
O72	O	1.666926	0.011097	0.290211
C73	C	1.592686	0.038782	0.526100
C74	C	1.505323	0.071335	0.552219
C75	C	1.330588	0.136434	0.552242
C76	C	1.330610	0.136436	0.604458
C77	C	1.417989	0.103887	0.630555
C78	C	1.505345	0.071337	0.604435
C79	C	1.680061	0.006228	0.552199
C80	C	1.680066	0.006230	0.604421
C81	C	1.592704	0.038783	0.630541
C82	C	1.592746	0.038790	0.682748
N83	N	1.505380	0.071337	0.708871
C84	C	1.418002	0.103886	0.682774
C85	C	1.592590	0.038788	0.207560
C86	C	1.592577	0.038789	0.155341
C87	C	1.417827	0.103888	0.155366
C88	C	1.417847	0.103889	0.207586
C89	C	1.505225	0.071335	0.233682
C90	C	1.418055	0.103887	0.792432
C91	C	1.418089	0.103887	0.844653
C92	C	1.592834	0.038786	0.844623
C93	C	1.592806	0.038788	0.792406
C94	C	1.505406	0.071340	0.766312
O95	O	1.667045	0.011134	0.709785
O96	O	1.343695	0.131562	0.709794
C97	C	1.417922	0.103882	0.473906
C98	C	1.505279	0.071332	0.447787
C99	C	1.592657	0.038784	0.473883
C100	C	1.505266	0.071333	0.395568
C101	C	1.417887	0.103882	0.369471
C102	C	1.330522	0.136430	0.395593
C103	C	1.330544	0.136431	0.447810
C104	C	1.680023	0.006236	0.447761
C105	C	1.679994	0.006238	0.395545
C106	C	1.592616	0.038786	0.369448
H107	H	0.957133	-0.014301	0.000057
H108	H	1.346682	0.130391	0.134110
C109	C	1.061873	0.170699	0.000035
N110	N	1.085241	0.210607	0.000073
C111	C	0.894573	0.119602	0.087608
N112	N	0.849428	0.138974	0.122790
C113	C	1.116073	0.023115	-0.087609
N114	N	1.161217	0.003763	-0.122801
C115	C	1.776138	-0.029577	0.476460
N116	N	1.848537	-0.056555	0.498074
C117	C	1.115622	0.023118	0.087710
N118	N	1.160508	0.003766	0.122940
H119	H	0.910321	0.112922	-0.075475
H120	H	1.725814	-0.085060	0.000018
C121	C	1.321975	0.139698	0.873381
N122	N	1.249580	0.166668	0.895018
H123	H	1.663747	0.012278	0.228803
C124	C	1.756421	-0.185261	0.000007
N125	N	1.852240	-0.210578	0.000012
C126	C	1.688692	0.002981	0.126615
N127	N	1.761083	-0.023993	0.104981
H128	H	1.751199	-0.020280	0.530940
H129	H	1.177232	-0.443488	-0.000024
C130	C	1.776193	-0.029582	0.633123
N131	N	1.848598	-0.056555	0.654741
C132	C	1.739908	-0.800435	-0.000025
N133	N	1.835700	-0.825768	-0.000032
H134	H	1.259378	0.162934	0.374337
C135	C	1.869341	-0.316690	-0.000003
N136	N	1.966280	-0.300248	-0.000005
C137	C	1.141345	-0.540624	-0.000032
N138	N	1.044409	-0.557068	-0.000041
C139	C	1.321933	0.139704	0.763736
N140	N	1.249545	0.166687	0.742123
C141	C	1.234489	0.172241	0.633183
N142	N	1.162080	0.199210	0.654815
H143	H	1.833455	-0.413825	-0.000010
H144	H	1.709333	-0.700218	-0.000014
C145	C	1.254249	-0.672059	-0.000028
N146	N	1.158430	-0.646742	-0.000030
H147	H	1.178816	-0.383679	-0.000032
C148	C	1.234522	0.172269	0.523544
N149	N	1.162189	0.199274	0.501932
H150	H	1.284848	-0.772259	-0.000019
H151	H	1.259405	0.162939	0.469072
H152	H	1.663956	0.012285	0.771139
H153	H	1.303798	-0.065626	0.000010
C154	C	1.148232	-0.283478	-0.000028
N155	N	1.052419	-0.258158	-0.000028
C156	C	1.267905	-0.162783	0.000002
N157	N	1.170974	-0.179230	-0.000006
H158	H	1.831853	-0.473623	-0.000013
H159	H	1.829385	-0.565100	-0.000019
H160	H	1.346709	0.130396	0.228850
C161	C	1.688941	0.002982	0.873339
N162	N	1.761322	-0.023988	0.894970
H163	H	1.751147	-0.020270	0.374282
