data_functionalizedCrystal
_audit_creation_method	'MofGen! by Chris Wilmer'
_symmetry_space_group_name_H-M	'P1'
_symmetry_Int_Tables_number	1
_symmetry_cell_setting	triclinic
loop_
_symmetry_equiv_pos_as_xyz
  x,y,z
_cell_length_a	10.540539
_cell_length_b	10.540510
_cell_length_c	9.016244
_cell_angle_alpha	90.004306
_cell_angle_beta	89.999699
_cell_angle_gamma	95.480599
loop_
_atom_site_label
_atom_site_type_symbol
_atom_site_fract_x
_atom_site_fract_y
_atom_site_fract_z
O1	O	1.685864	-0.178907	-0.123261
O2	O	1.316449	-0.195763	-0.123279
O3	O	1.509604	-0.002626	-0.123269
O4	O	1.492709	-0.372044	-0.123271
O5	O	1.509596	-0.002612	0.123411
O6	O	1.316441	-0.195749	0.123402
O7	O	1.685856	-0.178892	0.123419
Cu8	Cu	1.501147	-0.187319	0.145934
Cu9	Cu	1.501157	-0.187336	-0.145794
O10	O	1.492701	-0.372029	0.123410
C11	C	1.269142	-0.194492	0.000059
C12	C	1.128194	-0.190710	0.000052
C13	C	1.508341	0.044685	0.000068
C14	C	1.504574	0.185635	0.000059
N15	N	1.501150	-0.187306	0.351121
C16	C	0.944783	-0.045791	0.000629
C17	C	1.091401	-0.049624	0.000057
C18	C	1.066519	-0.258614	-0.140809
C19	C	0.919975	-0.253799	-0.140912
C20	C	0.919477	-0.256653	0.139610
C21	C	1.066459	-0.257952	0.141456
C22	C	1.733163	-0.180164	0.000078
C23	C	1.874110	-0.183946	0.000075
C24	C	1.493964	-0.419340	0.000069
C25	C	1.497731	-0.560290	0.000068
C26	C	1.638758	0.403090	0.000630
C27	C	1.642776	0.256495	0.000067
C28	C	1.433833	0.230385	-0.140808
C29	C	1.430794	0.377146	-0.140919
C30	C	1.427906	0.376971	0.139603
C31	C	1.434461	0.230630	0.141458
N32	N	1.501165	-0.187339	-0.350980
C33	C	1.604861	-0.084347	0.586112
C34	C	1.604581	-0.083954	0.414221
C35	C	1.368448	-0.157175	0.413539
C36	C	1.369065	-0.156453	0.585484
C37	C	1.528978	-0.320756	0.585625
C38	C	1.531973	-0.319884	0.413670
H39	H	1.134017	0.003805	0.101034
H40	H	1.332091	0.182996	-0.146051
H41	H	1.107423	-0.208346	0.245666
H42	H	1.289374	-0.230138	0.372668
C43	C	1.581025	0.048622	0.644492
N44	N	1.563065	0.148773	0.688464
H45	H	1.692597	0.445051	0.101654
C46	C	1.426844	-0.424319	0.640597
N47	N	1.349914	-0.502313	0.682012
H48	H	1.090674	-0.360812	0.149961
H49	H	0.891774	-0.203624	-0.246207
H50	H	1.482967	0.199522	-0.245636
H51	H	0.872239	-0.358558	0.140561
H52	H	1.471821	0.419159	0.246381
C53	C	1.711084	0.461850	-0.135071
N54	N	1.765556	0.506110	-0.237284
C55	C	1.124055	-0.194899	-0.282436
N56	N	1.167388	-0.146900	-0.389106
C57	C	0.906156	0.029517	0.137099
N58	N	0.877051	0.086242	0.239891
C59	C	1.737796	-0.108422	0.357203
N60	N	1.838141	-0.126843	0.314264
C61	C	1.503970	0.191941	0.282249
N62	N	1.556317	0.162779	0.388291
H63	H	1.698127	0.227156	0.101044
C64	C	1.334813	-0.027151	0.355401
N65	N	1.309488	0.070789	0.311618
H66	H	1.698455	0.228083	-0.101081
C67	C	1.291154	0.408215	-0.149591
N68	N	1.185979	0.431611	-0.156137
H69	H	1.088861	-0.362224	-0.146051
C70	C	1.261600	-0.253845	0.641709
N71	N	1.180651	-0.327192	0.684051
C72	C	1.287733	0.406915	0.140895
N73	N	1.182161	0.429482	0.141861
C74	C	0.903969	0.029193	-0.135066
N75	N	0.873222	0.085669	-0.237271
C76	C	1.336194	-0.024954	0.639688
N77	N	1.311437	0.074094	0.680506
H78	H	0.871995	-0.355266	-0.147306
C79	C	1.496133	0.431472	-0.283156
N80	N	1.545357	0.472386	-0.390289
C81	C	1.657006	-0.359477	0.644186
N82	N	1.753443	-0.388626	0.688294
H83	H	1.333563	0.181564	0.149959
H84	H	1.629600	-0.342721	0.372874
C85	C	1.738521	-0.108452	0.641972
N86	N	1.839196	-0.126608	0.684060
H87	H	0.887932	-0.210988	0.246382
C88	C	1.436673	-0.428398	0.355636
N89	N	1.364884	-0.510129	0.311923
H90	H	1.586686	0.015034	0.373102
H91	H	1.133155	0.004170	-0.101093
