data_functionalizedCrystal
_audit_creation_method	'MofGen! by Chris Wilmer'
_symmetry_space_group_name_H-M	'P1'
_symmetry_Int_Tables_number	1
_symmetry_cell_setting	triclinic
loop_
_symmetry_equiv_pos_as_xyz
  x,y,z
_cell_length_a	12.759401
_cell_length_b	18.050589
_cell_length_c	12.759393
_cell_angle_alpha	89.969329
_cell_angle_beta	89.980163
_cell_angle_gamma	90.029746
loop_
_atom_site_label
_atom_site_type_symbol
_atom_site_fract_x
_atom_site_fract_y
_atom_site_fract_z
Zn1	Zn	1.606156	-0.295585	-0.594027
Zn2	Zn	2.106156	0.204415	-0.094027
Zn3	Zn	1.606009	-0.419795	-0.418350
Zn4	Zn	2.106009	0.080205	0.081650
Zn5	Zn	1.430458	-0.295627	-0.418362
Zn6	Zn	1.930458	0.204373	0.081638
Zn7	Zn	1.430405	-0.419741	-0.593987
Zn8	Zn	1.930405	0.080259	-0.093987
O9	O	1.518257	-0.357687	-0.506182
O10	O	2.018257	0.142313	-0.006182
O11	O	1.753158	-0.312067	-0.570735
O12	O	2.253158	0.187933	-0.070735
O13	O	1.582683	-0.403364	-0.271331
O14	O	2.082683	0.096636	0.228669
O15	O	1.453849	-0.191697	-0.441686
O16	O	1.953849	0.308303	0.058314
O17	O	1.753050	-0.403324	-0.441666
O18	O	2.253050	0.096676	0.058334
O19	O	1.582933	-0.191666	-0.570746
O20	O	2.082933	0.308334	-0.070746
O21	O	1.453706	-0.312139	-0.271339
O22	O	1.953706	0.187861	0.228661
O23	O	1.283430	-0.312086	-0.441648
O24	O	1.783430	0.187914	0.058352
O25	O	1.453759	-0.403231	-0.741014
O26	O	1.953759	0.096769	-0.241014
O27	O	1.283391	-0.403272	-0.570679
O28	O	1.783391	0.096728	-0.070679
O29	O	1.582882	-0.312014	-0.741043
O30	O	2.082882	0.187986	-0.241043
O31	O	1.582631	-0.523713	-0.441627
O32	O	2.082631	-0.023713	0.058373
O33	O	1.453616	-0.523673	-0.570667
O34	O	1.953616	-0.023673	-0.070667
C35	C	1.245290	-0.357678	-0.506161
C36	C	1.745290	0.142322	-0.006161
C37	C	1.128513	-0.357692	-0.506177
C38	C	1.628513	0.142308	-0.006177
C39	C	1.073659	-0.405245	-0.573257
C40	C	1.573659	0.094755	-0.073257
C41	C	0.963935	-0.405248	-0.573278
C42	C	1.463935	0.094752	-0.073278
C43	C	0.963930	-0.310143	-0.439129
C44	C	1.463930	0.189857	0.060871
C45	C	1.073652	-0.310137	-0.439114
C46	C	1.573652	0.189863	0.060886
C47	C	1.518131	-0.550639	-0.506164
C48	C	2.018131	-0.050639	-0.006164
C49	C	1.518172	-0.633185	-0.506192
C50	C	2.018172	-0.133185	-0.006192
C51	C	1.448083	-0.832641	-0.576339
C52	C	1.948083	-0.332641	-0.076339
C53	C	1.422469	-0.882090	-0.480470
C54	C	1.922469	-0.382090	0.019530
C55	C	1.518276	-0.784315	-0.506206
C56	C	2.018276	-0.284315	-0.006206
C57	C	1.543941	-0.881948	-0.602085
C58	C	2.043941	-0.381948	-0.102085
C59	C	1.518373	-0.930300	-0.506227
C60	C	2.018373	-0.430300	-0.006227
C61	C	1.492611	-0.832677	-0.410286
C62	C	1.992611	-0.332677	0.089714
C63	C	1.614128	-0.832531	-0.531966
C64	C	2.114128	-0.332531	-0.031966
C65	C	1.588551	-0.881958	-0.436031
C66	C	2.088551	-0.381958	0.063969
C67	C	1.518217	-0.700217	-0.506194
C68	C	2.018217	-0.200217	-0.006194
C69	C	1.518432	-1.014397	-0.506228
C70	C	2.018432	-0.514397	-0.006228
C71	C	1.792291	-0.357697	-0.506203
C72	C	2.292291	0.142303	-0.006203
C73	C	1.909067	-0.357701	-0.506212
C74	C	2.409067	0.142299	-0.006212
C75	C	1.518331	-0.357612	-0.780215
C76	C	2.018331	0.142388	-0.280215
C77	C	1.518362	-0.357580	-0.896992
C78	C	2.018362	0.142420	-0.396992
C79	C	1.518413	-0.163981	-0.506222
C80	C	2.018413	0.336019	-0.006222
C81	C	1.518480	-0.081436	-0.506239
C82	C	2.018480	0.418564	-0.006239
C83	C	1.451228	-0.310070	-0.951858
C84	C	1.951228	0.189930	-0.451858
C85	C	1.451253	-0.310047	-1.061582
C86	C	1.951253	0.189953	-0.561582
C87	C	1.585554	-0.405046	-1.061564
C88	C	2.085554	0.094954	-0.561564
C89	C	1.585523	-0.405072	-0.951842
C90	C	2.085523	0.094928	-0.451842
C91	C	1.518245	-0.357708	-0.233214
C92	C	2.018245	0.142292	0.266786
C93	C	1.518417	-0.357531	-0.116438
C94	C	2.018417	0.142469	0.383562
H95	H	0.919277	-0.443969	-0.627904
H96	H	1.419277	0.056031	-0.127904
H97	H	1.640194	-0.443764	-0.907169
H98	H	2.140194	0.056236	-0.407169
H99	H	1.341455	-0.903875	-0.458702
H100	H	1.841455	-0.403875	0.041298
H101	H	1.640235	-0.443713	-1.106237
H102	H	2.140235	0.056287	-0.606237
O103	O	0.904737	-0.258869	-0.366792
O104	O	1.404737	0.241131	0.133208
H105	H	0.925819	-0.200592	-0.384946
H106	H	1.425819	0.299408	0.115054
O107	O	1.132842	-0.456519	-0.645602
O108	O	1.632842	0.043481	-0.145602
H109	H	1.111740	-0.514794	-0.627464
H110	H	1.611740	-0.014794	-0.127464
O111	O	1.132829	-0.258857	-0.366744
O112	O	1.632829	0.241143	0.133256
H113	H	1.076249	-0.225801	-0.320097
H114	H	1.576249	0.274199	0.179903
O115	O	1.378856	-0.258794	-1.120759
O116	O	1.878856	0.241206	-0.620759
H117	H	1.325376	-0.292012	-1.170730
H118	H	1.825376	0.207988	-0.670730
O119	O	1.369348	-0.803941	-0.654788
O120	O	1.869348	-0.303941	-0.154788
H121	H	1.289882	-0.823791	-0.633155
H122	H	1.789882	-0.323791	-0.133155
O123	O	1.463775	-0.804138	-0.302859
O124	O	1.963775	-0.304138	0.197141
H125	H	1.463919	-0.742650	-0.303705
H126	H	1.963919	-0.242650	0.196295
H127	H	1.647952	-0.903475	-0.376662
H128	H	2.147952	-0.403475	0.123338
H129	H	1.695124	-0.810748	-0.553780
H130	H	2.195124	-0.310748	-0.053780
H131	H	1.565611	-0.903591	-0.683161
H132	H	2.065611	-0.403591	-0.183161
H133	H	1.396541	-0.271399	-0.907202
H134	H	1.896541	0.228601	-0.407202
