data_functionalizedCrystal
_audit_creation_method	'MofGen! by Chris Wilmer'
_symmetry_space_group_name_H-M	'P1'
_symmetry_Int_Tables_number	1
_symmetry_cell_setting	triclinic
loop_
_symmetry_equiv_pos_as_xyz
  x,y,z
_cell_length_a	19.188905
_cell_length_b	11.026607
_cell_length_c	9.482900
_cell_angle_alpha	78.599815
_cell_angle_beta	80.736396
_cell_angle_gamma	84.139714
loop_
_atom_site_label
_atom_site_type_symbol
_atom_site_fract_x
_atom_site_fract_y
_atom_site_fract_z
O1	O	0.953938	-0.132168	-0.121138
O2	O	0.753222	-0.152588	-0.121089
O3	O	0.836944	0.034183	-0.121104
O4	O	0.870215	-0.318939	-0.121123
O5	O	0.819958	-0.003906	0.120691
O6	O	0.736235	-0.190677	0.120707
O7	O	0.936951	-0.170257	0.120657
Cu8	Cu	0.835042	-0.183945	0.142760
Cu9	Cu	0.855131	-0.138900	-0.143191
O10	O	0.853229	-0.357028	0.120673
C11	C	0.718633	-0.170978	-0.000185
C12	C	0.640875	-0.169012	-0.000165
C13	C	0.613623	-0.147303	-0.131972
C14	C	0.540563	-0.145436	-0.131990
C15	C	0.494757	-0.165255	-0.000194
C16	C	0.522017	-0.186974	0.131630
C17	C	0.595077	-0.188852	0.131644
N18	N	0.369675	-0.108751	0.097893
N19	N	0.300272	-0.106963	0.097871
C20	C	0.274633	-0.159600	-0.000229
N21	N	0.321018	-0.214075	-0.098327
N22	N	0.390428	-0.215857	-0.098309
C23	C	0.415535	-0.163222	-0.000195
C24	C	0.168161	-0.135868	-0.132064
C25	C	0.095100	-0.134010	-0.132076
C26	C	0.076554	-0.175536	0.131548
C27	C	0.149615	-0.177406	0.131556
C28	C	0.195414	-0.157565	-0.000254
C29	C	0.822313	0.060316	-0.000207
C30	C	0.804017	0.194930	-0.000207
C31	C	0.971540	-0.151867	-0.000250
C32	C	1.049298	-0.153831	-0.000279
C33	C	0.867860	-0.383160	-0.000228
C34	C	0.886157	-0.517773	-0.000237
N35	N	0.820918	-0.215626	0.343883
C36	C	0.854538	0.269014	-0.000222
C37	C	0.835629	0.408145	-0.000223
N38	N	0.869260	-0.107209	-0.344314
C39	C	0.850959	-0.148238	0.416076
C40	C	0.839214	-0.174607	0.583496
H41	H	0.617264	-0.206532	0.238980
H42	H	0.885372	-0.071018	0.353942
H43	H	0.911789	0.229436	-0.000227
H44	H	0.205453	-0.119726	-0.239391
H45	H	0.518370	-0.127760	-0.239326
H46	H	0.650909	-0.131147	-0.239302
H47	H	0.804793	-0.251823	0.645627
H48	H	0.778374	0.447717	-0.000218
H49	H	0.786499	-0.292837	0.406019
H50	H	0.943421	0.442676	-0.000360
H51	H	0.903674	-0.029985	0.593555
H52	H	0.072914	-0.116339	-0.239413
H53	H	0.484717	-0.203114	0.238939
H54	H	0.746765	0.234508	-0.000203
H55	H	0.171803	-0.195075	0.238888
H56	H	0.039260	-0.191681	0.238859
