data_functionalizedCrystal
_audit_creation_method	'MofGen! by Chris Wilmer'
_symmetry_space_group_name_H-M	'P1'
_symmetry_Int_Tables_number	1
_symmetry_cell_setting	triclinic
loop_
_symmetry_equiv_pos_as_xyz
  x,y,z
_cell_length_a	14.908571
_cell_length_b	15.297327
_cell_length_c	14.908694
_cell_angle_alpha	103.447437
_cell_angle_beta	83.592472
_cell_angle_gamma	96.991395
loop_
_atom_site_label
_atom_site_type_symbol
_atom_site_fract_x
_atom_site_fract_y
_atom_site_fract_z
Zn1	Zn	1.335576	-0.474947	-0.669165
Zn2	Zn	1.835576	0.025053	-0.169165
Zn3	Zn	1.303555	-0.616576	-0.540958
Zn4	Zn	1.803555	-0.116576	-0.040958
Zn5	Zn	1.178500	-0.456494	-0.506084
Zn6	Zn	1.678500	0.043506	-0.006084
Zn7	Zn	1.160998	-0.616506	-0.683545
Zn8	Zn	1.660998	-0.116506	-0.183545
O9	O	1.244657	-0.541131	-0.599938
O10	O	1.744657	-0.041131	-0.099938
O11	O	1.456726	-0.501486	-0.660736
O12	O	1.956726	-0.001486	-0.160736
O13	O	1.280889	-0.587648	-0.408409
O14	O	1.780889	-0.087648	0.091591
O15	O	1.220062	-0.332704	-0.507104
O16	O	1.720062	0.167296	-0.007104
O17	O	1.433200	-0.605541	-0.566542
O18	O	1.933200	-0.105541	-0.066542
O19	O	1.335465	-0.346261	-0.626919
O20	O	1.835465	0.153739	-0.126919
O21	O	1.189012	-0.470037	-0.382786
O22	O	1.689012	0.029963	0.117214
O23	O	1.050780	-0.469969	-0.521047
O24	O	1.550780	0.030031	-0.021047
O25	O	1.190233	-0.605421	-0.809561
O26	O	1.690233	-0.105421	-0.309561
O27	O	1.037922	-0.587529	-0.651427
O28	O	1.537922	-0.087529	-0.151427
O29	O	1.318495	-0.501418	-0.798996
O30	O	1.818495	-0.001418	-0.298996
O31	O	1.263919	-0.742805	-0.580486
O32	O	1.763919	-0.242805	-0.080486
O33	O	1.159183	-0.742754	-0.685244
O34	O	1.659183	-0.242754	-0.185244
C35	C	1.011837	-0.526740	-0.584014
C36	C	1.511837	-0.026740	-0.084014
C37	C	0.912233	-0.520606	-0.577226
C38	C	1.412233	-0.020606	-0.077226
C39	C	0.711688	-0.631665	-0.700109
C40	C	1.211688	-0.131665	-0.200109
C41	C	0.618101	-0.625905	-0.693736
C42	C	1.118101	-0.125905	-0.193736
C43	C	0.631470	-0.503322	-0.558110
C44	C	1.131470	-0.003322	-0.058110
C45	C	0.725057	-0.509082	-0.564484
C46	C	1.225057	-0.009082	-0.064484
C47	C	0.765163	-0.573257	-0.635485
C48	C	1.265163	-0.073257	-0.135485
C49	C	0.858751	-0.579020	-0.641854
C50	C	1.358751	-0.079020	-0.141854
C51	C	0.872119	-0.456434	-0.506233
C52	C	1.372119	0.043566	-0.006233
C53	C	0.778532	-0.450674	-0.499859
C54	C	1.278532	0.049326	0.000141
C55	C	1.206202	-0.775514	-0.638231
C56	C	1.706202	-0.275514	-0.138231
C57	C	1.189834	-0.875791	-0.654649
C58	C	1.689834	-0.375791	-0.154649
C59	C	1.362024	-1.158459	-0.482933
C60	C	1.862024	-0.658459	0.017067
C61	C	1.377402	-1.064244	-0.467503
C62	C	1.877402	-0.564244	0.032497
C63	C	1.330512	-1.017126	-0.514288
C64	C	1.830512	-0.517126	-0.014288
C65	C	1.268241	-1.064233	-0.576506
C66	C	1.768241	-0.564233	-0.076506
C67	C	1.252856	-1.158457	-0.591932
C68	C	1.752856	-0.658457	-0.091932
C69	C	1.221344	-1.017124	-0.623288
C70	C	1.721344	-0.517124	-0.123288
C71	C	1.159072	-1.064231	-0.685506
C72	C	1.659072	-0.564231	-0.185506
C73	C	1.143691	-1.158446	-0.700930
C74	C	1.643691	-0.658446	-0.200930
C75	C	1.190582	-1.205564	-0.654144
C76	C	1.690582	-0.705564	-0.154144
C77	C	1.236728	-0.922900	-0.607861
C78	C	1.736728	-0.422900	-0.107861
C79	C	1.127560	-0.922898	-0.716861
C80	C	1.627560	-0.422898	-0.216861
C81	C	1.112182	-1.017114	-0.732291
C82	C	1.612182	-0.517114	-0.232291
C83	C	1.478387	-0.555579	-0.615925
C84	C	1.978387	-0.055579	-0.115925
C85	C	1.577988	-0.561736	-0.622738
C86	C	2.077988	-0.061736	-0.122738
C87	C	1.255984	-0.555470	-0.838375
C88	C	1.755984	-0.055470	-0.338375
C89	C	1.260810	-0.561581	-0.939983
C90	C	1.760810	-0.061581	-0.439983
C91	C	1.283288	-0.305835	-0.561517
C92	C	1.783288	0.194165	-0.061517
C93	C	1.299750	-0.205566	-0.545145
C94	C	1.799750	0.294434	-0.045145
C95	C	1.174186	-0.450595	-1.104235
C96	C	1.674186	0.049405	-0.604235
C97	C	1.178719	-0.456333	-1.199703
C98	C	1.678719	0.043667	-0.699703
C99	C	1.274402	-0.578799	-1.226391
C100	C	1.774402	-0.078799	-0.726391
C101	C	1.269869	-0.573060	-1.130922
C102	C	1.769869	-0.073060	-0.630922
C103	C	1.219761	-0.508956	-1.069847
C104	C	1.719761	-0.008956	-0.569847
C105	C	1.215234	-0.503214	-0.974376
C106	C	1.715234	-0.003214	-0.474376
C107	C	1.310911	-0.625683	-1.001066
C108	C	1.810911	-0.125683	-0.501066
C109	C	1.315444	-0.631421	-1.096535
C110	C	1.815444	-0.131421	-0.596535
C111	C	1.233437	-0.526786	-0.362421
C112	C	1.733437	-0.026786	0.137579
C113	C	1.228826	-0.520432	-0.260784
C114	C	1.728826	-0.020432	0.239216
H115	H	0.574565	-0.673465	-0.746361
H116	H	1.074565	-0.173465	-0.246361
H117	H	1.133396	-0.398391	-1.054505
H118	H	1.633396	0.101609	-0.554505
C119	C	0.587349	-0.432730	-0.480022
C120	C	1.087349	0.067270	0.019978
H121	H	0.632600	-0.398761	-0.442448
H122	H	1.132600	0.101239	0.057552
H123	H	0.543282	-0.462529	-0.443280
H124	H	1.043282	0.037471	0.056720
H125	H	0.558957	-0.393335	-0.506170
H126	H	1.058957	0.106665	-0.006170
H127	H	1.141607	-0.408810	-1.227697
H128	H	1.641607	0.091190	-0.727697
H129	H	0.745865	-0.398422	-0.442054
H130	H	1.245865	0.101578	0.057946
C131	C	0.930943	-0.392179	-0.435145
C132	C	1.430943	0.107821	0.064855
H133	H	0.992426	-0.404796	-0.449111
H134	H	1.492426	0.095204	0.050889
H135	H	0.910521	-0.400649	-0.374800
H136	H	1.410521	0.099351	0.125200
H137	H	0.926184	-0.331450	-0.437684
H138	H	1.426184	0.168550	0.062316
C139	C	1.361051	-0.689881	-0.963243
C140	C	1.861051	-0.189881	-0.463243
H141	H	1.391548	-0.728873	-1.013292
H142	H	1.891548	-0.228873	-0.513292
H143	H	1.318560	-0.724832	-0.930069
H144	H	1.818560	-0.224832	-0.430069
H145	H	1.403997	-0.655534	-0.923041
H146	H	1.903997	-0.155534	-0.423041
H147	H	1.178067	-1.282282	-0.666707
H148	H	1.678067	-0.782282	-0.166707
H149	H	1.089376	-0.884535	-0.754956
H150	H	1.589376	-0.384535	-0.254956
C151	C	1.329510	-0.649309	-1.293583
C152	C	1.829510	-0.149309	-0.793583
H153	H	1.325681	-0.644363	-1.355365
H154	H	1.825681	-0.144363	-0.855365
H155	H	1.305707	-0.708171	-1.286938
H156	H	1.805707	-0.208171	-0.786938
H157	H	1.391149	-0.638881	-1.279908
H158	H	1.891149	-0.138881	-0.779908
H159	H	1.287429	-0.884554	-0.557203
H160	H	1.787429	-0.384554	-0.057203
H161	H	1.343035	-0.940411	-0.501720
H162	H	1.843035	-0.440411	-0.001720
C163	C	1.445899	-1.012433	-0.399075
C164	C	1.945899	-0.512433	0.100925
H165	H	1.471629	-1.053987	-0.373428
H166	H	1.971629	-0.553987	0.126572
H167	H	1.415754	-0.971209	-0.350864
H168	H	1.915754	-0.471209	0.149136
H169	H	1.492591	-0.980150	-0.430727
H170	H	1.992591	-0.480150	0.069273
H171	H	1.174438	-0.451013	-0.924649
H172	H	1.674438	0.048987	-0.424649
C173	C	1.370568	-0.701925	-1.163717
C174	C	1.870568	-0.201925	-0.663717
H175	H	1.397060	-0.735862	-1.129561
H176	H	1.897060	-0.235862	-0.629561
H177	H	1.417040	-0.672060	-1.197993
H178	H	1.917040	-0.172060	-0.697993
H179	H	1.331606	-0.741361	-1.205034
H180	H	1.831606	-0.241361	-0.705034
C181	C	0.902867	-0.649605	-0.719954
C182	C	1.402867	-0.149605	-0.219954
H183	H	0.857614	-0.683559	-0.757534
H184	H	1.357614	-0.183559	-0.257534
H185	H	0.931269	-0.689003	-0.693827
H186	H	1.431269	-0.189003	-0.193827
H187	H	0.946926	-0.619792	-0.756698
H188	H	1.446926	-0.119792	-0.256698
C189	C	1.413592	-1.210284	-0.431470
C190	C	1.913592	-0.710284	0.068530
H191	H	1.452879	-1.168738	-0.392203
H192	H	1.952879	-0.668738	0.107797
H193	H	1.448276	-1.251513	-0.475145
H194	H	1.948276	-0.751513	0.024855
H195	H	1.371430	-1.242564	-0.395292
H196	H	1.871430	-0.742564	0.104708
C197	C	1.075191	-1.210262	-0.769362
C198	C	1.575191	-0.710262	-0.269362
H199	H	1.049473	-1.168710	-0.795023
H200	H	1.549473	-0.668710	-0.295023
H201	H	1.028503	-1.242549	-0.737720
H202	H	1.528503	-0.742549	-0.237720
H203	H	1.105347	-1.251484	-0.817576
H204	H	1.605347	-0.751484	-0.317576
C205	C	0.755807	-0.702254	-0.778202
C206	C	1.255807	-0.202254	-0.278202
H207	H	0.710555	-0.736215	-0.815780
H208	H	1.210555	-0.236215	-0.315780
H209	H	0.784210	-0.741645	-0.752067
H210	H	1.284210	-0.241645	-0.252067
H211	H	0.799865	-0.672446	-0.814951
H212	H	1.299865	-0.172446	-0.314951
C213	C	1.043685	-1.068933	-0.800725
C214	C	1.543685	-0.568933	-0.300725
H215	H	1.017964	-1.027384	-0.826388
H216	H	1.517964	-0.527384	-0.326388
H217	H	0.996998	-1.101223	-0.769084
H218	H	1.496998	-0.601223	-0.269084
H219	H	1.073845	-1.110153	-0.848937
H220	H	1.573845	-0.610153	-0.348937
