data_functionalizedCrystal
_audit_creation_method	'MofGen! by Chris Wilmer'
_symmetry_space_group_name_H-M	'P1'
_symmetry_Int_Tables_number	1
_symmetry_cell_setting	triclinic
loop_
_symmetry_equiv_pos_as_xyz
  x,y,z
_cell_length_a	14.853558
_cell_length_b	23.532407
_cell_length_c	13.930277
_cell_angle_alpha	89.990979
_cell_angle_beta	89.992693
_cell_angle_gamma	83.239906
loop_
_atom_site_label
_atom_site_type_symbol
_atom_site_fract_x
_atom_site_fract_y
_atom_site_fract_z
O1	O	1.195561	0.074327	-0.079829
O2	O	0.933004	0.083190	-0.079835
O3	O	1.072200	-0.004139	-0.079814
O4	O	1.056365	0.161656	-0.079850
O5	O	1.072179	-0.004140	0.079847
O6	O	0.932983	0.083189	0.079827
O7	O	1.195541	0.074326	0.079833
Zn8	Zn	1.064258	0.078757	0.105179
Zn9	Zn	1.064286	0.078759	-0.105182
O10	O	1.056344	0.161655	0.079812
C11	C	0.899409	0.082789	-0.000005
C12	C	0.799338	0.081588	-0.000006
C13	C	0.752335	0.081026	-0.087041
C14	C	0.752311	0.081018	0.087028
C15	C	0.658290	0.079887	0.087030
C16	C	0.611287	0.079324	-0.000005
C17	C	0.658306	0.079893	-0.087042
C18	C	0.611265	0.079312	0.174066
C19	C	0.517238	0.078180	0.174071
C20	C	0.470233	0.077622	0.087035
C21	C	0.517257	0.078192	-0.000006
C22	C	0.470255	0.077629	-0.087041
C23	C	0.517276	0.078203	-0.174083
C24	C	0.611300	0.079335	-0.174078
C25	C	0.376209	0.076490	0.087030
C26	C	0.376225	0.076496	-0.087042
C27	C	1.071786	-0.025357	0.000019
C28	C	1.070574	-0.088579	0.000026
C29	C	1.145343	-0.487358	-0.000025
C30	C	1.144217	-0.546763	-0.000032
O31	O	1.213529	-0.583206	-0.000066
N32	N	1.061465	-0.569748	-0.000033
C33	C	0.979834	-0.533325	-0.000037
O34	O	0.909343	-0.558331	-0.000039
C35	C	0.980961	-0.473921	-0.000036
C36	C	1.063719	-0.450939	-0.000025
C37	C	1.228094	-0.464375	-0.000015
C38	C	1.229220	-0.404974	-0.000006
C39	C	1.147595	-0.368556	-0.000006
C40	C	1.064844	-0.391538	-0.000016
C41	C	0.899331	-0.437500	-0.000047
C42	C	0.900465	-0.378092	-0.000047
C43	C	0.983223	-0.355110	-0.000036
C44	C	0.984345	-0.295719	-0.000008
N45	N	1.067097	-0.272733	-0.000007
C46	C	1.148722	-0.309152	-0.000006
C47	C	0.977473	-0.658078	-0.000039
C48	C	0.976345	-0.717481	-0.000033
C49	C	1.140729	-0.730914	-0.000030
C50	C	1.141856	-0.671510	-0.000030
C51	C	1.060225	-0.635093	-0.000038
C52	C	1.151080	-0.184405	0.000014
C53	C	1.152199	-0.124998	0.000027
C54	C	0.987816	-0.111570	0.000019
C55	C	0.986697	-0.170971	0.000011
C56	C	1.068336	-0.207388	0.000005
O57	O	0.915070	-0.259241	0.000022
O58	O	1.219201	-0.284138	-0.000016
C59	C	1.229135	0.074727	0.000000
C60	C	1.329206	0.075928	-0.000005
C61	C	1.056758	0.182873	-0.000024
C62	C	1.057970	0.246095	-0.000037
N63	N	1.064246	0.078755	0.248746
C64	C	1.002639	0.117415	0.701006
C65	C	1.125941	0.040103	0.700993
C66	C	1.125931	0.040101	0.600498
C67	C	1.064275	0.078757	0.550251
C68	C	1.002629	0.117415	0.600501
C69	C	1.187582	0.001447	0.550241
C70	C	1.187575	0.001444	0.449739
C71	C	1.125915	0.040098	0.399491
C72	C	1.064266	0.078757	0.449746
C73	C	1.002610	0.117414	0.399500
C74	C	0.940956	0.156071	0.449754
C75	C	0.940969	0.156069	0.550253
C76	C	1.125902	0.040099	0.298992
C77	C	1.002600	0.117414	0.298995
N78	N	1.064295	0.078759	0.751252
H79	H	0.649594	0.079801	-0.244943
O80	O	0.325425	0.076206	0.180900
H81	H	0.252122	0.075445	0.166278
O82	O	1.239133	-0.223677	0.000025
H83	H	1.278780	-0.215484	-0.065039
O84	O	0.803003	0.081628	0.180897
H85	H	0.854231	0.043361	0.185065
H86	H	0.478995	0.077742	-0.244947
H87	H	0.478961	0.077713	0.244945
H88	H	0.952439	0.148888	0.741925
O89	O	1.192440	-0.001589	0.755180
H90	H	1.182088	0.004904	0.833506
O91	O	0.810071	-0.462279	-0.000062
H92	H	0.753511	-0.426967	-0.000074
H93	H	1.296610	-0.386268	-0.000001
H94	H	0.833990	-0.348443	-0.000055
O95	O	1.254081	-0.040244	0.604429
H96	H	1.243721	-0.033753	0.682755
H97	H	0.919309	-0.189684	0.000029
H98	H	0.790624	0.081495	-0.157908
O99	O	0.899779	-0.072285	0.000022
H100	H	0.896375	-0.044896	-0.065056
O101	O	0.325545	0.075886	-0.180926
H102	H	0.274322	0.114155	-0.185107
O103	O	0.936102	0.159109	0.244800
H104	H	0.893241	0.185990	0.296631
H105	H	0.890759	0.187547	0.408832
H106	H	0.649543	0.079765	0.244925
O107	O	0.874484	0.197768	0.604451
H108	H	0.884860	0.191278	0.682775
O109	O	1.254059	-0.040254	0.395537
H110	H	1.296927	-0.067137	0.447362
O111	O	1.192388	-0.001591	0.244786
H112	H	1.235260	-0.028472	0.296609
H113	H	1.219593	-0.106289	0.000038
H114	H	1.294567	-0.494022	-0.000018
O115	O	1.231117	-0.646727	-0.000037
H116	H	1.270309	-0.661360	0.065034
O117	O	1.228773	-0.770199	-0.000033
H118	H	1.232198	-0.797573	-0.065115
O119	O	0.887086	-0.742267	-0.000032
H120	H	0.830522	-0.706958	-0.000036
O121	O	0.889424	-0.618799	-0.000023
H122	H	0.831698	-0.644767	-0.000012
