data_functionalizedCrystal
_audit_creation_method	'MofGen! by Chris Wilmer'
_symmetry_space_group_name_H-M	'P1'
_symmetry_Int_Tables_number	1
_symmetry_cell_setting	triclinic
loop_
_symmetry_equiv_pos_as_xyz
  x,y,z
_cell_length_a	17.699077
_cell_length_b	14.044190
_cell_length_c	16.176319
_cell_angle_alpha	89.988653
_cell_angle_beta	89.993140
_cell_angle_gamma	88.236177
loop_
_atom_site_label
_atom_site_type_symbol
_atom_site_fract_x
_atom_site_fract_y
_atom_site_fract_z
O1	O	1.012350	0.119823	-0.068745
O2	O	0.793047	0.135422	-0.068750
O3	O	0.899404	-0.010354	-0.068731
O4	O	0.905993	0.265600	-0.068764
O5	O	0.899387	-0.010364	0.068762
O6	O	0.793030	0.135413	0.068743
O7	O	1.012333	0.119814	0.068748
Cu8	Cu	0.902680	0.127613	0.081300
Cu9	Cu	0.902700	0.127624	-0.081302
O10	O	0.905976	0.265591	0.068730
C11	C	0.764803	0.134859	-0.000004
C12	C	0.680669	0.133185	-0.000005
C13	C	0.641138	0.132392	0.074943
C14	C	0.562086	0.130804	0.074944
C15	C	0.522566	0.130016	-0.000004
C16	C	0.562103	0.130807	-0.074958
C17	C	0.641154	0.132389	-0.074958
C18	C	0.243299	0.124430	-0.074959
C19	C	0.164243	0.122851	-0.074953
C20	C	0.164232	0.122845	0.074944
C21	C	0.243283	0.124426	0.074944
C22	C	0.282813	0.125212	-0.000010
C23	C	0.368530	0.126932	-0.000010
C24	C	0.436850	0.128303	-0.000005
C25	C	0.896513	-0.045667	0.000018
C26	C	0.887915	-0.150873	0.000025
C27	C	0.933175	-0.401265	-0.000007
C28	C	0.872208	-0.343494	-0.000002
C29	C	0.880950	-0.236310	0.000013
C30	C	0.924435	-0.508459	-0.000022
C31	C	1.040577	0.120377	0.000000
C32	C	1.124711	0.122051	-0.000004
C33	C	0.908867	0.300903	-0.000021
C34	C	0.917465	0.406109	-0.000034
N35	N	0.902672	0.127604	0.195665
N36	N	0.902714	0.127624	-0.195667
C37	C	0.949784	0.063081	0.238938
C38	C	0.949788	0.063080	0.325485
C39	C	0.902683	0.127608	0.368758
C40	C	0.855565	0.192134	0.325479
C41	C	0.855558	0.192130	0.238934
C42	C	0.855593	0.192152	0.674507
C43	C	0.855605	0.192153	0.761059
C44	C	0.949822	0.063102	0.761059
C45	C	0.949815	0.063098	0.674513
C46	C	0.902695	0.127620	0.631242
C47	C	0.902690	0.127619	0.537398
C48	C	0.902691	0.127614	0.462600
H49	H	0.132068	0.122209	-0.135989
O50	O	0.802066	-0.380403	0.000106
C51	C	0.762530	-0.349405	0.071331
H52	H	0.787689	-0.280844	0.095077
H53	H	0.700423	-0.335664	0.055322
H54	H	0.767507	-0.406639	0.121188
O55	O	0.995483	0.000216	0.632584
C56	C	0.976793	-0.093529	0.653870
H57	H	0.916160	-0.093798	0.677634
H58	H	0.982288	-0.141204	0.597023
H59	H	1.016815	-0.121388	0.704163
O60	O	0.281700	0.125356	0.147726
C61	C	0.324408	0.208304	0.152196
H62	H	0.298468	0.265183	0.109662
H63	H	0.324283	0.235853	0.218483
H64	H	0.385006	0.190953	0.132057
O65	O	0.995419	0.000321	0.196834
C66	C	0.950913	-0.058099	0.146837
H67	H	0.894262	-0.020223	0.133857
H68	H	0.981477	-0.073207	0.085982
H69	H	0.941011	-0.128104	0.180242
O70	O	1.003218	-0.364087	0.000046
C71	C	0.996461	-0.263794	0.000040
H72	H	0.938938	-0.240580	0.026063
H73	H	1.043018	-0.233458	0.039972
H74	H	1.001965	-0.236243	-0.065917
O75	O	0.995698	0.000504	0.803054
C76	C	1.071646	0.015775	0.781871
H77	H	1.077137	0.091657	0.758071
H78	H	1.108894	0.004806	0.838779
H79	H	1.090322	-0.036787	0.731636
H80	H	0.817194	0.244670	0.203702
H81	H	0.817244	0.244701	0.796290
O82	O	0.995632	0.000376	0.367391
C83	C	1.037200	-0.056585	0.310639
H84	H	1.040662	-0.017732	0.248936
H85	H	1.096664	-0.071120	0.335630
H86	H	1.007890	-0.126961	0.301460
H87	H	0.817227	0.244690	0.639283
H88	H	0.529920	0.130160	-0.135983
O89	O	0.679409	0.133111	0.147823
C90	C	0.627562	0.132091	0.213974
H91	H	0.572324	0.100974	0.192003
H92	H	0.652097	0.086548	0.266398
H93	H	0.616340	0.207923	0.237013
O94	O	0.523664	0.129857	0.147731
C95	C	0.480968	0.046898	0.152220
H96	H	0.506916	-0.009962	0.109687
H97	H	0.481095	0.019329	0.218511
H98	H	0.420368	0.064243	0.132093
H99	H	0.817208	0.244671	0.360717
O100	O	0.125920	0.121945	0.147809
C101	C	0.148259	0.040271	0.193408
H102	H	0.206669	0.014068	0.172096
H103	H	0.150277	0.058777	0.261971
H104	H	0.105896	-0.018074	0.183030
H105	H	0.275475	0.125067	-0.135991
O106	O	0.679438	0.133206	-0.147838
C107	C	0.627608	0.132152	-0.213990
H108	H	0.570145	0.161015	-0.192021
H109	H	0.648752	0.178608	-0.266414
H110	H	0.622016	0.055982	-0.237028
