data_functionalizedCrystal
_audit_creation_method	'MofGen! by Chris Wilmer'
_symmetry_space_group_name_H-M	'P1'
_symmetry_Int_Tables_number	1
_symmetry_cell_setting	triclinic
loop_
_symmetry_equiv_pos_as_xyz
  x,y,z
_cell_length_a	14.853567
_cell_length_b	9.730223
_cell_length_c	10.654558
_cell_angle_alpha	90.000422
_cell_angle_beta	84.061578
_cell_angle_gamma	89.997236
loop_
_atom_site_label
_atom_site_type_symbol
_atom_site_fract_x
_atom_site_fract_y
_atom_site_fract_z
O1	O	1.197241	0.114192	0.163955
O2	O	0.934886	0.114215	0.183486
O3	O	1.072092	0.114197	-0.009081
O4	O	1.060035	0.114210	0.356522
O5	O	1.072090	-0.114383	-0.009076
O6	O	0.934885	-0.114365	0.183491
O7	O	1.197239	-0.114388	0.163960
Zn8	Zn	1.066062	-0.150668	0.173726
Zn9	Zn	1.066064	0.150496	0.173720
O10	O	1.060034	-0.114370	0.356527
C11	C	0.901292	-0.000072	0.182604
C12	C	0.801194	-0.000063	0.179952
N13	N	1.066067	-0.356204	0.173730
C14	C	1.071204	-0.000091	-0.055867
C15	C	1.068551	-0.000087	-0.195282
C16	C	0.387985	-0.000098	0.054352
C17	C	0.367934	-0.000089	0.283126
C18	C	0.461981	-0.000084	0.285620
C19	C	0.519035	-0.000084	0.172478
C20	C	0.482041	-0.000089	0.056843
C21	C	0.498981	-0.000065	0.401253
C22	C	0.593034	-0.000059	0.403752
C23	C	0.650089	-0.000069	0.290608
C24	C	0.613091	-0.000076	0.174968
C25	C	0.670145	-0.000076	0.061826
C26	C	0.633148	-0.000092	-0.053815
C27	C	0.539097	-0.000100	-0.056301
C28	C	0.744140	-0.000062	0.293094
C29	C	0.764201	-0.000068	0.064316
C30	C	1.230833	-0.000098	0.164842
C31	C	1.330931	-0.000097	0.167494
C32	C	1.126837	-0.428139	0.088490
C33	C	1.126835	-0.572021	0.088475
C34	C	1.005289	-0.572024	0.258950
C35	C	1.005288	-0.428143	0.258959
C36	C	1.187616	-0.356200	0.003261
C37	C	1.248392	-0.428134	-0.081985
C38	C	1.248390	-0.572017	-0.082000
C39	C	1.187612	-0.643966	0.003231
N40	N	1.066066	0.356032	0.173706
C41	C	1.067302	-0.124683	-0.260780
C42	C	1.064817	-0.124678	-0.391777
C43	C	1.064826	0.124533	-0.391765
C44	C	1.067318	0.124526	-0.260772
C45	C	1.068535	-0.249296	-0.195290
C46	C	1.067285	-0.373903	-0.260787
C47	C	1.064800	-0.373897	-0.391784
C48	C	1.063565	-0.249284	-0.457283
C49	C	1.060921	-0.000078	0.403313
C50	C	1.063574	-0.000074	0.542728
H51	H	0.679613	-0.000083	-0.145935
C52	C	0.938447	-0.651164	0.352705
H53	H	0.947158	-0.747156	0.340500
H54	H	0.878194	-0.627585	0.338919
H55	H	0.948768	-0.627588	0.436550
H56	H	1.063819	0.225986	-0.445105
H57	H	1.187609	-0.761125	0.003203
C58	C	1.068647	-0.510968	-0.188751
H59	H	1.067556	-0.585173	-0.246526
H60	H	1.017137	-0.516146	-0.128171
H61	H	1.122104	-0.516156	-0.147133
C62	C	1.068690	0.261575	-0.188713
H63	H	1.070360	0.243720	-0.101321
H64	H	1.015804	0.312785	-0.200691
H65	H	1.120771	0.312763	-0.219662
C66	C	1.071273	-0.249307	-0.051199
H67	H	1.071835	-0.341363	-0.021575
H68	H	1.019360	-0.203275	-0.012082
H69	H	1.124327	-0.203305	-0.031049
H70	H	0.810649	-0.000073	-0.027819
H71	H	0.955802	-0.369574	0.328368
H72	H	1.063790	-0.475357	-0.445111
C73	C	1.315237	-0.651141	-0.175766
H74	H	1.351437	-0.587686	-0.226514
H75	H	1.282488	-0.707263	-0.228137
H76	H	1.353046	-0.707274	-0.130485
H77	H	1.061549	-0.249289	-0.563951
C78	C	0.305182	-0.000074	0.407575
H79	H	0.340686	-0.000058	0.476799
H80	H	0.268074	-0.079780	0.411365
H81	H	0.268079	0.079652	0.411349
H82	H	0.452522	-0.000051	0.493367
H83	H	0.357858	-0.000117	-0.039800
C84	C	0.498398	-0.000103	-0.183491
H85	H	0.434214	-0.000090	-0.168767
H86	H	0.517932	-0.079812	-0.230088
H87	H	0.517928	0.079620	-0.230079
H88	H	0.774259	-0.000052	0.387247
C89	C	0.633723	-0.000060	0.530949
H90	H	0.586273	-0.000072	0.597973
H91	H	0.669996	0.079647	0.536682
H92	H	0.669994	-0.079785	0.536671
H93	H	1.187626	-0.239043	0.003268
H94	H	1.297871	-0.369546	-0.151384
