data_functionalizedCrystal
_audit_creation_method	'MofGen! by Chris Wilmer'
_symmetry_space_group_name_H-M	'P1'
_symmetry_Int_Tables_number	1
_symmetry_cell_setting	triclinic
loop_
_symmetry_equiv_pos_as_xyz
  x,y,z
_cell_length_a	15.995350
_cell_length_b	15.995292
_cell_length_c	9.130307
_cell_angle_alpha	89.999900
_cell_angle_beta	90.002128
_cell_angle_gamma	83.480495
loop_
_atom_site_label
_atom_site_type_symbol
_atom_site_fract_x
_atom_site_fract_y
_atom_site_fract_z
O1	O	1.110960	0.107928	-0.121665
O2	O	0.867182	0.121256	-0.121694
O3	O	0.995760	-0.007299	-0.121681
O4	O	0.982381	0.236483	-0.121678
O5	O	0.995756	-0.007300	0.121918
O6	O	0.867177	0.121255	0.121905
O7	O	1.110955	0.107927	0.121934
Cu8	Cu	0.989066	0.114591	0.144162
Cu9	Cu	0.989071	0.114592	-0.143922
O10	O	0.982377	0.236482	0.121921
C11	C	0.835985	0.120704	0.000102
C12	C	0.743035	0.119053	0.000091
C13	C	0.405288	0.113120	0.000121
C14	C	0.452742	0.021566	0.000663
C15	C	0.549431	0.023218	0.000104
C16	C	0.572848	0.116063	0.000107
C17	C	0.531754	0.161221	-0.138994
C18	C	0.435119	0.158921	-0.139100
C19	C	0.434775	0.160812	0.137917
C20	C	0.531720	0.160790	0.139746
C21	C	0.667546	0.117731	0.000094
C22	C	0.310591	0.111455	0.000124
C23	C	0.995213	-0.038495	0.000115
C24	C	0.993581	-0.131448	0.000104
C25	C	0.987580	-0.469186	0.000117
C26	C	1.080384	-0.445874	0.000672
C27	C	1.082148	-0.349199	0.000118
C28	C	0.990557	-0.301631	0.000111
C29	C	0.944162	-0.330731	-0.138997
C30	C	0.943045	-0.427521	-0.139108
C31	C	0.941145	-0.427380	0.137909
C32	C	0.944584	-0.330887	0.139743
C33	C	0.992235	-0.206934	0.000103
C34	C	0.985899	-0.563882	0.000115
C35	C	1.142152	0.108479	0.000135
C36	C	1.235102	0.110130	0.000137
C37	C	0.982924	0.267678	0.000122
C38	C	0.984556	0.360631	0.000124
N39	N	0.989069	0.114589	0.346785
N40	N	0.989075	0.114587	-0.346545
C41	C	1.102971	0.000787	0.346787
C42	C	1.159927	-0.056112	0.423454
C43	C	1.159936	-0.056113	0.576788
C44	C	1.102980	0.000790	0.653457
C45	C	1.046023	0.057689	0.576790
C46	C	1.046023	0.057685	0.423453
C47	C	0.932118	0.171486	0.576788
C48	C	0.932113	0.171492	0.423455
C49	C	0.875162	0.228389	0.653457
C50	C	0.818208	0.285293	0.576790
C51	C	0.818203	0.285292	0.423447
C52	C	0.875156	0.228391	0.346787
H53	H	0.577866	-0.012279	0.099817
H54	H	0.976384	-0.310670	-0.242515
H55	H	0.875168	0.228382	0.778310
F56	F	1.129923	-0.325138	-0.130441
H57	H	0.771835	0.331616	0.639224
H58	H	0.875160	0.228388	0.221935
H59	H	0.875000	-0.442072	-0.145416
F60	F	1.220551	-0.116675	0.658383
H61	H	0.876764	-0.298863	-0.144173
F62	F	1.126884	-0.483800	-0.128979
F63	F	0.979095	-0.464365	0.275723
H64	H	0.872834	-0.441370	0.138841
H65	H	0.978367	-0.312322	0.242654
F66	F	0.427140	-0.026053	-0.128996
H67	H	0.877732	-0.297918	0.148139
F68	F	0.407944	0.121687	0.275730
H69	H	0.434225	-0.015031	0.100418
F70	F	0.567348	0.117634	0.274251
F71	F	0.411197	0.115878	-0.275012
F72	F	0.757576	0.345849	0.341864
F73	F	1.102981	0.000778	0.816649
H74	H	0.577299	-0.012518	-0.099783
F75	F	0.550217	0.250371	-0.145780
F76	F	0.568850	0.120227	-0.274309
H77	H	0.547071	0.228495	0.148150
F78	F	0.392947	0.246778	-0.147350
H79	H	0.402999	0.228314	0.138860
H80	H	1.102977	0.000788	0.221934
H81	H	1.206299	-0.102444	0.361016
H82	H	0.975180	-0.454337	-0.243089
H83	H	1.118483	-0.330174	0.099834
H84	H	1.116153	-0.473872	0.100432
