data_functionalizedCrystal
_audit_creation_method	'MofGen! by Chris Wilmer'
_symmetry_space_group_name_H-M	'P1'
_symmetry_Int_Tables_number	1
_symmetry_cell_setting	triclinic
loop_
_symmetry_equiv_pos_as_xyz
  x,y,z
_cell_length_a	14.908571
_cell_length_b	21.295417
_cell_length_c	14.908308
_cell_angle_alpha	86.739365
_cell_angle_beta	89.824947
_cell_angle_gamma	86.726349
loop_
_atom_site_label
_atom_site_type_symbol
_atom_site_fract_x
_atom_site_fract_y
_atom_site_fract_z
Zn1	Zn	1.345216	-0.328502	0.587528
Zn2	Zn	1.353772	-0.428068	0.437153
Zn3	Zn	1.203534	-0.316411	0.428528
Zn4	Zn	1.194800	-0.427320	0.578804
O5	O	1.274330	-0.375075	0.508003
O6	O	1.472175	-0.347082	0.574841
O7	O	1.341079	-0.408509	0.310185
O8	O	1.222403	-0.229930	0.449662
O9	O	1.478462	-0.420233	0.464361
O10	O	1.326496	-0.238813	0.566479
O11	O	1.230699	-0.326476	0.303848
O12	O	1.076551	-0.325750	0.441202
O13	O	1.207517	-0.418959	0.705785
O14	O	1.070134	-0.407235	0.551609
O15	O	1.318027	-0.346357	0.712195
O16	O	1.332609	-0.516054	0.455901
O17	O	1.215813	-0.515504	0.559972
C18	C	1.040717	-0.365100	0.494524
C19	C	0.940775	-0.360848	0.488779
C20	C	0.746349	-0.437828	0.592795
C21	C	0.652444	-0.433836	0.587400
C22	C	0.659060	-0.348868	0.472599
C23	C	0.752964	-0.352861	0.477994
C24	C	0.796605	-0.397343	0.538093
C25	C	0.890512	-0.401338	0.543483
C26	C	0.897125	-0.316368	0.428687
C27	C	0.803221	-0.312375	0.423292
C28	C	1.274215	-0.538620	0.507947
C29	C	1.274247	-0.608590	0.507957
C30	C	1.335110	-0.641726	0.453830
C31	C	1.335151	-0.707471	0.453852
C32	C	1.274313	-0.740076	0.507992
C33	C	1.213445	-0.706932	0.562131
C34	C	1.213412	-0.641189	0.562114
N35	N	1.195260	-0.840247	0.510308
N36	N	1.195295	-0.902701	0.510320
C37	C	1.274411	-0.938157	0.508050
N38	N	1.353494	-0.908801	0.505750
N39	N	1.353459	-0.846341	0.505734
C40	C	1.274343	-0.811364	0.508018
C41	C	1.335324	-1.042582	0.453944
C42	C	1.335366	-1.108328	0.453973
C43	C	1.213652	-1.107788	0.562246
C44	C	1.213618	-1.042043	0.562223
C45	C	1.274453	-1.009444	0.508066
C46	C	1.508856	-0.385090	0.521536
C47	C	1.608796	-0.389358	0.527303
C48	C	1.260843	-0.383923	0.742527
C49	C	1.255096	-0.387694	0.842467
C50	C	1.274469	-0.210894	0.508081
C51	C	1.274528	-0.140929	0.508114
C52	C	1.287817	-0.366218	0.274395
C53	C	1.293739	-0.362278	0.174465
C54	C	1.359367	-0.319164	1.036941
C55	C	1.353969	-0.322705	1.130844
C56	C	1.238899	-0.398312	1.124177
C57	C	1.244297	-0.394771	1.030274
C58	C	1.304533	-0.355197	0.986660
C59	C	1.309935	-0.351660	0.892756
C60	C	1.194861	-0.427263	0.886090
C61	C	1.189463	-0.430804	0.979993
H62	H	1.384647	-0.615186	0.409735
H63	H	1.163912	-0.733484	0.606214
H64	H	0.623510	-0.312649	0.423674
C65	C	1.489955	-0.732503	0.418931
C66	C	1.402042	-0.743911	0.394343
H67	H	1.531245	-0.754998	0.382187
H68	H	1.499601	-0.746090	0.480105
H69	H	1.498645	-0.688683	0.411162
H70	H	1.393350	-0.787730	0.402119
H71	H	1.392393	-0.730328	0.333155
C72	C	1.093108	-0.647260	0.669139
C73	C	1.146501	-0.604761	0.621610
H74	H	1.051796	-0.624768	0.705864
H75	H	1.130290	-0.675831	0.705831
H76	H	1.061017	-0.669996	0.627953
H77	H	1.178597	-0.582029	0.662796
H78	H	1.109314	-0.576179	0.584915
H79	H	1.384862	-1.016039	0.409849
H80	H	1.384934	-1.135307	0.409897
C81	C	1.355465	-0.245849	0.866416
C82	C	1.376141	-0.308157	0.844811
H83	H	1.396334	-0.218991	0.836814
H84	H	1.360100	-0.242806	0.929530
H85	H	1.295940	-0.233490	0.847540
H86	H	1.435663	-0.320517	0.863693
H87	H	1.371514	-0.311202	0.781684
H88	H	1.164053	-1.015062	0.606295
C89	C	0.655342	-0.518223	0.701416
C90	C	0.597202	-0.478339	0.647529
H91	H	0.621236	-0.545700	0.738535
H92	H	0.690007	-0.493690	0.737981
H93	H	0.694205	-0.542336	0.664273
H94	H	0.558343	-0.454222	0.684672
H95	H	0.562521	-0.502875	0.610960
C96	C	0.845033	-0.455759	0.719781
C97	C	0.794330	-0.486723	0.658848
H98	H	0.874658	-0.485946	0.760554
H99	H	0.806440	-0.428121	0.752144
H100	H	0.888399	-0.432217	0.687965
H101	H	0.750960	-0.510261	0.690663
H102	H	0.832927	-0.514371	0.626481
C103	C	1.404919	-0.213357	1.010589
C104	C	1.425578	-0.275669	0.988990
H105	H	1.445794	-0.186506	0.980981
H106	H	1.409560	-0.210312	1.073702
H107	H	1.345396	-0.200992	0.991716
H108	H	1.485099	-0.288035	1.007869
H109	H	1.420946	-0.278717	0.925864
H110	H	1.398618	-0.293362	1.171780
H111	H	1.140419	-0.463023	1.015517
C112	C	1.179516	-0.437288	1.265167
C113	C	1.172677	-0.441799	1.172129
H114	H	1.138632	-0.464136	1.294768
H115	H	1.165516	-0.395015	1.279797
H116	H	1.239037	-0.449667	1.284035
H117	H	1.113158	-0.429416	1.153260
H118	H	1.186671	-0.484082	1.157492
C119	C	1.044010	-0.284759	0.385975
C120	C	0.952370	-0.271862	0.368553
H121	H	1.078113	-0.257282	0.348853
H122	H	1.060129	-0.327188	0.373590
H123	H	1.055938	-0.278542	0.447298
H124	H	0.940441	-0.278084	0.307231
H125	H	0.936245	-0.229422	0.380931
C126	C	1.159661	-1.208324	0.610350
C127	C	1.146779	-1.143620	0.621762
H128	H	1.118373	-1.230446	0.647093
H129	H	1.219303	-1.222125	0.627046
H130	H	1.150028	-1.216283	0.549171
H131	H	1.156419	-1.135661	0.682940
H132	H	1.087122	-1.129815	0.605071
H133	H	1.150214	-0.456605	0.845141
C134	C	0.989191	-0.419260	0.670472
C135	C	0.938488	-0.450229	0.609544
H136	H	1.018811	-0.449444	0.711253
H137	H	0.950598	-0.391618	0.702827
H138	H	1.032561	-0.395723	0.638654
H139	H	0.895114	-0.473762	0.641362
H140	H	0.977085	-0.477883	0.577186
C141	C	0.662208	-0.268524	0.364050
C142	C	0.755244	-0.263482	0.357234
H143	H	0.632593	-0.238341	0.323264
H144	H	0.643371	-0.261000	0.423598
H145	H	0.647562	-0.309651	0.349897
H146	H	0.769890	-0.222356	0.371394
H147	H	0.774088	-0.271002	0.297673
