data_functionalizedCrystal
_audit_creation_method	'MofGen! by Chris Wilmer'
_symmetry_space_group_name_H-M	'P1'
_symmetry_Int_Tables_number	1
_symmetry_cell_setting	triclinic
loop_
_symmetry_equiv_pos_as_xyz
  x,y,z
_cell_length_a	16.120530
_cell_length_b	19.121063
_cell_length_c	19.121175
_cell_angle_alpha	94.951770
_cell_angle_beta	84.775719
_cell_angle_gamma	89.687057
loop_
_atom_site_label
_atom_site_type_symbol
_atom_site_fract_x
_atom_site_fract_y
_atom_site_fract_z
Zn1	Zn	1.280176	-0.354302	-0.466830
Zn2	Zn	1.530176	-0.104302	-0.216830
Zn3	Zn	1.780176	0.145698	0.033170
Zn4	Zn	2.030176	0.395698	0.283170
Zn5	Zn	1.268666	-0.466436	-0.353667
Zn6	Zn	1.518666	-0.216436	-0.103667
Zn7	Zn	1.768666	0.033564	0.146333
Zn8	Zn	2.018666	0.283564	0.396333
Zn9	Zn	1.135066	-0.342821	-0.342715
Zn10	Zn	1.385066	-0.092821	-0.092715
Zn11	Zn	1.635066	0.157179	0.157285
Zn12	Zn	1.885066	0.407179	0.407285
Zn13	Zn	1.135010	-0.465443	-0.465332
Zn14	Zn	1.385010	-0.215443	-0.215332
Zn15	Zn	1.635010	0.034557	0.034668
Zn16	Zn	1.885010	0.284557	0.284668
O17	O	1.204730	-0.407250	-0.407136
O18	O	1.454730	-0.157250	-0.157136
O19	O	1.704730	0.092750	0.092864
O20	O	1.954730	0.342750	0.342864
O21	O	1.395313	-0.374397	-0.457030
O22	O	1.645313	-0.124397	-0.207030
O23	O	1.895313	0.125603	0.042970
O24	O	2.145313	0.375603	0.292970
O25	O	1.246151	-0.445649	-0.253539
O26	O	1.496151	-0.195649	-0.003539
O27	O	1.746151	0.054351	0.246461
O28	O	1.996151	0.304351	0.496461
O29	O	1.159156	-0.246097	-0.355222
O30	O	1.409156	0.003903	-0.105222
O31	O	1.659156	0.253903	0.144778
O32	O	1.909156	0.503903	0.394778
O33	O	1.386858	-0.456781	-0.373889
O34	O	1.636858	-0.206781	-0.123889
O35	O	1.886858	0.043219	0.126111
O36	O	2.136858	0.293219	0.376111
O37	O	1.265767	-0.254532	-0.446410
O38	O	1.515767	-0.004532	-0.196410
O39	O	1.765767	0.245468	0.053590
O40	O	2.015767	0.495468	0.303590
O41	O	1.147995	-0.354829	-0.245493
O42	O	1.397995	-0.104829	0.004507
O43	O	1.647995	0.145171	0.254507
O44	O	1.897995	0.395171	0.504507
O45	O	1.018394	-0.353867	-0.353769
O46	O	1.268394	-0.103867	-0.103769
O47	O	1.518394	0.146133	0.146231
O48	O	1.768394	0.396133	0.396231
O49	O	1.159060	-0.455090	-0.564206
O50	O	1.409060	-0.205090	-0.314206
O51	O	1.659060	0.044910	-0.064206
O52	O	1.909060	0.294910	0.185794
O53	O	1.018353	-0.443957	-0.443856
O54	O	1.268353	-0.193957	-0.193856
O55	O	1.518353	0.056043	0.056144
O56	O	1.768353	0.306043	0.306144
O57	O	1.265712	-0.373434	-0.565307
O58	O	1.515712	-0.123434	-0.315307
O59	O	1.765712	0.126566	-0.065307
O60	O	2.015712	0.376566	0.184693
O61	O	1.246096	-0.564551	-0.372436
O62	O	1.496096	-0.314551	-0.122436
O63	O	1.746096	-0.064551	0.127564
O64	O	1.996096	0.185449	0.377564
O65	O	1.147900	-0.563821	-0.454476
O66	O	1.397900	-0.313821	-0.204476
O67	O	1.647900	-0.063821	0.045524
O68	O	1.897900	0.186179	0.295524
C69	C	0.988124	-0.397559	-0.397462
C70	C	1.238124	-0.147559	-0.147462
C71	C	1.488124	0.102441	0.102538
C72	C	1.738124	0.352441	0.352538
C73	C	0.895459	-0.393430	-0.393341
C74	C	1.145459	-0.143430	-0.143341
C75	C	1.395459	0.106570	0.106659
C76	C	1.645459	0.356570	0.356659
C77	C	0.725801	-0.385876	-0.385822
C78	C	0.975801	-0.135876	-0.135822
C79	C	1.225801	0.114124	0.114178
C80	C	1.475801	0.364124	0.364178
C81	C	0.684499	-0.428679	-0.428504
C82	C	0.934499	-0.178679	-0.178504
C83	C	1.184499	0.071321	0.071496
C84	C	1.434499	0.321321	0.321496
C85	C	0.590095	-0.424476	-0.424320
C86	C	0.840095	-0.174476	-0.174320
C87	C	1.090095	0.075524	0.075680
C88	C	1.340095	0.325524	0.325680
C89	C	0.820213	-0.390078	-0.390004
C90	C	1.070213	-0.140078	-0.140004
C91	C	1.320213	0.109922	0.109996
C92	C	1.570213	0.359922	0.359996
C93	C	1.195766	-0.589662	-0.414498
C94	C	1.445766	-0.339662	-0.164498
C95	C	1.695766	-0.089662	0.085502
C96	C	1.945766	0.160338	0.335502
C97	C	1.192009	-0.667703	-0.417675
C98	C	1.442009	-0.417703	-0.167675
C99	C	1.692009	-0.167703	0.082325
C100	C	1.942009	0.082297	0.332325
C101	C	1.241413	-0.704726	-0.376493
C102	C	1.491413	-0.454726	-0.126493
C103	C	1.741413	-0.204726	0.123507
C104	C	1.991413	0.045274	0.373507
C105	C	1.237885	-0.778054	-0.379484
C106	C	1.487885	-0.528054	-0.129484
C107	C	1.737885	-0.278054	0.120516
C108	C	1.987885	-0.028054	0.370516
C109	C	1.184948	-0.814357	-0.423655
C110	C	1.434948	-0.564357	-0.173655
C111	C	1.684948	-0.314357	0.076345
C112	C	1.934948	-0.064357	0.326345
C113	C	1.135542	-0.777328	-0.464842
C114	C	1.385542	-0.527328	-0.214842
C115	C	1.635542	-0.277328	0.035158
C116	C	1.885542	-0.027328	0.285158
C117	C	1.139075	-0.704002	-0.461853
C118	C	1.389075	-0.454002	-0.211853
C119	C	1.639075	-0.204002	0.038147
C120	C	1.889075	0.045998	0.288147
C121	C	1.171723	-1.035738	-0.434817
C122	C	1.421723	-0.785738	-0.184817
C123	C	1.671723	-0.535738	0.065183
C124	C	1.921723	-0.285738	0.315183
C125	C	1.168192	-1.109069	-0.437801
C126	C	1.418192	-0.859069	-0.187801
C127	C	1.668192	-0.609069	0.062199
C128	C	1.918192	-0.359069	0.312199
C129	C	1.270537	-1.109790	-0.352444
C130	C	1.520537	-0.859790	-0.102444
C131	C	1.770537	-0.609790	0.147556
C132	C	2.020537	-0.359790	0.397556
C133	C	1.274061	-1.036462	-0.349456
C134	C	1.524061	-0.786462	-0.099456
C135	C	1.774061	-0.536462	0.150544
C136	C	2.024061	-0.286462	0.400544
C137	C	1.224659	-0.999440	-0.390646
C138	C	1.474659	-0.749440	-0.140646
C139	C	1.724659	-0.499440	0.109354
C140	C	1.974659	-0.249440	0.359354
C141	C	1.181338	-0.889310	-0.426713
C142	C	1.431338	-0.639310	-0.176713
C143	C	1.681338	-0.389310	0.073287
C144	C	1.931338	-0.139310	0.323287
C145	C	1.228274	-0.924489	-0.387592
C146	C	1.478274	-0.674489	-0.137592
C147	C	1.728274	-0.424489	0.112408
C148	C	1.978274	-0.174489	0.362408
C149	C	1.422181	-0.416981	-0.416848
C150	C	1.672181	-0.166981	-0.166848
C151	C	1.922181	0.083019	0.083152
C152	C	2.172181	0.333019	0.333152
C153	C	1.514846	-0.421127	-0.420987
C154	C	1.764846	-0.171127	-0.170987
C155	C	2.014846	0.078873	0.079013
C156	C	2.264846	0.328873	0.329013
C157	C	1.213664	-0.415432	-0.591057
C158	C	1.463664	-0.165432	-0.341057
C159	C	1.713664	0.084568	-0.091057
C160	C	1.963664	0.334568	0.158943
C161	C	1.217471	-0.418918	-0.669433
C162	C	1.467471	-0.168918	-0.419433
C163	C	1.717471	0.081082	-0.169433
C164	C	1.967471	0.331082	0.080567
C165	C	1.213751	-0.224128	-0.399762
C166	C	1.463751	0.025872	-0.149762
C167	C	1.713751	0.275872	0.100238
C168	C	1.963751	0.525872	0.350238
C169	C	1.217596	-0.146093	-0.396619
C170	C	1.467596	0.103907	-0.146619
C171	C	1.717596	0.353907	0.103381
C172	C	1.967596	0.603907	0.353381
C173	C	1.168158	-0.373272	-0.702064
C174	C	1.418158	-0.123272	-0.452064
C175	C	1.668158	0.126728	-0.202064
C176	C	1.918158	0.376728	0.047936
C177	C	1.171731	-0.376554	-0.775707
C178	C	1.421731	-0.126554	-0.525707
C179	C	1.671731	0.123446	-0.275707
C180	C	1.921731	0.373446	-0.025707
C181	C	1.224623	-0.425479	-0.816717
C182	C	1.474623	-0.175479	-0.566717
C183	C	1.724623	0.074521	-0.316717
C184	C	1.974623	0.324521	-0.066717
C185	C	1.273939	-0.471130	-0.784081
C186	C	1.523939	-0.221130	-0.534081
C187	C	1.773939	0.028870	-0.284081
C188	C	2.023939	0.278870	-0.034081
C189	C	1.270360	-0.467851	-0.710439
C190	C	1.520360	-0.217851	-0.460439
C191	C	1.770360	0.032149	-0.210439
C192	C	2.020360	0.282149	0.039561
C193	C	1.237981	-0.437747	-1.039277
C194	C	1.487981	-0.187747	-0.789277
C195	C	1.737981	0.062253	-0.539277
C196	C	1.987981	0.312253	-0.289277
C197	C	1.241558	-0.441021	-1.112923
C198	C	1.491558	-0.191021	-0.862923
C199	C	1.741558	0.058979	-0.612923
C200	C	1.991558	0.308979	-0.362923
C201	C	1.139349	-0.346446	-1.104544
C202	C	1.389349	-0.096446	-0.854544
C203	C	1.639349	0.153554	-0.604544
C204	C	1.889349	0.403554	-0.354544
C205	C	1.135779	-0.343169	-1.030901
C206	C	1.385779	-0.093169	-0.780901
C207	C	1.635779	0.156831	-0.530901
C208	C	1.885779	0.406831	-0.280901
C209	C	1.185091	-0.388822	-0.998272
C210	C	1.435091	-0.138822	-0.748272
C211	C	1.685091	0.111178	-0.498272
C212	C	1.935091	0.361178	-0.248272
C213	C	1.228280	-0.428833	-0.891992
C214	C	1.478280	-0.178833	-0.641992
C215	C	1.728280	0.071167	-0.391992
C216	C	1.978280	0.321167	-0.141992
C217	C	1.181430	-0.385471	-0.922998
C218	C	1.431430	-0.135471	-0.672998
C219	C	1.681430	0.114529	-0.422998
C220	C	1.931430	0.364529	-0.172998
C221	C	1.195881	-0.399052	-0.223931
C222	C	1.445881	-0.149052	0.026069
C223	C	1.695881	0.100948	0.276069
C224	C	1.945881	0.350948	0.526069
C225	C	1.192245	-0.395375	-0.145554
C226	C	1.442245	-0.145375	0.104446
C227	C	1.692245	0.104625	0.354446
C228	C	1.942245	0.354625	0.604446
H229	H	0.690262	-0.346079	-0.346142
H230	H	0.940262	-0.096079	-0.096142
H231	H	1.190262	0.153921	0.153858
H232	H	1.440262	0.403921	0.403858
H233	H	1.284517	-0.675173	-0.340521
H234	H	1.534517	-0.425173	-0.090521
H235	H	1.784517	-0.175173	0.159479
H236	H	2.034517	0.074827	0.409479
Cl237	Cl	0.739367	-0.490124	-0.489777
Cl238	Cl	0.989367	-0.240124	-0.239777
Cl239	Cl	1.239367	0.009876	0.010223
Cl240	Cl	1.489367	0.259876	0.260223
Cl241	Cl	1.114942	-0.323966	-0.871442
Cl242	Cl	1.364942	-0.073966	-0.621442
Cl243	Cl	1.614942	0.176034	-0.371442
Cl244	Cl	1.864942	0.426034	-0.121442
Cl245	Cl	1.308064	-0.502525	-1.164478
Cl246	Cl	1.558064	-0.252525	-0.914478
Cl247	Cl	1.808064	-0.002525	-0.664478
Cl248	Cl	2.058064	0.247475	-0.414478
H249	H	1.098846	-0.673858	-0.495389
H250	H	1.348846	-0.423858	-0.245389
H251	H	1.598846	-0.173858	0.004611
H252	H	1.848846	0.076142	0.254611
Cl253	Cl	1.299981	-0.495135	-0.998266
Cl254	Cl	1.549981	-0.245135	-0.748266
Cl255	Cl	1.799981	0.004865	-0.498266
Cl256	Cl	2.049981	0.254865	-0.248266
Cl257	Cl	1.294771	-0.490336	-0.943554
Cl258	Cl	1.544771	-0.240336	-0.693554
Cl259	Cl	1.794771	0.009664	-0.443554
Cl260	Cl	2.044771	0.259664	-0.193554
H261	H	1.310758	-1.139941	-0.318911
H262	H	1.560758	-0.889941	-0.068911
H263	H	1.810758	-0.639941	0.181089
H264	H	2.060758	-0.389941	0.431089
Cl265	Cl	1.299999	-0.824596	-0.327712
Cl266	Cl	1.549999	-0.574596	-0.077712
Cl267	Cl	1.799999	-0.324596	0.172288
Cl268	Cl	2.049999	-0.074596	0.422288
H269	H	1.317167	-1.006906	-0.313489
H270	H	1.567167	-0.756906	-0.063489
H271	H	1.817167	-0.506906	0.186511
H272	H	2.067167	-0.256906	0.436511
H273	H	1.125095	-1.138626	-0.473783
H274	H	1.375095	-0.888626	-0.223783
H275	H	1.625095	-0.638626	0.026217
H276	H	1.875095	-0.388626	0.276217
H277	H	1.138234	-0.918876	-0.462675
H278	H	1.388234	-0.668876	-0.212675
H279	H	1.638234	-0.418876	0.037325
H280	H	1.888234	-0.168876	0.287325
Cl281	Cl	1.109615	-0.989205	-0.486597
Cl282	Cl	1.359615	-0.739205	-0.236597
Cl283	Cl	1.609615	-0.489205	0.013403
Cl284	Cl	1.859615	-0.239205	0.263403
H285	H	1.092443	-0.806892	-0.500810
H286	H	1.342443	-0.556892	-0.250810
H287	H	1.592443	-0.306892	-0.000810
H288	H	1.842443	-0.056892	0.249190
Cl289	Cl	1.294824	-0.878850	-0.332068
Cl290	Cl	1.544824	-0.628850	-0.082068
Cl291	Cl	1.794824	-0.378850	0.167932
Cl292	Cl	2.044824	-0.128850	0.417932
Cl293	Cl	1.101665	-0.311761	-0.650516
Cl294	Cl	1.351665	-0.061761	-0.400516
Cl295	Cl	1.601665	0.188239	-0.150516
Cl296	Cl	1.851665	0.438239	0.099484
Cl297	Cl	1.069285	-0.281660	-0.979351
Cl298	Cl	1.319285	-0.031660	-0.729351
Cl299	Cl	1.569285	0.218340	-0.479351
Cl300	Cl	1.819285	0.468340	-0.229351
Cl301	Cl	1.109694	-0.319199	-0.816726
Cl302	Cl	1.359694	-0.069199	-0.566726
Cl303	Cl	1.609694	0.180801	-0.316726
Cl304	Cl	1.859694	0.430801	-0.066726
Cl305	Cl	1.077358	-0.289060	-1.145569
Cl306	Cl	1.327358	-0.039060	-0.895569
Cl307	Cl	1.577358	0.210940	-0.645569
Cl308	Cl	1.827358	0.460940	-0.395569
H309	H	1.317000	-0.510968	-0.817477
H310	H	1.567000	-0.260968	-0.567477
H311	H	1.817000	-0.010968	-0.317477
H312	H	2.067000	0.239032	-0.067477
Cl313	Cl	1.332353	-0.525240	-0.669417
Cl314	Cl	1.582353	-0.275240	-0.419417
Cl315	Cl	1.832353	-0.025240	-0.169417
Cl316	Cl	2.082353	0.224760	0.080583
