data_functionalizedCrystal
_audit_creation_method	'MofGen! by Chris Wilmer'
_symmetry_space_group_name_H-M	'P1'
_symmetry_Int_Tables_number	1
_symmetry_cell_setting	triclinic
loop_
_symmetry_equiv_pos_as_xyz
  x,y,z
_cell_length_a	13.339070
_cell_length_b	15.995350
_cell_length_c	12.376457
_cell_angle_alpha	101.278656
_cell_angle_beta	75.589755
_cell_angle_gamma	99.560835
loop_
_atom_site_label
_atom_site_type_symbol
_atom_site_fract_x
_atom_site_fract_y
_atom_site_fract_z
O1	O	1.361687	0.408219	-0.094025
O2	O	1.067160	0.353123	-0.094021
O3	O	1.222474	0.260654	-0.094022
O4	O	1.206373	0.500688	-0.094024
O5	O	1.183660	0.283730	0.093990
O6	O	1.028345	0.376200	0.093991
O7	O	1.322873	0.431295	0.093987
Zn8	Zn	1.169446	0.407411	0.123840
Zn9	Zn	1.220586	0.377007	-0.123874
O10	O	1.167558	0.523765	0.093988
C11	C	1.010063	0.355354	-0.000015
C12	C	0.897761	0.327613	-0.000013
C13	C	0.532972	0.543314	-0.000033
C14	C	0.638486	0.569381	-0.000038
C15	C	0.703309	0.508941	-0.000031
C16	C	0.662609	0.422430	-0.000021
C17	C	0.557087	0.396360	-0.000025
C18	C	0.727425	0.361987	-0.000023
C19	C	0.686725	0.275476	-0.000013
C20	C	0.581212	0.249410	-0.000016
C21	C	0.516389	0.309850	-0.000023
C22	C	0.832947	0.388057	-0.000019
C23	C	0.857062	0.241103	-0.000011
C24	C	0.751549	0.215036	-0.000006
C25	C	1.202402	0.240842	-0.000018
C26	C	1.200407	0.147428	-0.000025
C27	C	1.193239	-0.191985	-0.000021
C28	C	1.082714	-0.170299	-0.000441
C29	C	1.084622	-0.073093	-0.000017
C30	C	1.196795	-0.023598	-0.000023
C31	C	1.229188	-0.038823	0.107338
C32	C	1.226391	-0.136094	0.107428
C33	C	1.272816	-0.162164	-0.106377
C34	C	1.273082	-0.065398	-0.107796
C35	C	1.198810	0.071568	-0.000021
C36	C	1.191226	-0.287149	-0.000015
C37	C	1.379970	0.429064	-0.000022
C38	C	1.492273	0.456804	-0.000031
C39	C	1.187631	0.543576	-0.000018
C40	C	1.189627	0.636990	-0.000019
N41	N	1.134551	0.428163	0.292899
N42	N	1.255489	0.356251	-0.292933
C43	C	1.336490	0.308063	0.647882
C44	C	1.360907	0.293538	0.529542
C45	C	1.304320	0.327193	0.470376
C46	C	1.223312	0.375376	0.529561
C47	C	1.198898	0.389908	0.647912
C48	C	1.166728	0.409038	0.470405
C49	C	1.085720	0.457221	0.529590
C50	C	1.061310	0.471751	0.647930
C51	C	1.117897	0.438096	0.707097
C52	C	1.191142	0.394505	0.352054
C53	C	1.053550	0.476350	0.352084
C54	C	1.029133	0.490876	0.470424
H55	H	1.054398	-0.208552	-0.077432
H56	H	1.382561	0.280671	0.696064
H57	H	0.430470	0.288631	-0.000018
O58	O	0.982497	0.518440	0.705371
C59	C	0.888327	0.477979	0.676455
H60	H	0.894547	0.406832	0.643929
H61	H	0.872782	0.509035	0.607763
C62	C	0.790416	0.575319	0.821549
C63	C	0.798053	0.487934	0.781608
H64	H	0.734730	0.581463	0.886409
H65	H	0.853861	0.602582	0.841028
H66	H	0.777467	0.601190	0.764295
H67	H	0.811016	0.462068	0.838855
H68	H	0.734609	0.460668	0.762141
H69	H	1.057625	-0.064081	-0.076978
O70	O	0.950318	0.537560	0.527873
C71	C	0.856148	0.497097	0.498959
H72	H	0.862374	0.425953	0.466420
H73	H	0.840594	0.528159	0.430277
C74	C	0.758234	0.594422	0.644073
C75	C	0.765878	0.507040	0.604117
H76	H	0.702550	0.600558	0.708937
H77	H	0.821678	0.621686	0.663551
H78	H	0.745277	0.620297	0.586829
H79	H	0.778848	0.481169	0.661356
H80	H	0.702434	0.479772	0.584651
O81	O	1.245313	-0.055449	-0.202637
C82	C	1.328626	-0.008301	-0.268999
H83	H	1.404938	-0.014652	-0.247311
H84	H	1.315763	0.062254	-0.251024
C85	C	1.240194	-0.035729	-0.421703
C86	C	1.333923	-0.043535	-0.395073
H87	H	1.243460	-0.057460	-0.499472
H88	H	1.184062	-0.067491	-0.376993
H89	H	1.229486	0.023069	-0.406716
H90	H	1.344623	-0.102333	-0.410047
H91	H	1.390057	-0.011784	-0.439789
H92	H	1.356221	-0.031829	-0.114283
O93	O	1.011486	-0.194669	0.090986
C94	C	1.061093	-0.231285	0.155307
H95	H	1.147980	-0.207012	0.137043
H96	H	1.049747	-0.304240	0.131818
C97	C	0.906519	-0.235335	0.304402
C98	C	1.013235	-0.205516	0.281977
H99	H	0.876996	-0.219443	0.382538
H100	H	0.873096	-0.210669	0.261067
H101	H	0.897079	-0.296129	0.284820
H102	H	1.022673	-0.144722	0.301546
H103	H	1.046659	-0.230172	0.325318
H104	H	1.354519	-0.175067	-0.107103
H105	H	0.480186	0.592513	-0.000048
H106	H	1.257099	0.355275	0.303876
H107	H	1.253451	-0.201093	-0.187751
H108	H	1.098014	0.449919	0.803459
H109	H	0.789223	0.530169	-0.000038
O110	O	1.328137	0.312967	0.355421
C111	C	1.411785	0.263240	0.315870
H112	H	1.415372	0.225848	0.384070
H113	H	1.488000	0.307285	0.294849
C114	C	1.390954	0.245859	0.125168
C115	C	1.395353	0.199928	0.208930
H116	H	1.380822	0.206808	0.059200
H117	H	1.334601	0.279364	0.151813
H118	H	1.454469	0.282561	0.107665
H119	H	1.331835	0.163236	0.226442
H120	H	1.451695	0.166416	0.182286
H121	H	0.548081	0.178966	-0.000020
O122	O	1.014009	-0.040643	0.091921
C123	C	0.913563	-0.083525	0.087069
H124	H	0.920579	-0.149122	0.031627
H125	H	0.871132	-0.043900	0.049721
C126	C	0.843067	-0.014712	0.275209
C127	C	0.851683	-0.095283	0.207122
H128	H	0.804893	-0.021962	0.349262
H129	H	0.910738	0.014181	0.278477
H130	H	0.807710	0.018300	0.244072
H131	H	0.887050	-0.128289	0.238251
H132	H	0.784016	-0.124182	0.203862
O133	O	0.998651	0.508955	0.294447
C134	C	1.037585	0.485814	0.177302
H135	H	1.078728	0.426060	0.161136
H136	H	1.095251	0.540892	0.143706
C137	C	0.896104	0.540245	0.136416
C138	C	0.946630	0.466850	0.116560
H139	H	0.840001	0.528551	0.098945
H140	H	0.869875	0.555839	0.215338
H141	H	0.944170	0.586136	0.108419
H142	H	0.898567	0.420964	0.144569
H143	H	0.972849	0.451248	0.037640
O144	O	0.712001	0.130987	-0.000205
C145	C	0.671768	0.099569	-0.097564
H146	H	0.710780	0.140764	-0.165624
H147	H	0.584014	0.102261	-0.075552
C148	C	0.645745	-0.044634	-0.058121
C149	C	0.693668	0.005959	-0.141717
H150	H	0.659249	-0.102377	-0.085355
H151	H	0.672847	-0.023467	0.007474
H152	H	0.572621	-0.042380	-0.039785
H153	H	0.766791	0.003714	-0.160041
H154	H	0.666578	-0.015210	-0.207317
O155	O	1.439437	0.246504	0.472288
C156	C	1.416803	0.163428	0.501496
H157	H	1.329063	0.148293	0.533928
H158	H	1.458538	0.160388	0.570345
C159	C	1.561988	0.115821	0.356750
C160	C	1.454223	0.097229	0.396575
H161	H	1.585075	0.074987	0.292033
H162	H	1.577240	0.171792	0.337074
H163	H	1.596754	0.113288	0.414134
H164	H	1.419459	0.099773	0.339196
H165	H	1.438966	0.041258	0.416239
O166	O	0.677840	0.653451	0.000008
C167	C	0.598008	0.701204	-0.000024
H168	H	0.518978	0.665451	0.035570
H169	H	0.601702	0.709951	-0.090225
C170	C	0.709638	0.833759	0.029988
C171	C	0.612571	0.789850	0.073714
H172	H	0.718622	0.888441	0.075468
H173	H	0.763423	0.801587	0.030005
H174	H	0.712704	0.841040	-0.045179
H175	H	0.609511	0.782560	0.148873
H176	H	0.558785	0.822022	0.073711
H177	H	0.909843	0.191887	-0.000011
H178	H	0.866073	0.458495	-0.000023
H179	H	1.306596	-0.148878	0.112295
O180	O	1.326510	0.001536	0.111963
C181	C	1.366889	0.044212	0.017901
H182	H	1.299829	0.057404	-0.015686
H183	H	1.418936	0.002149	-0.051130
C184	C	1.513638	0.113625	0.095026
C185	C	1.431274	0.129834	0.053780
H186	H	1.553358	0.166439	0.117155
H187	H	1.486437	0.084871	0.158396
H188	H	1.556999	0.078570	0.037493
H189	H	1.387908	0.164879	0.111317
H190	H	1.458469	0.158596	-0.009579
O191	O	1.159302	-0.157225	0.203243
C192	C	1.213387	-0.190180	0.266794
H193	H	1.300043	-0.165946	0.242968
H194	H	1.201908	-0.263371	0.248075
C195	C	1.064480	-0.189812	0.422948
C196	C	1.170912	-0.160041	0.393691
H197	H	1.038278	-0.171224	0.501224
H198	H	1.028040	-0.167612	0.380132
H199	H	1.054929	-0.250803	0.407340
H200	H	1.180461	-0.099051	0.409286
H201	H	1.207353	-0.182230	0.436514
O202	O	1.164164	-0.003894	0.202629
C203	C	1.060956	-0.042519	0.203861
H204	H	1.062102	-0.108355	0.148245
H205	H	1.018775	-0.000292	0.170180
C206	C	1.002241	0.028041	0.394142
C207	C	1.003649	-0.052823	0.325840
H208	H	0.966889	0.021688	0.469384
H209	H	1.071773	0.054066	0.393311
H210	H	0.967092	0.063222	0.366061
H211	H	1.038809	-0.087999	0.353913
H212	H	0.934121	-0.078855	0.326678
