data_functionalizedCrystal
_audit_creation_method	'MofGen! by Chris Wilmer'
_symmetry_space_group_name_H-M	'P1'
_symmetry_Int_Tables_number	1
_symmetry_cell_setting	triclinic
loop_
_symmetry_equiv_pos_as_xyz
  x,y,z
_cell_length_a	14.908795
_cell_length_b	21.295417
_cell_length_c	21.295412
_cell_angle_alpha	89.969860
_cell_angle_beta	86.683239
_cell_angle_gamma	93.319839
loop_
_atom_site_label
_atom_site_type_symbol
_atom_site_fract_x
_atom_site_fract_y
_atom_site_fract_z
Zn1	Zn	1.379173	-0.195177	-0.411532
Zn2	Zn	1.379056	-0.300451	-0.306255
Zn3	Zn	1.228312	-0.201259	-0.300193
Zn4	Zn	1.228249	-0.306479	-0.405405
O5	O	1.303698	-0.250841	-0.355846
O6	O	1.505406	-0.204073	-0.402667
O7	O	1.359037	-0.287315	-0.217360
O8	O	1.248399	-0.112360	-0.314990
O9	O	1.505321	-0.281417	-0.325321
O10	O	1.359236	-0.107891	-0.396790
O11	O	1.248286	-0.214440	-0.212907
O12	O	1.102055	-0.220286	-0.309049
O13	O	1.248292	-0.291692	-0.494308
O14	O	1.102009	-0.297590	-0.386348
O15	O	1.359175	-0.209918	-0.498809
O16	O	1.358976	-0.389343	-0.319379
O17	O	1.248179	-0.393772	-0.392225
C18	C	1.069297	-0.260253	-0.346376
C19	C	0.969019	-0.264294	-0.342340
C20	C	0.827639	-0.310192	-0.296318
C21	C	0.921859	-0.306397	-0.300111
C22	C	0.921953	-0.225981	-0.380778
C23	C	0.827733	-0.229776	-0.376986
C24	C	0.780579	-0.271883	-0.334755
C25	C	0.686358	-0.275681	-0.330967
C26	C	0.686453	-0.195262	-0.411631
C27	C	0.780673	-0.191467	-0.415423
C28	C	1.303583	-0.414398	-0.355810
C29	C	1.303616	-0.484364	-0.355818
C30	C	1.361295	-0.514848	-0.398439
C31	C	1.361327	-0.580589	-0.398456
C32	C	1.303689	-0.615844	-0.355841
C33	C	1.245998	-0.585353	-0.313217
C34	C	1.245962	-0.519613	-0.313206
N35	N	1.296879	-0.719379	-0.300476
N36	N	1.296919	-0.781829	-0.300488
C37	C	1.303794	-0.813914	-0.355874
N38	N	1.310646	-0.781190	-0.411248
N39	N	1.310611	-0.718734	-0.411235
C40	C	1.303722	-0.687128	-0.355849
C41	C	1.361512	-0.915682	-0.398516
C42	C	1.361537	-0.981425	-0.398534
C43	C	1.246213	-0.986187	-0.313290
C44	C	1.246183	-0.920446	-0.313278
C45	C	1.303837	-0.885197	-0.355890
C46	C	1.539014	-0.241394	-0.365354
C47	C	1.639291	-0.237368	-0.369405
C48	C	1.303739	-0.250799	-0.520038
C49	C	1.303757	-0.250781	-0.590007
C50	C	1.303838	-0.086645	-0.355898
C51	C	1.303897	-0.016675	-0.355920
C52	C	1.361579	-0.208098	-1.091814
C53	C	1.361572	-0.208114	-1.026071
C54	C	1.303835	-0.250695	-0.990850
C55	C	1.246117	-0.293274	-1.021378
C56	C	1.246132	-0.293262	-1.087120
N57	N	1.224836	-0.258714	-0.884436
N58	N	1.224824	-0.258723	-0.821984
C59	C	1.303788	-0.250736	-0.792773
N60	N	1.382765	-0.242729	-0.828374
N61	N	1.382776	-0.242717	-0.890832
C62	C	1.303813	-0.250713	-0.919564
C63	C	1.361499	-0.208179	-0.690967
C64	C	1.361493	-0.208199	-0.625223
C65	C	1.246030	-0.293356	-0.620531
C66	C	1.246044	-0.293339	-0.686274
C67	C	1.303777	-0.250748	-0.721488
C68	C	1.303708	-0.250836	-0.192295
C69	C	1.303865	-0.250670	-0.122334
H70	H	1.408239	-0.486151	-0.433138
H71	H	1.199023	-0.328029	-0.591855
O72	O	1.183781	-0.339246	-0.719199
H73	H	1.143623	-0.368854	-0.683664
H74	H	1.199067	-0.614061	-0.278521
O75	O	1.423548	-0.613481	-0.444422
H76	H	1.463636	-0.577925	-0.474048
O77	O	1.184047	-1.024200	-0.267322
H78	H	1.193766	-1.075035	-0.274486
H79	H	1.199218	-0.895624	-0.278569
H80	H	1.198991	-0.494793	-0.278498
H81	H	0.960172	-0.337592	-0.268811
H82	H	1.408569	-0.173445	-1.001216
H83	H	0.647967	-0.309969	-0.296582
O84	O	0.635691	-0.153939	-0.453088
H85	H	0.684312	-0.124026	-0.483092
H86	H	1.199109	-0.327945	-0.992697
H87	H	1.408454	-0.886982	-0.433216
H88	H	1.408506	-1.006243	-0.433244
O89	O	1.183872	-0.339173	-1.120044
H90	H	1.143716	-0.368783	-1.084510
O91	O	1.423775	-0.162252	-0.728956
H92	H	1.463919	-0.132659	-0.696686
O93	O	0.972817	-0.180562	-0.426319
H94	H	1.046239	-0.184362	-0.422496
O95	O	0.831531	-0.146053	-0.460971
H96	H	0.904955	-0.149852	-0.457154
O97	O	1.423752	-0.162282	-0.592306
H98	H	1.414054	-0.169451	-0.540675
O99	O	0.776771	-0.355604	-0.250773
H100	H	0.825325	-0.381604	-0.224680
O101	O	1.423855	-0.162169	-1.129797
H102	H	1.463993	-0.132573	-1.097525
