data_functionalizedCrystal
_audit_creation_method	'MofGen! by Chris Wilmer'
_symmetry_space_group_name_H-M	'P1'
_symmetry_Int_Tables_number	1
_symmetry_cell_setting	triclinic
loop_
_symmetry_equiv_pos_as_xyz
  x,y,z
_cell_length_a	15.995300
_cell_length_b	15.995343
_cell_length_c	15.072220
_cell_angle_alpha	89.994148
_cell_angle_beta	89.985917
_cell_angle_gamma	83.480495
loop_
_atom_site_label
_atom_site_type_symbol
_atom_site_fract_x
_atom_site_fract_y
_atom_site_fract_z
O1	O	1.111019	0.107721	-0.073824
O2	O	1.611019	0.607721	0.426176
O3	O	0.867238	0.121092	-0.073820
O4	O	1.367238	0.621092	0.426180
O5	O	0.995796	-0.007483	-0.073806
O6	O	1.495796	0.492517	0.426194
O7	O	0.982461	0.236296	-0.073839
O8	O	1.482461	0.736296	0.426161
O9	O	0.995764	-0.007476	0.073759
O10	O	1.495764	0.492524	0.573759
O11	O	0.867206	0.121099	0.073745
O12	O	1.367206	0.621099	0.573745
O13	O	1.110987	0.107728	0.073741
O14	O	1.610987	0.607728	0.573741
Zn15	Zn	0.989092	0.114415	0.097172
Zn16	Zn	1.489092	0.614415	0.597172
Zn17	Zn	0.989133	0.114405	-0.097251
Zn18	Zn	1.489133	0.614405	0.402749
O19	O	0.982429	0.236303	0.073726
O20	O	1.482429	0.736303	0.573726
C21	C	0.836026	0.120551	-0.000037
C22	C	1.336026	0.620551	0.499963
C23	C	0.743074	0.118916	-0.000035
C24	C	1.243074	0.618916	0.499965
C25	C	0.572891	0.115896	-0.000041
C26	C	1.072891	0.615896	0.499959
C27	C	0.525422	0.207444	-0.000051
C28	C	1.025422	0.707444	0.499949
C29	C	0.428735	0.205774	-0.000388
C30	C	0.928735	0.705774	0.499612
C31	C	0.405334	0.112924	-0.000046
C32	C	0.905334	0.612924	0.499954
C33	C	0.446486	0.067500	-0.084141
C34	C	0.946486	0.567500	0.415859
C35	C	0.543120	0.069816	-0.084210
C36	C	1.043120	0.569816	0.415790
C37	C	0.543363	0.068469	0.083606
C38	C	1.043363	0.568469	0.583606
C39	C	0.446418	0.068478	0.084709
C40	C	0.946418	0.568478	0.584709
C41	C	0.310639	0.111240	-0.000052
C42	C	0.810639	0.611240	0.499948
C43	C	0.667586	0.117578	-0.000041
C44	C	1.167586	0.617578	0.499959
C45	C	0.995230	-0.038674	-0.000021
C46	C	1.495230	0.461326	0.499979
C47	C	0.993580	-0.131624	-0.000014
C48	C	1.493580	0.368376	0.499986
C49	C	0.990587	-0.301810	-0.000034
C50	C	1.490587	0.198190	0.499966
C51	C	0.897788	-0.325139	-0.000035
C52	C	1.397788	0.174861	0.499965
C53	C	0.896042	-0.421817	-0.000379
C54	C	1.396042	0.078183	0.499621
C55	C	0.987638	-0.469370	-0.000053
C56	C	1.487638	0.030630	0.499947
C57	C	1.034317	-0.440283	-0.084151
C58	C	1.534317	0.059717	0.415849
C59	C	1.035418	-0.343491	-0.084212
C60	C	1.535418	0.156509	0.415788
C61	C	1.036740	-0.343587	0.083603
C62	C	1.536740	0.156413	0.583603
C63	C	1.033314	-0.440082	0.084698
C64	C	1.533314	0.059918	0.584698
C65	C	0.985977	-0.564068	-0.000067
C66	C	1.485977	-0.064068	0.499933
C67	C	0.992251	-0.207113	-0.000027
C68	C	1.492251	0.292887	0.499973
C69	C	1.142199	0.108270	-0.000045
C70	C	1.642199	0.608270	0.499955
C71	C	1.235151	0.109905	-0.000053
C72	C	1.735151	0.609905	0.499947
C73	C	0.982995	0.267494	-0.000060
C74	C	1.482995	0.767494	0.499940
C75	C	0.984645	0.360445	-0.000073
C76	C	1.484645	0.860445	0.499927
N77	N	0.989069	0.114421	0.229861
N78	N	1.489069	0.614421	0.729861
N79	N	0.989163	0.114393	-0.229940
N80	N	1.489163	0.614393	0.270060
C81	C	0.989132	0.114402	0.589062
C82	C	1.489132	0.614402	1.089062
C83	C	0.920112	0.182969	0.551448
C84	C	1.420112	0.682969	1.051448
C85	C	0.920270	0.183220	0.448622
C86	C	1.420270	0.683220	0.948622
C87	C	0.989100	0.114411	0.410858
C88	C	1.489100	0.614411	0.910858
C89	C	1.076466	0.133477	0.448145
C90	C	1.576466	0.633477	0.948145
C91	C	1.076080	0.133965	0.551003
C92	C	1.576080	0.633965	1.051003
C93	C	0.971564	0.026565	0.551175
C94	C	1.471564	0.526565	1.051175
C95	C	0.969560	0.027152	0.448311
C96	C	1.469560	0.527152	0.948311
C97	C	0.989088	0.114415	0.310145
C98	C	1.489088	0.614415	0.810145
C99	C	0.989150	0.114400	0.689776
C100	C	1.489150	0.614400	1.189776
H101	H	0.431081	0.000784	0.090045
H102	H	0.931081	0.500784	0.590045
O103	O	1.038213	-0.041014	0.583458
O104	O	1.538213	0.458986	1.083458
H105	H	1.008046	-0.088466	0.622151
H106	H	1.508046	0.411534	1.122151
H107	H	0.575145	0.000972	0.084424
H108	H	1.075145	0.500972	0.584424
H109	H	0.400899	0.241307	-0.061031
H110	H	0.900899	0.741307	0.438969
H111	H	0.859495	-0.440831	0.059888
H112	H	1.359495	0.059169	0.559888
O113	O	0.988334	-0.464715	0.167121
O114	O	1.488334	0.035285	0.667121
H115	H	0.933672	-0.497678	0.147816
H116	H	1.433672	0.002322	0.647816
O117	O	1.146154	0.070332	0.583966
O118	O	1.646154	0.570332	1.083966
H119	H	1.190480	0.102697	0.624739
H120	H	1.690480	0.602697	1.124739
H121	H	0.909241	0.008228	0.577169
H122	H	1.409241	0.508228	1.077169
H123	H	0.931175	0.247785	0.577277
H124	H	1.431175	0.747785	1.077277
O125	O	0.834243	0.168197	0.415228
O126	O	1.334243	0.668197	0.915228
H127	H	0.834268	0.168363	0.341586
H128	H	1.334268	0.668363	0.841586
O129	O	0.567427	0.113167	-0.167799
O130	O	1.067427	0.613167	0.332201
H131	H	0.534908	0.178249	-0.169523
H132	H	1.034908	0.678249	0.330477
O133	O	1.125560	-0.324199	-0.088963
O134	O	1.625560	0.175801	0.411037
H135	H	1.127020	-0.254988	-0.089036
H136	H	1.627020	0.245012	0.410964
O137	O	1.127215	-0.325030	0.084688
O138	O	1.627215	0.174970	0.584688
H139	H	1.159372	-0.354736	0.143919
H140	H	1.659372	0.145264	0.643919
O141	O	0.551400	0.255459	-0.079822
O142	O	1.051400	0.755459	0.420178
H143	H	0.495242	0.275347	-0.121179
H144	H	0.995242	0.775347	0.378821
H145	H	1.100151	-0.473042	0.090028
H146	H	1.600151	0.026958	0.590028
O147	O	0.585883	-0.019225	-0.088963
O148	O	1.085883	0.480775	0.411037
H149	H	0.537515	-0.063747	-0.091209
H150	H	1.037515	0.436253	0.408791
O151	O	0.833808	0.168194	0.584260
O152	O	1.333808	0.668194	1.084260
H153	H	0.839180	0.111825	0.627733
H154	H	1.339180	0.611825	1.127733
H155	H	1.129053	0.084864	0.423681
H156	H	1.629053	0.584864	0.923681
H157	H	1.003495	-0.316697	-0.147315
H158	H	1.503495	0.183303	0.352685
H159	H	0.905292	0.012682	0.423943
H160	H	1.405292	0.512682	0.923943
O161	O	0.408946	0.108762	-0.167373
O162	O	0.908946	0.608762	0.332627
H163	H	0.420606	0.175848	-0.168453
H164	H	0.920606	0.675848	0.331547
O165	O	1.097467	0.217367	0.414017
O166	O	1.597467	0.717367	0.914017
H167	H	1.045821	0.245609	0.370510
H168	H	1.545821	0.745609	0.870510
O169	O	0.935133	0.269560	0.416001
O170	O	1.435133	0.769560	0.916001
H171	H	0.880768	0.296101	0.375145
H172	H	1.380768	0.796101	0.875145
H173	H	0.432389	-0.000724	-0.087023
H174	H	0.932389	0.499276	0.412977
H175	H	0.861805	-0.297127	0.060266
H176	H	1.361805	0.202873	0.560266
O177	O	0.850912	-0.286705	-0.079771
O178	O	1.350912	0.213295	0.420229
H179	H	0.893424	-0.251067	-0.119407
H180	H	1.393424	0.248933	0.380593
O181	O	0.847899	-0.446234	-0.080699
O182	O	1.347899	0.053766	0.419301
H183	H	0.879315	-0.426835	-0.141799
H184	H	1.379315	0.073165	0.358201
O185	O	0.391002	0.253055	0.079438
O186	O	0.891002	0.753055	0.579438
H187	H	0.441808	0.277325	0.118629
H188	H	0.941808	0.777325	0.618629
H189	H	0.563848	0.098612	0.147366
H190	H	1.063848	0.598612	0.647366
O191	O	1.096585	0.218814	0.582769
O192	O	1.596585	0.718814	1.082769
H193	H	1.106678	0.259114	0.524665
H194	H	1.606678	0.759114	1.024665
H195	H	1.016565	-0.026262	0.422609
H196	H	1.516565	0.473738	0.922609
O197	O	0.410202	0.112419	0.167126
O198	O	0.910202	0.612419	0.667126
H199	H	0.363131	0.165688	0.147816
H200	H	0.863131	0.665688	0.647816
H201	H	1.101730	-0.472141	-0.087045
H202	H	1.601730	0.027859	0.412955
H203	H	1.007448	-0.315314	0.147369
H204	H	1.507448	0.184686	0.647369
O205	O	0.549900	0.256196	0.079806
O206	O	1.049900	0.756196	0.579806
H207	H	0.596164	0.215703	0.120357
H208	H	1.096164	0.715703	0.620357
H209	H	1.002315	-0.460365	-0.146976
H210	H	1.502315	0.039635	0.353024
