data_functionalizedCrystal
_audit_creation_method	'MofGen! by Chris Wilmer'
_symmetry_space_group_name_H-M	'P1'
_symmetry_Int_Tables_number	1
_symmetry_cell_setting	triclinic
loop_
_symmetry_equiv_pos_as_xyz
  x,y,z
_cell_length_a	12.759401
_cell_length_b	19.805405
_cell_length_c	12.759393
_cell_angle_alpha	89.963489
_cell_angle_beta	89.981708
_cell_angle_gamma	90.026572
loop_
_atom_site_label
_atom_site_type_symbol
_atom_site_fract_x
_atom_site_fract_y
_atom_site_fract_z
Zn1	Zn	1.606168	-0.269428	-0.593937
Zn2	Zn	1.606027	-0.382630	-0.418239
Zn3	Zn	1.430470	-0.269461	-0.418276
Zn4	Zn	1.430422	-0.382581	-0.593880
O5	O	1.518272	-0.326025	-0.506083
O6	O	1.753170	-0.284451	-0.570638
O7	O	1.582700	-0.367653	-0.271222
O8	O	1.453856	-0.174740	-0.441618
O9	O	1.753067	-0.367621	-0.441553
O10	O	1.582940	-0.174716	-0.570675
O11	O	1.453719	-0.284508	-0.271250
O12	O	1.283443	-0.284460	-0.441563
O13	O	1.453774	-0.367536	-0.740909
O14	O	1.283408	-0.367568	-0.570578
O15	O	1.582894	-0.284403	-0.740951
O16	O	1.582653	-0.477340	-0.441498
O17	O	1.453638	-0.477304	-0.570541
C18	C	1.245305	-0.326013	-0.506069
C19	C	1.128528	-0.326023	-0.506088
C20	C	1.073675	-0.369367	-0.573155
C21	C	0.963951	-0.369376	-0.573166
C22	C	0.963942	-0.282695	-0.439034
C23	C	1.073664	-0.282683	-0.439029
C24	C	1.073679	-0.419414	-0.650591
C25	C	0.963955	-0.419423	-0.650603
C26	C	1.518154	-0.501881	-0.506032
C27	C	1.518199	-0.577113	-0.506046
C28	C	1.585443	-0.612454	-0.438923
C29	C	1.585488	-0.683142	-0.438946
C30	C	1.518282	-0.718489	-0.506088
C31	C	1.451036	-0.683143	-0.573217
C32	C	1.450997	-0.612456	-0.573199
C33	C	1.451191	-0.968216	-0.573295
C34	C	1.451232	-1.038908	-0.573306
C35	C	1.585681	-1.038903	-0.439043
C36	C	1.585643	-0.968215	-0.439024
C37	C	1.518400	-0.932876	-0.506157
C38	C	1.518354	-0.856227	-0.506133
C39	C	1.518322	-0.795136	-0.506108
C40	C	1.792305	-0.326038	-0.506098
C41	C	1.909082	-0.326044	-0.506104
C42	C	1.518344	-0.325960	-0.780117
C43	C	1.518375	-0.325932	-0.896893
C44	C	1.518419	-0.149482	-0.506157
C45	C	1.518482	-0.074250	-0.506189
C46	C	1.585539	-0.369210	-0.951738
C47	C	1.585571	-0.369181	-1.061462
C48	C	1.451266	-0.282596	-1.061487
C49	C	1.451241	-0.282622	-0.951765
C50	C	1.663075	-0.419201	-0.951725
C51	C	1.663107	-0.419172	-1.061449
C52	C	1.518260	-0.326041	-0.233116
C53	C	1.518433	-0.325878	-0.116340
H54	H	1.640164	-0.583679	-0.384245
N55	N	1.634159	-0.488587	-1.100890
H56	H	1.693335	-0.507125	-1.144873
H57	H	1.621195	-0.519541	-1.039298
H58	H	1.396321	-0.711927	-0.627889
N59	N	1.132830	-0.235917	-0.366721
H60	H	1.081422	-0.208462	-0.324246
H61	H	1.178333	-0.263412	-0.318009
H62	H	1.396242	-0.583682	-0.627858
N63	N	1.378829	-0.235927	-0.892608
H64	H	1.336309	-0.208485	-0.944021
H65	H	1.330163	-0.263472	-0.847058
H66	H	1.396507	-1.067685	-0.627989
N67	N	0.904768	-0.235962	-0.366694
H68	H	0.826935	-0.242547	-0.376869
H69	H	0.923921	-0.246447	-0.291634
N70	N	1.118734	-0.485336	-0.611807
H71	H	1.163279	-0.476754	-0.547762
H72	H	1.059744	-0.517166	-0.593126
N73	N	1.765530	-0.394311	-1.106557
H74	H	1.814996	-0.382320	-1.047650
H75	H	1.797767	-0.430963	-1.151117
N76	N	1.113182	-0.400901	-0.758421
H77	H	1.051669	-0.392643	-0.806544
H78	H	1.157205	-0.358617	-0.753785
H79	H	0.934143	-0.471831	-0.628662
H80	H	1.633888	-0.469005	-0.917669
H81	H	1.396609	-0.247333	-1.106177
N82	N	1.658206	-1.077025	-0.366636
H83	H	1.706891	-1.106305	-0.409377
H84	H	1.700700	-1.043867	-0.324108
H85	H	1.744451	-0.405174	-0.921962
H86	H	0.929963	-0.400712	-0.727958
H87	H	1.640243	-0.711914	-0.384288
H88	H	1.396438	-0.939448	-0.627955
N89	N	1.658130	-0.930092	-0.366611
H90	H	1.700740	-0.963207	-0.324095
H91	H	1.706706	-0.900718	-0.409421
