data_functionalizedCrystal
_audit_creation_method	'MofGen! by Chris Wilmer'
_symmetry_space_group_name_H-M	'P1'
_symmetry_Int_Tables_number	1
_symmetry_cell_setting	triclinic
loop_
_symmetry_equiv_pos_as_xyz
  x,y,z
_cell_length_a	16.120484
_cell_length_b	19.077367
_cell_length_c	19.076919
_cell_angle_alpha	94.478002
_cell_angle_beta	84.953390
_cell_angle_gamma	84.897376
loop_
_atom_site_label
_atom_site_type_symbol
_atom_site_fract_x
_atom_site_fract_y
_atom_site_fract_z
Zn1	Zn	-0.299614	-1.048308	0.368771
Zn2	Zn	0.200386	-0.548308	0.868771
Zn3	Zn	-0.433770	-1.046978	0.256868
Zn4	Zn	0.066230	-0.546978	0.756868
Zn5	Zn	-0.299634	-0.935162	0.255624
Zn6	Zn	0.200366	-0.435162	0.755624
Zn7	Zn	-0.445438	-0.923886	0.379953
Zn8	Zn	0.054562	-0.423886	0.879953
O9	O	-0.369614	-0.988583	0.315304
O10	O	0.130386	-0.488583	0.815304
O11	O	-0.312518	-1.146998	0.349769
O12	O	0.187482	-0.646998	0.849769
O13	O	-0.411102	-1.036308	0.157839
O14	O	0.088898	-0.536308	0.657839
O15	O	-0.182467	-0.955447	0.265432
O16	O	0.317533	-0.455447	0.765432
O17	O	-0.411083	-1.146021	0.267554
O18	O	0.088917	-0.646021	0.767554
O19	O	-0.182452	-1.038575	0.348562
O20	O	0.317548	-0.538575	0.848562
O21	O	-0.312553	-0.954157	0.156925
O22	O	0.187447	-0.454157	0.656925
O23	O	-0.323867	-0.834800	0.276275
O24	O	0.176133	-0.334800	0.776275
O25	O	-0.430968	-0.936228	0.477334
O26	O	0.069032	-0.436228	0.977334
O27	O	-0.430988	-0.826515	0.367620
O28	O	0.069012	-0.326515	0.867620
O29	O	-0.323832	-1.027641	0.469119
O30	O	0.176168	-0.527641	0.969119
O31	O	-0.552482	-1.025373	0.278397
O32	O	-0.052482	-0.525373	0.778397
O33	O	-0.561055	-0.934938	0.368827
O34	O	-0.061055	-0.434938	0.868827
C35	C	-0.378696	-0.805023	0.323026
C36	C	0.121304	-0.305023	0.823026
C37	C	-0.382603	-0.726493	0.326347
C38	C	0.117397	-0.226493	0.826347
C39	C	-0.328589	-0.693893	0.280420
C40	C	0.171411	-0.193893	0.780420
C41	C	-0.332267	-0.620105	0.283540
C42	C	0.167733	-0.120105	0.783540
C43	C	-0.389955	-0.578919	0.332592
C44	C	0.110045	-0.078919	0.832592
C45	C	-0.443975	-0.611525	0.378522
C46	C	0.056025	-0.111525	0.878522
C47	C	-0.440301	-0.685311	0.375397
C48	C	0.059699	-0.185311	0.875397
C49	C	-0.406937	-0.357782	0.347026
C50	C	0.093063	0.142218	0.847026
C51	C	-0.410606	-0.283991	0.350149
C52	C	0.089394	0.216009	0.850149
C53	C	-0.298898	-0.292577	0.255166
C54	C	0.201102	0.207423	0.755166
C55	C	-0.295225	-0.366364	0.252049
C56	C	0.204775	0.133636	0.752049
C57	C	-0.349248	-0.398963	0.297976
C58	C	0.150752	0.101037	0.797976
N59	N	-0.393714	-0.503497	0.335785
N60	N	0.106286	-0.003497	0.835785
N61	N	-0.345492	-0.474384	0.294779
N62	N	0.154508	0.025616	0.794779
C63	C	-0.587148	-0.978806	0.324975
C64	C	-0.087148	-0.478806	0.824975
C65	C	-0.680208	-0.974687	0.329132
C66	C	-0.180208	-0.474687	0.829132
C67	C	-0.850589	-0.967170	0.336738
C68	C	-0.350589	-0.467170	0.836738
C69	C	-0.887792	-1.010123	0.293877
C70	C	-0.387792	-0.510123	0.793877
C71	C	-0.982599	-1.005940	0.298109
C72	C	-0.482599	-0.505940	0.798109
C73	C	-0.755775	-0.971352	0.332507
C74	C	-0.255775	-0.471352	0.832507
C75	C	-0.151230	-0.998417	0.305611
C76	C	0.348770	-0.498417	0.805611
C77	C	-0.058168	-1.002608	0.301480
C78	C	0.441832	-0.502608	0.801480
C79	C	-0.378699	-0.980825	0.499578
C80	C	0.121301	-0.480825	0.999578
C81	C	-0.382571	-0.977519	0.578104
C82	C	0.117429	-0.477519	1.078104
C83	C	-0.360492	-0.172861	0.307546
C84	C	0.139508	0.327139	0.807546
C85	C	-0.356591	-0.251391	0.304221
C86	C	0.143409	0.248609	0.804221
C87	C	-0.360501	-0.996355	0.131743
C88	C	0.139499	-0.496355	0.631743
C89	C	-0.356387	-0.999809	0.053201
C90	C	0.143613	-0.499809	0.553201
C91	C	-0.328612	-1.023557	0.610720
C92	C	0.171388	-0.523557	1.110720
C93	C	-0.332247	-1.020442	0.684504
C94	C	0.167753	-0.520442	1.184504
C95	C	-0.389846	-0.971292	0.725671
C96	C	0.110154	-0.471292	1.225671
C97	C	-0.443807	-0.925249	0.693050
C98	C	0.056193	-0.425249	1.193050
C99	C	-0.440167	-0.928361	0.619268
C100	C	0.059833	-0.428361	1.119268
C101	C	-0.406709	-0.956878	0.946797
C102	C	0.093291	-0.456878	1.446797
C103	C	-0.410346	-0.953771	1.020585
C104	C	0.089654	-0.453771	1.520585
C105	C	-0.298785	-1.048963	1.012034
C106	C	0.201215	-0.548963	1.512034
C107	C	-0.295154	-1.052073	0.938250
C108	C	0.204846	-0.552073	1.438250
C109	C	-0.349112	-1.006028	0.905635
C110	C	0.150888	-0.506028	1.405635
N111	N	-0.393564	-0.968108	0.801091
N112	N	0.106436	-0.468108	1.301091
N113	N	-0.345388	-1.009209	0.830217
N114	N	0.154612	-0.509209	1.330217
H115	H	-0.484285	-0.711852	0.412796
H116	H	0.015715	-0.211852	0.912796
C117	C	-0.834633	-1.064040	0.240005
C118	C	-0.334633	-0.564040	0.740005
N119	N	-0.794590	-1.104646	0.199427
N120	N	-0.294590	-0.604646	0.699427
C121	C	-0.903748	-0.913245	0.390594
C122	C	-0.403748	-0.413245	0.890594
N123	N	-0.943797	-0.872625	0.431155
N124	N	-0.443797	-0.372625	0.931155
H125	H	-0.281712	-1.063582	0.577207
H126	H	0.218288	-0.563582	1.077207
C127	C	-0.272889	-1.071089	0.720378
C128	C	0.227111	-0.571089	1.220378
N129	N	-0.228178	-1.109238	0.747398
N130	N	0.271822	-0.609238	1.247398
C131	C	-0.474067	-0.238688	0.404114
C132	C	0.025933	0.261312	0.904114
N133	N	-0.521861	-0.204566	0.444762
N134	N	-0.021861	0.295434	0.944762
H135	H	-0.281606	-0.727421	0.240482
H136	H	0.218394	-0.227421	0.740482
C137	C	-0.473709	-0.899697	1.065868
C138	C	0.026291	-0.399697	1.565868
N139	N	-0.521432	-0.858972	1.099974
N140	N	-0.021432	-0.358972	1.599974
C141	C	-0.466364	-0.393631	0.397548
C142	C	0.033636	0.106369	0.897548
N143	N	-0.511128	-0.420634	0.435603
N144	N	-0.011128	0.079366	0.935603
H145	H	-0.490950	-0.577985	0.418458
H146	H	0.009050	-0.077985	0.918458
C147	C	-0.239425	-1.099601	1.047916
C148	C	0.260575	-0.599601	1.547916
N149	N	-0.194709	-1.137740	1.074942
N150	N	0.305291	-0.637740	1.574942
H151	H	-0.248253	-1.092099	0.904736
H152	H	0.251747	-0.592099	1.404736
H153	H	-0.450657	-0.919394	0.920252
H154	H	0.049343	-0.419394	1.420252
C155	C	-0.507158	-0.871177	0.738337
C156	C	-0.007158	-0.371177	1.238337
N157	N	-0.554875	-0.830448	0.772446
N158	N	-0.054875	-0.330448	1.272446
C159	C	-0.499528	-0.877717	0.583391
C160	C	0.000472	-0.377717	1.083391
N161	N	-0.544238	-0.839568	0.556369
N162	N	-0.044238	-0.339568	1.056369
H163	H	-0.288287	-0.593566	0.246138
H164	H	0.211713	-0.093566	0.746138
H165	H	-0.248254	-0.399893	0.212101
H166	H	0.251746	0.100107	0.712101
H167	H	-0.254916	-0.266027	0.217774
H168	H	0.245084	0.233973	0.717774
