data_functionalizedCrystal
_audit_creation_method	'MofGen! by Chris Wilmer'
_symmetry_space_group_name_H-M	'P1'
_symmetry_Int_Tables_number	1
_symmetry_cell_setting	triclinic
loop_
_symmetry_equiv_pos_as_xyz
  x,y,z
_cell_length_a	10.540539
_cell_length_b	8.559649
_cell_length_c	7.088929
_cell_angle_alpha	95.325015
_cell_angle_beta	96.284388
_cell_angle_gamma	102.847922
loop_
_atom_site_label
_atom_site_type_symbol
_atom_site_fract_x
_atom_site_fract_y
_atom_site_fract_z
O1	O	-0.028386	-2.103404	0.158958
O2	O	0.037097	-1.638947	0.158965
O3	O	-0.181461	-1.881772	0.158959
O4	O	0.190172	-1.860579	0.158964
O5	O	-0.210727	-1.914223	-0.159017
O6	O	0.007830	-1.671397	-0.159011
O7	O	-0.057653	-2.135855	-0.159018
Cu8	Cu	-0.027584	-1.906589	-0.188048
Cu9	Cu	0.007028	-1.868213	0.187995
O10	O	0.160905	-1.893030	-0.159012
C11	C	-0.243230	-1.896408	-0.000025
C12	C	-0.383680	-1.891652	-0.000015
C13	C	0.027426	-1.595699	-0.000022
C14	C	0.042198	-1.418487	-0.000019
C15	C	-0.047981	-2.179103	-0.000027
C16	C	-0.062752	-2.356313	-0.000017
C17	C	-0.547965	-1.709377	0.000701
C18	C	-0.401917	-1.714270	-0.000014
C19	C	-0.470987	-1.995547	-0.181596
C20	C	-0.616912	-1.989509	-0.181749
C21	C	-0.584526	-1.956214	0.179849
C22	C	-0.437494	-1.957603	0.182250
C23	C	0.222675	-1.878394	-0.000023
C24	C	0.363125	-1.883148	-0.000021
N25	N	-0.051929	-1.933593	-0.452537
N26	N	0.031362	-1.841222	0.452484
H27	H	-0.340301	-1.633817	0.130150
C28	C	0.147967	-1.711881	-0.437226
C29	C	0.168346	-1.689930	-0.217069
C30	C	0.284953	-1.560587	-0.106764
C31	C	0.381182	-1.453195	-0.216617
C32	C	0.360807	-1.475142	-0.436787
C33	C	0.244199	-1.604485	-0.547091
H34	H	0.097109	-1.769431	-0.135738
H35	H	0.300036	-1.544341	0.056220
H36	H	0.467502	-1.357447	-0.134964
H37	H	0.432044	-1.395641	-0.518118
H38	H	0.229116	-1.620732	-0.710076
C39	C	-0.168541	-2.062940	-0.562835
C40	C	-0.188659	-2.085279	-0.782993
C41	C	-0.305268	-2.214624	-0.893291
C42	C	-0.401759	-2.321630	-0.783431
C43	C	-0.381644	-2.299294	-0.563261
C44	C	-0.265035	-2.169949	-0.452963
H45	H	-0.117228	-2.006064	-0.864329
H46	H	-0.320157	-2.231158	-1.056276
H47	H	-0.488079	-2.417378	-0.865080
H48	H	-0.453075	-2.378509	-0.481925
H49	H	-0.250145	-2.153416	-0.289978
H50	H	0.143358	-1.336134	-0.000007
H51	H	-0.163903	-1.438655	-0.000009
H52	H	-0.557244	-1.626018	0.130916
H53	H	-0.582784	-1.652806	-0.128782
H54	H	-0.651000	-1.940273	-0.317483
H55	H	-0.365080	-1.659936	-0.130394
H56	H	-0.678995	-2.117920	-0.189989
H57	H	-0.434617	-1.950038	-0.316721
H58	H	-0.597401	-1.884759	0.317476
H59	H	-0.377733	-1.881434	0.316578
H60	H	-0.462893	-2.126500	-0.188350
H61	H	-0.425804	-2.085809	0.193212
H62	H	-0.645054	-2.084212	0.181068
