data_functionalizedCrystal
_audit_creation_method	'MofGen! by Chris Wilmer'
_symmetry_space_group_name_H-M	'P1'
_symmetry_Int_Tables_number	1
_symmetry_cell_setting	triclinic
loop_
_symmetry_equiv_pos_as_xyz
  x,y,z
_cell_length_a	10.540514
_cell_length_b	10.540539
_cell_length_c	9.016244
_cell_angle_alpha	90.005301
_cell_angle_beta	90.000952
_cell_angle_gamma	95.479674
loop_
_atom_site_label
_atom_site_type_symbol
_atom_site_fract_x
_atom_site_fract_y
_atom_site_fract_z
O1	O	0.178897	-1.685877	-0.123259
O2	O	0.195753	-1.316462	-0.123276
O3	O	0.002617	-1.509614	-0.123269
O4	O	0.372034	-1.492725	-0.123266
O5	O	0.002621	-1.509586	0.123412
O6	O	0.195758	-1.316434	0.123404
O7	O	0.178901	-1.685848	0.123422
Cu8	Cu	0.187330	-1.501139	0.145937
Cu9	Cu	0.187325	-1.501172	-0.145792
O10	O	0.372038	-1.492696	0.123415
C11	C	0.194491	-1.269145	0.000062
C12	C	0.190709	-1.128197	0.000055
C13	C	-0.044685	-1.508340	0.000067
C14	C	-0.185634	-1.504571	0.000056
C15	C	0.180163	-1.733166	0.000080
C16	C	0.183945	-1.874113	0.000078
C17	C	-0.256340	-1.642711	0.000066
C18	C	-0.402953	-1.638837	0.000636
C19	C	-0.377967	-1.429428	0.140657
C20	C	-0.231428	-1.434282	0.140766
C21	C	-0.231034	-1.432270	-0.139767
C22	C	-0.378013	-1.430937	-0.141604
C23	C	0.419339	-1.493970	0.000075
C24	C	0.560289	-1.497740	0.000076
N25	N	0.187333	-1.501124	0.351123
C26	C	0.045791	-0.944784	0.000629
C27	C	0.049624	-1.091402	0.000058
C28	C	0.258603	-1.066535	-0.140806
C29	C	0.253788	-0.919991	-0.140909
C30	C	0.256663	-0.919470	0.139613
C31	C	0.257962	-1.066452	0.141460
N32	N	0.187312	-1.501197	-0.350978
C33	C	0.290301	-1.397484	0.586152
C34	C	0.290687	-1.397713	0.414261
C35	C	0.217467	-1.633844	0.413468
C36	C	0.218196	-1.633279	0.585413
C37	C	0.053893	-1.473362	0.585664
C38	C	0.054758	-1.470317	0.413710
H39	H	-0.445620	-1.692566	-0.100114
C40	C	0.194973	-0.876855	0.283858
N41	N	0.148494	-0.844759	0.392497
C42	C	-0.217688	-1.718482	-0.136026
N43	N	-0.188530	-1.775569	-0.238506
C44	C	-0.188501	-1.494415	-0.283767
N45	N	-0.156468	-1.541237	-0.392221
C46	C	0.396917	-1.099186	0.152971
N47	N	0.501580	-1.123850	0.161636
H48	H	-0.400281	-1.325795	0.145483
H49	H	-0.402208	-1.328096	-0.150523
C50	C	-0.435474	-1.492695	0.282545
N51	N	-0.478789	-1.540353	0.389412
C52	C	0.398573	-1.096726	-0.147896
N53	N	0.503998	-1.119471	-0.153234
C54	C	0.394329	-0.855651	0.140905
N55	N	0.498014	-0.807576	0.141868
C56	C	-0.433409	-1.498370	-0.282113
N57	N	-0.475144	-1.549161	-0.387942
H58	H	0.211436	-1.109140	-0.245639
C59	C	0.349704	-1.666143	0.639578
N60	N	0.448763	-1.690888	0.680368
H61	H	0.389672	-1.415603	0.373116
H62	H	-0.203200	-1.484149	0.246260
C63	C	-0.215512	-1.717292	0.136073
N64	N	-0.184760	-1.773462	0.238519
C65	C	-0.053753	-1.565626	0.355686
N66	N	-0.135480	-1.637431	0.311996
C67	C	0.190918	-1.121731	0.282243
N68	N	0.140410	-1.163365	0.388278
H69	H	-0.022763	-1.548981	0.626319
H70	H	0.031917	-1.372681	0.372963
H71	H	0.272556	-1.299098	0.372112
C72	C	-0.166571	-1.297203	0.149002
N73	N	-0.117728	-1.193959	0.155267
H74	H	-0.004177	-1.133163	-0.101093
H75	H	0.146205	-1.712927	0.626998
H76	H	0.272449	-1.298560	0.627540
H77	H	0.388726	-1.415141	0.629347
H78	H	-0.183794	-1.330371	-0.141116
C79	C	0.015174	-1.345351	0.644298
N80	N	-0.013973	-1.248927	0.688461
C81	C	0.118899	-1.740658	0.358211
N82	N	0.044657	-1.821108	0.316587
C83	C	0.347490	-1.667463	0.355296
N84	N	0.445430	-1.692774	0.311489
C85	C	-0.029507	-0.906144	0.137099
N86	N	-0.086223	-0.877030	0.239890
C87	C	0.185979	-0.881901	-0.283150
N88	N	0.134899	-0.853219	-0.390286
C89	C	-0.029203	-0.903980	-0.135066
N90	N	-0.085687	-0.873240	-0.237273
H91	H	0.355254	-0.872013	-0.147301
H92	H	-0.444681	-1.692312	0.102010
H93	H	-0.003797	-1.134009	0.101033
