data_functionalizedCrystal
_audit_creation_method	'MofGen! by Chris Wilmer'
_symmetry_space_group_name_H-M	'P1'
_symmetry_Int_Tables_number	1
_symmetry_cell_setting	triclinic
loop_
_symmetry_equiv_pos_as_xyz
  x,y,z
_cell_length_a	16.974885
_cell_length_b	23.532357
_cell_length_c	16.053802
_cell_angle_alpha	92.543277
_cell_angle_beta	91.069328
_cell_angle_gamma	83.111531
loop_
_atom_site_label
_atom_site_type_symbol
_atom_site_fract_x
_atom_site_fract_y
_atom_site_fract_z
O1	O	1.048482	0.072613	0.001338
O2	O	1.548482	0.572613	0.501338
O3	O	0.818952	0.081327	-0.014159
O4	O	1.318952	0.581327	0.485841
O5	O	0.940658	-0.005924	-0.005924
O6	O	1.440658	0.494076	0.494076
O7	O	0.926776	0.159864	-0.006896
O8	O	1.426776	0.659864	0.493104
O9	O	0.933959	-0.001141	0.132481
O10	O	1.433959	0.498859	0.632481
O11	O	0.812253	0.086110	0.124247
O12	O	1.312253	0.586110	0.624247
O13	O	1.041783	0.077396	0.139744
O14	O	1.541783	0.577396	0.639744
Zn15	Zn	0.925954	0.082512	0.153970
Zn16	Zn	1.425954	0.582512	0.653970
Zn17	Zn	0.934780	0.076211	-0.028385
Zn18	Zn	1.434780	0.576211	0.471615
O19	O	0.920077	0.164647	0.131510
O20	O	1.420077	0.664647	0.631510
C21	C	0.786243	0.083299	0.053062
C22	C	1.286243	0.583299	0.553062
C23	C	0.698761	0.082042	0.047156
C24	C	1.198761	0.582042	0.547156
C25	C	0.206731	0.074664	0.005757
C26	C	0.706731	0.574664	0.505757
C27	C	0.288929	0.075846	0.011317
C28	C	0.788929	0.575846	0.511317
C29	C	0.326367	0.079048	0.089543
C30	C	0.826367	0.579048	0.589543
C31	C	0.281604	0.081063	0.162213
C32	C	0.781604	0.581063	0.662213
C33	C	0.199409	0.079877	0.156652
C34	C	0.699409	0.579877	0.656652
C35	C	0.571803	0.082871	0.114265
C36	C	1.071803	0.582871	0.614265
C37	C	0.654004	0.084058	0.119821
C38	C	1.154004	0.584058	0.619821
C39	C	0.661323	0.078840	-0.031076
C40	C	1.161323	0.578840	0.468924
C41	C	0.579125	0.077658	-0.036630
C42	C	1.079125	0.577658	0.463370
C43	C	0.534370	0.079670	0.036040
C44	C	1.034370	0.579670	0.536040
N45	N	0.410386	0.080258	0.095229
N46	N	0.910386	0.580258	0.595229
N47	N	0.450354	0.078456	0.030354
N48	N	0.950354	0.578456	0.530354
C49	C	0.936961	-0.024751	0.063258
C50	C	1.436961	0.475249	0.563258
C51	C	0.935917	-0.087975	0.063195
C52	C	1.435917	0.412025	0.563195
C53	C	0.933016	-0.482632	-0.012738
C54	C	1.433016	0.017368	0.487262
C55	C	0.932023	-0.542037	-0.012809
C56	C	1.432023	-0.042037	0.487191
O57	O	0.934589	-0.574974	-0.077009
O58	O	1.434589	-0.074974	0.422991
N59	N	0.927880	-0.569144	0.062601
N60	N	1.427880	-0.069144	0.562601
C61	C	0.924720	-0.536842	0.138088
C62	C	1.424720	-0.036842	0.638088
O63	O	0.921104	-0.565353	0.202224
O64	O	1.421104	-0.065353	0.702224
C65	C	0.925707	-0.477437	0.138159
C66	C	1.425707	0.022563	0.638159
C67	C	0.929859	-0.450334	0.062744
C68	C	1.429859	0.049666	0.562744
C69	C	0.937166	-0.455529	-0.088147
C70	C	1.437166	0.044471	0.411853
C71	C	0.938160	-0.396128	-0.088074
C72	C	1.438160	0.103872	0.411926
C73	C	0.935003	-0.363830	-0.012593
C74	C	1.435003	0.136170	0.487407
C75	C	0.930852	-0.390933	0.062816
C76	C	1.430852	0.109067	0.562816
C77	C	0.922541	-0.445136	0.213644
C78	C	1.422541	0.054864	0.713644
C79	C	0.923528	-0.385727	0.213708
C80	C	1.423528	0.114273	0.713708
C81	C	0.927680	-0.358624	0.138293
C82	C	1.427680	0.141376	0.638293
C83	C	0.928689	-0.299235	0.138369
C84	C	1.428689	0.200765	0.638369
N85	N	0.932833	-0.272128	0.062958
N86	N	1.432833	0.227872	0.562958
C87	C	0.935990	-0.304426	-0.012523
C88	C	1.435990	0.195574	0.487477
C89	C	0.922647	-0.661596	0.137934
C90	C	1.422647	-0.161596	0.637934
C91	C	0.921666	-0.721000	0.137865
C92	C	1.421666	-0.221000	0.637865
C93	C	0.928968	-0.726191	-0.013033
C94	C	1.428968	-0.226191	0.486967
C95	C	0.929954	-0.666786	-0.012962
C96	C	1.429954	-0.166786	0.487038
C97	C	0.926790	-0.634489	0.062524
C98	C	1.426790	-0.134489	0.562524
C99	C	0.938077	-0.179679	-0.012365
C100	C	1.438077	0.320321	0.487635
C101	C	0.939074	-0.120273	-0.012286
C102	C	1.439074	0.379727	0.487714
C103	C	0.931768	-0.115087	0.138611
C104	C	1.431768	0.384913	0.638611
C105	C	0.930775	-0.174488	0.138532
C106	C	1.430775	0.325512	0.638532
C107	C	0.933927	-0.206783	0.063037
C108	C	1.433927	0.293217	0.563037
O109	O	0.926122	-0.266261	0.202536
O110	O	1.426122	0.233739	0.702536
O111	O	0.939595	-0.275906	-0.076649
O112	O	1.439595	0.224094	0.423351
C113	C	1.074492	0.075424	0.072521
C114	C	1.574492	0.575424	0.572521
C115	C	1.161974	0.076681	0.078422
C116	C	1.661974	0.576681	0.578422
C117	C	0.923774	0.183474	0.062326
C118	C	1.423774	0.683474	0.562326
C119	C	0.924818	0.246698	0.062383
C120	C	1.424818	0.746698	0.562383
N121	N	0.919937	0.086812	0.278423
N122	N	1.419937	0.586812	0.778423
N123	N	0.940804	0.071906	-0.152838
N124	N	1.440804	0.571906	0.347162
C125	C	0.971741	0.049700	0.325622
C126	C	1.471741	0.549700	0.825622
C127	C	0.967539	0.052714	0.412745
C128	C	1.467539	0.552714	0.912745
C129	C	0.911535	0.092842	0.452667
C130	C	1.411535	0.592842	0.952667
C131	C	0.859725	0.129956	0.405461
C132	C	1.359725	0.629956	0.905461
C133	C	0.863924	0.126940	0.318340
C134	C	1.363924	0.626940	0.818340
C135	C	0.893193	0.106003	0.712836
C136	C	1.393193	0.606003	1.212836
C137	C	0.889000	0.109018	0.799963
C138	C	1.389000	0.609018	1.299963
C139	C	0.996813	0.031774	0.807240
C140	C	1.496813	0.531774	1.307240
C141	C	1.001011	0.028764	0.720118
C142	C	1.501011	0.528764	1.220118
C143	C	0.949198	0.065875	0.672920
C144	C	1.449198	0.565875	1.172920
N145	N	0.907240	0.095925	0.541720
N146	N	1.407240	0.595925	1.041720
N147	N	0.953489	0.062790	0.583868
N148	N	1.453489	0.562790	1.083868
H149	H	0.684483	0.086670	0.183525
H150	H	1.184483	0.586670	0.683525
Cl151	Cl	0.818589	0.159472	0.850145
Cl152	Cl	1.318589	0.659472	1.350145
H153	H	0.176254	0.072061	-0.057943
H154	H	0.676254	0.572061	0.442057
Cl155	Cl	0.328670	0.085088	0.260555
Cl156	Cl	0.828670	0.585088	0.760555
Cl157	Cl	0.916461	-0.755066	0.232678
Cl158	Cl	1.416461	-0.255066	0.732678
Cl159	Cl	1.042154	-0.000748	0.275444
Cl160	Cl	1.542154	0.499252	0.775444
H161	H	0.942457	-0.098209	-0.073701
H162	H	1.442457	0.401791	0.426299
H163	H	0.939734	-0.481819	-0.149616
H164	H	1.439734	0.018181	0.350384
Cl165	Cl	0.918677	-0.620999	0.232841
Cl166	Cl	1.418677	-0.120999	0.732841
Cl167	Cl	0.917316	-0.479193	0.308458
Cl168	Cl	1.417316	0.020807	0.808458
Cl169	Cl	1.061943	-0.014880	0.866578
Cl170	Cl	1.561943	0.485120	1.366578
Cl171	Cl	0.789315	0.180402	0.455647
Cl172	Cl	1.289315	0.680402	0.955647
H173	H	0.821738	0.157160	0.279911
H174	H	1.321738	0.657160	0.779911
H175	H	0.940640	-0.205966	-0.073841
H176	H	1.440640	0.294034	0.426159
H177	H	0.535375	0.084501	0.173439
H178	H	1.035375	0.584501	0.673439
H179	H	1.046613	-0.003913	0.687615
H180	H	1.546613	0.496087	1.187615
Cl181	Cl	0.143144	0.082407	0.248007
Cl182	Cl	0.643144	0.582407	0.748007
Cl183	Cl	0.927799	-0.074473	0.233496
Cl184	Cl	1.427799	0.425527	0.733496
Cl185	Cl	0.919551	-0.345128	0.308611
Cl186	Cl	1.419551	0.154872	0.808611
H187	H	0.548649	0.075050	-0.100330
H188	H	1.048649	0.575050	0.399670
Cl189	Cl	0.345192	0.073308	-0.080037
Cl190	Cl	0.845192	0.573308	0.419963
H191	H	0.931536	-0.752498	-0.074494
H192	H	1.431536	-0.252498	0.425506
Cl193	Cl	0.943372	-0.362064	-0.182888
Cl194	Cl	1.443372	0.137936	0.317112
H195	H	0.697771	0.077201	-0.090240
H196	H	1.197771	0.577201	0.409760
Cl197	Cl	0.935171	-0.632720	-0.107773
Cl198	Cl	1.435171	-0.132720	0.392227
Cl199	Cl	0.925570	-0.208563	0.233342
Cl200	Cl	1.425570	0.291437	0.733342
H201	H	1.009722	0.022493	0.451174
H202	H	1.509722	0.522493	0.951174
H203	H	0.851006	0.136222	0.674414
H204	H	1.351006	0.636222	1.174414
