data_functionalizedCrystal
_audit_creation_method	'MofGen! by Chris Wilmer'
_symmetry_space_group_name_H-M	'P1'
_symmetry_Int_Tables_number	1
_symmetry_cell_setting	triclinic
loop_
_symmetry_equiv_pos_as_xyz
  x,y,z
_cell_length_a	10.540539
_cell_length_b	15.995350
_cell_length_c	9.616153
_cell_angle_alpha	89.999971
_cell_angle_beta	89.995174
_cell_angle_gamma	84.008933
loop_
_atom_site_label
_atom_site_type_symbol
_atom_site_fract_x
_atom_site_fract_y
_atom_site_fract_z
O1	O	1.684270	0.117994	-0.115573
O2	O	1.314705	0.129112	-0.115589
O3	O	1.509590	0.001726	-0.115579
O4	O	1.489385	0.245380	-0.115583
O5	O	1.509563	0.001729	0.115712
O6	O	1.314678	0.129115	0.115702
O7	O	1.684244	0.117997	0.115719
Zn8	Zn	1.499457	0.123556	0.152433
Zn9	Zn	1.499492	0.123553	-0.152303
O10	O	1.489359	0.245383	0.115709
C11	C	1.267400	0.128280	0.000055
C12	C	1.126486	0.125785	0.000048
C13	C	1.508741	-0.029472	0.000064
C14	C	1.506237	-0.122438	0.000056
C15	C	0.944373	0.030202	0.000589
C16	C	1.090956	0.032730	0.000054
C17	C	1.064213	0.170565	-0.132026
C18	C	0.917712	0.167390	-0.132122
C19	C	0.917167	0.169286	0.130899
C20	C	1.064138	0.170143	0.132630
C21	C	1.497244	-0.460239	0.000060
C22	C	1.358450	-0.413635	-0.000465
C23	C	1.360955	-0.316930	0.000057
C24	C	1.501705	-0.292652	0.000057
C25	C	1.570147	-0.333318	0.132137
C26	C	1.566661	-0.429975	0.132247
C27	C	1.569558	-0.430319	-0.130774
C28	C	1.569525	-0.333374	-0.132520
C29	C	1.504233	-0.197939	0.000060
C30	C	1.494719	-0.554952	0.000067
C31	C	1.731549	0.118829	0.000072
C32	C	1.872462	0.121324	0.000070
C33	C	1.490207	0.276581	0.000063
C34	C	1.492711	0.369547	0.000062
N35	N	1.499442	0.123558	0.360408
N36	N	1.499517	0.123544	-0.360278
C37	C	1.394879	0.191473	0.580772
C38	C	1.395104	0.191727	0.419605
C39	C	1.631892	0.143433	0.418863
C40	C	1.631321	0.143914	0.580081
C41	C	1.472879	0.035546	0.580319
C42	C	1.469825	0.036116	0.419092
H43	H	0.916282	-0.006559	0.095307
H44	H	1.519485	-0.306426	-0.230229
C45	C	1.417029	0.278033	0.634946
C46	C	1.310084	0.311543	0.710554
C47	C	1.330456	0.391274	0.760497
H48	H	1.430483	0.313958	0.558885
H49	H	1.489934	0.273457	0.693625
H50	H	1.237201	0.316124	0.651878
H51	H	1.296612	0.275641	0.786635
H52	H	1.403360	0.386698	0.819176
H53	H	1.343911	0.427192	0.684428
H54	H	1.257903	0.414017	0.811813
C55	C	1.506731	-0.296030	0.263315
C56	C	1.460082	-0.360024	0.341538
C57	C	1.401662	-0.325709	0.462392
H58	H	1.438146	-0.255426	0.238740
H59	H	1.567345	-0.269956	0.316828
H60	H	1.399472	-0.386084	0.288036
H61	H	1.528642	-0.400632	0.366149
H62	H	1.462277	-0.299635	0.515905
H63	H	1.333083	-0.285105	0.437803
H64	H	1.370015	-0.369124	0.515487
H65	H	1.302987	-0.432500	-0.095181
H66	H	1.672167	-0.317398	-0.140494
H67	H	1.549186	-0.015013	0.618439
H68	H	1.673552	-0.318574	0.137049
C69	C	1.284694	-0.440017	0.125172
C70	C	1.246465	-0.369288	0.206608
C71	C	1.178506	-0.393558	0.322345
H72	H	1.337626	-0.479501	0.178772
H73	H	1.211574	-0.464965	0.094835
H74	H	1.319575	-0.344352	0.236946
H75	H	1.193518	-0.329797	0.153050
H76	H	1.105386	-0.418506	0.292007
H77	H	1.231446	-0.433042	0.375932
H78	H	1.152549	-0.345571	0.377606
H79	H	0.914680	-0.006405	-0.093600
C80	C	1.509281	-0.458189	-0.264303
C81	C	1.599799	-0.509931	-0.340012
C82	C	1.544298	-0.535629	-0.463007
H83	H	1.480472	-0.410243	-0.318388
H84	H	1.439045	-0.488487	-0.242289
H85	H	1.670011	-0.479633	-0.362029
H86	H	1.628615	-0.557889	-0.285969
H87	H	1.474063	-0.565927	-0.440993
H88	H	1.515491	-0.487678	-0.517079
H89	H	1.605702	-0.570744	-0.514384
H90	H	1.105538	0.137429	0.230339
C91	C	1.147400	-0.014709	-0.126236
C92	C	1.234389	-0.081674	-0.082454
C93	C	1.286397	-0.125399	-0.198760
H94	H	1.190031	0.022185	-0.182888
H95	H	1.081032	-0.035854	-0.178168
H96	H	1.300747	-0.060529	-0.030544
H97	H	1.191788	-0.118588	-0.025817
H98	H	1.220029	-0.146545	-0.250692
H99	H	1.329023	-0.088499	-0.255404
H100	H	1.345416	-0.170844	-0.169070
H101	H	1.134043	-0.002504	0.094731
H102	H	1.541080	-0.016861	0.378801
C103	C	1.702614	-0.472011	0.140334
C104	C	1.787529	-0.410348	0.145096
C105	C	1.912774	-0.449035	0.152573
H106	H	1.720308	-0.506419	0.060724
H107	H	1.712283	-0.505667	0.221811
H108	H	1.777865	-0.376706	0.063628
H109	H	1.769876	-0.375936	0.224702
H110	H	1.922443	-0.482691	0.234049
H111	H	1.930455	-0.483442	0.072960
H112	H	1.970403	-0.407202	0.155817
H113	H	1.306770	-0.289388	0.094893
H114	H	1.412105	0.257014	0.381025
C115	C	0.880972	0.123193	-0.263802
C116	C	0.990630	0.099601	-0.342530
C117	C	0.956844	0.058872	-0.463834
H118	H	0.823454	0.160189	-0.316765
H119	H	0.841201	0.074558	-0.239715
H120	H	1.030381	0.148228	-0.366620
H121	H	1.048160	0.062595	-0.289609
H122	H	0.917073	0.010238	-0.439746
H123	H	0.899325	0.095873	-0.516785
H124	H	1.031242	0.042853	-0.517259
H125	H	1.671890	-0.461468	-0.131661
C126	C	1.738025	0.079213	0.367526
C127	C	1.686217	0.020480	0.282254
C128	C	1.783947	-0.038685	0.234921
H129	H	1.779363	0.051181	0.444797
H130	H	1.798120	0.106955	0.315963
H131	H	1.626144	-0.007259	0.333816
H132	H	1.644888	0.048487	0.204963
H133	H	1.844042	-0.010944	0.183358
H134	H	1.825279	-0.066711	0.312199
H135	H	1.748811	-0.078538	0.177049
H136	H	1.654793	0.208115	0.617669
H137	H	1.296116	0.179697	0.619579
C138	C	1.346811	0.010287	0.634299
C139	C	1.265487	-0.000409	0.522031
C140	C	1.149344	-0.023677	0.571704
H141	H	1.308399	0.053006	0.693971
H142	H	1.361605	-0.040973	0.684463
H143	H	1.250690	0.050845	0.471891
H144	H	1.303858	-0.043131	0.462349
H145	H	1.164138	-0.074938	0.621867
H146	H	1.110944	0.019044	0.631375
H147	H	1.094155	-0.030946	0.495538
C148	C	1.664006	0.228119	0.365300
C149	C	1.678324	0.281790	0.477953
C150	C	1.707917	0.359807	0.428670
H151	H	1.597097	0.252028	0.306947
H152	H	1.741300	0.220724	0.313822
H153	H	1.601041	0.289186	0.529408
H154	H	1.745237	0.257908	0.536317
H155	H	1.785210	0.352412	0.377192
H156	H	1.641003	0.383707	0.370317
H157	H	1.717647	0.396229	0.505097
H158	H	0.868824	0.234313	-0.138118
C159	C	1.263722	0.175826	0.367172
C160	C	1.183425	0.165894	0.480653
C161	C	1.062376	0.151261	0.432414
H162	H	1.270509	0.126248	0.312131
H163	H	1.229280	0.222228	0.312525
H164	H	1.217859	0.119497	0.535277
H165	H	1.176600	0.215465	0.535705
H166	H	1.027933	0.197663	0.377768
H167	H	1.069176	0.101683	0.377374
H168	H	1.007876	0.144528	0.509403
H169	H	1.087430	0.237986	0.140604
H170	H	1.085627	0.238902	-0.136941
H171	H	1.107240	0.139456	-0.230318
H172	H	1.711616	0.096432	0.619073
H173	H	1.516730	-0.448574	0.230978
H174	H	1.372394	0.021051	0.380888
C175	C	0.853218	0.258970	0.132034
C176	C	0.946597	0.315078	0.127714
C177	C	0.887737	0.397700	0.128732
H178	H	0.804066	0.268227	0.214445
H179	H	0.799112	0.267703	0.053219
H180	H	1.000682	0.306349	0.206521
H181	H	0.995755	0.305849	0.045307
H182	H	0.833630	0.406433	0.049917
H183	H	0.838586	0.406948	0.211145
H184	H	0.951085	0.435779	0.125788
H185	H	1.307153	-0.288831	-0.094623
H186	H	0.886024	0.139172	0.231011
