data_functionalizedCrystal
_audit_creation_method	'MofGen! by Chris Wilmer'
_symmetry_space_group_name_H-M	'P1'
_symmetry_Int_Tables_number	1
_symmetry_cell_setting	triclinic
loop_
_symmetry_equiv_pos_as_xyz
  x,y,z
_cell_length_a	14.560432
_cell_length_b	23.196402
_cell_length_c	23.196401
_cell_angle_alpha	60.008822
_cell_angle_beta	90.013895
_cell_angle_gamma	60.001874
loop_
_atom_site_label
_atom_site_type_symbol
_atom_site_fract_x
_atom_site_fract_y
_atom_site_fract_z
Zr1	Zr	0.884748	0.631013	-0.075628
O2	O	0.738072	0.751278	-0.167675
O3	O	0.929708	0.510748	-0.047415
O4	O	0.929667	0.631015	-0.167680
O5	O	0.738149	0.631009	0.047462
O6	O	1.080805	0.631018	-0.167680
O7	O	0.738113	0.631011	-0.047409
O8	O	1.080878	0.415882	0.047452
O9	O	0.738077	0.846145	-0.167671
O10	O	1.061680	0.560217	-0.035378
O11	O	0.948914	0.560214	0.035424
O12	O	0.948867	0.701813	-0.106173
O13	O	0.836101	0.701810	-0.035372
Zr14	Zr	1.125853	0.631015	0.075680
Zr15	Zr	1.125795	0.631017	-0.075629
Zr16	Zr	0.884805	0.631011	0.075680
Zr17	Zr	0.884754	0.782316	-0.075622
Zr18	Zr	1.125846	0.479712	0.075674
O19	O	1.080892	0.751280	0.047467
O20	O	1.080810	0.751283	-0.167675
O21	O	0.738154	0.751274	0.047467
O22	O	1.272528	0.510751	0.167726
O23	O	1.272446	0.510754	-0.047415
O24	O	0.929790	0.510745	0.167727
O25	O	1.272451	0.631019	-0.047410
O26	O	1.080933	0.631013	0.167732
O27	O	0.929795	0.631010	0.167732
O28	O	1.272487	0.631018	0.047461
O29	O	0.929677	0.846148	-0.167671
O30	O	1.080924	0.415880	0.167723
O31	O	1.272524	0.415883	0.167722
O32	O	1.272478	0.415885	0.047452
O33	O	0.738122	0.846143	-0.047400
O34	O	0.929723	0.846146	-0.047400
O35	O	1.061734	0.560215	0.106225
O36	O	1.174499	0.560218	0.035423
O37	O	1.061686	0.701814	-0.035372
O38	O	0.948921	0.701811	0.035430
C39	C	1.005292	0.441758	0.000018
C40	C	1.005289	0.377526	0.000015
C41	C	1.064144	0.347357	-0.036945
C42	C	1.064155	0.286996	-0.036940
C43	C	1.005289	0.256818	0.000017
C44	C	0.946432	0.286991	0.036985
C45	C	0.946432	0.347345	0.036984
C46	C	0.906667	0.194787	-0.005257
C47	C	0.906664	0.134438	-0.005262
C48	C	1.005290	0.070663	0.000024
C49	C	1.103919	0.067253	0.005299
C50	C	1.103919	0.127607	0.005298
C51	C	1.005283	0.191374	0.000022
C52	C	1.064162	-0.024957	-0.036932
C53	C	1.064176	-0.085323	-0.036921
C54	C	0.946442	-0.085321	0.036999
C55	C	0.946439	-0.024962	0.036993
C56	C	1.005296	0.005219	0.000024
C57	C	0.703787	0.631009	0.000026
C58	C	0.601456	0.631008	0.000026
C59	C	0.719217	0.483180	0.073930
C60	C	0.730021	0.409268	0.110879
C61	C	0.633868	0.409272	0.110877
C62	C	0.526904	0.483195	0.073924
C63	C	0.516100	0.557106	0.036976
C64	C	0.612261	0.557094	0.036980
C65	C	0.398341	0.704932	-0.036923
C66	C	0.494492	0.704930	-0.036926
C67	C	0.291376	0.778855	-0.073876
C68	C	0.280571	0.852768	-0.110830
C69	C	0.376732	0.852761	-0.110827
C70	C	0.483688	0.778842	-0.073875
C71	C	1.306813	0.631019	0.000026
C72	C	1.409144	0.631021	0.000025
C73	C	1.005228	0.631017	-0.189239
C74	C	1.005204	0.631018	-0.253473
C75	C	1.005308	0.820270	0.000034
C76	C	1.005311	0.884502	0.000037
C77	C	0.946322	0.704927	-0.320600
C78	C	0.946350	0.704929	-0.380956
C79	C	1.005245	0.631016	-0.374179
C80	C	1.064140	0.557097	-0.307040
C81	C	1.064119	0.557098	-0.246687
C82	C	0.996880	0.574388	-0.441499
C83	C	0.996892	0.574390	-0.501853
C84	C	1.005317	0.631010	-0.560327
C85	C	1.013705	0.687641	-0.558448
C86	C	1.013684	0.687642	-0.498094
C87	C	1.005275	0.631007	-0.439618
C88	C	0.946463	0.704926	-0.692901
C89	C	0.946500	0.704924	-0.753256
C90	C	1.064282	0.557090	-0.679338
C91	C	1.064253	0.557094	-0.618985
C92	C	1.005337	0.631014	-0.625772
C93	C	1.005372	0.631011	0.189290
C94	C	1.005397	0.631010	0.253525
C95	C	1.306805	0.441763	0.000017
C96	C	1.409133	0.377533	0.000015
C97	C	1.005364	0.441755	0.189282
C98	C	1.005386	0.377522	0.253514
C99	C	1.306877	0.441760	0.189282
C100	C	1.409230	0.377529	0.253513
C101	C	0.703723	0.820268	-0.189230
C102	C	0.601371	0.884500	-0.253462
C103	C	0.703795	0.820265	0.000034
C104	C	0.601467	0.884496	0.000037
C105	C	1.005236	0.820273	-0.189230
C106	C	1.005215	0.884506	-0.253462
C107	C	1.398297	0.347369	-0.036951
C108	C	1.494436	0.287026	-0.036968
C109	C	1.601410	0.256844	-0.000015
C110	C	1.612244	0.287014	0.036952
C111	C	1.516106	0.347359	0.036964
C112	C	1.064286	0.347358	0.320642
C113	C	1.064302	0.287013	0.381000
C114	C	1.005424	0.256829	0.374229
C115	C	0.946516	0.286999	0.307094
C116	C	0.946494	0.347347	0.246737
C117	C	1.516168	0.347367	0.246720
C118	C	1.612348	0.287023	0.307066
C119	C	1.601588	0.256838	0.374206
C120	C	1.494638	0.287007	0.380999
C121	C	1.398460	0.347353	0.320653
C122	C	0.494432	0.914669	-0.246668
C123	C	0.398252	0.975031	-0.307015
C124	C	0.409013	1.005219	-0.374155
C125	C	0.515962	0.975047	-0.380947
C126	C	0.612140	0.914690	-0.320601
C127	C	0.612304	0.914666	0.036996
C128	C	0.516165	0.975025	0.036996
C129	C	0.409191	1.005209	0.000041
C130	C	0.398357	0.975037	-0.036922
C131	C	0.494495	0.914683	-0.036926
C132	C	1.064105	0.914671	-0.246669
C133	C	1.064106	0.975017	-0.307015
C134	C	1.005211	1.005200	-0.374155
C135	C	0.946319	0.975029	-0.380948
C136	C	0.946324	0.914681	-0.320601
H137	H	1.184226	0.124826	0.009596
H138	H	1.311202	0.371943	-0.067051
C139	C	0.881677	0.253795	0.077636
N140	N	0.832904	0.228790	0.108257
H141	H	1.524945	0.371911	0.067070
C142	C	0.645753	0.327966	0.151522
N143	N	0.654705	0.266727	0.182134
H144	H	1.112069	0.496910	-0.192027
C145	C	0.280619	1.008208	-0.299527
N146	N	0.192020	1.033195	-0.293886
H147	H	0.485649	0.890093	-0.192005
C148	C	1.280830	0.380523	0.328138
N149	N	1.192232	0.405505	0.333781
C150	C	1.129121	0.253829	0.454842
N151	N	1.177946	0.228835	0.510458
C152	C	0.881760	0.253783	0.299658
N153	N	0.832992	0.228759	0.294059
C154	C	0.881519	0.881517	-0.328086
N155	N	0.832701	0.856543	-0.333729
H156	H	1.112072	0.371927	-0.067046
C157	C	0.729966	0.881478	0.077649
N158	N	0.818588	0.856489	0.108267
H159	H	0.898367	0.999614	-0.435621
H160	H	1.112065	0.890105	-0.192005
C161	C	0.303202	1.071607	-0.440531
N162	N	0.223502	1.121608	-0.490523
C163	C	0.280675	1.008237	-0.077559
N164	N	0.192033	1.033239	-0.108159
C165	C	1.482493	0.253844	-0.077628
N166	N	1.473494	0.228851	-0.108251
H167	H	0.898555	0.765112	-0.807916
H168	H	1.005215	1.054340	-0.423287
H169	H	1.699355	0.262431	0.067037
H170	H	0.524710	0.999634	-0.435619
H171	H	0.898534	0.371899	0.192081
C172	C	1.005471	0.190436	0.440631
N173	N	1.005517	0.140425	0.490648
H174	H	0.898399	0.765116	-0.435621
H175	H	0.699211	0.890127	-0.326141
C176	C	0.185608	0.778856	-0.073877
N177	N	0.105940	0.778859	-0.073880
C178	C	1.707398	0.190449	0.440582
N179	N	1.787098	0.140442	0.490574
H180	H	1.679682	0.207706	-0.000030
C181	C	1.528032	0.380563	0.172871
N182	N	1.536978	0.405567	0.117250
H183	H	1.112083	0.262428	-0.067038
C184	C	0.987608	0.512099	-0.377180
N185	N	0.980623	0.465185	-0.328736
C186	C	0.528107	1.008197	0.077667
N187	N	0.537106	1.033178	0.108302
C188	C	1.212418	-0.002900	0.011117
N189	N	1.294137	-0.055740	0.015499
H190	H	1.112233	0.371927	0.326168
C191	C	1.482820	0.253788	0.454859
N192	N	1.473923	0.228761	0.510493
H193	H	1.112091	-0.000385	-0.067032
H194	H	1.699422	0.262466	0.301523
H195	H	0.330918	1.054353	0.000050
C196	C	1.022927	0.749928	-0.496025
N197	N	1.029896	0.796840	-0.494465
H198	H	1.112109	-0.109890	-0.067016
C199	C	0.881707	0.008216	0.077661
N200	N	0.832958	0.033200	0.108301
C201	C	0.798175	0.138190	-0.011057
N202	N	0.716459	0.141016	-0.015417
C203	C	0.482556	0.881493	-0.077577
N204	N	0.473555	0.856496	-0.108196
H205	H	0.898513	-0.109892	0.067090
C206	C	1.129015	0.475786	-0.545140
N207	N	1.177798	0.414542	-0.489519
C208	C	0.798164	0.264937	-0.011071
N209	N	0.716443	0.317772	-0.015448
H210	H	0.898502	0.371909	0.067082
H211	H	1.020560	0.733749	-0.606060
H212	H	0.797515	0.483169	0.073930
H213	H	1.112061	0.999576	-0.301471
C214	C	0.847685	0.327957	0.151519
N215	N	0.936308	0.266713	0.182129
C216	C	1.128921	0.475793	-0.299587
N217	N	1.177718	0.414552	-0.293972
C218	C	0.421137	0.483194	0.073931
N219	N	0.341471	0.483194	0.073934
H220	H	0.898353	0.765119	-0.326133
C221	C	0.364834	0.934071	-0.151475
N222	N	0.355868	0.995316	-0.182093
C223	C	0.162912	0.934074	-0.151474
N224	N	0.074286	0.995315	-0.182091
H225	H	0.898491	0.765116	-0.698428
C226	C	0.589467	0.778827	-0.073868
N227	N	0.669143	0.778813	-0.073858
H228	H	1.112237	0.496909	-0.673819
H229	H	0.990056	0.528280	-0.503378
