data_functionalizedCrystal
_audit_creation_method	'MofGen! by Chris Wilmer'
_symmetry_space_group_name_H-M	'P1'
_symmetry_Int_Tables_number	1
_symmetry_cell_setting	triclinic
loop_
_symmetry_equiv_pos_as_xyz
  x,y,z
_cell_length_a	10.654550
_cell_length_b	17.699083
_cell_length_c	16.776229
_cell_angle_alpha	90.004308
_cell_angle_beta	90.009291
_cell_angle_gamma	83.883958
loop_
_atom_site_label
_atom_site_type_symbol
_atom_site_fract_x
_atom_site_fract_y
_atom_site_fract_z
O1	O	1.665983	0.106301	0.066355
O2	O	1.300327	0.116429	0.066343
O3	O	1.493486	0.001241	0.066343
O4	O	1.472825	0.221488	0.066356
O5	O	1.493464	0.001241	-0.066234
O6	O	1.300306	0.116428	-0.066234
O7	O	1.665961	0.106300	-0.066221
Zn8	Zn	1.483130	0.111364	-0.087277
Zn9	Zn	1.483159	0.111365	0.087399
O10	O	1.472803	0.221488	-0.066221
C11	C	1.253531	0.115685	0.000053
C12	C	1.114127	0.113460	0.000048
C13	C	1.492735	-0.026961	0.000054
C14	C	1.490514	-0.110993	0.000054
C15	C	1.033454	0.181281	0.000064
C16	C	0.902470	0.179185	0.000077
C17	C	0.932845	0.041443	0.000063
C18	C	1.063826	0.043539	0.000043
C19	C	1.015917	0.260805	0.000075
C20	C	0.884933	0.258710	0.000089
C21	C	1.603894	-0.158893	0.000057
C22	C	1.601799	-0.237850	0.000063
C23	C	1.486324	-0.268905	0.000062
C24	C	1.372935	-0.220998	0.000062
C25	C	1.375031	-0.142043	0.000060
C26	C	1.364481	-0.539415	0.000068
C27	C	1.362394	-0.618376	0.000067
C28	C	1.591249	-0.635222	0.000071
C29	C	1.593345	-0.556266	0.000070
C30	C	1.479957	-0.508367	0.000073
C31	C	1.482229	-0.422753	0.000067
C32	C	1.484050	-0.354517	0.000062
C33	C	1.712757	0.107044	0.000071
C34	C	1.852161	0.109269	0.000081
C35	C	1.473554	0.249690	0.000069
C36	C	1.475775	0.333722	0.000075
N37	N	1.483119	0.111363	-0.206488
C38	C	1.559137	0.157695	-0.248196
C39	C	1.559151	0.157693	-0.331648
C40	C	1.483140	0.111361	-0.373391
C41	C	1.407120	0.065024	-0.331677
C42	C	1.407113	0.065024	-0.248226
C43	C	1.407145	0.065025	-0.668224
C44	C	1.407154	0.065031	-0.751681
C45	C	1.559182	0.157694	-0.751646
C46	C	1.559176	0.157694	-0.668195
C47	C	1.483161	0.111354	-0.626489
C48	C	1.483149	0.111356	-0.536000
C49	C	1.483145	0.111362	-0.463878
N50	N	1.483179	0.111360	0.206610
H51	H	0.891873	-0.015484	0.000071
H52	H	1.051138	0.286127	0.057316
O53	O	0.823846	0.290545	-0.075719
H54	H	0.897386	0.309121	-0.115921
H55	H	1.694125	-0.276847	0.000064
O56	O	1.728443	-0.125399	0.000066
H57	H	1.806930	-0.171975	0.000079
H58	H	0.842685	0.288674	0.055578
H59	H	1.345237	0.027297	-0.365671
O60	O	1.325148	0.015018	-0.203261
H61	H	1.385510	-0.025327	-0.165262
O62	O	1.242183	-0.487763	0.000052
H63	H	1.186906	-0.498881	0.054079
O64	O	1.641151	0.207669	-0.623171
H65	H	1.741573	0.191760	-0.639169
O66	O	1.641185	0.207665	-0.796637
H67	H	1.613659	0.268006	-0.780628
O68	O	1.237840	-0.651876	0.000071
H69	H	1.159345	-0.605305	0.000082
O70	O	1.717892	-0.522769	0.000083
H71	H	1.796383	-0.569343	0.000097
H72	H	1.683575	-0.674231	0.000072
H73	H	1.278912	-0.246289	0.000065
O74	O	1.325207	0.015035	-0.796709
H75	H	1.272368	-0.017201	-0.753689
O76	O	1.252744	-0.090373	0.000049
H77	H	1.172093	-0.125231	0.000038
O78	O	1.641119	0.207668	-0.203174
H79	H	1.693989	0.239879	-0.246200
O80	O	1.641135	0.207667	-0.376636
H81	H	1.693976	0.239891	-0.333590
O82	O	1.054011	0.301954	-0.073457
H83	H	1.006241	0.360832	-0.073444
O84	O	1.325146	0.015053	-0.623250
H85	H	1.224733	0.030972	-0.639280
O86	O	1.150844	-0.029609	0.000013
H87	H	1.093857	-0.078578	0.000018
