data_functionalizedCrystal
_audit_creation_method	'MofGen! by Chris Wilmer'
_symmetry_space_group_name_H-M	'P1'
_symmetry_Int_Tables_number	1
_symmetry_cell_setting	triclinic
loop_
_symmetry_equiv_pos_as_xyz
  x,y,z
_cell_length_a	26.809956
_cell_length_b	14.044220
_cell_length_c	14.044190
_cell_angle_alpha	86.809672
_cell_angle_beta	90.000014
_cell_angle_gamma	89.995344
loop_
_atom_site_label
_atom_site_type_symbol
_atom_site_fract_x
_atom_site_fract_y
_atom_site_fract_z
O1	O	0.041437	-1.277180	0.230156
O2	O	0.541437	-0.777180	0.730156
O3	O	0.041449	-1.000508	0.221850
O4	O	0.541449	-0.500508	0.721850
O5	O	0.041433	-1.134688	0.087666
O6	O	0.541433	-0.634688	0.587666
O7	O	0.041452	-1.143001	0.364339
O8	O	0.541452	-0.643001	0.864339
O9	O	-0.041526	-1.134662	0.087686
O10	O	0.458474	-0.634662	0.587686
O11	O	-0.041510	-1.000483	0.221870
O12	O	0.458490	-0.500483	0.721870
O13	O	-0.041523	-1.277154	0.230176
O14	O	0.458477	-0.777154	0.730176
Zn15	Zn	-0.054688	-1.138814	0.226026
Zn16	Zn	0.445312	-0.638814	0.726026
Zn17	Zn	0.054614	-1.138848	0.226000
Zn18	Zn	0.554614	-0.638848	0.726000
O19	O	-0.041507	-1.142975	0.364359
O20	O	0.458493	-0.642975	0.864359
C21	C	-0.000029	-0.964874	0.218224
C22	C	0.499971	-0.464874	0.718224
C23	C	-0.000025	-0.858731	0.207380
C24	C	0.499975	-0.358731	0.707380
C25	C	-0.000048	-1.131039	0.052054
C26	C	0.499952	-0.631039	0.552054
C27	C	-0.000052	-1.120191	-0.054089
C28	C	0.499948	-0.620191	0.445911
N29	N	-0.129284	-1.138798	0.226044
N30	N	0.370716	-0.638798	0.726044
C31	C	-0.473917	-1.198256	0.166598
C32	C	0.026083	-0.698256	0.666598
C33	C	-0.682795	-1.198278	0.166586
C34	C	-0.182795	-0.698278	0.666586
O35	O	-0.709804	-1.248793	0.116046
O36	O	-0.209804	-0.748793	0.616046
N37	N	-0.708911	-1.138852	0.225979
N38	N	-0.208911	-0.638852	0.725979
C39	C	-0.682805	-1.079412	0.285375
C40	C	-0.182805	-0.579412	0.785375
O41	O	-0.709811	-1.028860	0.335885
O42	O	-0.209811	-0.528860	0.835885
C43	C	-0.473928	-1.079386	0.285382
C44	C	0.026072	-0.579386	0.785382
C45	C	-0.447814	-1.138823	0.225992
C46	C	0.052186	-0.638823	0.725992
C47	C	-0.447803	-1.257687	0.107213
C48	C	0.052197	-0.757687	0.607213
C49	C	-0.395587	-1.257685	0.107220
C50	C	0.104413	-0.757685	0.607220
C51	C	-0.369484	-1.198252	0.166613
C52	C	0.130516	-0.698252	0.666613
C53	C	-0.395598	-1.138821	0.225999
C54	C	0.104402	-0.638821	0.725999
C55	C	-0.447823	-1.019942	0.344772
C56	C	0.052177	-0.519942	0.844772
C57	C	-0.395600	-1.019939	0.344767
C58	C	0.104400	-0.519939	0.844767
C59	C	-0.369487	-1.079376	0.285377
C60	C	0.130513	-0.579376	0.785377
C61	C	-0.317279	-1.079385	0.285400
C62	C	0.182721	-0.579385	0.785400
N63	N	-0.291163	-1.138811	0.226007
N64	N	0.208837	-0.638811	0.726007
C65	C	-0.317265	-1.198244	0.166614
C66	C	0.182735	-0.698244	0.666614
C67	C	-0.792468	-1.079431	0.285368
C68	C	-0.292468	-0.579431	0.785368
C69	C	-0.844687	-1.079438	0.285368
C70	C	-0.344687	-0.579438	0.785368
C71	C	-0.844673	-1.198303	0.166577
C72	C	-0.344673	-0.698303	0.666577
C73	C	-0.792453	-1.198300	0.166583
C74	C	-0.292453	-0.698300	0.666583
C75	C	-0.766352	-1.138857	0.225975
C76	C	-0.266352	-0.638857	0.725975
C77	C	-0.207607	-1.198236	0.166635
C78	C	0.292393	-0.698236	0.666635
C79	C	-0.155387	-1.198231	0.166650
C80	C	0.344613	-0.698231	0.666650
C81	C	-0.155405	-1.079364	0.285437
C82	C	0.344595	-0.579364	0.785437
C83	C	-0.207621	-1.079371	0.285425
C84	C	0.292379	-0.579371	0.785425
C85	C	-0.233721	-1.138811	0.226017
C86	C	0.266279	-0.638811	0.726017
O87	O	-0.290237	-1.028889	0.335906
O88	O	0.209763	-0.528889	0.835906
O89	O	-0.290250	-1.248773	0.116096
O90	O	0.209750	-0.748773	0.616096
C91	C	-0.526133	-1.198258	0.166591
C92	C	-0.026133	-0.698258	0.666591
C93	C	-0.552247	-1.138827	0.225977
C94	C	-0.052247	-0.638827	0.725977
C95	C	-0.526144	-1.079394	0.285370
C96	C	-0.026144	-0.579394	0.785370
C97	C	-0.604466	-1.138835	0.225976
C98	C	-0.104466	-0.638835	0.725976
C99	C	-0.630569	-1.198268	0.166583
C100	C	-0.130569	-0.698268	0.666583
C101	C	-0.604452	-1.257694	0.107190
C102	C	-0.104452	-0.757694	0.607190
C103	C	-0.552236	-1.257691	0.107197
C104	C	-0.052236	-0.757691	0.607197
C105	C	-0.552261	-1.019968	0.344763
C106	C	-0.052261	-0.519968	0.844763
C107	C	-0.604477	-1.019976	0.344752
C108	C	-0.104477	-0.519976	0.844752
C109	C	-0.630580	-1.079409	0.285358
C110	C	-0.130580	-0.579409	0.785358
N111	N	0.129210	-1.138872	0.225975
N112	N	0.629210	-0.638872	0.725975
C113	C	-0.000043	-1.312789	0.233801
C114	C	0.499957	-0.812789	0.733801
C115	C	-0.000044	-1.418932	0.244646
C116	C	0.499956	-0.918932	0.744646
C117	C	-0.000036	-0.664392	0.187553
C118	C	0.499964	-0.164392	0.687553
C119	C	-0.000033	-0.613264	0.264468
C120	C	0.499967	-0.113264	0.764468
C121	C	-0.000039	-0.505128	0.253436
C122	C	0.499961	-0.005128	0.753436
C123	C	-0.000030	-0.772539	0.198583
C124	C	0.499970	-0.272539	0.698583
C125	C	-0.000035	-1.177292	-0.299547
C126	C	0.499965	-0.677292	0.200453
C127	C	-0.000035	-1.100375	-0.248422
C128	C	0.499965	-0.600375	0.251578
C129	C	-0.000044	-1.111404	-0.140285
C130	C	0.499956	-0.611404	0.359715
C131	C	-0.000025	-1.166265	-0.407694
C132	C	0.499975	-0.666265	0.092306
C133	C	-0.000025	-1.146624	0.399971
C134	C	0.499975	-0.646624	0.899971
C135	C	-0.000018	-1.157472	0.506114
C136	C	0.499982	-0.657472	1.006114
H137	H	-0.134126	-1.246635	0.118288
H138	H	0.365874	-0.746635	0.618288
H139	H	-0.000043	-1.251418	-0.262106
H140	H	0.499957	-0.751418	0.237894
H141	H	-0.000044	-0.626954	0.113425
H142	H	0.499956	-0.126954	0.613425
Br143	Br	-0.360153	-1.338346	0.026612
Br144	Br	0.139847	-0.838346	0.526612
Br145	Br	-0.483219	-1.338355	0.026595
Br146	Br	0.016781	-0.838355	0.526595
Br147	Br	-0.243020	-1.278904	0.086007
Br148	Br	0.256980	-0.778904	0.586007
Br149	Br	-0.880109	-1.278962	0.085973
Br150	Br	-0.380109	-0.778962	0.585973
Br151	Br	-0.757019	-1.278966	0.085980
Br152	Br	-0.257019	-0.778966	0.585980
H153	H	-0.865945	-1.031051	0.333740
H154	H	-0.365945	-0.531051	0.833740
Br155	Br	-0.757050	-0.998753	0.365980
Br156	Br	-0.257050	-0.498753	0.865980
H157	H	-0.000029	-1.026243	-0.285865
H158	H	0.499971	-0.526243	0.214135
H159	H	-0.374351	-0.971530	0.393130
H160	H	0.125649	-0.471530	0.893130
Br161	Br	-0.483252	-0.939274	0.425376
Br162	Br	0.016748	-0.439274	0.925376
H163	H	-0.228883	-1.030983	0.333796
H164	H	0.271117	-0.530983	0.833796
H165	H	-0.134144	-1.030977	0.333797
H166	H	0.365856	-0.530977	0.833797
H167	H	-0.530978	-1.306090	0.058836
H168	H	-0.030978	-0.806090	0.558836
H169	H	-0.625713	-1.306090	0.058833
H170	H	-0.125713	-0.806090	0.558833
Br171	Br	-0.000023	-0.675663	0.388031
Br172	Br	0.499977	-0.175663	0.888031
H173	H	-0.531012	-0.971569	0.393127
H174	H	-0.031012	-0.471569	0.893127
Br175	Br	-0.639911	-0.939311	0.425366
Br176	Br	-0.139911	-0.439311	0.925366
