data_functionalizedCrystal
_audit_creation_method	'MofGen! by Chris Wilmer'
_symmetry_space_group_name_H-M	'P1'
_symmetry_Int_Tables_number	1
_symmetry_cell_setting	triclinic
loop_
_symmetry_equiv_pos_as_xyz
  x,y,z
_cell_length_a	15.995350
_cell_length_b	8.559649
_cell_length_c	7.088929
_cell_angle_alpha	84.655815
_cell_angle_beta	96.207399
_cell_angle_gamma	76.635520
loop_
_atom_site_label
_atom_site_type_symbol
_atom_site_fract_x
_atom_site_fract_y
_atom_site_fract_z
O1	O	1.088100	0.222368	-0.158820
O2	O	0.842687	0.247805	-0.158858
O3	O	0.987015	0.002484	-0.158834
O4	O	0.943773	0.467689	-0.158844
O5	O	1.006308	-0.030375	0.159145
O6	O	0.861980	0.214946	0.159120
O7	O	1.107393	0.189509	0.159159
Cu8	Cu	0.986448	0.199227	0.188173
Cu9	Cu	0.963632	0.238087	-0.187873
O10	O	0.963065	0.434830	0.159134
C11	C	0.999938	-0.073475	0.000152
C12	C	1.009692	-0.250854	0.000143
C13	C	0.821206	0.230325	0.000126
C14	C	0.728458	0.227174	0.000111
C15	C	0.391440	0.215849	0.000151
C16	C	0.450152	0.041064	0.000865
C17	C	0.546595	0.044292	0.000135
C18	C	0.558639	0.221466	0.000132
C19	C	0.500994	0.326403	-0.181443
C20	C	0.404632	0.322029	-0.181582
C21	C	0.426000	0.288272	0.180019
C22	C	0.523093	0.287984	0.182406
C23	C	0.653130	0.224651	0.000115
C24	C	0.296947	0.212671	0.000155
C25	C	1.128874	0.206990	0.000170
C26	C	1.221622	0.210142	0.000173
C27	C	0.950142	0.510789	0.000144
C28	C	0.940387	0.688170	0.000140
N29	N	1.002502	0.171895	0.452664
N30	N	0.947586	0.265407	-0.452364
H31	H	1.076495	-0.334363	0.000169
C32	C	0.850143	-0.199040	0.000117
C33	C	0.797457	-0.223139	0.165227
C34	C	0.707212	-0.110336	0.165203
C35	C	0.669651	0.026565	0.000070
C36	C	0.722338	0.050670	-0.165052
C37	C	0.812583	-0.062132	-0.165029
H38	H	0.825261	-0.324487	0.287479
H39	H	0.668210	-0.128181	0.287439
H40	H	0.602846	0.110068	0.000053
H41	H	0.694534	0.152018	-0.287304
H42	H	0.851585	-0.044287	-0.287264
C43	C	0.601559	-0.065411	0.175954
C44	C	0.583294	-0.029951	0.378565
C45	C	0.638253	-0.139673	0.554383
C46	C	0.711476	-0.284856	0.527590
C47	C	0.729743	-0.320322	0.324970
C48	C	0.674785	-0.210600	0.149152
H49	H	0.529087	0.077528	0.398407
H50	H	0.624729	-0.113417	0.704376
H51	H	0.752159	-0.366079	0.657741
H52	H	0.783950	-0.427801	0.305128
H53	H	0.688308	-0.236856	-0.000841
C54	C	0.441857	-0.071474	0.176756
C55	C	0.381670	-0.006049	0.321899
C56	C	0.373364	-0.118593	0.497789
C57	C	0.425246	-0.296561	0.528537
C58	C	0.485437	-0.361995	0.383390
C59	C	0.493742	-0.249452	0.207499
H60	H	0.343261	0.125702	0.299141
H61	H	0.328807	-0.070153	0.605237
H62	H	0.419097	-0.379873	0.658742
H63	H	0.523846	-0.493747	0.406147
H64	H	0.538300	-0.297892	0.100052
C65	C	0.349238	0.496459	-0.192773
C66	C	0.392747	0.639288	-0.201563
C67	C	0.337356	0.813716	-0.212785
C68	C	0.238457	0.845316	-0.215218
C69	C	0.194943	0.702484	-0.206428
C70	C	0.250333	0.528055	-0.195206
H71	H	0.465963	0.615899	-0.199762
H72	H	0.369569	0.919450	-0.219292
H73	H	0.197454	0.974439	-0.223525
H74	H	0.121727	0.725873	-0.208229
H75	H	0.218120	0.422322	-0.188699
H76	H	1.059424	0.074994	0.534330
H77	H	0.427172	-0.015069	-0.128629
H78	H	0.890673	0.362312	0.465980
H79	H	0.570928	-0.010429	-0.130250
H80	H	0.506339	0.457266	-0.188196
H81	H	0.382129	0.273213	-0.317313
H82	H	0.525018	0.280515	-0.316574
H83	H	0.417488	0.216932	0.317649
H84	H	0.530815	0.416051	0.193372
H85	H	0.562605	0.211197	0.316735
H86	H	0.386030	0.416959	0.181245
