data_functionalizedCrystal
_audit_creation_method	'MofGen! by Chris Wilmer'
_symmetry_space_group_name_H-M	'P1'
_symmetry_Int_Tables_number	1
_symmetry_cell_setting	triclinic
loop_
_symmetry_equiv_pos_as_xyz
  x,y,z
_cell_length_a	16.974901
_cell_length_b	9.065218
_cell_length_c	8.140239
_cell_angle_alpha	90.003526
_cell_angle_beta	93.651936
_cell_angle_gamma	84.207938
loop_
_atom_site_label
_atom_site_type_symbol
_atom_site_fract_x
_atom_site_fract_y
_atom_site_fract_z
O1	O	-1.050469	-0.188174	-0.276118
O2	O	-0.550469	0.311826	0.223882
O3	O	-0.820439	-0.212093	-0.245571
O4	O	-0.320439	0.287907	0.254429
O5	O	-0.940209	0.014636	-0.261473
O6	O	-0.440209	0.514636	0.238527
O7	O	-0.930699	-0.414904	-0.260216
O8	O	-0.430699	0.085096	0.239784
O9	O	-0.940208	0.014648	0.011755
O10	O	-0.440208	0.514648	0.511755
O11	O	-0.820438	-0.212081	0.027656
O12	O	-0.320438	0.287919	0.527656
O13	O	-1.050468	-0.188163	-0.002891
O14	O	-0.550468	0.311837	0.497109
Zn15	Zn	-0.935453	-0.200120	0.055763
Zn16	Zn	-0.435453	0.299880	0.555763
Zn17	Zn	-0.935454	-0.200135	-0.304225
Zn18	Zn	-0.435454	0.299865	0.195775
O19	O	-0.930698	-0.414892	0.013011
O20	O	-0.430698	0.085108	0.513011
C21	C	-0.790974	-0.211172	-0.105044
C22	C	-0.290974	0.288828	0.394956
C23	C	-0.703179	-0.208428	-0.093386
C24	C	-0.203179	0.291572	0.406614
C25	C	-0.661926	-0.207148	-0.236832
C26	C	-0.161926	0.292852	0.263168
C27	C	-0.579432	-0.204594	-0.225853
C28	C	-0.079432	0.295406	0.274147
C29	C	-0.538194	-0.203308	-0.071426
C30	C	-0.038194	0.296692	0.428574
C31	C	-0.579452	-0.204592	0.072031
C32	C	-0.079452	0.295408	0.572031
C33	C	-0.661944	-0.207157	0.061051
C34	C	-0.161944	0.292843	0.561051
C35	C	-0.291480	-0.195645	-0.022616
C36	C	0.208520	0.304355	0.477384
C37	C	-0.208983	-0.193075	-0.011646
C38	C	0.291017	0.306925	0.488354
C39	C	-0.208969	-0.193080	-0.309532
C40	C	0.291031	0.306920	0.190468
C41	C	-0.291463	-0.195636	-0.320499
C42	C	0.208537	0.304364	0.179501
C43	C	-0.332713	-0.196928	-0.177041
C44	C	0.167287	0.303072	0.322959
N45	N	-0.453872	-0.200692	-0.060200
N46	N	0.046128	0.299308	0.439800
N47	N	-0.417033	-0.199554	-0.188269
N48	N	0.082967	0.300446	0.311731
C49	C	-0.939294	0.069604	-0.124740
C50	C	-0.439294	0.569604	0.375260
C51	C	-0.936562	0.233374	-0.124385
C52	C	-0.436562	0.733374	0.375615
C53	C	-0.079934	-0.189076	-0.143422
C54	C	0.420066	0.310924	0.356578
C55	C	-0.167730	-0.191795	-0.155093
C56	C	0.332270	0.308205	0.344907
N57	N	-0.935455	-0.200135	-0.549908
N58	N	-0.435455	0.299865	-0.049908
C59	C	-0.931613	-0.469860	-0.123725
C60	C	-0.431613	0.030140	0.376275
C61	C	-0.934345	-0.633629	-0.124091
C62	C	-0.434345	-0.133629	0.375909
N63	N	-0.935458	-0.200109	0.301445
N64	N	-0.435458	0.299891	0.801445
H65	H	-0.325057	-0.196687	0.094198
H66	H	0.174943	0.303313	0.594198
Cl67	Cl	-0.527608	-0.202987	0.266170
Cl68	Cl	-0.027608	0.297013	0.766170
H69	H	-0.175406	-0.192069	0.114114
H70	H	0.324594	0.307931	0.614114
Cl71	Cl	-0.343300	-0.197244	-0.514644
Cl72	Cl	0.156700	0.302756	-0.014644
H73	H	-0.695530	-0.208205	0.177861
H74	H	-0.195530	0.291795	0.677861
H75	H	-0.695497	-0.208191	-0.362584
H76	H	-0.195497	0.291809	0.137416
Cl77	Cl	-0.527575	-0.202987	-0.406196
Cl78	Cl	-0.027575	0.297013	0.093804
Cl79	Cl	-0.157107	-0.191440	-0.489866
Cl80	Cl	0.342893	0.308560	0.010134
