data_functionalizedCrystal
_audit_creation_method	'MofGen! by Chris Wilmer'
_symmetry_space_group_name_H-M	'P1'
_symmetry_Int_Tables_number	1
_symmetry_cell_setting	triclinic
loop_
_symmetry_equiv_pos_as_xyz
  x,y,z
_cell_length_a	6.817900
_cell_length_b	9.582860
_cell_length_c	16.015572
_cell_angle_alpha	76.189886
_cell_angle_beta	104.485554
_cell_angle_gamma	111.206767
loop_
_atom_site_label
_atom_site_type_symbol
_atom_site_fract_x
_atom_site_fract_y
_atom_site_fract_z
V1	V	-4.003263	-0.060387	-0.269347
O2	O	-3.950086	0.153916	-0.264383
O3	O	-3.994506	-0.264976	-0.267348
O4	O	-3.926564	0.006805	-0.386890
O5	O	-4.018499	-0.119746	-0.144013
V6	V	-4.485422	-0.042583	-0.254375
O7	O	-4.267516	-0.099440	-0.302189
O8	O	-4.671367	-0.003529	-0.221533
O9	O	-4.270973	0.162006	-0.256374
O10	O	-4.655995	-0.256885	-0.259339
O11	O	-4.587583	0.016777	-0.379709
O12	O	-4.338915	-0.109774	-0.136832
C13	C	-3.850066	-0.316921	-0.263058
C14	C	-3.924004	-0.483749	-0.262208
C15	C	-3.763398	0.029764	-0.415545
C16	C	-3.782234	0.083346	-0.511636
C17	C	-4.163022	-0.392251	-0.888905
C18	C	-4.180716	-0.341854	-0.979193
C19	C	-4.053206	-0.081114	-0.954685
C20	C	-4.035491	-0.131490	-0.864393
C21	C	-4.090405	-0.287060	-0.831511
C22	C	-3.962873	-0.026298	-0.806999
C23	C	-3.945171	-0.076671	-0.716715
C24	C	-4.000085	-0.232235	-0.683826
C25	C	-4.072703	-0.337432	-0.741227
C26	C	-3.907974	0.129271	-0.839884
C27	C	-3.835357	0.234463	-0.782489
C28	C	-3.817639	0.184091	-0.692203
C29	C	-3.872554	0.028527	-0.659314
C30	C	-3.745022	0.289289	-0.634802
C31	C	-3.727319	0.238917	-0.544518
C32	C	-3.854851	-0.021845	-0.569030
C33	C	-4.078756	0.213942	-0.260661
C34	C	-3.984056	0.380772	-0.261517
C35	C	-4.165424	-0.132741	-0.108172
C36	C	-4.125826	-0.186316	-0.012081
H37	H	-3.899541	-0.148525	-0.542255
C38	C	-4.133117	-0.508559	-0.705050
H39	H	-4.178916	-0.564000	-0.752162
H40	H	-4.012110	-0.530387	-0.667527
H41	H	-4.245645	-0.536862	-0.673153
C42	C	-3.927462	0.184689	-0.939194
H43	H	-3.884390	0.292403	-0.950558
H44	H	-3.838253	0.151191	-0.961344
H45	H	-4.071795	0.144676	-0.966945
H46	H	-3.985674	-0.273246	-0.610310
H47	H	-3.790658	0.361129	-0.809275
C48	C	-4.223437	-0.563378	-0.852728
H49	H	-4.269235	-0.618819	-0.899840
H50	H	-4.102429	-0.585206	-0.815205
H51	H	-4.335965	-0.591681	-0.820831
H52	H	-4.239844	-0.427525	-1.025922
C53	C	-3.684633	0.460404	-0.670981
H54	H	-3.705572	0.475337	-0.732971
H55	H	-3.772288	0.502473	-0.653953
H56	H	-3.538753	0.508967	-0.648347
H57	H	-4.008507	0.045552	-0.981471
H58	H	-3.668188	0.324574	-0.497786
