data_functionalizedCrystal
_audit_creation_method	'MofGen! by Chris Wilmer'
_symmetry_space_group_name_H-M	'P1'
_symmetry_Int_Tables_number	1
_symmetry_cell_setting	triclinic
loop_
_symmetry_equiv_pos_as_xyz
  x,y,z
_cell_length_a	10.654550
_cell_length_b	19.288865
_cell_length_c	9.130313
_cell_angle_alpha	89.990258
_cell_angle_beta	89.999724
_cell_angle_gamma	83.810589
loop_
_atom_site_label
_atom_site_type_symbol
_atom_site_fract_x
_atom_site_fract_y
_atom_site_fract_z
O1	O	1.665751	0.097555	-0.121709
O2	O	1.300074	0.106849	-0.121738
O3	O	1.493479	0.001141	-0.121693
O4	O	1.472346	0.203263	-0.121753
O5	O	1.493466	0.001138	0.121905
O6	O	1.300061	0.106846	0.121861
O7	O	1.665738	0.097552	0.121890
Cu8	Cu	1.482898	0.102198	0.144118
Cu9	Cu	1.482914	0.102202	-0.143966
O10	O	1.472333	0.203260	0.121846
C11	C	1.253284	0.106165	0.000059
C12	C	1.113884	0.104123	0.000049
C13	C	1.033066	0.166363	0.000035
C14	C	0.902087	0.164440	0.000061
C15	C	0.932756	0.038033	0.000109
C16	C	1.063733	0.039956	0.000094
C17	C	1.492792	-0.024742	0.000110
C18	C	1.490751	-0.101859	0.000123
C19	C	1.604232	-0.145812	0.000139
C20	C	1.602315	-0.218272	0.000116
C21	C	1.486909	-0.246775	0.000106
C22	C	1.373413	-0.202812	0.000081
C23	C	1.375334	-0.130354	0.000090
C24	C	1.396183	-0.355657	0.085426
C25	C	1.394266	-0.428114	0.085426
C26	C	1.480980	-0.470259	0.000073
C27	C	1.569631	-0.439940	-0.085263
C28	C	1.571552	-0.367482	-0.085254
C29	C	1.484814	-0.325343	0.000095
C30	C	1.592390	-0.592782	0.000061
C31	C	1.590467	-0.665243	0.000029
C32	C	1.361562	-0.649781	0.000009
C33	C	1.363488	-0.577322	0.000027
C34	C	1.478905	-0.548827	0.000060
C35	C	1.712528	0.098236	0.000090
C36	C	1.851928	0.100277	0.000091
C37	C	1.473020	0.229142	0.000039
C38	C	1.475061	0.306259	0.000016
N39	N	1.482896	0.102195	0.346741
N40	N	1.482925	0.102200	-0.346588
C41	C	1.568565	0.055408	0.423412
C42	C	1.568577	0.055408	0.576749
C43	C	1.397248	0.148990	0.576729
C44	C	1.397231	0.148986	0.423395
H45	H	1.698214	-0.122616	0.000161
H46	H	1.327464	0.187086	0.360965
H47	H	1.073895	0.218611	0.000009
H48	H	0.836289	0.215122	0.000052
O49	O	1.651746	0.009864	0.651065
C50	C	1.725992	-0.110530	0.698086
C51	C	1.631750	-0.059026	0.613807
H52	H	1.709840	-0.166239	0.668017
H53	H	1.826538	-0.101016	0.667890
H54	H	1.711308	-0.102458	0.820838
H55	H	1.646318	-0.067067	0.491035
H56	H	1.531237	-0.068552	0.644124
H57	H	1.282921	-0.094566	0.000077
O58	O	1.313870	0.194371	0.651133
C59	C	1.095295	0.233970	0.698007
C60	C	1.189581	0.182524	0.613683
H61	H	0.994787	0.224420	0.667736
H62	H	1.109916	0.225936	0.820786
H63	H	1.111393	0.289681	0.667847
H64	H	1.173540	0.126793	0.643719
H65	H	1.174937	0.190619	0.490924
H66	H	0.891906	-0.014209	0.000154
H67	H	1.129539	-0.010730	0.000109
H68	H	1.694728	-0.254065	0.000123
H69	H	1.643732	-0.342798	-0.154740
H70	H	1.640241	-0.474253	-0.154767
H71	H	1.686369	-0.569580	0.000081
H72	H	1.682881	-0.701029	0.000034
H73	H	1.267597	-0.672988	-0.000006
H74	H	1.271079	-0.541534	0.000022
O75	O	1.308039	-0.457448	0.168354
C76	C	1.134343	-0.438074	0.337709
C77	C	1.231910	-0.404763	0.243833
H78	H	1.072785	-0.395495	0.398782
H79	H	1.072516	-0.467857	0.263915
H80	H	1.185567	-0.475542	0.420013
H81	H	1.180790	-0.367264	0.161520
H82	H	1.293733	-0.375023	0.317719
H83	H	1.325567	-0.321348	0.154939
H84	H	1.279449	-0.226024	0.000070
H85	H	1.638317	0.017307	0.361003
