data_functionalizedCrystal
_audit_creation_method	'MofGen! by Chris Wilmer'
_symmetry_space_group_name_H-M	'P1'
_symmetry_Int_Tables_number	1
_symmetry_cell_setting	triclinic
loop_
_symmetry_equiv_pos_as_xyz
  x,y,z
_cell_length_a	12.837943
_cell_length_b	17.038272
_cell_length_c	11.892095
_cell_angle_alpha	94.170821
_cell_angle_beta	85.689438
_cell_angle_gamma	92.970248
loop_
_atom_site_label
_atom_site_type_symbol
_atom_site_fract_x
_atom_site_fract_y
_atom_site_fract_z
O1	O	1.399724	0.200065	-0.093986
O2	O	1.097028	0.189958	-0.093992
O3	O	1.246576	0.081062	-0.093980
O4	O	1.250175	0.308961	-0.093998
O5	O	1.234106	0.090126	0.094026
O6	O	1.084557	0.199022	0.094014
O7	O	1.387254	0.209129	0.094021
Zn8	Zn	1.233926	0.205514	0.123868
Zn9	Zn	1.250356	0.193572	-0.123839
O10	O	1.237705	0.318025	0.094009
C11	C	1.051871	0.191076	0.000010
C12	C	0.935896	0.180893	0.000008
C13	C	0.705733	0.303310	0.000015
C14	C	0.596764	0.293746	0.000013
C15	C	0.608986	0.152201	0.000012
C16	C	0.717955	0.161765	0.000014
C17	C	0.766325	0.237322	0.000013
C18	C	0.875296	0.246885	0.000006
C19	C	0.887516	0.105342	0.000013
C20	C	0.778547	0.095777	0.000012
C21	C	1.237069	0.056221	0.000023
C22	C	1.227305	-0.031301	0.000022
C23	C	1.316945	-0.074719	0.000026
C24	C	1.307766	-0.156956	0.000015
C25	C	1.208945	-0.195773	0.000009
C26	C	1.119299	-0.152349	0.000002
C27	C	1.128480	-0.070114	0.000005
C28	C	1.176511	-0.443954	-0.000008
C29	C	1.167337	-0.526195	-0.000007
C30	C	1.355805	-0.530796	0.000003
C31	C	1.364977	-0.448559	0.000013
C32	C	1.275331	-0.405143	0.000001
C33	C	1.199560	-0.279832	0.000001
C34	C	1.284718	-0.321086	0.000000
C35	C	1.432411	0.208011	0.000016
C36	C	1.548386	0.218194	0.000011
C37	C	1.247213	0.342865	0.000003
C38	C	1.256977	0.430387	-0.000004
N39	N	1.222720	0.213665	0.292921
N40	N	1.261569	0.185416	-0.292892
C41	C	1.339540	0.128657	0.529578
C42	C	1.331715	0.134361	0.647919
C43	C	1.199241	0.230770	0.647947
C44	C	1.207066	0.225067	0.529605
C45	C	1.277219	0.174010	0.470425
C46	C	1.285048	0.168311	0.352082
C47	C	1.152569	0.264716	0.352111
C48	C	1.144745	0.270419	0.470453
H49	H	0.936862	0.051609	0.000004
C50	C	1.463419	0.134327	0.780973
C51	C	1.400221	0.084510	0.712943
H52	H	1.505707	0.103547	0.821119
H53	H	1.506894	0.167666	0.734796
H54	H	1.420512	0.165546	0.833155
H55	H	1.443128	0.053295	0.660755
H56	H	1.356742	0.051158	0.759124
H57	H	1.396668	0.087090	0.481393
H58	H	1.086860	-0.557796	0.000006
H59	H	1.365179	-0.289479	-0.000020
C60	C	1.148179	0.363725	0.219040
C61	C	1.084063	0.314576	0.287090
H62	H	1.105889	0.394505	0.178896
H63	H	1.191050	0.397503	0.265202
H64	H	1.191068	0.332494	0.166856
H65	H	1.041179	0.345808	0.339280
H66	H	1.041174	0.280794	0.240924
H67	H	1.342172	0.126740	0.303898
C68	C	1.049946	0.243608	0.781076
C69	C	1.122132	0.286882	0.713021
H70	H	1.002346	0.278251	0.821256
H71	H	1.012576	0.205825	0.734911
H72	H	1.085961	0.217412	0.833227
H73	H	1.086116	0.313074	0.660863
H74	H	1.159505	0.324680	0.759189
C75	C	0.669503	-0.001744	-0.096643
C76	C	0.725373	0.012728	0.000006
H77	H	0.636684	-0.053019	-0.096650
H78	H	0.617824	0.036182	-0.096629
H79	H	0.716117	0.001776	-0.162196
H80	H	0.678758	0.009214	0.065560
H81	H	0.777059	-0.025210	0.000003
C82	C	0.984351	0.344408	0.096648
C83	C	0.928473	0.329933	0.000005
H84	H	1.017182	0.395678	0.096642
H85	H	0.937748	0.340896	0.162198
H86	H	1.036031	0.306471	0.096633
H87	H	0.876787	0.367866	0.000023
H88	H	0.975080	0.333452	-0.065563
H89	H	1.397415	-0.043120	0.000037
C90	C	0.995443	0.283279	0.603576
C91	C	1.067639	0.326539	0.535515
H92	H	0.947848	0.317929	0.643747
H93	H	0.958071	0.245494	0.557417
H94	H	1.031451	0.257085	0.655737
H95	H	1.031632	0.352729	0.483349
H96	H	1.105016	0.364338	0.581678
H97	H	0.547433	0.347480	0.000018
H98	H	1.055485	-0.034764	0.000002
C99	C	0.682712	0.442260	0.000005
C100	C	0.758909	0.386358	0.000009
H101	H	0.715541	0.493531	0.000008
H102	H	0.644815	0.432426	-0.065553
H103	H	0.636113	0.438743	0.065571
H104	H	0.805503	0.389872	-0.065562
H105	H	0.796823	0.396196	0.065574
H106	H	0.569578	0.090691	0.000106
C107	C	1.494975	-0.153242	0.000052
C108	C	1.406300	-0.204680	0.000031
H109	H	1.555807	-0.182707	0.000069
H110	H	1.498992	-0.124231	-0.065506
H111	H	1.490269	-0.117913	0.065619
H112	H	1.411002	-0.240006	-0.065541
H113	H	1.402283	-0.233704	0.065595
H114	H	1.428789	-0.566154	0.000011
C115	C	1.550348	-0.461371	0.000022
C116	C	1.473604	-0.405894	0.000021
H117	H	1.617409	-0.435029	0.000026
H118	H	1.538495	-0.490193	0.065575
H119	H	1.547196	-0.496507	-0.065549
H120	H	1.476751	-0.370762	0.065597
H121	H	1.485461	-0.377059	-0.065539
H122	H	1.103515	-0.408614	-0.000017
H123	H	1.038837	-0.183960	-0.000010
H124	H	1.119099	-0.311445	-0.000001
