data_functionalizedCrystal
_audit_creation_method	'MofGen! by Chris Wilmer'
_symmetry_space_group_name_H-M	'P1'
_symmetry_Int_Tables_number	1
_symmetry_cell_setting	triclinic
loop_
_symmetry_equiv_pos_as_xyz
  x,y,z
_cell_length_a	19.805407
_cell_length_b	16.959453
_cell_length_c	19.805399
_cell_angle_alpha	89.973285
_cell_angle_beta	89.982197
_cell_angle_gamma	90.017304
loop_
_atom_site_label
_atom_site_type_symbol
_atom_site_fract_x
_atom_site_fract_y
_atom_site_fract_z
Zn1	Zn	1.034766	-0.314756	-0.382692
Zn2	Zn	1.034693	-0.446939	-0.269505
Zn3	Zn	0.921581	-0.314772	-0.269520
Zn4	Zn	0.921557	-0.446891	-0.382655
O5	O	0.978149	-0.380840	-0.326093
O6	O	1.129473	-0.332304	-0.367686
O7	O	1.019668	-0.429433	-0.174791
O8	O	0.936635	-0.204159	-0.284554
O9	O	1.129420	-0.429418	-0.284529
O10	O	1.019792	-0.204148	-0.367701
O11	O	0.936565	-0.332331	-0.174801
O12	O	0.826861	-0.332284	-0.284518
O13	O	0.936595	-0.429336	-0.477377
O14	O	0.826843	-0.429351	-0.367639
O15	O	1.019769	-0.332258	-0.477404
O16	O	1.019645	-0.557543	-0.284494
O17	O	0.936524	-0.557508	-0.367625
C18	C	0.802293	-0.380815	-0.326077
C19	C	0.727061	-0.380823	-0.326086
C20	C	0.691745	-0.330345	-0.369452
C21	C	0.621057	-0.330350	-0.369454
C22	C	0.585686	-0.380836	-0.326094
C23	C	0.621006	-0.431316	-0.282723
C24	C	0.691693	-0.431307	-0.282717
C25	C	0.335933	-0.431352	-0.282744
C26	C	0.265241	-0.431358	-0.282754
C27	C	0.265296	-0.330394	-0.369481
C28	C	0.335984	-0.330385	-0.369475
C29	C	0.371298	-0.380862	-0.326102
C30	C	0.447947	-0.380856	-0.326099
C31	C	0.509038	-0.380847	-0.326100
C32	C	0.978093	-0.586206	-0.326068
C33	C	0.978130	-0.674062	-0.326080
C34	C	1.021504	-1.045473	-0.369469
C35	C	0.934983	-1.045602	-0.282817
C36	C	0.934958	-0.963057	-0.282802
C37	C	0.978206	-0.921715	-0.326121
C38	C	1.021479	-0.962920	-0.369457
C39	C	0.891681	-0.921846	-0.239472
C40	C	0.891653	-0.839295	-0.239455
C41	C	0.934905	-0.797952	-0.282772
C42	C	0.978181	-0.839162	-0.326109
C43	C	1.021429	-0.797821	-0.369428
C44	C	1.064708	-0.839029	-0.412762
C45	C	1.064731	-0.921577	-0.412773
C46	C	0.934882	-0.715404	-0.282761
C47	C	1.021404	-0.715267	-0.369415
C48	C	1.154692	-0.380865	-0.326110
C49	C	1.229924	-0.380876	-0.326117
C50	C	0.978187	-0.380790	-0.502636
C51	C	0.978203	-0.380769	-0.577868
C52	C	0.978224	-0.174671	-0.326133
C53	C	0.978256	-0.086815	-0.326150
C54	C	1.021513	-0.330217	-0.613227
C55	C	1.021520	-0.330194	-0.683915
C56	C	0.978220	-0.380727	-0.719244
C57	C	0.934905	-0.431281	-0.683879
C58	C	0.934896	-0.431299	-0.613192
C59	C	0.934944	-0.431207	-0.968953
C60	C	0.934958	-0.431186	-1.039645
C61	C	1.021568	-0.330102	-1.039676
C62	C	1.021558	-0.330121	-0.968989
C63	C	0.978241	-0.380671	-0.933631
C64	C	0.978233	-0.380694	-0.856983
C65	C	0.978231	-0.380709	-0.795891
C66	C	0.978150	-0.380832	-0.150237
C67	C	0.978265	-0.380631	-0.075005
H68	H	0.364779	-0.289277	-0.404786
H69	H	0.899621	-0.472455	-0.584404
H70	H	1.056775	-0.289070	-0.584468
C71	C	1.069213	-0.274491	-1.078568
H72	H	1.095005	-0.244406	-1.047403
H73	H	1.043342	-0.240036	-1.106146
H74	H	1.098699	-0.304731	-1.106141
H75	H	0.856469	-0.955512	-0.204206
C76	C	1.112269	-0.793552	-0.460422
H77	H	1.138043	-0.829912	-0.486237
H78	H	1.141764	-0.761335	-0.434560
H79	H	1.086333	-0.761358	-0.489884
H80	H	0.592201	-0.472419	-0.247415
H81	H	0.899695	-0.472338	-1.068407
C82	C	0.887284	-0.486794	-0.930068
H83	H	0.861499	-0.516885	-0.961234
H84	H	0.857804	-0.456542	-0.902504
H85	H	0.913144	-0.521256	-0.902481
C86	C	0.887277	-0.486867	-0.722738
H87	H	0.893490	-0.479623	-0.769902
H88	H	0.841802	-0.475297	-0.711150
H89	H	0.897167	-0.539982	-0.711142
H90	H	1.099966	-0.955136	-0.448054
H91	H	0.720540	-0.289236	-0.404763
C92	C	0.844056	-0.793973	-0.191785
H93	H	0.818307	-0.830418	-0.165985
H94	H	0.814539	-0.761768	-0.217639
H95	H	0.869964	-0.761779	-0.162309
C96	C	1.068977	-0.669794	-0.417066
H97	H	1.062768	-0.614729	-0.410852
H98	H	1.059052	-0.683298	-0.462536
H99	H	1.114466	-0.683294	-0.407196
H100	H	0.899642	-0.681856	-0.247482
C101	C	0.374770	-0.486876	-0.235038
H102	H	0.343578	-0.516949	-0.209221
H103	H	0.402337	-0.456591	-0.205589
H104	H	0.402350	-0.521357	-0.260876
C105	C	0.730541	-0.486839	-0.235020
H106	H	0.699352	-0.516915	-0.209202
H107	H	0.758111	-0.456558	-0.205572
H108	H	0.758118	-0.521317	-0.260865
H109	H	0.236535	-0.289291	-0.404795
H110	H	0.236443	-0.472472	-0.247442
H111	H	0.899770	-1.079267	-0.247551
H112	H	1.056743	-1.079029	-0.404749
C113	C	1.069164	-0.274592	-0.722808
H114	H	1.094957	-0.244507	-0.691644
H115	H	1.043293	-0.240137	-0.750385
H116	H	1.098648	-0.304833	-0.750381
H117	H	1.056820	-0.288974	-0.940228
C118	C	0.582212	-0.274826	-0.417158
H119	H	0.613402	-0.244764	-0.442987
H120	H	0.554634	-0.240347	-0.391323
H121	H	0.554643	-0.305116	-0.446607
