data_functionalizedCrystal
_audit_creation_method	'MofGen! by Chris Wilmer'
_symmetry_space_group_name_H-M	'P1'
_symmetry_Int_Tables_number	1
_symmetry_cell_setting	triclinic
loop_
_symmetry_equiv_pos_as_xyz
  x,y,z
_cell_length_a	19.805407
_cell_length_b	19.120786
_cell_length_c	19.805399
_cell_angle_alpha	87.531070
_cell_angle_beta	89.979591
_cell_angle_gamma	92.466982
loop_
_atom_site_label
_atom_site_type_symbol
_atom_site_fract_x
_atom_site_fract_y
_atom_site_fract_z
Zn1	Zn	1.023246	-0.279610	-0.371232
Zn2	Zn	1.523246	0.220390	0.128768
Zn3	Zn	1.018334	-0.397069	-0.253211
Zn4	Zn	1.518334	0.102931	0.246789
Zn5	Zn	0.910059	-0.279634	-0.258054
Zn6	Zn	1.410059	0.220366	0.241946
Zn7	Zn	0.905198	-0.397036	-0.366358
Zn8	Zn	1.405198	0.102964	0.133642
O9	O	0.964209	-0.338337	-0.312214
O10	O	1.464209	0.161663	0.187786
O11	O	1.117310	-0.295196	-0.355589
O12	O	1.617310	0.204804	0.144411
O13	O	1.003949	-0.381515	-0.159136
O14	O	1.503949	0.118485	0.340864
O15	O	0.929164	-0.181340	-0.277133
O16	O	1.429164	0.318660	0.222867
O17	O	1.113701	-0.381492	-0.268880
O18	O	1.613701	0.118508	0.231120
O19	O	1.012321	-0.181323	-0.360285
O20	O	1.512321	0.318677	0.139715
O21	O	0.924401	-0.295235	-0.162694
O22	O	1.424401	0.204765	0.337306
O23	O	0.814698	-0.295203	-0.272407
O24	O	1.314698	0.204797	0.227593
O25	O	0.920879	-0.381436	-0.461722
O26	O	1.420879	0.118564	0.038278
O27	O	0.811127	-0.381458	-0.351978
O28	O	1.311127	0.118542	0.148022
O29	O	1.007608	-0.295163	-0.465303
O30	O	1.507608	0.204837	0.034697
O31	O	0.999236	-0.495355	-0.264154
O32	O	1.499236	0.004645	0.235846
O33	O	0.916116	-0.495331	-0.347282
O34	O	1.416116	0.004669	0.152718
C35	C	0.788353	-0.338330	-0.312190
C36	C	1.288353	0.161670	0.187810
C37	C	0.713121	-0.338344	-0.312195
C38	C	1.213121	0.161656	0.187805
C39	C	0.253209	-0.293487	-0.357452
C40	C	0.753209	0.206513	0.142548
C41	C	0.323898	-0.293488	-0.357447
C42	C	0.823898	0.206512	0.142553
C43	C	0.357359	-0.338348	-0.312235
C44	C	0.857359	0.161652	0.187765
C45	C	0.320128	-0.383215	-0.267030
C46	C	0.820128	0.116785	0.232970
C47	C	0.249441	-0.383217	-0.267038
C48	C	0.749441	0.116783	0.232962
C49	C	0.605201	-0.383209	-0.266994
C50	C	1.105201	0.116791	0.233006
C51	C	0.675894	-0.383203	-0.266987
C52	C	1.175894	0.116797	0.233013
C53	C	0.679658	-0.293481	-0.357403
C54	C	1.179658	0.206519	0.142597
C55	C	0.608971	-0.293483	-0.357412
C56	C	1.108971	0.206517	0.142588
C57	C	0.571746	-0.338352	-0.312209
C58	C	1.071746	0.161648	0.187791
C59	C	0.495098	-0.338351	-0.312216
C60	C	0.995098	0.161649	0.187784
C61	C	0.434006	-0.338346	-0.312225
C62	C	0.934006	0.161654	0.187775
C63	C	0.956634	-0.520829	-0.304679
C64	C	1.456634	-0.020829	0.195321
C65	C	0.953455	-0.598899	-0.301478
C66	C	1.453455	-0.098899	0.198522
C67	C	0.995225	-0.635508	-0.343302
C68	C	1.495225	-0.135508	0.156698
C69	C	0.992235	-0.708863	-0.340295
C70	C	1.492235	-0.208863	0.159705
C71	C	0.947479	-0.745609	-0.295461
C72	C	1.447479	-0.245609	0.204539
C73	C	0.905704	-0.708996	-0.253636
C74	C	1.405704	-0.208996	0.246364
C75	C	0.908691	-0.635641	-0.256646
C76	C	1.408691	-0.135641	0.243354
C77	C	0.936293	-0.967095	-0.284207
C78	C	1.436293	-0.467095	0.215793
C79	C	0.933311	-1.040454	-0.281199
C80	C	1.433311	-0.540454	0.218801
C81	C	1.019842	-1.040317	-0.367860
C82	C	1.519842	-0.540317	0.132140
C83	C	1.022827	-0.966961	-0.370863
C84	C	1.522827	-0.466961	0.129137
C85	C	0.981050	-0.930354	-0.329040
C86	C	1.481050	-0.430354	0.170960
C87	C	0.944423	-0.820590	-0.292385
C88	C	1.444423	-0.320590	0.207615
C89	C	0.984103	-0.855374	-0.332120
C90	C	1.484103	-0.355374	0.167880
C91	C	1.140751	-0.338345	-0.312238
C92	C	1.640751	0.161655	0.187762
C93	C	1.215983	-0.338348	-0.312249
C94	C	1.715983	0.161652	0.187751
C95	C	0.964249	-0.338293	-0.488758
C96	C	1.464249	0.161707	0.011242
C97	C	0.964266	-0.338274	-0.563991
C98	C	1.464266	0.161726	-0.063991
C99	C	0.971833	-0.155133	-0.319793
C100	C	1.471833	0.344867	0.180207
C101	C	0.975081	-0.077063	-0.323023
C102	C	1.475081	0.422937	0.176977
C103	C	1.009427	-0.293350	-0.601201
C104	C	1.509427	0.206650	-0.101201
C105	C	1.009434	-0.293330	-0.671890
C106	C	1.509434	0.206670	-0.171890
C107	C	0.964284	-0.338238	-0.705368
C108	C	1.464284	0.161762	-0.205368
C109	C	0.919119	-0.383164	-0.668153
C110	C	1.419119	0.116836	-0.168153
C111	C	0.919108	-0.383180	-0.597465
C112	C	1.419108	0.116820	-0.097465
C113	C	0.919159	-0.383098	-0.953229
C114	C	1.419159	0.116902	-0.453229
C115	C	0.919175	-0.383080	-1.023922
C116	C	1.419175	0.116920	-0.523922
C117	C	1.009486	-0.293248	-1.027654
C118	C	1.509486	0.206752	-0.527654
C119	C	1.009475	-0.293264	-0.956966
C120	C	1.509475	0.206736	-0.456966
C121	C	0.964308	-0.338187	-0.919758
C122	C	1.464308	0.161813	-0.419758
C123	C	0.964299	-0.338208	-0.843109
C124	C	1.464299	0.161792	-0.343109
C125	C	0.964296	-0.338221	-0.782016
C126	C	1.464296	0.161779	-0.282016
C127	C	0.964211	-0.338331	-0.136358
C128	C	1.464211	0.161669	0.363642
C129	C	0.964333	-0.338152	-0.061134
C130	C	1.464333	0.161848	0.438866
H131	H	0.354204	-0.256959	-0.394258
H132	H	0.854204	0.243041	0.105742
O133	O	1.053208	-0.249609	-0.708064
O134	O	1.553208	0.250391	-0.208064
C135	C	1.016564	-0.204239	-0.750827
C136	C	1.516564	0.295761	-0.250827
H137	H	0.963432	-0.199912	-0.729692
H138	H	1.463432	0.300088	-0.229692
H139	H	1.043289	-0.150183	-0.753860
H140	H	1.543289	0.349817	-0.253860
H141	H	1.013340	-0.225932	-0.803505
H142	H	1.513340	0.274068	-0.303505
H143	H	0.882405	-0.419651	-1.051178
H144	H	1.382405	0.080349	-0.551178
O145	O	0.220735	-0.249985	-0.401466
O146	O	0.720735	0.250015	0.098534
C147	C	0.237413	-0.265417	-0.468260
C148	C	0.737413	0.234583	0.031740
H149	H	0.254514	-0.321534	-0.469267
H150	H	0.754514	0.178466	0.030733
H151	H	0.191192	-0.259414	-0.501964
H152	H	0.691192	0.240586	-0.001964
H153	H	0.280016	-0.227784	-0.487561
H154	H	0.780016	0.272216	0.012439
H155	H	0.882354	-0.419726	-0.695417
H156	H	1.382354	0.080274	-0.195417
H157	H	1.046261	-0.256667	-1.057958
H158	H	1.546261	0.243333	-0.557958
H159	H	0.709975	-0.256948	-0.394211
H160	H	1.209975	0.243052	0.105789
H161	H	0.902278	-0.937295	-0.250152
H162	H	1.402278	-0.437295	0.249848
O163	O	0.352737	-0.426726	-0.223135
O164	O	0.852737	0.073274	0.276865
C165	C	0.423110	-0.417117	-0.232829
C166	C	0.923110	0.082883	0.267171
H167	H	0.435026	-0.362941	-0.257317
H168	H	0.935026	0.137059	0.242683
H169	H	0.449755	-0.421811	-0.181924
H170	H	0.949755	0.078189	0.318076
H171	H	0.441456	-0.458827	-0.267082
H172	H	0.941456	0.041173	0.232918
H173	H	0.703136	-0.419736	-0.230169
H174	H	1.203136	0.080264	0.269831
H175	H	1.031673	-0.605594	-0.379807
H176	H	1.531673	-0.105594	0.120193
O177	O	1.053358	-0.249574	-0.924554
O178	O	1.553358	0.250426	-0.424554
C179	C	1.093232	-0.209929	-0.972555
C180	C	1.593232	0.290071	-0.472555
H181	H	1.065619	-0.207484	-1.023040
H182	H	1.565619	0.292516	-0.523040
H183	H	1.102750	-0.154593	-0.954423
H184	H	1.602750	0.345407	-0.454423
H185	H	1.143569	-0.235649	-0.979018
H186	H	1.643569	0.264351	-0.479018
O187	O	0.875223	-0.426895	-0.561419
O188	O	1.375223	0.073105	-0.061419
C189	C	0.835367	-0.466521	-0.606124
C190	C	1.335367	0.033479	-0.106124
H191	H	0.862993	-0.468934	-0.656420
H192	H	1.362993	0.031066	-0.156420
H193	H	0.825851	-0.521869	-0.583410
H194	H	1.325851	-0.021869	-0.083410
H195	H	0.785027	-0.440804	-0.614690
H196	H	1.285027	0.059196	-0.114690
O197	O	0.569151	-0.426809	-0.223016
O198	O	1.069151	0.073191	0.276984
C199	C	0.613845	-0.466410	-0.183119
C200	C	1.113845	0.033590	0.316881
H201	H	0.665427	-0.437633	-0.182007
H202	H	1.165427	0.062367	0.317993
H203	H	0.593091	-0.473828	-0.129473
H204	H	1.093091	0.026172	0.370527
H205	H	0.619158	-0.519790	-0.205613
H206	H	1.119158	-0.019790	0.294387
H207	H	0.869259	-0.738920	-0.217133
H208	H	1.369259	-0.238920	0.282867
O209	O	0.889927	-1.076179	-0.237570
O210	O	1.389927	-0.576179	0.262430
C211	C	0.926763	-1.118609	-0.192158
C212	C	1.426763	-0.618609	0.307842
H213	H	0.980974	-1.096452	-0.188938
H214	H	1.480974	-0.596452	0.311062
H215	H	0.902277	-1.119495	-0.140009
H216	H	1.402277	-0.619495	0.359991
H217	H	0.926823	-1.174189	-0.210804
H218	H	1.426823	-0.674189	0.289196
O219	O	0.875253	-0.426793	-0.917193
O220	O	1.375253	0.073207	-0.417193
C221	C	0.835392	-0.466407	-0.961903
C222	C	1.335392	0.033593	-0.461903
H223	H	0.863031	-0.468843	-1.012191
H224	H	1.363031	0.031157	-0.512191
H225	H	0.825844	-0.521747	-0.939183
H226	H	1.325844	-0.021747	-0.439183
H227	H	0.785068	-0.440665	-0.970489
H228	H	1.285068	0.059335	-0.470489
O229	O	0.868088	-0.600186	-0.215951
O230	O	1.368088	-0.100186	0.284049
C231	C	0.827931	-0.648347	-0.175746
C232	C	1.327931	-0.148347	0.324254
H233	H	0.853530	-0.700611	-0.171279
H234	H	1.353530	-0.200611	0.328721
H235	H	0.821598	-0.627189	-0.123281
H236	H	1.321598	-0.127189	0.376719
H237	H	0.776195	-0.656184	-0.200166
H238	H	1.276195	-0.156184	0.299834
O239	O	0.213347	-0.426892	-0.223156
O240	O	0.713347	0.073108	0.276844
C241	C	0.227707	-0.496916	-0.234958
C242	C	0.727707	0.003084	0.265042
H243	H	0.278982	-0.498404	-0.260906
H244	H	0.778982	0.001596	0.239094
H245	H	0.228794	-0.528347	-0.184763
H246	H	0.728794	-0.028347	0.315237
H247	H	0.186956	-0.520621	-0.268748
H248	H	0.686956	-0.020621	0.231252
O249	O	0.576573	-0.249884	-0.401396
O250	O	1.076573	0.250116	0.098604
C251	C	0.624589	-0.210275	-0.441283
C252	C	1.124589	0.289725	0.058717
H253	H	0.673784	-0.239045	-0.442387
H254	H	1.173784	0.260955	0.057613
H255	H	0.604498	-0.202857	-0.494932
H256	H	1.104498	0.297143	0.005068
H257	H	0.634311	-0.156895	-0.418786
H258	H	1.134311	0.343105	0.081214
O259	O	1.032890	-0.744316	-0.380938
O260	O	1.532890	-0.244316	0.119062
C261	C	1.073030	-0.696153	-0.421158
C262	C	1.573030	-0.196153	0.078842
H263	H	1.077504	-0.643876	-0.395584
H264	H	1.577504	-0.143876	0.104416
H265	H	1.125498	-0.717289	-0.427543
H266	H	1.625498	-0.217289	0.072457
H267	H	1.048547	-0.688349	-0.472869
H268	H	1.548547	-0.188349	0.027131
H269	H	1.059272	-0.937044	-0.407371
H270	H	1.559272	-0.437044	0.092629
H271	H	1.053853	-1.070130	-0.401911
H272	H	1.553853	-0.570130	0.098089
H273	H	1.020541	-0.825454	-0.368626
H274	H	1.520541	-0.325454	0.131374
O275	O	0.900917	-0.856365	-0.248920
O276	O	1.400917	-0.356365	0.251080
C277	C	0.855439	-0.898801	-0.285673
C278	C	1.355439	-0.398801	0.214327
H279	H	0.878831	-0.909728	-0.336545
H280	H	1.378831	-0.409728	0.163455
H281	H	0.844293	-0.950413	-0.255981
H282	H	1.344293	-0.450413	0.244019
H283	H	0.806421	-0.870577	-0.294211
H284	H	1.306421	-0.370577	0.205789
H285	H	1.046195	-0.256783	-0.573948
H286	H	1.546195	0.243217	-0.073948
