data_functionalizedCrystal
_audit_creation_method	'MofGen! by Chris Wilmer'
_symmetry_space_group_name_H-M	'P1'
_symmetry_Int_Tables_number	1
_symmetry_cell_setting	triclinic
loop_
_symmetry_equiv_pos_as_xyz
  x,y,z
_cell_length_a	23.096457
_cell_length_b	23.096457
_cell_length_c	14.809374
_cell_angle_alpha	67.426583
_cell_angle_beta	89.998277
_cell_angle_gamma	60.002514
loop_
_atom_site_label
_atom_site_type_symbol
_atom_site_fract_x
_atom_site_fract_y
_atom_site_fract_z
Zr1	Zr	0.565452	0.618467	-0.107923
O2	O	0.482278	0.720721	-0.239247
O3	O	0.590942	0.503364	-0.067670
O4	O	0.603058	0.599935	-0.239257
O5	O	0.460614	0.643248	0.067696
O6	O	0.698340	0.599932	-0.239259
O7	O	0.470162	0.624150	-0.067660
O8	O	0.676667	0.427184	0.067678
O9	O	0.482287	0.815996	-0.239242
O10	O	0.672931	0.555464	-0.050499
O11	O	0.594697	0.569719	0.050517
O12	O	0.608962	0.683419	-0.151504
O13	O	0.530728	0.697674	-0.050488
Zr14	Zr	0.702189	0.648922	0.107949
Zr15	Zr	0.717417	0.618462	-0.107928
Zr16	Zr	0.550225	0.648926	0.107953
Zr17	Zr	0.565467	0.770420	-0.107916
Zr18	Zr	0.702174	0.496969	0.107941
O19	O	0.676700	0.764025	0.067695
O20	O	0.698352	0.720715	-0.239253
O21	O	0.460626	0.764031	0.067702
O22	O	0.785364	0.546668	0.239272
O23	O	0.807016	0.503358	-0.067676
O24	O	0.569290	0.546674	0.239279
O25	O	0.807028	0.624140	-0.067670
O26	O	0.664584	0.667454	0.239282
O27	O	0.569301	0.667456	0.239285
O28	O	0.797480	0.643239	0.067685
O29	O	0.603079	0.815993	-0.239246
O30	O	0.664563	0.451396	0.239271
O31	O	0.785355	0.451392	0.239268
O32	O	0.797459	0.427181	0.067675
O33	O	0.470183	0.840208	-0.067649
O34	O	0.590974	0.840204	-0.067653
O35	O	0.658680	0.583970	0.151530
O36	O	0.736914	0.569715	0.050513
O37	O	0.672945	0.697670	-0.050492
O38	O	0.594711	0.711925	0.050525
C39	C	0.633802	0.443624	0.000003
C40	C	0.633796	0.379116	-0.000000
C41	C	0.681029	0.306850	0.074560
C42	C	0.681033	0.246229	0.074570
C43	C	0.633811	0.257878	0.000003
C44	C	0.586569	0.330157	-0.074563
C45	C	0.586562	0.390776	-0.074565
N46	N	0.624170	0.189292	-0.088422
N47	N	0.624181	0.131703	-0.088417
C48	C	0.633829	0.075239	0.000005
N49	N	0.643480	0.078531	0.088427
N50	N	0.643472	0.136123	0.088421
C51	C	0.633813	0.192152	-0.000003
C52	C	0.681070	-0.062761	0.074582
C53	C	0.681069	-0.123381	0.074592
C54	C	0.586608	-0.039451	-0.074549
C55	C	0.586605	0.021167	-0.074552
C56	C	0.633840	0.009506	0.000013
C57	C	0.443736	0.633700	0.000018
C58	C	0.379223	0.633701	0.000020
C59	C	0.354181	0.623185	-0.074553
C60	C	0.293569	0.623178	-0.074553
C61	C	0.257993	0.633702	0.000013
C62	C	0.283045	0.644215	0.074600
C63	C	0.343659	0.644215	0.074603
N64	N	0.138053	0.683241	0.022590
N65	N	0.080471	0.683242	0.022580
C66	C	0.075364	0.633702	0.000008
N67	N	0.130011	0.584168	-0.022574
N68	N	0.187597	0.584170	-0.022569
C69	C	0.192266	0.633703	0.000018
C70	C	-0.015400	0.623176	-0.074569
C71	C	-0.076011	0.623164	-0.074563
C72	C	-0.086538	0.644209	0.074586
C73	C	-0.025924	0.644213	0.074583
C74	C	0.009640	0.633700	0.000000
C75	C	0.823905	0.633689	0.000007
C76	C	0.888418	0.633687	0.000005
C77	C	0.652869	0.595594	-0.270016
C78	C	0.659333	0.582663	-0.361661
C79	C	0.633839	0.823765	0.000022
C80	C	0.633845	0.888273	0.000026
C81	C	0.630482	0.640372	-0.452625
C82	C	0.637163	0.627009	-0.547346
C83	C	0.614773	0.671795	0.270041
C84	C	0.608308	0.684726	0.361687
C85	C	0.823887	0.443619	-0.000003
C86	C	0.888394	0.379109	-0.000008
C87	C	0.614755	0.481725	0.270032
C88	C	0.608284	0.430147	0.361674
C89	C	0.804839	0.481719	0.270026
C90	C	0.862881	0.430140	0.361666
C91	C	0.462802	0.785669	-0.270001
C92	C	0.404760	0.837248	-0.361641
C93	C	0.443755	0.823770	0.000028
C94	C	0.379248	0.888280	0.000033
C95	C	0.652887	0.785664	-0.270006
C96	C	0.659358	0.837241	-0.361648
C97	C	0.885289	0.341374	-0.052747
C98	C	0.945896	0.280766	-0.052772
C99	C	1.009606	0.257890	-0.000051
C100	C	1.012709	0.295631	0.052689
C101	C	0.952103	0.356241	0.052708
C102	C	0.638643	0.413366	0.457446
C103	C	0.632559	0.364914	0.543562
C104	C	0.596121	0.333239	0.533903
C105	C	0.565758	0.350024	0.438120
C106	C	0.571838	0.398480	0.352007
C107	C	0.930982	0.398477	0.351972
C108	C	0.985525	0.350021	0.438069
C109	C	0.971966	0.333224	0.533860
C110	C	0.903858	0.364892	0.543552
C111	C	0.849317	0.413352	0.457456
C112	C	0.336660	0.868919	-0.351946
C113	C	0.282116	0.917394	-0.438043
C114	C	0.295676	0.934194	-0.533834
C115	C	0.363783	0.902522	-0.543527
C116	C	0.418325	0.854051	-0.457430
C117	C	0.382353	0.926020	0.052763
C118	C	0.321748	0.986641	0.052764
C119	C	0.258039	1.009519	0.000041
C120	C	0.254935	0.971776	-0.052695
C121	C	0.315540	0.911159	-0.052702
C122	C	0.695801	0.868901	-0.351957
C123	C	0.701895	0.917357	-0.438056
C124	C	0.671540	0.934155	-0.533846
C125	C	0.635095	0.902489	-0.543535
C126	C	0.629007	0.854031	-0.457437
H127	H	0.548096	0.449622	-0.135280
Cl128	Cl	0.527238	-0.024800	-0.168287
Cl129	Cl	0.684457	0.453175	0.469615
H130	H	0.548120	0.339638	-0.135275
H131	H	-0.005535	0.652781	0.135304
H132	H	0.325606	0.855243	-0.273956
H133	H	0.719527	-0.072256	0.135302
H134	H	0.548147	0.080010	-0.135272
H135	H	0.942035	0.412145	0.273982
Cl136	Cl	0.588486	0.272322	0.642172
H137	H	0.578662	0.744031	-0.646074
H138	H	0.676503	0.973615	-0.603944
H139	H	0.536090	0.324228	0.430271
H140	H	0.364049	0.652779	0.135331
Cl141	Cl	0.740419	0.155368	0.168307
H142	H	0.251258	0.973663	-0.603931
Cl143	Cl	0.533672	0.419565	0.231610
H144	H	0.600840	0.699672	-0.460377
Cl145	Cl	0.380818	0.923646	-0.663957
Cl146	Cl	0.740403	0.292189	0.168307
H147	H	-0.115501	0.652774	0.135302
H148	H	0.719531	-0.182225	0.135314
H149	H	0.599328	0.828258	-0.465342
H150	H	0.383137	0.614622	-0.135280
H151	H	0.273175	0.614614	-0.135281
Cl152	Cl	1.092807	0.266860	0.118967
Cl153	Cl	0.670737	0.343820	0.663961
Cl154	Cl	0.503936	0.814236	-0.469635
H155	H	0.954640	0.386959	0.095660
Cl156	Cl	0.462438	0.897276	0.119047
H157	H	0.666814	0.567704	-0.539587
Cl158	Cl	1.071139	0.310214	0.425861
Cl159	Cl	0.886824	0.343767	0.663983
Cl160	Cl	0.174836	1.000543	-0.118966
Cl161	Cl	1.040541	0.272299	0.642087
Cl162	Cl	0.763705	0.453147	0.469661
H163	H	0.731570	0.943136	-0.430147
H164	H	0.688981	0.523363	-0.353909
Cl165	Cl	-0.107492	0.609936	-0.168314
Cl166	Cl	0.238325	0.657441	0.168344
Cl167	Cl	0.805205	0.370121	-0.119037
Cl168	Cl	0.029313	0.609953	-0.168325
H169	H	0.720520	0.855233	-0.273968
Cl170	Cl	0.596931	0.923622	-0.663964
H171	H	0.226665	0.943175	-0.430132
Cl172	Cl	0.941978	0.233329	-0.119074
Cl173	Cl	0.325665	1.034075	0.119072
Cl174	Cl	0.181855	1.085725	0.000062
Cl175	Cl	1.085790	0.181690	-0.000082
H176	H	0.313002	0.880432	-0.095638
