data_functionalizedCrystal
_audit_creation_method	'MofGen! by Chris Wilmer'
_symmetry_space_group_name_H-M	'P1'
_symmetry_Int_Tables_number	1
_symmetry_cell_setting	triclinic
loop_
_symmetry_equiv_pos_as_xyz
  x,y,z
_cell_length_a	18.215407
_cell_length_b	12.759400
_cell_length_c	12.759393
_cell_angle_alpha	89.968436
_cell_angle_beta	90.021831
_cell_angle_gamma	89.984868
loop_
_atom_site_label
_atom_site_type_symbol
_atom_site_fract_x
_atom_site_fract_y
_atom_site_fract_z
Zn1	Zn	1.125139	0.418192	0.594075
Zn2	Zn	1.125065	0.593911	0.418395
Zn3	Zn	1.002067	0.418248	0.418404
Zn4	Zn	1.002059	0.593831	0.594026
O5	O	1.063582	0.506045	0.506225
O6	O	1.228113	0.441511	0.570787
O7	O	1.108721	0.570665	0.271375
O8	O	1.018427	0.271219	0.441731
O9	O	1.228059	0.570611	0.441716
O10	O	1.108847	0.271178	0.570796
O11	O	1.018355	0.441607	0.271382
O12	O	0.899082	0.441529	0.441684
O13	O	1.018413	0.570475	0.741054
O14	O	0.899076	0.570529	0.570713
O15	O	1.108840	0.441434	0.741090
O16	O	1.108713	0.740921	0.441669
O17	O	1.018342	0.740862	0.570704
C18	C	1.063539	0.779013	0.506203
C19	C	1.063587	0.895789	0.506229
C20	C	0.872376	0.506027	0.506195
C21	C	0.790577	0.506045	0.506207
C22	C	1.063634	0.505939	0.780258
C23	C	1.063656	0.505894	0.897035
C24	C	0.602399	0.573321	0.573308
C25	C	0.525541	0.573324	0.573321
C26	C	0.525517	0.438789	0.439165
C27	C	0.602375	0.438781	0.439158
C28	C	0.640814	0.506053	0.506228
C29	C	0.487098	0.506064	0.506248
C30	C	0.403764	0.506067	0.506262
C31	C	0.724153	0.506049	0.506216
C32	C	1.255535	0.506064	0.506256
C33	C	1.337334	0.506072	0.506269
C34	C	1.063646	0.232012	0.506270
C35	C	1.063673	0.115235	0.506289
C36	C	1.110696	0.950647	0.439114
C37	C	1.110741	1.060371	0.439147
C38	C	1.016563	1.060370	0.573411
C39	C	1.016522	0.950648	0.573383
C40	C	1.165067	0.950648	0.361595
C41	C	1.165112	1.060372	0.361627
C42	C	1.063573	0.506075	0.233258
C43	C	1.063694	0.505824	0.116482
C44	C	1.110747	0.438696	0.951918
C45	C	1.110765	0.438658	1.061642
C46	C	1.016597	0.573025	1.061591
C47	C	1.016577	0.573057	0.951869
C48	C	1.165116	0.361123	0.951947
C49	C	1.165134	0.361085	1.061672
H50	H	0.633694	0.628095	0.627923
C51	C	0.964763	0.646955	0.891502
H52	H	0.936731	0.686950	0.939876
H53	H	0.932705	0.606758	0.848710
H54	H	0.992888	0.692761	0.848687
H55	H	0.978244	1.105049	0.628087
C56	C	0.483285	0.647318	0.647106
H57	H	0.432006	0.637683	0.637515
H58	H	0.495864	0.717890	0.631610
H59	H	0.495908	0.632014	0.717724
H60	H	0.633652	0.383997	0.384533
C61	C	0.483232	0.364807	0.365383
H62	H	0.431956	0.374453	0.374984
H63	H	0.495839	0.294231	0.380870
H64	H	0.495806	0.380114	0.294764
C65	C	0.964704	0.890307	0.647211
H66	H	0.936676	0.938696	0.687199
H67	H	0.992823	0.847433	0.693011
H68	H	0.932632	0.847578	0.606964
C69	C	1.144543	1.100727	0.251696
H70	H	1.144583	1.175185	0.251721
H71	H	1.097047	1.075992	0.233452
H72	H	1.179323	1.075913	0.202098
C73	C	1.242034	0.910304	0.391132
H74	H	1.273714	0.968170	0.403308
H75	H	1.260978	0.868966	0.335460
H76	H	1.238890	0.868899	0.452869
H77	H	1.219262	1.094317	0.390843
H78	H	1.144666	0.916701	0.284267
C79	C	0.964816	0.646904	1.121907
H80	H	0.936764	0.686925	1.073504
H81	H	0.992962	0.692671	1.164707
H82	H	0.932765	0.606689	1.164710
C83	C	1.144507	0.251217	0.911740
H84	H	1.136038	0.205997	0.969662
H85	H	1.183512	0.224196	0.870391
H86	H	1.101243	0.255659	0.870373
C87	C	1.238237	0.400512	0.905966
H88	H	1.270814	0.418025	0.961415
H89	H	1.229470	0.460778	0.864042
H90	H	1.259543	0.347017	0.864083
C91	C	1.137598	0.256647	1.107674
H92	H	1.125327	0.210161	1.052234
H93	H	1.095394	0.269106	1.149568
H94	H	1.175096	0.226234	1.149590
C95	C	1.242124	0.390548	1.101914
H96	H	1.273773	0.402700	1.044006
H97	H	1.261091	0.334857	1.143294
H98	H	1.239001	0.452286	1.143257
