data_functionalizedCrystal
_audit_creation_method	'MofGen! by Chris Wilmer'
_symmetry_space_group_name_H-M	'P1'
_symmetry_Int_Tables_number	1
_symmetry_cell_setting	triclinic
loop_
_symmetry_equiv_pos_as_xyz
  x,y,z
_cell_length_a	10.686220
_cell_length_b	13.897448
_cell_length_c	13.897441
_cell_angle_alpha	89.970373
_cell_angle_beta	94.351301
_cell_angle_gamma	94.399460
loop_
_atom_site_label
_atom_site_type_symbol
_atom_site_fract_x
_atom_site_fract_y
_atom_site_fract_z
Zn1	Zn	1.929082	-0.270721	-0.432418
Zn2	Zn	2.429082	0.229279	0.067582
Zn3	Zn	1.928951	-0.432048	-0.271127
Zn4	Zn	2.428951	0.067952	0.228873
Zn5	Zn	1.718074	-0.283151	-0.283493
Zn6	Zn	2.218074	0.216849	0.216507
Zn7	Zn	1.718042	-0.444368	-0.444730
Zn8	Zn	2.218042	0.055632	0.055270
O9	O	1.823537	-0.357572	-0.357942
O10	O	2.323537	0.142428	0.142058
O11	O	2.105639	-0.281763	-0.400695
O12	O	2.605639	0.218237	0.099305
O13	O	1.900936	-0.412342	-0.137788
O14	O	2.400936	0.087658	0.362212
O15	O	1.746132	-0.146516	-0.303270
O16	O	2.246132	0.353484	0.196730
O17	O	2.105543	-0.400289	-0.282195
O18	O	2.605543	0.099711	0.217805
O19	O	1.901159	-0.137384	-0.412685
O20	O	2.401159	0.362616	0.087315
O21	O	1.746006	-0.302948	-0.146873
O22	O	2.246006	0.197052	0.353127
O23	O	1.541495	-0.314894	-0.315209
O24	O	2.041495	0.185106	0.184791
O25	O	1.746078	-0.421287	-0.578076
O26	O	2.246078	0.078713	-0.078076
O27	O	1.541472	-0.433340	-0.433669
O28	O	2.041472	0.066660	0.066331
O29	O	1.901128	-0.293710	-0.569031
O30	O	2.401128	0.206290	-0.069031
O31	O	1.900906	-0.568667	-0.294133
O32	O	2.400906	-0.068667	0.205867
O33	O	1.745951	-0.577719	-0.421679
O34	O	2.245951	-0.077719	0.078321
C35	C	1.495700	-0.376803	-0.377117
C36	C	1.995700	0.123197	0.122883
C37	C	1.355450	-0.385054	-0.385344
C38	C	1.855450	0.114946	0.114656
C39	C	1.823445	-0.608191	-0.357919
C40	C	2.323445	-0.108191	0.142081
C41	C	1.823521	-0.715401	-0.357935
C42	C	2.323521	-0.215401	0.142065
C43	C	1.823654	-0.911688	-0.357988
C44	C	2.323654	-0.411688	0.142012
C45	C	1.823576	-0.802460	-0.357962
C46	C	2.323576	-0.302460	0.142038
C47	C	2.152654	-0.338266	-0.338692
C48	C	2.652654	0.161734	0.161308
C49	C	2.292905	-0.330039	-0.330489
C50	C	2.792905	0.169961	0.169511
C51	C	1.823614	-0.357486	-0.609531
C52	C	2.323614	0.142514	-0.109531
C53	C	1.823647	-0.357450	-0.716743
C54	C	2.323647	0.142550	-0.216743
C55	C	1.823664	-0.105971	-0.357984
C56	C	2.323664	0.394029	0.142016
C57	C	1.823718	0.001246	-0.358001
C58	C	2.323718	0.501246	0.141999
C59	C	1.823673	-0.357421	-0.803811
C60	C	2.323673	0.142579	-0.303811
C61	C	1.823709	-0.357375	-0.913041
C62	C	2.323709	0.142625	-0.413041
C63	C	1.823533	-0.357583	-0.107328
C64	C	2.323533	0.142417	0.392672
C65	C	1.823744	-0.357333	-0.000102
C66	C	2.323744	0.142667	0.499898
H67	H	1.346652	-0.276627	-0.277231
H68	H	1.846652	0.223373	0.222769
C69	C	1.283946	-0.456216	-0.456509
C70	C	1.783946	0.043784	0.043491
C71	C	1.315995	-0.433477	-0.550123
C72	C	1.815995	0.066523	-0.050123
C73	C	1.250163	-0.499015	-0.615703
C74	C	1.750163	0.000985	-0.115703
H75	H	1.196026	-0.452547	-0.452917
H76	H	1.696026	0.047453	0.047083
H77	H	1.305491	-0.519773	-0.441091
H78	H	1.805491	-0.019773	0.058909
H79	H	1.294442	-0.369937	-0.565536
H80	H	1.794442	0.130063	-0.065536
H81	H	1.403904	-0.437153	-0.553746
H82	H	1.903904	0.062847	-0.053746
H83	H	1.271708	-0.562572	-0.600286
H84	H	1.771708	-0.062572	-0.100286
H85	H	1.162246	-0.495341	-0.612103
H86	H	1.662246	0.004659	-0.112103
H87	H	1.271907	-0.483601	-0.679227
H88	H	1.771907	0.016399	-0.179227
