data_functionalizedCrystal
_audit_creation_method	'MofGen! by Chris Wilmer'
_symmetry_space_group_name_H-M	'P1'
_symmetry_Int_Tables_number	1
_symmetry_cell_setting	triclinic
loop_
_symmetry_equiv_pos_as_xyz
  x,y,z
_cell_length_a	16.974800
_cell_length_b	10.654541
_cell_length_c	15.455313
_cell_angle_alpha	92.691200
_cell_angle_beta	90.973911
_cell_angle_gamma	83.935819
loop_
_atom_site_label
_atom_site_type_symbol
_atom_site_fract_x
_atom_site_fract_y
_atom_site_fract_z
O1	O	1.049949	0.160091	0.001600
O2	O	1.549949	0.660091	0.501600
O3	O	0.820621	0.179269	-0.014505
O4	O	1.320621	0.679269	0.485495
O5	O	0.940558	-0.013114	-0.006077
O6	O	1.440558	0.486886	0.493923
O7	O	0.930011	0.352474	-0.006828
O8	O	1.430011	0.852474	0.493172
O9	O	0.933699	-0.002158	0.137703
O10	O	1.433699	0.497842	0.637703
O11	O	0.813762	0.190225	0.129275
O12	O	1.313762	0.690225	0.629275
O13	O	1.043090	0.171046	0.145381
O14	O	1.543090	0.671046	0.645381
Cu15	Cu	0.927800	0.181636	0.150456
Cu16	Cu	1.427800	0.681636	0.650456
Cu17	Cu	0.935911	0.168680	-0.019581
Cu18	Cu	1.435911	0.668680	0.480419
O19	O	0.923152	0.363430	0.136952
O20	O	1.423152	0.863430	0.636952
C21	C	0.787827	0.183817	0.055322
C22	C	1.287827	0.683817	0.555322
C23	C	0.700330	0.181030	0.049178
C24	C	1.200330	0.681030	0.549178
C25	C	0.655490	0.185690	0.124667
C26	C	1.155490	0.685690	0.624667
C27	C	0.573279	0.183052	0.118896
C28	C	1.073279	0.683052	0.618896
C29	C	0.535909	0.175763	0.037634
C30	C	1.035909	0.675763	0.537634
C31	C	0.580755	0.171099	-0.037861
C32	C	1.080755	0.671099	0.462139
C33	C	0.662965	0.173728	-0.032089
C34	C	1.162965	0.673728	0.467911
C35	C	0.290438	0.167250	0.011967
C36	C	0.790438	0.667250	0.511967
C37	C	0.208221	0.164625	0.006200
C38	C	0.708221	0.664625	0.506200
C39	C	0.200750	0.176576	0.162958
C40	C	0.700750	0.676576	0.662958
C41	C	0.282962	0.179212	0.168723
C42	C	0.782962	0.679212	0.668723
C43	C	0.327802	0.174542	0.093228
C44	C	0.827802	0.674542	0.593228
N45	N	0.451875	0.173070	0.031733
N46	N	0.951875	0.673070	0.531733
N47	N	0.411834	0.177225	0.099130
N48	N	0.911834	0.677225	0.599130
C49	C	0.936355	-0.054426	0.065758
C50	C	1.436355	0.445574	0.565758
C51	C	0.934039	-0.193846	0.065594
C52	C	1.434039	0.306154	0.565594
C53	C	1.077456	-0.223299	0.075678
C54	C	1.577456	0.276701	0.575678
C55	C	1.148074	-0.303524	0.080644
C56	C	1.648074	0.196476	0.580644
C57	C	1.145893	-0.434519	0.080488
C58	C	1.645893	0.065481	0.580488
C59	C	1.073087	-0.485292	0.075363
C60	C	1.573087	0.014708	0.575363
C61	C	1.002470	-0.405068	0.070396
C62	C	1.502470	0.094932	0.570396
C63	C	1.004658	-0.274071	0.070555
C64	C	1.504658	0.225929	0.570555
C65	C	0.859055	-0.375615	0.060307
C66	C	1.359055	0.124385	0.560307
C67	C	0.861233	-0.244618	0.060469
C68	C	1.361233	0.255382	0.560469
C69	C	0.786249	-0.426388	0.055181
C70	C	1.286249	0.073612	0.555181
C71	C	0.715629	-0.346163	0.050220
C72	C	1.215629	0.153837	0.550220
C73	C	0.717813	-0.215160	0.050377
C74	C	1.217813	0.284840	0.550377
C75	C	0.790616	-0.164394	0.055502
C76	C	1.290616	0.335606	0.555502
C77	C	1.075884	0.166499	0.075551
C78	C	1.575884	0.666499	0.575551
C79	C	1.163381	0.169285	0.081690
C80	C	1.663381	0.669285	0.581690
C81	C	0.927356	0.404741	0.065115
C82	C	1.427356	0.904741	0.565115
C83	C	0.929672	0.544161	0.065273
C84	C	1.429672	1.044161	0.565273
N85	N	0.922100	0.190748	0.270051
N86	N	1.422100	0.690748	0.770051
N87	N	0.941616	0.159557	-0.139175
N88	N	1.441616	0.659557	0.360825
C89	C	0.973072	0.109047	0.319027
C90	C	1.473072	0.609047	0.819027
C91	C	0.968769	0.115950	0.409533
C92	C	1.468769	0.615950	0.909533
C93	C	0.913498	0.204561	0.451061
C94	C	1.413498	0.704561	0.951061
C95	C	0.862521	0.286265	0.402078
C96	C	1.362521	0.786265	0.902078
C97	C	0.866820	0.279356	0.311574
C98	C	1.366820	0.779356	0.811574
C99	C	0.894939	0.234352	0.721338
C100	C	1.394939	0.734352	1.221338
C101	C	0.890645	0.241258	0.811849
C102	C	1.390645	0.741258	1.311849
C103	C	0.996893	0.070941	0.819297
C104	C	1.496893	0.570941	1.319297
C105	C	1.001190	0.064044	0.728791
C106	C	1.501190	0.564044	1.228791
C107	C	0.950211	0.145744	0.679816
C108	C	1.450211	0.645744	1.179816
N109	N	0.909100	0.211622	0.543572
N110	N	1.409100	0.711622	1.043572
N111	N	0.954605	0.138676	0.587306
N112	N	1.454605	0.638676	1.087306
H113	H	0.326937	0.163443	-0.049507
H114	H	0.826937	0.663443	0.450493
Br115	Br	1.246877	-0.234614	0.087592
Br116	Br	1.746877	0.265386	0.587592
Br117	Br	0.333672	0.189120	0.279011
Br118	Br	0.833672	0.689120	0.779011
H119	H	0.853430	0.300878	0.681469
H120	H	1.353430	0.800878	1.181469
Br121	Br	0.530044	0.161151	-0.148146
Br122	Br	1.030044	0.661151	0.351854
H123	H	0.656357	-0.387514	0.046042
H124	H	1.156357	0.112486	0.546042
H125	H	0.699473	0.169936	-0.093561
H126	H	1.199473	0.669936	0.406439
H127	H	0.817514	0.358410	0.435895
H128	H	1.317514	0.858410	0.935895
H129	H	1.079239	-0.116636	0.075817
H130	H	1.579239	0.383364	0.575817
Br131	Br	1.037943	0.005065	0.476003
Br132	Br	1.537943	0.505065	0.976003
Br133	Br	0.793584	0.013386	0.055725
Br134	Br	1.293584	0.513386	0.555725
Br135	Br	1.048093	-0.011207	0.262678
Br136	Br	1.548093	0.488793	0.762678
Br137	Br	0.157504	0.154741	-0.104091
Br138	Br	0.657504	0.654741	0.395909
Br139	Br	1.241731	-0.543402	0.087218
Br140	Br	1.741731	-0.043402	0.587218
Br141	Br	0.706197	0.195596	0.234957
Br142	Br	1.206197	0.695596	0.734957
Br143	Br	0.512425	0.189397	0.221351
Br144	Br	1.012425	0.689397	0.721351
H145	H	0.825313	0.345884	0.271698
H146	H	1.325313	0.845884	0.771698
Br147	Br	0.139893	0.182912	0.265410
Br148	Br	0.639893	0.682912	0.765410
Br149	Br	1.076205	-0.056209	0.672431
Br150	Br	1.576205	0.443791	1.172431
H151	H	1.071319	-0.591958	0.075226
H152	H	1.571319	-0.091958	0.575226
Br153	Br	0.621970	-0.106294	0.043626
Br154	Br	1.121970	0.393706	0.543626
Br155	Br	0.783291	-0.604174	0.054906
Br156	Br	1.283291	-0.104174	0.554906
Br157	Br	1.066075	-0.039935	0.885766
Br158	Br	1.566075	0.460065	1.385766
H159	H	0.845634	0.313421	0.845656
H160	H	1.345634	0.813421	1.345656
