data_functionalizedCrystal
_audit_creation_method	'MofGen! by Chris Wilmer'
_symmetry_space_group_name_H-M	'P1'
_symmetry_Int_Tables_number	1
_symmetry_cell_setting	triclinic
loop_
_symmetry_equiv_pos_as_xyz
  x,y,z
_cell_length_a	15.944551
_cell_length_b	27.731996
_cell_length_c	14.421503
_cell_angle_alpha	89.998301
_cell_angle_beta	89.996859
_cell_angle_gamma	83.060063
loop_
_atom_site_label
_atom_site_type_symbol
_atom_site_fract_x
_atom_site_fract_y
_atom_site_fract_z
O1	O	1.113694	0.062335	-0.077027
O2	O	0.869041	0.070021	-0.077052
O3	O	0.998989	-0.004187	-0.077019
O4	O	0.983746	0.136544	-0.077061
O5	O	0.998967	-0.004176	0.077204
O6	O	0.869020	0.070032	0.077171
O7	O	1.113672	0.062346	0.077196
Cu8	Cu	0.991344	0.066190	0.091265
Cu9	Cu	0.991369	0.066177	-0.091122
O10	O	0.983725	0.136555	0.077163
C11	C	0.837741	0.069708	0.000057
C12	C	0.744508	0.068751	0.000048
C13	C	0.530298	0.020467	0.000081
C14	C	0.468988	0.042883	-0.075966
C15	C	0.573805	0.067021	0.000060
C16	C	0.468989	0.042905	0.076086
C17	C	0.408915	0.065346	0.000075
C18	C	0.513723	0.089450	-0.076050
C19	C	0.513730	0.089465	0.076071
C20	C	0.452437	0.111915	0.000005
C21	C	0.668794	0.067984	0.000050
C22	C	0.313926	0.064385	0.000078
C23	C	0.998665	-0.022190	0.000096
C24	C	0.997722	-0.075851	0.000105
C25	C	0.991800	-0.408599	-0.084008
C26	C	0.988218	-0.610273	-0.084024
O27	O	0.987729	-0.636350	-0.155521
N28	N	0.987762	-0.635486	0.000042
C29	C	0.988195	-0.610277	0.084118
O30	O	0.987716	-0.636349	0.155622
C31	C	0.991771	-0.408603	0.084134
C32	C	0.992236	-0.383394	0.000062
C33	C	0.992264	-0.383389	-0.168073
C34	C	0.993164	-0.332974	-0.168068
C35	C	0.993600	-0.307769	-0.083998
C36	C	0.993135	-0.332979	0.000067
C37	C	0.992198	-0.383395	0.168210
C38	C	0.993089	-0.332973	0.168206
C39	C	0.993555	-0.307764	0.084134
C40	C	0.994471	-0.257358	0.084142
N41	N	0.994928	-0.232145	0.000076
C42	C	0.994492	-0.257350	-0.083994
C43	C	0.986320	-0.716158	0.084104
C44	C	0.985428	-0.766576	0.084101
C45	C	0.985449	-0.766569	-0.084043
C46	C	0.986348	-0.716150	-0.084038
C47	C	0.986776	-0.690945	0.000038
C48	C	0.996382	-0.151475	-0.083977
C49	C	0.997286	-0.101056	-0.083965
C50	C	0.997260	-0.101068	0.084178
C51	C	0.996361	-0.151483	0.084166
C52	C	0.995919	-0.176685	0.000081
O53	O	0.994951	-0.231249	0.155601
O54	O	0.994952	-0.231268	-0.155487
C55	C	0.990900	-0.459014	-0.084013
C56	C	0.990436	-0.484224	0.000052
C57	C	0.990872	-0.459019	0.084122
C58	C	0.989544	-0.534642	0.000048
C59	C	0.989108	-0.559847	-0.084022
C60	C	0.989564	-0.534634	-0.168088
C61	C	0.990464	-0.484219	-0.168083
C62	C	0.990415	-0.484232	0.168189
C63	C	0.989516	-0.534647	0.168177
C64	C	0.989080	-0.559852	0.084107
C65	C	1.144973	0.062660	0.000085
C66	C	1.238206	0.063616	0.000087
C67	C	0.984049	0.154558	0.000046
C68	C	0.984992	0.208218	0.000031
N69	N	0.991332	0.066199	0.219547
N70	N	0.991388	0.066165	-0.219403
C71	C	0.931234	0.100498	0.469185
C72	C	1.007008	0.109882	0.530992
C73	C	0.991353	0.066188	0.408708
C74	C	0.915598	0.056815	0.530995
C75	C	0.991366	0.066178	0.591430
C76	C	1.067165	0.075594	0.469154
C77	C	0.975705	0.022507	0.469152
C78	C	1.051534	0.031873	0.530931
C79	C	0.991344	0.066195	0.303447
C80	C	0.991383	0.066170	0.696689
H81	H	0.997667	-0.080533	-0.152429
C82	C	0.627204	-0.038713	-0.078883
C83	C	0.575978	-0.031694	-0.000001
H84	H	0.655411	-0.070913	-0.078931
H85	H	0.593208	-0.033718	-0.132918
H86	H	0.667745	-0.016273	-0.078287
H87	H	0.535432	-0.054132	-0.000600
H88	H	0.609976	-0.036694	0.054048
C89	C	1.199475	0.002626	0.535925
C90	C	1.120244	-0.007303	0.567313
H91	H	1.241894	-0.021557	0.558394
H92	H	1.200140	0.002593	0.470068
H93	H	1.210131	0.033573	0.558042
H94	H	1.109586	-0.038249	0.545191
H95	H	1.119578	-0.007276	0.633184
C96	C	0.465916	0.040214	-0.242332
C97	C	0.442211	0.016296	-0.162745
H98	H	0.449395	0.023796	-0.295902
H99	H	0.438974	0.072690	-0.242422
H100	H	0.525460	0.040370	-0.242651
H101	H	0.382666	0.016144	-0.162422
H102	H	0.469151	-0.016188	-0.162655
C103	C	0.429520	0.188371	-0.079755
C104	C	0.406964	0.164123	-0.000065
H105	H	0.401441	0.220601	-0.079802
H106	H	0.488883	0.189257	-0.080261
H107	H	0.413519	0.171705	-0.133248
H108	H	0.422971	0.180788	0.053429
H109	H	0.347588	0.163241	0.000449
C110	C	0.992238	-0.378315	0.334405
C111	C	0.991677	-0.411096	0.260626
H112	H	0.991909	-0.395416	0.391462
H113	H	1.041588	-0.362341	0.330917
H114	H	0.943587	-0.354960	0.330879
H115	H	1.040331	-0.434449	0.264148
H116	H	0.942321	-0.427078	0.264116
C117	C	0.878378	-0.037074	0.463602
C118	C	0.957790	-0.027337	0.432441
H119	H	0.867311	-0.067844	0.440931
H120	H	0.877740	-0.037353	0.529457
H121	H	0.836225	-0.012631	0.441536
H122	H	0.999944	-0.051778	0.454513
H123	H	0.958435	-0.027061	0.366573
C124	C	0.628031	0.116634	-0.162184
C125	C	0.540355	0.116001	-0.162944
H126	H	0.644472	0.133022	-0.215831
H127	H	0.643694	0.133064	-0.108265
H128	H	0.655387	0.084245	-0.161956
H129	H	0.512998	0.148391	-0.163165
H130	H	0.524683	0.099572	-0.216877
C131	C	0.830273	0.045791	0.664748
C132	C	0.829107	0.046115	0.567664
H133	H	0.776873	0.039192	0.687380
H134	H	0.872915	0.021383	0.685882
H135	H	0.841807	0.076585	0.686821
H136	H	0.817579	0.015320	0.545590
H137	H	0.786452	0.070525	0.546520
C138	C	0.518252	0.091585	0.242411
C139	C	0.540554	0.116029	0.162849
H140	H	0.534820	0.107981	0.295988
H141	H	0.458839	0.090917	0.243346
H142	H	0.545985	0.059282	0.241863
H143	H	0.512816	0.148331	0.163393
H144	H	0.599978	0.116702	0.161914
H145	H	0.986673	-0.695641	0.152573
C146	C	0.481937	-0.031554	0.162733
C147	C	0.442217	0.016322	0.162878
H148	H	0.465413	-0.047966	0.216314
H149	H	0.465857	-0.047775	0.108746
H150	H	0.541479	-0.031389	0.163056
H151	H	0.382675	0.016157	0.162548
H152	H	0.458291	0.032546	0.216879
C153	C	0.921839	-0.270843	0.265748
C154	C	0.993559	-0.305267	0.260625
H155	H	0.922129	-0.253741	0.322805
H156	H	0.922253	-0.248615	0.215688
H157	H	0.872496	-0.286830	0.262240
H158	H	1.042903	-0.289279	0.264126
H159	H	0.993154	-0.327498	0.310698
H160	H	0.996019	-0.171989	-0.152447
H161	H	0.993539	-0.312452	-0.236528
H162	H	0.997618	-0.080537	0.152626
C163	C	0.992390	-0.378305	-0.334267
C164	C	0.991792	-0.411089	-0.260494
H165	H	0.992109	-0.395405	-0.391327
H166	H	0.943738	-0.354957	-0.330772
H167	H	1.041739	-0.362324	-0.330741
H168	H	0.942440	-0.427068	-0.264016
H169	H	1.040450	-0.434445	-0.263990
H170	H	0.986725	-0.695627	-0.152497
H171	H	0.995990	-0.172010	0.152624
C172	C	0.984076	-0.843856	-0.158693
C173	C	0.984961	-0.794280	-0.176455
H174	H	0.983765	-0.860963	-0.215742
H175	H	1.032927	-0.855802	-0.124160
H176	H	0.934926	-0.848424	-0.124143
H177	H	1.034115	-0.789712	-0.210999
H178	H	0.936105	-0.782330	-0.211003
H179	H	0.985062	-0.787099	0.152560
C180	C	0.988191	-0.611922	-0.242737
C181	C	0.989081	-0.562346	-0.260500
H182	H	0.987883	-0.629030	-0.299786
H183	H	1.037038	-0.623868	-0.208198
H184	H	0.939037	-0.616488	-0.208192
H185	H	1.038238	-0.557779	-0.295039
H186	H	0.940228	-0.550396	-0.295054
C187	C	0.989569	-0.529576	0.334383
C188	C	0.989002	-0.562354	0.260598
H189	H	0.989241	-0.546680	0.391437
H190	H	1.038921	-0.513604	0.330896
H191	H	0.940920	-0.506220	0.330863
H192	H	1.037655	-0.585708	0.264114
H193	H	0.939645	-0.578334	0.264087
C194	C	0.879281	0.185403	0.463790
C195	C	0.862675	0.139696	0.432571
H196	H	0.836961	0.209602	0.441178
H197	H	0.879143	0.185860	0.529645
H198	H	0.932999	0.191748	0.441703
H199	H	0.808959	0.133349	0.454664
H200	H	0.862804	0.139237	0.366702
C201	C	1.025460	0.159059	0.664759
C202	C	1.024890	0.159741	0.567675
H203	H	1.036498	0.189840	0.687402
H204	H	0.972057	0.152168	0.686832
H205	H	1.068223	0.134711	0.685883
H206	H	0.982122	0.184087	0.546551
H207	H	1.078300	0.166637	0.545594
H208	H	0.990842	-0.463698	-0.236543
H209	H	0.990771	-0.463715	0.236650
H210	H	1.131249	0.083561	0.442105
