data_functionalizedCrystal
_audit_creation_method	'MofGen! by Chris Wilmer'
_symmetry_space_group_name_H-M	'P1'
_symmetry_Int_Tables_number	1
_symmetry_cell_setting	triclinic
loop_
_symmetry_equiv_pos_as_xyz
  x,y,z
_cell_length_a	19.077105
_cell_length_b	29.839131
_cell_length_c	19.076919
_cell_angle_alpha	92.267459
_cell_angle_beta	90.076224
_cell_angle_gamma	87.737628
loop_
_atom_site_label
_atom_site_type_symbol
_atom_site_fract_x
_atom_site_fract_y
_atom_site_fract_z
Zn1	Zn	1.058171	-0.217337	-0.440392
Zn2	Zn	1.062777	-0.289569	-0.322877
Zn3	Zn	0.945391	-0.211319	-0.318186
Zn4	Zn	0.940599	-0.289298	-0.435629
O5	O	1.001735	-0.251881	-0.379271
O6	O	1.157112	-0.229551	-0.428760
O7	O	1.051139	-0.276784	-0.223924
O8	O	0.960429	-0.149253	-0.334427
O9	O	1.160497	-0.282620	-0.342422
O10	O	1.043288	-0.153674	-0.424211
O11	O	0.964896	-0.219294	-0.220477
O12	O	0.846425	-0.219031	-0.329809
O13	O	0.952262	-0.282158	-0.534592
O14	O	0.842904	-0.276322	-0.416094
O15	O	1.038641	-0.229288	-0.538091
O16	O	1.046493	-0.352398	-0.337803
O17	O	0.956729	-0.352199	-0.420642
C18	C	0.819169	-0.246995	-0.371926
C19	C	0.741065	-0.244915	-0.368801
C20	C	0.702560	-0.273809	-0.412186
C21	C	0.629174	-0.271849	-0.409252
C22	C	0.594294	-0.240998	-0.362930
C23	C	0.632804	-0.212102	-0.319543
C24	C	0.706189	-0.214059	-0.322481
C25	C	0.375011	-0.231938	-0.349338
C26	C	0.301621	-0.229984	-0.346403
C27	C	0.297996	-0.289731	-0.436113
C28	C	0.371382	-0.291688	-0.439043
C29	C	0.409886	-0.262790	-0.395659
N30	N	0.519281	-0.238996	-0.359929
N31	N	0.484897	-0.264790	-0.398664
C32	C	1.001609	-0.368599	-0.379231
C33	C	1.001619	-0.418534	-0.379240
C34	C	1.048554	-0.728276	-0.336206
C35	C	1.048639	-0.915952	-0.336237
O36	O	1.088445	-0.940297	-0.299616
N37	N	1.001878	-0.939328	-0.379330
C38	C	0.955095	-0.915782	-0.422422
O39	O	0.915329	-0.939972	-0.459082
C40	C	0.955014	-0.728107	-0.422395
C41	C	1.001773	-0.704734	-0.379293
C42	C	1.095310	-0.704902	-0.293109
C43	C	1.095285	-0.657986	-0.293099
C44	C	1.048505	-0.634443	-0.336186
C45	C	1.001749	-0.657817	-0.379283
C46	C	0.908235	-0.704563	-0.465490
C47	C	0.908220	-0.657641	-0.465480
C48	C	0.954979	-0.634267	-0.422379
C49	C	0.954944	-0.587358	-0.422360
N50	N	1.001705	-0.563982	-0.379267
C51	C	1.048485	-0.587525	-0.336180
C52	C	0.955141	-1.014314	-0.422432
C53	C	0.955160	-1.061233	-0.422439
C54	C	1.048705	-1.061399	-0.336254
C55	C	1.048682	-1.014480	-0.336245
C56	C	1.001902	-0.990938	-0.379339
C57	C	1.048430	-0.488997	-0.336161
C58	C	1.048399	-0.442077	-0.336153
C59	C	0.954857	-0.441914	-0.422340
C60	C	0.954885	-0.488831	-0.422346
C61	C	1.001677	-0.512371	-0.379255
O62	O	0.915164	-0.562985	-0.458967
O63	O	1.088256	-0.563328	-0.299537
C64	C	1.048578	-0.775192	-0.336216
C65	C	1.001822	-0.798566	-0.379313
C66	C	0.955041	-0.775024	-0.422401
C67	C	1.001841	-0.845485	-0.379319
C68	C	1.048622	-0.869027	-0.336232
C69	C	1.095383	-0.845651	-0.293139
C70	C	1.095359	-0.798735	-0.293129
C71	C	0.908280	-0.798400	-0.465494
C72	C	0.908308	-0.845316	-0.465500
C73	C	0.955089	-0.868859	-0.422413
C74	C	1.185013	-0.256787	-0.386645
C75	C	1.263116	-0.258877	-0.389788
C76	C	0.994403	-0.256364	-0.562551
C77	C	0.991279	-0.258274	-0.640654
C78	C	1.001879	-0.134708	-0.379327
C79	C	1.001941	-0.084775	-0.379351
C80	C	1.034782	-0.231647	-0.679169
C81	C	1.031838	-0.233440	-0.752555
C82	C	0.985394	-0.261863	-0.787424
C83	C	0.941886	-0.288492	-0.748903
C84	C	0.944827	-0.286696	-0.675518
C85	C	0.971772	-0.270184	-1.006704
C86	C	0.968835	-0.271978	-1.080093
C87	C	1.058787	-0.216925	-1.083741
C88	C	1.061727	-0.215134	-1.010355
C89	C	1.018216	-0.241761	-0.971840
N90	N	0.982385	-0.263698	-0.862436
N91	N	1.021222	-0.239924	-0.896830
C92	C	1.009078	-0.247384	-0.196706
C93	C	1.012338	-0.245351	-0.118609
H94	H	1.086476	-0.423047	-0.301052
H95	H	0.870127	-0.638476	-0.500576
H96	H	0.916767	-0.422739	-0.457419
H97	H	0.917045	-0.995150	-0.457526
H98	H	1.067264	-0.211758	-0.783912
O99	O	0.923671	-0.299526	-1.114038
C100	C	0.876614	-0.273767	-1.154656
H101	H	0.901007	-0.240658	-1.166667
H102	H	0.865100	-0.293074	-1.205871
H103	H	0.825682	-0.266739	-1.124277
H104	H	0.604399	-0.186981	-0.281829
H105	H	1.099548	-0.191990	-0.981970
O106	O	0.862913	-0.727313	-0.507404
C107	C	0.901081	-0.756582	-0.554448
H108	H	0.955339	-0.764408	-0.531845
H109	H	0.872086	-0.789053	-0.562714
H110	H	0.906683	-0.739954	-0.606826
O111	O	1.093905	-0.511789	-0.294235
C112	C	1.135174	-0.481091	-0.256211
H113	H	1.106470	-0.446838	-0.252600
H114	H	1.144934	-0.493497	-0.201156
H115	H	1.187488	-0.478113	-0.284129
O116	O	1.140782	-0.635355	-0.251217
C117	C	1.182061	-0.666203	-0.213185
H118	H	1.183321	-0.700407	-0.242074
H119	H	1.237727	-0.653916	-0.207966
H120	H	1.158517	-0.669229	-0.158761
H121	H	1.133408	-0.724066	-0.258022
H122	H	0.737539	-0.190529	-0.287155
H123	H	1.094209	-0.195246	-1.115107
H124	H	0.266638	-0.313257	-0.471435
O125	O	0.909437	-0.511470	-0.464276
C126	C	0.868128	-0.480627	-0.502288
H127	H	0.896789	-0.447989	-0.505887
H128	H	0.858385	-0.495323	-0.557348
H129	H	0.815808	-0.473628	-0.474368
O130	O	0.736516	-0.303718	-0.457222
C131	C	0.777168	-0.280430	-0.504391
H132	H	0.789181	-0.246050	-0.480145
H133	H	0.828380	-0.300344	-0.515822
H134	H	0.746817	-0.276064	-0.555346
O135	O	0.929472	-0.296087	-0.969404
C136	C	0.887835	-0.321547	-1.015919
H137	H	0.914528	-0.325162	-1.069383
H138	H	0.881123	-0.356218	-0.994390
H139	H	0.834185	-0.303848	-1.021595
O140	O	1.140851	-0.776104	-0.251243
C141	C	1.182128	-0.806951	-0.213208
H142	H	1.183394	-0.841154	-0.242100
H143	H	1.237793	-0.794663	-0.207982
H144	H	1.158578	-0.809980	-0.158788
O145	O	1.140914	-0.868544	-0.251397
C146	C	1.184657	-0.897835	-0.293291
H147	H	1.186705	-0.885142	-0.348806
H148	H	1.239779	-0.899158	-0.270120
H149	H	1.162860	-0.932889	-0.294825
O150	O	0.862953	-0.868003	-0.507476
C151	C	0.875442	-0.858617	-0.578129
H152	H	0.931426	-0.847269	-0.583969
H153	H	0.867990	-0.890151	-0.612610
H154	H	0.837011	-0.830842	-0.594942
H155	H	0.904068	-0.311633	-0.777298
H156	H	0.273224	-0.204856	-0.308686
O157	O	0.902550	-0.312613	-0.638210
C158	C	0.860919	-0.338081	-0.684719
H159	H	0.887598	-0.341681	-0.738192
H160	H	0.854240	-0.372758	-0.663199
H161	H	0.807255	-0.320397	-0.690376
H162	H	0.597826	-0.295378	-0.444580
H163	H	1.072604	-0.208503	-0.650785
H164	H	0.399777	-0.316811	-0.476762
O165	O	0.412482	-0.203933	-0.307159
C166	C	0.456702	-0.229482	-0.263384
H167	H	0.466688	-0.264448	-0.288509
H168	H	0.508694	-0.212317	-0.256079
H169	H	0.430483	-0.232341	-0.210167
H170	H	1.086796	-1.080576	-0.301171
O171	O	1.094075	-0.991822	-0.294281
C172	C	1.081567	-1.001183	-0.223620
H173	H	1.054625	-1.034507	-0.221062
H174	H	1.133565	-1.003353	-0.194194
H175	H	1.046401	-0.973259	-0.198466
O176	O	0.909708	-1.083867	-0.464367
C177	C	0.868407	-1.053020	-0.502380
H178	H	0.897077	-1.020386	-0.505984
H179	H	0.858657	-1.067718	-0.557438
H180	H	0.816089	-1.046014	-0.474458
O181	O	0.862803	-0.775481	-0.507249
C182	C	0.819025	-0.746201	-0.465373
H183	H	0.845980	-0.738526	-0.413142
H184	H	0.808415	-0.713656	-0.493603
H185	H	0.767283	-0.762743	-0.455513
