data_functionalizedCrystal
_audit_creation_method	'MofGen! by Chris Wilmer'
_symmetry_space_group_name_H-M	'P1'
_symmetry_Int_Tables_number	1
_symmetry_cell_setting	triclinic
loop_
_symmetry_equiv_pos_as_xyz
  x,y,z
_cell_length_a	14.853567
_cell_length_b	13.101039
_cell_length_c	14.853569
_cell_angle_alpha	86.634131
_cell_angle_beta	83.635248
_cell_angle_gamma	93.359409
loop_
_atom_site_label
_atom_site_type_symbol
_atom_site_fract_x
_atom_site_fract_y
_atom_site_fract_z
O1	O	1.201315	0.085146	0.112738
O2	O	0.938856	0.085164	0.126759
O3	O	1.077095	0.085145	-0.011480
O4	O	1.063076	0.085165	0.250978
O5	O	1.067176	-0.085284	-0.001546
O6	O	0.928938	-0.085264	0.136694
O7	O	1.191396	-0.085282	0.122673
Zn8	Zn	1.058592	-0.112332	0.131261
Zn9	Zn	1.071660	0.112214	0.118171
O10	O	1.053158	-0.085263	0.260913
C11	C	0.900309	-0.000048	0.131091
C12	C	0.800225	-0.000041	0.129187
N13	N	1.049680	-0.265580	0.140194
C14	C	0.387689	-0.000071	0.039023
C15	C	0.366410	-0.000057	0.203255
C16	C	0.460444	-0.000054	0.205045
C17	C	0.518105	-0.000058	0.123822
C18	C	0.481732	-0.000065	0.040810
C19	C	0.496824	-0.000037	0.288055
C20	C	0.590864	-0.000032	0.289848
C21	C	0.648526	-0.000043	0.208625
C22	C	0.612148	-0.000051	0.125609
C23	C	0.669809	-0.000055	0.044387
C24	C	0.633433	-0.000071	-0.038629
C25	C	0.539395	-0.000076	-0.040413
C26	C	0.742564	-0.000038	0.210409
C27	C	0.763852	-0.000048	0.046174
C28	C	1.037555	-0.474621	0.152355
C29	C	1.092701	-0.525504	0.097073
C30	C	1.085955	-0.641822	0.103839
C31	C	1.044301	-0.358293	0.145590
C32	C	1.229944	-0.000068	0.118341
C33	C	1.330028	-0.000068	0.120245
C34	C	1.071500	-0.000070	-0.040102
C35	C	1.069596	-0.000070	-0.140185
N36	N	1.080579	0.265462	0.109231
C37	C	0.986585	-0.000067	-0.176562
C38	C	1.150818	-0.000067	-0.197851
C39	C	1.149032	-0.000062	-0.291886
C40	C	1.066021	-0.000058	-0.328263
C41	C	0.984796	-0.000059	-0.270605
C42	C	1.230255	-0.000051	-0.349551
C43	C	1.228472	-0.000045	-0.443592
C44	C	1.145460	-0.000049	-0.479970
C45	C	1.064232	-0.000051	-0.422306
C46	C	0.981222	-0.000047	-0.458682
C47	C	0.899992	-0.000056	-0.401020
C48	C	0.901784	-0.000062	-0.306983
C49	C	1.143668	-0.000042	-0.574006
C50	C	0.979433	-0.000039	-0.552726
C51	C	1.058753	-0.000046	0.289534
C52	C	1.060657	-0.000039	0.389617
H53	H	0.810795	-0.000055	-0.019968
N54	N	1.161963	-0.467500	0.027658
H55	H	1.197830	-0.517667	-0.008292
H56	H	1.129876	-0.422985	-0.014747
H57	H	0.772178	-0.000027	0.277999
H58	H	0.835652	-0.000067	-0.260026
H59	H	1.297834	-0.000117	-0.319922
H60	H	0.985280	-0.518410	0.204764
H61	H	0.680393	-0.000067	-0.104760
H62	H	0.620473	-0.000019	0.357444
N63	N	0.898975	-0.000102	-0.114376
H64	H	0.912698	-0.000118	-0.049282
H65	H	0.866464	0.063073	-0.129831
H66	H	0.911834	-0.000045	-0.582335
H67	H	0.832405	-0.000046	-0.430650
N68	N	0.500161	-0.000100	-0.129944
H69	H	0.431839	-0.000102	-0.118750
H70	H	0.524914	0.063074	-0.169179
H71	H	0.358067	-0.000088	-0.028567
H72	H	1.218400	-0.000090	-0.168226
N73	N	0.304225	-0.000043	0.290854
H74	H	0.239133	-0.000044	0.277125
H75	H	0.312340	-0.063220	0.330709
H76	H	1.294614	-0.000040	-0.490533
N77	N	1.231267	-0.000022	-0.636200
H78	H	1.284125	-0.000020	-0.598886
H79	H	1.230435	-0.063200	-0.672005
H80	H	0.449871	-0.000023	0.354181
