data_functionalizedCrystal
_audit_creation_method	'MofGen! by Chris Wilmer'
_symmetry_space_group_name_H-M	'P1'
_symmetry_Int_Tables_number	1
_symmetry_cell_setting	triclinic
loop_
_symmetry_equiv_pos_as_xyz
  x,y,z
_cell_length_a	10.489716
_cell_length_b	9.565339
_cell_length_c	10.723022
_cell_angle_alpha	89.997898
_cell_angle_beta	95.501819
_cell_angle_gamma	89.995366
loop_
_atom_site_label
_atom_site_type_symbol
_atom_site_fract_x
_atom_site_fract_y
_atom_site_fract_z
O1	O	1.693961	-0.116247	-0.175906
O2	O	1.322750	-0.116252	-0.192464
O3	O	1.516919	-0.116242	-0.002613
O4	O	1.499792	-0.116257	-0.365757
O5	O	1.516898	0.116278	-0.002630
O6	O	1.322729	0.116268	-0.192481
O7	O	1.693939	0.116273	-0.175923
Zn8	Zn	1.508331	0.153188	-0.184205
Zn9	Zn	1.508359	-0.153167	-0.184182
O10	O	1.499771	0.116263	-0.365774
C11	C	1.275208	0.000007	-0.191229
C12	C	1.133580	0.000005	-0.187506
N13	N	1.508321	0.362267	-0.184220
C14	C	1.035831	-0.000003	-0.303929
C15	C	0.958514	0.114651	-0.242418
C16	C	0.958541	-0.114596	-0.242373
C17	C	1.058128	0.114753	-0.126044
C18	C	1.058161	-0.114596	-0.126016
C19	C	0.980894	0.000085	-0.064419
C20	C	1.418495	0.453466	-0.271992
C21	C	1.533974	0.546645	-0.297234
C22	C	1.392885	0.546643	-0.158993
C23	C	1.623859	0.453395	-0.209519
C24	C	1.482693	0.453385	-0.071228
C25	C	1.598256	0.546522	-0.096423
C26	C	1.741481	0.000011	-0.177159
C27	C	1.883110	0.000003	-0.180881
N28	N	1.508354	0.637754	-0.184181
C29	C	1.515662	0.000017	0.043879
C30	C	1.511935	0.000014	0.182435
C31	C	1.616725	0.000011	0.400558
C32	C	1.620581	0.000014	0.257353
C33	C	1.501027	0.000004	0.587734
C34	C	1.504755	0.000007	0.449178
H35	H	0.914991	0.211576	-0.291571
C36	C	1.562948	0.601559	-0.424512
C37	C	1.563749	0.747914	-0.422428
C38	C	1.590438	0.798546	-0.539651
H39	H	1.499096	0.569857	-0.486904
H40	H	1.644382	0.568344	-0.443042
H41	H	1.482327	0.781116	-0.403914
H42	H	1.627602	0.779653	-0.360062
H43	H	1.671871	0.765331	-0.558180
H44	H	1.526582	0.766834	-0.602033
H45	H	1.590997	0.897851	-0.538249
H46	H	1.342604	0.412607	-0.346284
H47	H	1.411747	0.000016	0.384785
C48	C	1.384182	-0.000210	0.238403
C49	C	1.375511	-0.119822	0.312380
C50	C	1.257852	-0.120067	0.363981
H51	H	1.316408	-0.000281	0.172954
H52	H	1.378036	0.080831	0.288698
H53	H	1.381645	-0.200842	0.262088
H54	H	1.443258	-0.119776	0.377849
H55	H	1.251706	-0.039026	0.414275
H56	H	1.190088	-0.120134	0.298523
H57	H	1.251958	-0.201215	0.414189
H58	H	1.721518	0.412607	-0.230953
C59	C	1.699863	0.600601	0.002420
C60	C	1.820459	0.553124	-0.024563
C61	C	1.914093	0.602931	0.066447
H62	H	1.682517	0.567287	0.082517
H63	H	1.698933	0.699918	0.002345
H64	H	1.821387	0.453827	-0.024475
H65	H	1.837846	0.586433	-0.104644
H66	H	1.913163	0.702249	0.066372
H67	H	1.896735	0.569614	0.146539
H68	H	1.995930	0.570736	0.048145
H69	H	1.101467	0.211780	-0.076932
H70	H	1.060435	0.000100	-0.405199
C71	C	0.948602	-0.000043	0.070774
C72	C	1.001302	-0.119037	0.131839
C73	C	0.971605	-0.119185	0.256384
H74	H	0.858253	-0.000880	0.072630
H75	H	0.983084	0.081411	0.111988
H76	H	0.966815	-0.200470	0.090636
H77	H	1.091651	-0.118225	0.130017
H78	H	1.006086	-0.037732	0.297599
H79	H	0.881255	-0.120019	0.258228
H80	H	1.007367	-0.199915	0.297836
H81	H	1.460957	0.412389	0.024279
H82	H	1.295249	0.587607	-0.137674
H83	H	1.709733	0.000019	0.464952
C84	C	1.116148	-0.244005	-0.060748
C85	C	1.065487	-0.363725	-0.122148
C86	C	1.118891	-0.482972	-0.062082
H87	H	1.096436	-0.245025	0.023878
H88	H	1.206460	-0.242675	-0.063000
H89	H	0.975195	-0.365055	-0.119882
H90	H	1.085196	-0.362751	-0.206770
H91	H	1.209204	-0.481642	-0.064334
H92	H	1.099176	-0.483978	0.022542
H93	H	1.084535	-0.564216	-0.103739
H94	H	0.915035	-0.211512	-0.291536
H95	H	1.716449	-0.000033	0.215491
