data_functionalizedCrystal
_audit_creation_method	'MofGen! by Chris Wilmer'
_symmetry_space_group_name_H-M	'P1'
_symmetry_Int_Tables_number	1
_symmetry_cell_setting	triclinic
loop_
_symmetry_equiv_pos_as_xyz
  x,y,z
_cell_length_a	12.759401
_cell_length_b	13.897448
_cell_length_c	12.759393
_cell_angle_alpha	89.966449
_cell_angle_beta	89.982620
_cell_angle_gamma	90.017853
loop_
_atom_site_label
_atom_site_type_symbol
_atom_site_fract_x
_atom_site_fract_y
_atom_site_fract_z
Zn1	Zn	1.606222	-0.383952	-0.593968
Zn2	Zn	1.606111	-0.545282	-0.418283
Zn3	Zn	1.430527	-0.384003	-0.418308
Zn4	Zn	1.430503	-0.545207	-0.593924
O5	O	1.518341	-0.464611	-0.506121
O6	O	1.753228	-0.405363	-0.570671
O7	O	1.582782	-0.523941	-0.271265
O8	O	1.453890	-0.249015	-0.441638
O9	O	1.753146	-0.523891	-0.441596
O10	O	1.582972	-0.248977	-0.570695
O11	O	1.453782	-0.405450	-0.271283
O12	O	1.283503	-0.405377	-0.441596
O13	O	1.453849	-0.523764	-0.740951
O14	O	1.283486	-0.523813	-0.570621
O15	O	1.582949	-0.405290	-0.740984
O16	O	1.582759	-0.680254	-0.441554
O17	O	1.453741	-0.680199	-0.570597
C18	C	1.245373	-0.464593	-0.506107
C19	C	1.128597	-0.464609	-0.506125
C20	C	1.518264	-0.715225	-0.506090
C21	C	1.518327	-0.822439	-0.506113
C22	C	1.073753	-0.526377	-0.573198
C23	C	0.964029	-0.526389	-0.573209
C24	C	0.964002	-0.402862	-0.439067
C25	C	1.073724	-0.402846	-0.439062
C26	C	1.073768	-0.597698	-0.650640
C27	C	0.964044	-0.597710	-0.650652
C28	C	1.518438	-1.018734	-0.506178
C29	C	1.518373	-0.909502	-0.506145
C30	C	1.792374	-0.464630	-0.506136
C31	C	1.909151	-0.464637	-0.506142
C32	C	1.518409	-0.464513	-0.780154
C33	C	1.518438	-0.464471	-0.896931
C34	C	1.518446	-0.213018	-0.506174
C35	C	1.518491	-0.105804	-0.506197
C36	C	1.451296	-0.402761	-0.951809
C37	C	1.451328	-0.402733	-1.061533
C38	C	1.585653	-0.526126	-1.061492
C39	C	1.585615	-0.526159	-0.951770
C40	C	1.373748	-0.331518	-0.951833
C41	C	1.373780	-0.331489	-1.061557
C42	C	1.518333	-0.464639	-0.233154
C43	C	1.518508	-0.464409	-0.116377
H44	H	0.919311	-0.352576	-0.384467
N45	N	1.276825	-0.365034	-1.104275
N46	N	1.275497	-0.437569	-1.162139
H47	H	1.207027	-0.461263	-1.192314
N48	N	1.410337	-0.242524	-0.909132
N49	N	1.489339	-0.241344	-0.851241
H50	H	1.515183	-0.178493	-0.821079
N51	N	1.116443	-0.686665	-0.613887
N52	N	1.095844	-0.715547	-0.523399
H53	H	1.125983	-0.778380	-0.497438
N54	N	1.401205	-0.237773	-1.098948
N55	N	1.480492	-0.226824	-1.155272
H56	H	1.499865	-0.160640	-1.181679
N57	N	1.129730	-0.339734	-0.370555
N58	N	1.080721	-0.284597	-0.310685
H59	H	1.120274	-0.240020	-0.262299
N60	N	1.111154	-0.572710	-0.752767
N61	N	1.047515	-0.555110	-0.824724
H62	H	1.073918	-0.537462	-0.896851
H63	H	1.292357	-0.351523	-0.922055
H64	H	0.930046	-0.571044	-0.728004
N65	N	0.926668	-0.691405	-0.623132
N66	N	0.990315	-0.757405	-0.603726
H67	H	0.963919	-0.823575	-0.584289
N68	N	1.654189	-0.589214	-0.895730
N69	N	1.714157	-0.644287	-0.944709
H70	H	1.762590	-0.688825	-0.905131
H71	H	1.640346	-0.576349	-1.106155
