data_functionalizedCrystal
_audit_creation_method	'MofGen! by Chris Wilmer'
_symmetry_space_group_name_H-M	'P1'
_symmetry_Int_Tables_number	1
_symmetry_cell_setting	triclinic
loop_
_symmetry_equiv_pos_as_xyz
  x,y,z
_cell_length_a	16.625548
_cell_length_b	19.121063
_cell_length_c	16.625539
_cell_angle_alpha	87.591339
_cell_angle_beta	90.020568
_cell_angle_gamma	92.470058
loop_
_atom_site_label
_atom_site_type_symbol
_atom_site_fract_x
_atom_site_fract_y
_atom_site_fract_z
Zn1	Zn	1.218959	-0.279593	0.469577
Zn2	Zn	1.468959	-0.029593	0.719577
Zn3	Zn	1.718959	0.220407	0.969577
Zn4	Zn	1.968959	0.470407	1.219577
Zn5	Zn	1.213098	-0.397050	0.340486
Zn6	Zn	1.463098	-0.147050	0.590486
Zn7	Zn	1.713098	0.102950	0.840486
Zn8	Zn	1.963098	0.352950	1.090486
Zn9	Zn	1.084119	-0.279620	0.334759
Zn10	Zn	1.334119	-0.029620	0.584759
Zn11	Zn	1.584119	0.220380	0.834759
Zn12	Zn	1.834119	0.470380	1.084759
Zn13	Zn	1.078329	-0.397010	0.475274
Zn14	Zn	1.328329	-0.147010	0.725274
Zn15	Zn	1.578329	0.102990	0.975274
Zn16	Zn	1.828329	0.352990	1.225274
O17	O	1.148626	-0.338318	0.405024
O18	O	1.398626	-0.088318	0.655024
O19	O	1.648626	0.161682	0.905024
O20	O	1.898626	0.411682	1.155024
O21	O	1.331013	-0.295179	0.452466
O22	O	1.581013	-0.045179	0.702466
O23	O	1.831013	0.204821	0.952466
O24	O	2.081013	0.454821	1.202466
O25	O	1.195959	-0.381501	0.226895
O26	O	1.445959	-0.131501	0.476895
O27	O	1.695959	0.118499	0.726895
O28	O	1.945959	0.368499	0.976895
O29	O	1.106883	-0.181331	0.347862
O30	O	1.356883	0.068669	0.597862
O31	O	1.606883	0.318669	0.847862
O32	O	1.856883	0.568669	1.097862
O33	O	1.326707	-0.381475	0.357623
O34	O	1.576707	-0.131475	0.607623
O35	O	1.826707	0.118525	0.857623
O36	O	2.076707	0.368525	1.107623
O37	O	1.205949	-0.181312	0.446912
O38	O	1.455949	0.068688	0.696912
O39	O	1.705949	0.318688	0.946912
O40	O	1.955949	0.568688	1.196912
O41	O	1.101199	-0.295225	0.222688
O42	O	1.351199	-0.045225	0.472688
O43	O	1.601199	0.204775	0.722688
O44	O	1.851199	0.454775	0.972688
O45	O	0.970519	-0.295186	0.353386
O46	O	1.220519	-0.045186	0.603386
O47	O	1.470519	0.204814	0.853386
O48	O	1.720519	0.454814	1.103386
O49	O	1.097013	-0.381406	0.587349
O50	O	1.347013	-0.131406	0.837349
O51	O	1.597013	0.118594	1.087349
O52	O	1.847013	0.368594	1.337349
O53	O	0.966265	-0.381432	0.456622
O54	O	1.216265	-0.131432	0.706622
O55	O	1.466265	0.118568	0.956622
O56	O	1.716265	0.368568	1.206622
O57	O	1.200333	-0.295140	0.583164
O58	O	1.450333	-0.045140	0.833164
O59	O	1.700333	0.204860	1.083164
O60	O	1.950333	0.454860	1.333164
O61	O	1.190344	-0.495330	0.363147
O62	O	1.440344	-0.245330	0.613147
O63	O	1.690344	0.004670	0.863147
O64	O	1.940344	0.254670	1.113147
O65	O	1.091330	-0.495300	0.462175
O66	O	1.341330	-0.245300	0.712175
O67	O	1.591330	0.004700	0.962175
O68	O	1.841330	0.254700	1.212175
C69	C	0.939136	-0.338308	0.405001
C70	C	1.189136	-0.088308	0.655001
C71	C	1.439136	0.161692	0.905001
C72	C	1.689136	0.411692	1.155001
C73	C	0.849514	-0.338321	0.405011
C74	C	1.099514	-0.088321	0.655011
C75	C	1.349514	0.161679	0.905011
C76	C	1.599514	0.411679	1.155011
C77	C	0.521338	-0.338325	0.405046
C78	C	0.771338	-0.088325	0.655046
C79	C	1.021338	0.161675	0.905046
C80	C	1.271338	0.411675	1.155046
C81	C	0.612647	-0.338322	0.405034
C82	C	0.862647	-0.088322	0.655034
C83	C	1.112647	0.161678	0.905034
C84	C	1.362647	0.411678	1.155034
C85	C	0.685423	-0.338323	0.405028
C86	C	0.935423	-0.088323	0.655028
C87	C	1.185423	0.161677	0.905028
C88	C	1.435423	0.411677	1.155028
C89	C	0.776738	-0.338319	0.405017
C90	C	1.026738	-0.088319	0.655017
C91	C	1.276738	0.161681	0.905017
C92	C	1.526738	0.411681	1.155017
C93	C	1.139594	-0.520799	0.413918
C94	C	1.389594	-0.270799	0.663918
C95	C	1.639594	-0.020799	0.913918
C96	C	1.889594	0.229201	1.163918
C97	C	1.135804	-0.598865	0.417750
C98	C	1.385804	-0.348865	0.667750
C99	C	1.635804	-0.098865	0.917750
C100	C	1.885804	0.151135	1.167750
C101	C	1.185615	-0.635533	0.368035
C102	C	1.435615	-0.385533	0.618035
C103	C	1.685615	-0.135533	0.868035
C104	C	1.935615	0.114467	1.118035
C105	C	1.182055	-0.708884	0.371644
C106	C	1.432055	-0.458884	0.621644
C107	C	1.682055	-0.208884	0.871644
C108	C	1.932055	0.041116	1.121644
C109	C	1.128680	-0.745566	0.424964
C110	C	1.378680	-0.495566	0.674964
C111	C	1.628680	-0.245566	0.924964
C112	C	1.878680	0.004434	1.174964
C113	C	1.078867	-0.708893	0.474685
C114	C	1.328867	-0.458893	0.724685
C115	C	1.578867	-0.208893	0.974685
C116	C	1.828867	0.041107	1.224685
C117	C	1.082431	-0.635543	0.471080
C118	C	1.332431	-0.385543	0.721080
C119	C	1.582431	-0.135543	0.971080
C120	C	1.832431	0.114457	1.221080
C121	C	1.115340	-0.967036	0.438431
C122	C	1.365340	-0.717036	0.688431
C123	C	1.615340	-0.467036	0.938431
C124	C	1.865340	-0.217036	1.188431
C125	C	1.111778	-1.040391	0.442031
C126	C	1.361778	-0.790391	0.692031
C127	C	1.611778	-0.540391	0.942031
C128	C	1.861778	-0.290391	1.192031
C129	C	1.214967	-1.040377	0.338989
C130	C	1.464967	-0.790377	0.588989
C131	C	1.714967	-0.540377	0.838989
C132	C	1.964967	-0.290377	1.088989
C133	C	1.218524	-0.967025	0.335386
C134	C	1.468524	-0.717025	0.585386
C135	C	1.718524	-0.467025	0.835386
C136	C	1.968524	-0.217025	1.085386
C137	C	1.168714	-0.930359	0.385109
C138	C	1.418714	-0.680359	0.635109
C139	C	1.668714	-0.430359	0.885109
C140	C	1.918714	-0.180359	1.135109
C141	C	1.125038	-0.820543	0.428653
C142	C	1.375038	-0.570543	0.678653
C143	C	1.625038	-0.320543	0.928653
C144	C	1.875038	-0.070543	1.178653
C145	C	1.172360	-0.855383	0.381425
C146	C	1.422360	-0.605383	0.631425
C147	C	1.672360	-0.355383	0.881425
C148	C	1.922360	-0.105383	1.131425
C149	C	1.358934	-0.338329	0.405048
C150	C	1.608934	-0.088329	0.655048
C151	C	1.858934	0.161671	0.905048
C152	C	2.108934	0.411671	1.155048
C153	C	1.448555	-0.338333	0.405058
C154	C	1.698555	-0.088333	0.655058
C155	C	1.948555	0.161667	0.905058
C156	C	2.198555	0.411667	1.155058
C157	C	1.148681	-0.338266	0.615331
C158	C	1.398681	-0.088266	0.865331
C159	C	1.648681	0.161734	1.115331
C160	C	1.898681	0.411734	1.365331
C161	C	1.148705	-0.338244	0.704951
C162	C	1.398705	-0.088244	0.954951
C163	C	1.648705	0.161756	1.204951
C164	C	1.898705	0.411756	1.454951
C165	C	1.157715	-0.155125	0.396113
C166	C	1.407715	0.094875	0.646113
C167	C	1.657715	0.344875	0.896113
C168	C	1.907715	0.594875	1.146113
C169	C	1.161589	-0.077059	0.392315
C170	C	1.411589	0.172941	0.642315
C171	C	1.661589	0.422941	0.892315
C172	C	1.911589	0.672941	1.142315
C173	C	1.148620	-0.338320	0.195533
C174	C	1.398620	-0.088320	0.445533
C175	C	1.648620	0.161680	0.695533
C176	C	1.898620	0.411680	0.945533
C177	C	1.148763	-0.338144	0.105904
C178	C	1.398763	-0.088144	0.355904
C179	C	1.648763	0.161856	0.605904
C180	C	1.898763	0.411856	0.855904
C181	C	1.148746	-0.338165	1.033123
C182	C	1.398746	-0.088165	1.283123
C183	C	1.648746	0.161835	1.533123
C184	C	1.898746	0.411835	1.783123
C185	C	1.148732	-0.338189	0.941815
C186	C	1.398732	-0.088189	1.191815
C187	C	1.648732	0.161811	1.441815
C188	C	1.898732	0.411811	1.691815
C189	C	1.148725	-0.338205	0.869040
C190	C	1.398725	-0.088205	1.119040
C191	C	1.648725	0.161795	1.369040
C192	C	1.898725	0.411795	1.619040
C193	C	1.148711	-0.338228	0.777726
C194	C	1.398711	-0.088228	1.027726
C195	C	1.648711	0.161772	1.277726
C196	C	1.898711	0.411772	1.527726
H197	H	1.229075	-0.605671	0.324612
H198	H	1.479075	-0.355671	0.574612
H199	H	1.729075	-0.105671	0.824612
H200	H	1.979075	0.144329	1.074612
H201	H	1.035411	-0.738766	0.518104
H202	H	1.285411	-0.488766	0.768104
H203	H	1.535411	-0.238766	1.018104
H204	H	1.785411	0.011234	1.268104
H205	H	1.255521	-1.070238	0.298508
H206	H	1.505521	-0.820238	0.548508
H207	H	1.755521	-0.570238	0.798508
H208	H	2.005521	-0.320238	1.048508
H209	H	1.068323	-1.070256	0.485465
H210	H	1.318323	-0.820256	0.735465
H211	H	1.568323	-0.570256	0.985465
H212	H	1.818323	-0.320256	1.235465
C213	C	1.060588	-0.926712	0.493170
C214	C	1.310588	-0.676712	0.743170
C215	C	1.560588	-0.426712	0.993170
C216	C	1.810588	-0.176712	1.243170
N217	N	1.019362	-0.896338	0.534418
N218	N	1.269362	-0.646338	0.784418
N219	N	1.519362	-0.396338	1.034418
N220	N	1.769362	-0.146338	1.284418
H221	H	1.041871	-0.605689	0.511565
H222	H	1.291871	-0.355689	0.761565
H223	H	1.541871	-0.105689	1.011565
H224	H	1.791871	0.144311	1.261565
H225	H	1.215822	-0.825515	0.338014
H226	H	1.465822	-0.575515	0.588014
H227	H	1.715822	-0.325515	0.838014
H228	H	1.965822	-0.075515	1.088014
H229	H	1.222616	-0.738735	0.331159
H230	H	1.472616	-0.488735	0.581159
H231	H	1.722616	-0.238735	0.831159
H232	H	1.972616	0.011265	1.081159
H233	H	1.261986	-0.937160	0.291967
H234	H	1.511986	-0.687160	0.541967
H235	H	1.761986	-0.437160	0.791967
H236	H	2.011986	-0.187160	1.041967
H237	H	1.081578	-0.850418	0.472065
H238	H	1.331578	-0.600418	0.722065
H239	H	1.581578	-0.350418	0.972065
H240	H	1.831578	-0.100418	1.222065
