data_functionalizedCrystal
_audit_creation_method	'MofGen! by Chris Wilmer'
_symmetry_space_group_name_H-M	'P1'
_symmetry_Int_Tables_number	1
_symmetry_cell_setting	triclinic
loop_
_symmetry_equiv_pos_as_xyz
  x,y,z
_cell_length_a	13.897449
_cell_length_b	21.295417
_cell_length_c	13.897441
_cell_angle_alpha	90.036423
_cell_angle_beta	90.020733
_cell_angle_gamma	90.031786
loop_
_atom_site_label
_atom_site_type_symbol
_atom_site_fract_x
_atom_site_fract_y
_atom_site_fract_z
Zn1	Zn	1.474617	-0.250568	0.545342
Zn2	Zn	1.974617	0.249432	1.045342
Zn3	Zn	1.474475	-0.355847	0.384027
Zn4	Zn	1.974475	0.144153	0.884027
Zn5	Zn	1.313306	-0.250598	0.384060
Zn6	Zn	1.813306	0.249402	0.884060
Zn7	Zn	1.313252	-0.355805	0.545280
Zn8	Zn	1.813252	0.144195	1.045280
O9	O	1.393912	-0.303204	0.464677
O10	O	1.893912	0.196796	0.964677
O11	O	1.609579	-0.264538	0.523955
O12	O	2.109579	0.235462	1.023955
O13	O	1.453059	-0.341915	0.249050
O14	O	1.953059	0.158085	0.749050
O15	O	1.334786	-0.162504	0.405495
O16	O	1.834786	0.337496	0.905495
O17	O	1.609475	-0.341886	0.405438
O18	O	2.109475	0.158114	0.905438
O19	O	1.453301	-0.162482	0.523988
O20	O	1.953301	0.337518	1.023988
O21	O	1.334649	-0.264589	0.249074
O22	O	1.834649	0.235411	0.749074
O23	O	1.178317	-0.264549	0.405434
O24	O	1.678317	0.235451	0.905434
O25	O	1.334694	-0.341815	0.680270
O26	O	1.834694	0.158185	1.180270
O27	O	1.178277	-0.341844	0.523881
O28	O	1.678277	0.158156	1.023881
O29	O	1.453248	-0.264498	0.680316
O30	O	1.953248	0.235502	1.180316
O31	O	1.453006	-0.443931	0.405378
O32	O	1.953006	0.056069	0.905378
O33	O	1.334556	-0.443900	0.523849
O34	O	1.834556	0.056100	1.023849
C35	C	1.143298	-0.303196	0.464655
C36	C	1.643298	0.196804	0.964655
C37	C	1.036084	-0.303207	0.464669
C38	C	1.536084	0.196793	0.964669
C39	C	0.839789	-0.303210	0.464694
C40	C	1.339789	0.196790	0.964694
C41	C	0.949021	-0.303207	0.464677
C42	C	1.449021	0.196793	0.964677
C43	C	1.393786	-0.466756	0.464624
C44	C	1.893786	0.033244	0.964624
C45	C	1.393820	-0.536724	0.464633
C46	C	1.893820	-0.036724	0.964633
C47	C	1.455552	-0.569586	0.403008
C48	C	1.955552	-0.069586	0.903008
C49	C	1.455597	-0.635328	0.403030
C50	C	1.955597	-0.135328	0.903030
C51	C	1.393893	-0.668207	0.464667
C52	C	1.893893	-0.168207	0.964667
C53	C	1.332157	-0.635337	0.526304
C54	C	1.832157	-0.135337	1.026304
C55	C	1.332120	-0.569596	0.526287
C56	C	1.832120	-0.069596	1.026287
N57	N	1.309512	-0.771473	0.472013
N58	N	1.809512	-0.271473	0.972013
N59	N	1.309550	-0.833925	0.472023
N60	N	1.809550	-0.333925	0.972023
C61	C	1.394001	-0.866281	0.464722
C62	C	1.894001	-0.366281	0.964722
N63	N	1.478416	-0.833827	0.457392
N64	N	1.978416	-0.333827	0.957392
N65	N	1.478377	-0.771370	0.457376
N66	N	1.978377	-0.271370	0.957376
C67	C	1.393926	-0.739492	0.464692
C68	C	1.893926	-0.239492	0.964692
C69	C	1.455787	-0.970428	0.403117
C70	C	1.955787	-0.470428	0.903117
C71	C	1.455834	-1.036172	0.403146
C72	C	1.955834	-0.536172	0.903146
C73	C	1.332386	-1.036180	0.526414
C74	C	1.832386	-0.536180	1.026414
C75	C	1.332347	-0.970437	0.526391
C76	C	1.832347	-0.470437	1.026391
C77	C	1.394047	-0.937565	0.464737
C78	C	1.894047	-0.437565	0.964737
C79	C	1.645505	-0.303213	0.464700
C80	C	2.145505	0.196787	0.964700
C81	C	1.752719	-0.303217	0.464710
C82	C	2.252719	0.196783	0.964710
C83	C	1.393981	-0.303149	0.716270
C84	C	1.893981	0.196851	1.216270
C85	C	1.394010	-0.303125	0.823484
C86	C	1.894010	0.196875	1.323484
C87	C	1.394065	-0.139014	0.464752
C88	C	1.894065	0.360986	0.964752
C89	C	1.394131	-0.069046	0.464784
C90	C	1.894131	0.430954	0.964784
C91	C	1.393900	-0.303214	0.214063
C92	C	1.893900	0.196786	0.714063
C93	C	1.394057	-0.303061	0.106850
C94	C	1.894057	0.196939	0.606850
C95	C	1.394036	-0.303082	1.019780
C96	C	1.894036	0.196918	1.519780
C97	C	1.394018	-0.303108	0.910547
C98	C	1.894018	0.196892	1.410547
H99	H	1.505870	-0.662089	0.352848
H100	H	2.005870	-0.162089	0.852848
O101	O	1.515537	-0.537584	0.343262
O102	O	2.015537	-0.037584	0.843262
C103	C	1.577805	-0.499504	0.398227
C104	C	2.077805	0.000496	0.898227
H105	H	1.543741	-0.489639	0.471294
H106	H	2.043741	0.010361	0.971294
H107	H	1.590727	-0.453287	0.358939
H108	H	2.090727	0.046713	0.858939
H109	H	1.649295	-0.524793	0.408893
H110	H	2.149295	-0.024793	0.908893
O111	O	1.272351	-0.667341	0.586224
O112	O	1.772351	-0.167341	1.086224
C113	C	1.327257	-0.705293	0.648596
C114	C	1.827257	-0.205293	1.148596
H115	H	1.400380	-0.715116	0.614642
H116	H	1.900380	-0.215116	1.114642
H117	H	1.287985	-0.751539	0.661498
H118	H	1.787985	-0.251539	1.161498
H119	H	1.337805	-0.679915	0.720083
H120	H	1.837805	-0.179915	1.220083
H121	H	1.281850	-0.542839	0.576471
H122	H	1.781850	-0.042839	1.076471
O123	O	1.515813	-0.938589	0.343203
O124	O	2.015813	-0.438589	0.843203
C125	C	1.570299	-0.981695	0.288802
C126	C	2.070299	-0.481695	0.788802
H127	H	1.573651	-1.028533	0.328331
H128	H	2.073651	-0.528533	0.828331
H129	H	1.646291	-0.962657	0.278571
H130	H	2.146291	-0.462657	0.778571
H131	H	1.535017	-0.988752	0.215516
H132	H	2.035017	-0.488752	0.715516
O133	O	1.515986	-1.068095	0.343462
O134	O	2.015986	-0.568095	0.843462
C135	C	1.578265	-1.106025	0.398510
C136	C	2.078265	-0.606025	0.898510
H137	H	1.584054	-1.086168	0.474489
H138	H	2.084054	-0.586168	0.974489
H139	H	1.652557	-1.106690	0.363772
H140	H	2.152557	-0.606690	0.863772
H141	H	1.548548	-1.155887	0.401783
H142	H	2.048548	-0.655887	0.901783
O143	O	1.272480	-1.068207	0.586202
O144	O	1.772480	-0.568207	1.086202
C145	C	1.285770	-1.133280	0.573025
C146	C	1.785770	-0.633280	1.073025
H147	H	1.317402	-1.142280	0.498615
H148	H	1.817402	-0.642280	0.998615
H149	H	1.213531	-1.158306	0.579516
H150	H	1.713531	-0.658306	1.079516
H151	H	1.337122	-1.151871	0.630290
H152	H	1.837122	-0.651871	1.130290
O153	O	1.272280	-0.938609	0.586275
O154	O	1.772280	-0.438609	1.086275
C155	C	1.217843	-0.981723	0.640700
C156	C	1.717843	-0.481723	1.140700
H157	H	1.214553	-1.028609	0.601202
H158	H	1.714553	-0.528609	1.101202
H159	H	1.141827	-0.962769	0.650912
H160	H	1.641827	-0.462769	1.150912
H161	H	1.253127	-0.988654	0.713994
H162	H	1.753127	-0.488654	1.213994
