data_functionalizedCrystal
_audit_creation_method	'MofGen! by Chris Wilmer'
_symmetry_space_group_name_H-M	'P1'
_symmetry_Int_Tables_number	1
_symmetry_cell_setting	triclinic
loop_
_symmetry_equiv_pos_as_xyz
  x,y,z
_cell_length_a	16.625546
_cell_length_b	16.625548
_cell_length_c	19.805399
_cell_angle_alpha	89.981391
_cell_angle_beta	89.972133
_cell_angle_gamma	90.023536
loop_
_atom_site_label
_atom_site_type_symbol
_atom_site_fract_x
_atom_site_fract_y
_atom_site_fract_z
Zn1	Zn	-0.320997	1.232665	-0.382701
Zn2	Zn	0.179003	1.732665	0.117299
Zn3	Zn	-0.455835	1.232573	-0.269512
Zn4	Zn	0.044165	1.732573	0.230488
Zn5	Zn	-0.321022	1.097831	-0.269527
Zn6	Zn	0.178978	1.597831	0.230473
Zn7	Zn	-0.455794	1.097797	-0.382661
Zn8	Zn	0.044206	1.597797	0.117339
O9	O	-0.388412	1.165216	-0.326100
O10	O	0.111588	1.665216	0.173900
O11	O	-0.338890	1.345485	-0.367697
O12	O	0.161110	1.845485	0.132303
O13	O	-0.437979	1.214675	-0.174798
O14	O	0.062021	1.714675	0.325202
O15	O	-0.208186	1.115770	-0.284563
O16	O	0.291814	1.615770	0.215437
O17	O	-0.437955	1.345417	-0.284537
O18	O	0.062045	1.845417	0.215463
O19	O	-0.208168	1.214832	-0.367711
O20	O	0.291832	1.714832	0.132289
O21	O	-0.338932	1.115681	-0.174809
O22	O	0.161068	1.615681	0.325191
O23	O	-0.338893	0.984994	-0.284524
O24	O	0.161107	1.484994	0.215476
O25	O	-0.437886	1.115712	-0.477383
O26	O	0.062114	1.615712	0.022617
O27	O	-0.437910	0.984969	-0.367643
O28	O	0.062090	1.484969	0.132357
O29	O	-0.338851	1.214799	-0.477412
O30	O	0.161149	1.714799	0.022588
O31	O	-0.568662	1.214642	-0.284498
O32	O	-0.068662	1.714642	0.215502
O33	O	-0.568632	1.115622	-0.367628
O34	O	-0.068632	1.615622	0.132372
C35	C	-0.388401	0.955726	-0.326081
C36	C	0.111599	1.455726	0.173919
C37	C	-0.388415	0.866105	-0.326089
C38	C	0.111585	1.366105	0.173911
C39	C	-0.388420	0.537929	-0.326118
C40	C	0.111580	1.037929	0.173882
C41	C	-0.388417	0.629237	-0.326108
C42	C	0.111583	1.129237	0.173892
C43	C	-0.388418	0.702014	-0.326103
C44	C	0.111582	1.202014	0.173897
C45	C	-0.388414	0.793328	-0.326094
C46	C	0.111586	1.293328	0.173906
C47	C	-0.597903	1.165140	-0.326072
C48	C	-0.097903	1.665140	0.173928
C49	C	-0.687524	1.165181	-0.326082
C50	C	-0.187524	1.665181	0.173918
C51	C	-1.015700	1.165322	-0.326153
C52	C	-0.515700	1.665322	0.173847
C53	C	-0.924391	1.165280	-0.326135
C54	C	-0.424391	1.665280	0.173865
C55	C	-0.851615	1.165251	-0.326117
C56	C	-0.351615	1.665251	0.173883
C57	C	-0.760300	1.165211	-0.326100
C58	C	-0.260300	1.665211	0.173900
C59	C	-0.178103	1.165315	-0.326144
C60	C	0.321897	1.665315	0.173856
C61	C	-0.088482	1.165357	-0.326162
C62	C	0.411518	1.665357	0.173838
C63	C	-0.388361	1.165262	-0.502643
C64	C	0.111639	1.665262	-0.002643
C65	C	-0.388340	1.165281	-0.577875
C66	C	0.111660	1.665281	-0.077875
C67	C	-0.388424	1.375525	-0.326120
C68	C	0.111576	1.875525	0.173880
C69	C	-0.388429	1.465146	-0.326128
C70	C	0.111571	1.965146	0.173872
C71	C	-0.336770	1.216877	-0.613236
C72	C	0.163230	1.716877	-0.113236
C73	C	-0.336746	1.216885	-0.683924
C74	C	0.163254	1.716885	-0.183924
C75	C	-0.388297	1.165301	-0.719251
C76	C	0.111703	1.665301	-0.219251
C77	C	-0.439870	1.113700	-0.683885
C78	C	0.060130	1.613700	-0.183885
C79	C	-0.439888	1.113688	-0.613198
C80	C	0.060112	1.613688	-0.113198
C81	C	-0.439795	1.113745	-0.968959
C82	C	0.060205	1.613745	-0.468959
C83	C	-0.439774	1.113763	-1.039651
C84	C	0.060226	1.613763	-0.539651
C85	C	-0.336652	1.216942	-1.039685
C86	C	0.163348	1.716942	-0.539685
C87	C	-0.336671	1.216930	-0.968998
C88	C	0.163329	1.716930	-0.468998
C89	C	-0.388240	1.165326	-0.933638
C90	C	0.111760	1.665326	-0.433638
C91	C	-0.388264	1.165317	-0.856990
C92	C	0.111736	1.665317	-0.356990
C93	C	-0.388278	1.165314	-0.795898
C94	C	0.111722	1.665314	-0.295898
C95	C	-0.388404	1.165218	-0.150244
C96	C	0.111596	1.665218	0.349756
C97	C	-0.388199	1.165355	-0.075013
C98	C	0.111801	1.665355	0.424987
H99	H	-0.294793	1.258885	-0.584478
H100	H	0.205207	1.758885	-0.084478
H101	H	-0.481797	1.071738	-0.940178
H102	H	0.018203	1.571738	-0.440178
H103	H	-0.481754	1.071753	-1.068412
H104	H	0.018246	1.571753	-0.568412
Cl105	Cl	-0.504675	1.048848	-0.728296
Cl106	Cl	-0.004675	1.548848	-0.228296
H107	H	-0.294755	1.258901	-0.712712
H108	H	0.205245	1.758901	-0.212712
Cl109	Cl	-0.504719	1.048820	-0.568744
Cl110	Cl	-0.004719	1.548820	-0.068744
Cl111	Cl	-0.271864	1.281784	-0.924591
Cl112	Cl	0.228136	1.781784	-0.424591
H113	H	-0.294660	1.258958	-1.068483
H114	H	0.205340	1.758958	-0.568483
