data_functionalizedCrystal
_audit_creation_method	'MofGen! by Chris Wilmer'
_symmetry_space_group_name_H-M	'P1'
_symmetry_Int_Tables_number	1
_symmetry_cell_setting	triclinic
loop_
_symmetry_equiv_pos_as_xyz
  x,y,z
_cell_length_a	12.594517
_cell_length_b	12.759399
_cell_length_c	12.594509
_cell_angle_alpha	89.976594
_cell_angle_beta	89.991955
_cell_angle_gamma	90.007891
loop_
_atom_site_label
_atom_site_type_symbol
_atom_site_fract_x
_atom_site_fract_y
_atom_site_fract_z
Zn1	Zn	-1.627283	0.418429	0.601499
Zn2	Zn	-1.627179	0.594134	0.423530
Zn3	Zn	-1.449286	0.418450	0.423570
Zn4	Zn	-1.449275	0.594047	0.601502
O5	O	-1.538256	0.506265	0.512525
O6	O	-1.776215	0.441764	0.577873
O7	O	-1.603542	0.570875	0.274590
O8	O	-1.472946	0.271427	0.447187
O9	O	-1.776138	0.570854	0.447120
O10	O	-1.603720	0.271411	0.577911
O11	O	-1.472845	0.441801	0.274619
O12	O	-1.300339	0.441716	0.447191
O13	O	-1.472927	0.570706	0.750448
O14	O	-1.300331	0.570726	0.577917
O15	O	-1.603709	0.441680	0.750445
O16	O	-1.603531	0.741144	0.447124
O17	O	-1.472826	0.741080	0.577879
C18	C	-1.261715	0.506215	0.512559
C19	C	-1.143409	0.506219	0.512599
C20	C	-1.074183	0.576522	0.583569
C21	C	-1.003371	0.480728	0.609746
C22	C	-1.003422	0.602083	0.486412
C23	C	-1.074156	0.410374	0.538827
C24	C	-1.074213	0.531794	0.415449
C25	C	-1.003434	0.435934	0.441589
C26	C	-1.538195	0.779233	0.512521
C27	C	-1.538266	0.896009	0.512555
C28	C	-1.538329	0.506181	0.790146
C29	C	-1.538360	0.506145	0.908452
C30	C	-0.815877	0.506307	0.512508
C31	C	-0.934182	0.506300	0.512542
C32	C	-1.606403	0.950870	0.444552
C33	C	-1.606473	1.060594	0.444595
C34	C	-1.470260	1.060587	0.580648
C35	C	-1.470196	0.950865	0.580609
C36	C	-1.538350	1.232232	0.512571
C37	C	-1.538400	1.115455	0.512637
C38	C	-1.538245	0.506274	0.235984
C39	C	-1.538420	0.506014	0.117679
C40	C	-1.467272	0.576234	1.048470
C41	C	-1.441246	0.480420	0.977669
C42	C	-1.564338	0.601948	0.977681
C43	C	-1.512344	0.410149	1.048436
C44	C	-1.635481	0.531741	1.048455
C45	C	-1.609492	0.435862	0.977686
H46	H	-0.972254	0.459124	0.691880
N47	N	-1.396705	0.891685	0.653961
H48	H	-1.353587	0.943083	0.697073
H49	H	-1.347448	0.846226	0.610584
N50	N	-1.115138	0.302999	0.568259
H51	H	-1.159780	0.308175	0.634675
H52	H	-1.053198	0.254456	0.581480
N53	N	-1.744203	0.560531	1.089701
H54	H	-1.798138	0.508305	1.062836
H55	H	-1.763651	0.633020	1.064008
N56	N	-0.962543	0.357148	0.362050
H57	H	-0.988415	0.284830	0.381944
H58	H	-0.882358	0.358125	0.362051
N59	N	-1.115455	0.560433	0.306677
H60	H	-1.089769	0.632867	0.286977
H61	H	-1.195637	0.559450	0.307408
H62	H	-1.669634	0.376466	0.946803
N63	N	-1.483139	0.302721	1.089414
H64	H	-1.543188	0.274275	1.134100
H65	H	-1.416713	0.307875	1.134023
N66	N	-0.962265	0.709422	0.457093
H67	H	-0.988004	0.762435	0.510774
H68	H	-0.989155	0.729157	0.384235
H69	H	-1.661958	1.105256	0.389222
N70	N	-1.396832	1.119757	0.654029
H71	H	-1.353658	1.068351	0.697104
H72	H	-1.440154	1.165218	0.703332
N73	N	-1.679821	0.891701	0.371159
H74	H	-1.722998	0.943109	0.328089
H75	H	-1.729027	0.846110	0.414504
H76	H	-1.407084	0.635486	1.079550
N77	N	-1.332493	0.451661	0.936465
H78	H	-1.278820	0.504698	0.962202
H79	H	-1.333561	0.451245	0.856283
N80	N	-1.593408	0.709340	0.936509
H81	H	-1.605954	0.758218	0.998307
H82	H	-1.660144	0.704286	0.892354
N83	N	-1.115333	0.655137	0.663149
H84	H	-1.089560	0.635707	0.736496
H85	H	-1.195515	0.654994	0.662041
