data_functionalizedCrystal
_audit_creation_method	'MofGen! by Chris Wilmer'
_symmetry_space_group_name_H-M	'P1'
_symmetry_Int_Tables_number	1
_symmetry_cell_setting	triclinic
loop_
_symmetry_equiv_pos_as_xyz
  x,y,z
_cell_length_a	10.908937
_cell_length_b	10.489716
_cell_length_c	10.065875
_cell_angle_alpha	98.882384
_cell_angle_beta	83.441416
_cell_angle_gamma	72.307546
loop_
_atom_site_label
_atom_site_type_symbol
_atom_site_fract_x
_atom_site_fract_y
_atom_site_fract_z
O1	O	1.720628	-0.219304	-0.113548
O2	O	1.347676	-0.119894	-0.113535
O3	O	1.542655	-0.357081	-0.113547
O4	O	1.525648	0.017883	-0.113537
O5	O	1.505477	-0.311703	0.113444
O6	O	1.310497	-0.074516	0.113456
O7	O	1.683449	-0.173926	0.113443
Zn8	Zn	1.491070	-0.117016	0.149489
Zn9	Zn	1.540055	-0.176804	-0.149582
O10	O	1.488470	0.063261	0.113454
C11	C	1.281330	-0.087915	-0.000038
C12	C	1.139031	-0.060248	-0.000034
C13	C	0.942031	-0.132622	-0.000060
C14	C	1.089101	-0.161215	-0.000044
C15	C	1.522789	-0.381643	-0.000056
C16	C	1.518968	-0.522430	-0.000068
C17	C	1.638534	-0.646556	-0.000060
C18	C	1.593682	-0.732311	-0.111972
C19	C	1.556999	-0.687529	0.111823
C20	C	1.474182	-0.606349	-0.112073
C21	C	1.437500	-0.561546	0.111823
C22	C	1.392565	-0.647237	-0.000117
C23	C	1.749796	-0.205906	-0.000057
C24	C	1.892096	-0.233575	-0.000071
C25	C	1.508337	0.087822	-0.000040
C26	C	1.512159	0.228608	-0.000037
N27	N	1.457649	-0.076216	0.353596
N28	N	1.573486	-0.217617	-0.353689
C29	C	1.528418	-0.162614	0.421371
C30	C	1.502706	-0.131205	0.578540
H31	H	1.155227	-0.268823	-0.000050
H32	H	1.288494	-0.648651	-0.000174
H33	H	0.875903	-0.025025	-0.000072
H34	H	1.072908	0.047358	-0.000040
Cl35	Cl	0.994185	-0.399707	-0.000077
Cl36	Cl	1.799130	-0.644012	-0.000235
H37	H	1.378021	0.021003	0.411927
Cl38	Cl	1.696705	-0.367519	0.556271
H39	H	1.659653	-0.805888	-0.206592
H40	H	1.439249	-0.570819	-0.206792
H41	H	1.608038	-0.259841	0.363042
Cl42	Cl	1.335739	-0.447895	0.257916
H43	H	1.592002	-0.723261	0.206434
H44	H	1.423073	-0.033981	0.636866
