data_functionalizedCrystal
_audit_creation_method	'MofGen! by Chris Wilmer'
_symmetry_space_group_name_H-M	'P1'
_symmetry_Int_Tables_number	1
_symmetry_cell_setting	triclinic
loop_
_symmetry_equiv_pos_as_xyz
  x,y,z
_cell_length_a	13.032831
_cell_length_b	13.031981
_cell_length_c	13.032268
_cell_angle_alpha	89.068348
_cell_angle_beta	90.886977
_cell_angle_gamma	89.102241
loop_
_atom_site_label
_atom_site_type_symbol
_atom_site_fract_x
_atom_site_fract_y
_atom_site_fract_z
Zn1	Zn	1.423902	-0.684142	-0.684409
Zn2	Zn	1.429191	-0.835076	-0.491156
Zn3	Zn	1.278373	-0.641823	-0.496615
Zn4	Zn	1.236036	-0.829599	-0.642053
O5	O	1.341876	-0.747660	-0.578558
O6	O	1.566344	-0.724167	-0.674215
O7	O	1.429117	-0.794022	-0.350137
O8	O	1.313183	-0.505686	-0.541537
O9	O	1.570230	-0.835057	-0.532233
O10	O	1.420102	-0.536778	-0.679509
O11	O	1.318311	-0.652040	-0.354147
O12	O	1.131017	-0.646729	-0.500466
O13	O	1.241025	-0.825722	-0.789415
O14	O	1.099912	-0.784687	-0.607319
O15	O	1.379049	-0.718856	-0.820534
O16	O	1.388064	-0.976100	-0.491162
O17	O	1.246154	-0.972076	-0.602026
C18	C	1.078713	-0.710522	-0.549889
C19	C	0.966125	-0.694662	-0.537645
C20	C	0.900569	-0.755938	-0.584949
C21	C	0.784203	-0.739547	-0.572295
C22	C	1.313113	-1.010849	-0.541431
C23	C	1.300896	-1.123459	-0.525591
C24	C	1.348303	-1.188965	-0.586851
C25	C	1.335677	-1.305354	-0.570482
C26	C	1.606066	-0.784944	-0.607340
C27	C	1.718648	-0.800832	-0.619605
C28	C	1.304725	-0.776399	-0.842755
C29	C	1.288893	-0.788645	-0.955340
C30	C	1.370775	-0.483450	-0.615856
C31	C	1.383090	-0.370859	-0.631750
C32	C	1.350126	-0.741230	-1.020931
C33	C	1.333765	-0.753886	-1.137293
C34	C	1.378948	-0.718969	-0.315406
C35	C	1.395007	-0.706464	-0.202883
H36	H	0.936100	-0.630062	-0.487783
H37	H	0.930593	-0.820531	-0.634819
Br38	Br	1.457670	-0.657915	-0.970955
H39	H	0.748666	-0.865427	-0.669482
H40	H	1.285735	-1.335432	-0.505916
H41	H	1.269218	-0.803846	-1.167281
H42	H	1.224351	-0.838601	-0.985332
H43	H	1.459544	-0.656490	-1.172898
Br44	Br	1.431515	-1.138835	-0.694482
Br45	Br	1.466320	-1.320738	-0.739377
Br46	Br	0.734177	-0.631866	-0.489183
Br47	Br	1.217657	-1.173588	-0.417980
