data_functionalizedCrystal
_audit_creation_method	'MofGen! by Chris Wilmer'
_symmetry_space_group_name_H-M	'P1'
_symmetry_Int_Tables_number	1
_symmetry_cell_setting	triclinic
loop_
_symmetry_equiv_pos_as_xyz
  x,y,z
_cell_length_a	10.654583
_cell_length_b	10.654550
_cell_length_c	9.130313
_cell_angle_alpha	90.000110
_cell_angle_beta	90.005937
_cell_angle_gamma	84.491717
loop_
_atom_site_label
_atom_site_type_symbol
_atom_site_fract_x
_atom_site_fract_y
_atom_site_fract_z
O1	O	-1.667810	-0.176592	-0.121989
O2	O	-1.302337	-0.193355	-0.121949
O3	O	-1.493476	-0.002235	-0.121965
O4	O	-1.476670	-0.367712	-0.121974
O5	O	-1.493474	-0.002240	0.121634
O6	O	-1.302334	-0.193360	0.121650
O7	O	-1.667807	-0.176597	0.121610
Cu8	Cu	-1.485071	-0.184979	0.143872
Cu9	Cu	-1.485073	-0.184973	-0.144212
O10	O	-1.476668	-0.367717	0.121625
C11	C	-1.255538	-0.192118	-0.000145
C12	C	-1.116097	-0.188409	-0.000129
C13	C	-1.050565	-0.186682	0.132649
C14	C	-0.919544	-0.183208	0.132632
C15	C	-0.919597	-0.183193	-0.132953
C16	C	-1.050617	-0.186658	-0.132935
C17	C	-1.050533	-0.186696	0.285982
C18	C	-0.919512	-0.183222	0.285966
C19	C	-1.492241	0.044560	-0.000167
C20	C	-1.488549	0.184004	-0.000172
C21	C	-0.714608	-0.177816	-0.000183
C22	C	-0.854056	-0.181469	-0.000164
C23	C	-1.477903	-0.414512	-0.000176
C24	C	-1.481595	-0.553956	-0.000181
N25	N	-1.485078	-0.184983	0.346495
C26	C	-1.601089	0.263476	-0.000179
C27	C	-1.597612	0.394497	-0.000189
C28	C	-1.369046	0.366561	-0.000177
C29	C	-1.372524	0.235543	-0.000178
C30	C	-1.733050	0.279606	-0.000180
C31	C	-1.729573	0.410627	-0.000190
N32	N	-1.485076	-0.184960	-0.346834
C33	C	-1.569736	-0.100384	0.423140
C34	C	-1.569733	-0.100369	0.576477
C35	C	-1.400408	-0.269562	0.576510
C36	C	-1.400407	-0.269570	0.423176
C37	C	-1.667498	-0.002705	0.423122
C38	C	-1.667495	-0.002690	0.576459
H39	H	-0.889924	-0.091626	0.333549
H40	H	-1.636982	0.088536	0.624012
C41	C	-1.789819	0.231449	0.141896
C42	C	-1.909051	0.160590	0.135438
C43	C	-1.965816	0.112430	0.277515
C44	C	-1.903349	0.135128	0.426052
C45	C	-1.784111	0.205991	0.432516
C46	C	-1.727346	0.254151	0.290438
H47	H	-1.955298	0.143784	0.025477
H48	H	-2.054084	0.059972	0.272729
H49	H	-1.945370	0.099477	0.531226
H50	H	-1.737863	0.222797	0.542476
H51	H	-1.639077	0.306608	0.295225
H52	H	-0.866267	-0.181767	-0.241078
H53	H	-1.331471	-0.338430	0.638960
H54	H	-1.764005	-0.024220	0.618064
H55	H	-1.779293	0.452379	0.101748
H56	H	-0.873226	-0.270016	0.344831
C57	C	-1.307274	-0.362619	0.338860
C58	C	-1.214206	-0.455726	0.423202
C59	C	-1.121068	-0.548777	0.338884
C60	C	-1.121000	-0.548721	0.170222
C61	C	-1.214072	-0.455611	0.085870
C62	C	-1.307209	-0.362560	0.170189
H63	H	-1.214253	-0.455771	0.548064
H64	H	-1.052170	-0.617704	0.401327
H65	H	-1.052054	-0.617603	0.107804
H66	H	-1.214025	-0.455566	-0.038992
H67	H	-1.376107	-0.293633	0.107745
C68	C	-1.783450	0.472293	-0.142280
C69	C	-1.920972	0.458761	-0.186535
C70	C	-1.974843	0.520425	-0.328624
C71	C	-1.891194	0.595622	-0.426458
C72	C	-1.753664	0.609158	-0.382205
C73	C	-1.699793	0.547493	-0.240116
H74	H	-1.982901	0.403092	-0.114111
H75	H	-2.076652	0.510405	-0.361383
H76	H	-1.931073	0.641270	-0.531641
H77	H	-1.691734	0.664826	-0.454630
H78	H	-1.597984	0.557513	-0.207358
H79	H	-1.080107	-0.278295	0.333555
H80	H	-1.280883	0.170840	-0.000192
H81	H	-1.103970	-0.188045	-0.241055
H82	H	-1.096792	-0.099907	0.344865
H83	H	-1.646056	0.093830	0.381507
H84	H	-1.274583	0.408541	-0.000184
H85	H	-1.784666	0.250244	-0.102124
H86	H	-1.758681	-0.033304	0.375553
