data_functionalizedCrystal
_audit_creation_method	'MofGen! by Chris Wilmer'
_symmetry_space_group_name_H-M	'P1'
_symmetry_Int_Tables_number	1
_symmetry_cell_setting	triclinic
loop_
_symmetry_equiv_pos_as_xyz
  x,y,z
_cell_length_a	14.971486
_cell_length_b	14.971486
_cell_length_c	13.448316
_cell_angle_alpha	89.992514
_cell_angle_beta	90.003552
_cell_angle_gamma	83.614129
loop_
_atom_site_label
_atom_site_type_symbol
_atom_site_fract_x
_atom_site_fract_y
_atom_site_fract_z
O1	O	-1.186940	-0.116566	0.082578
O2	O	-0.686940	0.383434	0.582578
O3	O	-0.926540	-0.130525	0.082605
O4	O	-0.426540	0.369475	0.582605
O5	O	-1.063720	0.006654	0.082584
O6	O	-0.563720	0.506654	0.582584
O7	O	-1.049761	-0.253746	0.082599
O8	O	-0.549761	0.246254	0.582599
O9	O	-1.063717	0.006666	-0.082800
O10	O	-0.563717	0.506666	0.417200
O11	O	-0.926537	-0.130513	-0.082779
O12	O	-0.426537	0.369487	0.417221
O13	O	-1.186937	-0.116555	-0.082806
O14	O	-0.686937	0.383445	0.417194
Cu15	Cu	-1.056737	-0.123533	-0.097893
Cu16	Cu	-0.556737	0.376467	0.402107
Cu17	Cu	-1.056740	-0.123547	0.097692
Cu18	Cu	-0.556740	0.376453	0.597692
O19	O	-1.049758	-0.253734	-0.082784
O20	O	-0.549758	0.246266	0.417216
C21	C	-1.063094	0.039985	-0.000108
C22	C	-0.563094	0.539985	0.499892
C23	C	-1.061223	0.139282	-0.000107
C24	C	-0.561223	0.639282	0.499893
C25	C	-0.893214	-0.129895	-0.000083
C26	C	-0.393214	0.370105	0.499917
C27	C	-0.793917	-0.128024	-0.000073
C28	C	-0.293917	0.371976	0.499927
C29	C	-1.220263	-0.117185	-0.000115
C30	C	-0.720263	0.382815	0.499885
C31	C	-1.319561	-0.119056	-0.000119
C32	C	-0.819561	0.380944	0.499881
C33	C	-0.736692	-0.208614	-0.000070
C34	C	-0.236692	0.291386	0.499930
C35	C	-0.643392	-0.206850	-0.000085
C36	C	-0.143392	0.293150	0.499915
C37	C	-0.607320	-0.124497	-0.000096
C38	C	-0.107320	0.375503	0.499904
C39	C	-0.664552	-0.043902	-0.000102
C40	C	-0.164552	0.456098	0.499898
C41	C	-0.757850	-0.045666	-0.000095
C42	C	-0.257850	0.454334	0.499905
C43	C	-0.470090	-0.040231	-0.000116
C44	C	0.029910	0.459769	0.499884
C45	C	-0.376786	-0.038466	-0.000122
C46	C	0.123214	0.461534	0.499878
C47	C	-0.355632	-0.201415	-0.000106
C48	C	0.144368	0.298585	0.499894
C49	C	-0.448930	-0.203179	-0.000099
C50	C	0.051070	0.296821	0.499901
C51	C	-0.506156	-0.122584	-0.000103
C52	C	-0.006156	0.377416	0.499897
C53	C	-1.050384	-0.287065	-0.000091
C54	C	-0.550384	0.212935	0.499909
C55	C	-1.052254	-0.386362	-0.000085
C56	C	-0.552254	0.113638	0.499915
N57	N	-1.056741	-0.123523	-0.235457
N58	N	-0.556741	0.376477	0.264543
C59	C	-1.141812	0.196507	-0.000116
C60	C	-0.641812	0.696507	0.499884
C61	C	-1.140049	0.289807	-0.000106
C62	C	-0.640049	0.789807	0.499894
C63	C	-1.057696	0.325879	-0.000093
C64	C	-0.557696	0.825879	0.499907
C65	C	-0.977101	0.268646	-0.000081
C66	C	-0.477101	0.768646	0.499919
C67	C	-0.978865	0.175349	-0.000084
C68	C	-0.478865	0.675349	0.499916
C69	C	-0.973430	0.463109	-0.000077
C70	C	-0.473430	0.963109	0.499923
C71	C	-0.971665	0.556413	-0.000076
C72	C	-0.471665	1.056413	0.499924
C73	C	-1.134614	0.577567	-0.000099
C74	C	-0.634614	1.077567	0.499901
C75	C	-1.136378	0.484269	-0.000102
C76	C	-0.636378	0.984269	0.499898
C77	C	-1.055782	0.427043	-0.000091
C78	C	-0.555782	0.927043	0.499909
N79	N	-1.056744	-0.123550	0.235257
N80	N	-0.556744	0.376450	0.735257
C81	C	-1.117600	-0.062927	0.287288
C82	C	-0.617600	0.437073	0.787288
C83	C	-1.117604	-0.062924	0.391391
C84	C	-0.617604	0.437076	0.891391
C85	C	-1.056746	-0.123542	0.443461
C86	C	-0.556746	0.376458	0.943461
C87	C	-0.995887	-0.184171	0.391423
C88	C	-0.495887	0.315829	0.891423
C89	C	-0.995888	-0.184177	0.287322
C90	C	-0.495888	0.315823	0.787322
C91	C	-0.995887	-0.184153	0.608403
C92	C	-0.495887	0.315847	1.108403
C93	C	-0.995884	-0.184146	0.712512
C94	C	-0.495884	0.315854	1.212512
C95	C	-1.117603	-0.062900	0.712472
C96	C	-0.617603	0.437100	1.212472
C97	C	-1.117604	-0.062906	0.608371
C98	C	-0.617604	0.437094	1.108371
C99	C	-1.056743	-0.123535	0.556340
C100	C	-0.556743	0.376465	1.056340
H101	H	-0.766054	-0.275675	-0.000060
H102	H	-0.266054	0.224325	0.499940
F103	F	-1.182369	0.001614	0.552953
F104	F	-0.682369	0.501614	1.052953
F105	F	-1.182370	0.001596	0.231880
F106	F	-0.682370	0.501596	0.731880
F107	F	-0.338397	0.049183	-0.000160
F108	F	0.161603	0.549183	0.499840
F109	F	-0.530993	0.045549	-0.000124
F110	F	-0.030993	0.545549	0.499876
H111	H	-0.946338	-0.233531	0.433825
H112	H	-0.446338	0.266469	0.933825
H113	H	-1.167158	-0.013561	0.433754
H114	H	-0.667158	0.486439	0.933754
F115	F	-1.225824	0.350707	-0.000117
F116	F	-0.725824	0.850707	0.499883
F117	F	-1.224028	0.445880	-0.000112
F118	F	-0.724028	0.945880	0.499888
H119	H	-0.596802	-0.272474	-0.000081
H120	H	-0.096802	0.227526	0.499919
H121	H	-0.904606	0.585780	-0.000082
H122	H	-0.404606	1.085780	0.499918
H123	H	-0.946334	-0.233544	0.244959
H124	H	-0.446334	0.266456	0.744959
H125	H	-0.309033	-0.267039	-0.000107
H126	H	0.190967	0.232961	0.499893
H127	H	-1.200238	0.624165	-0.000104
H128	H	-0.700238	1.124165	0.499896
H129	H	-1.167158	-0.013534	0.754842
H130	H	-0.667158	0.486466	1.254842
H131	H	-0.478296	-0.270239	-0.000080
H132	H	0.021704	0.229761	0.499920
H133	H	-0.907800	0.416517	-0.000066
H134	H	-0.407800	0.916517	0.499934
F135	F	-0.931114	-0.248685	0.553032
F136	F	-0.431114	0.251315	1.053032
H137	H	-0.635175	0.023152	-0.000126
H138	H	-0.135175	0.523152	0.499874
H139	H	-0.946329	-0.233508	0.754902
H140	H	-0.446329	0.266492	1.254902
H141	H	-0.804443	0.019958	-0.000097
H142	H	-0.304443	0.519958	0.499903
F143	F	-1.229465	0.158125	-0.000138
F144	F	-0.729465	0.658125	0.499862
F145	F	-0.889454	0.307040	-0.000057
F146	F	-0.389454	0.807040	0.499943
F147	F	-0.893090	0.114445	-0.000072
F148	F	-0.393090	0.614445	0.499928
