data_functionalizedCrystal
_audit_creation_method	'MofGen! by Chris Wilmer'
_symmetry_space_group_name_H-M	'P1'
_symmetry_Int_Tables_number	1
_symmetry_cell_setting	triclinic
loop_
_symmetry_equiv_pos_as_xyz
  x,y,z
_cell_length_a	16.992694
_cell_length_b	15.625429
_cell_length_c	15.455313
_cell_angle_alpha	74.616881
_cell_angle_beta	87.142206
_cell_angle_gamma	87.292213
loop_
_atom_site_label
_atom_site_type_symbol
_atom_site_fract_x
_atom_site_fract_y
_atom_site_fract_z
O1	O	1.046787	0.184512	-0.130048
O2	O	0.818470	0.182447	-0.129424
O3	O	0.936801	0.054756	-0.089248
O4	O	0.928456	0.312203	-0.170224
O5	O	0.930033	0.062026	0.052726
O6	O	0.811703	0.189717	0.012551
O7	O	1.040020	0.191782	0.011927
Cu8	Cu	0.925243	0.191413	0.025202
Cu9	Cu	0.933246	0.182816	-0.142700
O10	O	0.921689	0.319472	-0.028249
C11	C	0.785831	0.183426	-0.057605
C12	C	0.698660	0.175503	-0.055123
C13	C	0.649648	0.251946	-0.079166
C14	C	0.567741	0.244497	-0.076811
C15	C	0.534848	0.160604	-0.050419
C16	C	0.583867	0.084156	-0.026371
C17	C	0.665772	0.091606	-0.028720
C18	C	0.290753	0.129727	-0.040684
C19	C	0.208842	0.122283	-0.038339
C20	C	0.192722	0.282624	-0.088777
C21	C	0.274630	0.290067	-0.091129
C22	C	0.323641	0.213619	-0.067077
N23	N	0.451127	0.152988	-0.048014
N24	N	0.407360	0.221236	-0.069476
C25	C	0.932369	0.025297	-0.007854
C26	C	0.929238	-0.073313	0.023156
C27	C	0.937361	-0.417446	-0.261776
C28	C	0.934415	-0.510103	-0.232611
C29	C	0.927038	-0.502165	-0.077840
C30	C	0.929988	-0.409504	-0.106992
C31	C	0.935149	-0.367152	-0.198961
C32	C	0.927775	-0.359211	-0.044177
C33	C	0.930721	-0.266559	-0.073327
C34	C	0.935879	-0.224200	-0.165292
C35	C	0.938094	-0.274500	-0.228111
C36	C	0.922609	-0.401565	0.047791
C37	C	0.920396	-0.351272	0.110606
C38	C	0.923347	-0.258618	0.081457
C39	C	0.928506	-0.216259	-0.010509
C40	C	0.921132	-0.208318	0.144275
C41	C	0.924078	-0.115665	0.115125
C42	C	0.931451	-0.123606	-0.039659
C43	C	1.072659	0.190803	-0.059894
C44	C	1.159830	0.198725	-0.062382
C45	C	0.926120	0.348931	-0.109645
C46	C	0.929252	0.447542	-0.140661
N47	N	0.919620	0.197460	0.143295
N48	N	0.938876	0.176762	-0.260790
C49	C	0.969909	0.143235	0.205750
C50	C	0.965664	0.147817	0.295117
C51	C	0.911133	0.206628	0.322025
C52	C	0.860839	0.260855	0.259562
C53	C	0.865080	0.256269	0.170199
C54	C	0.892823	0.226403	0.587384
C55	C	0.888586	0.230987	0.676754
C56	C	0.993412	0.117947	0.712303
C57	C	0.997652	0.113369	0.622935
C58	C	0.947355	0.167593	0.560482
N59	N	0.906794	0.211315	0.413370
N60	N	0.951690	0.162901	0.469140
H61	H	0.527838	0.306745	-0.096390
H62	H	1.042056	0.065480	0.601030
C63	C	0.943042	-0.370853	-0.362947
N64	N	0.947319	-0.335760	-0.439146
C65	C	0.138803	0.366712	-0.115222
N66	N	0.098191	0.430050	-0.135136
H67	H	0.922833	-0.536660	-0.002958
C68	C	1.029898	0.078537	0.176162
N69	N	1.075081	0.029801	0.153879
H70	H	0.182065	0.053964	-0.016847
C71	C	0.800846	0.325540	0.289167
N72	N	0.755658	0.374262	0.311464
C73	C	0.919378	-0.503487	0.079855
N74	N	0.916949	-0.580255	0.104005
C75	C	0.943775	-0.227908	-0.329282
N76	N	0.948052	-0.192814	-0.405481
C77	C	1.020968	0.088142	0.363822
N78	N	1.062617	0.043184	0.415573
C79	C	0.685822	0.344235	-0.108198
N80	N	0.713065	0.413750	-0.130062
H81	H	0.705677	0.029358	-0.009142
C82	C	0.809765	0.315928	0.101495
N83	N	0.768099	0.360866	0.049748
C84	C	0.939121	-0.122279	-0.197358
N85	N	0.941564	-0.045512	-0.221510
H86	H	0.916191	-0.385767	0.185488
H87	H	1.034361	0.073800	0.763160
H88	H	0.301405	0.358380	-0.112630
H89	H	0.330649	0.067478	-0.021098
C90	C	0.547682	-0.008127	0.002662
N91	N	0.520429	-0.077636	0.024527
C92	C	0.936828	-0.565422	-0.301721
N93	N	0.938635	-0.607086	-0.353774
C94	C	0.915445	-0.254917	0.245438
N95	N	0.911160	-0.290016	0.321636
C96	C	0.921648	-0.060340	0.184225
N97	N	0.919816	-0.018669	0.236273
C98	C	0.828593	0.295684	0.706350
N99	N	0.783409	0.344412	0.728642
H100	H	0.851870	0.270555	0.536541
H101	H	0.935661	-0.089121	-0.114549
