data_functionalizedCrystal
_audit_creation_method	'MofGen! by Chris Wilmer'
_symmetry_space_group_name_H-M	'P1'
_symmetry_Int_Tables_number	1
_symmetry_cell_setting	triclinic
loop_
_symmetry_equiv_pos_as_xyz
  x,y,z
_cell_length_a	10.685980
_cell_length_b	25.639240
_cell_length_c	10.686551
_cell_angle_alpha	85.582913
_cell_angle_beta	81.591741
_cell_angle_gamma	94.398495
loop_
_atom_site_label
_atom_site_type_symbol
_atom_site_fract_x
_atom_site_fract_y
_atom_site_fract_z
Zn1	Zn	1.995695	-0.117195	-0.866634
Zn2	Zn	1.979197	-0.211917	-0.654315
Zn3	Zn	1.767110	-0.131747	-0.638090
Zn4	Zn	1.783320	-0.211866	-0.850225
O5	O	1.881331	-0.168181	-0.752316
O6	O	2.171145	-0.123691	-0.852127
O7	O	1.937374	-0.207394	-0.474527
O8	O	1.797553	-0.056645	-0.668484
O9	O	2.159024	-0.193283	-0.696137
O10	O	1.965493	-0.045954	-0.836395
O11	O	1.781555	-0.148494	-0.462607
O12	O	1.591622	-0.148444	-0.652573
O13	O	1.825181	-0.193196	-1.030037
O14	O	1.603532	-0.207307	-0.808428
O15	O	1.981211	-0.123641	-1.042093
O16	O	1.953093	-0.285082	-0.680225
O17	O	1.809183	-0.285044	-0.824160
C18	C	1.551517	-0.179450	-0.726960
C19	C	1.410424	-0.184282	-0.716142
C20	C	1.881144	-0.304033	-0.752203
C21	C	1.881183	-0.362146	-0.752206
C22	C	1.968829	-0.716889	-0.839897
C23	C	1.968868	-0.771491	-0.839925
O24	O	2.043166	-0.794960	-0.914365
N25	N	1.881516	-0.804410	-0.752452
C26	C	1.794111	-0.782724	-0.664953
O27	O	1.719814	-0.815739	-0.590554
C28	C	1.794066	-0.728123	-0.664932
C29	C	1.881432	-0.695207	-0.752402
C30	C	2.056186	-0.683973	-0.927361
C31	C	2.056148	-0.629374	-0.927330
C32	C	1.968752	-0.607692	-0.839835
C33	C	1.881394	-0.640608	-0.752371
C34	C	1.706656	-0.706439	-0.577440
C35	C	1.706619	-0.651833	-0.577426
C36	C	1.793985	-0.618917	-0.664896
C37	C	1.793960	-0.564328	-0.664846
N38	N	1.881312	-0.531409	-0.752319
C39	C	1.968708	-0.553091	-0.839814
C40	C	1.794209	-0.897390	-0.665007
C41	C	1.794258	-0.951991	-0.665022
C42	C	1.969014	-0.940753	-0.839996
C43	C	1.968970	-0.886152	-0.839974
C44	C	1.881561	-0.864471	-0.752480
C45	C	1.968622	-0.438431	-0.839742
C46	C	1.968579	-0.383828	-0.839700
C47	C	1.793819	-0.395070	-0.664732
C48	C	1.793866	-0.449668	-0.664768
C49	C	1.881272	-0.471347	-0.752284
O50	O	1.719696	-0.540822	-0.590448
O51	O	2.042981	-0.520071	-0.914211
C52	C	2.212432	-0.156869	-0.777772
C53	C	2.353527	-0.152049	-0.788620
C54	C	1.906845	-0.156790	-1.083412
C55	C	1.917717	-0.151935	-1.224506
C56	C	1.881555	-0.031796	-0.752460
C57	C	1.881651	0.026323	-0.752522
C58	C	1.855989	-0.179488	-0.422514
C59	C	1.845362	-0.184187	-0.281440
H60	H	1.412755	-0.120752	-0.858945
O61	O	1.339811	-0.221568	-0.632055
C62	C	1.362384	-0.213328	-0.508044
H63	H	1.398470	-0.170531	-0.504600
H64	H	1.436640	-0.239883	-0.480559
C65	C	1.193666	-0.278831	-0.418589
C66	C	1.237977	-0.226266	-0.414357
H67	H	1.116929	-0.286814	-0.360796
H68	H	1.178460	-0.284385	-0.502137
H69	H	1.255557	-0.300954	-0.395688
H70	H	1.176093	-0.204144	-0.437273
H71	H	1.253170	-0.220709	-0.330810
O72	O	2.053859	-0.961759	-0.925170
C73	C	2.035726	-0.945011	-1.049517
H74	H	1.987106	-0.906961	-1.048343
H75	H	1.973731	-0.976518	-1.087203
C76	C	2.225061	-0.982289	-1.137467
C77	C	2.165354	-0.935552	-1.136027
H78	H	2.305019	-0.976456	-1.190834
H79	H	2.237275	-0.993574	-1.053693
H80	H	2.173384	-1.008540	-1.168869
H81	H	2.217022	-0.909304	-1.104611
H82	H	2.153151	-0.924263	-1.219798
H83	H	1.723033	-0.879741	-0.593749
O84	O	1.761680	-0.221629	-1.210891
C85	C	1.791785	-0.271695	-1.245298
H86	H	1.895971	-0.269625	-1.289626
H87	H	1.729554	-0.285077	-1.316900
C88	C	1.640031	-0.313647	-1.071834
C89	C	1.767998	-0.311105	-1.126269
H90	H	1.625353	-0.337958	-0.998414
H91	H	1.619744	-0.279916	-1.048656
H92	H	1.588187	-0.324797	-1.131515
H93	H	1.819838	-0.299949	-1.066594
H94	H	1.788293	-0.344835	-1.149434
H95	H	2.039727	-0.357028	-0.910929
H96	H	1.987991	-0.120610	-1.283710
H97	H	1.635514	-0.733231	-0.506211
H98	H	2.039788	-0.456074	-0.911014
O99	O	2.141060	-0.597478	-1.012429
C100	C	2.218215	-0.628334	-1.089629
H101	H	2.166570	-0.668900	-1.089987
H102	H	2.311091	-0.632417	-1.050642
C103	C	2.310230	-0.551900	-1.225703
C104	C	2.246794	-0.601723	-1.226150
H105	H	2.327865	-0.535485	-1.309914
H106	H	2.258253	-0.531111	-1.173689
H107	H	2.387620	-0.555310	-1.193207
H108	H	2.169400	-0.598312	-1.258630
H109	H	2.298759	-0.622511	-1.278173
O110	O	2.140923	-0.705054	-1.012479
C111	C	2.074948	-0.736312	-1.088856
H112	H	1.975541	-0.723053	-1.088927
H113	H	2.067634	-0.779204	-1.049302
C114	C	2.269139	-0.746714	-1.225537
C115	C	2.147049	-0.730425	-1.225632
H116	H	2.313616	-0.743085	-1.309905
H117	H	2.313589	-0.725656	-1.174077
H118	H	2.263027	-0.782455	-1.192568
H119	H	2.153163	-0.694683	-1.258585
H120	H	2.102601	-0.751477	-1.277101
H121	H	1.723129	-0.978787	-0.593782
O122	O	1.708884	-0.481571	-0.579746
C123	C	1.631765	-0.450722	-0.502490
H124	H	1.631317	-0.410151	-0.554114
H125	H	1.670897	-0.446650	-0.409694
C126	C	1.495817	-0.527161	-0.410311
C127	C	1.495259	-0.477332	-0.473721
H128	H	1.411615	-0.543576	-0.392559
H129	H	1.547776	-0.547945	-0.462356
H130	H	1.528433	-0.523761	-0.332988
H131	H	1.462658	-0.480734	-0.551049
H132	H	1.443291	-0.456549	-0.421689
O133	O	1.708974	-0.373916	-0.579868
C134	C	1.727702	-0.318666	-0.598592
H135	H	1.776755	-0.306386	-0.699775
H136	H	1.789548	-0.303438	-0.528544
C137	C	1.538104	-0.310554	-0.452717
C138	C	1.598343	-0.295471	-0.576994
H139	H	1.458311	-0.296246	-0.439389
H140	H	1.525489	-0.347777	-0.440097
H141	H	1.589656	-0.297863	-0.394357
H142	H	1.546799	-0.308168	-0.635351
H143	H	1.610947	-0.258250	-0.589623
H144	H	2.040110	-0.859354	-0.911200
H145	H	1.635436	-0.634184	-0.506179
