data_functionalizedCrystal
_audit_creation_method	'MofGen! by Chris Wilmer'
_symmetry_space_group_name_H-M	'P1'
_symmetry_Int_Tables_number	1
_symmetry_cell_setting	triclinic
loop_
_symmetry_equiv_pos_as_xyz
  x,y,z
_cell_length_a	12.645331
_cell_length_b	21.295417
_cell_length_c	21.295411
_cell_angle_alpha	89.978356
_cell_angle_beta	89.982206
_cell_angle_gamma	90.029742
loop_
_atom_site_label
_atom_site_type_symbol
_atom_site_fract_x
_atom_site_fract_y
_atom_site_fract_z
Zn1	Zn	1.620658	-0.250694	-0.355798
Zn2	Zn	2.120658	0.249306	0.144202
Zn3	Zn	1.620494	-0.355946	-0.250523
Zn4	Zn	2.120494	0.144054	0.249477
Zn5	Zn	1.443366	-0.250693	-0.250555
Zn6	Zn	1.943366	0.249307	0.249445
Zn7	Zn	1.443315	-0.355928	-0.355767
Zn8	Zn	1.943315	0.144072	0.144233
O9	O	1.531958	-0.303315	-0.303161
O10	O	2.031958	0.196685	0.196839
O11	O	1.768984	-0.264664	-0.341832
O12	O	2.268984	0.235336	0.158168
O13	O	1.596950	-0.341991	-0.162438
O14	O	2.096950	0.158009	0.337562
O15	O	1.466975	-0.162604	-0.264542
O16	O	1.966975	0.337396	0.235458
O17	O	1.768863	-0.341992	-0.264487
O18	O	2.268863	0.158008	0.235513
O19	O	1.597230	-0.162604	-0.341863
O20	O	2.097230	0.337396	0.158137
O21	O	1.466816	-0.264662	-0.162462
O22	O	1.966816	0.235338	0.337538
O23	O	1.295012	-0.264645	-0.264513
O24	O	1.795012	0.235355	0.235487
O25	O	1.466887	-0.341961	-0.443861
O26	O	1.966887	0.158039	0.056139
O27	O	1.294974	-0.341960	-0.341811
O28	O	1.794974	0.158040	0.158189
O29	O	1.597180	-0.264646	-0.443883
O30	O	2.097180	0.235354	0.056117
O31	O	1.596900	-0.444033	-0.264458
O32	O	2.096900	0.055967	0.235542
O33	O	1.466728	-0.444019	-0.341780
O34	O	1.966728	0.055981	0.158220
C35	C	1.256529	-0.303301	-0.303162
C36	C	1.756529	0.196699	0.196838
C37	C	1.138699	-0.303310	-0.303178
C38	C	1.638699	0.196690	0.196822
C39	C	0.971146	-0.352216	-0.351553
C40	C	1.471146	0.147784	0.148447
C41	C	1.093706	-0.352058	-0.351756
C42	C	1.593706	0.147942	0.148244
C43	C	1.094247	-0.237013	-0.321312
C44	C	1.594247	0.262987	0.178688
C45	C	0.971648	-0.237311	-0.321653
C46	C	1.471648	0.262689	0.178347
C47	C	0.971443	-0.320167	-0.236515
C48	C	1.471443	0.179833	0.263485
C49	C	1.094048	-0.321617	-0.236875
C50	C	1.594048	0.178383	0.263125
C51	C	1.531819	-0.466867	-0.303126
C52	C	2.031819	0.033133	0.196874
C53	C	1.531857	-0.536835	-0.303132
C54	C	2.031857	-0.036835	0.196868
C55	C	1.599698	-0.569687	-0.262912
C56	C	2.099698	-0.069687	0.237088
C57	C	1.599748	-0.635430	-0.262926
C58	C	2.099748	-0.135430	0.237074
C59	C	1.531937	-0.668317	-0.303154
C60	C	2.031937	-0.168317	0.196846
C61	C	1.464091	-0.635457	-0.343382
C62	C	1.964091	-0.135457	0.156618
C63	C	1.464051	-0.569715	-0.343371
C64	C	1.964051	-0.069715	0.156629
N65	N	1.439201	-0.771583	-0.307953
N66	N	1.939201	-0.271583	0.192047
N67	N	1.439243	-0.834035	-0.307960
N68	N	1.939243	-0.334035	0.192040
C69	C	1.532056	-0.866392	-0.303190
C70	C	2.032056	-0.366392	0.196810
N71	N	1.624829	-0.833939	-0.298401
N72	N	2.124829	-0.333939	0.201599
N73	N	1.624786	-0.771481	-0.298391
N74	N	2.124786	-0.271481	0.201609
C75	C	1.531974	-0.739603	-0.303170
C76	C	2.031974	-0.239603	0.196830
C77	C	1.599957	-0.970530	-0.262983
C78	C	2.099957	-0.470530	0.237017
C79	C	1.600008	-1.036274	-0.263001
C80	C	2.100008	-0.536274	0.236999
C81	C	1.464343	-1.036299	-0.343454
C82	C	1.964343	-0.536299	0.156546
C83	C	1.464301	-0.970557	-0.343439
C84	C	1.964301	-0.470557	0.156561
C85	C	1.532106	-0.937676	-0.303200
C86	C	2.032106	-0.437676	0.196800
C87	C	1.808464	-0.303330	-0.303160
C88	C	2.308464	0.196670	0.196840
C89	C	1.926294	-0.303336	-0.303159
C90	C	2.426294	0.196664	0.196841
C91	C	1.532046	-0.303302	-0.467351
C92	C	2.032046	0.196698	0.032649
C93	C	1.532084	-0.303296	-0.537319
C94	C	2.032084	0.196704	-0.037319
C95	C	1.532127	-0.139125	-0.303210
C96	C	2.032127	0.360875	0.196790
C97	C	1.532199	-0.069157	-0.303230
C98	C	2.032199	0.430843	0.196770
C99	C	1.599925	-0.263036	-0.570199
C100	C	2.099925	0.236964	-0.070199
C101	C	1.599923	-0.263009	-0.635941
C102	C	2.099923	0.236991	-0.135941
C103	C	1.532092	-0.303253	-0.668802
C104	C	2.032092	0.196747	-0.168802
C105	C	1.464238	-0.343515	-0.635915
C106	C	1.964238	0.156485	-0.135915
C107	C	1.464234	-0.343537	-0.570173
C108	C	1.964234	0.156463	-0.070173
N109	N	1.523913	-0.358320	-0.772018
N110	N	2.023913	0.141680	-0.272018
N111	N	1.523923	-0.358298	-0.834469
N112	N	2.023923	0.141702	-0.334469
C113	C	1.532099	-0.303189	-0.866877
C114	C	2.032099	0.196811	-0.366877
N115	N	1.540285	-0.248102	-0.834473
N116	N	2.040285	0.251898	-0.334473
N117	N	1.540280	-0.248125	-0.772016
N118	N	2.040280	0.251875	-0.272016
C119	C	1.532088	-0.303233	-0.740087
C120	C	2.032088	0.196767	-0.240087
C121	C	1.599942	-0.262896	-0.971042
C122	C	2.099942	0.237104	-0.471042
C123	C	1.599933	-0.262868	-1.036785
C124	C	2.099933	0.237132	-0.536785
C125	C	1.464253	-0.343380	-1.036758
C126	C	1.964253	0.156620	-0.536758
C127	C	1.464256	-0.343402	-0.971015
C128	C	1.964256	0.156598	-0.471015
C129	C	1.532106	-0.303162	-0.938161
C130	C	2.032106	0.196838	-0.438161
C131	C	1.531932	-0.303283	-0.139609
C132	C	2.031932	0.196717	0.360391
C133	C	1.532100	-0.303111	-0.069642
C134	C	2.032100	0.196889	0.430358
H135	H	1.123112	-0.370403	-0.223198
H136	H	1.623112	0.129597	0.276802
H137	H	1.655172	-0.230268	-0.543453
H138	H	2.155172	0.269732	-0.043453
H139	H	1.655175	-0.230080	-1.063555
H140	H	2.155175	0.269920	-0.563555
H141	H	0.942437	-0.284563	-0.200457
H142	H	1.442437	0.215437	0.299543
H143	H	0.940362	-0.341222	-0.400646
H144	H	1.440362	0.158778	0.099354
H145	H	1.655165	-0.230221	-0.662717
H146	H	2.155165	0.269779	-0.162717
H147	H	0.943082	-0.223033	-0.370373
H148	H	1.443082	0.276967	0.129627
H149	H	1.654912	-0.542918	-0.230148
H150	H	2.154912	-0.042918	0.269852
H151	H	1.124675	-0.288597	-0.198882
H152	H	1.624675	0.211403	0.301118
H153	H	1.655183	-0.230126	-0.944290
H154	H	2.155183	0.269874	-0.444290
H155	H	1.654996	-0.662184	-0.230174
H156	H	2.154996	-0.162184	0.269826
H157	H	1.123391	-0.199605	-0.287166
H158	H	1.623391	0.300395	0.212834
H159	H	1.655259	-1.063021	-0.230250
H160	H	2.155259	-0.563021	0.269750
H161	H	1.408882	-0.662238	-0.376137
H162	H	1.908882	-0.162238	0.123863
H163	H	1.408985	-0.376320	-0.543403
H164	H	1.908985	0.123680	-0.043403
H165	H	0.941980	-0.199587	-0.288022
H166	H	1.441980	0.300413	0.211978
H167	H	1.408806	-0.542966	-0.376125
H168	H	1.908806	-0.042966	0.123875
H169	H	1.409013	-0.376140	-1.063512
H170	H	1.909013	0.123860	-0.563512
H171	H	1.655172	-0.943758	-0.230219
H172	H	2.155172	-0.443758	0.269781
H173	H	1.409053	-0.943806	-0.376188
H174	H	1.909053	-0.443806	0.123812
H175	H	1.409006	-0.376280	-0.662674
H176	H	1.909006	0.123720	-0.162674
H177	H	1.409135	-1.063076	-0.376212
H178	H	1.909135	-0.563076	0.123788
H179	H	1.123062	-0.340920	-0.401136
H180	H	1.623062	0.159080	0.098864
H181	H	0.940502	-0.367686	-0.220035
H182	H	1.440502	0.132314	0.279965
H183	H	1.409019	-0.376190	-0.944244
H184	H	1.909019	0.123810	-0.444244
H185	H	1.124980	-0.222474	-0.369504
H186	H	1.624980	0.277526	0.130496
H187	H	0.941635	-0.401542	-0.340312
H188	H	1.441635	0.098458	0.159688
H189	H	1.123759	-0.401222	-0.340389
H190	H	1.623759	0.098778	0.159611
