data_functionalizedCrystal
_audit_creation_method	'MofGen! by Chris Wilmer'
_symmetry_space_group_name_H-M	'P1'
_symmetry_Int_Tables_number	1
_symmetry_cell_setting	triclinic
loop_
_symmetry_equiv_pos_as_xyz
  x,y,z
_cell_length_a	11.026607
_cell_length_b	10.654541
_cell_length_c	10.065875
_cell_angle_alpha	98.874761
_cell_angle_beta	79.302338
_cell_angle_gamma	96.534973
loop_
_atom_site_label
_atom_site_type_symbol
_atom_site_fract_x
_atom_site_fract_y
_atom_site_fract_z
O1	O	1.632228	0.512405	-0.113500
O2	O	1.278417	0.452409	-0.113501
O3	O	1.463458	0.301435	-0.113493
O4	O	1.447188	0.663380	-0.113509
O5	O	1.428174	0.330372	0.113494
O6	O	1.243134	0.481346	0.113486
O7	O	1.596944	0.541342	0.113487
Zn8	Zn	1.414437	0.515938	0.149525
Zn9	Zn	1.460925	0.477813	-0.149540
O10	O	1.411904	0.692316	0.113478
C11	C	1.215472	0.455810	-0.000008
C12	C	1.080480	0.422815	-0.000008
C13	C	1.007442	0.513918	-0.000013
C14	C	0.867921	0.479819	-0.000014
C15	C	1.444622	0.268846	0.000000
C16	C	1.441049	0.128627	-0.000002
C17	C	1.662314	0.148689	0.000016
C18	C	1.771262	0.092846	0.000027
C19	C	1.767898	-0.038903	0.000023
C20	C	1.655575	-0.114814	0.000003
C21	C	1.546627	-0.058971	-0.000009
C22	C	1.550002	0.072783	-0.000000
C23	C	1.325366	-0.079034	-0.000036
C24	C	1.328726	0.052716	-0.000022
C25	C	1.213042	-0.154944	-0.000056
C26	C	1.104090	-0.099100	-0.000058
C27	C	1.107458	0.032657	-0.000053
C28	C	1.219777	0.108559	-0.000034
C29	C	1.659891	0.537941	-0.000010
C30	C	1.794883	0.570935	-0.000019
C31	C	1.430740	0.724905	-0.000018
C32	C	1.434314	0.865123	-0.000025
N33	N	1.382720	0.541959	0.353629
N34	N	1.492652	0.451785	-0.353644
C35	C	1.449881	0.486857	0.421411
C36	C	1.425480	0.506895	0.578577
H37	H	1.039726	0.319570	-0.000038
H38	H	1.048201	0.617160	-0.000010
F39	F	1.326699	0.587944	0.654799
F40	F	1.591633	0.370982	0.570138
H41	H	1.525442	0.424841	0.363091
H42	H	1.652848	-0.222092	-0.000017
H43	H	1.307150	0.603963	0.411952
F44	F	0.848142	0.705891	-0.000008
F45	F	0.991499	0.092077	-0.000075
H46	H	1.665061	0.255969	0.000038
H47	H	0.827171	0.376567	-0.000044
F48	F	1.890801	0.173642	0.000042
H49	H	1.210313	-0.262222	-0.000068
F50	F	1.883854	-0.098339	0.000025
F51	F	0.984563	-0.179897	-0.000094
H52	H	1.222529	0.215838	-0.000021
