data_functionalizedCrystal
_audit_creation_method	'MofGen! by Chris Wilmer'
_symmetry_space_group_name_H-M	'P1'
_symmetry_Int_Tables_number	1
_symmetry_cell_setting	triclinic
loop_
_symmetry_equiv_pos_as_xyz
  x,y,z
_cell_length_a	17.019383
_cell_length_b	19.288865
_cell_length_c	18.366186
_cell_angle_alpha	90.011479
_cell_angle_beta	86.114979
_cell_angle_gamma	96.731905
loop_
_atom_site_label
_atom_site_type_symbol
_atom_site_fract_x
_atom_site_fract_y
_atom_site_fract_z
O1	O	1.046362	-0.088544	-0.126102
O2	O	1.379696	0.244789	0.207231
O3	O	1.713029	0.578123	0.540565
O4	O	0.816659	-0.099817	-0.111716
O5	O	1.149992	0.233517	0.221617
O6	O	1.483325	0.566850	0.554951
O7	O	0.938148	0.006938	-0.119310
O8	O	1.271481	0.340271	0.214023
O9	O	1.604814	0.673605	0.547356
O10	O	0.924873	-0.195299	-0.118508
O11	O	1.258206	0.138035	0.214826
O12	O	1.591540	0.471368	0.548159
O13	O	0.938127	0.006943	0.001790
O14	O	1.271461	0.340277	0.335124
O15	O	1.604794	0.673610	0.668457
O16	O	0.816638	-0.099811	0.009385
O17	O	1.149972	0.233522	0.342718
O18	O	1.483305	0.566855	0.676051
O19	O	1.046342	-0.088539	-0.005001
O20	O	1.379675	0.244795	0.328332
O21	O	1.713008	0.578128	0.661665
Zn22	Zn	0.931487	-0.094174	0.021419
Zn23	Zn	1.264820	0.239159	0.354752
Zn24	Zn	1.598153	0.572492	0.688086
Zn25	Zn	0.931514	-0.094181	-0.138136
Zn26	Zn	1.264847	0.239152	0.195197
Zn27	Zn	1.598180	0.572485	0.528530
O28	O	0.924853	-0.195293	0.002593
O29	O	1.258186	0.138040	0.335926
O30	O	1.591519	0.471373	0.669260
C31	C	0.787261	-0.099385	-0.049325
C32	C	1.120594	0.233949	0.284008
C33	C	1.453928	0.567282	0.617342
C34	C	0.699696	-0.098097	-0.043840
C35	C	1.033029	0.235236	0.289493
C36	C	1.366363	0.568570	0.622826
C37	C	0.658562	-0.097497	-0.107270
C38	C	0.991895	0.235837	0.226063
C39	C	1.325228	0.569170	0.559397
C40	C	0.576283	-0.096298	-0.102106
C41	C	0.909617	0.237035	0.231228
C42	C	1.242950	0.570369	0.564561
C43	C	0.535142	-0.095695	-0.033511
C44	C	0.868475	0.237639	0.299822
C45	C	1.201808	0.570972	0.633156
C46	C	0.576281	-0.096297	0.029924
C47	C	0.909615	0.237036	0.363257
C48	C	1.242948	0.570369	0.696590
C49	C	0.658558	-0.097501	0.024759
C50	C	0.991891	0.235832	0.358092
C51	C	1.325224	0.569166	0.691425
C52	C	0.286720	-0.092065	-0.014614
C53	C	0.620054	0.241269	0.318719
C54	C	0.953387	0.574602	0.652053
C55	C	0.204439	-0.090859	-0.009454
C56	C	0.537772	0.242475	0.323880
C57	C	0.871105	0.575808	0.657213
C58	C	0.204446	-0.090861	-0.141484
C59	C	0.537779	0.242472	0.191850
C60	C	0.871113	0.575806	0.525183
C61	C	0.286724	-0.092060	-0.146643
C62	C	0.620058	0.241273	0.186691
C63	C	0.953391	0.574606	0.520024
C64	C	0.327856	-0.092667	-0.083208
C65	C	0.661190	0.240667	0.250125
C66	C	0.994523	0.574000	0.583459
C67	C	0.451040	-0.094467	-0.028231
C68	C	0.784374	0.238866	0.305103
C69	C	1.117707	0.572200	0.638436
C70	C	0.411955	-0.093899	-0.088489
C71	C	0.745289	0.239434	0.244844
C72	C	1.078622	0.572768	0.578178
C73	C	0.937710	0.032818	-0.058731
C74	C	1.271044	0.366151	0.274602
C75	C	1.604377	0.699484	0.607936
C76	C	0.936428	0.109924	-0.058644
C77	C	1.269762	0.443257	0.274689
C78	C	1.603095	0.776590	0.608022
C79	C	1.075739	-0.088971	-0.067394
C80	C	1.409073	0.244363	0.265939
C81	C	1.742406	0.577696	0.599273
C82	C	1.163304	-0.090258	-0.072884
C83	C	1.496638	0.243075	0.260450
C84	C	1.829971	0.576408	0.593783
C85	C	0.925290	-0.221173	-0.057988
C86	C	1.258623	0.112160	0.275345
C87	C	1.591957	0.445493	0.608679
C88	C	0.926572	-0.298279	-0.058079
C89	C	1.259905	0.035054	0.275254
C90	C	1.593239	0.368387	0.608587
N91	N	0.931474	-0.094169	0.130311
N92	N	1.264807	0.239164	0.463644
N93	N	1.598141	0.572498	0.796978
C94	C	1.007712	0.154491	-0.063105
C95	C	1.341046	0.487824	0.270228
C96	C	1.674379	0.821157	0.603561
C97	C	1.006508	0.226940	-0.063041
C98	C	1.339841	0.560273	0.270292
C99	C	1.673175	0.893607	0.603625
C100	C	0.934015	0.254819	-0.058502
C101	C	1.267348	0.588152	0.274832
C102	C	1.600682	0.921486	0.608165
C103	C	0.862721	0.210242	-0.054044
C104	C	1.196055	0.543575	0.279289
C105	C	1.529388	0.876909	0.612622
C106	C	0.863928	0.137794	-0.054116
C107	C	1.197261	0.471128	0.279218
C108	C	1.530595	0.804461	0.612551
C109	C	0.877020	0.363211	-0.012514
C110	C	1.210353	0.696545	0.320820
C111	C	1.543686	1.029878	0.654153
C112	C	0.875816	0.435658	-0.012438
C113	C	1.209150	0.768991	0.320895
C114	C	1.542483	1.102325	0.654229
C115	C	0.930290	0.478271	-0.058285
C116	C	1.263624	0.811605	0.275049
C117	C	1.596957	1.144938	0.608382
C118	C	0.985982	0.448430	-0.104198
C119	C	1.319315	0.781764	0.229135
C120	C	1.652648	1.115097	0.562468
C121	C	0.987188	0.375983	-0.104270
C122	C	1.320521	0.709316	0.229064
C123	C	1.653855	1.042649	0.562397
C124	C	0.932699	0.333375	-0.058424
C125	C	1.266032	0.666709	0.274909
C126	C	1.599365	1.000042	0.608242
C127	C	1.000273	0.601397	-0.062678
C128	C	1.333607	0.934730	0.270656
C129	C	1.666940	1.268063	0.603989
C130	C	0.999066	0.673847	-0.062618
C131	C	1.332399	1.007180	0.270715
C132	C	1.665732	1.340514	0.604049
C133	C	0.855277	0.657147	-0.053613
C134	C	1.188610	0.990481	0.279720
C135	C	1.521944	1.323814	0.613053
C136	C	0.856487	0.584699	-0.053681
C137	C	1.189820	0.918032	0.279653
C138	C	1.523153	1.251365	0.612986
C139	C	0.928987	0.556828	-0.058209
C140	C	1.262320	0.890161	0.275124
C141	C	1.595654	1.223495	0.608457
N142	N	0.931533	-0.094181	-0.247029
N143	N	1.264866	0.239152	0.086305
N144	N	1.598199	0.572486	0.419638
C145	C	0.985287	-0.046921	0.165047
C146	C	1.318620	0.286412	0.498381
C147	C	1.651953	0.619745	0.831714
C148	C	0.985292	-0.046918	0.241275
C149	C	1.318625	0.286415	0.574608
C150	C	1.651958	0.619748	0.907942
C151	C	0.931491	-0.094175	0.282763
C152	C	1.264825	0.239158	0.616096
C153	C	1.598158	0.572492	0.949429
C154	C	0.877668	-0.141426	0.248017
C155	C	1.211002	0.191907	0.581351
C156	C	1.544335	0.525240	0.914684
C157	C	0.877660	-0.141423	0.171792
C158	C	1.210993	0.191910	0.505125
C159	C	1.544326	0.525243	0.838458
C160	C	0.920932	-0.157444	0.404175
C161	C	1.254265	0.175890	0.737509
C162	C	1.587598	0.509223	1.070842
C163	C	0.920946	-0.157447	0.480399
C164	C	1.254279	0.175886	0.813733
C165	C	1.587613	0.509219	1.147066
C166	C	0.931514	-0.094184	0.517869
C167	C	1.264847	0.239150	0.851202
C168	C	1.598180	0.572483	1.184535
C169	C	0.942084	-0.030913	0.479104
C170	C	1.275418	0.302420	0.812437
C171	C	1.608751	0.635753	1.145770
C172	C	0.942075	-0.030910	0.402878
C173	C	1.275409	0.302423	0.736211
C174	C	1.608742	0.635756	1.069544
C175	C	0.931495	-0.094183	0.365417
C176	C	1.264828	0.239150	0.698750
C177	C	1.598161	0.572484	1.032084
C178	C	0.985335	-0.046929	0.635260
C179	C	1.318668	0.286405	0.968593
C180	C	1.652002	0.619738	1.301926
C181	C	0.985335	-0.046925	0.711489
C182	C	1.318668	0.286409	1.044822
C183	C	1.652001	0.619742	1.378156
C184	C	0.877715	-0.141439	0.718230
C185	C	1.211048	0.191895	1.051563
C186	C	1.544382	0.525228	1.384896
C187	C	0.877712	-0.141437	0.642002
C188	C	1.211045	0.191897	0.975335
C189	C	1.544378	0.525230	1.308669
C190	C	0.931526	-0.094182	0.600521
C191	C	1.264859	0.239151	0.933855
C192	C	1.598193	0.572484	1.267188
H193	H	0.417534	-0.093974	0.027619
H194	H	0.750867	0.239359	0.360953
H195	H	1.084201	0.572693	0.694286
H196	H	1.057116	0.710134	-0.066255
H197	H	1.390450	1.043467	0.267079
H198	H	1.723783	1.376800	0.600412
H199	H	0.833862	-0.179902	0.281801
H200	H	1.167195	0.153431	0.615134
H201	H	1.500529	0.486764	0.948467
H202	H	0.542777	-0.095810	0.085775
H203	H	0.876110	0.237523	0.419108
H204	H	1.209443	0.570856	0.752442
H205	H	1.029114	-0.008442	0.269563
H206	H	1.362447	0.324891	0.602896
H207	H	1.695781	0.658225	0.936229
Cl208	Cl	0.771587	0.245289	-0.048343
Cl209	Cl	1.104921	0.578622	0.284990
Cl210	Cl	1.438254	0.911955	0.618324
Cl211	Cl	0.774306	0.081764	-0.048507
Cl212	Cl	1.107639	0.415097	0.284827
Cl213	Cl	1.440972	0.748430	0.618160
Cl214	Cl	1.091414	0.566356	-0.068367
Cl215	Cl	1.424748	0.899689	0.264967
Cl216	Cl	1.758081	1.233023	0.598300
H217	H	0.796252	0.679845	-0.049921
H218	H	1.129585	1.013179	0.283413
H219	H	1.462919	1.346512	0.616746
H220	H	0.833895	-0.179913	0.613718
H221	H	1.167229	0.153420	0.947051
H222	H	1.500562	0.486754	1.280384
H223	H	1.029104	-0.008443	0.131276
H224	H	1.362437	0.324891	0.464609
H225	H	1.695770	0.658224	0.797943
Cl226	Cl	0.766867	0.528668	-0.048069
Cl227	Cl	1.100200	0.862001	0.285264
Cl228	Cl	1.433534	1.195335	0.618598
Cl229	Cl	0.955354	0.048625	0.354148
Cl230	Cl	1.288688	0.381959	0.687481
Cl231	Cl	1.622021	0.715292	1.020814
H232	H	0.912344	-0.208966	0.511956
H233	H	1.245677	0.124368	0.845289
H234	H	1.579010	0.457701	1.178622
Cl235	Cl	0.955377	0.048624	0.526199
Cl236	Cl	1.288710	0.381957	0.859532
Cl237	Cl	1.622043	0.715291	1.192865
Cl238	Cl	1.052986	0.012482	0.755161
Cl239	Cl	1.386319	0.345815	1.088494
Cl240	Cl	1.719653	0.679148	1.421827
H241	H	1.029152	-0.008449	0.601485
H242	H	1.362485	0.324884	0.934818
H243	H	1.695818	0.658217	1.268151
H244	H	0.170947	-0.090369	-0.193128
H245	H	0.504281	0.242964	0.140205
H246	H	0.837614	0.576298	0.473538
Cl247	Cl	0.810074	-0.200842	0.770380
Cl248	Cl	1.143408	0.132492	1.103714
Cl249	Cl	1.476741	0.465825	1.437047
Cl250	Cl	0.907719	-0.236985	0.357074
Cl251	Cl	1.241052	0.096348	0.690408
Cl252	Cl	1.574385	0.429681	1.023741
H253	H	0.833838	-0.179899	0.143509
H254	H	1.167171	0.153435	0.476842
H255	H	1.500504	0.486768	0.810176
Cl256	Cl	1.054467	0.501993	-0.161840
Cl257	Cl	1.387801	0.835327	0.171494
Cl258	Cl	1.721134	1.168660	0.504827
Cl259	Cl	0.710275	-0.098251	-0.193508
Cl260	Cl	1.043609	0.235083	0.139825
Cl261	Cl	1.376942	0.568416	0.473159
H262	H	0.170940	-0.090387	0.046407
H263	H	0.504274	0.242946	0.379741
H264	H	0.837607	0.576279	0.713074
Cl265	Cl	0.463677	-0.094660	-0.174719
Cl266	Cl	0.797011	0.238674	0.158614
Cl267	Cl	1.130344	0.572007	0.491947
H268	H	0.542795	-0.095809	-0.153757
H269	H	0.876129	0.237524	0.179576
H270	H	1.209462	0.570858	0.512909
H271	H	0.320217	-0.092547	-0.202500
H272	H	0.653550	0.240787	0.130834
H273	H	0.986884	0.574120	0.464167
H274	H	0.692048	-0.097993	0.076410
H275	H	1.025381	0.235341	0.409743
H276	H	1.358714	0.568674	0.743077
Cl277	Cl	0.338418	-0.092826	0.065133
Cl278	Cl	0.671752	0.240508	0.398467
Cl279	Cl	1.005085	0.573841	0.731800
H280	H	1.066748	0.131804	-0.066795
H281	H	1.400081	0.465137	0.266538
H282	H	1.733414	0.798470	0.599871
Cl283	Cl	1.057191	0.338470	-0.161992
Cl284	Cl	1.390525	0.671803	0.171342
Cl285	Cl	1.723858	1.005137	0.504675
H286	H	0.830466	0.459948	0.024944
H287	H	1.163799	0.793281	0.358277
H288	H	1.497132	1.126615	0.691610
H289	H	0.832658	0.328521	0.024824
H290	H	1.165992	0.661854	0.358158
H291	H	1.499325	0.995187	0.691491
H292	H	1.064558	0.263234	-0.066677
H293	H	1.397891	0.596567	0.266656
H294	H	1.731225	0.929900	0.599990
