data_functionalizedCrystal
_audit_creation_method	'MofGen! by Chris Wilmer'
_symmetry_space_group_name_H-M	'P1'
_symmetry_Int_Tables_number	1
_symmetry_cell_setting	triclinic
loop_
_symmetry_equiv_pos_as_xyz
  x,y,z
_cell_length_a	12.594516
_cell_length_b	12.594517
_cell_length_c	14.908308
_cell_angle_alpha	93.272126
_cell_angle_beta	86.728502
_cell_angle_gamma	89.988892
loop_
_atom_site_label
_atom_site_type_symbol
_atom_site_fract_x
_atom_site_fract_y
_atom_site_fract_z
Zn1	Zn	-0.458602	-1.592499	0.510269
Zn2	Zn	0.041398	-1.092499	1.010269
Zn3	Zn	-0.626339	-1.602667	0.359426
Zn4	Zn	-0.126339	-1.102667	0.859426
Zn5	Zn	-0.448359	-1.424781	0.359411
Zn6	Zn	0.051641	-0.924781	0.859411
Zn7	Zn	-0.636520	-1.414488	0.510217
Zn8	Zn	-0.136520	-0.914488	1.010217
O9	O	-0.542455	-1.508609	0.434831
O10	O	-0.042455	-1.008609	0.934831
O11	O	-0.480879	-1.742791	0.490286
O12	O	0.019121	-1.242791	0.990286
O13	O	-0.594182	-1.587634	0.233183
O14	O	-0.094182	-1.087634	0.733183
O15	O	-0.300773	-1.447082	0.379438
O16	O	0.199227	-0.947082	0.879438
O17	O	-0.604114	-1.750262	0.379463
O18	O	-0.104114	-1.250262	0.879463
O19	O	-0.308298	-1.570303	0.490272
O20	O	0.191702	-1.070303	0.990272
O21	O	-0.463421	-1.456942	0.233172
O22	O	0.036579	-0.956942	0.733172
O23	O	-0.473292	-1.274472	0.379388
O24	O	0.026708	-0.774472	0.879388
O25	O	-0.621466	-1.429538	0.636465
O26	O	-0.121466	-0.929538	1.136465
O27	O	-0.611534	-1.266910	0.490185
O28	O	-0.111534	-0.766910	0.990185
O29	O	-0.490751	-1.560322	0.636503
O30	O	0.009249	-1.060322	1.136503
O31	O	-0.776634	-1.577653	0.379413
O32	O	-0.276634	-1.077653	0.879413
O33	O	-0.784114	-1.439398	0.490199
O34	O	-0.284114	-0.939398	0.990199
C35	C	-0.542407	-1.232071	0.434780
C36	C	-0.042407	-0.732071	0.934780
C37	C	-0.542414	-1.113766	0.434780
C38	C	-0.042414	-0.613766	0.934780
C39	C	-0.467144	-0.977823	0.374645
C40	C	0.032856	-0.477823	0.874645
C41	C	-0.446823	-1.043072	0.456970
C42	C	0.053177	-0.543072	0.956970
C43	C	-0.562688	-1.050088	0.352464
C44	C	-0.062688	-0.550088	0.852464
C45	C	-0.522075	-0.968223	0.517199
C46	C	-0.022075	-0.468223	1.017199
C47	C	-0.637981	-0.975236	0.412637
C48	C	-0.137981	-0.475236	0.912637
C49	C	-0.617700	-1.040450	0.495019
C50	C	-0.117700	-0.540450	0.995019
C51	C	-0.818995	-1.508540	0.434822
C52	C	-0.318995	-1.008540	0.934822
C53	C	-0.937302	-1.508606	0.434848
C54	C	-0.437302	-1.008606	0.934848
C55	C	-1.010660	-1.433405	0.495062
C56	C	-0.510660	-0.933405	0.995062
C57	C	-1.075916	-1.413081	0.412742
C58	C	-0.575916	-0.913081	0.912742
C59	C	-1.082846	-1.529026	0.517183
C60	C	-0.582846	-1.029026	1.017183
C61	C	-1.000998	-1.488233	0.352484
C62	C	-0.500998	-0.988233	0.852484
C63	C	-1.007925	-1.604219	0.456981
C64	C	-0.507925	-1.104219	0.956981
C65	C	-1.073146	-1.583936	0.374603
C66	C	-0.573146	-1.083936	0.874603
C67	C	-0.264836	-1.508706	0.434859
C68	C	0.235164	-1.008706	0.934859
C69	C	-0.146531	-1.508747	0.434872
C70	C	0.353469	-1.008747	0.934872
C71	C	-0.558387	-1.492647	0.670132
C72	C	-0.058387	-0.992647	1.170132
C73	C	-0.565176	-1.485845	0.770404
C74	C	-0.065176	-0.985845	1.270404
C75	C	-0.542483	-0.786228	0.434864
C76	C	-0.042483	-0.286228	0.934864
C77	C	-0.542443	-0.904535	0.434830
C78	C	-0.042443	-0.404535	0.934830
C79	C	-0.526508	-1.524570	0.200445
C80	C	-0.026508	-1.024570	0.700445
C81	C	-0.519419	-1.531578	0.100174
C82	C	-0.019419	-1.031578	0.600174
C83	C	-0.441794	-1.609246	0.958865
C84	C	0.058206	-1.109246	1.458865
C85	C	-0.448170	-1.602858	1.053079
C86	C	0.051830	-1.102858	1.553079
C87	C	-0.584296	-1.466678	1.053047
C88	C	-0.084296	-0.966678	1.553047
C89	C	-0.577920	-1.473066	0.958833
C90	C	-0.077920	-0.973066	1.458833
C91	C	-0.506669	-1.544353	0.911746
C92	C	-0.006669	-1.044353	1.411746
C93	C	-0.500299	-1.550745	0.817530
C94	C	-0.000299	-1.050745	1.317530
C95	C	-0.636419	-1.414560	0.817500
C96	C	-0.136419	-0.914560	1.317500
C97	C	-0.642795	-1.408173	0.911714
C98	C	-0.142795	-0.908173	1.411714
H99	H	-0.579824	-1.085865	0.282829
H100	H	-0.079824	-0.585865	0.782829
C101	C	-0.363423	-1.687666	0.907067
C102	C	0.136577	-1.187666	1.407067
N103	N	-0.304391	-1.746734	0.868054
N104	N	0.195609	-1.246734	1.368054
C105	C	-0.376806	-1.674248	1.104908
C106	C	0.123194	-1.174248	1.604908
N107	N	-0.323052	-1.728023	1.143945
N108	N	0.176948	-1.228023	1.643945
C109	C	-0.707786	-1.343174	0.765660
C110	C	-0.207786	-0.843174	1.265660
N111	N	-0.761540	-1.289409	0.726614
N112	N	-0.261540	-0.789409	1.226614
C113	C	-0.952854	-1.464844	0.258405
C114	C	-0.452854	-0.964844	0.758405
N115	N	-0.916589	-1.447223	0.187548
N116	N	-0.416589	-0.947223	0.687548
C117	C	-0.381081	-0.940477	0.306005
C118	C	0.118919	-0.440477	0.806005
N119	N	-0.316257	-0.912345	0.254311
N120	N	0.183743	-0.412345	0.754311
H121	H	-0.366014	-1.072898	0.475736
H122	H	0.133986	-0.572898	0.975736
C123	C	-0.747109	-0.934877	0.387263
C124	C	-0.247109	-0.434877	0.887263
N125	N	-0.829303	-0.904474	0.368141
N126	N	-0.329303	-0.404474	0.868141
H127	H	-0.642305	-1.408639	1.091403
H128	H	-0.142305	-0.908639	1.591403
H129	H	-0.504844	-0.932576	0.586854
H130	H	-0.004844	-0.432576	1.086854
C131	C	-1.110133	-1.669934	0.305747
C132	C	-0.610133	-1.169934	0.805747
N133	N	-1.137996	-1.734702	0.253881
N134	N	-0.637996	-1.234702	0.753881
C135	C	-0.703723	-1.077500	0.563825
C136	C	-0.203723	-0.577500	1.063825
N137	N	-0.768515	-1.105404	0.615651
N138	N	-0.268515	-0.605404	1.115651
H139	H	-0.700804	-1.350131	0.950065
H140	H	-0.200804	-0.850131	1.450065
H141	H	-0.442284	-1.608793	0.779193
H142	H	0.057716	-1.108793	1.279193
H143	H	-0.983083	-1.369708	0.545909
H144	H	-0.483083	-0.869708	1.045909
C145	C	-1.116329	-1.303928	0.387459
C146	C	-0.616329	-0.803928	0.887459
N147	N	-1.146766	-1.221712	0.368421
N148	N	-0.646766	-0.721712	0.868421
C149	C	-1.131165	-1.552284	0.611236
C150	C	-0.631165	-1.052284	1.111236
N151	N	-1.167555	-1.569794	0.682078
N152	N	-0.667555	-1.069794	1.182078
H153	H	-0.977992	-1.684991	0.475721
H154	H	-0.477992	-1.184991	0.975721
