data_functionalizedCrystal
_audit_creation_method	'MofGen! by Chris Wilmer'
_symmetry_space_group_name_H-M	'P1'
_symmetry_Int_Tables_number	1
_symmetry_cell_setting	triclinic
loop_
_symmetry_equiv_pos_as_xyz
  x,y,z
_cell_length_a	19.805407
_cell_length_b	13.032721
_cell_length_c	19.805399
_cell_angle_alpha	97.155902
_cell_angle_beta	89.980427
_cell_angle_gamma	97.204665
loop_
_atom_site_label
_atom_site_type_symbol
_atom_site_fract_x
_atom_site_fract_y
_atom_site_fract_z
Zn1	Zn	1.000535	-0.416068	-0.416943
Zn2	Zn	0.986084	-0.590828	-0.318130
Zn3	Zn	0.887347	-0.416097	-0.303770
Zn4	Zn	0.872952	-0.590772	-0.431272
O5	O	0.936729	-0.503441	-0.367529
O6	O	1.093333	-0.439261	-0.403849
O7	O	0.972963	-0.567684	-0.221512
O8	O	0.914433	-0.269853	-0.306777
O9	O	1.082717	-0.567656	-0.331251
O10	O	0.997592	-0.269832	-0.389925
O11	O	0.900421	-0.439310	-0.210962
O12	O	0.790722	-0.439257	-0.320671
O13	O	0.889899	-0.567562	-0.524085
O14	O	0.780146	-0.567590	-0.414346
O15	O	0.983634	-0.439207	-0.513558
O16	O	0.959005	-0.737060	-0.345145
O17	O	0.875887	-0.737019	-0.428270
C18	C	0.760875	-0.503421	-0.367506
C19	C	0.685642	-0.503438	-0.367514
C20	C	0.644800	-0.570361	-0.416228
C21	C	0.574112	-0.570363	-0.416238
C22	C	0.544265	-0.503446	-0.367529
C23	C	0.585113	-0.436515	-0.318812
C24	C	0.655800	-0.436508	-0.318806
C25	C	0.300037	-0.436538	-0.318836
C26	C	0.229344	-0.436551	-0.318845
C27	C	0.218349	-0.570393	-0.416269
C28	C	0.289036	-0.570386	-0.416262
C29	C	0.329878	-0.503452	-0.367548
C30	C	0.406526	-0.503449	-0.367538
C31	C	0.467618	-0.503453	-0.367535
C32	C	0.914334	-0.774958	-0.389835
C33	C	0.904816	-0.891114	-0.399401
C34	C	0.941733	-0.942886	-0.362567
C35	C	0.931896	-1.062939	-0.372453
C36	C	1.113270	-0.503462	-0.367553
C37	C	1.188502	-0.503471	-0.367563
C38	C	0.936773	-0.503375	-0.544066
C39	C	0.936791	-0.503347	-0.619296
C40	C	0.959230	-0.230864	-0.345151
C41	C	0.968819	-0.114708	-0.335614
C42	C	0.985600	-0.436510	-0.649160
C43	C	0.985609	-0.436479	-0.719846
C44	C	0.936813	-0.503293	-0.760667
C45	C	0.887999	-0.570133	-0.730799
C46	C	0.887987	-0.570157	-0.660114
C47	C	0.888045	-0.570036	-1.015865
C48	C	0.888062	-0.570008	-1.086555
C49	C	0.985668	-0.436358	-1.075596
C50	C	0.985656	-0.436382	-1.004911
C51	C	0.936840	-0.503218	-0.975049
C52	C	0.936830	-0.503249	-0.898403
C53	C	0.936825	-0.503268	-0.837312
C54	C	0.936731	-0.503431	-0.191672
C55	C	0.936868	-0.503165	-0.116419
H56	H	0.185087	-0.624890	-0.455937
H57	H	0.313333	-0.624881	-0.455924
H58	H	1.025338	-0.382106	-0.615927
N59	N	0.880373	-1.121944	-0.423916
H60	H	0.857086	-1.070900	-0.447138
H61	H	0.904224	-1.167166	-0.458964
N62	N	0.835429	-0.642074	-1.130587
H63	H	0.804501	-0.684417	-1.100944
H64	H	0.807628	-0.599516	-1.156418
H65	H	1.007714	-1.070157	-0.296761
H66	H	0.865929	-0.935669	-0.438256
N67	N	0.676990	-0.642536	-0.468765
H68	H	0.702316	-0.690908	-0.445178
H69	H	0.640352	-0.684860	-0.499613
H70	H	1.025356	-0.382056	-0.744157
H71	H	1.025393	-0.381979	-0.971677
N72	N	1.038319	-0.364264	-1.107804
H73	H	1.030924	-0.374380	-1.158777
H74	H	1.033947	-0.289632	-1.089317
N75	N	0.197151	-0.364374	-0.266307
H76	H	0.233749	-0.321968	-0.235445
H77	H	0.171814	-0.316078	-0.289947
H78	H	0.848305	-0.624473	-0.991561
H79	H	0.333282	-0.382044	-0.279165
N80	N	0.835353	-0.642174	-0.774823
H81	H	0.842764	-0.632014	-0.824133
H82	H	0.839711	-0.716821	-0.768602
H83	H	0.848236	-0.624573	-0.635800
H84	H	0.540861	-0.624860	-0.455906
H85	H	0.689054	-0.382007	-0.279140
N86	N	0.552919	-0.364359	-0.266267
H87	H	0.527581	-0.315989	-0.289844
H88	H	0.520120	-0.406867	-0.238366
N89	N	0.993254	-0.883881	-0.311106
H90	H	0.992980	-0.806482	-0.311340
H91	H	0.981198	-0.902962	-0.264315
