data_functionalizedCrystal
_audit_creation_method	'MofGen! by Chris Wilmer'
_symmetry_space_group_name_H-M	'P1'
_symmetry_Int_Tables_number	1
_symmetry_cell_setting	triclinic
loop_
_symmetry_equiv_pos_as_xyz
  x,y,z
_cell_length_a	15.995350
_cell_length_b	15.995350
_cell_length_c	15.072220
_cell_angle_alpha	90.001101
_cell_angle_beta	90.006129
_cell_angle_gamma	96.507625
loop_
_atom_site_label
_atom_site_type_symbol
_atom_site_fract_x
_atom_site_fract_y
_atom_site_fract_z
O1	O	1.110996	-0.107921	0.073647
O2	O	1.610996	0.392079	0.573647
O3	O	0.867221	-0.121249	0.073677
O4	O	1.367221	0.378751	0.573677
O5	O	0.995772	0.007303	0.073660
O6	O	1.495772	0.507303	0.573660
O7	O	0.982444	-0.236472	0.073664
O8	O	1.482444	0.263528	0.573664
O9	O	0.995740	0.007296	-0.073905
O10	O	1.495740	0.507296	0.426095
O11	O	0.867189	-0.121256	-0.073888
O12	O	1.367189	0.378744	0.426112
O13	O	1.110964	-0.107928	-0.073918
O14	O	1.610964	0.392072	0.426082
Zn15	Zn	0.989071	-0.114593	-0.097332
Zn16	Zn	1.489071	0.385407	0.402668
Zn17	Zn	0.989113	-0.114584	0.097091
Zn18	Zn	1.489113	0.385416	0.597091
O19	O	0.982413	-0.236480	-0.073902
O20	O	1.482413	0.263520	0.426098
C21	C	0.836010	-0.120701	-0.000102
C22	C	1.336010	0.379299	0.499898
C23	C	0.743060	-0.119049	-0.000090
C24	C	1.243060	0.380951	0.499910
C25	C	1.142175	-0.108476	-0.000138
C26	C	1.642175	0.391524	0.499862
C27	C	1.235125	-0.110127	-0.000143
C28	C	1.735125	0.389873	0.499857
C29	C	0.995205	0.038494	-0.000121
C30	C	1.495205	0.538494	0.499879
C31	C	0.993553	0.131444	-0.000115
C32	C	1.493553	0.631444	0.499885
C33	C	1.572873	-0.116060	-0.000108
C34	C	2.072873	0.383940	0.499892
C35	C	1.525439	-0.207612	-0.000440
C36	C	2.025439	0.292388	0.499560
C37	C	1.428748	-0.205959	-0.000117
C38	C	1.928748	0.294041	0.499883
C39	C	1.405312	-0.113117	-0.000126
C40	C	1.905312	0.386883	0.499874
C41	C	1.446391	-0.067956	0.084142
C42	C	1.946391	0.432044	0.584142
C43	C	1.543027	-0.070256	0.084222
C44	C	2.043027	0.429744	0.584222
C45	C	1.543382	-0.068373	-0.083587
C46	C	2.043382	0.431627	0.416413
C47	C	1.446437	-0.068395	-0.084710
C48	C	1.946437	0.431605	0.415290
C49	C	1.310615	-0.111449	-0.000133
C50	C	1.810615	0.388551	0.499867
C51	C	1.667570	-0.117725	-0.000094
C52	C	2.167570	0.382275	0.499906
C53	C	0.982980	-0.267671	-0.000119
C54	C	1.482980	0.232329	0.499881
C55	C	0.984631	-0.360621	-0.000118
C56	C	1.484631	0.139379	0.499882
N57	N	0.989049	-0.114599	-0.230021
N58	N	1.489049	0.385401	0.269979
C59	C	0.987621	0.469192	-0.000118
C60	C	1.487621	0.969192	0.499882
C61	C	0.896069	0.421758	0.000225
C62	C	1.396069	0.921758	0.500225
C63	C	0.897721	0.325068	-0.000108
C64	C	1.397721	0.825068	0.499892
C65	C	0.990564	0.301631	-0.000116
C66	C	1.490564	0.801631	0.499884
C67	C	1.035702	0.342705	-0.084387
C68	C	1.535702	0.842705	0.415613
C69	C	1.033402	0.439341	-0.084457
C70	C	1.533402	0.939341	0.415543
C71	C	1.035330	0.439707	0.083352
C72	C	1.535330	0.939707	0.583352
C73	C	1.035308	0.342761	0.084465
C74	C	1.535308	0.842761	0.584465
C75	C	0.992231	0.206934	-0.000118
C76	C	1.492231	0.706934	0.499882
C77	C	0.985956	0.563890	-0.000122
C78	C	1.485956	1.063890	0.499878
C79	C	0.989112	-0.114580	-0.589223
C80	C	1.489112	0.385420	-0.089223
C81	C	0.920095	-0.183135	-0.551607
C82	C	1.420095	0.316865	-0.051607
C83	C	0.920254	-0.183385	-0.448781
C84	C	1.420254	0.316615	0.051219
C85	C	0.989080	-0.114590	-0.411019
C86	C	1.489080	0.385410	0.088981
C87	C	1.076445	-0.133671	-0.448321
C88	C	1.576445	0.366329	0.051679
C89	C	1.076058	-0.134159	-0.551178
C90	C	1.576058	0.365841	-0.051178
C91	C	0.971542	-0.026741	-0.551321
C92	C	1.471542	0.473259	-0.051321
C93	C	0.969537	-0.027327	-0.448458
C94	C	1.469537	0.472673	0.051542
C95	C	0.989067	-0.114593	-0.310305
C96	C	1.489067	0.385407	0.189695
C97	C	0.989130	-0.114579	-0.689936
C98	C	1.489130	0.385421	-0.189936
N99	N	0.989142	-0.114571	0.229780
N100	N	1.489142	0.385429	0.729780
H101	H	1.400325	-0.241463	-0.060520
H102	H	1.900325	0.258537	0.439480
Cl103	Cl	0.839588	0.450371	0.093529
Cl104	Cl	1.339588	0.950371	0.593529
H105	H	0.931160	-0.247952	-0.577446
H106	H	1.431160	0.252048	-0.077446
Cl107	Cl	1.554588	-0.264351	-0.093331
Cl108	Cl	2.054588	0.235649	0.406669
H109	H	1.000460	0.457639	-0.147445
H110	H	1.500460	0.957639	0.352555
Cl111	Cl	1.137174	0.489132	-0.090382
Cl112	Cl	1.637174	0.989132	0.409618
H113	H	0.909219	-0.008392	-0.577304
H114	H	1.409219	0.491608	-0.077304
Cl115	Cl	1.592429	0.035837	-0.084475
Cl116	Cl	2.092429	0.535837	0.415525
Cl117	Cl	0.842527	0.282035	-0.093519
Cl118	Cl	1.342527	0.782035	0.406481
Cl119	Cl	0.839647	0.452362	-0.092271
Cl120	Cl	1.339647	0.952362	0.407729
Cl121	Cl	1.141011	0.320898	-0.089240
Cl122	Cl	1.641011	0.820898	0.410760
Cl123	Cl	0.987259	0.298886	-0.181203
Cl124	Cl	1.487259	0.798886	0.318797
H125	H	0.855314	-0.172016	-0.423562
H126	H	1.355314	0.327984	0.076438
H127	H	1.021872	0.024275	-0.575646
H128	H	1.521872	0.524275	-0.075646
H129	H	1.575275	-0.003040	0.088057
H130	H	2.075275	0.496960	0.588057
H131	H	1.545033	-0.244038	0.059656
H132	H	2.045033	0.255962	0.559656
Cl133	Cl	0.842937	0.281187	0.093158
Cl134	Cl	1.342937	0.781187	0.593158
H135	H	1.005411	0.460250	0.147224
H136	H	1.505411	0.960250	0.647224
H137	H	1.002306	0.315516	0.146807
H138	H	1.502306	0.815516	0.646807
H139	H	1.417987	-0.099296	0.146850
H140	H	1.917987	0.400704	0.646850
Cl141	Cl	1.139841	0.319041	0.092319
Cl142	Cl	1.639841	0.819041	0.592319
H143	H	1.400885	-0.241689	0.060391
H144	H	1.900885	0.258311	0.560391
Cl145	Cl	1.571287	-0.121093	0.181478
Cl146	Cl	2.071287	0.378907	0.681478
H147	H	1.102831	0.471468	0.083912
H148	H	1.602831	0.971468	0.583912
Cl149	Cl	0.937542	-0.284035	-0.410774
Cl150	Cl	1.437542	0.215965	0.089226
Cl151	Cl	0.819502	-0.165861	-0.589803
Cl152	Cl	1.319502	0.334139	-0.089803
H153	H	1.091540	-0.198219	-0.575161
H154	H	1.591540	0.301781	-0.075161
H155	H	1.129019	-0.086195	-0.576060
H156	H	1.629019	0.413805	-0.076060
H157	H	1.129029	-0.085068	-0.423858
H158	H	1.629029	0.414932	0.076142
Cl159	Cl	1.100923	-0.231449	-0.408541
Cl160	Cl	1.600923	0.268551	0.091459
H161	H	0.905271	-0.012846	-0.424078
H162	H	1.405271	0.487154	0.075922
H163	H	1.016540	0.026078	-0.422756
H164	H	1.516540	0.526078	0.077244
H165	H	1.432265	0.000253	0.087269
H166	H	1.932265	0.500253	0.587269
Cl167	Cl	1.575093	-0.114590	-0.182191
Cl168	Cl	2.075093	0.385410	0.317809
H169	H	1.431077	-0.000690	-0.089803
H170	H	1.931077	0.499310	0.410197
Cl171	Cl	1.404288	-0.119304	-0.180962
Cl172	Cl	1.904288	0.380696	0.319038
