data_functionalizedCrystal
_audit_creation_method	'MofGen! by Chris Wilmer'
_symmetry_space_group_name_H-M	'P1'
_symmetry_Int_Tables_number	1
_symmetry_cell_setting	triclinic
loop_
_symmetry_equiv_pos_as_xyz
  x,y,z
_cell_length_a	15.944499
_cell_length_b	14.421503
_cell_length_c	19.288865
_cell_angle_alpha	90.000948
_cell_angle_beta	83.306928
_cell_angle_gamma	90.010221
loop_
_atom_site_label
_atom_site_type_symbol
_atom_site_fract_x
_atom_site_fract_y
_atom_site_fract_z
O1	O	1.114212	0.077178	0.089402
O2	O	1.447545	0.410511	0.422735
O3	O	1.780879	0.743845	0.756068
O4	O	0.869614	0.077169	0.100484
O5	O	1.202947	0.410502	0.433817
O6	O	1.536280	0.743836	0.767150
O7	O	0.998981	0.077156	-0.006170
O8	O	1.332314	0.410489	0.327163
O9	O	1.665647	0.743822	0.660496
O10	O	0.984845	0.077192	0.196055
O11	O	1.318178	0.410525	0.529389
O12	O	1.651512	0.743858	0.862722
O13	O	0.998959	-0.077068	-0.006154
O14	O	1.332292	0.256265	0.327179
O15	O	1.665626	0.589599	0.660512
O16	O	0.869592	-0.077054	0.100500
O17	O	1.202926	0.256279	0.433833
O18	O	1.536259	0.589612	0.767166
O19	O	1.114191	-0.077045	0.089417
O20	O	1.447524	0.256288	0.422751
O21	O	1.780857	0.589621	0.756084
Cu22	Cu	0.991889	-0.091132	0.094960
Cu23	Cu	1.325223	0.242202	0.428293
Cu24	Cu	1.658556	0.575535	0.761627
Cu25	Cu	0.991915	0.091255	0.094941
Cu26	Cu	1.325248	0.424589	0.428274
Cu27	Cu	1.658581	0.757922	0.761608
O28	O	0.984824	-0.077032	0.196071
O29	O	1.318157	0.256302	0.529405
O30	O	1.651490	0.589635	0.862738
C31	C	0.838310	0.000056	0.100038
C32	C	1.171643	0.333389	0.433371
C33	C	1.504977	0.666723	0.766705
C34	C	0.745067	0.000052	0.098678
C35	C	1.078400	0.333385	0.432011
C36	C	1.411734	0.666718	0.765344
N37	N	0.991878	-0.219413	0.094973
N38	N	1.325211	0.113920	0.428306
N39	N	1.658544	0.447254	0.761639
C40	C	0.453292	0.000077	0.160641
C41	C	0.786626	0.333410	0.493974
C42	C	1.119959	0.666743	0.827307
C43	C	0.514456	0.076113	0.128423
C44	C	0.847789	0.409446	0.461756
C45	C	1.181123	0.742779	0.795090
C46	C	0.409449	0.000072	0.093736
C47	C	0.742783	0.333406	0.427069
C48	C	1.076116	0.666739	0.760402
C49	C	0.514421	-0.075939	0.128421
C50	C	0.847754	0.257394	0.461754
C51	C	1.181088	0.590727	0.795087
C52	C	0.574349	0.000061	0.096167
C53	C	0.907682	0.333394	0.429501
C54	C	1.241016	0.666727	0.762834
C55	C	0.469385	0.076171	0.061499
C56	C	0.802719	0.409505	0.394833
C57	C	1.136052	0.742838	0.728166
C58	C	0.469344	-0.075949	0.061506
C59	C	0.802677	0.257384	0.394840
C60	C	1.136010	0.590717	0.728173
C61	C	0.530490	0.000105	0.029240
C62	C	0.863823	0.333439	0.362573
C63	C	1.197157	0.666772	0.695907
C64	C	0.314455	0.000080	0.092337
C65	C	0.647788	0.333413	0.425670
C66	C	0.981121	0.666746	0.759004
C67	C	0.669342	0.000060	0.097561
C68	C	1.002676	0.333393	0.430895
C69	C	1.336009	0.666726	0.764228
C70	C	0.932048	-0.469060	0.144267
C71	C	1.265381	-0.135727	0.477601
C72	C	1.598715	0.197606	0.810934
C73	C	1.007898	-0.530857	0.157741
C74	C	1.341231	-0.197524	0.491074
C75	C	1.674565	0.135809	0.824407
C76	C	0.991898	-0.408574	0.094956
C77	C	1.325232	-0.075241	0.428289
C78	C	1.658565	0.258092	0.761623
C79	C	0.916068	-0.530871	0.081499
C80	C	1.249401	-0.197538	0.414832
C81	C	1.582734	0.135795	0.748166
C82	C	0.991911	-0.591296	0.094942
C83	C	1.325245	-0.257962	0.428275
C84	C	1.658578	0.075371	0.761608
C85	C	1.067786	-0.469010	0.108461
C86	C	1.401120	-0.135677	0.441794
C87	C	1.734453	0.197656	0.775127
C88	C	0.975906	-0.469019	0.032192
C89	C	1.309240	-0.135686	0.365525
C90	C	1.642573	0.197648	0.698859
C91	C	1.051811	-0.530788	0.045638
C92	C	1.385145	-0.197455	0.378972
C93	C	1.718478	0.135879	0.712305
C94	C	0.991890	-0.303313	0.094966
C95	C	1.325223	0.030020	0.428300
C96	C	1.658556	0.363353	0.761633
C97	C	0.991929	-0.696555	0.094931
C98	C	1.325262	-0.363221	0.428264
C99	C	1.658595	-0.029888	0.761598
C100	C	1.145494	0.000070	0.089863
C101	C	1.478828	0.333403	0.423197
C102	C	1.812161	0.666737	0.756530
C103	C	1.238737	0.000080	0.091223
C104	C	1.572071	0.333414	0.424557
C105	C	1.905404	0.666747	0.757890
C106	C	0.998515	0.000041	-0.032040
C107	C	1.331848	0.333374	0.301293
C108	C	1.665182	0.666708	0.634627
C109	C	0.997150	0.000033	-0.109147
C110	C	1.330483	0.333366	0.224187
C111	C	1.663816	0.666699	0.557520
N112	N	0.991933	0.219537	0.094923
N113	N	1.325267	0.552870	0.428256
N114	N	1.658600	0.886203	0.761590
C115	C	1.073056	0.000031	-0.153655
C116	C	1.406390	0.333364	0.179679
C117	C	1.739723	0.666698	0.513012
C118	C	1.071774	0.000046	-0.226105
C119	C	1.405107	0.333379	0.107228
C120	C	1.738440	0.666712	0.440562
C121	C	0.994580	0.000043	-0.254044
C122	C	1.327913	0.333377	0.079289
C123	C	1.661247	0.666710	0.412623
C124	C	0.918663	0.000050	-0.209526
C125	C	1.251997	0.333384	0.123807
C126	C	1.585330	0.666717	0.457140
C127	C	0.919948	0.000045	-0.137078
C128	C	1.253282	0.333378	0.196256
C129	C	1.586615	0.666712	0.529589
C130	C	0.933889	-0.053980	-0.362476
C131	C	1.267223	0.279353	-0.029143
C132	C	1.600556	0.612687	0.304190
C133	C	0.932608	-0.053980	-0.434924
C134	C	1.265941	0.279353	-0.101591
C135	C	1.599274	0.612686	0.231743
C136	C	0.990614	0.000064	-0.477500
C137	C	1.323947	0.333397	-0.144166
C138	C	1.657280	0.666731	0.189167
C139	C	1.049916	0.054097	-0.447620
C140	C	1.383249	0.387430	-0.114287
C141	C	1.716583	0.720763	0.219047
C142	C	1.051201	0.054092	-0.375171
C143	C	1.384534	0.387425	-0.041838
C144	C	1.717868	0.720758	0.291495
C145	C	0.993178	0.000050	-0.332602
C146	C	1.326512	0.333383	0.000732
C147	C	1.659845	0.666716	0.334065
C148	C	1.065135	0.000079	-0.600567
C149	C	1.398468	0.333413	-0.267234
C150	C	1.731801	0.666746	0.066100
C151	C	1.063849	0.000100	-0.673018
C152	C	1.397182	0.333433	-0.339685
C153	C	1.730516	0.666766	-0.006352
C154	C	0.910737	0.000095	-0.656438
C155	C	1.244070	0.333429	-0.323104
C156	C	1.577403	0.666762	0.010229
C157	C	0.912025	0.000084	-0.583988
C158	C	1.245358	0.333418	-0.250655
C159	C	1.578691	0.666751	0.082679
C160	C	0.989226	0.000072	-0.556057
C161	C	1.322559	0.333405	-0.222724
C162	C	1.655893	0.666739	0.110609
C163	C	0.985289	0.000085	0.221941
C164	C	1.318623	0.333418	0.555274
C165	C	1.651956	0.666751	0.888608
C166	C	0.986655	0.000099	0.299048
C167	C	1.319988	0.333432	0.632381
C168	C	1.653321	0.666766	0.965715
H169	H	0.419748	0.000160	0.216165
H170	H	0.753082	0.333494	0.549498
H171	H	1.086415	0.666827	0.882832
O172	O	0.871323	-0.112282	-0.316562
O173	O	1.204656	0.221051	0.016771
O174	O	1.537989	0.554385	0.350104
H175	H	0.882173	-0.103204	-0.261165
H176	H	1.215507	0.230129	0.072169
H177	H	1.548840	0.563462	0.405502
O178	O	1.156324	0.000043	-0.123534
O179	O	1.489657	0.333376	0.209799
O180	O	1.822991	0.666710	0.543132
H181	H	1.192785	-0.062807	-0.141421
H182	H	1.526118	0.270526	0.191913
H183	H	1.859451	0.603859	0.525246
H184	H	0.563881	0.000136	-0.026334
H185	H	0.897215	0.333469	0.306999
H186	H	1.230548	0.666802	0.640332
H187	H	1.021436	-0.558019	0.210812
H188	H	1.354770	-0.224686	0.544146
H189	H	1.688103	0.108648	0.877479
O190	O	1.152760	-0.433182	0.123618
O191	O	1.486093	-0.099849	0.456951
O192	O	1.819426	0.233485	0.790284
H193	H	1.152076	-0.356221	0.123533
H194	H	1.485409	-0.022888	0.456866
H195	H	1.818742	0.310445	0.790199
H196	H	0.847884	0.000098	-0.679185
H197	H	1.181217	0.333431	-0.345851
H198	H	1.514551	0.666765	-0.012518
O199	O	0.540942	0.161275	0.165897
O200	O	0.874276	0.494608	0.499231
O201	O	1.207609	0.827941	0.832564
H202	H	0.585111	0.203059	0.129694
H203	H	0.918445	0.536392	0.463027
H204	H	1.251778	0.869726	0.796360
H205	H	1.102485	-0.557721	0.003929
H206	H	1.435819	-0.224388	0.337262
H207	H	1.769152	0.108945	0.670596
O208	O	0.443089	0.161422	0.024042
O209	O	0.776423	0.494755	0.357376
O210	O	1.109756	0.828088	0.690709
H211	H	0.373584	0.160776	0.023334
H212	H	0.706917	0.494110	0.356667
H213	H	1.040250	0.827443	0.690000
O214	O	0.868654	-0.112261	-0.467151
O215	O	1.201988	0.221073	-0.133817
O216	O	1.535321	0.554406	0.199516
H217	H	0.803992	-0.090011	-0.446224
H218	H	1.137326	0.243323	-0.112890
H219	H	1.470659	0.576656	0.220443
O220	O	0.442816	-0.161109	0.024060
O221	O	0.776149	0.172225	0.357393
O222	O	1.109483	0.505558	0.690727
H223	H	0.460634	-0.224137	0.051946
H224	H	0.793968	0.109197	0.385280
H225	H	1.127301	0.442530	0.718613
H226	H	0.534378	-0.140219	0.156736
H227	H	0.867712	0.193114	0.490070
H228	H	1.201045	0.526447	0.823403
O229	O	0.865073	-0.433144	0.199542
O230	O	1.198407	-0.099810	0.532875
O231	O	1.531740	0.233523	0.866209
H232	H	0.878563	-0.457911	0.251586
H233	H	1.211896	-0.124577	0.584920
H234	H	1.545229	0.208756	0.918253
O235	O	1.145726	0.000089	-0.721025
O236	O	1.479060	0.333422	-0.387692
O237	O	1.812393	0.666756	-0.054359
H238	H	1.182703	0.062937	-0.711087
H239	H	1.516036	0.396270	-0.377754
H240	H	1.849370	0.729603	-0.044420
O241	O	0.957948	-0.432998	-0.038084
O242	O	1.291281	-0.099665	0.295249
O243	O	1.624614	0.233668	0.628582
H244	H	0.894929	-0.457728	-0.049130
H245	H	1.228263	-0.124395	0.284203
H246	H	1.561596	0.208939	0.617537
H247	H	0.851934	-0.558046	0.070124
H248	H	1.185267	-0.224713	0.403457
H249	H	1.518601	0.108620	0.736790
H250	H	0.850213	0.000080	-0.547748
H251	H	1.183546	0.333414	-0.214415
H252	H	1.516880	0.666747	0.118918
O253	O	1.153646	0.000031	-0.274124
O254	O	1.486980	0.333365	0.059209
O255	O	1.820313	0.666698	0.392542
H256	H	1.207544	0.000014	-0.242530
H257	H	1.540877	0.333348	0.090803
H258	H	1.874211	0.666681	0.424136
O259	O	1.115144	0.112379	-0.342939
O260	O	1.448477	0.445712	-0.009605
O261	O	1.781811	0.779046	0.323728
H262	H	1.155261	0.149971	-0.384709
H263	H	1.488595	0.483304	-0.051376
H264	H	1.821928	0.816637	0.281957
O265	O	1.148400	0.000085	-0.570439
O266	O	1.481733	0.333418	-0.237105
O267	O	1.815067	0.666751	0.096228
H268	H	1.152648	-0.062782	-0.537837
H269	H	1.485981	0.270552	-0.204504
H270	H	1.819315	0.603885	0.128829
H271	H	1.097150	0.098105	-0.482284
H272	H	1.430483	0.431439	-0.148950
H273	H	1.763817	0.764772	0.184383
O274	O	0.835401	0.000037	-0.239654
O275	O	1.168735	0.333371	0.093680
O276	O	1.502068	0.666704	0.427013
H277	H	0.847260	0.000028	-0.297510
H278	H	1.180593	0.333361	0.035823
H279	H	1.513926	0.666695	0.369157
O280	O	0.838075	0.000031	-0.089065
O281	O	1.171408	0.333364	0.244268
O282	O	1.504742	0.666698	0.577602
H283	H	0.784179	0.000025	-0.120661
H284	H	1.117512	0.333358	0.212672
H285	H	1.450846	0.666692	0.546006
