data_functionalizedCrystal
_audit_creation_method	'MofGen! by Chris Wilmer'
_symmetry_space_group_name_H-M	'P1'
_symmetry_Int_Tables_number	1
_symmetry_cell_setting	triclinic
loop_
_symmetry_equiv_pos_as_xyz
  x,y,z
_cell_length_a	8.597340
_cell_length_b	14.853559
_cell_length_c	13.330367
_cell_angle_alpha	90.000546
_cell_angle_beta	97.697038
_cell_angle_gamma	84.487308
loop_
_atom_site_label
_atom_site_type_symbol
_atom_site_fract_x
_atom_site_fract_y
_atom_site_fract_z
O1	O	2.082684	0.134565	0.096602
O2	O	1.625781	0.144887	0.057107
O3	O	1.866444	0.008595	0.077911
O4	O	1.842021	0.270858	0.075798
O5	O	1.866419	0.008599	0.244756
O6	O	1.625756	0.144891	0.223952
O7	O	2.082659	0.134569	0.263447
Cu8	Cu	1.854205	0.139730	0.258934
Cu9	Cu	1.854235	0.139726	0.061621
O10	O	1.841996	0.270861	0.242643
C11	C	1.567296	0.143780	0.135476
C12	C	1.393066	0.140465	0.120415
C13	C	1.865327	-0.025001	0.161237
C14	C	1.862019	-0.125112	0.160945
C15	C	1.847994	-0.548403	0.068784
C16	C	1.847967	-0.548393	0.250685
C17	C	1.851089	-0.454335	0.250956
C18	C	1.852661	-0.407306	0.160139
C19	C	1.851112	-0.454335	0.069052
C20	C	1.852623	-0.407297	0.342040
C21	C	1.855743	-0.313233	0.342314
C22	C	1.857327	-0.266203	0.251498
C23	C	1.855779	-0.313238	0.160407
C24	C	1.857351	-0.266209	0.069590
C25	C	1.855815	-0.313244	-0.021501
C26	C	1.852695	-0.407305	-0.021765
C27	C	1.860446	-0.172141	0.251762
C28	C	1.860469	-0.172141	0.069858
C29	C	2.141144	0.135676	0.185077
C30	C	2.315375	0.138991	0.200131
C31	C	1.843113	0.304457	0.159316
C32	C	1.846422	0.404568	0.159601
N33	N	1.854196	0.139733	0.397715
N34	N	1.854256	0.139716	-0.077159
C35	C	1.747616	0.200065	0.441027
C36	C	1.960786	0.079398	0.459432
C37	C	1.960802	0.079395	0.564451
C38	C	1.854222	0.139726	0.607763
C39	C	1.747625	0.200061	0.546056
C40	C	2.067385	0.019055	0.626166
C41	C	2.067404	0.019049	0.731192
C42	C	1.960830	0.079385	0.774507
C43	C	1.854231	0.139723	0.712792
C44	C	1.747651	0.200054	0.756104
C45	C	1.641058	0.260397	0.694392
C46	C	1.641051	0.260398	0.589370
C47	C	1.960837	0.079385	0.879529
C48	C	1.747660	0.200051	0.861133
H49	H	1.861757	-0.133858	-0.004097
H50	H	1.851334	-0.445594	0.415977
H51	H	1.857000	-0.274945	0.416487
C52	C	2.184664	-0.047316	0.799067
H53	H	2.248144	-0.083241	0.758230
H54	H	2.128146	-0.085362	0.835162
H55	H	2.250072	-0.014278	0.845677
H56	H	2.047616	0.030250	0.929769
C57	C	2.078013	0.013036	0.411795
H58	H	2.141492	-0.022901	0.463589
H59	H	2.143402	0.046064	0.376469
H60	H	2.021461	-0.025012	0.365947
C61	C	1.405574	0.140710	0.307901
H62	H	1.514770	0.142792	0.304230
H63	H	1.390663	0.087769	0.344007
H64	H	1.366957	0.192646	0.341949
H65	H	2.154153	-0.030069	0.590897
C66	C	1.523789	0.326739	0.742035
H67	H	1.460287	0.362669	0.690245
H68	H	1.580295	0.364783	0.787904
H69	H	1.458403	0.293680	0.777339
C70	C	1.302865	0.138753	0.012637
H71	H	1.374969	0.140118	-0.035352
H72	H	1.227143	0.189975	0.002362
H73	H	1.250853	0.085097	0.004406
C74	C	1.857547	-0.261506	-0.121393
H75	H	1.859629	-0.198751	-0.108180
H76	H	1.765600	-0.270851	-0.166718
H77	H	1.948510	-0.282987	-0.150896
C78	C	1.630368	0.266434	0.373151
H79	H	1.645616	0.257796	0.304398
H80	H	1.647537	0.326759	0.391852
H81	H	1.525606	0.255678	0.381316
C82	C	1.862133	-0.120407	0.351948
H83	H	1.860752	-0.161887	0.405996
H84	H	1.771902	-0.077639	0.347924
H85	H	1.954812	-0.089788	0.363743
H86	H	1.851443	-0.445609	-0.095927
H87	H	1.846749	-0.586703	-0.005379
H88	H	1.554266	0.309526	0.539118
C89	C	1.846243	-0.600123	0.350575
H90	H	1.844174	-0.662879	0.337371
H91	H	1.755307	-0.578636	0.380092
H92	H	1.938216	-0.590780	0.395888
C93	C	1.630398	0.266404	0.908767
H94	H	1.566907	0.302331	0.856969
H95	H	1.686912	0.304450	0.954630
H96	H	1.565001	0.233357	0.944074
