data_functionalizedCrystal
_audit_creation_method	'MofGen! by Chris Wilmer'
_symmetry_space_group_name_H-M	'P1'
_symmetry_Int_Tables_number	1
_symmetry_cell_setting	triclinic
loop_
_symmetry_equiv_pos_as_xyz
  x,y,z
_cell_length_a	10.654556
_cell_length_b	12.837942
_cell_length_c	9.130313
_cell_angle_alpha	89.996012
_cell_angle_beta	89.998135
_cell_angle_gamma	89.658239
loop_
_atom_site_label
_atom_site_type_symbol
_atom_site_fract_x
_atom_site_fract_y
_atom_site_fract_z
O1	O	1.683740	0.145755	-0.121743
O2	O	2.183740	0.645755	0.378257
O3	O	1.319777	0.159631	-0.121758
O4	O	1.819777	0.659631	0.378242
O5	O	1.493688	0.001732	-0.121742
O6	O	1.993688	0.501732	0.378258
O7	O	1.509829	0.303654	-0.121759
O8	O	2.009829	0.803654	0.378241
O9	O	1.493674	0.001727	0.121857
O10	O	1.993674	0.501727	0.621857
O11	O	1.319763	0.159627	0.121841
O12	O	1.819763	0.659627	0.621841
O13	O	1.683726	0.145750	0.121856
O14	O	2.183726	0.645750	0.621856
Cu15	Cu	1.501744	0.152688	0.144091
Cu16	Cu	2.001744	0.652688	0.644091
Cu17	Cu	1.501760	0.152693	-0.143993
Cu18	Cu	2.001760	0.652693	0.356007
O19	O	1.509815	0.303649	0.121840
O20	O	2.009815	0.803649	0.621840
C21	C	1.272861	0.158609	0.000040
C22	C	1.772861	0.658609	0.500040
C23	C	1.133085	0.155556	0.000034
C24	C	1.633085	0.655556	0.500034
C25	C	0.936078	0.151261	-0.132740
C26	C	1.436078	0.651261	0.367260
C27	C	1.067413	0.154123	-0.132749
C28	C	1.567413	0.654123	0.367251
C29	C	1.067416	0.154117	0.132836
C30	C	1.567416	0.654117	0.632836
C31	C	0.936084	0.151248	0.132843
C32	C	1.436084	0.651248	0.632843
C33	C	1.488229	-0.036930	0.000057
C34	C	1.988229	0.463070	0.500057
C35	C	1.471966	-0.152124	0.000054
C36	C	1.971966	0.347876	0.500054
C37	C	1.667470	-0.391674	0.000031
C38	C	2.167470	0.108326	0.500031
C39	C	1.652196	-0.499909	0.000028
C40	C	2.152196	0.000091	0.500028
C41	C	1.426145	-0.476834	0.000034
C42	C	1.926145	0.023166	0.500034
C43	C	1.441419	-0.368598	0.000037
C44	C	1.941419	0.131402	0.500037
C45	C	1.562086	-0.326022	0.000038
C46	C	2.062086	0.173978	0.500038
C47	C	1.577359	-0.217784	0.000051
C48	C	2.077359	0.282216	0.500051
C49	C	1.351308	-0.194711	0.000047
C50	C	1.851308	0.305289	0.500047
C51	C	1.336034	-0.302947	0.000044
C52	C	1.836034	0.197053	0.500044
C53	C	1.730642	0.146773	0.000055
C54	C	2.230642	0.646773	0.500055
C55	C	1.870418	0.149825	0.000051
C56	C	2.370418	0.649825	0.500051
C57	C	1.515275	0.342312	0.000038
C58	C	2.015275	0.842312	0.500038
C59	C	1.531537	0.457506	0.000032
C60	C	2.031537	0.957506	0.500032
N61	N	1.501741	0.152684	0.346714
N62	N	2.001741	0.652684	0.846714
N63	N	1.501771	0.152690	-0.346615
N64	N	2.001771	0.652690	0.153385
C65	C	1.578781	0.082795	0.423373
C66	C	2.078781	0.582795	0.923373
C67	C	1.578793	0.082796	0.576710
C68	C	2.078793	0.582796	1.076710
C69	C	1.424722	0.222581	0.576715
C70	C	1.924722	0.722581	1.076715
C71	C	1.424705	0.222575	0.423381
C72	C	1.924705	0.722575	0.923381
H73	H	1.120897	0.155278	0.240950
H74	H	1.620897	0.655278	0.740950
H75	H	1.362003	0.279487	0.639153
H76	H	1.862003	0.779487	1.139153
Cl77	Cl	0.853531	0.149466	-0.299678
Cl78	Cl	1.353531	0.649466	0.200322
Cl79	Cl	1.149951	0.155923	-0.299695
Cl80	Cl	1.649951	0.655923	0.200305
Cl81	Cl	1.784686	-0.582440	0.000015
Cl82	Cl	2.284686	-0.082440	0.500015
Cl83	Cl	0.853535	0.149441	0.299795
Cl84	Cl	1.353535	0.649441	0.799795
Cl85	Cl	1.675622	-0.005072	0.326998
Cl86	Cl	2.175622	0.494928	0.826998
H87	H	1.675611	-0.183121	0.000058
H88	H	2.175611	0.316879	0.500058
Cl89	Cl	1.819160	-0.338145	0.000069
Cl90	Cl	2.319160	0.161855	0.500069
H91	H	1.327903	-0.511519	0.000018
H92	H	1.827903	-0.011519	0.500018
H93	H	1.237790	-0.337628	0.000038
H94	H	1.737790	0.162372	0.500038
Cl95	Cl	1.327840	0.310436	0.327000
Cl96	Cl	1.827840	0.810436	0.827000
Cl97	Cl	1.675645	-0.005069	0.673077
Cl98	Cl	2.175645	0.494931	1.173077
Cl99	Cl	1.218817	-0.112171	0.000074
Cl100	Cl	1.718817	0.387829	0.500074
