data_functionalizedCrystal
_audit_creation_method	'MofGen! by Chris Wilmer'
_symmetry_space_group_name_H-M	'P1'
_symmetry_Int_Tables_number	1
_symmetry_cell_setting	triclinic
loop_
_symmetry_equiv_pos_as_xyz
  x,y,z
_cell_length_a	18.101398
_cell_length_b	18.101397
_cell_length_c	18.101380
_cell_angle_alpha	90.087478
_cell_angle_beta	89.934607
_cell_angle_gamma	89.981008
loop_
_atom_site_label
_atom_site_type_symbol
_atom_site_fract_x
_atom_site_fract_y
_atom_site_fract_z
Zn1	Zn	1.132459	0.294522	-0.418821
Zn2	Zn	1.465793	0.627856	-0.085488
Zn3	Zn	1.799126	0.961189	0.247846
Zn4	Zn	1.132282	0.418489	-0.294971
Zn5	Zn	1.465616	0.751823	0.038362
Zn6	Zn	1.798949	1.085156	0.371695
Zn7	Zn	1.008529	0.294656	-0.294982
Zn8	Zn	1.341863	0.627989	0.038351
Zn9	Zn	1.675196	0.961323	0.371685
Zn10	Zn	1.008585	0.418316	-0.418760
Zn11	Zn	1.341918	0.751650	-0.085427
Zn12	Zn	1.675252	1.084983	0.247906
O13	O	1.070464	0.356496	-0.356884
O14	O	1.403797	0.689829	-0.023550
O15	O	1.737131	1.023163	0.309783
O16	O	1.236069	0.310983	-0.402413
O17	O	1.569402	0.644317	-0.069080
O18	O	1.902735	0.977650	0.264254
O19	O	1.115769	0.402191	-0.191340
O20	O	1.449102	0.735524	0.141994
O21	O	1.782436	1.068858	0.475327
O22	O	1.025020	0.191005	-0.311439
O23	O	1.358353	0.524339	0.021894
O24	O	1.691687	0.857672	0.355227
O25	O	1.235939	0.402061	-0.311421
O26	O	1.569272	0.735395	0.021912
O27	O	1.902605	1.068728	0.355245
O28	O	1.116071	0.190907	-0.402423
O29	O	1.449404	0.524240	-0.069090
O30	O	1.782737	0.857574	0.264243
O31	O	1.024848	0.311211	-0.191347
O32	O	1.358182	0.644545	0.141986
O33	O	1.691515	0.977878	0.475319
O34	O	0.904904	0.311043	-0.311380
O35	O	1.238237	0.644377	0.021953
O36	O	1.571571	0.977710	0.355286
O37	O	1.025114	0.401766	-0.522402
O38	O	1.358448	0.735100	-0.189068
O39	O	1.691781	1.068433	0.144265
O40	O	0.904945	0.401896	-0.402320
O41	O	1.238278	0.735229	-0.068986
O42	O	1.571611	1.068563	0.264347
O43	O	1.116124	0.310815	-0.522446
O44	O	1.449458	0.644149	-0.189113
O45	O	1.782791	0.977482	0.144221
O46	O	1.115823	0.522099	-0.311362
O47	O	1.449156	0.855433	0.021971
O48	O	1.782489	1.188766	0.355304
O49	O	1.024943	0.521972	-0.402310
O50	O	1.358276	0.855305	-0.068976
O51	O	1.691609	1.188639	0.264357
C52	C	1.070390	0.548907	-0.356844
C53	C	1.403723	0.882240	-0.023511
C54	C	1.737056	1.215573	0.309822
C55	C	1.070426	0.631221	-0.356852
C56	C	1.403759	0.964554	-0.023519
C57	C	1.737092	1.297887	0.309814
C58	C	0.878053	0.356466	-0.356845
C59	C	1.211387	0.689799	-0.023512
C60	C	1.544720	1.023133	0.309822
C61	C	0.795739	0.356471	-0.356846
C62	C	1.129073	0.689804	-0.023513
C63	C	1.462406	1.023138	0.309821
C64	C	1.070460	0.781929	-0.356868
C65	C	1.403794	1.115262	-0.023535
C66	C	1.737127	1.448596	0.309799
C67	C	1.127694	0.813332	-0.299700
C68	C	1.461027	1.146665	0.033633
C69	C	1.794360	1.479998	0.366967
C70	C	1.127545	0.898950	-0.299484
C71	C	1.460879	1.232284	0.033849
C72	C	1.794212	1.565617	0.367182
C73	C	1.070495	0.930312	-0.356883
C74	C	1.403829	1.263645	-0.023550
C75	C	1.737162	1.596978	0.309783
C76	C	0.992381	0.899309	-0.335871
C77	C	1.325714	1.232642	-0.002538
C78	C	1.659047	1.565976	0.330796
C79	C	0.992691	0.813665	-0.335447
C80	C	1.326025	1.146998	-0.002114
C81	C	1.659358	1.480331	0.331220
C82	C	1.090666	0.813349	-0.435195
C83	C	1.424000	1.146682	-0.101862
C84	C	1.757333	1.480016	0.231472
C85	C	1.092408	0.898999	-0.434787
C86	C	1.425742	1.232333	-0.101453
C87	C	1.759075	1.565666	0.231880
C88	C	1.070511	1.014171	-0.356893
C89	C	1.403844	1.347504	-0.023560
C90	C	1.737177	1.680838	0.309774
C91	C	1.070440	0.698070	-0.356856
C92	C	1.403773	1.031403	-0.023523
C93	C	1.737106	1.364736	0.309810
C94	C	0.496648	0.356517	-0.356908
C95	C	0.829982	0.689850	-0.023575
C96	C	1.163315	1.023184	0.309758
C97	C	0.527923	0.299069	-0.299971
C98	C	0.861257	0.632402	0.033362
C99	C	1.194590	0.965735	0.366696
C100	C	0.613541	0.299223	-0.299728
C101	C	0.946875	0.632557	0.033605
C102	C	1.280208	0.965890	0.366939
C103	C	0.645031	0.356494	-0.356877
C104	C	0.978364	0.689827	-0.023544
C105	C	1.311698	1.023160	0.309789
C106	C	0.613908	0.434526	-0.335548
C107	C	0.947241	0.767859	-0.002215
C108	C	1.280574	1.101193	0.331119
C109	C	0.528262	0.434207	-0.335152
C110	C	0.861595	0.767540	-0.001819
C111	C	1.194929	1.100873	0.331515
C112	C	0.528317	0.336611	-0.435309
C113	C	0.861650	0.669944	-0.101976
C114	C	1.194983	1.003278	0.231358
C115	C	0.613967	0.334874	-0.434881
C116	C	0.947300	0.668208	-0.101548
C117	C	1.280634	1.001541	0.231785
C118	C	0.728890	0.356485	-0.356861
C119	C	1.062224	0.689818	-0.023528
C120	C	1.395557	1.023152	0.309805
C121	C	0.412789	0.356531	-0.356923
C122	C	0.746122	0.689864	-0.023589
C123	C	1.079456	1.023198	0.309744
C124	C	1.263626	0.356527	-0.356923
C125	C	1.596959	0.689860	-0.023590
C126	C	1.930293	1.023193	0.309744
C127	C	1.345940	0.356540	-0.356940
C128	C	1.679273	0.689873	-0.023606
C129	C	2.012607	1.023206	0.309727
C130	C	1.070645	0.356257	-0.550046
C131	C	1.403979	0.689590	-0.216713
C132	C	1.737312	1.022923	0.116621
C133	C	1.070723	0.356155	-0.632360
C134	C	1.404056	0.689488	-0.299027
C135	C	1.737389	1.022821	0.034306
C136	C	1.070541	1.163334	-0.356923
C137	C	1.403875	1.496667	-0.023590
C138	C	1.737208	1.830001	0.309744
C139	C	1.070530	1.081020	-0.356899
C140	C	1.403863	1.414353	-0.023565
C141	C	1.737197	1.747687	0.309768
C142	C	1.070326	0.356681	-0.164473
C143	C	1.403659	0.690014	0.168861
C144	C	1.736993	1.023348	0.502194
C145	C	1.070392	0.356574	-0.082159
C146	C	1.403726	0.689908	0.251174
C147	C	1.737059	1.023241	0.584508
C148	C	1.070612	0.356295	0.216931
C149	C	1.403946	0.689629	0.550265
C150	C	1.737279	1.022962	0.883598
C151	C	1.012779	0.299697	0.185559
C152	C	1.346112	0.633031	0.518892
C153	C	1.679445	0.966364	0.852226
C154	C	1.012882	0.299551	0.099940
C155	C	1.346215	0.632885	0.433273
C156	C	1.679549	0.966218	0.766607
C157	C	1.070502	0.356434	0.068549
C158	C	1.403836	0.689767	0.401883
C159	C	1.737169	1.023100	0.735216
C160	C	1.148414	0.334659	0.099430
C161	C	1.481747	0.667992	0.432764
C162	C	1.815081	1.001325	0.766097
C163	C	1.148142	0.334167	0.185075
C164	C	1.481475	0.667500	0.518408
C165	C	1.814809	1.000833	0.851741
C166	C	1.051195	0.434835	0.185602
C167	C	1.384528	0.768168	0.518935
C168	C	1.717861	1.101502	0.852269
C169	C	1.049405	0.434514	0.099954
C170	C	1.382739	0.767847	0.433287
C171	C	1.716072	1.101181	0.766621
C172	C	1.070445	0.356513	-0.015310
C173	C	1.403779	0.689847	0.318023
C174	C	1.737112	1.023180	0.651357
C175	C	1.070675	0.356214	0.300791
C176	C	1.404008	0.689547	0.634124
C177	C	1.737341	1.022881	0.967457
H178	H	1.185461	0.919911	-0.312610
H179	H	1.518794	1.253244	0.020724
H180	H	1.852127	1.586577	0.354057
H181	H	1.192615	0.374622	0.079093
H182	H	1.525948	0.707955	0.412426
H183	H	1.859281	1.041288	0.745759
F184	F	0.499693	0.316071	-0.224481
F185	F	0.833026	0.649404	0.108852
F186	F	1.166360	0.982737	0.442186
H187	H	1.192680	0.373556	0.205822
H188	H	1.526013	0.706889	0.539155
H189	H	1.859347	1.040223	0.872488
F190	F	0.641989	0.385574	-0.493304
F191	F	0.975322	0.718907	-0.159971
F192	F	1.308656	1.052241	0.173362
F193	F	0.501887	0.391301	-0.490761
F194	F	0.835220	0.724634	-0.157427
F195	F	1.168554	1.057967	0.175906
F196	F	1.170354	0.260468	0.071165
F197	F	1.503688	0.593801	0.404498
F198	F	1.837021	0.927134	0.737832
H199	H	0.955094	0.313248	0.079068
H200	H	1.288428	0.646581	0.412401
H201	H	1.621761	0.979914	0.745734
F202	F	1.110400	0.785342	-0.224272
F203	F	1.443734	1.118675	0.109061
F204	F	1.777067	1.452009	0.442395
F205	F	1.029316	0.224086	0.213458
F206	F	1.362650	0.557419	0.546792
F207	F	1.695983	0.890752	0.880125
H208	H	0.633955	0.312389	-0.241634
H209	H	0.967288	0.645722	0.091700
H210	H	1.300622	0.979055	0.425033
F211	F	0.974470	0.455963	0.073593
F212	F	1.307803	0.789296	0.406927
F213	F	1.641137	1.122630	0.740260
F214	F	1.110049	0.925875	-0.223632
F215	F	1.443382	1.259208	0.109702
F216	F	1.776716	1.592542	0.443035
H217	H	0.954838	0.313202	0.206298
H218	H	1.288172	0.646535	0.539631
H219	H	1.621505	0.979869	0.872964
F220	F	1.167544	0.925482	-0.455507
F221	F	1.500877	1.258815	-0.122174
F222	F	1.834211	1.592149	0.211159
F223	F	1.163848	0.785040	-0.460224
F224	F	1.497181	1.118373	-0.126890
F225	F	1.830515	1.451706	0.206443
F226	F	1.203619	0.786341	-0.316656
F227	F	1.536952	1.119675	0.016678
F228	F	1.870286	1.453008	0.350011
F229	F	1.029754	0.223597	0.072931
F230	F	1.363087	0.556930	0.406264
F231	F	1.696421	0.890264	0.739597
H232	H	0.507574	0.478463	-0.374814
H233	H	0.840908	0.811797	-0.041481
H234	H	1.174241	1.145130	0.291853
H235	H	0.948582	0.919621	-0.376233
H236	H	1.281915	1.252954	-0.042900
H237	H	1.615249	1.586288	0.290433
H238	H	0.975600	0.793797	-0.278197
H239	H	1.308933	1.127131	0.055137
H240	H	1.642266	1.460464	0.388470
F241	F	1.100460	0.492702	0.072042
F242	F	1.433793	0.826035	0.405375
F243	F	1.767127	1.159369	0.738709
F244	F	0.641845	0.456961	-0.261441
F245	F	0.975178	0.790295	0.071892
F246	F	1.308512	1.123628	0.405225
F247	F	1.169726	0.259108	0.210955
F248	F	1.503059	0.592441	0.544288
F249	F	1.836392	0.925775	0.877621
H250	H	1.053794	0.920338	-0.479652
H251	H	1.387128	1.253671	-0.146319
H252	H	1.720461	1.587004	0.187014
F253	F	0.969666	0.927483	-0.261867
F254	F	1.303000	1.260817	0.071466
F255	F	1.636333	1.594150	0.404800
F256	F	0.978293	0.460536	0.214040
F257	F	1.311626	0.793869	0.547373
F258	F	1.644960	1.127203	0.880706
H259	H	1.093323	0.477014	0.205896
H260	H	1.426657	0.810347	0.539229
H261	H	1.759990	1.143681	0.872562
F262	F	0.935036	0.786510	-0.387515
F263	F	1.268370	1.119843	-0.054181
F264	F	1.601703	1.453176	0.279152
H265	H	0.634315	0.277451	-0.450964
H266	H	0.967648	0.610784	-0.117631
H267	H	1.300982	0.944118	0.215702
H268	H	1.048986	0.793031	-0.477788
H269	H	1.382319	1.126364	-0.144455
H270	H	1.715653	1.459697	0.188879
H271	H	0.508211	0.451079	-0.277837
H272	H	0.841545	0.784412	0.055496
H273	H	1.174878	1.117746	0.388830
H274	H	0.634584	0.241361	-0.313098
H275	H	0.967917	0.574695	0.020235
H276	H	1.301251	0.908028	0.353569
H277	H	0.507355	0.241030	-0.313194
H278	H	0.840688	0.574364	0.020139
H279	H	1.174022	0.907697	0.353473
F280	F	0.640562	0.491977	-0.388060
F281	F	0.973895	0.825310	-0.054726
F282	F	1.307229	1.158644	0.278607
F283	F	0.500132	0.263525	-0.460655
F284	F	0.833465	0.596859	-0.127322
F285	F	1.166799	0.930192	0.206011
