data_functionalizedCrystal
_audit_creation_method	'MofGen! by Chris Wilmer'
_symmetry_space_group_name_H-M	'P1'
_symmetry_Int_Tables_number	1
_symmetry_cell_setting	triclinic
loop_
_symmetry_equiv_pos_as_xyz
  x,y,z
_cell_length_a	6.817900
_cell_length_b	12.200875
_cell_length_c	17.982959
_cell_angle_alpha	94.640534
_cell_angle_beta	102.451857
_cell_angle_gamma	107.143593
loop_
_atom_site_label
_atom_site_type_symbol
_atom_site_fract_x
_atom_site_fract_y
_atom_site_fract_z
V1	V	-4.063264	-0.358141	-0.105586
O2	O	-4.055274	-0.350830	0.004896
O3	O	-4.009540	-0.356165	-0.209188
O4	O	-4.033062	-0.514122	-0.104040
O5	O	-4.031589	-0.191780	-0.100980
V6	V	-4.545224	-0.338185	-0.092362
O7	O	-4.327951	-0.401915	-0.134594
O8	O	-4.730735	-0.294411	-0.063354
O9	O	-4.375743	-0.340160	0.011240
O10	O	-4.670612	-0.345496	-0.202843
O11	O	-4.694297	-0.504546	-0.096968
O12	O	-4.352221	-0.182204	-0.093908
C13	C	-3.852656	-0.350638	-0.234441
C14	C	-3.890138	-0.350063	-0.319137
C15	C	-4.090333	-0.355532	-0.362811
C16	C	-4.125543	-0.354998	-0.442393
C17	C	-3.960550	-0.348987	-0.478299
C18	C	-3.760340	-0.343520	-0.434619
C19	C	-3.725137	-0.344063	-0.355040
C20	C	-3.902305	-0.341335	-0.755554
C21	C	-3.937523	-0.340790	-0.835139
C22	C	-4.302711	-0.352271	-0.842907
C23	C	-4.267508	-0.352813	-0.763328
C24	C	-4.067305	-0.347353	-0.719656
C25	C	-4.029130	-0.347934	-0.633365
C26	C	-3.998718	-0.348397	-0.564587
C27	C	-3.882660	-0.552126	-0.100314
C28	C	-3.939214	-0.679644	-0.099735
C29	C	-4.042716	-0.913114	-0.098677
C30	C	-3.985112	-0.783195	-0.099265
C31	C	-4.195968	-0.345685	0.036490
C32	C	-4.137725	-0.346268	0.121185
C33	C	-4.165964	-0.144194	-0.097636
C34	C	-4.088648	-0.016674	-0.098211
H35	H	-4.401863	-0.357702	-0.734097
O36	O	-4.518657	-0.358171	-0.890014
H37	H	-4.560602	-0.282431	-0.868432
O38	O	-3.509215	-0.338173	-0.307931
H39	H	-3.445609	-0.259570	-0.263307
H40	H	-4.224689	-0.360416	-0.333582
O41	O	-3.759570	-0.334324	-0.873872
H42	H	-3.614448	-0.330634	-0.830137
O43	O	-3.686382	-0.335442	-0.708454
H44	H	-3.577569	-0.331159	-0.746792
O45	O	-3.582385	-0.337052	-0.473344
H46	H	-3.550834	-0.257942	-0.501237
O47	O	-4.341459	-0.360880	-0.489500
H48	H	-4.450263	-0.365130	-0.451161
