data_functionalizedCrystal
_audit_creation_method	'MofGen! by Chris Wilmer'
_symmetry_space_group_name_H-M	'P1'
_symmetry_Int_Tables_number	1
_symmetry_cell_setting	triclinic
loop_
_symmetry_equiv_pos_as_xyz
  x,y,z
_cell_length_a	14.044220
_cell_length_b	10.489741
_cell_length_c	13.101039
_cell_angle_alpha	93.396862
_cell_angle_beta	86.340132
_cell_angle_gamma	88.864026
loop_
_atom_site_label
_atom_site_type_symbol
_atom_site_fract_x
_atom_site_fract_y
_atom_site_fract_z
O1	O	1.264971	0.301301	-0.085104
O2	O	1.764971	0.801301	0.414896
O3	O	0.988928	0.290194	-0.085130
O4	O	1.488928	0.790194	0.414870
O5	O	1.133230	0.110787	-0.085110
O6	O	1.633230	0.610787	0.414890
O7	O	1.120668	0.480707	-0.085124
O8	O	1.620668	0.980707	0.414876
O9	O	1.122877	0.123682	0.085318
O10	O	1.622877	0.623682	0.585318
O11	O	0.978574	0.303089	0.085298
O12	O	1.478574	0.803089	0.585298
O13	O	1.254618	0.314196	0.085324
O14	O	1.754618	0.814196	0.585324
Zn15	Zn	1.114952	0.310690	0.112370
Zn16	Zn	1.614952	0.810690	0.612370
Zn17	Zn	1.128593	0.293700	-0.112176
Zn18	Zn	1.628593	0.793700	0.387824
O19	O	1.110315	0.493603	0.085305
O20	O	1.610315	0.993603	0.585305
C21	C	0.948404	0.291780	0.000081
C22	C	1.448404	0.791780	0.500081
C23	C	0.843079	0.277280	0.000071
C24	C	1.343079	0.777280	0.500071
C25	C	0.650236	0.250773	0.000092
C26	C	1.150236	0.750773	0.500092
C27	C	0.593304	0.353611	0.000093
C28	C	1.093304	0.853611	0.500093
C29	C	0.486000	0.338862	0.000105
C30	C	0.986000	0.838862	0.500105
C31	C	0.757551	0.265520	0.000080
C32	C	1.257551	0.765520	0.500080
C33	C	1.127105	0.069607	0.000103
C34	C	1.627105	0.569607	0.500103
C35	C	1.124266	-0.072311	0.000101
C36	C	1.624266	0.427689	0.500101
C37	C	1.032451	-0.149765	0.000085
C38	C	1.532451	0.350235	0.500085
C39	C	1.070719	-0.231130	0.084119
C40	C	1.570719	0.268870	0.584119
C41	C	1.080948	-0.243816	-0.083910
C42	C	1.580948	0.256184	0.416090
C43	C	1.162568	-0.151801	0.084204
C44	C	1.662568	0.348199	0.584204
C45	C	1.172789	-0.164485	-0.083900
C46	C	1.672789	0.335515	0.416100
C47	C	1.211123	-0.245814	0.000155
C48	C	1.711123	0.254186	0.500155
C49	C	1.295142	0.312609	0.000111
C50	C	1.795142	0.812609	0.500111
C51	C	1.400466	0.327109	0.000114
C52	C	1.900466	0.827109	0.500114
C53	C	1.116441	0.534783	0.000089
C54	C	1.616441	1.034783	0.500089
C55	C	1.119280	0.676700	0.000084
C56	C	1.619280	1.176700	0.500084
N57	N	1.105649	0.322285	0.265618
N58	N	1.605649	0.822285	0.765618
N59	N	1.137903	0.282095	-0.265424
N60	N	1.637903	0.782095	0.234576
C61	C	1.092993	0.338073	0.474659
C62	C	1.592993	0.838073	0.974659
C63	C	1.150557	0.266311	0.525542
C64	C	1.650557	0.766311	1.025542
C65	C	1.143515	0.275096	0.641860
C66	C	1.643515	0.775096	1.141860
C67	C	1.100034	0.329290	0.358331
C68	C	1.600034	0.829290	0.858331
H69	H	0.618389	0.151662	0.000101
H70	H	1.118389	0.651662	0.500101
H71	H	0.956955	-0.107764	0.000162
H72	H	1.456955	0.392236	0.500162
H73	H	0.625153	0.452730	0.000084
H74	H	1.125153	0.952730	0.500084
Br75	Br	1.002042	0.451467	0.547646
Br76	Br	1.502042	0.951467	1.047646
Br77	Br	1.337052	-0.315416	0.000237
Br78	Br	1.837052	0.184584	0.500237
H79	H	1.027554	-0.260706	0.155157
H80	H	1.527554	0.239294	0.655157
H81	H	1.197063	-0.111651	0.155329
H82	H	1.697063	0.388349	0.655329
H83	H	1.205129	0.198277	0.481747
H84	H	1.705129	0.698277	0.981747
H85	H	1.046404	-0.284097	-0.154961
H86	H	1.546404	0.215903	0.345039
H87	H	1.215921	-0.134879	-0.154942
H88	H	1.715921	0.365121	0.345058
