data_functionalizedCrystal
_audit_creation_method	'MofGen! by Chris Wilmer'
_symmetry_space_group_name_H-M	'P1'
_symmetry_Int_Tables_number	1
_symmetry_cell_setting	triclinic
loop_
_symmetry_equiv_pos_as_xyz
  x,y,z
_cell_length_a	8.497374
_cell_length_b	12.759401
_cell_length_c	12.759399
_cell_angle_alpha	89.983359
_cell_angle_beta	89.991562
_cell_angle_gamma	90.001753
loop_
_atom_site_label
_atom_site_type_symbol
_atom_site_fract_x
_atom_site_fract_y
_atom_site_fract_z
Zn1	Zn	0.891958	1.606064	0.418406
Zn2	Zn	0.628160	1.606013	0.594052
Zn3	Zn	0.628185	1.430422	0.418393
Zn4	Zn	0.891892	1.430354	0.594048
O5	O	0.760048	1.518213	0.506225
O6	O	0.856982	1.753079	0.441713
O7	O	0.407401	1.582728	0.570747
O8	O	0.663213	1.453771	0.271373
O9	O	0.663171	1.753041	0.570760
O10	O	0.857005	1.582815	0.271383
O11	O	0.407419	1.453722	0.441691
O12	O	0.663149	1.283392	0.441686
O13	O	1.112663	1.453655	0.570752
O14	O	0.856893	1.283342	0.570739
O15	O	1.112711	1.582749	0.441709
O16	O	0.663107	1.582661	0.741073
O17	O	0.856869	1.453605	0.741069
C18	C	0.760017	1.245246	0.506212
C19	C	0.760041	1.128469	0.506232
C20	C	0.860765	1.073609	0.573532
C21	C	0.860796	0.963885	0.573536
C22	C	0.659366	0.963891	0.438937
C23	C	0.659344	1.073613	0.438928
C24	C	0.760013	1.518149	0.779192
C25	C	0.760050	1.518217	0.895969
C26	C	1.171529	1.518205	0.506226
C27	C	1.350173	1.518208	0.506237
C28	C	0.760081	1.792246	0.506238
C29	C	0.760095	1.909023	0.506244
C30	C	0.760119	1.518307	0.232191
C31	C	0.760149	1.518346	0.115415
C32	C	0.659273	1.585494	0.950797
C33	C	0.659326	1.585561	1.060521
C34	C	0.860938	1.451067	1.060578
C35	C	0.860891	1.451006	0.950856
H36	H	0.577164	1.640223	0.906111
H37	H	0.577323	1.118282	0.384118
H38	H	0.942763	1.118269	0.628332
H39	H	0.577265	1.640346	1.105158
O40	O	0.561602	0.910440	0.373662
C41	C	0.583246	0.801831	0.388080
H42	H	0.634695	0.786833	0.469218
H43	H	0.667434	0.770719	0.325858
C44	C	0.360475	0.763904	0.278623
C45	C	0.423653	0.745482	0.378282
H46	H	0.262033	0.729143	0.272574
H47	H	0.345895	0.837075	0.268905
H48	H	0.430646	0.737976	0.226782
H49	H	0.353491	0.771420	0.430120
H50	H	0.438217	0.672313	0.388007
O51	O	0.958730	1.385808	1.114061
C52	C	0.937188	1.400302	1.222662
H53	H	0.815493	1.434789	1.237652
H54	H	1.030850	1.456213	1.253728
C55	C	1.100990	1.251664	1.260667
C56	C	0.951517	1.294013	1.279079
H57	H	1.109836	1.186102	1.295469
H58	H	1.115509	1.241900	1.187500
H59	H	1.179025	1.298266	1.286555
H60	H	0.873486	1.247417	1.253179
H61	H	0.936985	1.303767	1.352243
O62	O	0.958960	1.385799	0.897542
C63	C	1.060873	1.445526	0.833976
H64	H	1.070739	1.528284	0.866974
H65	H	1.012063	1.449130	0.750832
C66	C	1.212690	1.292463	0.791754
C67	C	1.224818	1.394106	0.832287
H68	H	1.313817	1.260744	0.790707
H69	H	1.144027	1.252223	0.834575
H70	H	1.172009	1.295481	0.722470
H71	H	1.265480	1.391086	0.901573
H72	H	1.293492	1.434345	0.789476
O73	O	0.958687	0.910756	0.639012
C74	C	1.047583	0.982706	0.698389
H75	H	0.982934	1.060910	0.701952
H76	H	1.167497	0.994402	0.660045
C77	C	1.149438	0.843811	0.805858
C78	C	1.070028	0.939860	0.810242
H79	H	1.163290	0.817380	0.874853
H80	H	1.089551	0.795336	0.765853
H81	H	1.249357	0.853570	0.773900
H82	H	0.970104	0.930097	0.842187
H83	H	1.129898	0.988332	0.850255
