data_functionalizedCrystal
_audit_creation_method	'MofGen! by Chris Wilmer'
_symmetry_space_group_name_H-M	'P1'
_symmetry_Int_Tables_number	1
_symmetry_cell_setting	triclinic
loop_
_symmetry_equiv_pos_as_xyz
  x,y,z
_cell_length_a	16.974800
_cell_length_b	19.188930
_cell_length_c	15.455313
_cell_angle_alpha	92.650876
_cell_angle_beta	90.973911
_cell_angle_gamma	83.267966
loop_
_atom_site_label
_atom_site_type_symbol
_atom_site_fract_x
_atom_site_fract_y
_atom_site_fract_z
O1	O	1.048768	0.089002	0.001507
O2	O	1.382102	0.422336	0.334841
O3	O	1.715435	0.755669	0.668174
O4	O	0.819299	0.099665	-0.014610
O5	O	1.152632	0.432998	0.318724
O6	O	1.485966	0.766331	0.652057
O7	O	0.940655	-0.007291	-0.006069
O8	O	1.273988	0.326043	0.327264
O9	O	1.607321	0.659376	0.660597
O10	O	0.927412	0.195957	-0.007033
O11	O	1.260746	0.529291	0.326300
O12	O	1.594079	0.862624	0.659634
O13	O	0.933715	-0.001200	0.137705
O14	O	1.267048	0.332134	0.471038
O15	O	1.600382	0.665467	0.804371
O16	O	0.812359	0.105756	0.129164
O17	O	1.145693	0.439089	0.462497
O18	O	1.479026	0.772422	0.795831
O19	O	1.041829	0.095093	0.145281
O20	O	1.375162	0.428426	0.478614
O21	O	1.708495	0.761760	0.811948
Cu22	Cu	0.926460	0.100980	0.150350
Cu23	Cu	1.259794	0.434314	0.483684
Cu24	Cu	1.593127	0.767647	0.817017
Cu25	Cu	0.934667	0.093777	-0.019679
Cu26	Cu	1.268001	0.427111	0.313654
Cu27	Cu	1.601334	0.760444	0.646988
O28	O	0.920473	0.202048	0.136741
O29	O	1.253806	0.535382	0.470074
O30	O	1.587139	0.868715	0.803407
C31	C	0.786472	0.102193	0.055215
C32	C	1.119805	0.435526	0.388549
C33	C	1.453138	0.768860	0.721882
C34	C	0.698995	0.100644	0.049072
C35	C	1.032329	0.433977	0.382406
C36	C	1.365662	0.767310	0.715739
C37	C	0.654121	0.103234	0.124559
C38	C	0.987454	0.436568	0.457893
C39	C	1.320787	0.769901	0.791226
C40	C	0.571929	0.101768	0.118789
C41	C	0.905262	0.435101	0.452123
C42	C	1.238596	0.768434	0.785456
C43	C	0.534613	0.097715	0.037532
C44	C	0.867946	0.431048	0.370865
C45	C	1.201279	0.764382	0.704199
C46	C	0.579494	0.095122	-0.037961
C47	C	0.912827	0.428456	0.295373
C48	C	1.246160	0.761789	0.628706
C49	C	0.661685	0.096584	-0.032190
C50	C	0.995018	0.429917	0.301143
C51	C	1.328351	0.763251	0.634477
C52	C	0.289205	0.092983	0.011870
C53	C	0.622538	0.426316	0.345203
C54	C	0.955871	0.759649	0.678536
C55	C	0.207007	0.091523	0.006105
C56	C	0.540341	0.424856	0.339438
C57	C	0.873674	0.758190	0.672771
C58	C	0.199448	0.098167	0.162856
C59	C	0.532782	0.431501	0.496189
C60	C	0.866115	0.764834	0.829522
C61	C	0.281641	0.099633	0.168619
C62	C	0.614974	0.432966	0.501952
C63	C	0.948307	0.766300	0.835286
C64	C	0.326515	0.097036	0.093126
C65	C	0.659848	0.430370	0.426460
C66	C	0.993182	0.763703	0.759793
N67	N	0.450599	0.096218	0.031632
N68	N	0.783933	0.429551	0.364966
N69	N	1.117266	0.762885	0.698299
N70	N	0.410528	0.098528	0.099027
N71	N	0.743861	0.431862	0.432360
N72	N	1.077194	0.765195	0.765693
C73	C	0.936756	-0.030258	0.065790
C74	C	1.270089	0.303075	0.399123
C75	C	1.603423	0.636409	0.732457
C76	C	0.935468	-0.107768	0.065707
C77	C	1.268801	0.225565	0.399040
C78	C	1.602135	0.558898	0.732374
C79	C	1.006676	-0.152359	0.070713
C80	C	1.340009	0.180974	0.404046
C81	C	1.673343	0.514307	0.737379
C82	C	1.005467	-0.225189	0.070614
C83	C	1.338800	0.108144	0.403947
C84	C	1.672134	0.441477	0.737280
C85	C	0.933045	-0.253424	0.065527
C86	C	1.266379	0.079909	0.398860
C87	C	1.599712	0.413242	0.732193
C88	C	0.861828	-0.208824	0.060515
C89	C	1.195162	0.124510	0.393849
C90	C	1.528495	0.457843	0.727182
C91	C	0.863040	-0.135996	0.060606
C92	C	1.196373	0.197338	0.393939
C93	C	1.529706	0.530671	0.727272
N94	N	0.875326	-0.359615	0.110567
N95	N	1.208659	-0.026282	0.443901
N96	N	1.541993	0.307052	0.777234
N97	N	0.874180	-0.428799	0.110484
N98	N	1.207513	-0.095466	0.443817
N99	N	1.540847	0.237868	0.777150
C100	C	0.929392	-0.472851	0.065252
C101	C	1.262725	-0.139517	0.398586
C102	C	1.596058	0.193816	0.731919
N103	N	0.985804	-0.445106	0.020119
N104	N	1.319137	-0.111772	0.353453
N105	N	1.652470	0.221561	0.686786
N106	N	0.986952	-0.375915	0.020207
N107	N	1.320285	-0.042582	0.353540
N108	N	1.653619	0.290751	0.686874
C109	C	0.931724	-0.332393	0.065428
C110	C	1.265057	0.000940	0.398761
C111	C	1.598391	0.334273	0.732094
C112	C	0.999294	-0.596413	0.070150
C113	C	1.332627	-0.263080	0.403483
C114	C	1.665960	0.070253	0.736817
C115	C	0.998082	-0.669244	0.070045
C116	C	1.331415	-0.335911	0.403379
C117	C	1.664749	-0.002578	0.736712
C118	C	0.854441	-0.652877	0.059956
C119	C	1.187774	-0.319543	0.393289
C120	C	1.521108	0.013790	0.726622
C121	C	0.855655	-0.580047	0.060052
C122	C	1.188988	-0.246714	0.393385
C123	C	1.522322	0.086619	0.726718
C124	C	0.928083	-0.551820	0.065153
C125	C	1.261417	-0.218487	0.398486
C126	C	1.594750	0.114847	0.731820
C127	C	1.074656	0.092565	0.075454
C128	C	1.407989	0.425898	0.408787
C129	C	1.741323	0.759231	0.742121
C130	C	1.162133	0.094114	0.081592
C131	C	1.495466	0.427447	0.414925
C132	C	1.828799	0.760780	0.748258
C133	C	0.924372	0.225016	0.064879
C134	C	1.257705	0.558349	0.398213
C135	C	1.591038	0.891682	0.731546
C136	C	0.925660	0.302526	0.064957
C137	C	1.258993	0.635859	0.398290
C138	C	1.592326	0.969192	0.731623
N139	N	0.920694	0.106046	0.269940
N140	N	1.254027	0.439380	0.603273
N141	N	1.587360	0.772713	0.936607
N142	N	0.940440	0.088706	-0.139268
N143	N	1.273773	0.422039	0.194065
N144	N	1.607107	0.755372	0.527399
C145	C	0.972268	0.060625	0.318964
C146	C	1.305601	0.393958	0.652297
C147	C	1.638935	0.727292	0.985630
C148	C	0.967914	0.064462	0.409465
C149	C	1.301247	0.397796	0.742798
C150	C	1.634581	0.731129	1.076132
C151	C	0.911990	0.113725	0.450941
C152	C	1.245323	0.447059	0.784275
C153	C	1.578656	0.780392	1.117608
C154	C	0.860410	0.159149	0.401911
C155	C	1.193743	0.492482	0.735244
C156	C	1.527077	0.825816	1.068578
C157	C	0.864761	0.155308	0.311411
C158	C	1.198094	0.488641	0.644744
C159	C	1.531427	0.821974	0.978078
C160	C	0.893211	0.130288	0.721201
C161	C	1.226544	0.463621	1.054535
C162	C	1.559878	0.796955	1.387868
C163	C	0.888866	0.134127	0.811708
C164	C	1.222199	0.467461	1.145042
C165	C	1.555533	0.800794	1.478375
C166	C	0.996370	0.039439	0.819256
C167	C	1.329703	0.372773	1.152589
C168	C	1.663036	0.706106	1.485923
C169	C	1.000718	0.035605	0.728754
C170	C	1.334052	0.368938	1.062087
C171	C	1.667385	0.702272	1.395421
C172	C	0.949136	0.081026	0.679731
C173	C	1.282469	0.414360	1.013065
C174	C	1.615803	0.747693	1.346398
N175	N	0.907540	0.117651	0.543449
N176	N	1.240873	0.450984	0.876782
N177	N	1.574206	0.784317	1.210115
N178	N	0.953583	0.077097	0.587226
N179	N	1.286916	0.410430	0.920559
N180	N	1.620249	0.743764	1.253892
H181	H	0.325732	0.090866	-0.049602
H182	H	0.659065	0.424199	0.283731
H183	H	0.992399	0.757533	0.617065
H184	H	0.805052	-0.099689	0.056530
H185	H	1.138385	0.233645	0.389863
H186	H	1.471718	0.566978	0.723196
H187	H	0.698221	0.094476	-0.093660
H188	H	1.031554	0.427809	0.239674
H189	H	1.364887	0.761142	0.573007
N190	N	0.539251	0.090743	-0.125604
N191	N	0.872585	0.424076	0.207729
N192	N	1.205918	0.757409	0.541062
H193	H	0.480374	0.090211	-0.117807
H194	H	0.813707	0.423544	0.215526
H195	H	1.147040	0.756877	0.548859
H196	H	0.548729	0.132788	-0.159290
H197	H	0.882063	0.466122	0.174043
H198	H	1.215396	0.799455	0.507376
N199	N	1.084792	-0.121914	0.076213
N200	N	1.418125	0.211419	0.409546
N201	N	1.751458	0.544753	0.742879
H202	H	1.129719	-0.161218	0.079368
H203	H	1.463052	0.172115	0.412702
H204	H	1.796385	0.505448	0.746035
H205	H	1.090999	-0.094304	0.023171
H206	H	1.424332	0.239029	0.356505
H207	H	1.757666	0.572362	0.689838
N208	N	0.776323	-0.683313	0.054478
N209	N	1.109656	-0.349980	0.387811
N210	N	1.442990	-0.016646	0.721145
H211	H	0.747706	-0.669310	-0.001007
H212	H	1.081040	-0.335976	0.332326
H213	H	1.414373	-0.002643	0.665660
H214	H	0.786418	-0.736210	0.055218
H215	H	1.119751	-0.402876	0.388551
H216	H	1.453084	-0.069543	0.721885
N217	N	0.694364	0.107601	0.212204
N218	N	1.027697	0.440935	0.545537
N219	N	1.361030	0.774268	0.878870
H220	H	0.753241	0.108136	0.204408
H221	H	1.086574	0.441469	0.537741
H222	H	1.419908	0.774803	0.871075
H223	H	0.671803	0.152037	0.244953
H224	H	1.005137	0.485371	0.578286
H225	H	1.338470	0.818704	0.911620
H226	H	1.058269	-0.573430	0.074300
H227	H	1.391603	-0.240096	0.407633
H228	H	1.724936	0.093237	0.740966
N229	N	1.074889	-0.717344	0.075441
N230	N	1.408222	-0.384010	0.408774
N231	N	1.741555	-0.050677	0.742108
H232	H	1.120952	-0.688407	0.078689
H233	H	1.454285	-0.355074	0.412022
H234	H	1.787618	-0.021741	0.745356
H235	H	1.074935	-0.745668	0.128920
H236	H	1.408268	-0.412335	0.462254
H237	H	1.741602	-0.079001	0.795587
H238	H	1.038364	0.002459	0.859178
H239	H	1.371698	0.335792	1.192512
H240	H	1.705031	0.669126	1.525845
N241	N	0.828542	0.187256	0.856454
N242	N	1.161875	0.520589	1.189787
N243	N	1.495208	0.853923	1.523121
H244	H	0.856744	0.219838	0.896089
H245	H	1.190077	0.553171	1.229423
H246	H	1.523411	0.886505	1.562756
H247	H	0.796536	0.215400	0.811619
H248	H	1.129869	0.548733	1.144952
H249	H	1.463202	0.882066	1.478286
H250	H	0.162903	0.100280	0.224317
H251	H	0.496237	0.433613	0.557650
H252	H	0.829570	0.766947	0.890984
N253	N	0.837573	0.179279	0.668344
N254	N	1.170906	0.512612	1.001678
N255	N	1.504239	0.845946	1.335011
H256	H	0.845718	0.229523	0.684703
H257	H	1.179051	0.562856	1.018036
H258	H	1.512384	0.896190	1.351369
H259	H	0.848830	0.169315	0.604734
H260	H	1.182163	0.502649	0.938068
H261	H	1.515497	0.835982	1.271401
H262	H	0.814871	0.199258	0.435686
H263	H	1.148204	0.532591	0.769019
H264	H	1.481538	0.865924	1.102353
N265	N	0.783712	-0.239267	0.055030
N266	N	1.117046	0.094067	0.388363
N267	N	1.450379	0.427400	0.721696
H268	H	0.782580	-0.271370	0.001472
H269	H	1.115914	0.061963	0.334806
H270	H	1.449247	0.395296	0.668139
H271	H	0.777479	-0.266829	0.108105
H272	H	1.110812	0.066504	0.441438
H273	H	1.444145	0.399837	0.774771
N274	N	0.166751	0.087142	-0.081538
N275	N	0.500085	0.420475	0.251796
N276	N	0.833418	0.753809	0.585129
H277	H	0.126280	0.129629	-0.087893
H278	H	0.459613	0.462962	0.245440
H279	H	0.792947	0.796296	0.578774
H280	H	0.207697	0.085692	-0.128438
H281	H	0.541030	0.419025	0.204895
H282	H	0.874364	0.752359	0.538228
H283	H	1.009909	0.027476	0.449380
H284	H	1.343242	0.360810	0.782713
H285	H	1.676576	0.694143	1.116047
N286	N	0.809133	0.204302	0.258539
N287	N	1.142466	0.537635	0.591872
N288	N	1.475800	0.870968	0.925205
H289	H	0.840939	0.233697	0.223077
H290	H	1.174273	0.567030	0.556410
H291	H	1.507606	0.900363	0.889743
H292	H	0.776152	0.175892	0.218617
H293	H	1.109485	0.509225	0.551951
H294	H	1.442819	0.842558	0.885284
N295	N	0.523526	0.104559	0.200205
N296	N	0.856859	0.437892	0.533539
N297	N	1.190192	0.771226	0.866872
H298	H	0.559707	0.106857	0.252562
H299	H	0.893040	0.440190	0.585895
H300	H	1.226374	0.773523	0.919229
H301	H	0.483083	0.147602	0.201047
H302	H	0.816417	0.480936	0.534380
H303	H	1.149750	0.814269	0.867713
N304	N	0.778851	-0.531947	0.054658
N305	N	1.112185	-0.198613	0.387991
N306	N	1.445518	0.134720	0.721324
H307	H	0.732788	-0.560882	0.051420
H308	H	1.066121	-0.227549	0.384754
H309	H	1.399454	0.105784	0.718087
H310	H	0.773653	-0.499124	0.107774
H311	H	1.106987	-0.165791	0.441108
H312	H	1.440320	0.167543	0.774441
N313	N	1.032592	0.007495	0.274232
N314	N	1.365925	0.340828	0.607565
N315	N	1.699258	0.674162	0.940898
H316	H	1.064601	-0.020697	0.319024
H317	H	1.397935	0.312636	0.652358
H318	H	1.731268	0.645969	0.985691
H319	H	1.004338	-0.025040	0.234588
H320	H	1.337671	0.308293	0.567922
H321	H	1.671005	0.641626	0.901255
H322	H	1.063455	-0.261503	0.074687
H323	H	1.396788	0.071831	0.408020
H324	H	1.730122	0.405164	0.741353
N325	N	1.061038	-0.017528	0.684020
N326	N	1.394371	0.315806	1.017354
N327	N	1.727704	0.649139	1.350687
H328	H	1.093050	-0.045721	0.728810
H329	H	1.426383	0.287612	1.062144
H330	H	1.759716	0.620946	1.395477
H331	H	1.032783	-0.050062	0.644377
H332	H	1.366116	0.283271	0.977710
H333	H	1.699450	0.616605	1.311044
H334	H	0.312018	0.102930	0.234787
H335	H	0.645351	0.436263	0.568121
H336	H	0.978685	0.769596	0.901454
