data_functionalizedCrystal
_audit_creation_method	'MofGen! by Chris Wilmer'
_symmetry_space_group_name_H-M	'P1'
_symmetry_Int_Tables_number	1
_symmetry_cell_setting	triclinic
loop_
_symmetry_equiv_pos_as_xyz
  x,y,z
_cell_length_a	26.210047
_cell_length_b	19.188930
_cell_length_c	27.731996
_cell_angle_alpha	82.883082
_cell_angle_beta	90.017346
_cell_angle_gamma	90.006159
loop_
_atom_site_label
_atom_site_type_symbol
_atom_site_fract_x
_atom_site_fract_y
_atom_site_fract_z
O1	O	-0.042600	-0.925730	-0.060355
O2	O	0.457400	-0.425730	0.439645
O3	O	-0.042565	-0.722365	-0.068478
O4	O	0.457435	-0.222365	0.431522
O5	O	-0.042573	-0.830383	0.005963
O6	O	0.457427	-0.330383	0.505963
O7	O	-0.042592	-0.817712	-0.134796
O8	O	0.457408	-0.317712	0.365204
O9	O	0.042286	-0.830400	0.005977
O10	O	0.542286	-0.330400	0.505977
O11	O	0.042293	-0.722382	-0.068465
O12	O	0.542293	-0.222382	0.431535
O13	O	0.042259	-0.925748	-0.060341
O14	O	0.542259	-0.425748	0.439659
Cu15	Cu	0.050024	-0.824067	-0.064401
Cu16	Cu	0.550024	-0.324067	0.435599
Cu17	Cu	-0.050331	-0.824046	-0.064418
Cu18	Cu	0.449669	-0.324046	0.435582
O19	O	0.042266	-0.817730	-0.134782
O20	O	0.542266	-0.317730	0.365218
C21	C	-0.000132	-0.696364	-0.068208
C22	C	0.499868	-0.196364	0.431792
C23	C	-0.000118	-0.618865	-0.067419
C24	C	0.499882	-0.118865	0.432581
N25	N	-0.120915	-0.824032	-0.064426
N26	N	0.379085	-0.324032	0.435574
C27	C	-0.000142	-0.830131	0.023978
C28	C	0.499858	-0.330131	0.523978
C29	C	-0.000136	-0.829347	0.077636
C30	C	0.499864	-0.329347	0.577636
C31	C	-0.473432	-0.871992	-0.031516
C32	C	0.026568	-0.371992	0.468484
C33	C	-0.687090	-0.872002	-0.031505
C34	C	-0.187090	-0.372002	0.468495
O35	O	-0.714715	-0.912775	-0.003542
O36	O	-0.214715	-0.412775	0.496458
N37	N	-0.713809	-0.824082	-0.064399
N38	N	-0.213809	-0.324082	0.435601
C39	C	-0.687109	-0.776159	-0.097299
C40	C	-0.187109	-0.276159	0.402701
O41	O	-0.714737	-0.735406	-0.125280
O42	O	-0.214737	-0.235406	0.374720
C43	C	-0.473451	-0.776153	-0.097312
C44	C	0.026549	-0.276153	0.402688
C45	C	-0.446736	-0.824071	-0.064413
C46	C	0.053264	-0.324071	0.435587
C47	C	-0.446716	-0.919906	0.001380
C48	C	0.053284	-0.419906	0.501380
C49	C	-0.393305	-0.919901	0.001379
C50	C	0.106695	-0.419901	0.501379
C51	C	-0.366609	-0.871980	-0.031518
C52	C	0.133391	-0.371980	0.468482
C53	C	-0.393324	-0.824066	-0.064414
C54	C	0.106676	-0.324066	0.435586
C55	C	-0.446752	-0.728234	-0.130214
C56	C	0.053248	-0.228234	0.369786
C57	C	-0.393334	-0.728238	-0.130215
C58	C	0.106666	-0.228238	0.369785
C59	C	-0.366619	-0.776156	-0.097316
C60	C	0.133381	-0.276156	0.402684
C61	C	-0.313217	-0.776140	-0.097312
C62	C	0.186783	-0.276140	0.402688
N63	N	-0.286499	-0.824059	-0.064418
N64	N	0.213501	-0.324059	0.435582
C65	C	-0.313195	-0.871980	-0.031521
C66	C	0.186805	-0.371980	0.468479
C67	C	-0.799282	-0.776165	-0.097290
C68	C	-0.299282	-0.276165	0.402710
C69	C	-0.852696	-0.776166	-0.097287
C70	C	-0.352696	-0.276166	0.402713
C71	C	-0.852674	-0.872010	-0.031493
C72	C	-0.352674	-0.372010	0.468507
C73	C	-0.799259	-0.872005	-0.031495
C74	C	-0.299259	-0.372005	0.468505
C75	C	-0.772564	-0.824085	-0.064397
C76	C	-0.272564	-0.324085	0.435603
C77	C	-0.201027	-0.871964	-0.031526
C78	C	0.298973	-0.371964	0.468474
C79	C	-0.147611	-0.871952	-0.031529
C80	C	0.352389	-0.371952	0.468471
C81	C	-0.147637	-0.776111	-0.097324
C82	C	0.352363	-0.276111	0.402676
C83	C	-0.201049	-0.776120	-0.097320
C84	C	0.298951	-0.276120	0.402680
C85	C	-0.227742	-0.824053	-0.064419
C86	C	0.272258	-0.324053	0.435581
O87	O	-0.285559	-0.735393	-0.125264
O88	O	0.214441	-0.235393	0.374736
O89	O	-0.285558	-0.912738	-0.003552
O90	O	0.214442	-0.412738	0.496448
C91	C	-0.526843	-0.871997	-0.031515
C92	C	-0.026843	-0.371997	0.468485
C93	C	-0.553559	-0.824082	-0.064410
C94	C	-0.053559	-0.324082	0.435590
C95	C	-0.526863	-0.776162	-0.097307
C96	C	-0.026863	-0.276162	0.402693
C97	C	-0.606973	-0.824083	-0.064407
C98	C	-0.106973	-0.324083	0.435593
C99	C	-0.633669	-0.872003	-0.031510
C100	C	-0.133669	-0.372003	0.468490
C101	C	-0.606951	-0.919923	0.001384
C102	C	-0.106951	-0.419923	0.501384
C103	C	-0.553539	-0.919918	0.001382
C104	C	-0.053539	-0.419918	0.501382
C105	C	-0.553581	-0.728242	-0.130201
C106	C	-0.053581	-0.228242	0.369799
C107	C	-0.606992	-0.728251	-0.130197
C108	C	-0.106992	-0.228251	0.369803
C109	C	-0.633688	-0.776172	-0.097300
C110	C	-0.133688	-0.276172	0.402700
N111	N	0.120608	-0.824086	-0.064390
N112	N	0.620608	-0.324086	0.435610
C113	C	-0.000176	-0.951748	-0.060611
C114	C	0.499824	-0.451748	0.439389
C115	C	-0.000193	-1.029247	-0.061400
C116	C	0.499807	-0.529247	0.438600
C117	C	-0.000133	-0.573651	-0.111098
C118	C	0.499867	-0.073651	0.388902
C119	C	-0.000138	-0.500832	-0.110356
C120	C	0.499862	-0.000832	0.389644
C121	C	-0.000140	-0.473231	-0.065932
C122	C	0.499860	0.026769	0.434068
C123	C	-0.000123	-0.518455	-0.022247
C124	C	0.499877	-0.018455	0.477753
C125	C	-0.000112	-0.591272	-0.022990
C126	C	0.499888	-0.091272	0.477010
N127	N	-0.029036	-0.365470	-0.031980
N128	N	0.470964	0.134530	0.468020
N129	N	-0.029047	-0.296296	-0.031277
N130	N	0.470953	0.203704	0.468723
C131	C	-0.000171	-0.253837	-0.063690
C132	C	0.499829	0.246163	0.436310
N133	N	0.028712	-0.283163	-0.096841
N134	N	0.528712	0.216837	0.403159
N135	N	0.028720	-0.352343	-0.097545
N136	N	0.528720	0.147657	0.402455
C137	C	-0.000151	-0.394274	-0.065122
C138	C	0.499849	0.105726	0.434878
C139	C	-0.000190	-0.129663	-0.106569
C140	C	0.499810	0.370337	0.393431
C141	C	-0.000192	-0.056844	-0.105825
C142	C	0.499808	0.443156	0.394175
C143	C	-0.000182	-0.074468	-0.017714
C144	C	0.499818	0.425532	0.482286
C145	C	-0.000174	-0.147286	-0.018459
C146	C	0.499826	0.352714	0.481541
C147	C	-0.000181	-0.174879	-0.062888
C148	C	0.499819	0.325121	0.437112
C149	C	-0.000166	-0.817982	-0.152797
C150	C	0.499834	-0.317982	0.347203
C151	C	-0.000175	-0.818765	-0.206456
C152	C	0.499825	-0.318765	0.293544
C153	C	-0.046417	-0.824405	0.410360
C154	C	0.453583	-0.324405	0.910360
C155	C	-0.046425	-0.821428	0.612028
C156	C	0.453575	-0.321428	1.112028
O157	O	-0.085764	-0.821005	0.638093
O158	O	0.414236	-0.321005	1.138093
N159	N	-0.000169	-0.821068	0.637253
N160	N	0.499831	-0.321068	1.137253
C161	C	0.046092	-0.821448	0.612059
C162	C	0.546092	-0.321448	1.112059
O163	O	0.085435	-0.821066	0.638142
O164	O	0.585435	-0.321066	1.138142
C165	C	0.046100	-0.824420	0.410392
C166	C	0.546100	-0.324420	0.910392
C167	C	-0.000159	-0.824787	0.385169
C168	C	0.499841	-0.324787	0.885169
C169	C	-0.092672	-0.824772	0.385138
C170	C	0.407328	-0.324772	0.885138
C171	C	-0.092669	-0.825520	0.334724
C172	C	0.407331	-0.325520	0.834724
C173	C	-0.046411	-0.825901	0.309533
C174	C	0.453589	-0.325901	0.809533
C175	C	-0.000156	-0.825535	0.334756
C176	C	0.499844	-0.325535	0.834756
C177	C	0.092360	-0.824794	0.385198
C178	C	0.592360	-0.324794	0.885198
C179	C	0.092358	-0.825535	0.334778
C180	C	0.592358	-0.325535	0.834778
C181	C	0.046099	-0.825903	0.309555
C182	C	0.546099	-0.325903	0.809555
C183	C	0.046104	-0.826664	0.259152
C184	C	0.546104	-0.326664	0.759152
N185	N	-0.000152	-0.827025	0.233926
N186	N	0.499848	-0.327025	0.733926
C187	C	-0.046410	-0.826643	0.259117
C188	C	0.453590	-0.326643	0.759117
C189	C	0.046084	-0.819889	0.717937
C190	C	0.546084	-0.319889	1.217937
C191	C	0.046083	-0.819147	0.768354
C192	C	0.546083	-0.319147	1.268354
C193	C	-0.046435	-0.819126	0.768319
C194	C	0.453565	-0.319126	1.268319
C195	C	-0.046432	-0.819873	0.717902
C196	C	0.453568	-0.319873	1.217902
C197	C	-0.000171	-0.820249	0.692711
C198	C	0.499829	-0.320249	1.192711
C199	C	-0.046401	-0.828215	0.153245
C200	C	0.453599	-0.328215	0.653245
C201	C	-0.046394	-0.828966	0.102827
C202	C	0.453606	-0.328966	0.602827
C203	C	0.046123	-0.828982	0.102866
C204	C	0.546123	-0.328982	0.602866
C205	C	0.046116	-0.828235	0.153280
C206	C	0.546116	-0.328235	0.653280
C207	C	-0.000149	-0.827849	0.178468
C208	C	0.499851	-0.327849	0.678468
O209	O	0.085422	-0.827080	0.233054
O210	O	0.585422	-0.327080	0.733054
O211	O	-0.085747	-0.827009	0.233024
O212	O	0.414253	-0.327009	0.733024
C213	C	-0.046419	-0.823657	0.460774
C214	C	0.453581	-0.323657	0.960774
C215	C	-0.000164	-0.823291	0.485996
C216	C	0.499836	-0.323291	0.985996
C217	C	0.046093	-0.823672	0.460806
C218	C	0.546093	-0.323672	0.960806
C219	C	-0.000166	-0.822549	0.536413
C220	C	0.499834	-0.322549	1.036413
C221	C	-0.046424	-0.822167	0.561604
C222	C	0.453576	-0.322167	1.061604
C223	C	-0.092679	-0.822528	0.536378
C224	C	0.407321	-0.322528	1.036378
C225	C	-0.092677	-0.823276	0.485965
C226	C	0.407323	-0.323276	0.985965
C227	C	0.092349	-0.823312	0.486031
C228	C	0.592349	-0.323312	0.986031
C229	C	0.092343	-0.822565	0.536445
C230	C	0.592343	-0.322565	1.036445
C231	C	0.046085	-0.822183	0.561636
C232	C	0.546085	-0.322183	1.061636
H233	H	-0.125861	-0.910973	-0.004737
H234	H	0.374139	-0.410973	0.495263
C235	C	-0.261119	-0.680977	-0.107851
C236	C	0.238881	-0.180977	0.392149
C237	C	-0.230415	-0.723441	-0.133478
C238	C	0.269585	-0.223441	0.366522
H239	H	-0.279242	-0.648454	-0.130177
H240	H	0.220758	-0.148454	0.369823
H241	H	-0.284664	-0.709517	-0.088267
H242	H	0.215336	-0.209517	0.411733
H243	H	-0.240270	-0.656150	-0.087734
H244	H	0.259730	-0.156150	0.412266
H245	H	-0.251264	-0.748272	-0.153593
H246	H	0.248736	-0.248272	0.346407
H247	H	-0.206868	-0.694897	-0.153071
H248	H	0.293132	-0.194897	0.346929
H249	H	-0.125893	-0.737093	-0.124107
H250	H	0.374107	-0.237093	0.375893
H251	H	-0.468448	-0.958932	0.028169
H252	H	0.031552	-0.458932	0.528169
C253	C	-0.398665	-1.014648	0.066402
C254	C	0.101335	-0.514648	0.566402
C255	C	-0.363944	-0.972587	0.037535
C256	C	0.136056	-0.472587	0.537535
H257	H	-0.380540	-1.047181	0.088720
H258	H	0.119460	-0.547181	0.588720
H259	H	-0.419485	-0.985836	0.083786
H260	H	0.080515	-0.485836	0.583786
H261	H	-0.419512	-1.039463	0.046276
H262	H	0.080488	-0.539463	0.546276
H263	H	-0.343100	-0.947768	0.057660
H264	H	0.156900	-0.447768	0.557660
H265	H	-0.343115	-1.001403	0.020149
H266	H	0.156885	-0.501403	0.520149
H267	H	0.083758	-0.820198	0.697432
H268	H	0.583758	-0.320198	1.197432
H269	H	0.130029	-0.824496	0.405726
H270	H	0.630029	-0.324496	0.905726
C271	C	0.043447	-0.067053	0.057619
C272	C	0.543447	0.432947	0.557619
C273	C	-0.000182	-0.044135	0.031118
C274	C	0.499818	0.455865	0.531118
H275	H	0.043449	-0.048319	0.087765
H276	H	0.543449	0.451681	0.587765
H277	H	0.043450	-0.116885	0.063428
H278	H	0.543450	0.383115	0.563428
H279	H	0.073031	-0.051484	0.039639
H280	H	0.573031	0.448516	0.539639
H281	H	-0.029766	-0.059708	0.049096
H282	H	0.470234	0.440292	0.549096
H283	H	-0.000189	0.005708	0.025310
H284	H	0.499811	0.505708	0.525310
C285	C	0.124974	-0.769159	0.081795
C286	C	0.624974	-0.269159	0.581795
C287	C	0.096966	-0.829385	0.075165
C288	C	0.596966	-0.329385	0.575165
H289	H	0.156362	-0.769404	0.064693
H290	H	0.656362	-0.269404	0.564693
H291	H	0.105962	-0.728561	0.069759
H292	H	0.605962	-0.228561	0.569759
H293	H	0.131598	-0.768676	0.115432
H294	H	0.631598	-0.268676	0.615432
H295	H	0.090338	-0.829866	0.041529
H296	H	0.590338	-0.329866	0.541529
H297	H	0.115981	-0.869994	0.087199
H298	H	0.615981	-0.369994	0.587199
H299	H	-0.531792	-0.958937	0.028172
H300	H	-0.031792	-0.458937	0.528172
C301	C	-0.043782	-0.239415	0.031808
C302	C	0.456218	0.260585	0.531808
C303	C	-0.000167	-0.196992	0.029555
C304	C	0.499833	0.303008	0.529555
H305	H	-0.043774	-0.270104	0.061451
H306	H	0.456226	0.229896	0.561451
H307	H	-0.073372	-0.210652	0.030263
H308	H	0.426628	0.289348	0.530263
H309	H	-0.043775	-0.266270	0.005242
H310	H	0.456225	0.233730	0.505242
H311	H	-0.000176	-0.170134	0.056120
H312	H	0.499824	0.329866	0.556120
H313	H	0.029431	-0.225759	0.031105
H314	H	0.529431	0.274241	0.531105
H315	H	-0.628695	-0.958940	0.028171
H316	H	-0.128695	-0.458940	0.528171
C317	C	-0.601635	-0.633520	-0.195238
C318	C	-0.101635	-0.133520	0.304762
C319	C	-0.636354	-0.675575	-0.166364
C320	C	-0.136354	-0.175575	0.333636
H321	H	-0.619762	-0.601008	-0.217569
H322	H	-0.119762	-0.101008	0.282431
H323	H	-0.580798	-0.608687	-0.175122
H324	H	-0.080798	-0.108687	0.324878
H325	H	-0.580805	-0.662345	-0.212612
H326	H	-0.080805	-0.162345	0.287388
H327	H	-0.657182	-0.646751	-0.148987
H328	H	-0.157182	-0.146751	0.351013
H329	H	-0.657200	-0.700410	-0.186482
H330	H	-0.157200	-0.200410	0.313518
C331	C	-0.184115	-0.825413	0.339768
C332	C	0.315885	-0.325413	0.839768
C333	C	-0.143519	-0.825911	0.307003
C334	C	0.356481	-0.325911	0.807003
H335	H	-0.215509	-0.825648	0.322655
H336	H	0.284491	-0.325648	0.822655
H337	H	-0.182198	-0.865854	0.363205
H338	H	0.317802	-0.365854	0.863205
H339	H	-0.182174	-0.784391	0.355661
H340	H	0.317826	-0.284391	0.855661
H341	H	-0.145458	-0.866936	0.291113
H342	H	0.354542	-0.366936	0.791113
H343	H	-0.145437	-0.785466	0.283558
H344	H	0.354563	-0.285466	0.783558
C345	C	-0.171518	-0.762221	0.546315
C346	C	0.328482	-0.262221	1.046315
C347	C	-0.143525	-0.822095	0.564076
C348	C	0.356475	-0.322095	1.064076
H349	H	-0.202907	-0.761952	0.563415
H350	H	0.297093	-0.261952	1.063415
H351	H	-0.152497	-0.721384	0.550803
H352	H	0.347503	-0.221384	1.050803
H353	H	-0.178143	-0.762730	0.512681
H354	H	0.321857	-0.262730	1.012681
H355	H	-0.136898	-0.821584	0.597709
H356	H	0.363102	-0.321584	1.097709
H357	H	-0.162551	-0.862942	0.559591
H358	H	0.337449	-0.362942	1.059591
H359	H	-0.130346	-0.823574	0.465433
H360	H	0.369654	-0.323574	0.965433
H361	H	-0.084065	-0.829266	0.082293
H362	H	0.415935	-0.329266	0.582293
C363	C	0.043504	-0.511031	0.053087
C364	C	0.543504	-0.011031	0.553087
C365	C	-0.000125	-0.488118	0.026585
C366	C	0.499875	0.011882	0.526585
H367	H	0.043505	-0.492299	0.083233
H368	H	0.543505	0.007701	0.583233
H369	H	0.043510	-0.560864	0.058895
H370	H	0.543510	-0.060864	0.558895
H371	H	0.073088	-0.495459	0.035107
H372	H	0.573088	0.004541	0.535107
H373	H	-0.029709	-0.503695	0.044563
H374	H	0.470291	-0.003695	0.544563
H375	H	-0.000136	-0.438275	0.020778
H376	H	0.499864	0.061725	0.520778
H377	H	-0.777550	-0.737141	-0.124083
H378	H	-0.277550	-0.237141	0.375917
H379	H	-0.531849	-0.689220	-0.156990
H380	H	-0.031849	-0.189220	0.343010
C381	C	0.099754	-0.878355	0.830634
C382	C	0.599754	-0.378355	1.330634
C383	C	0.096930	-0.818742	0.796078
C384	C	0.596930	-0.318742	1.296078
H385	H	0.131147	-0.878099	0.847746
H386	H	0.631147	-0.378099	1.347746
H387	H	0.072208	-0.878020	0.852851
H388	H	0.572208	-0.378020	1.352851
H389	H	0.097830	-0.919374	0.814737
H390	H	0.597830	-0.419374	1.314737
H391	H	0.098850	-0.777723	0.811975
H392	H	0.598850	-0.277723	1.311975
H393	H	0.124483	-0.819071	0.773857
H394	H	0.624483	-0.319071	1.273857
C395	C	0.099797	-0.767379	0.204439
C396	C	0.599797	-0.267379	0.704439
C397	C	0.096961	-0.827849	0.181014
C398	C	0.596961	-0.327849	0.681014
H399	H	0.131185	-0.767143	0.221562
H400	H	0.631185	-0.267143	0.721562
H401	H	0.097891	-0.726946	0.180995
H402	H	0.597891	-0.226946	0.680995
H403	H	0.072242	-0.767046	0.226654
H404	H	0.572242	-0.267046	0.726654
H405	H	0.124513	-0.828179	0.158797
H406	H	0.624513	-0.328179	0.658797
H407	H	0.098872	-0.868292	0.204461
H408	H	0.598872	-0.368292	0.704461
C409	C	-0.000142	-0.548910	-0.198116
C410	C	0.499858	-0.048910	0.301884
C411	C	-0.000131	-0.603980	-0.159934
C412	C	0.499869	-0.103980	0.340066
H413	H	-0.000137	-0.567637	-0.228265
H414	H	0.499863	-0.067637	0.271735
H415	H	-0.029737	-0.520891	-0.195999
H416	H	0.470263	-0.020891	0.304001
H417	H	0.029447	-0.520861	-0.195984
H418	H	0.529447	-0.020861	0.304016
H419	H	-0.029722	-0.632026	-0.162064
H420	H	0.470278	-0.132026	0.337936
H421	H	0.029467	-0.632011	-0.162052
H422	H	0.529467	-0.132011	0.337948
H423	H	-0.084075	-0.827897	0.173747
H424	H	0.415925	-0.327897	0.673747
H425	H	-0.000148	-0.464011	-0.145927
H426	H	0.499852	0.035989	0.354073
H427	H	-0.130342	-0.824458	0.405642
H428	H	0.369658	-0.324458	0.905642
H429	H	-0.084100	-0.820171	0.697369
H430	H	0.415900	-0.320171	1.197369
H431	H	-0.000101	-0.628087	0.012580
H432	H	0.499899	-0.128087	0.512580
C433	C	-0.000195	-0.104931	-0.193587
C434	C	0.499805	0.395069	0.306413
C435	C	-0.000189	-0.160000	-0.155403
C436	C	0.499811	0.340000	0.344597
H437	H	-0.000191	-0.123660	-0.223734
H438	H	0.499809	0.376340	0.276266
H439	H	-0.029788	-0.076907	-0.191471
H440	H	0.470212	0.423093	0.308529
H441	H	0.029396	-0.076886	-0.191454
H442	H	0.529396	0.423114	0.308546
H443	H	-0.029782	-0.188042	-0.157533
H444	H	0.470218	0.311958	0.342467
H445	H	0.029407	-0.188035	-0.157520
H446	H	0.529407	0.311965	0.342480
C447	C	-0.043836	0.035253	-0.156106
C448	C	0.456164	0.535253	0.343894
C449	C	-0.000209	-0.007140	-0.153841
C450	C	0.499791	0.492860	0.346159
H451	H	-0.043844	0.065940	-0.185749
H452	H	0.456156	0.565940	0.314251
H453	H	-0.073418	0.006469	-0.154568
H454	H	0.426582	0.506469	0.345432
H455	H	-0.043827	0.062108	-0.129540
H456	H	0.456173	0.562108	0.370460
H457	H	-0.000220	-0.033999	-0.180406
H458	H	0.499780	0.466001	0.319594
H459	H	0.029381	0.021648	-0.155385
H460	H	0.529381	0.521648	0.344615
C461	C	0.146037	-0.886418	0.283668
C462	C	0.646037	-0.386418	0.783668
C463	C	0.143212	-0.825948	0.307091
C464	C	0.643212	-0.325948	0.807091
H465	H	0.177430	-0.886670	0.266574
H466	H	0.677430	-0.386670	0.766574
H467	H	0.144108	-0.926851	0.307110
H468	H	0.644108	-0.426851	0.807110
H469	H	0.118490	-0.886737	0.261427
H470	H	0.618490	-0.386737	0.761427
H471	H	0.170757	-0.825632	0.329334
H472	H	0.670757	-0.325632	0.829334
H473	H	0.145145	-0.785505	0.283646
H474	H	0.645145	-0.285505	0.783646
C475	C	0.183794	-0.822647	0.531402
C476	C	0.683794	-0.322647	1.031402
C477	C	0.143196	-0.822159	0.564166
C478	C	0.643196	-0.322159	1.064166
H479	H	0.215187	-0.822388	0.548514
H480	H	0.715187	-0.322388	1.048514
H481	H	0.181866	-0.863670	0.515517
H482	H	0.681866	-0.363670	1.015517
H483	H	0.181867	-0.782207	0.507958
H484	H	0.681867	-0.282207	1.007958
H485	H	0.145121	-0.862602	0.587608
H486	H	0.645121	-0.362602	1.087608
H487	H	0.145125	-0.781132	0.580059
H488	H	0.645125	-0.281132	1.080059
H489	H	-0.084099	-0.818816	0.788838
H490	H	0.415901	-0.318816	1.288838
C491	C	0.146013	-0.884211	0.434925
C492	C	0.646013	-0.384211	0.934925
C493	C	0.143198	-0.823737	0.458344
C494	C	0.643198	-0.323737	0.958344
H495	H	0.177406	-0.884473	0.417831
H496	H	0.677406	-0.384473	0.917831
H497	H	0.144080	-0.924641	0.458369
H498	H	0.644080	-0.424641	0.958369
H499	H	0.118465	-0.884525	0.412685
H500	H	0.618465	-0.384525	0.912685
H501	H	0.170744	-0.823426	0.480587
H502	H	0.670744	-0.323426	0.980587
H503	H	0.145136	-0.783297	0.434897
H504	H	0.645136	-0.283297	0.934897
C505	C	-0.195625	-0.966693	0.033514
C506	C	0.304375	-0.466693	0.533514
C507	C	-0.230363	-0.924646	0.004642
C508	C	0.269637	-0.424646	0.504642
H509	H	-0.213737	-0.999211	0.055845
H510	H	0.286263	-0.499211	0.555845
H511	H	-0.174803	-0.991520	0.013396
H512	H	0.325197	-0.491520	0.513396
H513	H	-0.174783	-0.937864	0.050886
H514	H	0.325217	-0.437864	0.550886
H515	H	-0.251203	-0.953476	-0.012734
H516	H	0.248797	-0.453476	0.487266
H517	H	-0.251194	-0.899818	0.024762
H518	H	0.248806	-0.399818	0.524762
H519	H	-0.874419	-0.911027	-0.004706
H520	H	-0.374419	-0.411027	0.495294
C521	C	-0.739169	-0.888069	0.034314
C522	C	-0.239169	-0.388069	0.534314
C523	C	-0.769895	-0.924680	0.004667
C524	C	-0.269895	-0.424680	0.504667
H525	H	-0.721046	-0.920591	0.056640
H526	H	-0.221046	-0.420591	0.556640
H527	H	-0.715624	-0.859540	0.014721
H528	H	-0.215624	-0.359540	0.514721
H529	H	-0.760002	-0.859254	0.051692
H530	H	-0.260002	-0.359254	0.551692
H531	H	-0.749062	-0.953490	-0.012715
H532	H	-0.249062	-0.453490	0.487285
H533	H	-0.793443	-0.953220	0.024261
H534	H	-0.293443	-0.453220	0.524261
C535	C	-0.441386	-0.633516	-0.195256
C536	C	0.058614	-0.133516	0.304744
C537	C	-0.476108	-0.675565	-0.166382
C538	C	0.023892	-0.175565	0.333618
H539	H	-0.459510	-0.601002	-0.217588
H540	H	0.040490	-0.101002	0.282412
H541	H	-0.420547	-0.608685	-0.175140
H542	H	0.079453	-0.108685	0.324860
H543	H	-0.420558	-0.662345	-0.212628
H544	H	0.079442	-0.162345	0.287372
H545	H	-0.496934	-0.646736	-0.149007
H546	H	0.003066	-0.146736	0.350993
H547	H	-0.496956	-0.700397	-0.186500
H548	H	0.003044	-0.200397	0.313500
C549	C	-0.847339	-0.681434	-0.162322
C550	C	-0.347339	-0.181434	0.337678
C551	C	-0.882058	-0.723489	-0.133447
C552	C	-0.382058	-0.223489	0.366553
H553	H	-0.865466	-0.648918	-0.184650
H554	H	-0.365466	-0.148918	0.315350
H555	H	-0.826499	-0.656606	-0.142206
H556	H	-0.326499	-0.156606	0.357794
H557	H	-0.826513	-0.710259	-0.179699
H558	H	-0.326513	-0.210259	0.320301
H559	H	-0.902882	-0.694665	-0.116067
H560	H	-0.402882	-0.194665	0.383933
H561	H	-0.902907	-0.748318	-0.153566
H562	H	-0.402907	-0.248318	0.346434
H563	H	-0.371602	-0.689216	-0.157009
H564	H	0.128398	-0.189216	0.342991
