data_functionalizedCrystal
_audit_creation_method	'MofGen! by Chris Wilmer'
_symmetry_space_group_name_H-M	'P1'
_symmetry_Int_Tables_number	1
_symmetry_cell_setting	triclinic
loop_
_symmetry_equiv_pos_as_xyz
  x,y,z
_cell_length_a	10.723024
_cell_length_b	14.519709
_cell_length_c	9.198806
_cell_angle_alpha	89.995869
_cell_angle_beta	89.996352
_cell_angle_gamma	84.074007
loop_
_atom_site_label
_atom_site_type_symbol
_atom_site_fract_x
_atom_site_fract_y
_atom_site_fract_z
O1	O	1.655978	0.129347	-0.120886
O2	O	1.292710	0.141728	-0.120892
O3	O	1.483976	0.001349	-0.120876
O4	O	1.464713	0.269727	-0.120902
O5	O	1.483960	0.001348	0.120909
O6	O	1.292695	0.141728	0.120893
O7	O	1.655963	0.129347	0.120899
Cu8	Cu	1.474328	0.135538	0.142973
Cu9	Cu	1.474345	0.135538	-0.142966
O10	O	1.464697	0.269727	0.120883
C11	C	1.246211	0.140827	0.000000
C12	C	1.107682	0.138132	-0.000001
C13	C	1.031965	0.216681	-0.000010
C14	C	0.888788	0.213896	-0.000012
C15	C	1.483070	-0.033016	0.000017
C16	C	1.480380	-0.135411	0.000018
C17	C	1.470476	-0.510357	-0.000020
C18	C	1.473227	-0.406035	-0.000009
C19	C	1.475428	-0.322887	0.000000
C20	C	1.478179	-0.218559	0.000008
C21	C	1.702462	0.130248	0.000003
C22	C	1.840991	0.132944	-0.000005
C23	C	1.465603	0.304091	-0.000013
C24	C	1.468293	0.406486	-0.000024
N25	N	1.474324	0.135537	0.344087
N26	N	1.474359	0.135532	-0.344080
C27	C	1.554633	0.076335	0.416290
C28	C	1.554653	0.076332	0.583703
H29	H	1.073139	0.285991	-0.000009
H30	H	1.623371	0.025649	0.354170
H31	H	1.066508	0.068822	-0.000032
C32	C	0.802193	0.303637	0.000202
C33	C	0.824913	0.354923	0.124572
C34	C	0.745175	0.437605	0.124808
H35	H	0.717449	0.289979	0.000275
H36	H	0.817454	0.338603	-0.084073
H37	H	0.809643	0.319964	0.208826
H38	H	0.909641	0.368606	0.124525
H39	H	0.760436	0.472572	0.040532
H40	H	0.660436	0.423938	0.124877
H41	H	0.760588	0.472417	0.209183
H42	H	0.906045	0.065696	-0.000006
H43	H	1.405604	0.186222	0.593837
H44	H	1.623414	0.025651	0.645795
C45	C	1.382597	0.202971	0.427093
C46	C	1.306001	0.153444	0.514524
C47	C	1.221495	0.215536	0.591021
H48	H	1.332087	0.240141	0.360253
H49	H	1.427748	0.241510	0.486544
H50	H	1.260853	0.114922	0.455079
H51	H	1.356476	0.116278	0.581391
H52	H	1.266646	0.254074	0.650471
H53	H	1.170994	0.252702	0.524170
H54	H	1.169523	0.181941	0.650361
