data_functionalizedCrystal
_audit_creation_method	'MofGen! by Chris Wilmer'
_symmetry_space_group_name_H-M	'P1'
_symmetry_Int_Tables_number	1
_symmetry_cell_setting	triclinic
loop_
_symmetry_equiv_pos_as_xyz
  x,y,z
_cell_length_a	23.532355
_cell_length_b	23.532407
_cell_length_c	14.750395
_cell_angle_alpha	104.267383
_cell_angle_beta	104.275180
_cell_angle_gamma	82.838088
loop_
_atom_site_label
_atom_site_type_symbol
_atom_site_fract_x
_atom_site_fract_y
_atom_site_fract_z
O1	O	0.744326	0.058039	-0.079708
O2	O	1.244326	0.558039	0.420292
O3	O	0.578454	0.068069	-0.079740
O4	O	1.078454	0.568069	0.420260
O5	O	0.666394	-0.019876	-0.079705
O6	O	1.166394	0.480124	0.420295
O7	O	0.656386	0.145984	-0.079743
O8	O	1.156386	0.645984	0.420257
O9	O	0.688325	0.002065	0.079953
O10	O	1.188325	0.502065	0.579953
O11	O	0.600385	0.090010	0.079918
O12	O	1.100385	0.590010	0.579918
O13	O	0.766257	0.079980	0.079950
O14	O	1.266257	0.579980	0.579950
Zn15	Zn	0.686803	0.088478	0.105283
Zn16	Zn	1.186803	0.588478	0.605283
Zn17	Zn	0.657908	0.059570	-0.105073
Zn18	Zn	1.157908	0.559570	0.394927
O19	O	0.678317	0.167925	0.079915
O20	O	1.178317	0.667925	0.579915
C21	C	0.568202	0.078788	0.000085
C22	C	1.068202	0.578788	0.500085
C23	C	0.504982	0.078032	0.000074
C24	C	1.004982	0.578032	0.500074
C25	C	0.677105	-0.030121	0.000126
C26	C	1.177105	0.469879	0.500126
C27	C	0.676341	-0.093337	0.000133
C28	C	1.176341	0.406663	0.500133
C29	C	0.124929	0.085260	0.087145
C30	C	0.624929	0.585260	0.587145
C31	C	0.065530	0.084543	0.087148
C32	C	0.565530	0.584543	0.587148
O33	O	0.044978	0.094324	0.161163
O34	O	0.544978	0.594324	0.661163
N35	N	0.023867	0.072227	0.000119
N36	N	0.523867	0.572227	0.500119
C37	C	0.041606	0.060622	-0.086919
C38	C	0.541606	0.560622	0.413081
O39	O	0.000714	0.050080	-0.160944
O40	O	0.500714	0.550080	0.339056
C41	C	0.101004	0.061335	-0.086922
C42	C	0.601004	0.561335	0.413078
C43	C	0.142664	0.073657	0.000113
C44	C	0.642664	0.573657	0.500113
C45	C	0.166588	0.097580	0.174172
C46	C	0.666588	0.597580	0.674172
C47	C	0.225982	0.098298	0.174168
C48	C	0.725982	0.598298	0.674168
C49	C	0.243718	0.086696	0.087136
C50	C	0.743718	0.586696	0.587136
C51	C	0.202059	0.074375	0.000108
C52	C	0.702059	0.574375	0.500108
C53	C	0.118743	0.049725	-0.173960
C54	C	0.618743	0.549725	0.326040
C55	C	0.178146	0.050439	-0.173955
C56	C	0.678146	0.550439	0.326045
C57	C	0.219806	0.062761	-0.086920
C58	C	0.719806	0.562761	0.413080
C59	C	0.279189	0.063490	-0.086928
C60	C	0.779189	0.563490	0.413072
N61	N	0.320852	0.075806	0.000101
N62	N	0.820852	0.575806	0.500101
C63	C	0.303116	0.087408	0.087133
C64	C	0.803116	0.587408	0.587133
C65	C	-0.083134	0.059124	-0.086907
C66	C	0.416866	0.559124	0.413093
C67	C	-0.142532	0.058415	-0.086905
C68	C	0.357468	0.558415	0.413095
C69	C	-0.118604	0.082336	0.087163
C70	C	0.381396	0.582336	0.587163
C71	C	-0.059205	0.083048	0.087161
C72	C	0.440795	0.583048	0.587161
C73	C	-0.041471	0.071440	0.000122
C74	C	0.458529	0.571440	0.500122
C75	C	0.427848	0.088916	0.087118
C76	C	0.927848	0.588916	0.587118
C77	C	0.487247	0.089635	0.087106
C78	C	0.987247	0.589635	0.587106
C79	C	0.463314	0.065712	-0.086962
C80	C	0.963314	0.565712	0.413038
C81	C	0.403920	0.064996	-0.086950
C82	C	0.903920	0.564996	0.413050
C83	C	0.386190	0.076597	0.000097
C84	C	0.886190	0.576597	0.500097
O85	O	0.299784	0.053712	-0.160905
O86	O	0.799784	0.553712	0.339095
O87	O	0.344015	0.097941	0.161146
O88	O	0.844015	0.597941	0.661146
C89	C	0.723569	-0.492455	0.000090
C90	C	1.223569	0.007545	0.500090
C91	C	0.722857	-0.551856	0.000082
C92	C	1.222857	-0.051856	0.500082
O93	O	0.766640	-0.588613	0.000055
O94	O	1.266640	-0.088613	0.500055
N95	N	0.670578	-0.574474	0.000073
N96	N	1.170578	-0.074474	0.500073
C97	C	0.619007	-0.537688	0.000061
C98	C	1.119007	-0.037688	0.500061
O99	O	0.574474	-0.562381	0.000052
O100	O	1.074474	-0.062381	0.500052
C101	C	0.619719	-0.478289	0.000062
C102	C	1.119719	0.021711	0.500062
C103	C	0.672002	-0.455674	0.000081
C104	C	1.172002	0.044326	0.500081
C105	C	0.775848	-0.469839	0.000108
C106	C	1.275848	0.030161	0.500108
C107	C	0.776561	-0.410442	0.000117
C108	C	1.276561	0.089558	0.500117
C109	C	0.724994	-0.373661	0.000108
C110	C	1.224994	0.126339	0.500108
C111	C	0.672715	-0.396277	0.000090
C112	C	1.172715	0.103723	0.500090
C113	C	0.568147	-0.441506	0.000043
C114	C	1.068147	0.058494	0.500043
C115	C	0.568864	-0.382104	0.000043
C116	C	1.068864	0.117896	0.500043
C117	C	0.621148	-0.359488	0.000062
C118	C	1.121148	0.140512	0.500062
C119	C	0.621861	-0.300098	0.000090
C120	C	1.121861	0.199902	0.500090
N121	N	0.674140	-0.277480	0.000100
N122	N	1.174140	0.222520	0.500100
C123	C	0.725706	-0.314262	0.000109
C124	C	1.225706	0.185738	0.500109
C125	C	0.617515	-0.662431	0.000058
C126	C	1.117515	-0.162431	0.500058
C127	C	0.616803	-0.721828	0.000065
C128	C	1.116803	-0.221828	0.500065
C129	C	0.720653	-0.735992	0.000084
C130	C	1.220653	-0.235992	0.500084
C131	C	0.721365	-0.676593	0.000084
C132	C	1.221365	-0.176593	0.500084
C133	C	0.669794	-0.639813	0.000068
C134	C	1.169794	-0.139813	0.500068
C135	C	0.727199	-0.189522	0.000129
C136	C	1.227199	0.310478	0.500129
C137	C	0.727907	-0.130119	0.000142
C138	C	1.227907	0.369881	0.500142
C139	C	0.624057	-0.115961	0.000118
C140	C	1.124057	0.384039	0.500118
C141	C	0.623349	-0.175358	0.000110
C142	C	1.123349	0.324642	0.500110
C143	C	0.674924	-0.212139	0.000112
C144	C	1.174924	0.287861	0.500112
O145	O	0.578100	-0.263308	0.000114
O146	O	1.078100	0.236692	0.500114
O147	O	0.770230	-0.289562	0.000106
O148	O	1.270230	0.210438	0.500106
C149	C	0.776508	0.069260	0.000123
C150	C	1.276508	0.569260	0.500123
C151	C	0.839728	0.070015	0.000128
C152	C	1.339728	0.570015	0.500128
C153	C	0.667605	0.178170	0.000082
C154	C	1.167605	0.678170	0.500082
C155	C	0.668369	0.241385	0.000068
C156	C	1.168369	0.741385	0.500068
N157	N	0.706527	0.108207	0.248846
N158	N	1.206527	0.608207	0.748846
C159	C	0.583134	-0.015242	0.600621
C160	C	1.083134	0.484758	1.100621
C161	C	0.596948	-0.001422	0.701125
C162	C	1.096948	0.498578	1.201125
C163	C	0.665628	0.067294	0.701111
C164	C	1.165628	0.567294	1.201111
C165	C	0.651822	0.053477	0.600605
C166	C	1.151822	0.553477	1.100605
C167	C	0.610574	0.012209	0.550368
C168	C	1.110574	0.512209	1.050368
C169	C	0.679262	0.080929	0.550353
C170	C	1.179262	0.580929	1.050353
C171	C	0.665455	0.067115	0.449855
C172	C	1.165455	0.567115	0.949855
C173	C	0.624207	0.025850	0.399611
C174	C	1.124207	0.525850	0.899611
C175	C	0.596766	-0.001605	0.449871
C176	C	1.096766	0.498395	0.949871
C177	C	0.720507	0.122200	0.600592
C178	C	1.220507	0.622200	1.100592
C179	C	0.747947	0.149651	0.550339
C180	C	1.247947	0.649651	1.050339
C181	C	0.734143	0.135835	0.449840
C182	C	1.234143	0.635835	0.949840
C183	C	0.692895	0.094569	0.399596
C184	C	1.192895	0.594569	0.899596
C185	C	0.761583	0.163289	0.399580
C186	C	1.261583	0.663289	0.899580
C187	C	0.747776	0.149475	0.299083
C188	C	1.247776	0.649475	0.799083
C189	C	0.679087	0.080756	0.299098
C190	C	1.179087	0.580756	0.799098
N191	N	0.638186	0.039839	0.751364
N192	N	1.138186	0.539839	1.251364
H193	H	0.521165	0.099672	0.157983
H194	H	1.021165	0.599672	0.657983
Cl195	Cl	0.787095	-0.648169	0.000107
Cl196	Cl	1.287095	-0.148169	0.500107
H197	H	0.819135	-0.392035	0.000129
H198	H	1.319135	0.107965	0.500129
Cl199	Cl	0.278348	0.113786	0.283590
Cl200	Cl	0.778348	0.613786	0.783590
H201	H	0.152156	0.107028	0.245048
H202	H	0.652156	0.607028	0.745048
H203	H	0.817842	-0.499782	0.000111
H204	H	1.317842	0.000218	0.500111
H205	H	-0.068701	0.049676	-0.157788
H206	H	0.431299	0.549676	0.342212
H207	H	0.084832	0.039690	-0.244833
H208	H	0.584832	0.539690	0.255167
Cl209	Cl	0.792037	-0.235752	0.000133
Cl210	Cl	1.292037	0.264248	0.500133
H211	H	0.699212	0.100896	0.742028
H212	H	1.199212	0.600896	1.242028
Cl213	Cl	0.785480	-0.782244	0.000088
Cl214	Cl	1.285480	-0.282244	0.500088
H215	H	-0.025289	0.093083	0.158032
H216	H	0.474711	0.593083	0.658032
H217	H	0.580779	-0.193769	0.000121
H218	H	1.080779	0.306231	0.500121
H219	H	-0.133054	0.091782	0.158030
H220	H	0.366946	0.591782	0.658030
Cl221	Cl	0.737864	0.139566	0.726933
Cl222	Cl	1.237864	0.639566	1.226933
Cl223	Cl	0.485622	0.051123	-0.196368
Cl224	Cl	0.985622	0.551123	0.303632
Cl225	Cl	0.200436	0.035843	-0.283382
Cl226	Cl	0.700436	0.535843	0.216618
Cl227	Cl	0.559233	-0.069711	0.000104
Cl228	Cl	1.059233	0.430289	0.500104
Cl229	Cl	0.782280	0.183978	0.235903
Cl230	Cl	1.282280	0.683978	0.735903
Cl231	Cl	0.793640	-0.101692	0.000164
Cl232	Cl	1.293640	0.398308	0.500164
H233	H	0.781530	0.183253	0.591256
H234	H	1.281530	0.683253	1.091256
Cl235	Cl	-0.194900	0.042935	-0.196325
Cl236	Cl	0.305100	0.542935	0.303675
Cl237	Cl	0.551075	-0.750249	0.000059
Cl238	Cl	1.051075	-0.250249	0.500059
H239	H	0.413420	0.098368	0.158000
H240	H	0.913420	0.598368	0.658000
H241	H	0.795164	0.196894	0.440499
H242	H	1.295164	0.696894	0.940499
Cl243	Cl	0.351545	0.049514	-0.196367
Cl244	Cl	0.851545	0.549514	0.303633
H245	H	0.575518	-0.632486	0.000053
H246	H	1.075518	-0.132486	0.500053
H247	H	0.525572	-0.459909	0.000022
H248	H	1.025572	0.040091	0.500022
H249	H	0.526867	-0.352160	0.000028
H250	H	1.026867	0.147840	0.500028
H251	H	0.645502	0.047148	0.258192
H252	H	1.145502	0.547148	0.758192
Cl253	Cl	0.606844	0.008486	0.273270
Cl254	Cl	1.106844	0.508486	0.773270
H255	H	0.563181	-0.035212	0.408965
H256	H	1.063181	0.464788	0.908965
Cl257	Cl	0.531297	-0.067142	0.537458
Cl258	Cl	1.031297	0.432858	1.037458
H259	H	0.574598	-0.023778	0.742037
H260	H	1.074598	0.476222	1.242037
