data_functionalizedCrystal
_audit_creation_method	'MofGen! by Chris Wilmer'
_symmetry_space_group_name_H-M	'P1'
_symmetry_Int_Tables_number	1
_symmetry_cell_setting	triclinic
loop_
_symmetry_equiv_pos_as_xyz
  x,y,z
_cell_length_a	19.077068
_cell_length_b	19.805407
_cell_length_c	19.805399
_cell_angle_alpha	89.980427
_cell_angle_beta	92.269429
_cell_angle_gamma	92.327086
loop_
_atom_site_label
_atom_site_type_symbol
_atom_site_fract_x
_atom_site_fract_y
_atom_site_fract_z
Zn1	Zn	-0.280218	1.023904	-0.393534
Zn2	Zn	-0.397917	1.019269	-0.284888
Zn3	Zn	-0.280237	0.910718	-0.280359
Zn4	Zn	-0.397880	0.906134	-0.398033
O5	O	-0.339063	0.965006	-0.339204
O6	O	-0.295839	1.118005	-0.379134
O7	O	-0.382330	1.004848	-0.189571
O8	O	-0.181744	0.929590	-0.291594
O9	O	-0.382312	1.114600	-0.299312
O10	O	-0.181729	1.012748	-0.374743
O11	O	-0.295872	0.925096	-0.186244
O12	O	-0.295835	0.815394	-0.295957
O13	O	-0.382248	0.921778	-0.492152
O14	O	-0.382267	0.812026	-0.382411
O15	O	-0.295802	1.008303	-0.488846
O16	O	-0.496403	1.000404	-0.303675
O17	O	-0.496376	0.917284	-0.386802
C18	C	-0.339050	0.789151	-0.339181
C19	C	-0.339061	0.713918	-0.339188
C20	C	-0.384133	0.676836	-0.384138
C21	C	-0.384135	0.606147	-0.384147
C22	C	-0.339066	0.572543	-0.339204
C23	C	-0.293989	0.609630	-0.294252
C24	C	-0.293985	0.680318	-0.294246
C25	C	-0.294004	0.324556	-0.294275
C26	C	-0.294014	0.253864	-0.294283
C27	C	-0.384154	0.250386	-0.384176
C28	C	-0.384150	0.321073	-0.384170
C29	C	-0.339070	0.358155	-0.339221
C30	C	-0.339069	0.434804	-0.339212
C31	C	-0.339071	0.495895	-0.339209
C32	C	-0.521927	0.957862	-0.346233
C33	C	-0.600157	0.954867	-0.349263
C34	C	-0.636901	0.996770	-0.307443
C35	C	-0.710406	0.993957	-0.310296
C36	C	-0.747167	0.949238	-0.354968
C37	C	-0.710418	0.907333	-0.396793
C38	C	-0.636914	0.910150	-0.393942
C39	C	-0.967002	0.936174	-0.368135
C40	C	-1.040511	0.933359	-0.370981
C41	C	-1.040494	1.019984	-0.284485
C42	C	-0.966989	1.022794	-0.281635
C43	C	-0.930246	0.980892	-0.323463
N44	N	-0.822301	0.946361	-0.357884
N45	N	-0.855113	0.983773	-0.320549
C46	C	-0.155485	0.972197	-0.332161
C47	C	-0.077255	0.975262	-0.329160
C48	C	-0.339019	0.965046	-0.515745
C49	C	-0.339000	0.965063	-0.590976
C50	C	-0.339077	1.141548	-0.339226
C51	C	-0.339083	1.216780	-0.339236
C52	C	-0.293985	1.010118	-0.624600
C53	C	-0.293965	1.010125	-0.695288
C54	C	-0.338963	0.965081	-0.732350
C55	C	-0.383980	0.920022	-0.698721
C56	C	-0.383996	0.920011	-0.628035
C57	C	-0.383914	0.920062	-0.983792
C58	C	-0.383896	0.920078	-1.054484
C59	C	-0.293883	1.010177	-1.051045
C60	C	-0.293899	1.010166	-0.980358
C61	C	-0.338913	0.965104	-0.946736
C62	C	-0.338934	0.965096	-0.870088
C63	C	-0.338947	0.965093	-0.808997
C64	C	-0.339056	0.965008	-0.163347
C65	C	-0.338877	0.965130	-0.088109
H66	H	-0.257309	0.226505	-0.257684
H67	H	-0.257311	1.046815	-0.722661
C68	C	-0.244395	1.059715	-0.939593
N69	N	-0.207104	1.097034	-0.908890
H70	H	-0.420644	0.883316	-0.600659
H71	H	-0.257228	1.046866	-1.078429
C72	C	-0.244420	0.365337	-0.244826
N73	N	-0.207071	0.396055	-0.207577
C74	C	-1.080917	1.066075	-0.238480
N75	N	-1.111363	1.100794	-0.203828
H76	H	-0.740354	0.870925	-0.433168
H77	H	-0.420838	0.575957	-0.420749
H78	H	-0.937092	0.902054	-0.402191
C79	C	-1.080946	0.884166	-0.420129
N80	N	-1.111402	0.847117	-0.457147
H81	H	-0.420540	0.883394	-1.084658
C82	C	-0.596471	1.045963	-0.258298
N83	N	-0.566021	1.083019	-0.221283
C84	C	-0.433428	0.870491	-0.946816
N85	N	-0.470723	0.833150	-0.918964
C86	C	-0.433730	0.358034	-0.433611
N87	N	-0.471072	0.385872	-0.470852
H88	H	-0.420836	0.704191	-0.420734
C89	C	-0.433738	0.209590	-0.433627
N90	N	-0.471084	0.178864	-0.470871
C91	C	-0.596497	0.864054	-0.439949
N92	N	-0.566055	0.829334	-0.474604
C93	C	-0.244482	1.059670	-0.583837
N94	N	-0.207193	1.096992	-0.553137
H95	H	-0.257290	0.582264	-0.257661
C96	C	-0.244403	0.721108	-0.244797
N97	N	-0.207055	0.751831	-0.207551
C98	C	-0.750821	1.040050	-0.264286
N99	N	-0.781261	1.074768	-0.229627
C100	C	-0.433471	0.870466	-0.739493
N101	N	-0.470749	0.833140	-0.770201
H102	H	-0.937060	1.059207	-0.245260
