data_functionalizedCrystal
_audit_creation_method	'MofGen! by Chris Wilmer'
_symmetry_space_group_name_H-M	'P1'
_symmetry_Int_Tables_number	1
_symmetry_cell_setting	triclinic
loop_
_symmetry_equiv_pos_as_xyz
  x,y,z
_cell_length_a	17.699077
_cell_length_b	19.188930
_cell_length_c	16.776229
_cell_angle_alpha	89.988225
_cell_angle_beta	89.993415
_cell_angle_gamma	83.212679
loop_
_atom_site_label
_atom_site_type_symbol
_atom_site_fract_x
_atom_site_fract_y
_atom_site_fract_z
O1	O	1.003965	0.088275	-0.066287
O2	O	0.783571	0.099766	-0.066292
O3	O	0.900128	-0.007628	-0.066273
O4	O	0.887408	0.195669	-0.066305
O5	O	0.900113	-0.007635	0.066303
O6	O	0.783556	0.099760	0.066285
O7	O	1.003950	0.088268	0.066290
Zn8	Zn	0.893750	0.094013	0.087337
Zn9	Zn	0.893770	0.094021	-0.087339
O10	O	0.887393	0.195662	0.066272
C11	C	0.755367	0.099352	-0.000004
C12	C	0.671350	0.098119	-0.000005
C13	C	0.631875	0.097534	0.072263
C14	C	0.552934	0.096364	0.072264
C15	C	0.513469	0.095784	-0.000004
C16	C	0.552950	0.096367	-0.072278
C17	C	0.631890	0.097531	-0.072278
C18	C	0.234592	0.091668	-0.072279
C19	C	0.155646	0.090505	-0.072273
C20	C	0.155637	0.090501	0.072264
C21	C	0.234577	0.091666	0.072263
C22	C	0.274051	0.092244	-0.000010
C23	C	0.359648	0.093512	-0.000010
C24	C	0.427872	0.094522	-0.000005
C25	C	0.899708	-0.033643	0.000017
C26	C	0.898472	-0.111149	0.000024
C27	C	0.966864	-0.155998	0.000029
C28	C	0.965702	-0.228823	0.000016
C29	C	0.896145	-0.256796	0.000014
C30	C	0.827744	-0.211937	0.000004
C31	C	0.828907	-0.139114	0.000009
N32	N	0.842971	-0.364862	0.045131
N33	N	0.841870	-0.434041	0.045129
C34	C	0.892634	-0.476208	-0.000002
N35	N	0.944553	-0.446583	-0.045119
N36	N	0.945656	-0.377398	-0.045113
C37	C	0.894875	-0.335760	0.000009
C38	C	0.959771	-0.600023	-0.000012
C39	C	0.958607	-0.672849	-0.000029
C40	C	0.820646	-0.655962	-0.000033
C41	C	0.821813	-0.583137	-0.000024
C42	C	0.891378	-0.555173	-0.000009
C43	C	1.032154	0.088682	0.000000
C44	C	1.116171	0.089915	-0.000004
C45	C	0.887812	0.221677	-0.000021
C46	C	0.889049	0.299183	-0.000033
N47	N	0.893742	0.094006	0.206548
N48	N	0.893785	0.094022	-0.206550
C49	C	0.945369	0.046472	0.248273
C50	C	0.945373	0.046471	0.331725
C51	C	0.893753	0.094009	0.373451
C52	C	0.842121	0.141546	0.331720
C53	C	0.842113	0.141543	0.248269
C54	C	0.842148	0.141560	0.668267
C55	C	0.842161	0.141561	0.751724
C56	C	0.945408	0.046488	0.751723
C57	C	0.945401	0.046485	0.668272
C58	C	0.893766	0.094019	0.626549
C59	C	0.893761	0.094018	0.536060
C60	C	0.893761	0.094014	0.463938
H61	H	0.520811	0.095889	-0.131120
O62	O	1.034457	-0.128869	-0.000104
C63	C	1.152756	-0.121048	-0.068755
C64	C	1.076227	-0.151805	-0.068710
H65	H	1.186556	-0.139592	-0.124208
H66	H	1.141891	-0.061292	-0.068804
H67	H	1.186501	-0.139531	-0.013245
H68	H	1.042443	-0.133376	-0.124211
H69	H	1.087146	-0.211559	-0.068620
O70	O	1.024996	-0.716490	0.000078
C71	C	1.103753	-0.808501	0.068780
C72	C	1.028532	-0.759128	0.068749
H73	H	1.106643	-0.842976	0.124303
H74	H	1.106675	-0.843050	0.013329
H75	H	1.153657	-0.775988	0.068753
H76	H	0.978585	-0.791585	0.068805
H77	H	1.025676	-0.724577	0.124195
O78	O	0.514700	0.095833	0.142537
C79	C	0.523026	0.095919	0.285903
C80	C	0.566416	0.096539	0.206373
H81	H	0.564821	0.096474	0.337535
H82	H	0.478993	0.144228	0.289560
H83	H	0.493139	0.046541	0.289487
H84	H	0.596349	0.145884	0.202736
H85	H	0.610406	0.048197	0.202750
H86	H	0.773213	-0.102597	0.000005
O87	O	0.791929	0.187644	0.627704
C88	C	0.688546	0.202642	0.533462
C89	C	0.745362	0.150370	0.579371
H90	H	0.650893	0.172527	0.494362
H91	H	0.651602	0.236616	0.577581
H92	H	0.721125	0.237490	0.494413
H93	H	0.712845	0.115476	0.618421
H94	H	0.782305	0.116445	0.535210
O95	O	1.032120	-0.272429	-0.000114
C96	C	1.110860	-0.364472	-0.068758
C97	C	1.035624	-0.315120	-0.068721
H98	H	1.113710	-0.399011	-0.124212
H99	H	1.160809	-0.332012	-0.068799
H100	H	1.113736	-0.398965	-0.013249
H101	H	1.032674	-0.280618	-0.124221
H102	H	0.985710	-0.347623	-0.068639
H103	H	0.266705	0.092141	0.131112
O104	O	1.027409	-0.572968	-0.000047
C105	C	1.164121	-0.597402	-0.000012
C106	C	1.087576	-0.628131	0.000013
H107	H	1.212787	-0.641986	0.000053
H108	H	1.168167	-0.563742	-0.055506
H109	H	1.168073	-0.563719	0.055460
H110	H	1.083573	-0.661846	-0.055422
H111	H	1.083563	-0.661751	0.055544
O112	O	0.670116	0.098134	-0.142551
C113	C	0.661805	0.097978	-0.285917
C114	C	0.618419	0.097314	-0.206389
H115	H	0.620029	0.097301	-0.337551
H116	H	0.691649	0.147378	-0.289592
H117	H	0.705875	0.049693	-0.289480
H118	H	0.574313	0.145566	-0.202772
H119	H	0.588628	0.047882	-0.202748
H120	H	0.764011	-0.678737	-0.000039
O121	O	0.791871	0.187653	0.372216
C122	C	0.660137	0.228742	0.397735
C123	C	0.716961	0.176475	0.351839
H124	H	0.599560	0.219733	0.381265
H125	H	0.668946	0.220580	0.464556
H126	H	0.669845	0.284648	0.381319
H127	H	0.707288	0.120549	0.368189
H128	H	0.708138	0.184698	0.285029
O129	O	0.755306	-0.539667	0.000017
C130	C	0.618348	-0.530605	-0.000033
C131	C	0.693614	-0.579915	-0.000057
H132	H	0.568451	-0.563126	-0.000110
H133	H	0.615387	-0.496115	0.055466
H134	H	0.615492	-0.496062	-0.055500
H135	H	0.696521	-0.614502	0.055372
H136	H	0.696544	-0.614358	-0.055593
H137	H	0.987407	0.007763	0.214306
O138	O	0.995606	0.000277	0.372133
C139	C	1.098005	-0.094036	0.363326
C140	C	1.041164	-0.041749	0.317466
H141	H	1.134843	-0.128037	0.319148
H142	H	1.135761	-0.063960	0.402353
H143	H	1.065448	-0.128852	0.402438
H144	H	1.073659	-0.006919	0.278311
H145	H	1.003409	-0.071868	0.278490
H146	H	0.123487	0.090026	0.131112
O147	O	0.995572	0.000238	0.627865
C148	C	1.098010	-0.094041	0.636674
C149	C	1.041222	-0.041712	0.682533
H150	H	1.134943	-0.127961	0.680853
H151	H	1.065486	-0.128931	0.597645
H152	H	1.135679	-0.063929	0.597564
H153	H	1.003539	-0.071767	0.721686
H154	H	1.073793	-0.006823	0.721512
H155	H	0.800072	0.180250	0.214297
H156	H	0.664001	0.098012	0.131113
H157	H	0.123516	0.090032	-0.131126
H158	H	0.266723	0.092137	-0.131128
H159	H	0.987450	0.007781	0.785704
O160	O	0.760223	-0.239190	-0.000103
C161	C	0.678836	-0.311565	-0.068818
C162	C	0.755339	-0.280762	-0.068782
H163	H	0.674856	-0.345170	-0.124348
H164	H	0.674822	-0.345293	-0.013374
H165	H	0.630164	-0.266986	-0.068783
H166	H	0.804055	-0.325296	-0.068846
H167	H	0.759287	-0.247016	-0.124221
H168	H	0.800123	0.180273	0.785695
