data_functionalizedCrystal
_audit_creation_method	'MofGen! by Chris Wilmer'
_symmetry_space_group_name_H-M	'P1'
_symmetry_Int_Tables_number	1
_symmetry_cell_setting	triclinic
loop_
_symmetry_equiv_pos_as_xyz
  x,y,z
_cell_length_a	9.616153
_cell_length_b	14.044220
_cell_length_c	14.044220
_cell_angle_alpha	93.188878
_cell_angle_beta	89.997039
_cell_angle_gamma	89.997882
loop_
_atom_site_label
_atom_site_type_symbol
_atom_site_fract_x
_atom_site_fract_y
_atom_site_fract_z
O1	O	0.115503	-1.277171	-0.230164
O2	O	0.615503	-0.777171	0.269836
O3	O	0.115538	-1.000500	-0.221858
O4	O	0.615538	-0.500500	0.278142
O5	O	0.115508	-1.134683	-0.087675
O6	O	0.615508	-0.634683	0.412325
O7	O	0.115534	-1.142988	-0.364347
O8	O	0.615534	-0.642988	0.135653
O9	O	-0.115784	-1.134663	-0.087677
O10	O	0.384216	-0.634663	0.412323
O11	O	-0.115753	-1.000480	-0.221860
O12	O	0.384247	-0.500480	0.278140
O13	O	-0.115788	-1.277152	-0.230165
O14	O	0.384212	-0.777152	0.269835
Zn15	Zn	-0.152493	-1.138813	-0.226013
Zn16	Zn	0.347507	-0.638813	0.273987
Zn17	Zn	0.152243	-1.138839	-0.226011
Zn18	Zn	0.652243	-0.638839	0.273989
O19	O	-0.115757	-1.142969	-0.364348
O20	O	0.384243	-0.642969	0.135652
C21	C	-0.000103	-0.964868	-0.218223
C22	C	0.499897	-0.464868	0.281777
C23	C	-0.000090	-0.858725	-0.207379
C24	C	0.499910	-0.358725	0.292621
N25	N	-0.360468	-1.138802	-0.226014
N26	N	0.139532	-0.638802	0.273986
C27	C	-0.000138	-1.131037	-0.052054
C28	C	0.499862	-0.631037	0.447946
C29	C	-0.000139	-1.120193	0.054088
C30	C	0.499861	-0.620193	0.554088
C31	C	-0.580821	-1.066766	-0.297515
C32	C	-0.080821	-0.566766	0.202485
C33	C	-0.419654	-1.066959	-0.297818
C34	C	0.080346	-0.566959	0.202182
C35	C	-0.418927	-1.240260	-0.256196
C36	C	0.081073	-0.740260	0.243804
C37	C	-0.580145	-1.239877	-0.256712
C38	C	-0.080145	-0.739877	0.243288
C39	C	-0.580386	-1.110354	-0.124153
C40	C	-0.080386	-0.610354	0.375847
C41	C	-0.419159	-1.108113	-0.124630
C42	C	0.080841	-0.608113	0.375370
N43	N	0.360218	-1.138857	-0.226003
N44	N	0.860218	-0.638857	0.273997
C45	C	-0.000144	-1.312783	-0.233800
C46	C	0.499856	-0.812783	0.266200
C47	C	-0.000148	-1.418926	-0.244645
C48	C	0.499852	-0.918926	0.255355
C49	C	-0.000120	-0.664388	-0.187553
C50	C	0.499880	-0.164388	0.312447
C51	C	-0.000118	-0.613258	-0.264467
C52	C	0.499882	-0.113258	0.235533
C53	C	-0.000135	-0.505122	-0.253435
C54	C	0.499865	-0.005122	0.246565
C55	C	-0.000103	-0.772534	-0.198583
C56	C	0.499897	-0.272534	0.301417
C57	C	-0.000109	-1.146614	-0.399969
C58	C	0.499891	-0.646614	0.100031
C59	C	-0.000099	-1.157459	-0.506112
C60	C	0.499901	-0.657459	-0.006112
C61	C	-0.000116	-1.100366	0.248426
C62	C	0.499884	-0.600366	0.748426
C63	C	-0.000122	-1.177281	0.299556
C64	C	0.499878	-0.677281	0.799556
C65	C	-0.000109	-1.166249	0.407692
C66	C	0.499891	-0.666249	0.907692
C67	C	-0.000129	-1.111397	0.140280
C68	C	0.499871	-0.611397	0.640280
H69	H	-0.619624	-0.991406	-0.278481
H70	H	-0.119624	-0.491406	0.221519
N71	N	-0.634278	-1.013867	-0.088494
N72	N	-0.134278	-0.513867	0.411506
H73	H	-0.594874	-0.996980	-0.023061
H74	H	-0.094874	-0.496980	0.476939
H75	H	-0.739120	-1.015844	-0.084813
H76	H	-0.239120	-0.515844	0.415187
H77	H	-0.380131	-0.991816	-0.278592
H78	H	0.119869	-0.491816	0.221408
H79	H	-0.000134	-0.626951	-0.113425
H80	H	0.499866	-0.126951	0.386575
H81	H	-0.000104	-0.650697	-0.338600
H82	H	0.499896	-0.150697	0.161400
H83	H	-0.000038	-1.251414	0.262117
H84	H	0.499962	-0.751414	0.762117
N85	N	-0.000102	-1.002172	0.298008
N86	N	0.499898	-0.502172	0.798008
H87	H	-0.000099	-1.008113	0.369348
H88	H	0.499901	-0.508113	0.869348
H89	H	-0.085847	-0.966358	0.278884
H90	H	0.414153	-0.466358	0.778884
N91	N	-0.631815	-1.313654	-0.190939
N92	N	-0.131815	-0.813654	0.309061
H93	H	-0.736845	-1.313982	-0.190764
H94	H	-0.236845	-0.813982	0.309236
H95	H	-0.596619	-1.297680	-0.124202
H96	H	-0.096619	-0.797680	0.375798
H97	H	-0.621315	-1.085632	-0.372487
H98	H	-0.121315	-0.585632	0.127513
H99	H	-0.381069	-1.086031	-0.373224
H100	H	0.118931	-0.586031	0.126776
H101	H	-0.617729	-1.263706	-0.331248
H102	H	-0.117729	-0.763706	0.168752
H103	H	-0.618514	-1.162827	-0.070837
H104	H	-0.118514	-0.662827	0.429163
N105	N	-0.368159	-1.313478	-0.189509
N106	N	0.131841	-0.813478	0.310491
H107	H	-0.306625	-1.281508	-0.138972
H108	H	0.193375	-0.781508	0.361028
H109	H	-0.313475	-1.364348	-0.226836
H110	H	0.186525	-0.864348	0.273164
N111	N	-0.365425	-1.272294	-0.353870
N112	N	0.134575	-0.772294	0.146130
H113	H	-0.303334	-1.221243	-0.378711
H114	H	0.196666	-0.721243	0.121289
H115	H	-0.446536	-1.283848	-0.398713
H116	H	0.053464	-0.783848	0.101287
H117	H	-0.378875	-1.156557	-0.068270
H118	H	0.121125	-0.656557	0.431730
H119	H	-0.380951	-1.033437	-0.101921
H120	H	0.119049	-0.533437	0.398079
