data_functionalizedCrystal
_audit_creation_method	'MofGen! by Chris Wilmer'
_symmetry_space_group_name_H-M	'P1'
_symmetry_Int_Tables_number	1
_symmetry_cell_setting	triclinic
loop_
_symmetry_equiv_pos_as_xyz
  x,y,z
_cell_length_a	12.837943
_cell_length_b	14.853567
_cell_length_c	11.892095
_cell_angle_alpha	93.898435
_cell_angle_beta	85.689438
_cell_angle_gamma	89.231935
loop_
_atom_site_label
_atom_site_type_symbol
_atom_site_fract_x
_atom_site_fract_y
_atom_site_fract_z
O1	O	1.382409	0.229205	-0.093964
O2	O	1.080587	0.217625	-0.093972
O3	O	1.239561	0.092869	-0.093971
O4	O	1.223436	0.353961	-0.093965
O5	O	1.226306	0.103253	0.094036
O6	O	1.067332	0.228009	0.094035
O7	O	1.369154	0.239589	0.094043
Zn8	Zn	1.216139	0.235448	0.123889
Zn9	Zn	1.233603	0.221766	-0.123818
O10	O	1.210181	0.364345	0.094042
C11	C	1.035334	0.218906	0.000031
C12	C	0.920240	0.207240	0.000027
C13	C	0.679482	0.347487	0.000047
C14	C	0.571341	0.336530	0.000045
C15	C	0.595813	0.174369	0.000029
C16	C	0.703955	0.185327	0.000031
C17	C	0.745785	0.271888	0.000038
C18	C	0.853929	0.282844	0.000032
C19	C	0.878399	0.120685	0.000024
C20	C	0.770257	0.109727	0.000022
C21	C	1.232203	0.064410	0.000029
C22	C	1.230014	-0.035860	0.000019
C23	C	1.126324	-0.457187	0.000038
C24	C	1.315188	-0.462449	0.000043
C25	C	1.317247	-0.368241	0.000036
C26	C	1.223843	-0.318502	0.000032
C27	C	1.128380	-0.362970	0.000035
C28	C	1.412707	-0.323765	0.000045
C29	C	1.414770	-0.229551	0.000040
C30	C	1.321366	-0.179810	0.000028
C31	C	1.225899	-0.224285	0.000029
C32	C	1.132495	-0.174546	0.000025
C33	C	1.037028	-0.219019	0.000018
C34	C	1.034976	-0.313230	0.000023
C35	C	1.323418	-0.085599	0.000023
C36	C	1.134551	-0.080329	0.000022
C37	C	1.414408	0.238308	0.000038
C38	C	1.529502	0.249974	0.000034
C39	C	1.217539	0.392804	0.000040
C40	C	1.219728	0.493073	0.000042
N41	N	1.204228	0.244785	0.292943
N42	N	1.245522	0.212422	-0.292873
C43	C	1.328405	0.147396	0.529592
C44	C	1.320087	0.153930	0.647934
C45	C	1.179269	0.264382	0.647971
C46	C	1.187587	0.257848	0.529629
C47	C	1.262159	0.199354	0.470444
C48	C	1.270481	0.192826	0.352100
C49	C	1.129659	0.303272	0.352140
C50	C	1.121341	0.309806	0.470481
H51	H	0.713541	0.417969	0.000051
C52	C	0.724243	0.014516	0.000009
H53	H	0.779221	-0.028939	0.000009
H54	H	0.687184	0.003255	-0.065553
H55	H	0.677947	0.010487	0.065580
H56	H	1.060623	0.357428	0.518684
H57	H	1.075720	0.345582	0.303968
C58	C	0.498412	0.419688	0.000044
H59	H	0.538817	0.472807	0.000040
H60	H	0.451092	0.422406	0.065603
H61	H	0.460345	0.415163	-0.065530
C62	C	1.515444	-0.378472	0.000048
H63	H	1.572592	-0.338494	0.000062
H64	H	1.523189	-0.418955	-0.065515
H65	H	1.513940	-0.411712	0.065618
H66	H	1.492505	-0.193349	0.000043
C67	C	0.951334	0.037522	0.000013
H68	H	1.021731	0.056443	0.000020
H69	H	0.943256	-0.001205	-0.065552
H70	H	0.934021	0.006031	0.065581
C71	C	1.428417	-0.036682	0.000033
H72	H	1.483750	-0.079798	0.000034
H73	H	1.428518	0.003587	0.065592
H74	H	1.437772	-0.003667	-0.065541
H75	H	0.957252	-0.349449	0.000019
H76	H	1.374030	0.111620	0.696089
H77	H	0.561729	0.103900	0.000116
H78	H	1.058490	-0.039837	0.000014
H79	H	0.887985	0.353327	0.000040
C80	C	1.352508	0.128493	0.286991
H81	H	1.347986	0.132049	0.208039
H82	H	1.339806	0.068413	0.306381
H83	H	1.420350	0.145341	0.306377
C84	C	0.934288	-0.164304	0.000016
H85	H	0.877135	-0.204278	0.000019
H86	H	0.935792	-0.131060	-0.065543
H87	H	0.926546	-0.123824	0.065590
C88	C	1.021318	-0.506102	0.000036
H89	H	1.033465	-0.569335	0.000044
H90	H	0.987475	-0.493200	-0.065526
H91	H	0.978237	-0.485956	0.065607
H92	H	1.389131	0.099775	0.481402
C93	C	1.097247	0.328715	0.713088
H94	H	1.101787	0.325164	0.792039
H95	H	1.029406	0.311880	0.693708
H96	H	1.109962	0.388799	0.693703
C97	C	1.417923	-0.517159	0.000050
H98	H	1.403026	-0.579637	0.000047
H99	H	1.452442	-0.499175	0.065609
H100	H	1.461679	-0.506429	-0.065524
