data_functionalizedCrystal
_audit_creation_method	'MofGen! by Chris Wilmer'
_symmetry_space_group_name_H-M	'P1'
_symmetry_Int_Tables_number	1
_symmetry_cell_setting	triclinic
loop_
_symmetry_equiv_pos_as_xyz
  x,y,z
_cell_length_a	8.497367
_cell_length_b	8.497374
_cell_length_c	18.215407
_cell_angle_alpha	90.001682
_cell_angle_beta	90.038963
_cell_angle_gamma	90.038609
loop_
_atom_site_label
_atom_site_type_symbol
_atom_site_fract_x
_atom_site_fract_y
_atom_site_fract_z
Zn1	Zn	0.628561	0.892471	1.125253
Zn2	Zn	0.892307	0.628890	1.125322
Zn3	Zn	0.628509	0.628698	1.002221
Zn4	Zn	0.892268	0.892622	1.002277
O5	O	0.760412	0.760670	1.063768
O6	O	0.663586	0.857523	1.228247
O7	O	0.857309	0.408102	1.108997
O8	O	0.407754	0.663545	1.018489
O9	O	0.857359	0.663872	1.228297
O10	O	0.407792	0.857337	1.108881
O11	O	0.663497	0.407961	1.018555
O12	O	0.663460	0.663691	0.899244
O13	O	0.857292	1.113364	1.018585
O14	O	0.857242	0.857594	0.899285
O15	O	0.663548	1.113253	1.108935
O16	O	1.113065	0.664018	1.109052
O17	O	1.113036	0.857780	1.018652
C18	C	0.760342	0.760639	0.872562
C19	C	0.760350	0.760663	0.790763
C20	C	1.348931	0.760524	1.063717
C21	C	1.170287	0.760813	1.063810
C22	C	0.659708	0.861665	0.525674
C23	C	0.659683	0.861660	0.602533
C24	C	0.861166	0.659709	0.602604
C25	C	0.861198	0.659723	0.525747
C26	C	0.760460	0.760699	0.487284
C27	C	0.760403	0.760680	0.641000
C28	C	0.760376	0.760674	0.724333
C29	C	0.760489	0.760708	0.403945
C30	C	0.760414	1.172150	1.063763
C31	C	0.760431	1.350794	1.063764
C32	C	0.760482	0.760702	1.255721
C33	C	0.760513	0.760716	1.337520
H34	H	0.577681	0.943886	0.494359
H35	H	0.577642	0.943879	0.633786
H36	H	0.943251	0.577503	0.494488
H37	H	0.943180	0.577495	0.633930
