data_functionalizedCrystal
_audit_creation_method	'MofGen! by Chris Wilmer'
_symmetry_space_group_name_H-M	'P1'
_symmetry_Int_Tables_number	1
_symmetry_cell_setting	triclinic
loop_
_symmetry_equiv_pos_as_xyz
  x,y,z
_cell_length_a	12.759401
_cell_length_b	12.759400
_cell_length_c	14.908308
_cell_angle_alpha	93.269141
_cell_angle_beta	93.280065
_cell_angle_gamma	90.014916
loop_
_atom_site_label
_atom_site_type_symbol
_atom_site_fract_x
_atom_site_fract_y
_atom_site_fract_z
Zn1	Zn	1.571944	-0.452519	-0.510058
Zn2	Zn	1.581986	-0.618088	-0.359208
Zn3	Zn	1.406393	-0.442425	-0.359221
Zn4	Zn	1.396237	-0.628155	-0.510022
O5	O	1.489140	-0.535297	-0.434627
O6	O	1.720297	-0.474494	-0.490056
O7	O	1.567146	-0.586348	-0.232968
O8	O	1.428401	-0.296744	-0.379251
O9	O	1.727675	-0.596136	-0.379228
O10	O	1.550031	-0.304161	-0.490070
O11	O	1.438139	-0.457289	-0.232978
O12	O	1.258025	-0.467051	-0.379216
O13	O	1.411093	-0.613295	-0.636268
O14	O	1.250564	-0.603506	-0.490008
O15	O	1.540184	-0.484256	-0.636295
O16	O	1.557299	-0.766443	-0.379193
O17	O	1.420830	-0.773839	-0.489995
C18	C	1.216174	-0.535277	-0.434610
C19	C	1.099396	-0.535295	-0.434624
C20	C	1.048385	-0.598521	-0.376837
C21	C	0.938660	-0.598540	-0.376853
C22	C	0.930967	-0.472098	-0.492446
C23	C	1.040690	-0.472085	-0.492434
C24	C	1.107091	-0.661730	-0.319028
C25	C	1.056080	-0.724961	-0.261235
C26	C	0.946355	-0.724980	-0.261251
C27	C	0.887641	-0.661769	-0.319059
C28	C	1.489079	-0.808263	-0.434608
C29	C	1.489147	-0.925041	-0.434630
C30	C	1.560277	-0.976021	-0.376999
C31	C	1.560339	-1.085747	-0.377027
C32	C	1.418134	-1.093503	-0.492320
C33	C	1.418077	-0.983780	-0.492296
C34	C	1.631347	-0.917282	-0.319334
C35	C	1.702482	-0.968262	-0.261697
C36	C	1.702544	-1.077988	-0.261725
C37	C	1.631472	-1.136734	-0.319390
C38	C	1.763172	-0.535318	-0.434645
C39	C	1.879948	-0.535327	-0.434652
C40	C	1.473385	-0.551024	-0.669930
C41	C	1.466671	-0.557726	-0.770202
C42	C	1.489229	-0.261266	-0.434666
C43	C	1.489267	-0.144491	-0.434682
C44	C	1.588475	-0.435928	-0.958653
C45	C	1.582170	-0.442221	-1.052868
C46	C	1.447752	-0.576601	-1.052847
C47	C	1.454057	-0.570308	-0.958633
C48	C	1.524422	-0.499970	-0.911539
C49	C	1.530731	-0.493682	-0.817323
C50	C	1.396309	-0.628056	-0.817304
C51	C	1.390004	-0.634349	-0.911519
C52	C	1.504894	-0.519555	-0.200240
C53	C	1.511812	-0.512557	-0.099968
H54	H	0.904824	-0.776473	-0.214199
C55	C	1.120659	-0.794494	-0.197652
C56	C	1.241351	-0.794477	-0.197629
C57	C	1.305927	-0.864013	-0.134045
C58	C	1.249812	-0.933567	-0.070484
C59	C	1.129114	-0.933587	-0.070504
C60	C	1.064538	-0.864050	-0.134088
H61	H	1.282896	-0.742986	-0.244683
H62	H	1.395276	-0.863998	-0.134030
H63	H	1.297616	-0.985042	-0.023415
H64	H	1.087568	-0.985077	-0.023450
H65	H	0.975189	-0.864066	-0.134103
C66	C	0.866388	-0.402560	-0.556025
C67	C	0.881976	-0.282629	-0.548837
C68	C	0.817399	-0.213086	-0.612414
C69	C	0.737233	-0.263473	-0.683179
C70	C	0.721642	-0.383410	-0.690370
C71	C	0.786219	-0.452954	-0.626793
H72	H	0.941322	-0.245324	-0.496450
H73	H	0.828941	-0.124300	-0.607091
H74	H	0.689430	-0.211993	-0.730243
H75	H	0.662295	-0.420715	-0.742757
H76	H	0.774676	-0.541739	-0.632116
C77	C	1.325833	-0.698509	-0.765488
C78	C	1.205534	-0.690794	-0.778451
C79	C	1.135059	-0.761249	-0.726640
C80	C	1.184884	-0.839418	-0.661866
C81	C	1.305189	-0.847136	-0.648900
C82	C	1.375664	-0.776681	-0.700711
H83	H	1.168645	-0.632926	-0.826403
H84	H	1.046001	-0.755535	-0.736238
H85	H	1.132714	-0.891573	-0.623512
H86	H	1.342078	-0.905004	-0.600948
H87	H	1.464722	-0.782395	-0.691113
H88	H	1.082225	-0.420598	-0.539487
C89	C	1.780662	-0.903647	-0.198274
C90	C	1.780598	-0.782955	-0.198238
C91	C	1.858782	-0.718343	-0.134814
C92	C	1.937030	-0.774424	-0.071425
C93	C	1.937096	-0.895123	-0.071458
C94	C	1.858912	-0.959734	-0.134882
H95	H	1.722672	-0.741435	-0.245164
H96	H	1.858732	-0.628994	-0.134790
H97	H	1.994906	-0.726594	-0.024475
H98	H	1.995023	-0.936643	-0.024532
H99	H	1.858962	-1.049084	-0.134907
H100	H	1.588028	-0.436411	-0.778980
C101	C	1.780794	-1.134067	-0.198332
C102	C	1.779168	-1.112185	-0.095767
C103	C	1.857417	-1.168260	-0.032368
C104	C	1.937292	-1.246217	-0.071535
C105	C	1.938921	-1.268102	-0.174105
C106	C	1.860671	-1.212027	-0.237504
H107	H	1.720037	-1.054474	-0.066769
H108	H	1.856211	-1.152059	0.043561
H109	H	1.995217	-1.287727	-0.024603
H110	H	1.998052	-1.325813	-0.203104
H111	H	1.861877	-1.228228	-0.313434
C112	C	1.339953	-1.158120	-0.555742
C113	C	1.340011	-1.278812	-0.555766
C114	C	1.261827	-1.343427	-0.619187
C115	C	1.183585	-1.287351	-0.682583
C116	C	1.183523	-1.166653	-0.682561
C117	C	1.261708	-1.102038	-0.619140
H118	H	1.397934	-1.320329	-0.508835
H119	H	1.261873	-1.432776	-0.619204
H120	H	1.125708	-1.335183	-0.729531
H121	H	1.125601	-1.125136	-0.729493
H122	H	1.261662	-1.012689	-0.619124
C123	C	1.665876	-0.358565	-0.906842
C124	C	1.656477	-0.239994	-0.919803
C125	C	1.733880	-0.162631	-0.867993
C126	C	1.820682	-0.203840	-0.803221
C127	C	1.830084	-0.322418	-0.790257
C128	C	1.752681	-0.399781	-0.842067
H129	H	1.592219	-0.209483	-0.967754
H130	H	1.726920	-0.074852	-0.877590
H131	H	1.877980	-0.146572	-0.764868
H132	H	1.894342	-0.352929	-0.742306
H133	H	1.759641	-0.487560	-0.832470
H134	H	1.196435	-0.661720	-0.319007
H135	H	1.360158	-0.942272	-0.539225
H136	H	0.798295	-0.661797	-0.319073
H137	H	1.631301	-0.827938	-0.319302
H138	H	1.631537	-1.226081	-0.319415
H139	H	1.634326	-0.390069	-1.091224
H140	H	1.390464	-0.633866	-1.091207
H141	H	1.332713	-0.691614	-0.949875
