data_functionalizedCrystal
_audit_creation_method	'MofGen! by Chris Wilmer'
_symmetry_space_group_name_H-M	'P1'
_symmetry_Int_Tables_number	1
_symmetry_cell_setting	triclinic
loop_
_symmetry_equiv_pos_as_xyz
  x,y,z
_cell_length_a	14.519731
_cell_length_b	14.519709
_cell_length_c	14.586319
_cell_angle_alpha	89.995260
_cell_angle_beta	89.996401
_cell_angle_gamma	83.684499
loop_
_atom_site_label
_atom_site_type_symbol
_atom_site_fract_x
_atom_site_fract_y
_atom_site_fract_z
O1	O	1.223854	0.120984	-0.076244
O2	O	1.557188	0.454317	0.257089
O3	O	1.890521	0.787650	0.590422
O4	O	0.955380	0.135200	-0.076246
O5	O	1.288713	0.468533	0.257087
O6	O	1.622047	0.801866	0.590421
O7	O	1.096735	-0.006146	-0.076237
O8	O	1.430069	0.327187	0.257096
O9	O	1.763402	0.660520	0.590430
O10	O	1.082499	0.262330	-0.076253
O11	O	1.415832	0.595663	0.257080
O12	O	1.749166	0.928996	0.590413
O13	O	1.096725	-0.006148	0.076244
O14	O	1.430059	0.327185	0.409577
O15	O	1.763392	0.660518	0.742911
O16	O	0.955370	0.135198	0.076235
O17	O	1.288703	0.468531	0.409568
O18	O	1.622037	0.801864	0.742901
O19	O	1.223844	0.120982	0.076236
O20	O	1.557178	0.454315	0.409570
O21	O	1.890511	0.787648	0.742903
Cu22	Cu	1.089606	0.128089	0.090158
Cu23	Cu	1.422940	0.461423	0.423492
Cu24	Cu	1.756273	0.794756	0.756825
Cu25	Cu	1.089618	0.128092	-0.090168
Cu26	Cu	1.422951	0.461425	0.243165
Cu27	Cu	1.756285	0.794758	0.576499
O28	O	1.082489	0.262327	0.076227
O29	O	1.415822	0.595661	0.409561
O30	O	1.749156	0.928994	0.742894
C31	C	0.921016	0.134532	-0.000006
C32	C	1.254349	0.467866	0.333328
C33	C	1.587682	0.801199	0.666661
C34	C	0.818635	0.132536	-0.000006
C35	C	1.151969	0.465870	0.333327
C36	C	1.485302	0.799203	0.666661
C37	C	0.735491	0.130915	-0.000010
C38	C	1.068825	0.464248	0.333324
C39	C	1.402158	0.797581	0.666657
C40	C	0.631182	0.128888	-0.000010
C41	C	0.964516	0.462221	0.333323
C42	C	1.297849	0.795555	0.666657
C43	C	0.548043	0.127280	-0.000010
C44	C	0.881377	0.460613	0.333324
C45	C	1.214710	0.793946	0.666657
C46	C	0.443728	0.125253	-0.000012
C47	C	0.777061	0.458586	0.333322
C48	C	1.110395	0.791920	0.666655
C49	C	1.096067	-0.040507	0.000004
C50	C	1.429400	0.292826	0.333337
C51	C	1.762734	0.626160	0.666670
C52	C	1.094079	-0.142889	0.000004
C53	C	1.427412	0.190445	0.333338
C54	C	1.760745	0.523778	0.666671
C55	C	1.086759	-0.517785	-0.000020
C56	C	1.420093	-0.184452	0.333314
C57	C	1.753426	0.148882	0.666647
C58	C	1.088792	-0.413477	-0.000013
C59	C	1.422125	-0.080143	0.333321
C60	C	1.755459	0.253190	0.666654
C61	C	1.090419	-0.330340	-0.000007
C62	C	1.423752	0.002993	0.333326
C63	C	1.757085	0.336327	0.666660
C64	C	1.092452	-0.226025	-0.000002
C65	C	1.425785	0.107308	0.333332
C66	C	1.759118	0.440641	0.666665
C67	C	1.258209	0.121649	-0.000006
C68	C	1.591542	0.454982	0.333328
C69	C	1.924875	0.788315	0.666661
C70	C	1.360589	0.123645	-0.000011
C71	C	1.693922	0.456978	0.333322
C72	C	2.027256	0.790311	0.666655
C73	C	1.083157	0.296688	-0.000015
C74	C	1.416491	0.630022	0.333318
C75	C	1.749824	0.963355	0.666651
C76	C	1.085146	0.399070	-0.000022
C77	C	1.418479	0.732403	0.333312
C78	C	1.751812	1.065736	0.666645
N79	N	1.089605	0.128087	0.216990
N80	N	1.422938	0.461420	0.550323
N81	N	1.756272	0.794754	0.883657
N82	N	1.089627	0.128087	-0.217000
N83	N	1.422960	0.461420	0.116334
N84	N	1.756293	0.794754	0.449667
C85	C	1.152218	0.065520	0.452001
C86	C	1.485551	0.398853	0.785334
C87	C	1.818884	0.732187	1.118667
C88	C	1.152220	0.065518	0.547982
C89	C	1.485554	0.398851	0.881315
C90	C	1.818887	0.732185	1.214649
C91	C	1.027007	0.190657	0.547983
C92	C	1.360340	0.523990	0.881317
C93	C	1.693674	0.857323	1.214650
C94	C	1.027001	0.190654	0.452004
C95	C	1.360334	0.523987	0.785337
C96	C	1.693667	0.857321	1.118670
C97	C	1.089611	0.128087	0.404015
C98	C	1.422945	0.461420	0.737348
C99	C	1.756278	0.794753	1.070682
C100	C	1.089620	0.128087	0.595976
C101	C	1.422954	0.461421	0.929309
C102	C	1.756287	0.794754	1.262642
C103	C	1.089623	0.128085	0.700043
C104	C	1.422956	0.461419	1.033376
C105	C	1.756289	0.794752	1.366709
C106	C	1.089608	0.128087	0.299941
C107	C	1.422941	0.461420	0.633274
C108	C	1.756275	0.794754	0.966608
H109	H	1.203198	0.014573	0.412930
H110	H	1.536531	0.347906	0.746264
H111	H	1.869864	0.681239	1.079597
H112	H	1.203199	0.014570	0.587049
H113	H	1.536532	0.347903	0.920383
H114	H	1.869866	0.681236	1.253716
H115	H	0.976015	0.241603	0.412931
H116	H	1.309348	0.574937	0.746264
H117	H	1.642681	0.908270	1.079598
H118	H	0.976032	0.241599	0.587065
H119	H	1.309366	0.574932	0.920399
H120	H	1.642699	0.908266	1.253732
