data_functionalizedCrystal
_audit_creation_method	'MofGen! by Chris Wilmer'
_symmetry_space_group_name_H-M	'P1'
_symmetry_Int_Tables_number	1
_symmetry_cell_setting	triclinic
loop_
_symmetry_equiv_pos_as_xyz
  x,y,z
_cell_length_a	10.654550
_cell_length_b	10.654550
_cell_length_c	9.730223
_cell_angle_alpha	89.998541
_cell_angle_beta	90.007970
_cell_angle_gamma	84.484917
loop_
_atom_site_label
_atom_site_type_symbol
_atom_site_fract_x
_atom_site_fract_y
_atom_site_fract_z
O1	O	1.667842	0.176395	0.114389
O2	O	1.302363	0.193201	0.114365
O3	O	1.493505	0.002059	0.114383
O4	O	1.476699	0.367537	0.114371
O5	O	1.493488	0.002060	-0.114197
O6	O	1.302346	0.193202	-0.114215
O7	O	1.667824	0.176396	-0.114191
Zn8	Zn	1.485082	0.184799	-0.150495
Zn9	Zn	1.485105	0.184798	0.150669
O10	O	1.476682	0.367538	-0.114209
C11	C	1.255556	0.191968	0.000073
C12	C	1.116113	0.188276	0.000064
C13	C	1.492263	-0.044739	0.000098
C14	C	1.488571	-0.184182	0.000110
N15	N	1.485076	0.184800	-0.356031
C16	C	1.036628	0.300817	0.000081
C17	C	0.905607	0.297341	0.000104
C18	C	0.933570	0.068771	0.000102
C19	C	1.064588	0.072249	0.000068
C20	C	1.020482	0.432780	0.000088
C21	C	0.889461	0.429304	0.000112
C22	C	1.714631	0.177630	0.000105
C23	C	1.854074	0.181321	0.000122
C24	C	1.477925	0.414336	0.000080
C25	C	1.481617	0.553779	0.000076
C26	C	1.369075	0.633265	0.000072
C27	C	1.372551	0.764286	0.000094
C28	C	1.601121	0.736322	0.000118
C29	C	1.597643	0.605304	0.000106
C30	C	1.400427	0.269400	-0.428000
C31	C	1.400452	0.269397	-0.571883
C32	C	1.569779	0.100184	-0.571815
C33	C	1.569759	0.100193	-0.427935
C34	C	1.302664	0.367090	-0.428041
C35	C	1.302689	0.367088	-0.571924
N36	N	1.485121	0.184788	0.356205
H37	H	1.129302	-0.019393	0.000035
H38	H	0.847736	0.479025	0.095778
H39	H	0.843782	0.469185	-0.098574
Cl40	Cl	1.231064	0.864206	0.000096
H41	H	1.695586	0.778290	0.000129
Cl42	Cl	1.223214	0.568495	0.000041
Cl43	Cl	1.065766	0.512467	-0.147606
H44	H	1.689294	0.540583	0.000114
H45	H	0.891602	-0.025694	0.000126
H46	H	1.638698	0.031316	-0.369339
Cl47	Cl	1.075554	0.497652	0.152449
Cl48	Cl	1.676232	-0.006173	-0.662217
Cl49	Cl	1.335756	0.516132	-0.367750
H50	H	1.211475	0.336504	-0.383439
H51	H	1.333212	0.458304	-0.616546
Cl52	Cl	1.153697	0.333863	-0.632269
