data_functionalizedCrystal
_audit_creation_method	'MofGen! by Chris Wilmer'
_symmetry_space_group_name_H-M	'P1'
_symmetry_Int_Tables_number	1
_symmetry_cell_setting	triclinic
loop_
_symmetry_equiv_pos_as_xyz
  x,y,z
_cell_length_a	15.995292
_cell_length_b	15.944493
_cell_length_c	14.472310
_cell_angle_alpha	90.004804
_cell_angle_beta	89.985801
_cell_angle_gamma	83.471830
loop_
_atom_site_label
_atom_site_type_symbol
_atom_site_fract_x
_atom_site_fract_y
_atom_site_fract_z
O1	O	1.111010	0.108034	-0.076854
O2	O	0.867227	0.121456	-0.076849
O3	O	0.995801	-0.007535	-0.076859
O4	O	0.982436	0.237025	-0.076843
O5	O	0.995768	-0.007527	0.076823
O6	O	0.867193	0.121463	0.076833
O7	O	1.110977	0.108042	0.076828
Cu8	Cu	0.989082	0.114753	0.090863
Cu9	Cu	0.989122	0.114744	-0.090884
O10	O	0.982403	0.237032	0.076839
C11	C	0.836014	0.120913	-0.000007
C12	C	0.743062	0.119276	-0.000006
C13	C	0.405324	0.113255	-0.000017
C14	C	0.428623	0.206357	-0.000354
C15	C	0.525298	0.208127	-0.000003
C16	C	0.572880	0.116242	-0.000012
C17	C	0.543766	0.069700	0.087742
C18	C	0.446976	0.068579	0.087812
C19	C	0.447158	0.066670	-0.086954
C20	C	0.543650	0.070120	-0.088109
C21	C	0.667576	0.117926	-0.000006
C22	C	0.310629	0.111569	-0.000016
C23	C	0.995238	-0.038826	-0.000022
C24	C	0.993600	-0.132074	-0.000034
C25	C	1.069282	-0.367854	-0.000018
C26	C	1.028486	-0.418415	-0.075790
C27	C	0.990566	-0.302794	-0.000022
C28	C	1.028435	-0.418384	0.075729
C29	C	0.987641	-0.467703	-0.000007
C30	C	0.949791	-0.352127	-0.075857
C31	C	0.949752	-0.352092	0.075730
C32	C	0.908898	-0.402620	-0.000061
C33	C	0.992253	-0.207795	-0.000032
C34	C	0.985947	-0.562700	-0.000004
C35	C	1.142189	0.108584	-0.000015
C36	C	1.235142	0.110222	-0.000023
C37	C	0.982966	0.268323	-0.000000
C38	C	0.984603	0.361572	0.000005
N39	N	0.989061	0.114759	0.218694
N40	N	0.989150	0.114732	-0.218714
C41	C	0.989120	0.114741	0.592785
C42	C	0.920092	0.183530	0.553625
C43	C	0.920251	0.183781	0.446537
C44	C	0.989090	0.114750	0.407194
C45	C	1.076454	0.133875	0.446031
C46	C	1.076066	0.134364	0.553153
C47	C	0.971564	0.026623	0.553309
C48	C	0.969560	0.027211	0.446182
C49	C	0.989079	0.114753	0.302306
C50	C	0.989138	0.114739	0.697673
H51	H	0.432435	0.000317	0.091792
Cl52	Cl	0.383791	0.261464	0.096267
Cl53	Cl	1.079761	-0.463058	0.174627
Cl54	Cl	1.042152	-0.055524	0.404853
H55	H	1.137087	-0.352243	-0.000095
H56	H	1.061743	-0.447373	-0.139851
Cl57	Cl	0.937525	0.284749	0.406959
H58	H	0.916581	-0.323301	-0.139984
Cl59	Cl	0.804134	-0.426476	-0.000119
Cl60	Cl	0.898467	-0.307337	0.174642
H61	H	1.021903	-0.024567	0.578632
H62	H	0.418841	0.095767	-0.153467
H63	H	0.576632	0.003054	-0.093416
Cl64	Cl	1.100918	0.231961	0.404606
H65	H	0.855312	0.172389	0.420281
H66	H	0.562229	0.104007	-0.153029
H67	H	0.854942	0.172326	0.579413
H68	H	0.931147	0.248553	0.580538
Cl69	Cl	0.425575	-0.039135	-0.087878
Cl70	Cl	0.592973	-0.034695	0.092770
Cl71	Cl	0.553689	0.264745	0.097296
H72	H	1.091539	0.198627	0.578132
Cl73	Cl	1.157676	0.059869	0.593148
Cl74	Cl	1.157657	0.058578	0.406687
H75	H	0.909242	0.008229	0.580377
H76	H	0.905294	0.012697	0.420800
H77	H	0.544332	0.244572	-0.062911
H78	H	0.563806	0.102027	0.153054
H79	H	0.400635	0.242240	-0.063286
H80	H	0.420140	0.100819	0.153415
