data_functionalizedCrystal
_audit_creation_method	'MofGen! by Chris Wilmer'
_symmetry_space_group_name_H-M	'P1'
_symmetry_Int_Tables_number	1
_symmetry_cell_setting	triclinic
loop_
_symmetry_equiv_pos_as_xyz
  x,y,z
_cell_length_a	13.635800
_cell_length_b	10.992421
_cell_length_c	11.229568
_cell_angle_alpha	88.397275
_cell_angle_beta	109.423284
_cell_angle_gamma	71.235237
loop_
_atom_site_label
_atom_site_type_symbol
_atom_site_fract_x
_atom_site_fract_y
_atom_site_fract_z
V1	V	2.061067	-0.177783	0.393682
O2	O	2.040056	0.008520	0.386206
O3	O	2.049829	-0.352492	0.390972
O4	O	2.051583	-0.175059	0.565389
O5	O	2.038290	-0.170142	0.210583
V6	V	2.299294	-0.155498	0.371784
O7	O	2.199448	-0.226668	0.441717
O8	O	2.386012	-0.106614	0.323749
O9	O	2.198929	0.019211	0.374494
O10	O	2.379004	-0.341801	0.379260
O11	O	2.380769	-0.163140	0.554884
O12	O	2.197175	-0.158223	0.200078
V13	V	2.561067	-0.177783	0.393682
O14	O	2.540056	0.008520	0.386206
O15	O	2.549829	-0.352492	0.390972
O16	O	2.551583	-0.175059	0.565389
O17	O	2.538290	-0.170142	0.210583
V18	V	2.799294	-0.155498	0.371784
O19	O	2.699448	-0.226668	0.441717
O20	O	2.886012	-0.106614	0.323749
O21	O	2.698929	0.019211	0.374494
O22	O	2.879004	-0.341801	0.379260
O23	O	2.880769	-0.163140	0.554884
O24	O	2.697175	-0.158223	0.200078
C25	C	1.975007	-0.395082	0.384757
C26	C	2.006560	-0.537909	0.383686
C27	C	1.940306	-0.733195	0.375051
C28	C	1.907271	-0.584551	0.375665
C29	C	2.040685	-0.576537	0.265932
C30	C	2.072791	-0.725081	0.264685
C31	C	2.140961	-0.763676	0.506075
C32	C	2.106460	-0.615163	0.508629
C33	C	1.977243	-0.168747	0.607241
C34	C	2.010216	-0.167675	0.747612
C35	C	2.105422	0.061794	0.380706
C36	C	2.063489	0.204619	0.381785
C37	C	2.112443	-0.173291	0.816303
C38	C	2.146525	-0.172184	0.961384
C39	C	2.475007	-0.395082	0.384757
C40	C	2.506560	-0.537909	0.383686
C41	C	2.106670	-0.164541	1.158219
C42	C	2.073697	-0.165613	1.017848
C43	C	2.550623	-0.619028	0.493099
C44	C	2.583236	-0.766647	0.491995
C45	C	2.477243	-0.168747	0.607241
C46	C	2.510216	-0.167675	0.747612
C47	C	2.605422	0.061794	0.380706
C48	C	2.563489	0.204619	0.381785
C49	C	2.603186	-0.164539	0.158219
C50	C	2.559832	-0.165604	0.017847
C51	C	2.612443	-0.173291	0.816303
C52	C	2.646525	-0.172184	0.961384
H53	H	1.879552	-0.558792	0.459805
F54	F	2.632622	-0.857738	0.614435
F55	F	2.693866	-0.180651	0.752790
F56	F	2.568365	-0.566963	0.616609
H57	H	2.447924	-0.162039	0.796208
F58	F	2.193866	-0.180651	0.752790
F59	F	2.517934	-0.721792	0.259183
F60	F	2.135878	-0.537017	0.267701
H61	H	2.492973	-0.577746	0.289196
F62	F	1.928791	-0.160310	0.811125
H63	H	2.234104	-0.176998	1.020435
F64	F	2.459225	-0.159339	0.940680
F65	F	1.924518	-0.793881	0.484341
H66	H	1.986119	-0.160813	0.958808
F67	F	2.761000	-0.178476	1.038563
F68	F	1.999157	-0.747970	0.142481
H69	H	1.881511	-0.753750	0.285417
F70	F	1.808926	-0.515993	0.258411
H71	H	2.160894	-0.765963	0.264499
F72	F	1.947596	-0.505640	0.145027
H73	H	2.138684	-0.813198	0.595176
H74	H	2.181482	-0.584956	0.521780
F75	F	2.075576	-0.583948	0.622504
H76	H	2.230947	-0.804793	0.512246
