data_functionalizedCrystal
_audit_creation_method	'MofGen! by Chris Wilmer'
_symmetry_space_group_name_H-M	'P1'
_symmetry_Int_Tables_number	1
_symmetry_cell_setting	triclinic
loop_
_symmetry_equiv_pos_as_xyz
  x,y,z
_cell_length_a	8.559649
_cell_length_b	8.559649
_cell_length_c	9.730223
_cell_angle_alpha	90.000781
_cell_angle_beta	89.999834
_cell_angle_gamma	69.778664
loop_
_atom_site_label
_atom_site_type_symbol
_atom_site_fract_x
_atom_site_fract_y
_atom_site_fract_z
O1	O	2.126873	-0.055041	-0.114285
O2	O	1.651388	0.028740	-0.114287
O3	O	1.931021	-0.250893	-0.114284
O4	O	1.847240	0.224592	-0.114287
O5	O	1.931018	-0.250886	0.114296
O6	O	1.651384	0.028747	0.114293
O7	O	2.126869	-0.055034	0.114295
Zn8	Zn	1.889126	-0.013143	0.150586
Zn9	Zn	1.889131	-0.013151	-0.150578
O10	O	1.847236	0.224599	0.114292
C11	C	1.591077	0.035093	0.000003
C12	C	1.411378	0.053992	0.000002
C13	C	1.937369	-0.311198	0.000003
C14	C	1.956268	-0.490898	-0.000005
C15	C	2.187180	-0.061387	0.000002
C16	C	2.366879	-0.080286	-0.000006
C17	C	1.840889	0.284904	0.000002
C18	C	1.821990	0.464604	0.000001
N19	N	1.889135	-0.013139	0.356122
N20	N	1.889137	-0.013169	-0.356114
C21	C	2.012980	-0.136927	0.428049
C22	C	2.012978	-0.136946	0.571932
C23	C	1.765280	0.110625	0.571949
C24	C	1.765276	0.110636	0.428068
C25	C	2.155991	-0.279856	0.428041
C26	C	2.155990	-0.279876	0.571924
H27	H	1.692570	-0.436018	0.000005
O28	O	1.279742	0.225427	-0.000001
H29	H	1.294083	0.294073	-0.093166
O30	O	2.316448	-0.264694	0.623677
H31	H	2.423289	-0.371554	0.585601
O32	O	1.498517	-0.251734	0.000020
H33	H	1.577248	-0.266920	-0.093129
H34	H	2.085696	-0.590286	0.000007
O35	O	1.631707	0.244146	0.649539
H36	H	1.561251	0.185492	0.715097
O37	O	1.631695	0.244141	0.350483
H38	H	1.545584	0.330212	0.424687
O39	O	2.305317	-0.247982	0.368929
H40	H	2.262724	-0.133781	0.304758
O41	O	2.140950	-0.440374	0.376289
H42	H	2.133572	-0.518963	0.465060
H43	H	2.132018	-0.392663	0.616540
