data_functionalizedCrystal
_audit_creation_method	'MofGen! by Chris Wilmer'
_symmetry_space_group_name_H-M	'P1'
_symmetry_Int_Tables_number	1
_symmetry_cell_setting	triclinic
loop_
_symmetry_equiv_pos_as_xyz
  x,y,z
_cell_length_a	17.077404
_cell_length_b	16.625546
_cell_length_c	17.077396
_cell_angle_alpha	90.030215
_cell_angle_beta	90.019501
_cell_angle_gamma	90.022693
loop_
_atom_site_label
_atom_site_type_symbol
_atom_site_fract_x
_atom_site_fract_y
_atom_site_fract_z
Zn1	Zn	1.200057	-0.320997	0.443833
Zn2	Zn	1.700057	0.179003	0.943833
Zn3	Zn	1.199965	-0.455839	0.312563
Zn4	Zn	1.699965	0.044161	0.812563
Zn5	Zn	1.068789	-0.321025	0.312581
Zn6	Zn	1.568789	0.178975	0.812581
Zn7	Zn	1.068758	-0.455792	0.443787
Zn8	Zn	1.568758	0.044208	0.943787
O9	O	1.134392	-0.388413	0.378191
O10	O	1.634392	0.111587	0.878191
O11	O	1.309892	-0.338892	0.426432
O12	O	1.809892	0.161108	0.926432
O13	O	1.182539	-0.437988	0.202719
O14	O	1.682539	0.062012	0.702719
O15	O	1.086253	-0.208189	0.330019
O16	O	1.586253	0.291811	0.830019
O17	O	1.309824	-0.437960	0.329988
O18	O	1.809824	0.062040	0.829988
O19	O	1.182695	-0.208168	0.426449
O20	O	1.682695	0.291832	0.926449
O21	O	1.086164	-0.338940	0.202732
O22	O	1.586164	0.161060	0.702732
O23	O	0.958938	-0.338894	0.329974
O24	O	1.458938	0.161106	0.829974
O25	O	1.086200	-0.437879	0.553640
O26	O	1.586200	0.062121	1.053640
O27	O	0.958915	-0.437906	0.426370
O28	O	1.458915	0.062094	0.926370
O29	O	1.182665	-0.338846	0.553674
O30	O	1.682665	0.161154	1.053674
O31	O	1.182509	-0.568666	0.329943
O32	O	1.682509	-0.068666	0.829943
O33	O	1.086111	-0.568630	0.426353
O34	O	1.586111	-0.068630	0.926353
C35	C	0.930444	-0.388399	0.378169
C36	C	1.430444	0.111601	0.878169
C37	C	0.843194	-0.388412	0.378179
C38	C	1.343194	0.111588	0.878179
C39	C	0.802213	-0.440045	0.428292
C40	C	1.302213	0.059955	0.928292
C41	C	0.720232	-0.440047	0.428304
C42	C	1.220232	0.059953	0.928304
C43	C	0.679235	-0.388419	0.378199
C44	C	1.179235	0.111581	0.878199
C45	C	0.720222	-0.336780	0.328084
C46	C	1.220222	0.163220	0.828084
C47	C	0.802201	-0.336774	0.328076
C48	C	1.302201	0.163226	0.828076
C49	C	0.549352	-0.336795	0.328103
C50	C	1.049352	0.163205	0.828103
C51	C	0.467368	-0.336801	0.328110
C52	C	0.967368	0.163199	0.828110
C53	C	0.467383	-0.440068	0.428331
C54	C	0.967383	0.059932	0.928331
C55	C	0.549362	-0.440063	0.428323
C56	C	1.049362	0.059937	0.928323
C57	C	0.590344	-0.388425	0.378207
C58	C	1.090344	0.111575	0.878207
C59	C	1.134318	-0.597904	0.378158
C60	C	1.634318	-0.097904	0.878158
C61	C	1.134358	-0.687525	0.378170
C62	C	1.634358	-0.187525	0.878170
C63	C	1.134495	-1.015701	0.378252
C64	C	1.634495	-0.515701	0.878252
C65	C	1.134454	-0.924392	0.378232
C66	C	1.634454	-0.424392	0.878232
C67	C	1.134426	-0.851616	0.378211
C68	C	1.634426	-0.351616	0.878211
C69	C	1.134386	-0.760302	0.378191
C70	C	1.634386	-0.260302	0.878191
C71	C	1.339136	-0.388428	0.378213
C72	C	1.839136	0.111572	0.878213
C73	C	1.426386	-0.388435	0.378223
C74	C	1.926386	0.111565	0.878223
C75	C	1.134440	-0.388354	0.582936
C76	C	1.634440	0.111646	1.082936
C77	C	1.134460	-0.388329	0.670185
C78	C	1.634460	0.111671	1.170185
C79	C	1.134488	-0.178104	0.378241
C80	C	1.634488	0.321896	0.878241
C81	C	1.134529	-0.088483	0.378263
C82	C	1.634529	0.411517	0.878263
C83	C	1.134390	-0.388414	0.174243
C84	C	1.634390	0.111586	0.674243
C85	C	1.134522	-0.388212	0.086994
C86	C	1.634522	0.111788	0.586994
C87	C	1.184691	-0.336758	0.711195
C88	C	1.684691	0.163242	1.211195
C89	C	1.184700	-0.336731	0.793175
C90	C	1.684700	0.163269	1.293175
C91	C	1.134482	-0.388280	0.834145
C92	C	1.634482	0.111720	1.334145
C93	C	1.084245	-0.439853	0.793130
C94	C	1.584245	0.060147	1.293130
C95	C	1.084233	-0.439875	0.711151
C96	C	1.584233	0.060125	1.211151
C97	C	1.084277	-0.439804	0.964000
C98	C	1.584277	0.060196	1.464000
C99	C	1.084291	-0.439783	1.045985
C100	C	1.584291	0.060217	1.545985
C101	C	1.184745	-0.336660	1.046024
C102	C	1.684745	0.163340	1.546024
C103	C	1.184732	-0.336682	0.964045
C104	C	1.684732	0.163318	1.464045
C105	C	1.134496	-0.388257	0.923036
C106	C	1.634496	0.111743	1.423036
H107	H	0.433990	-0.294752	0.287319
H108	H	0.933990	0.205248	0.787319
O109	O	0.589068	-0.490241	0.477067
O110	O	1.089068	0.009759	0.977067
C111	C	0.535319	-0.535834	0.521289
C112	C	1.035319	-0.035834	1.021289
H113	H	0.476892	-0.502818	0.524075
H114	H	0.976892	-0.002818	1.024075
H115	H	0.559034	-0.544514	0.583117
H116	H	1.059034	-0.044514	1.083117
H117	H	0.526570	-0.597034	0.492436
H118	H	1.026570	-0.097034	0.992436
O119	O	1.233430	-0.286487	0.924289
O120	O	1.733430	0.213513	1.424289
C121	C	1.216321	-0.206123	0.944361
C122	C	1.716321	0.293877	1.444361
H123	H	1.153615	-0.202049	0.966885
H124	H	1.653615	0.297951	1.466885
H125	H	1.223091	-0.166297	0.890464
H126	H	1.723091	0.333703	1.390464
H127	H	1.258420	-0.185039	0.991963
H128	H	1.758420	0.314961	1.491963
O129	O	1.233651	-0.286642	1.085825
O130	O	1.733651	0.213358	1.585825
C131	C	1.311876	-0.304263	1.065796
C132	C	1.811876	0.195737	1.565796
H133	H	1.315807	-0.368684	1.043245
H134	H	1.815807	0.131316	1.543245
H135	H	1.350663	-0.297307	1.119721
H136	H	1.850663	0.202693	1.619721
H137	H	1.332412	-0.261049	1.018227
H138	H	1.832412	0.238951	1.518227
O139	O	0.842101	-0.286733	0.279356
O140	O	1.342101	0.213267	0.779356
C141	C	0.889471	-0.332570	0.228560
C142	C	1.389471	0.167430	0.728560
H143	H	0.901742	-0.393711	0.256136
H144	H	1.401742	0.106289	0.756136
H145	H	0.947126	-0.299711	0.218095
H146	H	1.447126	0.200289	0.718095
H147	H	0.857850	-0.341354	0.170374
H148	H	1.357850	0.158646	0.670374
H149	H	1.043397	-0.481757	1.079340
H150	H	1.543397	0.018243	1.579340
O151	O	1.035532	-0.490093	0.671342
O152	O	1.535532	0.009907	1.171342
C153	C	1.052647	-0.570448	0.691371
C154	C	1.552647	-0.070448	1.191371
H155	H	1.115357	-0.574511	0.713925
H156	H	1.615357	-0.074511	1.213925
H157	H	1.045870	-0.610296	0.637445
H158	H	1.545870	-0.110296	1.137445
H159	H	1.010557	-0.591515	0.738938
H160	H	1.510557	-0.091515	1.238938
O161	O	1.233527	-0.286744	0.833103
O162	O	1.733527	0.213256	1.333103
C163	C	1.284222	-0.332636	0.880516
C164	C	1.784222	0.167364	1.380516
H165	H	1.256515	-0.393737	0.892773
H166	H	1.756515	0.106263	1.392773
H167	H	1.294753	-0.299775	0.938175
H168	H	1.794753	0.200225	1.438175
H169	H	1.342391	-0.341502	0.848940
H170	H	1.842391	0.158498	1.348940
H171	H	0.582717	-0.294739	0.287300
H172	H	1.082717	0.205261	0.787300
H173	H	0.686836	-0.294739	0.287291
H174	H	1.186836	0.205261	0.787291
O175	O	1.035350	-0.489842	0.832890
O176	O	1.535350	0.010158	1.332890
C177	C	0.957120	-0.472233	0.812834
C178	C	1.457120	0.027767	1.312834
H179	H	0.953182	-0.407824	0.790317
H180	H	1.453182	0.092176	1.290317
H181	H	0.918345	-0.479164	0.866738
H182	H	1.418345	0.020836	1.366738
H183	H	0.936574	-0.515471	0.765232
H184	H	1.436574	-0.015471	1.265232
O185	O	0.841913	-0.490224	0.477039
O186	O	1.341913	0.009776	0.977039
C187	C	0.788158	-0.535809	0.521260
C188	C	1.288158	-0.035809	1.021260
H189	H	0.729733	-0.502790	0.524039
H190	H	1.229733	-0.002790	1.024039
H191	H	0.811867	-0.544488	0.583091
H192	H	1.311867	-0.044488	1.083091
H193	H	0.779407	-0.597011	0.492410
H194	H	1.279407	-0.097011	0.992410
O195	O	0.680333	-0.490245	0.476870
O196	O	1.180333	0.009755	0.976870
C197	C	0.632889	-0.542273	0.432085
C198	C	1.132889	-0.042273	0.932085
H199	H	0.620595	-0.513752	0.372650
H200	H	1.120595	-0.013752	0.872650
H201	H	0.575250	-0.553124	0.464042
H202	H	1.075250	-0.053124	0.964042
H203	H	0.664457	-0.602014	0.423348
H204	H	1.164457	-0.102014	0.923348
O205	O	0.427457	-0.490151	0.476994
O206	O	0.927457	0.009849	0.976994
C207	C	0.346309	-0.479098	0.466249
C208	C	0.846309	0.020902	0.966249
H209	H	0.335121	-0.416839	0.440654
H210	H	0.835121	0.083161	0.940654
H211	H	0.315180	-0.484648	0.525042
H212	H	0.815180	0.015352	1.025042
H213	H	0.323008	-0.526869	0.424365
H214	H	0.823008	-0.026869	0.924365
O215	O	1.233499	-0.286607	0.671521
O216	O	1.733499	0.213393	1.171521
C217	C	1.277849	-0.241097	0.725301
C218	C	1.777849	0.258903	1.225301
H219	H	1.245706	-0.238288	0.783733
H220	H	1.745706	0.261712	1.283733
H221	H	1.286247	-0.177575	0.701634
H222	H	1.786247	0.322425	1.201634
H223	H	1.337454	-0.270625	0.734024
H224	H	1.837454	0.229375	1.234024
O225	O	1.035466	-0.489993	0.924284
O226	O	1.535466	0.010007	1.424284
C227	C	0.991139	-0.535482	0.978022
C228	C	1.491139	-0.035482	1.478022
H229	H	1.023292	-0.538241	1.036469
H230	H	1.523292	-0.038241	1.536469
H231	H	0.982757	-0.599022	0.954324
H232	H	1.482757	-0.099022	1.454324
H233	H	0.931526	-0.505968	0.986725
H234	H	1.431526	-0.005968	1.486725
