data_functionalizedCrystal
_audit_creation_method	'MofGen! by Chris Wilmer'
_symmetry_space_group_name_H-M	'P1'
_symmetry_Int_Tables_number	1
_symmetry_cell_setting	triclinic
loop_
_symmetry_equiv_pos_as_xyz
  x,y,z
_cell_length_a	25.639242
_cell_length_b	25.639240
_cell_length_c	18.215399
_cell_angle_alpha	89.962783
_cell_angle_beta	89.972127
_cell_angle_gamma	90.027658
loop_
_atom_site_label
_atom_site_type_symbol
_atom_site_fract_x
_atom_site_fract_y
_atom_site_fract_z
Zn1	Zn	0.799279	-0.208227	-0.416226
Zn2	Zn	1.299279	0.291773	0.083774
Zn3	Zn	0.799202	-0.295663	-0.293140
Zn4	Zn	1.299202	0.204337	0.206860
Zn5	Zn	0.711846	-0.208236	-0.293156
Zn6	Zn	1.211846	0.291764	0.206844
Zn7	Zn	0.711810	-0.295626	-0.416148
Zn8	Zn	1.211810	0.204374	0.083852
O9	O	0.755534	-0.251938	-0.354668
O10	O	1.255534	0.248062	0.145332
O11	O	0.872434	-0.219838	-0.399925
O12	O	1.372434	0.280162	0.100075
O13	O	0.787597	-0.284085	-0.190158
O14	O	1.287597	0.215915	0.309842
O15	O	0.723491	-0.135070	-0.309522
O16	O	1.223491	0.364930	0.190478
O17	O	0.872377	-0.284077	-0.309494
O18	O	1.372377	0.215923	0.190506
O19	O	0.787728	-0.135063	-0.399940
O20	O	1.287728	0.364937	0.100060
O21	O	0.723417	-0.219853	-0.190170
O22	O	1.223417	0.280147	0.309830
O23	O	0.638676	-0.219816	-0.309445
O24	O	1.138676	0.280184	0.190555
O25	O	0.723430	-0.284013	-0.519142
O26	O	1.223430	0.215987	-0.019142
O27	O	0.638649	-0.284021	-0.399807
O28	O	1.138649	0.215979	0.100193
O29	O	0.787693	-0.219801	-0.519200
O30	O	1.287693	0.280199	-0.019200
O31	O	0.787562	-0.368823	-0.309418
O32	O	1.287562	0.131177	0.190582
O33	O	0.723355	-0.368796	-0.399791
O34	O	1.223355	0.131204	0.100209
C35	C	0.755460	-0.387781	-0.354610
C36	C	1.255460	0.112219	0.145390
C37	C	0.755476	-0.445895	-0.354610
C38	C	1.255476	0.054105	0.145390
C39	C	0.619692	-0.251916	-0.354620
C40	C	1.119692	0.248084	0.145380
C41	C	0.561578	-0.251919	-0.354617
C42	C	1.061578	0.248081	0.145383
C43	C	0.310389	-0.218451	-0.307698
C44	C	0.810389	0.281549	0.192302
C45	C	0.364993	-0.218446	-0.307689
C46	C	0.864993	0.281554	0.192311
O47	O	0.393234	-0.189959	-0.267755
O48	O	0.893234	0.310041	0.232245
N49	N	0.392304	-0.251926	-0.354654
N50	N	0.892304	0.248074	0.145346
C51	C	0.365007	-0.285409	-0.401636
C52	C	0.865007	0.214591	0.098364
O53	O	0.393250	-0.313885	-0.441584
O54	O	0.893250	0.186115	0.058416
C55	C	0.310403	-0.285410	-0.401649
C56	C	0.810403	0.214590	0.098351
C57	C	0.283096	-0.251932	-0.354676
C58	C	0.783096	0.248068	0.145324
C59	C	0.283082	-0.184975	-0.260729
C60	C	0.783082	0.315025	0.239271
C61	C	0.228481	-0.184981	-0.260737
C62	C	0.728481	0.315019	0.239263
C63	C	0.201188	-0.218462	-0.307715
C64	C	0.701188	0.281538	0.192285
C65	C	0.228495	-0.251938	-0.354684
C66	C	0.728495	0.248062	0.145316
C67	C	0.283107	-0.318890	-0.448635
C68	C	0.783107	0.181110	0.051365
C69	C	0.228500	-0.318889	-0.448644
C70	C	0.728500	0.181111	0.051356
C71	C	0.201193	-0.285411	-0.401670
C72	C	0.701193	0.214589	0.098330
C73	C	0.146602	-0.285425	-0.401670
C74	C	0.646602	0.214575	0.098330
N75	N	0.119292	-0.251945	-0.354705
N76	N	0.619292	0.248055	0.145295
C77	C	0.146585	-0.218464	-0.307728
C78	C	0.646585	0.281536	0.192272
C79	C	0.479677	-0.285402	-0.401608
C80	C	0.979677	0.214598	0.098392
C81	C	0.534280	-0.285403	-0.401592
C82	C	1.034280	0.214597	0.098408
C83	C	0.534263	-0.218439	-0.307645
C84	C	1.034263	0.281561	0.192355
C85	C	0.479659	-0.218441	-0.307657
C86	C	0.979659	0.281559	0.192343
C87	C	0.452367	-0.251922	-0.354642
C88	C	0.952367	0.248078	0.145358
C89	C	0.031920	-0.218479	-0.307749
C90	C	0.531920	0.281521	0.192251
C91	C	-0.022686	-0.218489	-0.307759
C92	C	0.477314	0.281511	0.192241
C93	C	-0.022664	-0.285450	-0.401709
C94	C	0.477336	0.214550	0.098291
C95	C	0.031937	-0.285442	-0.401696
C96	C	0.531937	0.214558	0.098304
C97	C	0.059227	-0.251952	-0.354713
C98	C	0.559227	0.248048	0.145287
O99	O	0.118326	-0.313896	-0.441585
O100	O	0.618326	0.186104	0.058415
O101	O	0.118335	-0.189987	-0.267794
O102	O	0.618335	0.310013	0.232206
C103	C	0.788999	-0.806216	-0.401834
C104	C	1.288999	-0.306216	0.098166
C105	C	0.789014	-0.860820	-0.401849
C106	C	1.289014	-0.360820	0.098151
O107	O	0.817428	-0.889021	-0.441941
O108	O	1.317428	-0.389021	0.058059
N109	N	0.755607	-0.888177	-0.354739
N110	N	1.255607	-0.388177	0.145261
C111	C	0.722178	-0.860927	-0.307616
C112	C	1.222178	-0.360927	0.192384
O113	O	0.693763	-0.889210	-0.267547
O114	O	1.193763	-0.389210	0.232453
C115	C	0.722160	-0.806323	-0.307605
C116	C	1.222160	-0.306323	0.192395
C117	C	0.755574	-0.778969	-0.354713
C118	C	1.255574	-0.278969	0.145287
C119	C	0.822409	-0.778862	-0.448938
C120	C	1.322409	-0.278862	0.051062
C121	C	0.822394	-0.724261	-0.448922
C122	C	1.322394	-0.224261	0.051078
C123	C	0.788969	-0.697015	-0.401801
C124	C	1.288969	-0.197015	0.098199
C125	C	0.755559	-0.724369	-0.354697
C126	C	1.255559	-0.224369	0.145303
C127	C	0.688729	-0.779074	-0.260487
C128	C	1.188729	-0.279074	0.239513
C129	C	0.688714	-0.724467	-0.260481
C130	C	1.188714	-0.224467	0.239519
C131	C	0.722127	-0.697113	-0.307588
C132	C	1.222127	-0.197113	0.192412
C133	C	0.722119	-0.642522	-0.307560
C134	C	1.222119	-0.142522	0.192440
N135	N	0.755526	-0.615165	-0.354670
N136	N	1.255526	-0.115165	0.145330
C137	C	0.788951	-0.642411	-0.401791
C138	C	1.288951	-0.142411	0.098209
C139	C	0.722217	-0.975597	-0.307643
C140	C	1.222217	-0.475597	0.192357
C141	C	0.722237	-1.030200	-0.307650
C142	C	1.222237	-0.530200	0.192350
C143	C	0.789073	-1.030089	-0.401883
C144	C	1.289073	-0.530089	0.098117
C145	C	0.789055	-0.975486	-0.401872
C146	C	1.289055	-0.475486	0.098128
C147	C	0.755624	-0.948241	-0.354753
C148	C	1.255624	-0.448241	0.145247
C149	C	0.788918	-0.527746	-0.401753
C150	C	1.288918	-0.027746	0.098247
C151	C	0.788902	-0.473141	-0.401730
C152	C	1.288902	0.026859	0.098270
C153	C	0.722064	-0.473256	-0.307500
C154	C	1.222064	0.026744	0.192500
C155	C	0.722082	-0.527857	-0.307519
C156	C	1.222082	-0.027857	0.192481
C157	C	0.755511	-0.555101	-0.354652
C158	C	1.255511	-0.055101	0.145348
O159	O	0.693717	-0.614286	-0.267491
O160	O	1.193717	-0.114286	0.232509
O161	O	0.817357	-0.614122	-0.441860
O162	O	1.317357	-0.114122	0.058140
C163	C	0.891907	-0.251961	-0.354716
C164	C	1.391907	0.248039	0.145284
C165	C	0.950021	-0.251970	-0.354737
C166	C	1.450021	0.248030	0.145263
C167	C	0.755566	-0.251902	-0.546621
C168	C	1.255566	0.248098	-0.046621
C169	C	0.755580	-0.251887	-0.628420
C170	C	1.255580	0.248113	-0.128420
C171	C	0.755623	-0.115565	-0.354742
C172	C	1.255623	0.384435	0.145258
C173	C	0.755660	-0.057451	-0.354773
C174	C	1.255660	0.442549	0.145227
C175	C	0.789054	-0.218421	-0.816645
C176	C	1.289054	0.281579	-0.316645
C177	C	0.789060	-0.218405	-0.893504
C178	C	1.289060	0.281595	-0.393504
C179	C	0.722142	-0.285272	-0.893432
C180	C	1.222142	0.214728	-0.393432
C181	C	0.722134	-0.285284	-0.816575
C182	C	1.222134	0.214716	-0.316575
C183	C	0.755593	-0.251859	-0.778183
C184	C	1.255593	0.248141	-0.278183
C185	C	0.755607	-0.251832	-0.931899
C186	C	1.255607	0.248168	-0.431899
C187	C	0.755614	-0.251815	-1.015233
C188	C	1.255614	0.248185	-0.515233
C189	C	0.755585	-0.251875	-0.694844
C190	C	1.255585	0.248125	-0.194844
C191	C	0.755532	-0.251936	-0.163461
C192	C	1.255532	0.248064	0.336539
C193	C	0.755620	-0.251804	-0.081663
C194	C	1.255620	0.248196	0.418337
H195	H	-0.044917	-0.191226	-0.269506
H196	H	0.455083	0.308774	0.230494
H197	H	0.694851	-0.451064	-0.269132
H198	H	1.194851	0.048936	0.230868
H199	H	0.556495	-0.191176	-0.269394
H200	H	1.056495	0.308824	0.230606
C201	C	0.825838	-1.060071	-0.453723
C202	C	1.325838	-0.560071	0.046277
N203	N	0.853527	-1.082655	-0.492766
N204	N	1.353527	-0.582655	0.007234
H205	H	0.694882	-0.312513	-0.785259
H206	H	1.194882	0.187487	-0.285259
H207	H	0.661489	-0.702287	-0.222111
H208	H	1.161489	-0.202287	0.277889
C209	C	0.685483	-1.060283	-0.255822
C210	C	1.185483	-0.560283	0.244178
N211	N	0.657797	-1.082940	-0.216786
N212	N	1.157797	-0.582940	0.283214
C213	C	0.564311	-0.322237	-0.453259
C214	C	1.064311	0.177763	0.046741
N215	N	0.586930	-0.349980	-0.492179
N216	N	1.086930	0.150020	0.007821
C217	C	0.198450	-0.148144	-0.209073
C218	C	0.698450	0.351856	0.290927
N219	N	0.175834	-0.120394	-0.170161
N220	N	0.675834	0.379606	0.329839
C221	C	0.825854	-0.181648	-0.774417
C222	C	1.325854	0.318352	-0.274417
N223	N	0.853572	-0.153947	-0.742612
N224	N	1.353572	0.346053	-0.242612
C225	C	0.825810	-0.945402	-0.453697
C226	C	1.325810	-0.445402	0.046303
N227	N	0.853495	-0.922745	-0.492735
N228	N	1.353495	-0.422745	0.007265
C229	C	0.825695	-0.557707	-0.453596
C230	C	1.325695	-0.057707	0.046404
N231	N	0.853398	-0.580272	-0.492640
N232	N	1.353398	-0.080272	0.007360
C233	C	0.449661	-0.322244	-0.453286
C234	C	0.949661	0.177756	0.046714
N235	N	0.427055	-0.349996	-0.492208
N236	N	0.927055	0.150004	0.007792
H237	H	0.305298	-0.157707	-0.222474
H238	H	0.805298	0.342293	0.277526
H239	H	0.816306	-0.191175	-0.924816
H240	H	1.316306	0.308825	-0.424816
H241	H	0.305332	-0.346152	-0.486886
H242	H	0.805332	0.153848	0.013114
C243	C	0.198482	-0.355724	-0.500330
C244	C	0.698482	0.144276	-0.000330
N245	N	0.175874	-0.383469	-0.539257
N246	N	0.675874	0.116531	-0.039257
C247	C	0.859154	-0.694179	-0.500742
C248	C	1.359154	-0.194179	-0.000742
N249	N	0.886844	-0.671524	-0.539775
N250	N	1.386844	-0.171524	-0.039775
H251	H	0.054133	-0.191205	-0.269494
H252	H	0.554133	0.308795	0.230506
C253	C	0.061975	-0.322271	-0.453367
C254	C	0.561975	0.177729	0.046633
N255	N	0.084597	-0.350007	-0.492292
N256	N	0.584597	0.149993	0.007708
H257	H	0.694903	-0.312486	-0.924700
H258	H	1.194903	0.187514	-0.424700
C259	C	0.685440	-0.945632	-0.255802
C260	C	1.185440	-0.445632	0.244198
N261	N	0.657738	-0.923065	-0.216756
N262	N	1.157738	-0.423065	0.283244
H263	H	0.457429	-0.191178	-0.269410
H264	H	0.957429	0.308822	0.230590
H265	H	0.816113	-0.450871	-0.440091
H266	H	1.316113	0.049129	0.059909
C267	C	-0.052697	-0.322277	-0.453384
C268	C	0.447303	0.177723	0.046616
N269	N	-0.075319	-0.350012	-0.492310
N270	N	0.424681	0.149988	0.007690
H271	H	0.849628	-0.801040	-0.487314
H272	H	1.349628	-0.301040	0.012686
C273	C	0.651967	-0.809152	-0.208669
C274	C	1.151967	-0.309152	0.291331
N275	N	0.624274	-0.831805	-0.169638
N276	N	1.124274	-0.331805	0.330362
H277	H	0.694878	-0.550130	-0.269154
H278	H	1.194878	-0.050130	0.230846
