data_functionalizedCrystal
_audit_creation_method	'MofGen! by Chris Wilmer'
_symmetry_space_group_name_H-M	'P1'
_symmetry_Int_Tables_number	1
_symmetry_cell_setting	triclinic
loop_
_symmetry_equiv_pos_as_xyz
  x,y,z
_cell_length_a	10.540539
_cell_length_b	10.540510
_cell_length_c	9.616153
_cell_angle_alpha	90.007129
_cell_angle_beta	89.999906
_cell_angle_gamma	95.480599
loop_
_atom_site_label
_atom_site_type_symbol
_atom_site_fract_x
_atom_site_fract_y
_atom_site_fract_z
O1	O	0.178715	-1.685914	-0.115647
O2	O	0.195611	-1.316496	-0.115647
O3	O	0.002456	-1.509633	-0.115646
O4	O	0.371870	-1.492777	-0.115649
O5	O	0.002460	-1.509607	0.115646
O6	O	0.195615	-1.316470	0.115644
O7	O	0.178719	-1.685887	0.115644
Zn8	Zn	0.187168	-1.501174	0.152367
Zn9	Zn	0.187162	-1.501209	-0.152370
O10	O	0.371874	-1.492750	0.115642
C11	C	-0.044845	-1.508356	-0.000002
C12	C	-0.185793	-1.504574	-0.000010
C13	C	0.194354	-1.269179	-0.000002
C14	C	0.190587	-1.128229	-0.000002
C15	C	0.179976	-1.733204	-0.000004
C16	C	0.183743	-1.874154	-0.000013
C17	C	-0.369204	-1.359655	-0.000529
C18	C	-0.222587	-1.363489	-0.000008
C19	C	-0.247456	-1.572455	0.132069
C20	C	-0.394000	-1.567640	0.132180
C21	C	-0.394523	-1.570540	-0.130841
C22	C	-0.247541	-1.571840	-0.132588
C23	C	0.419175	-1.494028	-0.000004
C24	C	0.560123	-1.497810	-0.000006
C25	C	0.324771	-0.910774	-0.000535
C26	C	0.328789	-1.057370	-0.000005
C27	C	0.119843	-1.083454	0.132074
C28	C	0.116804	-0.936693	0.132176
C29	C	0.113921	-0.936918	-0.130845
C30	C	0.120476	-1.083259	-0.132583
N31	N	0.187171	-1.501160	0.360341
N32	N	0.187149	-1.501234	-0.360344
C33	C	0.290149	-1.397529	0.580710
C34	C	0.290535	-1.397757	0.419543
C35	C	0.217290	-1.633885	0.418790
C36	C	0.218019	-1.633320	0.580008
C37	C	0.053735	-1.473387	0.580254
C38	C	0.054600	-1.470341	0.419027
H39	H	-0.179979	-1.310075	-0.094688
Br40	Br	-0.047703	-1.165032	-0.145875
Br41	Br	0.206221	-1.131037	-0.295446
H42	H	0.378611	-0.868831	-0.095255
H43	H	-0.225112	-1.676064	0.136980
Br44	Br	0.414008	-0.838238	0.156433
H45	H	-0.025728	-1.540868	0.378733
H46	H	0.168976	-1.114297	0.230365
Br47	Br	-0.473252	-1.740387	-0.132325
Br48	Br	-0.447088	-1.494441	-0.297696
Br49	Br	-0.059024	-0.900006	-0.132327
H50	H	0.144318	-1.712941	0.380439
Br51	Br	-0.416858	-1.266774	-0.158399
H52	H	-0.204849	-1.525279	0.230358
H53	H	0.165154	-0.896466	0.230904
Br54	Br	0.260421	-1.233362	0.353674
Br55	Br	0.186569	-0.866034	-0.297700
Br56	Br	-0.055470	-0.898356	0.142265
H57	H	0.272307	-1.298602	0.619521
Br58	Br	-0.178611	-1.489764	-0.295470
H59	H	-0.223331	-1.674702	-0.140563
Br60	Br	0.421592	-1.104706	0.158067
H61	H	-0.441979	-1.669106	0.138172
H62	H	0.031770	-1.372701	0.380827
H63	H	0.384133	-1.086726	-0.094686
Br64	Br	0.454200	-1.426986	0.648176
Br65	Br	-0.049742	-1.162418	0.140261
Br66	Br	0.455529	-1.427530	0.355226
H67	H	-0.422192	-1.517450	0.230912
Br68	Br	-0.420145	-1.266851	0.155972
Br69	Br	0.380248	-1.673914	0.642664
Br70	Br	0.377686	-1.675392	0.351472
Br71	Br	0.097700	-1.765775	0.645002
H72	H	0.025066	-1.378649	0.620991
H73	H	-0.180823	-1.309679	0.094829
Br74	Br	-0.074042	-1.599412	0.643780
