data_functionalizedCrystal
_audit_creation_method	'MofGen! by Chris Wilmer'
_symmetry_space_group_name_H-M	'P1'
_symmetry_Int_Tables_number	1
_symmetry_cell_setting	triclinic
loop_
_symmetry_equiv_pos_as_xyz
  x,y,z
_cell_length_a	25.639240
_cell_length_b	21.395362
_cell_length_c	21.395355
_cell_angle_alpha	90.043940
_cell_angle_beta	89.973484
_cell_angle_gamma	89.951367
loop_
_atom_site_label
_atom_site_type_symbol
_atom_site_fract_x
_atom_site_fract_y
_atom_site_fract_z
Zn1	Zn	-0.207990	-0.957851	-0.354551
Zn2	Zn	0.125344	-0.624517	-0.021217
Zn3	Zn	0.458677	-0.291184	0.312116
Zn4	Zn	-0.295409	-0.957749	-0.249759
Zn5	Zn	0.037924	-0.624416	0.083575
Zn6	Zn	0.371257	-0.291083	0.416908
Zn7	Zn	-0.208014	-0.853066	-0.249752
Zn8	Zn	0.125319	-0.519732	0.083581
Zn9	Zn	0.458653	-0.186399	0.416915
Zn10	Zn	-0.295420	-0.853031	-0.354463
Zn11	Zn	0.037913	-0.519698	-0.021130
Zn12	Zn	0.371246	-0.186364	0.312203
O13	O	-0.251708	-0.905424	-0.302131
O14	O	0.081625	-0.572091	0.031202
O15	O	0.414958	-0.238757	0.364535
O16	O	-0.219571	-1.045515	-0.340689
O17	O	0.113762	-0.712182	-0.007356
O18	O	0.447095	-0.378848	0.325977
O19	O	-0.283822	-0.943835	-0.162080
O20	O	0.049511	-0.610502	0.171253
O21	O	0.382845	-0.277168	0.504587
O22	O	-0.134846	-0.867022	-0.263688
O23	O	0.198488	-0.533689	0.069646
O24	O	0.531821	-0.200356	0.402979
O25	O	-0.283798	-1.045441	-0.263699
O26	O	0.049535	-0.712107	0.069634
O27	O	0.382868	-0.378774	0.402968
O28	O	-0.134828	-0.944007	-0.340683
O29	O	0.198506	-0.610674	-0.007349
O30	O	0.531839	-0.277341	0.325984
O31	O	-0.219613	-0.866924	-0.162075
O32	O	0.113720	-0.533591	0.171258
O33	O	0.447054	-0.200257	0.504592
O34	O	-0.219623	-0.765383	-0.263603
O35	O	0.113710	-0.432050	0.069730
O36	O	0.447043	-0.098716	0.403064
O37	O	-0.283817	-0.866963	-0.442153
O38	O	0.049517	-0.533630	-0.108820
O39	O	0.382850	-0.200297	0.224514
O40	O	-0.283840	-0.765358	-0.340534
O41	O	0.049493	-0.432024	-0.007201
O42	O	0.382826	-0.098691	0.326133
O43	O	-0.219582	-0.943974	-0.442217
O44	O	0.113751	-0.610641	-0.108884
O45	O	0.447085	-0.277307	0.224450
O46	O	-0.368576	-0.943801	-0.263614
O47	O	-0.035243	-0.610468	0.069719
O48	O	0.298091	-0.277135	0.403053
O49	O	-0.368584	-0.866865	-0.340540
O50	O	-0.035251	-0.533532	-0.007207
O51	O	0.298083	-0.200199	0.326126
C52	C	-0.251736	-0.742636	-0.302059
C53	C	0.081597	-0.409303	0.031275
C54	C	0.414931	-0.075970	0.364608
C55	C	-0.251760	-0.672995	-0.302042
C56	C	0.081573	-0.339662	0.031291
C57	C	0.414906	-0.006328	0.364624
C58	C	-0.387551	-0.905336	-0.302082
C59	C	-0.054218	-0.572002	0.031251
C60	C	0.279116	-0.238669	0.364585
C61	C	-0.445665	-0.905355	-0.302082
C62	C	-0.112332	-0.572022	0.031251
C63	C	0.221002	-0.238688	0.364585
C64	C	-0.251698	-0.905476	-0.465555
C65	C	0.081636	-0.572143	-0.132221
C66	C	0.414969	-0.238809	0.201112
C67	C	-0.251693	-0.905498	-0.535196
C68	C	0.081640	-0.572165	-0.201863
C69	C	0.414973	-0.238832	0.131471
C70	C	-0.805980	-0.945530	-0.342295
C71	C	-0.472647	-0.612197	-0.008962
C72	C	-0.139314	-0.278863	0.324372
C73	C	-0.860585	-0.945549	-0.342308
C74	C	-0.527251	-0.612215	-0.008974
C75	C	-0.193918	-0.278882	0.324359
O76	O	-0.888781	-0.979602	-0.376448
O77	O	-0.555447	-0.646268	-0.043114
O78	O	-0.222114	-0.312935	0.290219
N79	N	-0.887947	-0.905511	-0.302192
N80	N	-0.554614	-0.572178	0.031142
N81	N	-0.221281	-0.238844	0.364475
C82	C	-0.860703	-0.865448	-0.262065
C83	C	-0.527370	-0.532114	0.071268
C84	C	-0.194036	-0.198781	0.404602
O85	O	-0.888991	-0.831394	-0.227945
O86	O	-0.555658	-0.498061	0.105388
O87	O	-0.222325	-0.164727	0.438722
C88	C	-0.806100	-0.865427	-0.262056
C89	C	-0.472767	-0.532093	0.071277
C90	C	-0.139433	-0.198760	0.404611
C91	C	-0.778740	-0.905471	-0.302170
C92	C	-0.445406	-0.572138	0.031163
C93	C	-0.112073	-0.238805	0.364497
C94	C	-0.778620	-0.985571	-0.382406
C95	C	-0.445287	-0.652238	-0.049073
C96	C	-0.111954	-0.318904	0.284261
C97	C	-0.724020	-0.985553	-0.382392
C98	C	-0.390686	-0.652220	-0.049059
C99	C	-0.057353	-0.318887	0.284274
C100	C	-0.696779	-0.945495	-0.342267
C101	C	-0.363446	-0.612161	-0.008934
C102	C	-0.030113	-0.278828	0.324399
C103	C	-0.724139	-0.905454	-0.302156
C104	C	-0.390806	-0.572120	0.031177
C105	C	-0.057473	-0.238787	0.364510
C106	C	-0.778857	-0.825361	-0.221933
C107	C	-0.445523	-0.492027	0.111400
C108	C	-0.112190	-0.158694	0.444734
C109	C	-0.724250	-0.825343	-0.221928
C110	C	-0.390916	-0.492009	0.111406
C111	C	-0.057583	-0.158676	0.444739
C112	C	-0.696890	-0.865387	-0.262042
C113	C	-0.363556	-0.532054	0.071292
C114	C	-0.030223	-0.198721	0.404625
C115	C	-0.642298	-0.865377	-0.262018
C116	C	-0.308965	-0.532044	0.071316
C117	C	0.024368	-0.198710	0.404649
N118	N	-0.614935	-0.905415	-0.302133
N119	N	-0.281602	-0.572081	0.031200
N120	N	0.051731	-0.238748	0.364533
C121	C	-0.642176	-0.945473	-0.342258
C122	C	-0.308843	-0.612140	-0.008925
C123	C	0.024491	-0.278807	0.324408
C124	C	-0.975374	-0.865495	-0.262088
C125	C	-0.642040	-0.532161	0.071245
C126	C	-0.308707	-0.198828	0.404579
C127	C	-1.029976	-0.865518	-0.262094
C128	C	-0.696643	-0.532185	0.071240
C129	C	-0.363309	-0.198852	0.404573
C130	C	-1.029854	-0.945619	-0.342337
C131	C	-0.696520	-0.612285	-0.009004
C132	C	-0.363187	-0.278952	0.324330
C133	C	-0.975250	-0.945597	-0.342328
C134	C	-0.641917	-0.612264	-0.008995
C135	C	-0.308584	-0.278931	0.324339
C136	C	-0.948011	-0.905532	-0.302204
C137	C	-0.614678	-0.572199	0.031129
C138	C	-0.281344	-0.238866	0.364463
C139	C	-0.527511	-0.945433	-0.342226
C140	C	-0.194178	-0.612100	-0.008893
C141	C	0.139156	-0.278767	0.324441
C142	C	-0.472905	-0.945414	-0.342207
C143	C	-0.139572	-0.612080	-0.008874
C144	C	0.193761	-0.278747	0.324460
C145	C	-0.473033	-0.865312	-0.261966
C146	C	-0.139699	-0.531978	0.071367
C147	C	0.193634	-0.198645	0.404701
C148	C	-0.527633	-0.865333	-0.261983
C149	C	-0.194300	-0.532000	0.071351
C150	C	0.139033	-0.198666	0.404684
C151	C	-0.554871	-0.905396	-0.302118
C152	C	-0.221538	-0.572063	0.031216
C153	C	0.111796	-0.238729	0.364549
O154	O	-0.614067	-0.831340	-0.227897
O155	O	-0.280734	-0.498006	0.105436
O156	O	0.052599	-0.164673	0.438770
O157	O	-0.613881	-0.979516	-0.376378
O158	O	-0.280548	-0.646182	-0.043045
O159	O	0.052786	-0.312849	0.290288
C160	C	-0.115335	-0.905530	-0.302194
C161	C	0.217998	-0.572197	0.031139
C162	C	0.551331	-0.238863	0.364472
C163	C	-0.057221	-0.905575	-0.302221
C164	C	0.276112	-0.572242	0.031112
C165	C	0.609445	-0.238909	0.364446
C166	C	-0.251681	-1.068847	-0.302205
C167	C	0.081652	-0.735514	0.031129
C168	C	0.414986	-0.402181	0.364462
C169	C	-0.251669	-1.138489	-0.302236
C170	C	0.081664	-0.805155	0.031098
C171	C	0.414997	-0.471822	0.364431
C172	C	-0.285243	-0.640285	-0.342040
C173	C	0.048091	-0.306952	-0.008707
C174	C	0.381424	0.026382	0.324626
C175	C	-0.285230	-0.574850	-0.342068
C176	C	0.048104	-0.241516	-0.008735
C177	C	0.381437	0.091817	0.324599
C178	C	-0.251740	-0.542127	-0.302087
C179	C	0.081593	-0.208794	0.031246
C180	C	0.414926	0.124540	0.364580
C181	C	-0.218252	-0.574845	-0.262086
C182	C	0.115082	-0.241511	0.071247
C183	C	0.448415	0.091822	0.404580
C184	C	-0.218262	-0.640279	-0.262064
C185	C	0.115071	-0.306945	0.071269
C186	C	0.448405	0.026388	0.404603
C187	C	-0.247528	-0.438402	-0.245682
C188	C	0.085805	-0.105069	0.087651
C189	C	0.419138	0.228264	0.420984
C190	C	-0.247522	-0.372969	-0.245704
C191	C	0.085811	-0.039636	0.087630
C192	C	0.419145	0.293697	0.420963
C193	C	-0.251706	-0.340306	-0.302156
C194	C	0.081627	-0.006973	0.031177
C195	C	0.414960	0.326361	0.364511
C196	C	-0.255908	-0.373084	-0.358589
C197	C	0.077425	-0.039751	-0.025256
C198	C	0.410759	0.293583	0.308078
C199	C	-0.255918	-0.438518	-0.358567
C200	C	0.077415	-0.105185	-0.025233
C201	C	0.410749	0.228149	0.308100
C202	C	-0.251725	-0.471174	-0.302107
C203	C	0.081608	-0.137841	0.031226
C204	C	0.414941	0.195492	0.364560
C205	C	-0.285176	-0.236644	-0.342188
C206	C	0.048157	0.096690	-0.008854
C207	C	0.381491	0.430023	0.324479
C208	C	-0.285160	-0.171207	-0.342217
C209	C	0.048174	0.162126	-0.008883
C210	C	0.381507	0.495460	0.324450
C211	C	-0.218184	-0.171203	-0.262229
C212	C	0.115149	0.162130	0.071104
C213	C	0.448482	0.495463	0.404438
C214	C	-0.218198	-0.236639	-0.262206
C215	C	0.115135	0.096695	0.071128
C216	C	0.448468	0.430028	0.404461
C217	C	-0.251697	-0.269355	-0.302184
C218	C	0.081636	0.063978	0.031149
C219	C	0.414970	0.397312	0.364482
C220	C	-0.218245	-0.945596	-0.567943
C221	C	0.115089	-0.612263	-0.234610
C222	C	0.448422	-0.278929	0.098723
C223	C	-0.218222	-0.945595	-0.633379
C224	C	0.115111	-0.612262	-0.300046
C225	C	0.448444	-0.278928	0.033288
C226	C	-0.251658	-0.905503	-0.666064
C227	C	0.081676	-0.572170	-0.332731
C228	C	0.415009	-0.238836	0.000602
C229	C	-0.285108	-0.865398	-0.633309
C230	C	0.048225	-0.532064	-0.299975
C231	C	0.381558	-0.198731	0.033358
C232	C	-0.285126	-0.865395	-0.567875
C233	C	0.048207	-0.532062	-0.234541
C234	C	0.381540	-0.198729	0.098792
C235	C	-0.298736	-0.900525	-0.769720
C236	C	0.034597	-0.567192	-0.436387
C237	C	0.367931	-0.233859	-0.103054
C238	C	-0.298719	-0.900532	-0.835153
C239	C	0.034614	-0.567199	-0.501820
C240	C	0.367947	-0.233865	-0.168487
C241	C	-0.251602	-0.905507	-0.867885
C242	C	0.081731	-0.572174	-0.534552
C243	C	0.415064	-0.238840	-0.201218
C244	C	-0.204501	-0.910488	-0.835176
C245	C	0.128832	-0.577155	-0.501843
C246	C	0.462166	-0.243822	-0.168509
C247	C	-0.204519	-0.910486	-0.769742
C248	C	0.128814	-0.577153	-0.436408
C249	C	0.462148	-0.243819	-0.103075
C250	C	-0.251642	-0.905501	-0.737017
C251	C	0.081692	-0.572168	-0.403683
C252	C	0.415025	-0.238834	-0.070350
C253	C	-0.218127	-0.945606	-0.971585
C254	C	0.115207	-0.612273	-0.638252
C255	C	0.448540	-0.278939	-0.304919
C256	C	-0.218103	-0.945601	-1.037022
C257	C	0.115230	-0.612267	-0.703689
C258	C	0.448563	-0.278934	-0.370355
C259	C	-0.284994	-0.865407	-1.036951
C260	C	0.048339	-0.532073	-0.703617
C261	C	0.381672	-0.198740	-0.370284
C262	C	-0.285013	-0.865409	-0.971515
C263	C	0.048320	-0.532075	-0.638182
C264	C	0.381654	-0.198742	-0.304849
C265	C	-0.251580	-0.905512	-0.938836
C266	C	0.081753	-0.572178	-0.605503
C267	C	0.415087	-0.238845	-0.272170
C268	C	-0.251681	-0.905408	-0.139344
C269	C	0.081652	-0.572075	0.193990
C270	C	0.414985	-0.238742	0.527323
C271	C	-0.251538	-0.905508	-0.069703
C272	C	0.081795	-0.572174	0.263631
C273	C	0.415128	-0.238841	0.596964
H274	H	-0.450631	-0.978025	-0.374873
H275	H	-0.117297	-0.644692	-0.041539
H276	H	0.216036	-0.311358	0.291794
H277	H	-0.244119	-0.464991	-0.199709
H278	H	0.089215	-0.131658	0.133624
H279	H	0.422548	0.201675	0.466958
N280	N	-0.183941	-0.986561	-1.070485
N281	N	0.149393	-0.653228	-0.737151
N282	N	0.482726	-0.319895	-0.403818
N283	N	-0.183927	-0.986557	-1.128907
N284	N	0.149406	-0.653224	-0.795574
N285	N	0.482739	-0.319890	-0.462241
H286	H	-0.159800	-1.015486	-1.152542
H287	H	0.173533	-0.682153	-0.819209
H288	H	0.506867	-0.348820	-0.485876
H289	H	-0.952977	-0.978205	-0.374993
H290	H	-0.619644	-0.644872	-0.041659
H291	H	-0.286310	-0.311538	0.291674
H292	H	-0.312253	-0.832760	-0.944852
H293	H	0.021080	-0.499427	-0.611518
H294	H	0.354413	-0.166094	-0.278185
N295	N	-0.184081	-0.986544	-0.534567
N296	N	0.149252	-0.653211	-0.201233
N297	N	0.482585	-0.319877	0.132100
N298	N	-0.150774	-0.964522	-0.498049
N299	N	0.182559	-0.631188	-0.164715
N300	N	0.515892	-0.297855	0.168618
H301	H	-0.126644	-0.993440	-0.474475
H302	H	0.206690	-0.660106	-0.141142
H303	H	0.540023	-0.326773	0.192191
N304	N	-0.260198	-0.339719	-0.416252
N305	N	0.073135	-0.006386	-0.082919
N306	N	0.406469	0.326948	0.250415
N307	N	-0.260194	-0.281296	-0.416266
N308	N	0.073139	0.052037	-0.082933
N309	N	0.406472	0.385370	0.250401
H310	H	-0.263230	-0.257729	-0.456988
H311	H	0.070103	0.075604	-0.123655
H312	H	0.403436	0.408938	0.209679
H313	H	-0.312450	-0.263283	-0.374744
H314	H	0.020883	0.070051	-0.041410
H315	H	0.354217	0.403384	0.291923
N316	N	-0.184036	-0.541422	-0.221255
N317	N	0.149298	-0.208089	0.112078
N318	N	0.482631	0.125244	0.445412
N319	N	-0.150741	-0.504976	-0.243392
N320	N	0.182592	-0.171643	0.089942
N321	N	0.515926	0.161691	0.423275
H322	H	-0.126572	-0.481372	-0.214556
H323	H	0.206761	-0.148038	0.118778
H324	H	0.540095	0.185295	0.452111
H325	H	-0.244104	-0.346287	-0.199753
H326	H	0.089229	-0.012953	0.133581
H327	H	0.422563	0.320380	0.466914
H328	H	-0.801124	-0.792752	-0.189267
H329	H	-0.467790	-0.459419	0.144066
H330	H	-0.134457	-0.126086	0.477399
N331	N	-0.555600	-0.824450	-0.221004
N332	N	-0.222267	-0.491117	0.112329
N333	N	0.111066	-0.157784	0.445663
N334	N	-0.586075	-0.846536	-0.181124
N335	N	-0.252742	-0.513202	0.152210
N336	N	0.080592	-0.179869	0.485543
H337	H	-0.605828	-0.817662	-0.152185
H338	H	-0.272495	-0.484328	0.181148
H339	H	0.060839	-0.150995	0.514482
N340	N	-0.319361	-0.137802	-0.383086
N341	N	0.013972	0.195531	-0.049753
N342	N	0.347305	0.528865	0.283581
N343	N	-0.349264	-0.167024	-0.418776
N344	N	-0.015931	0.166309	-0.085443
N345	N	0.317402	0.499643	0.247890
H346	H	-0.373420	-0.143432	-0.447642
H347	H	-0.040087	0.189902	-0.114309
H348	H	0.293247	0.523235	0.219025
N349	N	-0.696426	-0.784426	-0.180930
N350	N	-0.363093	-0.451092	0.152403
N351	N	-0.029760	-0.117759	0.485737
N352	N	-0.665961	-0.806477	-0.141021
N353	N	-0.332627	-0.473144	0.192312
N354	N	0.000706	-0.139811	0.525646
H355	H	-0.646311	-0.777582	-0.112065
H356	H	-0.312977	-0.444248	0.221268
H357	H	0.020356	-0.110915	0.554602
H358	H	-0.337072	-0.896480	-0.861780
H359	H	-0.003739	-0.563146	-0.528447
H360	H	0.329595	-0.229813	-0.195113
H361	H	-0.190914	-0.144561	-0.229679
H362	H	0.142419	0.188772	0.103655
H363	H	0.475752	0.522106	0.436988
N364	N	-1.057676	-0.986544	-0.383329
N365	N	-0.724342	-0.653211	-0.049996
N366	N	-0.391009	-0.319877	0.283337
N367	N	-1.051527	-1.044359	-0.379250
N368	N	-0.718194	-0.711026	-0.045916
N369	N	-0.384860	-0.377693	0.287417
H370	H	-1.071176	-1.073263	-0.408198
H371	H	-0.737843	-0.739929	-0.074865
H372	H	-0.404510	-0.406596	0.258468
N373	N	-0.555328	-0.986369	-0.383210
N374	N	-0.221995	-0.653035	-0.049876
N375	N	0.111339	-0.319702	0.283457
N376	N	-0.585767	-1.026320	-0.361221
N377	N	-0.252433	-0.692986	-0.027887
N378	N	0.080900	-0.359653	0.305446
H379	H	-0.605413	-1.055234	-0.390162
H380	H	-0.272079	-0.721901	-0.056828
H381	H	0.061254	-0.388568	0.276505
H382	H	-0.190995	-0.666911	-0.229493
H383	H	0.142338	-0.333578	0.103841
H384	H	0.475672	-0.000244	0.437174
N385	N	-0.806431	-1.026505	-0.423394
N386	N	-0.473098	-0.693172	-0.090061
N387	N	-0.139764	-0.359838	0.243272
N388	N	-0.800266	-1.084317	-0.419303
N389	N	-0.466933	-0.750984	-0.085970
N390	N	-0.133599	-0.417650	0.247364
H391	H	-0.819903	-1.113234	-0.448250
H392	H	-0.486570	-0.779900	-0.114917
H393	H	-0.153237	-0.446567	0.218416
N394	N	-0.445193	-0.824405	-0.220978
N395	N	-0.111860	-0.491072	0.112355
N396	N	0.221473	-0.157739	0.445688
N397	N	-0.396441	-0.824401	-0.220976
N398	N	-0.063108	-0.491068	0.112357
N399	N	0.270226	-0.157734	0.445690
H400	H	-0.376777	-0.795510	-0.192030
H401	H	-0.043444	-0.462176	0.141304
H402	H	0.289890	-0.128843	0.474637
H403	H	-0.312330	-0.832753	-0.659925
H404	H	0.021003	-0.499419	-0.326592
H405	H	0.354337	-0.166086	0.006741
N406	N	-0.319462	-0.673693	-0.382880
N407	N	0.013871	-0.340360	-0.049547
N408	N	0.347205	-0.007026	0.283786
N409	N	-0.349354	-0.644475	-0.418592
N410	N	-0.016021	-0.311141	-0.085258
N411	N	0.317312	0.022192	0.248075
H412	H	-0.373522	-0.668069	-0.447436
H413	H	-0.040189	-0.334736	-0.114103
H414	H	0.293145	-0.001403	0.219230
N415	N	-0.319435	-0.541438	-0.382932
N416	N	0.013899	-0.208104	-0.049599
N417	N	0.347232	0.125229	0.283735
N418	N	-0.349339	-0.570656	-0.418624
N419	N	-0.016006	-0.237323	-0.085291
N420	N	0.317328	0.096011	0.248043
H421	H	-0.373497	-0.547061	-0.447484
H422	H	-0.040164	-0.213728	-0.114151
H423	H	0.293169	0.119606	0.219183
N424	N	-0.319140	-0.824451	-1.070339
N425	N	0.014194	-0.491117	-0.737006
N426	N	0.347527	-0.157784	-0.403673
N427	N	-0.319118	-0.824454	-1.128762
N428	N	0.014216	-0.491121	-0.795429
N429	N	0.347549	-0.157788	-0.462095
H430	H	-0.343232	-0.795526	-1.152347
H431	H	-0.009899	-0.462193	-0.819013
H432	H	0.323435	-0.128860	-0.485680
H433	H	-0.337094	-0.896306	-0.743075
H434	H	-0.003761	-0.562973	-0.409742
H435	H	0.329572	-0.229640	-0.076409
N436	N	-0.947550	-0.824580	-0.221087
N437	N	-0.614216	-0.491246	0.112246
N438	N	-0.280883	-0.157913	0.445579
N439	N	-0.917081	-0.846630	-0.181181
N440	N	-0.583748	-0.513296	0.152152
N441	N	-0.250414	-0.179963	0.485486
H442	H	-0.897432	-0.817733	-0.152226
H443	H	-0.564098	-0.484400	0.181108
H444	H	-0.230765	-0.151066	0.514441
H445	H	-0.312363	-0.832740	-0.541212
H446	H	0.020970	-0.499407	-0.207879
H447	H	0.354303	-0.166073	0.125455
N448	N	-0.184047	-0.986555	-0.666829
N449	N	0.149286	-0.653222	-0.333496
N450	N	0.482620	-0.319888	-0.000163
N451	N	-0.154197	-1.022353	-0.637644
N452	N	0.179137	-0.689020	-0.304311
N453	N	0.512470	-0.355686	0.029022
H454	H	-0.130059	-1.051281	-0.661267
H455	H	0.203274	-0.717947	-0.327933
H456	H	0.536607	-0.384614	0.005400
H457	H	-0.190936	-0.263271	-0.229632
H458	H	0.142397	0.070062	0.103701
H459	H	0.475731	0.403395	0.437035
N460	N	-0.156406	-0.915574	-0.736340
N461	N	0.176927	-0.582241	-0.403006
N462	N	0.510261	-0.248908	-0.069673
N463	N	-0.114339	-0.920019	-0.765565
N464	N	0.218995	-0.586685	-0.432232
N465	N	0.552328	-0.253352	-0.098898
H466	H	-0.080358	-0.923611	-0.741975
H467	H	0.252976	-0.590278	-0.408642
H468	H	0.586309	-0.256944	-0.075309
H469	H	-0.701746	-1.018159	-0.415058
H470	H	-0.368413	-0.684826	-0.081725
H471	H	-0.035080	-0.351493	0.251608
N472	N	-0.260210	-0.471990	-0.416212
N473	N	0.073123	-0.138657	-0.082879
N474	N	0.406457	0.194676	0.250455
N475	N	-0.263948	-0.442826	-0.466614
N476	N	0.069385	-0.109493	-0.133281
N477	N	0.402719	0.223840	0.200053
H478	H	-0.266978	-0.466466	-0.507328
H479	H	0.066355	-0.133132	-0.173994
H480	H	0.399689	0.200201	0.159339
H481	H	-1.052248	-0.832917	-0.229422
H482	H	-0.718915	-0.499583	0.103911
H483	H	-0.385581	-0.166250	0.437245
H484	H	-0.166134	-0.914540	-0.861825
H485	H	0.167199	-0.581207	-0.528492
H486	H	0.500533	-0.247874	-0.195158
N487	N	-0.183972	-0.986569	-0.938210
N488	N	0.149361	-0.653236	-0.604876
N489	N	0.482695	-0.319902	-0.271543
N490	N	-0.154104	-1.022364	-0.967460
N491	N	0.179229	-0.689030	-0.634127
N492	N	0.512563	-0.355697	-0.300793
H493	H	-0.129981	-1.051294	-0.943891
H494	H	0.203352	-0.717961	-0.610558
H495	H	0.536686	-0.384627	-0.277224
