data_functionalizedCrystal
_audit_creation_method	'MofGen! by Chris Wilmer'
_symmetry_space_group_name_H-M	'P1'
_symmetry_Int_Tables_number	1
_symmetry_cell_setting	triclinic
loop_
_symmetry_equiv_pos_as_xyz
  x,y,z
_cell_length_a	19.121241
_cell_length_b	19.121449
_cell_length_c	19.120904
_cell_angle_alpha	90.076803
_cell_angle_beta	89.875472
_cell_angle_gamma	89.915403
loop_
_atom_site_label
_atom_site_type_symbol
_atom_site_fract_x
_atom_site_fract_y
_atom_site_fract_z
Zn1	Zn	1.066081	-0.252666	-0.431900
Zn2	Zn	1.566081	0.247334	0.068100
Zn3	Zn	1.075963	-0.364500	-0.310107
Zn4	Zn	1.575963	0.135500	0.189893
Zn5	Zn	0.953829	-0.252250	-0.309687
Zn6	Zn	1.453829	0.247750	0.190313
Zn7	Zn	0.954212	-0.374414	-0.421889
Zn8	Zn	1.454212	0.125586	0.078111
O9	O	1.012521	-0.310957	-0.368396
O10	O	1.512521	0.189043	0.131604
O11	O	1.165323	-0.263525	-0.420109
O12	O	1.665323	0.236475	0.079891
O13	O	1.063737	-0.345287	-0.212123
O14	O	1.563737	0.154713	0.287877
O15	O	0.964423	-0.154377	-0.329912
O16	O	1.464423	0.345623	0.170088
O17	O	1.172584	-0.345689	-0.330628
O18	O	1.672584	0.154311	0.169372
O19	O	1.046894	-0.154682	-0.419702
O20	O	1.546894	0.345318	0.080298
O21	O	0.974006	-0.262818	-0.211814
O22	O	1.474006	0.237182	0.288186
O23	O	0.855949	-0.272431	-0.320205
O24	O	1.355949	0.227569	0.179795
O25	O	0.965076	-0.362586	-0.521146
O26	O	1.465076	0.137414	-0.021146
O27	O	0.856230	-0.362184	-0.402640
O28	O	1.356230	0.137816	0.097360
O29	O	1.047266	-0.273139	-0.528500
O30	O	1.547266	0.226861	-0.028500
O31	O	1.064109	-0.463744	-0.320921
O32	O	1.564109	0.036256	0.179079
O33	O	0.974659	-0.471027	-0.403048
O34	O	1.474659	0.028973	0.096952
C35	C	0.830697	-0.318339	-0.360291
C36	C	1.330697	0.181661	0.139709
C37	C	0.752912	-0.321514	-0.356840
C38	C	1.252912	0.178486	0.143160
C39	C	1.020516	-0.492777	-0.360960
C40	C	1.520516	0.007223	0.139040
C41	C	1.024000	-0.570559	-0.357805
C42	C	1.524000	-0.070559	0.142195
C43	C	0.979035	-0.610918	-0.399043
C44	C	1.479035	-0.110918	0.100957
C45	C	0.982311	-0.684002	-0.396076
C46	C	1.482311	-0.184002	0.103924
C47	C	1.030556	-0.716725	-0.351874
C48	C	1.530556	-0.216725	0.148126
C49	C	1.075522	-0.676361	-0.310632
C50	C	1.575522	-0.176361	0.189368
C51	C	1.072242	-0.603278	-0.313595
C52	C	1.572242	-0.103278	0.186405
C53	C	1.042788	-0.937197	-0.340785
C54	C	1.542788	-0.437197	0.159215
C55	C	1.046066	-1.010285	-0.337826
C56	C	1.546066	-0.510285	0.162174
C57	C	0.952853	-1.017921	-0.423271
C58	C	1.452853	-0.517921	0.076729
C59	C	0.949581	-0.944837	-0.426233
C60	C	1.449581	-0.444837	0.073767
C61	C	0.994544	-0.904479	-0.384988
C62	C	1.494544	-0.404479	0.115012
C63	C	1.033907	-0.791429	-0.348842
C64	C	1.533907	-0.291429	0.151158
C65	C	0.991189	-0.829776	-0.388017
C66	C	1.491189	-0.329776	0.111983
C67	C	0.712589	-0.280301	-0.401872
C68	C	1.212589	0.219699	0.098128
C69	C	0.639502	-0.283281	-0.398623
C70	C	1.139502	0.216719	0.101377
C71	C	0.606738	-0.327478	-0.350346
C72	C	1.106738	0.172522	0.149654
C73	C	0.647067	-0.368692	-0.305309
C74	C	1.147067	0.131308	0.194691
C75	C	0.720153	-0.365708	-0.308555
C76	C	1.220153	0.134292	0.191445
C77	C	0.386255	-0.338621	-0.338208
C78	C	0.886255	0.161379	0.161792
C79	C	0.313164	-0.341603	-0.334967
C80	C	0.813164	0.158397	0.165033
C81	C	0.305604	-0.256191	-0.428281
C82	C	0.805604	0.243809	0.071719
C83	C	0.378691	-0.253214	-0.431526
C84	C	0.878691	0.246786	0.068474
C85	C	0.419013	-0.294425	-0.386487
C86	C	0.919013	0.205575	0.113513
C87	C	0.532032	-0.330526	-0.347025
C88	C	1.032032	0.169474	0.152975
C89	C	0.493719	-0.291373	-0.389804
C90	C	0.993719	0.208627	0.110196
C91	C	1.195056	-0.303548	-0.376532
C92	C	1.695056	0.196452	0.123468
C93	C	1.272841	-0.300390	-0.379999
C94	C	1.772841	0.199610	0.120001
C95	C	1.005111	-0.319015	-0.550925
C96	C	1.505111	0.180985	-0.050925
C97	C	1.001954	-0.322448	-0.628708
C98	C	1.501954	0.177552	-0.128708
C99	C	1.004514	-0.128427	-0.375877
C100	C	1.504514	0.371573	0.124123
C101	C	1.001101	-0.050644	-0.379065
C102	C	1.501101	0.449356	0.120935
C103	C	1.043260	-0.277493	-0.669080
C104	C	1.543260	0.222507	-0.169080
C105	C	1.040284	-0.280717	-0.742165
C106	C	1.540284	0.219283	-0.242165
C107	C	0.996006	-0.328900	-0.774876
C108	C	1.496006	0.171100	-0.274876
C109	C	0.954695	-0.373857	-0.734498
C110	C	1.454695	0.126143	-0.234498
C111	C	0.957667	-0.370630	-0.661415
C112	C	1.457667	0.129370	-0.161415
C113	C	0.984887	-0.340973	-0.995350
C114	C	1.484887	0.159027	-0.495350
C115	C	0.981919	-0.344198	-1.068439
C116	C	1.481919	0.155802	-0.568439
C117	C	1.067507	-0.251057	-1.076102
C118	C	1.567507	0.248943	-0.576102
C119	C	1.070479	-0.247836	-1.003016
C120	C	1.570479	0.252164	-0.503016
C121	C	1.029166	-0.292791	-0.962644
C122	C	1.529166	0.207209	-0.462644
C123	C	0.992965	-0.332198	-0.849581
C124	C	1.492965	0.167802	-0.349581
C125	C	1.032203	-0.289489	-0.887941
C126	C	1.532203	0.210511	-0.387941
C127	C	1.019940	-0.302879	-0.186581
C128	C	1.519940	0.197121	0.313419
C129	C	1.023225	-0.299243	-0.108812
C130	C	1.523225	0.200757	0.391188
H131	H	0.939752	-0.584280	-0.435041
H132	H	1.439752	-0.084280	0.064959
Cl133	Cl	1.126146	-0.187260	-0.961899
Cl134	Cl	1.626146	0.312740	-0.461899
Cl135	Cl	0.271977	-0.397186	-0.274286
Cl136	Cl	0.771977	0.102814	0.225714
H137	H	0.918640	-0.413087	-0.761137
H138	H	1.418640	0.086913	-0.261137
Cl139	Cl	0.905735	-0.427145	-0.610660
Cl140	Cl	1.405735	0.072855	-0.110660
Cl141	Cl	1.087858	-0.228911	-0.846817
Cl142	Cl	1.587858	0.271089	-0.346817
H143	H	1.079400	-0.904342	-0.307203
H144	H	1.579400	-0.404342	0.192797
Cl145	Cl	0.753769	-0.224740	-0.462570
Cl146	Cl	1.253769	0.275260	0.037430
Cl147	Cl	0.937305	-0.392772	-0.890710
Cl148	Cl	1.437305	0.107228	-0.390710
Cl149	Cl	1.092247	-0.224228	-0.792917
Cl150	Cl	1.592247	0.275772	-0.292917
Cl151	Cl	1.094562	-0.832573	-0.293283
Cl152	Cl	1.594562	-0.332573	0.206717
H153	H	0.945690	-0.716860	-0.429650
H154	H	1.445690	-0.216860	0.070350
H155	H	0.945860	-0.383437	-1.095070
H156	H	1.445860	0.116563	-0.595070
Cl157	Cl	0.888930	-0.903705	-0.481807
Cl158	Cl	1.388930	-0.403705	0.018193
H159	H	1.114801	-0.703010	-0.274638
H160	H	1.614801	-0.203010	0.225362
Cl161	Cl	0.932950	-0.397488	-0.944607
Cl162	Cl	1.432950	0.102512	-0.444607
Cl163	Cl	0.254910	-0.204384	-0.484897
Cl164	Cl	0.754910	0.295616	0.015103
Cl165	Cl	0.588813	-0.231470	-0.455240
Cl166	Cl	1.088813	0.268530	0.044760
Cl167	Cl	0.419874	-0.197655	-0.492225
Cl168	Cl	0.919874	0.302345	0.007775
H169	H	0.916246	-1.050789	-0.456850
H170	H	1.416246	-0.550789	0.043150
H171	H	1.085356	-1.036925	-0.301832
H172	H	1.585356	-0.536925	0.198168
H173	H	1.108856	-0.570418	-0.280014
H174	H	1.608856	-0.070418	0.219986
Cl175	Cl	0.534908	-0.235811	-0.450492
Cl176	Cl	1.034908	0.264189	0.049508
H177	H	0.419077	-0.372179	-0.301535
H178	H	0.919077	0.127821	0.198465
Cl179	Cl	0.930540	-0.788638	-0.443582
Cl180	Cl	1.430540	-0.288638	0.056418
Cl181	Cl	0.605879	-0.424250	-0.244613
Cl182	Cl	1.105879	0.075750	0.255387
Cl183	Cl	0.770845	-0.417521	-0.251941
Cl184	Cl	1.270845	0.082479	0.248059
H185	H	0.505348	-0.366511	-0.307717
H186	H	1.005348	0.133489	0.192283
H187	H	1.101141	-0.214456	-1.108980
H188	H	1.601141	0.285544	-0.608980
H189	H	1.079318	-0.238259	-0.642453
H190	H	1.579318	0.261741	-0.142453
