data_functionalizedCrystal
_audit_creation_method	'MofGen! by Chris Wilmer'
_symmetry_space_group_name_H-M	'P1'
_symmetry_Int_Tables_number	1
_symmetry_cell_setting	triclinic
loop_
_symmetry_equiv_pos_as_xyz
  x,y,z
_cell_length_a	14.971486
_cell_length_b	15.538191
_cell_length_c	13.448316
_cell_angle_alpha	89.995865
_cell_angle_beta	89.998199
_cell_angle_gamma	65.443111
loop_
_atom_site_label
_atom_site_type_symbol
_atom_site_fract_x
_atom_site_fract_y
_atom_site_fract_z
O1	O	1.146981	0.122716	-0.082571
O2	O	0.881795	0.137412	-0.082598
O3	O	1.066009	-0.007007	-0.082584
O4	O	0.962767	0.267135	-0.082585
O5	O	1.065994	-0.007016	0.082800
O6	O	0.881781	0.137403	0.082786
O7	O	1.146967	0.122707	0.082812
Cu8	Cu	1.014372	0.130054	0.097900
Cu9	Cu	1.014389	0.130065	-0.097685
O10	O	0.962753	0.267127	0.082799
C11	C	0.848677	0.136750	0.000091
C12	C	0.750021	0.134781	0.000080
C13	C	0.665165	0.219623	0.000082
C14	C	0.572470	0.217767	0.000096
C15	C	0.564634	0.131067	0.000103
C16	C	0.649500	0.046219	0.000105
C17	C	0.742193	0.048076	0.000097
C18	C	0.456296	0.042354	0.000119
C19	C	0.363597	0.040496	0.000124
C20	C	0.286573	0.212045	0.000118
C21	C	0.379266	0.213902	0.000110
C22	C	0.464126	0.129053	0.000110
C23	C	1.076803	-0.042095	0.000106
C24	C	1.108978	-0.146632	0.000099
C25	C	0.789329	-0.434783	0.000088
C26	C	0.819585	-0.533015	0.000094
C27	C	0.989766	-0.555266	0.000110
C28	C	0.959525	-0.457034	0.000100
C29	C	0.859305	-0.396800	0.000090
C30	C	1.029501	-0.419051	0.000102
C31	C	0.999261	-0.320828	0.000097
C32	C	0.899046	-0.260588	0.000090
C33	C	0.829066	-0.298577	0.000085
C34	C	1.129720	-0.479287	0.000119
C35	C	1.199696	-0.441304	0.000121
C36	C	1.169457	-0.343079	0.000109
C37	C	1.069242	-0.282839	0.000102
C38	C	1.239438	-0.305090	0.000113
C39	C	1.209198	-0.206867	0.000109
C40	C	1.039002	-0.184615	0.000097
C41	C	1.180085	0.123369	0.000122
C42	C	1.278740	0.125339	0.000126
C43	C	0.951958	0.302214	0.000107
C44	C	0.919784	0.406752	0.000107
N45	N	1.014367	0.130046	0.235464
N46	N	1.014404	0.130065	-0.235250
C47	C	1.095947	0.066124	0.287511
C48	C	1.095953	0.066123	0.391614
C49	C	1.014381	0.130050	0.443669
C50	C	0.932793	0.193976	0.391615
C51	C	0.932785	0.193971	0.287514
C52	C	0.932816	0.193982	0.608595
C53	C	0.932824	0.193988	0.712704
C54	C	1.095984	0.066134	0.712695
C55	C	1.095976	0.066130	0.608594
C56	C	1.014389	0.130057	0.556548
H57	H	0.503380	0.286854	0.000096
H58	H	0.866372	0.246023	0.434004
H59	H	0.707720	-0.385736	0.000073
O60	O	0.853611	0.256211	0.558079
C61	C	0.837864	0.349454	0.583522
H62	H	0.909286	0.350037	0.612132
H63	H	0.812235	0.396693	0.515056
H64	H	0.779339	0.377032	0.643951
O65	O	0.751569	-0.569869	-0.000092
C66	C	0.692403	-0.539079	-0.085739
H67	H	0.733885	-0.518583	-0.145601
H68	H	0.673696	-0.598629	-0.114492
H69	H	0.621787	-0.475130	-0.066380
O70	O	0.853586	0.256198	0.236997
C71	C	0.837833	0.349443	0.262437
H72	H	0.909253	0.350032	0.291043
H73	H	0.812199	0.396681	0.193970
H74	H	0.779309	0.377018	0.322867
H75	H	1.162375	0.014071	0.245134
O76	O	1.087104	-0.613820	-0.000059
C77	C	1.109685	-0.671319	-0.085696
H78	H	1.052284	-0.635405	-0.145565
H79	H	1.185292	-0.682275	-0.114446
H80	H	1.109739	-0.742771	-0.066325
O81	O	0.731738	-0.239963	0.000203
C82	C	0.709138	-0.182499	0.085866
H83	H	0.778488	-0.177447	0.114433
H84	H	0.651863	-0.108718	0.066593
H85	H	0.678786	-0.214862	0.145838
H86	H	0.811286	-0.021012	0.000096
H87	H	0.957393	-0.135569	0.000082
H88	H	1.154338	-0.559266	0.000114
H89	H	1.281296	-0.490360	0.000132
O90	O	0.869785	-0.165188	0.000217
C91	C	0.906328	-0.138468	0.085885
H92	H	0.973443	-0.201565	0.114450
H93	H	0.927928	-0.078221	0.066621
H94	H	0.847164	-0.114011	0.145857
O95	O	0.387014	0.298058	0.000220
C96	C	0.438318	0.304276	0.085873
H97	H	0.485631	0.230084	0.114444
H98	H	0.487212	0.341865	0.066587
H99	H	0.383597	0.345905	0.145849
O100	O	1.175305	0.004004	0.442017
C101	C	1.247296	-0.052426	0.373750
H102	H	1.235750	-0.013820	0.299536
H103	H	1.323347	-0.066648	0.403814
H104	H	1.241005	-0.122441	0.362696
H105	H	1.321037	-0.354147	0.000131
O106	O	0.356158	-0.043804	0.000177
C107	C	0.450931	-0.118296	0.000157
H108	H	0.505719	-0.091833	0.031466
H109	H	0.451079	-0.178819	0.048177
H110	H	0.472632	-0.144473	-0.079184
H111	H	0.671534	0.290224	0.000075
O112	O	0.538802	-0.040005	-0.000016
C113	C	0.594702	-0.044063	-0.085689
H114	H	0.575143	0.030689	-0.114243
H115	H	0.676187	-0.079058	-0.066433
H116	H	0.577981	-0.087102	-0.145665
O117	O	1.277041	-0.169807	0.000151
C118	C	1.228857	-0.070197	0.000122
H119	H	1.151593	-0.047225	0.031427
H120	H	1.271705	-0.039969	0.048139
H121	H	1.224313	-0.042848	-0.079222
O122	O	0.853489	0.255978	0.763233
C123	C	0.769976	0.240510	0.737798
H124	H	0.794033	0.165117	0.709178
H125	H	0.721614	0.251243	0.806271
H126	H	0.726748	0.292660	0.677380
O127	O	1.175278	0.003943	0.558180
C128	C	1.247300	-0.052465	0.626438
H129	H	1.211008	-0.053595	0.700653
H130	H	1.285353	-0.127644	0.596362
H131	H	1.303777	-0.021772	0.637492
H132	H	0.217474	0.281132	0.000122
H133	H	0.643113	-0.024374	0.000124
H134	H	1.162414	0.014083	0.755078
