data_functionalizedCrystal
_audit_creation_method	'MofGen! by Chris Wilmer'
_symmetry_space_group_name_H-M	'P1'
_symmetry_Int_Tables_number	1
_symmetry_cell_setting	triclinic
loop_
_symmetry_equiv_pos_as_xyz
  x,y,z
_cell_length_a	12.827892
_cell_length_b	12.827893
_cell_length_c	10.686551
_cell_angle_alpha	94.397148
_cell_angle_beta	85.594922
_cell_angle_gamma	89.986399
loop_
_atom_site_label
_atom_site_type_symbol
_atom_site_fract_x
_atom_site_fract_y
_atom_site_fract_z
Zn1	Zn	-0.370673	-1.643035	-0.713520
Zn2	Zn	0.129327	-1.143035	-0.213520
Zn3	Zn	-0.558864	-1.629514	-0.502520
Zn4	Zn	-0.058864	-1.129514	-0.002520
Zn5	Zn	-0.384132	-1.454862	-0.502529
Zn6	Zn	0.115868	-0.954862	-0.002529
Zn7	Zn	-0.545371	-1.468258	-0.713465
Zn8	Zn	-0.045371	-0.968258	-0.213465
O9	O	-0.464760	-1.548917	-0.608009
O10	O	0.035240	-1.048917	-0.108009
O11	O	-0.395652	-1.787479	-0.685550
O12	O	0.104348	-1.287479	-0.185550
O13	O	-0.546965	-1.595081	-0.325940
O14	O	-0.046965	-1.095081	0.174060
O15	O	-0.236109	-1.479876	-0.530544
O16	O	0.263891	-0.979876	-0.030544
O17	O	-0.533915	-1.777545	-0.530529
O18	O	-0.033915	-1.277545	-0.030529
O19	O	-0.226221	-1.618126	-0.685559
O20	O	0.273779	-1.118126	-0.185559
O21	O	-0.418590	-1.466765	-0.325946
O22	O	0.081410	-0.966765	0.174054
O23	O	-0.405506	-1.310402	-0.530491
O24	O	0.094494	-0.810402	-0.030491
O25	O	-0.510918	-1.502708	-0.890054
O26	O	-0.010918	-1.002708	-0.390054
O27	O	-0.523968	-1.320244	-0.685465
O28	O	-0.023968	-0.820244	-0.185465
O29	O	-0.382568	-1.631116	-0.890094
O30	O	0.117432	-1.131116	-0.390094
O31	O	-0.703312	-1.608071	-0.530476
O32	O	-0.203312	-1.108071	-0.030476
O33	O	-0.693399	-1.489597	-0.685456
O34	O	-0.193399	-0.989597	-0.185456
C35	C	-0.464734	-1.277405	-0.607974
C36	C	0.035266	-0.777405	-0.107974
C37	C	-0.464746	-1.161253	-0.607989
C38	C	0.035254	-0.661253	-0.107989
C39	C	-0.396432	-1.114391	-0.684815
C40	C	0.103568	-0.614391	-0.184815
C41	C	-0.396443	-0.994342	-0.684832
C42	C	0.103557	-0.494342	-0.184832
C43	C	-0.736271	-1.548851	-0.607986
C44	C	-0.236271	-1.048851	-0.107986
C45	C	-0.852422	-1.548920	-0.608019
C46	C	-0.352422	-1.048920	-0.108019
C47	C	-0.909073	-1.607626	-0.531415
C48	C	-0.409073	-1.107626	-0.031415
C49	C	-1.029121	-1.607699	-0.531447
C50	C	-0.529121	-1.107699	-0.031447
C51	C	-0.192187	-1.549015	-0.608059
C52	C	0.307813	-1.049015	-0.108059
C53	C	-0.076032	-1.549056	-0.608080
C54	C	0.423968	-1.049056	-0.108080
C55	C	-0.443737	-1.569915	-0.937140
C56	C	0.056263	-1.069915	-0.437140
C57	C	-0.434778	-1.578862	-1.077396
C58	C	0.065222	-1.078862	-0.577396
C59	C	-0.464779	-0.821489	-0.608034
C60	C	0.035221	-0.321489	-0.108034
C61	C	-0.464767	-0.937641	-0.608019
C62	C	0.035233	-0.437641	-0.108019
C63	C	-0.485626	-1.528062	-0.280158
C64	C	0.014374	-1.028062	0.219842
C65	C	-0.494291	-1.519317	-0.139902
C66	C	0.005709	-1.019317	0.360098
H67	H	-0.337961	-0.954023	-0.750611
H68	H	0.162039	-0.454023	-0.250611
H69	H	-0.552099	-1.461494	-1.086116
H70	H	-0.052099	-0.961494	-0.586116
Br71	Br	-0.562237	-1.080000	-0.498364
Br72	Br	-0.062237	-0.580000	0.001636
Br73	Br	-0.298928	-1.195643	-0.794422
Br74	Br	0.201072	-0.695643	-0.294422
Br75	Br	-0.841789	-1.691321	-0.422070
Br76	Br	-0.341789	-1.191321	0.077930
Br77	Br	-1.110283	-1.691465	-0.422119
Br78	Br	-0.610283	-1.191465	0.077881
H79	H	-1.027341	-1.498789	-0.673662
H80	H	-0.527341	-0.998789	-0.173662
Br81	Br	-0.919704	-1.465245	-0.717386
Br82	Br	-0.419704	-0.965245	-0.217386
H83	H	-0.523261	-0.977954	-0.542249
H84	H	-0.023261	-0.477954	-0.042249
H85	H	-0.376973	-1.636696	-1.131188
H86	H	0.123027	-1.136696	-0.631188
