data_functionalizedCrystal
_audit_creation_method	'MofGen! by Chris Wilmer'
_symmetry_space_group_name_H-M	'P1'
_symmetry_Int_Tables_number	1
_symmetry_cell_setting	triclinic
loop_
_symmetry_equiv_pos_as_xyz
  x,y,z
_cell_length_a	19.805407
_cell_length_b	16.959454
_cell_length_c	19.805399
_cell_angle_alpha	90.022387
_cell_angle_beta	90.019573
_cell_angle_gamma	90.020075
loop_
_atom_site_label
_atom_site_type_symbol
_atom_site_fract_x
_atom_site_fract_y
_atom_site_fract_z
Zn1	Zn	1.034765	-0.314700	0.382744
Zn2	Zn	1.534765	0.185300	0.882744
Zn3	Zn	1.034693	-0.446882	0.269566
Zn4	Zn	1.534693	0.053118	0.769566
Zn5	Zn	0.921580	-0.314722	0.269569
Zn6	Zn	1.421580	0.185278	0.769569
Zn7	Zn	0.921556	-0.446840	0.382713
Zn8	Zn	1.421556	0.053160	0.882713
O9	O	0.978149	-0.380786	0.326148
O10	O	1.478149	0.119214	0.826148
O11	O	1.129472	-0.332243	0.367743
O12	O	1.629472	0.167757	0.867743
O13	O	1.019668	-0.429378	0.174850
O14	O	1.519668	0.070622	0.674850
O15	O	0.936635	-0.204108	0.284596
O16	O	1.436635	0.295892	0.784596
O17	O	1.129419	-0.429356	0.284591
O18	O	1.629419	0.070644	0.784591
O19	O	1.019792	-0.204092	0.367745
O20	O	1.519792	0.295908	0.867745
O21	O	0.936564	-0.332280	0.174852
O22	O	1.436564	0.167720	0.674852
O23	O	0.826860	-0.332239	0.284565
O24	O	1.326860	0.167761	0.784565
O25	O	0.936594	-0.429285	0.477434
O26	O	1.436594	0.070715	0.977434
O27	O	0.826843	-0.429306	0.367692
O28	O	1.326843	0.070694	0.867692
O29	O	1.019768	-0.332202	0.477457
O30	O	1.519768	0.167798	0.977457
O31	O	1.019645	-0.557488	0.284561
O32	O	1.519645	-0.057488	0.784561
O33	O	0.936524	-0.557457	0.367690
O34	O	1.436524	-0.057457	0.867690
C35	C	0.802293	-0.380771	0.326126
C36	C	1.302293	0.119229	0.826126
C37	C	0.727061	-0.380783	0.326133
C38	C	1.227061	0.119217	0.826133
C39	C	0.691725	-0.431402	0.369347
C40	C	1.191725	0.068598	0.869347
C41	C	0.621037	-0.431404	0.369356
C42	C	1.121037	0.068596	0.869356
C43	C	0.585685	-0.380790	0.326148
C44	C	1.085685	0.119210	0.826148
C45	C	0.621026	-0.330165	0.282932
C46	C	1.121026	0.169835	0.782932
C47	C	0.691713	-0.330160	0.282926
C48	C	1.191713	0.169840	0.782926
C49	C	0.335952	-0.330183	0.282954
C50	C	0.835952	0.169817	0.782954
C51	C	0.265260	-0.330193	0.282962
C52	C	0.765260	0.169807	0.782962
C53	C	0.265276	-0.431426	0.369384
C54	C	0.765276	0.068574	0.869384
C55	C	0.335963	-0.431421	0.369379
C56	C	0.835963	0.068579	0.869379
C57	C	0.371298	-0.380794	0.326166
C58	C	0.871298	0.119206	0.826166
C59	C	0.447946	-0.380792	0.326157
C60	C	0.947946	0.119208	0.826157
C61	C	0.509038	-0.380795	0.326153
C62	C	1.009038	0.119205	0.826153
C63	C	0.978092	-0.586152	0.326136
C64	C	1.478092	-0.086152	0.826136
C65	C	0.978130	-0.674009	0.326154
C66	C	1.478130	-0.174009	0.826154
C67	C	0.934930	-1.045498	0.369428
C68	C	1.434930	-0.545498	0.869428
C69	C	1.021555	-1.045470	0.282937
C70	C	1.521555	-0.545470	0.782937
C71	C	1.021532	-0.962925	0.282930
C72	C	1.521532	-0.462925	0.782930
C73	C	0.978206	-0.921662	0.326173
C74	C	1.478206	-0.421662	0.826173
C75	C	0.934904	-0.962945	0.369422
C76	C	1.434904	-0.462945	0.869422
C77	C	1.064828	-0.921635	0.239677
C78	C	1.564828	-0.421635	0.739677
C79	C	1.064806	-0.839085	0.239669
C80	C	1.564806	-0.339085	0.739669
C81	C	1.021483	-0.797820	0.282915
C82	C	1.521483	-0.297820	0.782915
C83	C	0.978180	-0.839108	0.326167
C84	C	1.478180	-0.339108	0.826167
C85	C	0.934854	-0.797845	0.369409
C86	C	1.434854	-0.297845	0.869409
C87	C	0.891553	-0.839132	0.412665
C88	C	1.391553	-0.339132	0.912665
C89	C	0.891581	-0.921680	0.412669
C90	C	1.391581	-0.421680	0.912669
C91	C	1.021455	-0.715272	0.282911
C92	C	1.521455	-0.215272	0.782911
C93	C	0.934827	-0.715292	0.369403
C94	C	1.434827	-0.215292	0.869403
C95	C	1.154691	-0.380802	0.326170
C96	C	1.654691	0.119198	0.826170
C97	C	1.229923	-0.380808	0.326180
C98	C	1.729923	0.119192	0.826180
C99	C	0.978187	-0.380736	0.502691
C100	C	1.478187	0.119264	1.002691
C101	C	0.978203	-0.380715	0.577923
C102	C	1.478203	0.119285	1.077923
C103	C	0.978224	-0.174618	0.326174
C104	C	1.478224	0.325382	0.826174
C105	C	0.978256	-0.086761	0.326186
C106	C	1.478256	0.413239	0.826186
C107	C	0.978150	-0.380779	0.150292
C108	C	1.478150	0.119221	0.650292
C109	C	0.978265	-0.380577	0.075060
C110	C	1.478265	0.119423	0.575060
C111	C	1.021513	-0.330161	0.613280
C112	C	1.521513	0.169839	1.113280
C113	C	1.021520	-0.330138	0.683968
C114	C	1.521520	0.169862	1.183968
C115	C	0.978220	-0.380674	0.719298
C116	C	1.478220	0.119326	1.219298
C117	C	0.934905	-0.431230	0.683936
C118	C	1.434905	0.068770	1.183936
C119	C	0.934895	-0.431248	0.613249
C120	C	1.434895	0.068752	1.113249
C121	C	0.934943	-0.431156	0.969010
C122	C	1.434943	0.068844	1.469010
C123	C	0.934958	-0.431135	1.039702
C124	C	1.434958	0.068865	1.539702
C125	C	1.021568	-0.330046	1.039729
C126	C	1.521568	0.169954	1.539729
C127	C	1.021558	-0.330065	0.969042
C128	C	1.521558	0.169935	1.469042
C129	C	0.978241	-0.380617	0.933686
C130	C	1.478241	0.119383	1.433686
C131	C	0.978233	-0.380641	0.857037
C132	C	1.478233	0.119359	1.357037
C133	C	0.978230	-0.380655	0.795946
C134	C	1.478230	0.119345	1.295946
H135	H	0.236498	-0.472646	0.404573
H136	H	0.736498	0.027354	0.904573
H137	H	1.056788	-0.288974	0.712753
H138	H	1.556788	0.211026	1.212753
H139	H	0.236479	-0.288972	0.247776
H140	H	0.736479	0.211028	0.747776
O141	O	0.374060	-0.275606	0.236327
O142	O	0.874060	0.224394	0.736327
H143	H	0.337600	-0.240427	0.206273
H144	H	0.837600	0.259573	0.706273
H145	H	0.592269	-0.472623	0.404545
H146	H	1.092269	0.027377	0.904545
O147	O	0.374089	-0.486007	0.415990
O148	O	0.874089	0.013993	0.915990
H149	H	0.429179	-0.477501	0.408724
H150	H	0.929179	0.022499	0.908724
H151	H	0.720503	-0.472621	0.404530
H152	H	1.220503	0.027379	0.904530
O153	O	1.068279	-1.089976	0.236296
O154	O	1.568279	-0.589976	0.736296
H155	H	1.098381	-1.047399	0.206219
H156	H	1.598381	-0.547399	0.706219
H157	H	0.592237	-0.288951	0.247754
H158	H	1.092237	0.211049	0.747754
O159	O	0.888248	-0.485640	1.077809
O160	O	1.388248	0.014360	1.577809
H161	H	0.853840	-0.450242	1.110017
H162	H	1.353840	0.049758	1.610017
O163	O	1.111569	-0.966154	0.193064
O164	O	1.611569	-0.466154	0.693064
H165	H	1.081320	-1.003831	0.158610
H166	H	1.581320	-0.503831	0.658610
O167	O	0.888231	-1.090026	0.416080
O168	O	1.388231	-0.590026	0.916080
H169	H	0.858105	-1.047462	0.446150
H170	H	1.358105	-0.547462	0.946150
H171	H	0.899621	-0.472406	0.584462
H172	H	1.399621	0.027594	1.084462
H173	H	0.899647	-0.472373	0.712708
H174	H	1.399647	0.027627	1.212708
O175	O	0.729830	-0.275574	0.236310
O176	O	1.229830	0.224426	0.736310
H177	H	0.693374	-0.240387	0.206258
H178	H	1.193374	0.259613	0.706258
H179	H	0.899549	-0.681701	0.404619
H180	H	1.399549	-0.181701	0.904619
O181	O	0.844824	-0.794626	0.459306
O182	O	1.344824	-0.294626	0.959306
H183	H	0.852085	-0.730289	0.452032
H184	H	1.352085	-0.230289	0.952032
H185	H	1.056836	-0.288881	1.068524
H186	H	1.556836	0.211119	1.568524
O187	O	0.844871	-0.966216	0.459304
O188	O	1.344871	-0.466216	0.959304
H189	H	0.875150	-1.003794	0.493767
H190	H	1.375150	-0.503794	0.993767
H191	H	1.100064	-0.805474	0.204449
H192	H	1.600064	-0.305474	0.704449
O193	O	1.068219	-0.275653	0.575181
O194	O	1.568219	0.224347	1.075181
H195	H	1.102643	-0.311044	0.542984
H196	H	1.602643	0.188956	1.042984
H197	H	1.056707	-0.681660	0.247691
H198	H	1.556707	-0.181660	0.747691
H199	H	0.899682	-0.472330	0.940231
H200	H	1.399682	0.027670	1.440231
O201	O	1.068260	-0.275561	0.930934
O202	O	1.568260	0.224439	1.430934
H203	H	1.098374	-0.240398	0.967396
H204	H	1.598374	0.259602	1.467396
