data_functionalizedCrystal
_audit_creation_method	'MofGen! by Chris Wilmer'
_symmetry_space_group_name_H-M	'P1'
_symmetry_Int_Tables_number	1
_symmetry_cell_setting	triclinic
loop_
_symmetry_equiv_pos_as_xyz
  x,y,z
_cell_length_a	17.038272
_cell_length_b	16.098538
_cell_length_c	14.044220
_cell_angle_alpha	87.028703
_cell_angle_beta	87.849783
_cell_angle_gamma	87.069734
loop_
_atom_site_label
_atom_site_type_symbol
_atom_site_fract_x
_atom_site_fract_y
_atom_site_fract_z
O1	O	1.055067	-0.069155	-0.203030
O2	O	1.555067	0.430845	0.296970
O3	O	0.827207	-0.069179	-0.199741
O4	O	1.327207	0.430821	0.300259
O5	O	0.937717	-0.069159	-0.063125
O6	O	1.437717	0.430841	0.436875
O7	O	0.944558	-0.069175	-0.339645
O8	O	1.444558	0.430825	0.160355
O9	O	0.931259	0.069353	-0.071072
O10	O	1.431259	0.569353	0.428928
O11	O	0.820750	0.069333	-0.207688
O12	O	1.320750	0.569333	0.292312
O13	O	1.048609	0.069357	-0.210976
O14	O	1.548609	0.569357	0.289024
Zn15	Zn	0.933654	0.091337	-0.210594
Zn16	Zn	1.433654	0.591337	0.289406
Zn17	Zn	0.942162	-0.091158	-0.200124
Zn18	Zn	1.442162	0.408842	0.299876
O19	O	0.938100	0.069337	-0.347592
O20	O	1.438100	0.569337	0.152408
C21	C	0.794641	0.000074	-0.200725
C22	C	1.294641	0.500074	0.299275
C23	C	0.707225	0.000065	-0.191805
C24	C	1.207225	0.500065	0.308195
N25	N	0.927853	0.215885	-0.217740
N26	N	1.427853	0.715885	0.282260
N27	N	0.947969	-0.215707	-0.192971
N28	N	1.447969	0.284293	0.307029
C29	C	0.662840	0.000061	-0.273693
C30	C	1.162840	0.500061	0.226307
C31	C	0.580702	0.000073	-0.265308
C32	C	1.080702	0.500073	0.234692
C33	C	0.542951	0.000083	-0.175033
C34	C	1.042951	0.500083	0.324967
C35	C	0.587342	0.000089	-0.093139
C36	C	1.087342	0.500089	0.406861
C37	C	0.669478	0.000083	-0.101526
C38	C	1.169478	0.500083	0.398474
C39	C	0.295119	0.000107	-0.145405
C40	C	0.795119	0.500107	0.354595
C41	C	0.212977	0.000110	-0.137024
C42	C	0.712977	0.500110	0.362976
C43	C	0.206342	0.000095	-0.309194
C44	C	0.706342	0.500095	0.190806
C45	C	0.288481	0.000084	-0.317572
C46	C	0.788481	0.500084	0.182428
C47	C	0.332864	0.000095	-0.235678
C48	C	0.832864	0.500095	0.264322
C49	C	0.458993	0.000092	-0.166460
C50	C	0.958993	0.500092	0.333540
C51	C	0.416820	0.000091	-0.244253
C52	C	0.916820	0.500091	0.255747
C53	C	1.081175	0.000103	-0.209993
C54	C	1.581175	0.500103	0.290007
C55	C	1.168592	0.000106	-0.218912
C56	C	1.668592	0.500106	0.281088
C57	C	0.931493	0.000097	-0.031543
C58	C	1.431493	0.500097	0.468457
C59	C	0.922562	0.000097	0.074403
C60	C	1.422562	0.500097	0.574403
C61	C	0.974778	0.259478	-0.159778
C62	C	1.474778	0.759478	0.340222
C63	C	0.970728	0.346667	-0.164786
C64	C	1.470728	0.846667	0.335214
C65	C	0.919756	0.390260	-0.227762
C66	C	1.419756	0.890260	0.272238
C67	C	0.872826	0.346660	-0.285726
C68	C	1.372826	0.846660	0.214274
C69	C	0.876873	0.259473	-0.280712
C70	C	1.376873	0.759473	0.219288
C71	C	0.905086	0.653507	-0.245921
C72	C	1.405086	1.153507	0.254079
C73	C	0.901044	0.740700	-0.250933
C74	C	1.401044	1.240700	0.249067
C75	C	0.998945	0.740700	-0.129991
C76	C	1.498945	1.240700	0.370009
C77	C	1.002991	0.653512	-0.124987
C78	C	1.502991	1.153512	0.375013
C79	C	0.956058	0.609920	-0.182947
C80	C	1.456058	1.109920	0.317053
C81	C	0.915617	0.479380	-0.232885
C82	C	1.415617	0.979380	0.267115
C83	C	0.960193	0.520801	-0.177819
C84	C	1.460193	1.020801	0.322181
C85	C	0.944323	0.000079	-0.379175
C86	C	1.444323	0.500079	0.120825
C87	C	0.953255	0.000074	-0.485120
C88	C	1.453255	0.500074	0.014880
C89	C	0.906234	0.000083	0.268382
C90	C	1.406234	0.500083	0.768382
C91	C	0.969579	0.000088	0.320907
C92	C	1.469579	0.500088	0.820907
C93	C	0.960494	0.000080	0.428843
C94	C	1.460494	0.500080	0.928843
C95	C	0.915318	0.000091	0.160435
C96	C	1.415318	0.500091	0.660435
H97	H	0.693570	0.000052	-0.347205
H98	H	1.193570	0.500052	0.152795
O99	O	1.050453	0.000098	0.273099
O100	O	1.550453	0.500098	0.773099
H101	H	1.095457	0.000094	0.328230
H102	H	1.595457	0.500094	0.828230
O103	O	0.825364	0.000089	0.316187
O104	O	1.325364	0.500089	0.816187
H105	H	0.820838	-0.056362	0.364526
H106	H	1.320838	0.443638	0.864526
O107	O	0.817853	0.393679	-0.353653
O108	O	1.317853	0.893679	0.146347
H109	H	0.833829	0.376922	-0.427813
H110	H	1.333829	0.876922	0.072187
H111	H	1.037155	0.776201	-0.082802
H112	H	1.537155	1.276201	0.417198
H113	H	1.044496	0.618020	-0.073708
H114	H	1.544496	1.118020	0.426292
H115	H	0.544567	0.000069	-0.331990
H116	H	1.044567	0.500069	0.168010
H117	H	0.182244	0.000118	-0.063508
H118	H	0.682244	0.500118	0.436492
H119	H	0.319212	0.000066	-0.391083
H120	H	0.819212	0.500066	0.108917
O121	O	0.418276	0.000103	-0.069092
O122	O	0.918276	0.500103	0.430908
H123	H	0.383638	-0.056350	-0.057914
H124	H	0.883638	0.443650	0.442086
O125	O	0.158473	0.000101	-0.397521
O126	O	0.658473	0.500101	0.102479
H127	H	0.095016	0.000117	-0.376528
H128	H	0.595016	0.500117	0.123472
H129	H	0.331247	0.000116	-0.078720
H130	H	0.831247	0.500116	0.421280
H131	H	0.859535	0.776189	-0.302219
H132	H	1.359535	1.276189	0.197781
O133	O	0.546631	0.000103	0.004232
O134	O	1.046631	0.500103	0.504232
H135	H	0.482060	0.000099	-0.003691
H136	H	0.982060	0.500099	0.496309
O137	O	0.854476	0.606494	-0.308441
O138	O	1.354476	1.106494	0.191559
H139	H	0.818362	0.651457	-0.353082
H140	H	1.318362	1.151457	0.146918
H141	H	0.838661	0.223980	-0.327909
H142	H	1.338661	0.723980	0.172091
O143	O	0.717357	0.000085	-0.013205
O144	O	1.217357	0.500085	0.486795
H145	H	0.677310	0.000085	0.050979
H146	H	1.177310	0.500085	0.550979
H147	H	0.447560	0.000088	-0.317755
H148	H	0.947560	0.500088	0.182245
H149	H	1.016288	0.223991	-0.108501
H150	H	1.516288	0.723991	0.391499
H151	H	1.008937	0.382160	-0.117589
H152	H	1.508937	0.882160	0.382411
H153	H	0.874116	0.514881	-0.284163
H154	H	1.374116	1.014881	0.215837
O155	O	1.015151	0.473780	-0.109881
O156	O	1.515151	0.973780	0.390119
H157	H	1.058006	0.434041	-0.150825
H158	H	1.558006	0.934041	0.349175
