data_functionalizedCrystal
_audit_creation_method	'MofGen! by Chris Wilmer'
_symmetry_space_group_name_H-M	'P1'
_symmetry_Int_Tables_number	1
_symmetry_cell_setting	triclinic
loop_
_symmetry_equiv_pos_as_xyz
  x,y,z
_cell_length_a	17.077404
_cell_length_b	16.625546
_cell_length_c	17.077396
_cell_angle_alpha	90.030215
_cell_angle_beta	90.019501
_cell_angle_gamma	90.022693
loop_
_atom_site_label
_atom_site_type_symbol
_atom_site_fract_x
_atom_site_fract_y
_atom_site_fract_z
Zn1	Zn	1.200057	-0.320997	0.443833
Zn2	Zn	1.533390	0.012337	0.777167
Zn3	Zn	1.866724	0.345670	1.110500
Zn4	Zn	1.199965	-0.455839	0.312563
Zn5	Zn	1.533298	-0.122506	0.645897
Zn6	Zn	1.866632	0.210827	0.979230
Zn7	Zn	1.068789	-0.321025	0.312581
Zn8	Zn	1.402122	0.012308	0.645915
Zn9	Zn	1.735455	0.345642	0.979248
Zn10	Zn	1.068758	-0.455792	0.443787
Zn11	Zn	1.402091	-0.122458	0.777120
Zn12	Zn	1.735424	0.210875	1.110454
O13	O	1.134392	-0.388413	0.378191
O14	O	1.467725	-0.055080	0.711524
O15	O	1.801059	0.278253	1.044858
O16	O	1.309892	-0.338892	0.426432
O17	O	1.643225	-0.005559	0.759765
O18	O	1.976558	0.327775	1.093099
O19	O	1.182539	-0.437988	0.202719
O20	O	1.515872	-0.104655	0.536052
O21	O	1.849205	0.228679	0.869385
O22	O	1.086253	-0.208189	0.330019
O23	O	1.419587	0.125144	0.663352
O24	O	1.752920	0.458478	0.996686
O25	O	1.309824	-0.437960	0.329988
O26	O	1.643157	-0.104627	0.663322
O27	O	1.976491	0.228706	0.996655
O28	O	1.182695	-0.208168	0.426449
O29	O	1.516029	0.125165	0.759783
O30	O	1.849362	0.458499	1.093116
O31	O	1.086164	-0.338940	0.202732
O32	O	1.419497	-0.005607	0.536065
O33	O	1.752831	0.327726	0.869399
O34	O	0.958938	-0.338894	0.329974
O35	O	1.292271	-0.005561	0.663307
O36	O	1.625604	0.327773	0.996641
O37	O	1.086200	-0.437879	0.553640
O38	O	1.419534	-0.104546	0.886973
O39	O	1.752867	0.228788	1.220307
O40	O	0.958915	-0.437906	0.426370
O41	O	1.292248	-0.104573	0.759704
O42	O	1.625582	0.228760	1.093037
O43	O	1.182665	-0.338846	0.553674
O44	O	1.515999	-0.005512	0.887007
O45	O	1.849332	0.327821	1.220341
O46	O	1.182509	-0.568666	0.329943
O47	O	1.515842	-0.235332	0.663277
O48	O	1.849175	0.098001	0.996610
O49	O	1.086111	-0.568630	0.426353
O50	O	1.419444	-0.235297	0.759686
O51	O	1.752778	0.098036	1.093020
C52	C	0.930444	-0.388399	0.378169
C53	C	1.263778	-0.055065	0.711503
C54	C	1.597111	0.278268	1.044836
C55	C	0.843194	-0.388412	0.378179
C56	C	1.176528	-0.055078	0.711512
C57	C	1.509861	0.278255	1.044845
C58	C	0.802213	-0.440045	0.428292
C59	C	1.135546	-0.106712	0.761625
C60	C	1.468880	0.226621	1.094959
C61	C	0.720232	-0.440047	0.428304
C62	C	1.053566	-0.106714	0.761638
C63	C	1.386899	0.226620	1.094971
C64	C	0.679235	-0.388419	0.378199
C65	C	1.012568	-0.055085	0.711533
C66	C	1.345902	0.278248	1.044866
C67	C	0.720222	-0.336780	0.328084
C68	C	1.053556	-0.003446	0.661418
C69	C	1.386889	0.329887	0.994751
C70	C	0.802201	-0.336774	0.328076
C71	C	1.135535	-0.003441	0.661410
C72	C	1.468868	0.329892	0.994743
C73	C	0.549352	-0.336795	0.328103
C74	C	0.882686	-0.003462	0.661436
C75	C	1.216019	0.329871	0.994770
C76	C	0.467368	-0.336801	0.328110
C77	C	0.800701	-0.003468	0.661443
C78	C	1.134034	0.329865	0.994776
C79	C	0.467383	-0.440068	0.428331
C80	C	0.800717	-0.106735	0.761665
C81	C	1.134050	0.226598	1.094998
C82	C	0.549362	-0.440063	0.428323
C83	C	0.882696	-0.106730	0.761657
C84	C	1.216029	0.226604	1.094990
C85	C	0.590344	-0.388425	0.378207
C86	C	0.923677	-0.055091	0.711540
C87	C	1.257011	0.278242	1.044873
C88	C	1.134318	-0.597904	0.378158
C89	C	1.467651	-0.264571	0.711492
C90	C	1.800984	0.068763	1.044825
C91	C	1.134358	-0.687525	0.378170
C92	C	1.467691	-0.354192	0.711504
C93	C	1.801024	-0.020859	1.044837
C94	C	1.134495	-1.015701	0.378252
C95	C	1.467828	-0.682367	0.711586
C96	C	1.801161	-0.349034	1.044919
C97	C	1.134454	-0.924392	0.378232
C98	C	1.467787	-0.591059	0.711565
C99	C	1.801121	-0.257726	1.044898
C100	C	1.134426	-0.851616	0.378211
C101	C	1.467759	-0.518283	0.711544
C102	C	1.801092	-0.184949	1.044878
C103	C	1.134386	-0.760302	0.378191
C104	C	1.467720	-0.426968	0.711525
C105	C	1.801053	-0.093635	1.044858
C106	C	1.339136	-0.388428	0.378213
C107	C	1.672470	-0.055095	0.711547
C108	C	2.005803	0.278238	1.044880
C109	C	1.426386	-0.388435	0.378223
C110	C	1.759719	-0.055102	0.711556
C111	C	2.093053	0.278232	1.044889
C112	C	1.134440	-0.388354	0.582936
C113	C	1.467773	-0.055021	0.916269
C114	C	1.801106	0.278313	1.249602
C115	C	1.134460	-0.388329	0.670185
C116	C	1.467793	-0.054995	1.003519
C117	C	1.801126	0.278338	1.336852
C118	C	1.134488	-0.178104	0.378241
C119	C	1.467821	0.155229	0.711575
C120	C	1.801155	0.488562	1.044908
C121	C	1.134529	-0.088483	0.378263
C122	C	1.467862	0.244850	0.711596
C123	C	1.801196	0.578183	1.044929
C124	C	1.134390	-0.388414	0.174243
C125	C	1.467723	-0.055081	0.507577
C126	C	1.801057	0.278252	0.840910
C127	C	1.134522	-0.388212	0.086994
C128	C	1.467855	-0.054879	0.420327
C129	C	1.801188	0.278454	0.753661
C130	C	1.184691	-0.336758	0.711195
C131	C	1.518024	-0.003424	1.044528
C132	C	1.851358	0.329909	1.377861
C133	C	1.184700	-0.336731	0.793175
C134	C	1.518034	-0.003397	1.126508
C135	C	1.851367	0.329936	1.459842
C136	C	1.134482	-0.388280	0.834145
C137	C	1.467815	-0.054946	1.167478
C138	C	1.801149	0.278387	1.500812
C139	C	1.084245	-0.439853	0.793130
C140	C	1.417579	-0.106519	1.126463
C141	C	1.750912	0.226814	1.459797
C142	C	1.084233	-0.439875	0.711151
C143	C	1.417566	-0.106541	1.044484
C144	C	1.750899	0.226792	1.377818
C145	C	1.084277	-0.439804	0.964000
C146	C	1.417610	-0.106471	1.297333
C147	C	1.750944	0.226862	1.630667
C148	C	1.084291	-0.439783	1.045985
C149	C	1.417624	-0.106450	1.379318
C150	C	1.750957	0.226883	1.712651
C151	C	1.184745	-0.336660	1.046024
C152	C	1.518078	-0.003327	1.379358
C153	C	1.851411	0.330007	1.712691
C154	C	1.184732	-0.336682	0.964045
C155	C	1.518065	-0.003349	1.297379
C156	C	1.851399	0.329984	1.630712
C157	C	1.134496	-0.388257	0.923036
C158	C	1.467829	-0.054923	1.256369
C159	C	1.801163	0.278410	1.589703
H160	H	0.433990	-0.294752	0.287319
H161	H	0.767323	0.038582	0.620653
H162	H	1.100656	0.371915	0.953986
O163	O	0.675996	-0.281115	0.274029
O164	O	1.009329	0.052219	0.607362
O165	O	1.342663	0.385552	0.940695
H166	H	0.638659	-0.240145	0.309226
H167	H	0.971992	0.093188	0.642559
H168	H	1.305325	0.426522	0.975892
H169	H	1.225587	-0.294783	0.677843
H170	H	1.558920	0.038550	1.011176
H171	H	1.892254	0.371884	1.344509
H172	H	1.225647	-0.294665	1.079418
H173	H	1.558981	0.038668	1.412751
H174	H	1.892314	0.372002	1.746085
H175	H	0.582740	-0.482108	0.469119
H176	H	0.916074	-0.148774	0.802452
H177	H	1.249407	0.184559	1.135786
H178	H	0.835567	-0.294725	0.287273
H179	H	1.168901	0.038609	0.620606
H180	H	1.502234	0.371942	0.953940
H181	H	1.043357	-0.481789	0.930613
H182	H	1.376691	-0.148456	1.263946
H183	H	1.710024	0.184878	1.597280
H184	H	0.582717	-0.294739	0.287300
H185	H	0.916050	0.038595	0.620633
H186	H	1.249384	0.371928	0.953967
O187	O	1.238882	-0.281113	0.837410
O188	O	1.572216	0.052220	1.170743
O189	O	1.905549	0.385553	1.504076
H190	H	1.273808	-0.245281	0.795148
H191	H	1.607142	0.088052	1.128481
H192	H	1.940475	0.421386	1.461815
O193	O	1.030121	-0.495372	1.090179
O194	O	1.363454	-0.162039	1.423512
O195	O	1.696788	0.171294	1.756846
H196	H	0.995177	-0.531229	1.047892
H197	H	1.328510	-0.197896	1.381225
H198	H	1.661844	0.135437	1.714559
O199	O	1.238902	-0.281090	0.919856
O200	O	1.572236	0.052243	1.253189
O201	O	1.905569	0.385577	1.586523
H202	H	1.203784	-0.240079	0.882503
H203	H	1.537117	0.093254	1.215837
H204	H	1.870451	0.426587	1.549170
O205	O	1.030073	-0.495446	0.837315
O206	O	1.363406	-0.162113	1.170649
O207	O	1.696740	0.171220	1.503982
H208	H	1.065189	-0.536469	0.874657
H209	H	1.398523	-0.203136	1.207990
H210	H	1.731856	0.130198	1.541324
O211	O	1.030045	-0.495486	0.666913
O212	O	1.363378	-0.162153	1.000247
O213	O	1.696712	0.171180	1.333580
H214	H	0.995127	-0.531329	0.709173
H215	H	1.328460	-0.197995	1.042506
H216	H	1.661794	0.135338	1.375840
O217	O	0.676028	-0.495891	0.482203
O218	O	1.009361	-0.162558	0.815537
O219	O	1.342695	0.170776	1.148870
H220	H	0.718309	-0.531853	0.516981
H221	H	1.051642	-0.198520	0.850314
H222	H	1.384975	0.134813	1.183648
O223	O	0.423189	-0.495760	0.482394
O224	O	0.756523	-0.162427	0.815727
O225	O	1.089856	0.170906	1.149061
H226	H	0.359297	-0.487085	0.473992
H227	H	0.692630	-0.153751	0.807325
H228	H	1.025963	0.179582	1.140659
H229	H	0.835587	-0.482090	0.469091
H230	H	1.168920	-0.148757	0.802424
H231	H	1.502254	0.184577	1.135757
