data_functionalizedCrystal
_audit_creation_method	'MofGen! by Chris Wilmer'
_symmetry_space_group_name_H-M	'P1'
_symmetry_Int_Tables_number	1
_symmetry_cell_setting	triclinic
loop_
_symmetry_equiv_pos_as_xyz
  x,y,z
_cell_length_a	10.723022
_cell_length_b	12.811415
_cell_length_c	9.198806
_cell_angle_alpha	84.565959
_cell_angle_beta	89.996352
_cell_angle_gamma	84.254359
loop_
_atom_site_label
_atom_site_type_symbol
_atom_site_fract_x
_atom_site_fract_y
_atom_site_fract_z
O1	O	1.656456	0.147208	-0.140287
O2	O	1.293233	0.161301	-0.142150
O3	O	1.483982	0.001528	-0.121077
O4	O	1.465707	0.306981	-0.161360
O5	O	1.483967	0.001528	0.120708
O6	O	1.293218	0.161301	0.099635
O7	O	1.656440	0.147207	0.101498
Cu8	Cu	1.474828	0.154254	0.122644
Cu9	Cu	1.474846	0.154255	-0.163295
O10	O	1.465691	0.306981	0.080425
C11	C	1.246731	0.160276	-0.021123
C12	C	1.108192	0.157208	-0.020720
C13	C	0.889584	0.243436	-0.032094
C14	C	1.032771	0.246609	-0.032511
C15	C	1.482950	-0.037584	0.004970
C16	C	1.479883	-0.154124	0.020330
C17	C	1.474113	-0.373103	-0.214432
C18	C	1.471231	-0.482603	-0.200007
C19	C	1.471228	-0.482624	0.063603
C20	C	1.474110	-0.373125	0.049178
C21	C	1.475554	-0.318368	-0.089844
C22	C	1.478445	-0.208867	-0.104267
C23	C	1.478433	-0.208890	0.159341
C24	C	1.475551	-0.318389	0.173766
C25	C	1.702943	0.148233	-0.019532
C26	C	1.841482	0.151300	-0.019945
C27	C	1.466723	0.346092	-0.045625
C28	C	1.469791	0.462632	-0.060994
N29	N	1.474824	0.154253	0.323758
N30	N	1.474859	0.154247	-0.364408
C31	C	1.554916	0.086873	0.404841
C32	C	1.554935	0.086869	0.572254
H33	H	0.824760	0.319968	-0.042197
H34	H	1.479611	-0.164313	0.260790
C35	C	1.469612	-0.542873	0.216515
N36	N	1.468388	-0.588252	0.331689
H37	H	1.474370	-0.362987	0.286954
C38	C	1.088722	0.353184	-0.046563
N39	N	1.130867	0.433460	-0.057150
H40	H	1.479625	-0.164286	-0.217466
H41	H	1.406264	0.211933	0.378278
H42	H	1.066781	0.078318	-0.010355
C43	C	1.475709	-0.312869	-0.367355
N44	N	1.476909	-0.267503	-0.482540
C45	C	1.647512	0.008924	0.331195
N46	N	1.717253	-0.049795	0.275727
H47	H	1.470053	-0.527164	-0.301460
H48	H	1.623509	0.029186	0.641948
C49	C	0.929050	0.047905	-0.006304
N50	N	0.995005	-0.029976	0.003974
H51	H	1.406290	0.211941	0.565905
