data_functionalizedCrystal
_audit_creation_method	'MofGen! by Chris Wilmer'
_symmetry_space_group_name_H-M	'P1'
_symmetry_Int_Tables_number	1
_symmetry_cell_setting	triclinic
loop_
_symmetry_equiv_pos_as_xyz
  x,y,z
_cell_length_a	14.853558
_cell_length_b	13.596369
_cell_length_c	14.853567
_cell_angle_alpha	89.997808
_cell_angle_beta	96.366968
_cell_angle_gamma	90.004798
loop_
_atom_site_label
_atom_site_type_symbol
_atom_site_fract_x
_atom_site_fract_y
_atom_site_fract_z
O1	O	1.196371	0.081771	-0.117666
O2	O	0.933910	0.081774	-0.131696
O3	O	1.072151	0.081776	0.006549
O4	O	1.058130	0.081770	-0.255911
O5	O	1.072137	-0.081807	0.006556
O6	O	0.933896	-0.081808	-0.131689
O7	O	1.196357	-0.081812	-0.117658
Zn8	Zn	1.065125	-0.107783	-0.124672
Zn9	Zn	1.065143	0.107745	-0.124682
O10	O	1.058116	-0.081813	-0.255904
C11	C	0.900314	-0.000016	-0.131058
C12	C	0.800230	-0.000015	-0.129158
C13	C	0.753218	0.089158	-0.128270
C14	C	0.753201	-0.089186	-0.128252
C15	C	0.659167	-0.089188	-0.126461
C16	C	0.612155	-0.000015	-0.125574
C17	C	0.659176	0.089159	-0.126477
C18	C	0.612141	-0.178361	-0.125549
C19	C	0.518101	-0.178366	-0.123757
C20	C	0.471086	-0.089192	-0.122876
C21	C	0.518113	-0.000014	-0.123781
C22	C	0.471100	0.089159	-0.122893
C23	C	0.518124	0.178338	-0.123804
C24	C	0.612160	0.178333	-0.125596
C25	C	0.377050	-0.089187	-0.121084
C26	C	0.377058	0.089160	-0.121100
N27	N	1.065119	-0.254874	-0.124665
C28	C	1.065141	-0.656165	-0.124683
C29	C	1.065132	-0.544514	-0.124681
C30	C	1.065131	-0.455523	-0.124675
C31	C	1.065121	-0.343865	-0.124672
C32	C	1.229953	-0.000019	-0.118296
C33	C	1.330037	-0.000014	-0.120197
C34	C	1.071509	-0.000013	0.040141
C35	C	1.069605	-0.000004	0.140225
N36	N	1.065156	0.254837	-0.124682
C37	C	1.058758	-0.000022	-0.289496
C38	C	1.060662	-0.000024	-0.389580
C39	C	0.979439	-0.000022	0.552756
C40	C	1.143673	-0.000024	0.574042
C41	C	1.145463	-0.000018	0.480009
C42	C	1.064240	-0.000016	0.422344
C43	C	0.981227	-0.000019	0.458713
C44	C	1.228474	-0.000025	0.443632
C45	C	1.230268	-0.000020	0.349593
C46	C	1.149044	-0.000011	0.291927
C47	C	1.066027	-0.000013	0.328301
C48	C	0.984805	-0.000011	0.270637
C49	C	0.901787	-0.000006	0.307009
C50	C	0.900003	-0.000010	0.401047
C51	C	1.150828	-0.000007	0.197890
C52	C	0.986592	-0.000008	0.176594
H53	H	0.338766	-0.161795	-0.120351
H54	H	1.294601	-0.000036	0.490589
H55	H	1.297865	-0.000023	0.319987
H56	H	0.338786	0.161776	-0.120383
H57	H	0.791485	-0.161787	-0.128967
N58	N	0.801233	0.180257	-0.129188
N59	N	0.759243	0.259865	-0.128390
H60	H	0.793154	0.324206	-0.129036
N61	N	0.818832	0.000006	0.248088
N62	N	0.801527	0.068959	0.193231
H63	H	0.742942	0.068968	0.151613
H64	H	1.218419	-0.000017	0.168279
N65	N	0.660176	-0.269433	-0.126443
N66	N	0.744137	-0.269417	-0.128045
H67	H	0.778067	-0.333740	-0.128677
H68	H	0.479835	0.250942	-0.123077
N69	N	0.894635	-0.000036	0.589889
N70	N	0.822124	-0.000043	0.538389
H71	H	0.762229	-0.000057	0.564613
N72	N	0.470086	-0.269463	-0.122825
N73	N	0.512074	-0.349073	-0.123614
H74	H	0.478163	-0.413413	-0.122958
N75	N	0.903632	0.000005	0.117680
N76	N	0.886319	0.068960	0.062828
H77	H	0.827728	0.068971	0.021218
N78	N	0.815220	-0.000025	0.438220
N79	N	0.795908	-0.068988	0.488319
H80	H	0.736032	-0.069003	0.514579
H81	H	1.209801	-0.000034	0.620998
H82	H	0.650456	0.250938	-0.126336
