data_functionalizedCrystal
_audit_creation_method	'MofGen! by Chris Wilmer'
_symmetry_space_group_name_H-M	'P1'
_symmetry_Int_Tables_number	1
_symmetry_cell_setting	triclinic
loop_
_symmetry_equiv_pos_as_xyz
  x,y,z
_cell_length_a	21.295420
_cell_length_b	21.295417
_cell_length_c	12.759387
_cell_angle_alpha	89.961464
_cell_angle_beta	89.977051
_cell_angle_gamma	90.026289
loop_
_atom_site_label
_atom_site_type_symbol
_atom_site_fract_x
_atom_site_fract_y
_atom_site_fract_z
Zn1	Zn	0.962345	-0.250647	-0.594017
Zn2	Zn	0.962251	-0.355930	-0.418314
Zn3	Zn	0.857071	-0.250671	-0.418346
Zn4	Zn	0.857038	-0.355874	-0.593945
O5	O	0.909676	-0.303280	-0.506156
O6	O	1.050422	-0.264626	-0.570726
O7	O	0.948273	-0.342000	-0.271297
O8	O	0.871090	-0.162578	-0.441693
O9	O	1.050352	-0.341977	-0.441637
O10	O	0.948434	-0.162561	-0.570757
O11	O	0.870998	-0.264667	-0.271321
O12	O	0.768978	-0.264613	-0.441624
O13	O	0.871033	-0.341883	-0.740976
O14	O	0.768953	-0.341906	-0.570635
O15	O	0.948401	-0.264572	-0.741029
O16	O	0.948240	-0.444012	-0.441568
O17	O	0.870941	-0.443971	-0.570604
C18	C	0.746125	-0.303256	-0.506126
C19	C	0.676157	-0.303261	-0.506138
C20	C	0.176734	-0.263099	-0.573497
C21	C	0.242477	-0.263094	-0.573497
C22	C	0.275317	-0.303300	-0.506180
C23	C	0.242410	-0.343524	-0.438877
C24	C	0.176668	-0.343532	-0.438887
N25	N	0.378508	-0.308051	-0.414185
N26	N	0.440960	-0.308040	-0.414179
C27	C	0.473392	-0.303279	-0.506149
N28	N	0.441013	-0.298517	-0.598127
N29	N	0.378556	-0.298525	-0.598132
C30	C	0.346602	-0.303296	-0.506163
C31	C	0.577577	-0.263055	-0.573453
C32	C	0.643321	-0.263054	-0.573454
C33	C	0.643252	-0.343481	-0.438825
C34	C	0.577510	-0.343485	-0.438833
C35	C	0.544676	-0.303268	-0.506145
C36	C	0.909594	-0.466832	-0.506097
C37	C	0.909616	-0.536800	-0.506108
C38	C	0.949902	-0.569667	-0.438987
C39	C	0.949931	-0.635410	-0.439011
C40	C	0.909664	-0.668283	-0.506144
C41	C	0.869375	-0.635408	-0.573277
C42	C	0.869351	-0.569667	-0.573259
N43	N	0.854597	-0.771544	-0.514143
N44	N	0.854621	-0.833995	-0.514154
C45	C	0.909734	-0.866357	-0.506204
N46	N	0.964823	-0.833909	-0.498222
N47	N	0.964798	-0.771452	-0.498205
C48	C	0.909685	-0.739568	-0.506171
C49	C	0.950055	-0.970510	-0.439106
C50	C	0.950086	-1.036253	-0.439137
C51	C	0.869524	-1.036250	-0.573397
C52	C	0.869500	-0.970508	-0.573372
C53	C	0.909764	-0.937642	-0.506221
C54	C	1.073866	-0.303305	-0.506186
C55	C	1.143835	-0.303316	-0.506199
C56	C	0.909724	-0.303219	-0.780189
C57	C	0.909744	-0.303192	-0.896966
C58	C	0.909776	-0.139090	-0.506237
C59	C	0.909819	-0.069122	-0.506272
C60	C	0.990314	-0.222695	-0.897041
C61	C	1.030607	-0.182436	-0.951939
C62	C	1.030623	-0.182413	-1.061660
C63	C	0.990339	-0.222652	-1.116486
C64	C	0.950045	-0.262910	-1.061588
C65	C	0.950035	-0.262930	-0.951864
C66	C	0.869473	-0.343404	-1.061514
C67	C	0.869460	-0.343431	-0.951792
C68	C	0.829189	-0.383642	-1.116340
C69	C	0.788898	-0.423905	-1.061442
C70	C	0.788885	-0.423926	-0.951713
C71	C	0.829166	-0.383689	-0.896894
C72	C	0.909665	-0.303296	-0.233188
C73	C	0.909767	-0.303145	-0.116412
H74	H	0.550723	-0.376231	-0.384027
H75	H	0.670106	-0.230307	-0.628264
H76	H	0.836546	-0.542906	-0.627917
C77	C	0.990350	-0.222625	-1.237177
H78	H	0.960588	-0.252352	-1.261966
H79	H	1.030967	-0.233512	-1.262011
H80	H	0.979489	-0.181992	-1.262012
H81	H	0.669990	-0.376222	-0.384023
H82	H	0.829162	-0.383706	-0.807553
C83	C	0.829206	-0.383618	-1.237030
H84	H	0.858977	-0.353884	-1.261876
H85	H	0.788596	-0.372718	-1.261849
H86	H	0.840069	-0.424243	-1.261825
H87	H	0.756099	-0.456660	-1.106090
C88	C	0.994245	-0.671574	-0.365177
H89	H	0.988494	-0.715434	-0.374812
H90	H	0.985049	-0.660844	-0.294570
H91	H	1.036535	-0.660759	-0.380617
H92	H	0.150005	-0.230354	-0.628312
C93	C	0.825081	-0.671565	-0.647119
H94	H	0.830861	-0.715426	-0.637509
H95	H	0.834267	-0.660750	-0.717721
H96	H	0.782785	-0.660832	-0.631668
C97	C	0.825234	-1.072403	-0.647247
H98	H	0.831016	-1.116264	-0.637644
H99	H	0.834422	-1.061583	-0.717847
H100	H	0.782937	-1.061673	-0.631799
H101	H	0.982843	-0.943749	-0.384431
H102	H	0.269269	-0.230342	-0.628298
C103	C	0.994402	-1.072407	-0.365300
H104	H	1.018372	-1.043415	-0.325301
H105	H	1.021830	-1.098009	-0.405533
H106	H	0.970339	-1.098096	-0.319495
H107	H	0.836693	-0.943746	-0.628023
C108	C	0.990301	-0.222721	-0.776350
H109	H	1.020060	-0.192990	-0.751561
H110	H	1.001152	-0.263351	-0.751509
H111	H	0.949682	-0.211824	-0.751521
H112	H	0.550842	-0.230308	-0.628262
H113	H	0.982689	-0.542909	-0.384312
H114	H	1.063405	-0.149674	-0.907287
C115	C	0.278531	-0.387747	-0.364828
H116	H	0.322397	-0.381978	-0.374453
H117	H	0.267749	-0.430055	-0.380076
H118	H	0.267738	-0.378484	-0.294264
H119	H	0.756066	-0.456703	-0.907022
C120	C	0.140477	-0.387768	-0.364849
H121	H	0.169449	-0.411712	-0.324752
H122	H	0.114830	-0.415224	-0.404956
H123	H	0.114831	-0.363654	-0.319143
C124	C	1.074945	-0.138132	-1.122051
H125	H	1.098938	-0.114173	-1.073689
H126	H	1.050891	-0.110692	-1.164865
H127	H	1.102362	-0.162218	-1.164844
