data_functionalizedCrystal
_audit_creation_method	'MofGen! by Chris Wilmer'
_symmetry_space_group_name_H-M	'P1'
_symmetry_Int_Tables_number	1
_symmetry_cell_setting	triclinic
loop_
_symmetry_equiv_pos_as_xyz
  x,y,z
_cell_length_a	20.875621
_cell_length_b	23.196402
_cell_length_c	23.196401
_cell_angle_alpha	60.007332
_cell_angle_beta	87.041717
_cell_angle_gamma	58.319680
loop_
_atom_site_label
_atom_site_type_symbol
_atom_site_fract_x
_atom_site_fract_y
_atom_site_fract_z
Zr1	Zr	0.617980	0.630980	-0.104463
O2	O	0.515548	0.751242	-0.191731
O3	O	0.649371	0.510719	-0.077713
O4	O	0.649353	0.630982	-0.197978
O5	O	0.515592	0.630978	0.023404
O6	O	0.754911	0.630982	-0.202903
O7	O	0.515567	0.630979	-0.071466
O8	O	0.754944	0.415853	0.012229
O9	O	0.515559	0.846106	-0.191728
O10	O	0.741548	0.560184	-0.069977
O11	O	0.662790	0.560183	0.004499
O12	O	0.662768	0.701777	-0.137098
O13	O	0.584010	0.701775	-0.062622
Zr14	Zr	0.786373	0.630978	0.038989
Zr15	Zr	0.786333	0.630981	-0.112318
Zr16	Zr	0.618020	0.630978	0.046844
Zr17	Zr	0.617997	0.782277	-0.104458
Zr18	Zr	0.786356	0.479681	0.038985
O19	O	0.754982	0.751240	0.012240
O20	O	0.754924	0.751243	-0.202899
O21	O	0.515606	0.751239	0.023408
O22	O	0.888805	0.510716	0.126258
O23	O	0.888747	0.510720	-0.088882
O24	O	0.649429	0.510715	0.137426
O25	O	0.888761	0.630981	-0.088878
O26	O	0.755000	0.630977	0.132505
O27	O	0.649442	0.630976	0.137430
O28	O	0.888786	0.630979	0.005992
O29	O	0.649377	0.846107	-0.197971
O30	O	0.754976	0.415852	0.132498
O31	O	0.888794	0.415852	0.126254
O32	O	0.888762	0.415854	0.005986
O33	O	0.515591	0.846104	-0.071459
O34	O	0.649409	0.846105	-0.077703
O35	O	0.741585	0.560182	0.071624
O36	O	0.820343	0.560183	-0.002852
O37	O	0.741563	0.701776	-0.069973
O38	O	0.662806	0.701775	0.004503
C39	C	0.702155	0.441729	-0.032743
C40	C	0.702148	0.377500	-0.032745
C41	C	0.760315	0.295071	0.016802
C42	C	0.760321	0.234710	0.016808
C43	C	0.702165	0.256784	-0.032744
C44	C	0.643987	0.339227	-0.082294
C45	C	0.643979	0.399585	-0.082295
C46	C	0.684041	0.201198	-0.095690
C47	C	0.684054	0.140839	-0.095690
C48	C	0.702186	0.070622	-0.032742
C49	C	0.720320	0.060763	0.030210
C50	C	0.720312	0.121120	0.030209
C51	C	0.702167	0.191342	-0.032748
C52	C	0.760362	-0.077260	0.016816
C53	C	0.760362	-0.137620	0.016823
C54	C	0.644032	-0.033100	-0.082285
C55	C	0.644029	0.027257	-0.082287
C56	C	0.702198	0.005171	-0.032737
C57	C	0.491593	0.630978	-0.022912
C58	C	0.420123	0.630978	-0.019577
C59	C	0.386531	0.630981	-0.070277
C60	C	0.319380	0.630977	-0.067141
C61	C	0.285817	0.630975	-0.013307
C62	C	0.319415	0.630970	0.037398
C63	C	0.386568	0.630968	0.034264
C64	C	0.084981	0.630974	0.001674
C65	C	0.017822	0.630977	0.004803
C66	C	0.017792	0.630983	-0.099735
C67	C	0.084944	0.630986	-0.102867
C68	C	0.118538	0.630977	-0.052160
N69	N	0.217176	0.630973	-0.010101
N70	N	0.187181	0.630973	-0.055364
C71	C	0.912760	0.630980	-0.042562
C72	C	0.984230	0.630980	-0.045896
C73	C	0.702126	0.630982	-0.221999
C74	C	0.702109	0.630983	-0.286233
C75	C	0.702198	0.820229	-0.032731
C76	C	0.702205	0.884459	-0.032729
C77	C	0.660991	0.704891	-0.351442
C78	C	0.661011	0.704892	-0.411798
C79	C	0.702138	0.630981	-0.406940
C80	C	0.743266	0.557064	-0.341719
C81	C	0.743251	0.557065	-0.281365
C82	C	0.696291	0.574355	-0.473987
C83	C	0.696300	0.574357	-0.534341
C84	C	0.702188	0.630975	-0.593090
C85	C	0.708051	0.687604	-0.591485
C86	C	0.708037	0.687605	-0.531131
C87	C	0.702159	0.630972	-0.472380
C88	C	0.661089	0.704889	-0.723747
C89	C	0.661115	0.704887	-0.784104
C90	C	0.743365	0.557056	-0.714022
C91	C	0.743344	0.557061	-0.653668
C92	C	0.702202	0.630979	-0.658536
C93	C	0.702227	0.630976	0.156525
C94	C	0.702244	0.630975	0.220759
C95	C	0.912739	0.441730	-0.042568
C96	C	0.984202	0.377501	-0.045904
C97	C	0.702206	0.441727	0.156519
C98	C	0.702216	0.377496	0.220751
C99	C	0.912789	0.441727	0.146694
C100	C	0.984269	0.377497	0.207591
C101	C	0.491564	0.820231	-0.212168
C102	C	0.420084	0.884461	-0.273065
C103	C	0.491614	0.820228	-0.022906
C104	C	0.420151	0.884458	-0.019569
C105	C	0.702147	0.820232	-0.221993
C106	C	0.702138	0.884463	-0.286225
C107	C	0.976631	0.347339	-0.082516
C108	C	1.043772	0.286997	-0.085665
C109	C	1.118483	0.256814	-0.052198
C110	C	1.126052	0.286982	-0.015584
C111	C	1.058912	0.347327	-0.012440
C112	C	0.743351	0.347332	0.285960
C113	C	0.743357	0.286989	0.346318
C114	C	0.702232	0.256807	0.341466
C115	C	0.661092	0.286976	0.276250
C116	C	0.661082	0.347323	0.215894
C117	C	1.058955	0.347335	0.197313
C118	C	1.126125	0.286992	0.254527
C119	C	1.118607	0.256808	0.322018
C120	C	1.043913	0.286977	0.332295
C121	C	0.976745	0.347323	0.275082
C122	C	0.345398	0.914631	-0.262787
C123	C	0.278228	0.974993	-0.320000
C124	C	0.285746	1.005179	-0.387491
C125	C	0.360440	0.975007	-0.397768
C126	C	0.427608	0.914651	-0.340555
C127	C	0.427722	0.914626	0.017036
C128	C	0.360581	0.974985	0.020169
C129	C	0.285871	1.005170	-0.013301
C130	C	0.278301	0.974998	-0.049911
C131	C	0.345441	0.914645	-0.053047
C132	C	0.743270	0.914626	-0.281350
C133	C	0.743276	0.974969	-0.341698
C134	C	0.702145	1.005153	-0.406919
C135	C	0.661011	0.974984	-0.411792
C136	C	0.661010	0.914637	-0.351445
H137	H	0.735079	0.003593	0.081469
C138	C	0.580046	0.117935	-0.136800
N139	N	0.531852	0.186236	-0.177861
C140	C	0.580058	-0.008814	-0.136793
N141	N	0.531871	0.009476	-0.177848
H142	H	0.669292	0.148872	-0.146949
H143	H	0.776765	0.890060	-0.228249
H144	H	0.231207	1.054313	-0.010742
H145	H	0.776853	0.496877	-0.710065
C146	C	1.067253	0.380491	0.027846
N147	N	1.073541	0.405467	0.058192
H148	H	0.627587	0.371874	0.162800
C149	C	1.208280	0.253810	0.243207
N150	N	1.270158	0.228817	0.234678
H151	H	0.627522	0.999568	-0.464903
C152	C	0.337109	0.881443	-0.188552
N153	N	0.330859	0.856453	-0.132639
C154	C	0.824342	-0.101552	0.071328
N155	N	0.872531	-0.119852	0.112388
H156	H	1.037594	0.262441	-0.115479
H157	H	0.112270	0.630988	-0.146702
H158	H	0.915936	0.371873	0.283460
C159	C	0.788589	0.380526	0.291314
N160	N	0.822661	0.405528	0.295354
H161	H	1.186890	0.262399	0.011663
H162	H	0.735075	0.113090	0.081467
H163	H	0.776735	0.496878	-0.228267
H164	H	0.669268	0.258373	-0.146954
H165	H	0.413918	0.630964	0.075549
C166	C	0.788625	0.253806	0.418048
N167	N	0.822724	0.228812	0.472073
H168	H	0.413851	0.630987	-0.114117
H169	H	0.702247	0.207669	0.390618
H170	H	0.488418	0.890087	-0.348932
H171	H	0.776771	0.999527	-0.337716
H172	H	0.112327	0.630968	0.042960
H173	H	0.627590	0.765078	-0.727711
H174	H	1.173306	0.207671	0.368598
C175	C	0.196112	1.008199	-0.086714
N176	N	0.134205	1.033201	-0.114426
H177	H	0.488549	0.890054	0.044297
H178	H	1.065091	0.371901	0.142364
H179	H	0.915804	0.371913	-0.109779
H180	H	0.807728	-0.204740	0.057174
H181	H	0.366759	0.999540	0.049983
H182	H	0.217416	0.999549	-0.311619
H183	H	0.627609	0.262393	0.272310
H184	H	1.037804	0.262393	0.387253
C185	C	0.580016	0.363507	-0.136802
N186	N	0.531830	0.381797	-0.177858
H187	H	0.231047	1.054325	-0.434072
H188	H	0.339266	0.890083	-0.082854
C189	C	0.368696	1.008214	-0.472014
N190	N	0.374913	1.033222	-0.527938
H191	H	0.627511	0.890085	-0.355423
C192	C	0.824299	0.270772	0.071313
N193	N	0.872491	0.252470	0.112372
C194	C	0.824313	0.144025	0.071314
N195	N	0.872513	0.075723	0.112368
C196	C	0.702152	1.071537	-0.473295
N197	N	0.702159	1.121540	-0.523288
H198	H	0.596608	0.466706	-0.122641
C199	C	0.282445	0.630958	-0.122904
N200	N	0.254631	0.630935	-0.164904
H201	H	-0.009565	0.630990	-0.141017
C202	C	0.282513	0.630933	0.096632
N203	N	0.254724	0.630897	0.141253
C204	C	0.615743	0.786204	-0.356801
N205	N	0.581666	0.847449	-0.360837
C206	C	-0.019093	0.630971	0.064029
N207	N	-0.046898	0.630967	0.108636
C208	C	0.615775	0.786199	-0.483540
N209	N	0.581703	0.847440	-0.537574
H210	H	1.173146	0.207677	-0.054763
C211	C	0.714497	0.749889	-0.529363
N212	N	0.719368	0.796799	-0.528031
H213	H	0.712842	0.733711	-0.639321
C214	C	0.788569	0.475755	-0.581933
N215	N	0.822635	0.414512	-0.527900
C216	C	0.689845	0.512067	-0.536102
N217	N	0.684984	0.465148	-0.537426
C218	C	0.615862	0.786196	-0.855838
N219	N	0.581768	0.847439	-0.909869
H220	H	0.691490	0.528250	-0.426154
C221	C	0.788504	0.475761	-0.336376
N222	N	0.822579	0.414522	-0.332351
