data_functionalizedCrystal
_audit_creation_method	'MofGen! by Chris Wilmer'
_symmetry_space_group_name_H-M	'P1'
_symmetry_Int_Tables_number	1
_symmetry_cell_setting	triclinic
loop_
_symmetry_equiv_pos_as_xyz
  x,y,z
_cell_length_a	23.532355
_cell_length_b	23.532407
_cell_length_c	22.610064
_cell_angle_alpha	89.999397
_cell_angle_beta	89.997644
_cell_angle_gamma	82.838088
loop_
_atom_site_label
_atom_site_type_symbol
_atom_site_fract_x
_atom_site_fract_y
_atom_site_fract_z
O1	O	0.755283	0.068986	-0.049110
O2	O	1.088616	0.402320	0.284223
O3	O	1.421949	0.735653	0.617557
O4	O	0.589415	0.079020	-0.049130
O5	O	0.922748	0.412354	0.284204
O6	O	1.256082	0.745687	0.617537
O7	O	0.677351	-0.008929	-0.049108
O8	O	1.010684	0.324404	0.284225
O9	O	1.344017	0.657737	0.617558
O10	O	0.667347	0.156936	-0.049131
O11	O	1.000680	0.490269	0.284202
O12	O	1.334014	0.823603	0.617535
O13	O	0.677335	-0.008916	0.049261
O14	O	1.010668	0.324417	0.382594
O15	O	1.344002	0.657750	0.715927
O16	O	0.589400	0.079033	0.049239
O17	O	0.922733	0.412367	0.382573
O18	O	1.256066	0.745700	0.715906
O19	O	0.755267	0.068999	0.049259
O20	O	1.088600	0.402333	0.382592
O21	O	1.421934	0.735666	0.715926
Zn22	Zn	0.672331	0.074018	0.064868
Zn23	Zn	1.005664	0.407352	0.398201
Zn24	Zn	1.338998	0.740685	0.731534
Zn25	Zn	0.672351	0.074001	-0.064738
Zn26	Zn	1.005685	0.407335	0.268595
Zn27	Zn	1.339018	0.740668	0.601929
O28	O	0.667332	0.156949	0.049238
O29	O	1.000665	0.490282	0.382571
O30	O	1.333998	0.823616	0.715905
C31	C	0.568191	0.078776	0.000052
C32	C	0.901524	0.412109	0.333386
C33	C	1.234857	0.745443	0.666719
C34	C	0.504972	0.078022	0.000045
C35	C	0.838305	0.411355	0.333379
C36	C	1.171639	0.744689	0.666712
C37	C	0.112950	0.073291	0.053692
C38	C	0.446283	0.406624	0.387025
C39	C	0.779616	0.739958	0.720359
C40	C	0.053550	0.072573	0.053694
C41	C	0.386884	0.405907	0.387028
C42	C	0.720217	0.739240	0.720361
O43	O	0.022825	0.072189	0.099296
O44	O	0.356158	0.405522	0.432630
O45	O	0.689491	0.738856	0.765963
N46	N	0.023850	0.072211	0.000074
N47	N	0.357184	0.405544	0.333407
N48	N	0.690517	0.738877	0.666740
C49	C	0.053554	0.072560	-0.053553
C50	C	0.386887	0.405893	0.279780
C51	C	0.720220	0.739226	0.613113
O52	O	0.022837	0.072185	-0.099162
O53	O	0.356171	0.405518	0.234172
O54	O	0.689504	0.738851	0.567505
C55	C	0.112953	0.073273	-0.053555
C56	C	0.446286	0.406606	0.279778
C57	C	0.779619	0.739940	0.613112
C58	C	0.142649	0.073641	0.000069
C59	C	0.475982	0.406975	0.333403
C60	C	0.809315	0.740308	0.666736
C61	C	0.142646	0.073659	0.107312
C62	C	0.475979	0.406992	0.440645
C63	C	0.809313	0.740325	0.773979
C64	C	0.202041	0.074377	0.107309
C65	C	0.535375	0.407711	0.440643
C66	C	0.868708	0.741044	0.773976
C67	C	0.231740	0.074728	0.053687
C68	C	0.565073	0.408061	0.387020
C69	C	0.898407	0.741395	0.720353
C70	C	0.202044	0.074360	0.000067
C71	C	0.535377	0.407693	0.333400
C72	C	0.868711	0.741027	0.666733
C73	C	0.142655	0.073618	-0.107181
C74	C	0.475989	0.406951	0.226152
C75	C	0.809322	0.740284	0.559486
C76	C	0.202058	0.074331	-0.107178
C77	C	0.535392	0.407664	0.226155
C78	C	0.868725	0.740997	0.559489
C79	C	0.231754	0.074699	-0.053554
C80	C	0.565088	0.408033	0.279779
C81	C	0.898421	0.741366	0.613113
C82	C	0.291138	0.075429	-0.053558
C83	C	0.624471	0.408762	0.279775
C84	C	0.957805	0.742096	0.613108
N85	N	0.320838	0.075792	0.000062
N86	N	0.654171	0.409125	0.333396
N87	N	0.987505	0.742458	0.666729
C88	C	0.291139	0.075441	0.053685
C89	C	0.624472	0.408775	0.387018
C90	C	0.957806	0.742108	0.720352
C91	C	-0.071188	0.071061	-0.053545
C92	C	0.262145	0.404394	0.279788
C93	C	0.595479	0.737727	0.613121
C94	C	-0.130586	0.070351	-0.053544
C95	C	0.202747	0.403685	0.279789
C96	C	0.536080	0.737018	0.613122
C97	C	-0.130585	0.070364	0.053703
C98	C	0.202748	0.403697	0.387037
C99	C	0.536081	0.737031	0.720370
C100	C	-0.071186	0.071077	0.053702
C101	C	0.262147	0.404411	0.387035
C102	C	0.595480	0.737744	0.720368
C103	C	-0.041488	0.071423	0.000075
C104	C	0.291846	0.404757	0.333409
C105	C	0.625179	0.738090	0.666742
C106	C	0.415873	0.076951	0.053675
C107	C	0.749206	0.410284	0.387009
C108	C	1.082540	0.743617	0.720342
C109	C	0.475273	0.077671	0.053668
C110	C	0.808607	0.411005	0.387001
C111	C	1.141940	0.744338	0.720335
C112	C	0.475267	0.077656	-0.053579
C113	C	0.808601	0.410989	0.279754
C114	C	1.141934	0.744322	0.613087
C115	C	0.415872	0.076938	-0.053572
C116	C	0.749205	0.410271	0.279761
C117	C	1.082539	0.743604	0.613094
C118	C	0.386177	0.076583	0.000060
C119	C	0.719510	0.409917	0.333393
C120	C	1.052843	0.743250	0.666727
O121	O	0.321902	0.075812	-0.099137
O122	O	0.655235	0.409145	0.234196
O123	O	0.988568	0.742478	0.567529
O124	O	0.321864	0.075809	0.099286
O125	O	0.655197	0.409142	0.432619
O126	O	0.988530	0.742475	0.765952
C127	C	0.677088	-0.030139	0.000078
C128	C	1.010421	0.303195	0.333411
C129	C	1.343755	0.636528	0.666744
C130	C	0.676322	-0.093356	0.000082
C131	C	1.009656	0.239978	0.333415
C132	C	1.342989	0.573311	0.666749
C133	C	0.723557	-0.492468	0.000055
C134	C	1.056890	-0.159134	0.333389
C135	C	1.390224	0.174199	0.666722
C136	C	0.722845	-0.551868	0.000051
C137	C	1.056179	-0.218534	0.333384
C138	C	1.389512	0.114799	0.666717
O139	O	0.766632	-0.588620	0.000034
O140	O	1.099966	-0.255287	0.333367
O141	O	1.433299	0.078046	0.666701
N142	N	0.670568	-0.574484	0.000045
N143	N	1.003901	-0.241151	0.333378
N144	N	1.337234	0.092183	0.666712
C145	C	0.618998	-0.537697	0.000038
C146	C	0.952332	-0.204364	0.333371
C147	C	1.285665	0.128970	0.666704
O148	O	0.574467	-0.562388	0.000032
O149	O	0.907800	-0.229055	0.333365
O150	O	1.241133	0.104278	0.666698
C151	C	0.619710	-0.478298	0.000038
C152	C	0.953044	-0.144965	0.333371
C153	C	1.286377	0.188369	0.666705
C154	C	0.671991	-0.455685	0.000050
C155	C	1.005325	-0.122352	0.333383
C156	C	1.338658	0.210982	0.666716
C157	C	0.775834	-0.469854	0.000066
C158	C	1.109167	-0.136521	0.333400
C159	C	1.442500	0.196813	0.666733
C160	C	0.776545	-0.410458	0.000072
C161	C	1.109878	-0.077125	0.333405
C162	C	1.443212	0.256209	0.666739
C163	C	0.724979	-0.373676	0.000067
C164	C	1.058313	-0.040342	0.333400
C165	C	1.391646	0.292991	0.666733
C166	C	0.672703	-0.396289	0.000055
C167	C	1.006036	-0.062956	0.333389
C168	C	1.339369	0.270378	0.666722
C169	C	0.568141	-0.441512	0.000027
C170	C	0.901475	-0.108179	0.333360
C171	C	1.234808	0.225155	0.666693
C172	C	0.568858	-0.382110	0.000026
C173	C	0.902191	-0.048776	0.333360
C174	C	1.235525	0.284557	0.666693
C175	C	0.621139	-0.359497	0.000038
C176	C	0.954472	-0.026163	0.333372
C177	C	1.287806	0.307170	0.666705
C178	C	0.621848	-0.300110	0.000056
C179	C	0.955182	0.033223	0.333389
C180	C	1.288515	0.366556	0.666722
N181	N	0.674126	-0.277494	0.000061
N182	N	1.007459	0.055839	0.333395
N183	N	1.340793	0.389173	0.666728
C184	C	0.725691	-0.314277	0.000067
C185	C	1.059025	0.019057	0.333400
C186	C	1.392358	0.352390	0.666734
C187	C	0.617507	-0.662439	0.000036
C188	C	0.950840	-0.329106	0.333369
C189	C	1.284173	0.004228	0.666703
C190	C	0.616794	-0.721837	0.000040
C191	C	0.950127	-0.388504	0.333373
C192	C	1.283461	-0.055170	0.666706
C193	C	0.720642	-0.736004	0.000052
C194	C	1.053975	-0.402670	0.333385
C195	C	1.387308	-0.069337	0.666718
C196	C	0.721354	-0.676605	0.000052
C197	C	1.054687	-0.343271	0.333385
C198	C	1.388020	-0.009938	0.666719
C199	C	0.669784	-0.639823	0.000042
C200	C	1.003118	-0.306489	0.333375
C201	C	1.336451	0.026844	0.666708
C202	C	0.727181	-0.189540	0.000079
C203	C	1.060514	0.143793	0.333413
C204	C	1.393848	0.477127	0.666746
C205	C	0.727888	-0.130138	0.000087
C206	C	1.061221	0.203195	0.333421
C207	C	1.394554	0.536528	0.666754
C208	C	0.624041	-0.115977	0.000072
C209	C	0.957374	0.217357	0.333406
C210	C	1.290707	0.550690	0.666739
C211	C	0.623334	-0.175373	0.000067
C212	C	0.956667	0.157960	0.333401
C213	C	1.290000	0.491293	0.666734
C214	C	0.674909	-0.212154	0.000069
C215	C	1.008242	0.121179	0.333402
C216	C	1.341575	0.454512	0.666736
O217	O	0.578084	-0.263323	0.000070
O218	O	0.911418	0.070010	0.333403
O219	O	1.244751	0.403344	0.666737
O220	O	0.770216	-0.289577	0.000065
O221	O	1.103549	0.043756	0.333398
O222	O	1.436882	0.377090	0.666732
C223	C	0.776491	0.069244	0.000076
C224	C	1.109825	0.402577	0.333409
C225	C	1.443158	0.735910	0.666742
C226	C	0.839710	0.069998	0.000079
C227	C	1.173043	0.403331	0.333412
C228	C	1.506377	0.736664	0.666745
C229	C	0.667594	0.178158	0.000050
C230	C	1.000927	0.511492	0.333384
C231	C	1.334261	0.844825	0.666717
C232	C	0.668360	0.241375	0.000042
C233	C	1.001693	0.574709	0.333375
C234	C	1.335027	0.908042	0.666709
N235	N	0.672321	0.074029	0.153320
N236	N	1.005654	0.407363	0.486653
N237	N	1.338988	0.740696	0.819987
N238	N	0.672366	0.073986	-0.153191
N239	N	1.005699	0.407319	0.180143
N240	N	1.339032	0.740652	0.513476
C241	C	0.711291	0.035063	0.561971
C242	C	1.044624	0.368397	0.895304
C243	C	1.377958	0.701730	1.228637
C244	C	0.711294	0.035059	0.623891
C245	C	1.044627	0.368392	0.957224
C246	C	1.377961	0.701726	1.290557
O247	O	0.744403	0.001937	0.655917
O248	O	1.077736	0.335270	0.989251
O249	O	1.411070	0.668604	1.322584
N250	N	0.672351	0.073990	0.654857
N251	N	1.005684	0.407323	0.988190
N252	N	1.339018	0.740656	1.321524
C253	C	0.633399	0.112923	0.623900
C254	C	0.966732	0.446256	0.957234
C255	C	1.300065	0.779590	1.290567
O256	O	0.600275	0.146036	0.655926
O257	O	0.933608	0.479369	0.989259
O258	O	1.266941	0.812702	1.322592
C259	C	0.633394	0.112924	0.561982
C260	C	0.966727	0.446257	0.895315
C261	C	1.300060	0.779591	1.228648
C262	C	0.672343	0.073995	0.531018
C263	C	1.005676	0.407328	0.864352
C264	C	1.339010	0.740661	1.197685
C265	C	0.750237	-0.003863	0.531007
C266	C	1.083570	0.329470	0.864341
C267	C	1.416903	0.662803	1.197674
C268	C	0.750234	-0.003858	0.469092
C269	C	1.083568	0.329475	0.802425
C270	C	1.416901	0.662808	1.135759
C271	C	0.711286	0.035073	0.438139
C272	C	1.044620	0.368407	0.771473
C273	C	1.377953	0.701740	1.104806
C274	C	0.672340	0.074000	0.469103
C275	C	1.005674	0.407333	0.802436
C276	C	1.339007	0.740666	1.135769
C277	C	0.594439	0.151854	0.531026
C278	C	0.927772	0.485187	0.864359
C279	C	1.261106	0.818521	1.197693
C280	C	0.594437	0.151851	0.469103
C281	C	0.927770	0.485185	0.802436
C282	C	1.261104	0.818518	1.135770
C283	C	0.633386	0.112922	0.438140
C284	C	0.966720	0.446256	0.771473
C285	C	1.300053	0.779589	1.104807
C286	C	0.633390	0.112936	0.376235
C287	C	0.966723	0.446270	0.709568
C288	C	1.300057	0.779603	1.042901
N289	N	0.672333	0.074006	0.345268
N290	N	1.005666	0.407339	0.678602
N291	N	1.339000	0.740672	1.011935
C292	C	0.711281	0.035074	0.376221
C293	C	1.044614	0.368407	0.709554
C294	C	1.377948	0.701741	1.042887
C295	C	0.633412	0.112917	0.753934
C296	C	0.966745	0.446251	1.087267
C297	C	1.300079	0.779584	1.420601
C298	C	0.633419	0.112919	0.815852
C299	C	0.966753	0.446253	1.149185
C300	C	1.300086	0.779586	1.482518
C301	C	0.711314	0.035055	0.815838
C302	C	1.044647	0.368388	1.149171
C303	C	1.377981	0.701721	1.482504
C304	C	0.711309	0.035056	0.753919
C305	C	1.044642	0.368389	1.087252
C306	C	1.377975	0.701722	1.420586
C307	C	0.672355	0.073987	0.722968
C308	C	1.005688	0.407320	1.056301
C309	C	1.339021	0.740653	1.389634
C310	C	0.711273	0.035088	0.246193
C311	C	1.044607	0.368421	0.579527
C312	C	1.377940	0.701755	0.912860
C313	C	0.711269	0.035098	0.184272
C314	C	1.044602	0.368431	0.517606
C315	C	1.377936	0.701765	0.850939
C316	C	0.633373	0.112960	0.184292
C317	C	0.966706	0.446294	0.517625
C318	C	1.300040	0.779627	0.850958
C319	C	0.633379	0.112953	0.246207
C320	C	0.966712	0.446286	0.579541
C321	C	1.300046	0.779619	0.912874
C322	C	0.672331	0.074012	0.277157
C323	C	1.005665	0.407345	0.610490
C324	C	1.338998	0.740678	0.943823
O325	O	0.600296	0.146040	0.344169
O326	O	0.933629	0.479373	0.677502
O327	O	1.266963	0.812706	1.010835
O328	O	0.744395	0.001962	0.344188
O329	O	1.077728	0.335295	0.677521
O330	O	1.411061	0.668629	1.010855
H331	H	-0.154761	0.070060	-0.097211
H332	H	0.178572	0.403394	0.236123
H333	H	0.511906	0.736727	0.569456
H334	H	0.769178	-0.219481	0.000078
H335	H	1.102512	0.113853	0.333412
H336	H	1.435845	0.447186	0.666745
Br337	Br	0.580545	0.165761	0.711934
Br338	Br	0.913878	0.499094	1.045268
Br339	Br	1.247211	0.832428	1.378601
Br340	Br	0.798845	-0.099453	0.000104
Br341	Br	1.132179	0.233880	0.333437
Br342	Br	1.465512	0.567213	0.666771
Br343	Br	0.580525	0.165794	0.288227
Br344	Br	0.913858	0.499128	0.621561
Br345	Br	1.247192	0.832461	0.954894
H346	H	-0.047012	0.071348	-0.097217
H347	H	0.286322	0.404681	0.236116
H348	H	0.619655	0.738014	0.569450
H349	H	0.819117	-0.392053	0.000079
H350	H	1.152451	-0.058719	0.333413
H351	H	1.485784	0.274614	0.666746
H352	H	0.526863	-0.352164	0.000017
H353	H	0.860196	-0.018830	0.333351
H354	H	1.193530	0.314503	0.666684
H355	H	0.601709	0.144625	0.841058
H356	H	0.935043	0.477958	1.174391
H357	H	1.268376	0.811292	1.507724
Br358	Br	0.375567	0.076449	-0.126348
Br359	Br	0.708901	0.409783	0.206985
Br360	Br	1.042234	0.743116	0.540318
Br361	Br	0.764172	-0.017781	0.857858
Br362	Br	1.097505	0.315552	1.191191
Br363	Br	1.430839	0.648886	1.524524
H364	H	-0.047012	0.071378	0.097367
H365	H	0.286322	0.404711	0.430701
H366	H	0.619655	0.738045	0.764034
Br367	Br	0.541577	0.204689	0.573035
Br368	Br	0.874910	0.538022	0.906368
Br369	Br	1.208244	0.871355	1.239702
Br370	Br	0.764134	-0.017736	0.142254
Br371	Br	1.097468	0.315598	0.475587
Br372	Br	1.430801	0.648931	0.808920
H373	H	0.781948	-0.035559	0.443885
H374	H	1.115282	0.297774	0.777219
H375	H	1.448615	0.631107	1.110552
Br376	Br	0.541565	0.204688	0.427102
Br377	Br	0.874899	0.538021	0.760435
Br378	Br	1.208232	0.871354	1.093769
H379	H	0.118487	0.073317	-0.150848
H380	H	0.451820	0.406650	0.182486
H381	H	0.785154	0.739984	0.515819
H382	H	0.601663	0.144660	0.159081
H383	H	0.934997	0.477993	0.492414
H384	H	1.268330	0.811326	0.825747
Br385	Br	0.375582	0.076468	0.126462
Br386	Br	0.708915	0.409801	0.459796
Br387	Br	1.042248	0.743134	0.793129
Br388	Br	0.554062	-0.066047	0.000065
Br389	Br	0.887396	0.267287	0.333399
Br390	Br	1.220729	0.600620	0.666732
Br391	Br	0.764170	-0.017779	0.711904
Br392	Br	1.097504	0.315555	1.045238
Br393	Br	1.430837	0.648888	1.378571
Br394	Br	0.764138	-0.017761	0.288186
Br395	Br	1.097471	0.315572	0.621519
Br396	Br	1.430805	0.648905	0.954853
H397	H	0.226236	0.074613	-0.150848
H398	H	0.559569	0.407946	0.182485
H399	H	0.892902	0.741279	0.515818
Br400	Br	0.845825	-0.519763	0.000073
Br401	Br	1.179159	-0.186430	0.333407
Br402	Br	1.512492	0.146903	0.666740
Br403	Br	0.792309	-0.645922	0.000069
Br404	Br	1.125642	-0.312589	0.333403
Br405	Br	1.458975	0.020744	0.666736
Br406	Br	0.102351	0.073185	0.180095
Br407	Br	0.435685	0.406519	0.513429
Br408	Br	0.769018	0.739852	0.846762
H409	H	0.525569	-0.459912	0.000013
H410	H	0.858902	-0.126579	0.333347
H411	H	1.192235	0.206754	0.666680
Br412	Br	0.515585	0.078129	-0.126349
Br413	Br	0.848918	0.411462	0.206984
Br414	Br	1.182251	0.744796	0.540317
H415	H	0.762629	-0.765963	0.000054
H416	H	1.095962	-0.432630	0.333387
H417	H	1.429296	-0.099296	0.666721
Br418	Br	0.242334	0.074875	0.180089
Br419	Br	0.575668	0.408208	0.513422
Br420	Br	0.909001	0.741541	0.846756
Br421	Br	0.545839	-0.752518	0.000038
Br422	Br	0.879172	-0.419185	0.333371
Br423	Br	1.212505	-0.085851	0.666705
Br424	Br	-0.170902	0.069888	0.126478
Br425	Br	0.162431	0.403221	0.459811
Br426	Br	0.495764	0.736554	0.793145
Br427	Br	0.547513	-0.612526	0.000027
Br428	Br	0.880846	-0.279192	0.333360
Br429	Br	1.214180	0.054141	0.666694
Br430	Br	0.552381	-0.206064	0.000065
Br431	Br	0.885714	0.127270	0.333398
Br432	Br	1.219047	0.460603	0.666732
H433	H	0.499449	0.077973	0.097337
H434	H	0.832782	0.411307	0.430671
H435	H	1.166116	0.744640	0.764004
Br436	Br	0.803101	-0.056707	0.573004
Br437	Br	1.136434	0.276627	0.906337
Br438	Br	1.469767	0.609960	1.239670
