data_functionalizedCrystal
_audit_creation_method	'MofGen! by Chris Wilmer'
_symmetry_space_group_name_H-M	'P1'
_symmetry_Int_Tables_number	1
_symmetry_cell_setting	triclinic
loop_
_symmetry_equiv_pos_as_xyz
  x,y,z
_cell_length_a	27.732064
_cell_length_b	11.026607
_cell_length_c	10.065875
_cell_angle_alpha	79.268236
_cell_angle_beta	81.333551
_cell_angle_gamma	84.382280
loop_
_atom_site_label
_atom_site_type_symbol
_atom_site_fract_x
_atom_site_fract_y
_atom_site_fract_z
O1	O	0.659402	-0.126354	-0.113240
O2	O	0.520584	-0.148244	-0.113295
O3	O	0.578488	0.039140	-0.113267
O4	O	0.601498	-0.313738	-0.113268
O5	O	0.567458	0.003266	0.113716
O6	O	0.509554	-0.184118	0.113688
O7	O	0.648373	-0.162228	0.113743
Zn8	Zn	0.577213	-0.178868	0.149754
Zn9	Zn	0.591744	-0.131603	-0.149306
O10	O	0.590469	-0.349612	0.113715
C11	C	0.497021	-0.165717	0.000189
C12	C	0.443242	-0.164320	0.000168
C13	C	0.055346	-0.044109	0.000246
C14	C	0.257470	-0.049232	0.000211
O15	O	0.280325	0.044049	0.000262
N16	N	0.286597	-0.160349	0.000204
C17	C	0.265191	-0.270194	0.000216
O18	O	0.294603	-0.364826	0.000224
C19	C	0.063068	-0.265071	0.000261
C20	C	0.033943	-0.153945	0.000254
C21	C	0.026222	0.067008	0.000240
C22	C	-0.024305	0.068288	0.000242
C23	C	-0.045709	-0.041548	0.000249
C24	C	-0.016584	-0.152665	0.000255
C25	C	0.041661	-0.374917	0.000282
C26	C	-0.008873	-0.373627	0.000297
C27	C	-0.037998	-0.262501	0.000290
C28	C	-0.088515	-0.261220	0.000264
N29	N	-0.117642	-0.150103	0.000270
C30	C	-0.096239	-0.040267	0.000263
C31	C	0.371308	-0.272875	0.000189
C32	C	0.421839	-0.274156	0.000176
C33	C	0.414114	-0.053194	0.000173
C34	C	0.363583	-0.051913	0.000177
C35	C	0.342181	-0.161759	0.000196
C36	C	-0.202350	-0.037586	0.000265
C37	C	-0.252881	-0.036314	0.000260
C38	C	-0.245153	-0.257276	0.000270
C39	C	-0.194626	-0.258548	0.000267
C40	C	-0.173226	-0.148693	0.000269
O41	O	-0.111403	-0.354454	0.000228
O42	O	-0.125661	0.054346	0.000285
C43	C	0.105874	-0.045390	0.000245
C44	C	0.134998	-0.156507	0.000251
C45	C	0.113595	-0.266343	0.000258
C46	C	0.185529	-0.157787	0.000237
C47	C	0.206932	-0.047951	0.000230
C48	C	0.177805	0.063166	0.000236
C49	C	0.127277	0.064446	0.000237
C50	C	0.142722	-0.377460	0.000252
C51	C	0.193250	-0.378731	0.000249
C52	C	0.214653	-0.268895	0.000241
C53	C	0.568728	0.066336	0.000221
C54	C	0.556074	0.200816	0.000211
C55	C	0.671936	-0.144754	0.000256
C56	C	0.725715	-0.146150	0.000268
C57	C	0.600229	-0.376807	0.000224
C58	C	0.612884	-0.511285	0.000225
N59	N	0.567299	-0.211125	0.353855
C60	C	0.591015	0.275270	0.000223
C61	C	0.577937	0.414262	0.000213
N62	N	0.601661	-0.099337	-0.353407
C63	C	0.588291	-0.142819	0.421644
C64	C	0.580666	-0.167653	0.578808
H65	H	-0.048015	0.158778	0.000241
N66	N	0.503622	0.252669	0.000177
H67	H	0.501715	0.344611	0.000172
H68	H	0.482946	0.210686	0.084317
N69	N	0.643466	0.223412	0.000262
H70	H	0.664176	0.265301	-0.083872
H71	H	0.645327	0.131469	0.000320
H72	H	0.103568	0.154936	0.000232
H73	H	0.216960	-0.469229	0.000245
N74	N	0.119659	-0.495959	0.000270
H75	H	0.102950	-0.487094	-0.083867
H76	H	0.094809	-0.513612	0.084474
N77	N	0.619561	-0.040968	0.344416
H78	H	0.620570	-0.037651	0.243090
H79	H	0.653823	-0.058015	0.369295
H80	H	0.557045	-0.244520	0.637117
N81	N	0.453251	-0.394007	0.000148
H82	H	0.432019	-0.463387	0.000155
H83	H	0.470304	-0.412658	0.084286
H84	H	-0.262588	-0.346701	0.000269
N85	N	0.632944	0.002497	0.569373
H86	H	0.633957	0.005808	0.468046
H87	H	0.667203	-0.014580	0.594270
H88	H	-0.276593	0.054183	0.000251
H89	H	0.195240	0.152599	0.000222
H90	H	0.543679	-0.287987	0.412170
H91	H	0.043642	0.156454	0.000239
N92	N	-0.179274	0.080896	0.000271
H93	H	-0.205397	0.151474	0.000266
H94	H	-0.154393	0.098480	-0.083876
H95	H	0.339873	0.038575	0.000172
N96	N	0.525483	0.466110	0.000179
H97	H	0.523576	0.558052	0.000173
H98	H	0.504806	0.424126	0.084319
H99	H	0.353888	-0.362330	0.000203
N100	N	0.437204	0.065275	0.000164
H101	H	0.473633	0.047591	0.000157
H102	H	0.422605	0.100439	0.084317
H103	H	0.065367	-0.465407	0.000282
H104	H	0.652488	0.449581	0.000138
H105	H	-0.026296	-0.463080	0.000319
H106	H	-0.170911	-0.349035	0.000272
