data_functionalizedCrystal
_audit_creation_method	'MofGen! by Chris Wilmer'
_symmetry_space_group_name_H-M	'P1'
_symmetry_Int_Tables_number	1
_symmetry_cell_setting	triclinic
loop_
_symmetry_equiv_pos_as_xyz
  x,y,z
_cell_length_a	10.489741
_cell_length_b	10.654550
_cell_length_c	9.730223
_cell_angle_alpha	89.999807
_cell_angle_beta	90.002467
_cell_angle_gamma	84.512038
loop_
_atom_site_label
_atom_site_type_symbol
_atom_site_fract_x
_atom_site_fract_y
_atom_site_fract_z
O1	O	1.693961	0.177187	-0.114201
O2	O	1.322757	0.193819	-0.114222
O3	O	1.516894	0.002768	-0.114206
O4	O	1.499824	0.368238	-0.114217
O5	O	1.516891	0.002772	0.114374
O6	O	1.322755	0.193824	0.114358
O7	O	1.693958	0.177192	0.114379
Zn8	Zn	1.508356	0.185508	0.150660
Zn9	Zn	1.508359	0.185502	-0.150504
O10	O	1.499822	0.368243	0.114363
C11	C	1.515639	-0.044029	0.000082
C12	C	1.511889	-0.183474	0.000077
C13	C	1.275225	0.192565	0.000065
C14	C	1.133597	0.188807	0.000057
C15	C	1.626194	-0.262906	0.000088
C16	C	1.622663	-0.393928	0.000078
C17	C	1.390513	-0.366074	0.000053
C18	C	1.394045	-0.235054	0.000053
C19	C	1.760224	-0.278989	0.000108
C20	C	1.756693	-0.410011	0.000099
C21	C	1.065516	0.067246	0.000074
C22	C	0.973362	0.124668	-0.112627
C23	C	0.973394	0.124702	0.112735
C24	C	1.043309	0.246278	-0.112737
C25	C	1.043350	0.246295	0.112726
C26	C	0.951224	0.303805	-0.000002
C27	C	1.741491	0.178445	0.000089
C28	C	1.883118	0.182204	0.000088
C29	C	1.501076	0.415039	0.000071
C30	C	1.504826	0.554484	0.000067
N31	N	1.508364	0.185512	0.356197
N32	N	1.508362	0.185489	-0.356040
C33	C	1.594350	0.100943	0.428130
C34	C	1.594346	0.100928	0.572013
C35	C	1.422367	0.270061	0.572017
C36	C	1.422365	0.270069	0.428136
C37	C	1.693644	0.003299	0.428129
C38	C	1.693641	0.003284	0.572012
H39	H	1.300967	-0.170383	0.000025
C40	C	0.931579	0.055191	0.241456
N41	N	0.900089	0.002827	0.338404
C42	C	1.817882	-0.230822	0.133444
N43	N	1.861308	-0.194542	0.233875
C44	C	1.831039	-0.239290	-0.129113
N45	N	1.884374	-0.209388	-0.226443
H46	H	1.797200	-0.455637	-0.098594
C47	C	1.327772	0.363067	0.651164
N48	N	1.256520	0.433122	0.710776
C49	C	1.824903	-0.466397	0.129336
N50	N	1.876273	-0.508865	0.226677
H51	H	1.352338	0.338921	0.369570
C52	C	1.260891	-0.422825	0.000042
N53	N	1.163257	-0.465568	0.000040
C54	C	1.084921	0.315697	-0.241609
N55	N	1.116267	0.367977	-0.338677
H56	H	1.115254	-0.032684	-0.000064
C57	C	1.664213	-0.127120	0.375364
N58	N	1.642043	-0.225349	0.335622
H59	H	0.942374	0.073231	-0.207906
H60	H	0.901752	0.403841	-0.000066
C61	C	1.085271	0.315722	0.241451
N62	N	1.116850	0.368004	0.338418
H63	H	1.786257	0.033931	0.383507
H64	H	1.662650	-0.087953	0.616628
H65	H	1.791664	0.024848	0.611067
