data_functionalizedCrystal
_audit_creation_method	'MofGen! by Chris Wilmer'
_symmetry_space_group_name_H-M	'P1'
_symmetry_Int_Tables_number	1
_symmetry_cell_setting	triclinic
loop_
_symmetry_equiv_pos_as_xyz
  x,y,z
_cell_length_a	14.971491
_cell_length_b	15.625429
_cell_length_c	14.048226
_cell_angle_alpha	71.916421
_cell_angle_beta	89.991693
_cell_angle_gamma	83.939107
loop_
_atom_site_label
_atom_site_type_symbol
_atom_site_fract_x
_atom_site_fract_y
_atom_site_fract_z
O1	O	1.186966	0.117509	-0.119758
O2	O	0.926569	0.131574	-0.124605
O3	O	1.063723	-0.006689	-0.076883
O4	O	1.049812	0.255772	-0.167480
O5	O	1.063706	-0.006697	0.081441
O6	O	0.926552	0.131566	0.033719
O7	O	1.186949	0.117501	0.038566
Zn8	Zn	1.056748	0.124532	0.061280
Zn9	Zn	1.056770	0.124543	-0.147319
O10	O	1.049795	0.255764	-0.009156
C11	C	0.893236	0.130940	-0.045225
C12	C	0.793938	0.129053	-0.044570
C13	C	0.366240	0.120913	-0.128084
C14	C	0.459541	0.122683	-0.128691
C15	C	0.506178	0.123570	-0.042693
C16	C	0.459511	0.122677	0.043921
C17	C	0.366213	0.120900	0.044530
C18	C	0.653973	0.126383	0.042646
C19	C	0.747277	0.128162	0.042037
C20	C	0.747301	0.128167	-0.130576
C21	C	0.654003	0.126390	-0.129967
C22	C	0.607342	0.125498	-0.043353
C23	C	1.063084	-0.040282	0.013871
C24	C	1.061195	-0.140365	0.048412
C25	C	1.055002	-0.469504	-0.269465
C26	C	1.053223	-0.563547	-0.236979
C27	C	1.053205	-0.563542	-0.064385
C28	C	1.054989	-0.469498	-0.096856
C29	C	1.055886	-0.422486	-0.199397
C30	C	1.055873	-0.422480	-0.026789
C31	C	1.057651	-0.328444	-0.059258
C32	C	1.058546	-0.281425	-0.161795
C33	C	1.057665	-0.328450	-0.231866
C34	C	1.054969	-0.469493	0.075752
C35	C	1.055853	-0.422475	0.145819
C36	C	1.057638	-0.328438	0.113351
C37	C	1.058533	-0.281419	0.010814
C38	C	1.058519	-0.281413	0.183422
C39	C	1.060298	-0.187376	0.150953
C40	C	1.060311	-0.187382	-0.021655
C41	C	1.220282	0.118135	-0.040816
C42	C	1.319579	0.120023	-0.041477
C43	C	1.050434	0.289357	-0.099912
C44	C	1.052323	0.389440	-0.134459
N45	N	1.056740	0.124524	0.203643
N46	N	1.056785	0.124544	-0.289680
C47	C	1.117490	0.063327	0.274584
C48	C	1.117497	0.063326	0.374242
C49	C	1.056755	0.124528	0.402956
C50	C	0.995998	0.185729	0.332007
C51	C	0.995988	0.185724	0.232353
C52	C	0.996024	0.185735	0.539719
C53	C	0.996034	0.185741	0.639380
C54	C	1.117532	0.063337	0.681608
C55	C	1.117522	0.063333	0.581954
C56	C	1.056766	0.124535	0.511012
H57	H	0.328221	0.120184	0.115051
H58	H	0.785246	0.128889	0.112062
H59	H	0.946537	0.235557	0.355392
H60	H	0.946518	0.235556	0.174592
H61	H	1.167002	0.013505	0.739376
H62	H	1.052472	-0.601832	0.019105
H63	H	0.946571	0.235577	0.662751
H64	H	1.058403	-0.290171	-0.315365
O65	O	0.792704	0.129151	-0.214696
C66	C	0.836622	0.208206	-0.247160
H67	H	0.847246	0.234478	-0.181296
H68	H	0.904490	0.191909	-0.278063
H69	H	0.793645	0.262158	-0.308371
H70	H	1.057780	-0.319703	0.266911
O71	O	1.061040	-0.141711	-0.121278
C72	C	0.983228	-0.154555	-0.169384
H73	H	0.928619	-0.173339	-0.112424
H74	H	0.958435	-0.089298	-0.231040
H75	H	0.999709	-0.211411	-0.203587
O76	O	0.608532	0.125639	0.126680
C77	C	0.544545	0.202643	0.105265
H78	H	0.527236	0.228384	0.021444
H79	H	0.481188	0.183849	0.148278
H80	H	0.573468	0.257961	0.128755
O81	O	1.055732	-0.423833	-0.369087
C82	C	0.977919	-0.436677	-0.417193
H83	H	0.923310	-0.455461	-0.360233
H84	H	0.953126	-0.371420	-0.478849
H85	H	0.994400	-0.493533	-0.451396
O86	O	1.176426	0.003925	0.246531
C87	C	1.163360	0.017006	0.143374
H88	H	1.130068	0.088643	0.105018
H89	H	1.231065	0.007020	0.108909
H90	H	1.118383	-0.034067	0.132777
H91	H	0.328274	0.120197	-0.198116
H92	H	0.497491	0.123393	0.113945
O93	O	1.060235	-0.190073	-0.193513
C94	C	1.060862	-0.158667	-0.299039
H95	H	1.031545	-0.209160	-0.330472
H96	H	1.018663	-0.090078	-0.327967
H97	H	1.132881	-0.151367	-0.324011
O98	O	1.052196	-0.609258	-0.305000
C99	C	0.973768	-0.653536	-0.294824
H100	H	0.920211	-0.618097	-0.258082
H101	H	0.947758	-0.651228	-0.371945
H102	H	0.989916	-0.727087	-0.246219
O103	O	1.053096	-0.560821	0.107184
C104	C	0.975080	-0.582088	0.067216
H105	H	0.950331	-0.524529	-0.003070
H106	H	0.991278	-0.647296	0.047323
H107	H	0.920548	-0.591638	0.125073
H108	H	1.055119	-0.460764	0.229308
H109	H	0.497529	0.123403	-0.199214
H110	H	1.060998	-0.149091	0.208008
H111	H	1.166964	0.013494	0.432003
H112	H	0.616033	0.125674	-0.199997
O113	O	1.176560	0.003797	0.554236
C114	C	1.230202	-0.050206	0.638213
H115	H	1.193542	-0.051289	0.709637
H116	H	1.243758	-0.122182	0.634265
H117	H	1.296680	-0.020820	0.638643
O118	O	0.936974	0.245275	0.470921
C119	C	0.883351	0.299283	0.517635
H120	H	0.920028	0.300363	0.588292
H121	H	0.869794	0.371258	0.463992
H122	H	0.816872	0.269902	0.538395
