data_functionalizedCrystal
_audit_creation_method	'MofGen! by Chris Wilmer'
_symmetry_space_group_name_H-M	'P1'
_symmetry_Int_Tables_number	1
_symmetry_cell_setting	triclinic
loop_
_symmetry_equiv_pos_as_xyz
  x,y,z
_cell_length_a	12.645331
_cell_length_b	12.594516
_cell_length_c	12.645323
_cell_angle_alpha	89.976054
_cell_angle_beta	89.977324
_cell_angle_gamma	90.015032
loop_
_atom_site_label
_atom_site_type_symbol
_atom_site_fract_x
_atom_site_fract_y
_atom_site_fract_z
Zn1	Zn	1.620743	-0.423763	-0.599453
Zn2	Zn	1.620630	-0.601766	-0.422196
Zn3	Zn	1.443458	-0.423799	-0.422197
Zn4	Zn	1.443445	-0.601696	-0.599411
O5	O	1.532069	-0.512756	-0.510814
O6	O	1.769076	-0.447389	-0.575956
O7	O	1.597086	-0.578202	-0.273849
O8	O	1.467028	-0.274848	-0.445729
O9	O	1.768992	-0.578167	-0.445726
O10	O	1.597279	-0.274822	-0.575958
O11	O	1.466918	-0.447451	-0.273850
O12	O	1.295109	-0.447383	-0.445688
O13	O	1.467006	-0.578049	-0.747764
O14	O	1.295099	-0.578084	-0.575887
O15	O	1.597266	-0.447322	-0.747795
O16	O	1.597073	-0.750702	-0.445686
O17	O	1.466896	-0.750651	-0.575885
C18	C	1.256639	-0.512731	-0.510784
C19	C	1.138809	-0.512745	-0.510796
C20	C	0.971216	-0.430143	-0.429340
C21	C	1.093776	-0.430357	-0.428981
C22	C	1.094292	-0.624870	-0.480283
C23	C	0.971694	-0.624419	-0.479727
C24	C	0.971659	-0.484290	-0.623079
C25	C	1.094265	-0.481785	-0.622456
C26	C	1.532000	-0.789297	-0.510804
C27	C	1.532067	-0.907602	-0.510835
C28	C	1.461256	-0.976866	-0.581601
C29	C	1.435425	-1.047727	-0.484868
C30	C	1.557995	-1.047540	-0.607584
C31	C	1.506184	-0.976905	-0.414051
C32	C	1.628799	-0.976712	-0.536833
C33	C	1.603004	-1.047541	-0.440033
C34	C	1.808574	-0.512782	-0.510846
C35	C	1.926404	-0.512793	-0.510859
C36	C	1.532147	-0.512674	-0.787320
C37	C	1.532180	-0.512639	-0.905150
C38	C	1.532168	-0.235135	-0.510848
C39	C	1.532210	-0.116830	-0.510862
C40	C	1.449981	-0.594491	-1.072695
C41	C	1.450196	-0.594897	-0.950135
C42	C	1.643881	-0.543081	-0.949670
C43	C	1.643430	-0.543595	-1.072269
C44	C	1.503736	-0.399885	-1.072346
C45	C	1.501244	-0.400561	-0.949740
C46	C	1.532052	-0.512761	-0.235385
C47	C	1.532224	-0.512496	-0.117555
H48	H	0.940369	-0.448774	-0.346669
Br49	Br	1.145382	-0.665855	-0.345014
H50	H	1.706786	-0.486466	-1.101946
H51	H	0.941749	-0.346749	-0.448260
Br52	Br	1.594449	-1.099263	-0.743934
Br53	Br	1.145357	-0.574804	-0.729109
H54	H	1.353687	-1.078944	-0.462901
H55	H	0.942682	-0.544489	-0.683818
H56	H	1.367366	-0.575846	-0.920033
Br57	Br	1.593801	-0.293351	-0.898718
Br58	Br	1.142585	-0.461748	-0.290373
Br59	Br	0.923944	-0.664705	-0.342991
H60	H	0.942051	-0.688084	-0.536513
Br61	Br	1.142892	-0.730254	-0.576147
Br62	Br	1.748759	-0.446691	-0.901117
Br63	Br	1.469576	-0.925413	-0.277656
H64	H	1.419042	-0.377603	-0.920640
Br65	Br	0.920164	-0.350393	-0.669332
H66	H	1.668442	-0.624540	-0.918983
Br67	Br	1.683677	-0.680801	-1.119964
Br68	Br	1.481604	-0.734028	-0.901268
Br69	Br	1.361278	-0.925139	-0.681204
Br70	Br	1.702919	-1.098938	-0.340200
H71	H	1.710519	-0.945498	-0.558846
Br72	Br	1.142787	-0.344271	-0.660822
Br73	Br	1.311507	-0.563041	-1.121804
Br74	Br	1.480947	-0.732752	-1.124151
Br75	Br	1.370339	-0.353634	-1.123850
H76	H	1.563638	-0.338796	-1.101359
H77	H	1.123874	-0.347212	-0.448106
