data_functionalizedCrystal
_audit_creation_method	'MofGen! by Chris Wilmer'
_symmetry_space_group_name_H-M	'P1'
_symmetry_Int_Tables_number	1
_symmetry_cell_setting	triclinic
loop_
_symmetry_equiv_pos_as_xyz
  x,y,z
_cell_length_a	16.959455
_cell_length_b	18.101397
_cell_length_c	16.959455
_cell_angle_alpha	90.017520
_cell_angle_beta	90.001568
_cell_angle_gamma	90.017413
loop_
_atom_site_label
_atom_site_type_symbol
_atom_site_fract_x
_atom_site_fract_y
_atom_site_fract_z
Zn1	Zn	1.208282	-0.294993	0.446890
Zn2	Zn	1.708282	0.205007	0.946890
Zn3	Zn	1.208233	-0.418811	0.314704
Zn4	Zn	1.708233	0.081189	0.814704
Zn5	Zn	1.076140	-0.294982	0.314728
Zn6	Zn	1.576140	0.205018	0.814728
Zn7	Zn	1.076074	-0.418791	0.446842
Zn8	Zn	1.576074	0.081209	0.946842
O9	O	1.142182	-0.356894	0.380791
O10	O	1.642182	0.143106	0.880791
O11	O	1.318886	-0.311432	0.429365
O12	O	1.818886	0.188568	0.929365
O13	O	1.190718	-0.402389	0.204096
O14	O	1.690718	0.097611	0.704096
O15	O	1.093717	-0.191350	0.332289
O16	O	1.593717	0.308650	0.832289
O17	O	1.318850	-0.402400	0.332249
O18	O	1.818850	0.097600	0.832249
O19	O	1.190801	-0.191359	0.429388
O20	O	1.690801	0.308641	0.929388
O21	O	1.093669	-0.311412	0.204114
O22	O	1.593669	0.188588	0.704114
O23	O	0.965520	-0.311392	0.332243
O24	O	1.465520	0.188608	0.832243
O25	O	1.093605	-0.402365	0.557459
O26	O	1.593605	0.097635	1.057459
O27	O	0.965472	-0.402354	0.429307
O28	O	1.465472	0.097646	0.929307
O29	O	1.190737	-0.311412	0.557495
O30	O	1.690737	0.188588	1.057495
O31	O	1.190654	-0.522442	0.332202
O32	O	1.690654	-0.022442	0.832202
O33	O	1.093558	-0.522427	0.429284
O34	O	1.593558	-0.022427	0.929284
C35	C	0.936816	-0.356870	0.380773
C36	C	1.436816	0.143130	0.880773
C37	C	0.848960	-0.356877	0.380784
C38	C	1.348960	0.143123	0.880784
C39	C	0.477485	-0.309492	0.330355
C40	C	0.977485	0.190508	0.830355
C41	C	0.477483	-0.404358	0.431272
C42	C	0.977483	0.095642	0.931272
C43	C	0.560029	-0.404347	0.431267
C44	C	1.060029	0.095653	0.931267
C45	C	0.601307	-0.356909	0.380805
C46	C	1.101307	0.143091	0.880805
C47	C	0.560038	-0.309481	0.330347
C48	C	1.060038	0.190519	0.830347
C49	C	0.601304	-0.451780	0.481718
C50	C	1.101304	0.048220	0.981718
C51	C	0.683855	-0.451772	0.481715
C52	C	1.183855	0.048228	0.981715
C53	C	0.725134	-0.404329	0.431256
C54	C	1.225134	0.095671	0.931256
C55	C	0.683860	-0.356898	0.380797
C56	C	1.183860	0.143102	0.880797
C57	C	0.725138	-0.309460	0.330334
C58	C	1.225138	0.190540	0.830334
C59	C	0.683866	-0.262025	0.279879
C60	C	1.183866	0.237975	0.779879
C61	C	0.601317	-0.262038	0.279888
C62	C	1.101317	0.237962	0.779888
C63	C	0.807682	-0.404316	0.431246
C64	C	1.307682	0.095684	0.931246
C65	C	0.807691	-0.309449	0.330326
C66	C	1.307691	0.190551	0.830326
C67	C	1.142115	-0.549305	0.380753
C68	C	1.642115	-0.049305	0.880753
C69	C	1.142158	-0.631619	0.380763
C70	C	1.642158	-0.131619	0.880763
C71	C	1.142259	-0.930710	0.380835
C72	C	1.642259	-0.430710	0.880835
C73	C	1.203179	-0.899363	0.319590
C74	C	1.703179	-0.399363	0.819590
C75	C	1.203390	-0.813745	0.319749
C76	C	1.703390	-0.313745	0.819749
C77	C	1.142209	-0.782327	0.380798
C78	C	1.642209	-0.282327	0.880798
C79	C	1.164766	-0.813354	0.464115
C80	C	1.664766	-0.313354	0.964115
C81	C	1.165237	-0.898998	0.463781
C82	C	1.665237	-0.398998	0.963781
C83	C	1.058619	-0.899210	0.359484
C84	C	1.558619	-0.399210	0.859484
C85	C	1.059033	-0.813560	0.357624
C86	C	1.559033	-0.313560	0.857624
C87	C	1.142179	-0.698468	0.380783
C88	C	1.642179	-0.198468	0.880783
C89	C	1.142291	-1.014569	0.380856
C90	C	1.642291	-0.514569	0.880856
C91	C	1.348351	-0.356919	0.380810
C92	C	1.848351	0.143081	0.880810
C93	C	1.436207	-0.356930	0.380817
C94	C	1.936207	0.143070	0.880817
C95	C	1.142169	-0.356888	0.586959
C96	C	1.642169	0.143112	1.086959
C97	C	1.142164	-0.356885	0.674816
C98	C	1.642164	0.143115	1.174816
C99	C	1.142272	-0.163732	0.380847
C100	C	1.642272	0.336268	0.880847
C101	C	1.142310	-0.081418	0.380870
C102	C	1.642310	0.418582	0.880870
C103	C	1.091603	-0.404260	1.046275
C104	C	1.591603	0.095740	1.546275
C105	C	1.192748	-0.309549	1.046307
C106	C	1.692748	0.190451	1.546307
C107	C	1.192745	-0.309543	0.963761
C108	C	1.692745	0.190457	1.463761
C109	C	1.142172	-0.356897	0.922469
C110	C	1.642172	0.143103	1.422469
C111	C	1.091601	-0.404257	0.963722
C112	C	1.591601	0.095743	1.463722
C113	C	1.243321	-0.262190	0.922502
C114	C	1.743321	0.237810	1.422502
C115	C	1.243321	-0.262182	0.839951
C116	C	1.743321	0.237818	1.339951
C117	C	1.192743	-0.309533	0.798657
C118	C	1.692743	0.190467	1.298657
C119	C	1.142169	-0.356894	0.839915
C120	C	1.642169	0.143106	1.339915
C121	C	1.091595	-0.404248	0.798623
C122	C	1.591595	0.095752	1.298623
C123	C	1.041017	-0.451606	0.839879
C124	C	1.541017	0.048394	1.339879
C125	C	1.041022	-0.451607	0.922428
C126	C	1.541022	0.048393	1.422428
C127	C	1.192738	-0.309531	0.716108
C128	C	1.692738	0.190469	1.216108
C129	C	1.091593	-0.404245	0.716069
C130	C	1.591593	0.095755	1.216069
C131	C	1.142185	-0.356914	1.175425
C132	C	1.642185	0.143086	1.675425
C133	C	1.142177	-0.356906	1.087568
C134	C	1.642177	0.143094	1.587568
H135	H	0.841282	-0.442939	0.472324
H136	H	1.341282	0.057061	0.972324
H137	H	1.050421	-0.442816	1.079870
H138	H	1.550421	0.057184	1.579870
H139	H	0.717451	-0.490395	0.522799
H140	H	1.217451	0.009605	1.022799
H141	H	1.233920	-0.270975	0.682521
H142	H	1.733920	0.229025	1.182521
H143	H	1.189281	-0.792769	0.257971
H144	H	1.689281	-0.292769	0.757971
H145	H	0.999847	-0.490166	0.956027
H146	H	1.499847	0.009834	1.456027
H147	H	1.233927	-0.271000	1.079932
H148	H	1.733927	0.229000	1.579932
H149	H	0.567706	-0.223420	0.238809
H150	H	1.067706	0.276580	0.738809
H151	H	0.443870	-0.442985	0.472351
H152	H	0.943870	0.057015	0.972351
H153	H	0.443877	-0.270869	0.289278
H154	H	0.943877	0.229131	0.789278
H155	H	1.011203	-0.792181	0.398966
H156	H	1.511203	-0.292181	0.898966
H157	H	1.189241	-0.919992	0.257627
H158	H	1.689241	-0.419992	0.757627
H159	H	1.050402	-0.442800	0.682454
H160	H	1.550402	0.057200	1.182454
H161	H	0.567690	-0.490407	0.522796
H162	H	1.067690	0.009593	1.022796
H163	H	1.264797	-0.920837	0.333554
H164	H	1.764797	-0.420837	0.833554
H165	H	0.841293	-0.270814	0.289238
H166	H	1.341293	0.229186	0.789238
H167	H	1.265346	-0.793207	0.333875
H168	H	1.765346	-0.293207	0.833875
H169	H	1.226373	-0.918924	0.481867
H170	H	1.726373	-0.418924	0.981867
H171	H	1.122808	-0.919733	0.510986
H172	H	1.622808	-0.419733	1.010986
H173	H	1.121750	-0.793002	0.510974
H174	H	1.621750	-0.293002	1.010974
H175	H	1.225217	-0.791853	0.482506
H176	H	1.725217	-0.291853	0.982506
H177	H	1.038094	-0.920857	0.299784
H178	H	1.538094	-0.420857	0.799784
H179	H	1.042024	-0.793288	0.296310
H180	H	1.542024	-0.293288	0.796310
H181	H	1.284500	-0.223641	0.956128
H182	H	1.784500	0.276359	1.456128
H183	H	0.999843	-0.490164	0.806248
H184	H	1.499843	0.009836	1.306248
H185	H	1.284505	-0.223620	0.806366
H186	H	1.784505	0.276380	1.306366
H187	H	0.717484	-0.223404	0.238789
H188	H	1.217484	0.276596	0.738789
H189	H	1.013230	-0.919483	0.404091
H190	H	1.513230	-0.419483	0.904091
