data_functionalizedCrystal
_audit_creation_method	'MofGen! by Chris Wilmer'
_symmetry_space_group_name_H-M	'P1'
_symmetry_Int_Tables_number	1
_symmetry_cell_setting	triclinic
loop_
_symmetry_equiv_pos_as_xyz
  x,y,z
_cell_length_a	18.050590
_cell_length_b	16.120530
_cell_length_c	16.120297
_cell_angle_alpha	89.871860
_cell_angle_beta	92.884174
_cell_angle_gamma	92.907328
loop_
_atom_site_label
_atom_site_type_symbol
_atom_site_fract_x
_atom_site_fract_y
_atom_site_fract_z
Zn1	Zn	0.376261	1.247635	0.534650
Zn2	Zn	0.709594	1.580968	0.867983
Zn3	Zn	1.042928	1.914301	1.201317
Zn4	Zn	0.494490	1.254646	0.395619
Zn5	Zn	0.827823	1.587980	0.728952
Zn6	Zn	1.161157	1.921313	1.062286
Zn7	Zn	0.363711	1.115618	0.388565
Zn8	Zn	0.697045	1.448952	0.721898
Zn9	Zn	1.030378	1.782285	1.055232
Zn10	Zn	0.493806	1.108602	0.527588
Zn11	Zn	0.827139	1.441936	0.860922
Zn12	Zn	1.160473	1.775269	1.194255
O13	O	0.432067	1.181625	0.461606
O14	O	0.765400	1.514959	0.794939
O15	O	1.098734	1.848292	1.128272
O16	O	0.397483	1.364934	0.522115
O17	O	0.730816	1.698267	0.855448
O18	O	1.064149	2.031600	1.188781
O19	O	0.472176	1.242075	0.278317
O20	O	0.805509	1.575408	0.611650
O21	O	1.138843	1.908741	0.944983
O22	O	0.261452	1.133132	0.407947
O23	O	0.594785	1.466466	0.741280
O24	O	0.928118	1.799799	1.074613
O25	O	0.484345	1.370085	0.419969
O26	O	0.817678	1.703419	0.753303
O27	O	1.151012	2.036752	1.086636
O28	O	0.270672	1.230124	0.515275
O29	O	0.604005	1.563457	0.848608
O30	O	0.937339	1.896791	1.181941
O31	O	0.376093	1.139931	0.273134
O32	O	0.709427	1.473265	0.606468
O33	O	1.042760	1.806598	0.939801
O34	O	0.375430	0.998319	0.401099
O35	O	0.708763	1.331652	0.734433
O36	O	1.042097	1.664985	1.067766
O37	O	0.483179	1.121175	0.644892
O38	O	0.816513	1.454508	0.978225
O39	O	1.149846	1.787841	1.311558
O40	O	0.471010	0.993164	0.503239
O41	O	0.804344	1.326497	0.836572
O42	O	1.137677	1.659831	1.169906
O43	O	0.396820	1.223321	0.650080
O44	O	0.730153	1.556654	0.983413
O45	O	1.063486	1.889988	1.316746
O46	O	0.598324	1.235271	0.413122
O47	O	0.931657	1.568605	0.746455
O48	O	1.264990	1.901938	1.079789
O49	O	0.597821	1.127974	0.510079
O50	O	0.931154	1.461307	0.843412
O51	O	1.264488	1.794640	1.176746
C52	C	0.421785	0.965568	0.450638
C53	C	0.755118	1.298901	0.783971
C54	C	1.088451	1.632235	1.117305
C55	C	0.417405	0.873137	0.445966
C56	C	0.750738	1.206470	0.779299
C57	C	1.084071	1.539803	1.112632
C58	C	0.409391	0.703903	0.437442
C59	C	0.742724	1.037236	0.770776
C60	C	1.076057	1.370570	1.104109
C61	C	0.454801	0.660185	0.485829
C62	C	0.788134	0.993519	0.819163
C63	C	1.121467	1.326852	1.152496
C64	C	0.450342	0.566018	0.481087
C65	C	0.783675	0.899351	0.814420
C66	C	1.117008	1.232684	1.147754
C67	C	0.413849	0.798079	0.442184
C68	C	0.747182	1.131412	0.775517
C69	C	1.080515	1.464746	1.108850
C70	C	0.238362	1.181629	0.461612
C71	C	0.571695	1.514962	0.794945
C72	C	0.905029	1.848295	1.128278
C73	C	0.155816	1.181630	0.461614
C74	C	0.489150	1.514963	0.794947
C75	C	0.822483	1.848297	1.128281
C76	C	-0.098021	1.128929	0.403265
C77	C	0.235313	1.462263	0.736598
C78	C	0.568646	1.795596	1.069931
C79	C	-0.045878	1.205812	0.386768
C80	C	0.287456	1.539146	0.720101
C81	C	0.620789	1.872479	1.053435
C82	C	-0.141300	1.181696	0.461642
C83	C	0.192033	1.515029	0.794975
C84	C	0.525367	1.848362	1.128308
C85	C	-0.046365	1.104787	0.478086
C86	C	0.286969	1.438120	0.811419
C87	C	0.620302	1.771454	1.144752
C88	C	0.004683	1.181660	0.461626
C89	C	0.338016	1.514993	0.794959
C90	C	0.671350	1.848326	1.128293
C91	C	-0.090244	1.258621	0.445108
C92	C	0.243089	1.591954	0.778441
C93	C	0.576423	1.925287	1.111775
C94	C	-0.090736	1.157542	0.536458
C95	C	0.242597	1.490876	0.869792
C96	C	0.575931	1.824209	1.203125
C97	C	-0.038612	1.234476	0.519993
C98	C	0.294722	1.567810	0.853326
C99	C	0.628055	1.901143	1.186660
C100	C	-0.225397	1.181715	0.461649
C101	C	0.107936	1.515049	0.794982
C102	C	0.441270	1.848382	1.128315
C103	C	0.088779	1.181648	0.461620
C104	C	0.422112	1.514982	0.794953
C105	C	0.755445	1.848315	1.128286
C106	C	0.625021	1.181644	0.461619
C107	C	0.958354	1.514977	0.794952
C108	C	1.291687	1.848310	1.128286
C109	C	0.707572	1.181726	0.461656
C110	C	1.040905	1.515060	0.794990
C111	C	1.374238	1.848393	1.128323
C112	C	0.441323	1.170683	0.678502
C113	C	0.774656	1.504016	1.011835
C114	C	1.107990	1.837350	1.345169
C115	C	0.445267	1.166020	0.770930
C116	C	0.778601	1.499353	1.104263
C117	C	1.111934	1.832687	1.437597
C118	C	0.442390	1.398526	0.472617
C119	C	0.775723	1.731860	0.805950
C120	C	1.109057	2.065193	1.139283
C121	C	0.446789	1.490957	0.477309
C122	C	0.780123	1.824290	0.810642
C123	C	1.113456	2.157623	1.143975
C124	C	0.422796	1.192573	0.245556
C125	C	0.756129	1.525906	0.578889
C126	C	1.089462	1.859240	0.912222
C127	C	0.418650	1.197397	0.153136
C128	C	0.751983	1.530730	0.486469
C129	C	1.085316	1.864064	0.819803
C130	C	0.452451	1.157476	0.940156
C131	C	0.785784	1.490809	1.273490
C132	C	1.119118	1.824143	1.606823
C133	C	0.411468	1.205939	0.983915
C134	C	0.744802	1.539272	1.317248
C135	C	1.078135	1.872605	1.650582
C136	C	0.415465	1.201185	1.078078
C137	C	0.748799	1.534518	1.411411
C138	C	1.082132	1.867851	1.744745
C139	C	0.448455	1.162229	0.845984
C140	C	0.781788	1.495562	1.179318
C141	C	1.115122	1.828895	1.512651
H142	H	-0.123941	1.084383	0.353871
H143	H	0.209393	1.417716	0.687204
H144	H	0.542726	1.751050	1.020538
H145	H	0.373380	1.250998	0.950659
H146	H	0.706713	1.584331	1.283992
H147	H	1.040046	1.917665	1.617325
O148	O	0.353462	0.659819	0.377844
O149	O	0.686795	0.993153	0.711177
O150	O	1.020129	1.326486	1.044511
H151	H	0.364101	0.679722	0.313382
H152	H	0.697434	1.013056	0.646716
H153	H	1.030767	1.346389	0.980049
O154	O	-0.115773	1.344784	0.426575
O155	O	0.217560	1.678118	0.759908
O156	O	0.550893	2.011451	1.093242
H157	H	-0.066742	1.387582	0.417392
H158	H	0.266591	1.720915	0.750725
H159	H	0.599924	2.054248	1.084059
O160	O	-0.004448	1.293631	0.585380
O161	O	0.328886	1.626964	0.918714
O162	O	0.662219	1.960298	1.252047
H163	H	-0.023222	1.274097	0.647295
H164	H	0.310112	1.607431	0.980629
H165	H	0.643445	1.940764	1.313962
H166	H	0.497026	0.693479	0.530818
H167	H	0.830359	1.026813	0.864151
H168	H	1.163692	1.360146	1.197484
O169	O	-0.020832	1.018656	0.496784
O170	O	0.312501	1.351990	0.830117
O171	O	0.645834	1.685323	1.163450
H172	H	0.040711	1.019407	0.497313
H173	H	0.374044	1.352740	0.830647
H174	H	0.707378	1.686073	1.163980
H175	H	-0.110534	1.137102	0.599716
H176	H	0.222799	1.470436	0.933049
H177	H	0.556132	1.803769	1.266383
H178	H	-0.026098	1.226231	0.323491
H179	H	0.307235	1.559564	0.656824
H180	H	0.640569	1.892898	0.990158
O181	O	0.502903	1.097791	0.984197
O182	O	0.836236	1.431124	1.317530
O183	O	1.169570	1.764457	1.650864
H184	H	0.498165	1.103384	1.052317
H185	H	0.831499	1.436718	1.385650
H186	H	1.164832	1.770051	1.718984
