data_functionalizedCrystal
_audit_creation_method	'MofGen! by Chris Wilmer'
_symmetry_space_group_name_H-M	'P1'
_symmetry_Int_Tables_number	1
_symmetry_cell_setting	triclinic
loop_
_symmetry_equiv_pos_as_xyz
  x,y,z
_cell_length_a	13.262402
_cell_length_b	17.038272
_cell_length_c	11.804917
_cell_angle_alpha	102.701361
_cell_angle_beta	62.661261
_cell_angle_gamma	87.647233
loop_
_atom_site_label
_atom_site_type_symbol
_atom_site_fract_x
_atom_site_fract_y
_atom_site_fract_z
O1	O	1.477986	0.045120	-0.379673
O2	O	1.152336	0.073305	-0.274198
O3	O	1.313227	-0.054511	-0.326319
O4	O	1.317094	0.172936	-0.327553
O5	O	1.355564	-0.088114	-0.538072
O6	O	1.194673	0.039702	-0.485951
O7	O	1.520323	0.011517	-0.591426
Cu8	Cu	1.361363	0.022541	-0.558023
Cu9	Cu	1.311295	0.062281	-0.307601
O10	O	1.359431	0.139333	-0.539305
C11	C	1.131631	0.058013	-0.366512
C12	C	1.006862	0.062501	-0.326101
C13	C	0.925166	0.082926	-0.191686
C14	C	0.807938	0.087150	-0.153719
C15	C	0.772396	0.070944	-0.250164
C16	C	0.854094	0.050512	-0.384582
C17	C	0.971332	0.046294	-0.422553
C18	C	0.818563	0.034311	-0.481031
C19	C	0.900260	0.013880	-0.615449
C20	C	1.017486	0.009662	-0.653413
C21	C	1.053028	0.025869	-0.556968
C22	C	0.701324	0.038530	-0.443061
C23	C	0.747491	0.001898	-0.673928
C24	C	0.864718	-0.002327	-0.711894
C25	C	1.330875	-0.100271	-0.431055
C26	C	1.320371	-0.186558	-0.427653
C27	C	1.416809	-0.241317	-0.458889
C28	C	1.406930	-0.322390	-0.455678
C29	C	1.300615	-0.348704	-0.421240
C30	C	1.204169	-0.293939	-0.389997
C31	C	1.214047	-0.212866	-0.393199
C32	C	1.265717	-0.592779	-0.409920
C33	C	1.255847	-0.673860	-0.406724
C34	C	1.458609	-0.702304	-0.472404
C35	C	1.468479	-0.621230	-0.475610
C36	C	1.372032	-0.566470	-0.444361
C37	C	1.290516	-0.431574	-0.417961
C38	C	1.382130	-0.483601	-0.447631
C39	C	1.541027	0.026810	-0.499109
C40	C	1.665794	0.022323	-0.539512
C41	C	1.341783	0.185094	-0.434567
C42	C	1.352285	0.271382	-0.437961
N43	N	1.396587	-0.005411	-0.734159
C44	C	1.481174	-0.072571	-0.823871
C45	C	1.507821	-0.093743	-0.957154
C46	C	1.449888	-0.047752	-1.000739
C47	C	1.365304	0.019413	-0.911028
C48	C	1.338649	0.040583	-0.777731
C49	C	1.307363	0.065402	-0.954599
C50	C	1.222779	0.132568	-0.864888
C51	C	1.196129	0.153734	-0.731605
C52	C	1.254061	0.107744	-0.688019
C53	C	1.334018	0.044232	-1.087896
C54	C	1.191492	0.157387	-1.041756
C55	C	1.164846	0.178558	-0.908474
N56	N	1.276080	0.090226	-0.131468
H57	H	1.148483	0.022425	-0.587874
H58	H	0.741428	0.103786	-0.044276
Cl59	Cl	1.156864	-0.464662	-0.374661
H60	H	0.954116	0.096125	-0.113175
H61	H	1.402886	-0.010454	-1.160927
H62	H	0.676943	0.074384	-0.219243
Cl63	Cl	1.550472	-0.208246	-0.502199
Cl64	Cl	1.220566	0.134364	-0.520458
H65	H	1.084002	-0.006967	-0.762865
H66	H	1.095975	0.233246	-0.835415
H67	H	1.537130	-0.746897	-0.497842
Cl68	Cl	1.070512	-0.327018	-0.346687
Cl69	Cl	0.967434	-0.028007	-0.880872
Cl70	Cl	1.553986	-0.130387	-0.769072
Cl71	Cl	1.483390	-0.074367	-1.168298
H72	H	1.127247	0.208419	-0.658558
H73	H	0.634817	0.055166	-0.333616
Cl74	Cl	1.122185	-0.706940	-0.363434
H75	H	1.135517	-0.168282	-0.367762
Cl76	Cl	1.602130	-0.588148	-0.518865
H77	H	0.718554	-0.011297	-0.752462
H78	H	1.485461	-0.366972	-0.481117
Cl79	Cl	1.144467	-0.523949	-0.370631
Cl80	Cl	1.515778	-0.450516	-0.490917
Cl81	Cl	1.614148	-0.178174	-1.069928
H82	H	1.144316	0.194835	-1.077240
