data_functionalizedCrystal
_audit_creation_method	'MofGen! by Chris Wilmer'
_symmetry_space_group_name_H-M	'P1'
_symmetry_Int_Tables_number	1
_symmetry_cell_setting	triclinic
loop_
_symmetry_equiv_pos_as_xyz
  x,y,z
_cell_length_a	16.992694
_cell_length_b	16.992695
_cell_length_c	8.140239
_cell_angle_alpha	89.996131
_cell_angle_beta	90.002898
_cell_angle_gamma	90.668223
loop_
_atom_site_label
_atom_site_type_symbol
_atom_site_fract_x
_atom_site_fract_y
_atom_site_fract_z
O1	O	1.050849	0.166915	-0.136409
O2	O	1.384182	0.500249	0.196924
O3	O	1.717515	0.833582	0.530258
O4	O	0.822449	0.165084	-0.136457
O5	O	1.155782	0.498417	0.196876
O6	O	1.489115	0.831751	0.530209
O7	O	0.935733	0.051800	-0.136420
O8	O	1.269066	0.385133	0.196913
O9	O	1.602400	0.718466	0.530246
O10	O	0.937564	0.280200	-0.136446
O11	O	1.270898	0.613533	0.196887
O12	O	1.604231	0.946866	0.530221
O13	O	0.935726	0.051798	0.136807
O14	O	1.269060	0.385131	0.470140
O15	O	1.602393	0.718465	0.803473
O16	O	0.822442	0.165082	0.136770
O17	O	1.155775	0.498416	0.470103
O18	O	1.489109	0.831749	0.803436
O19	O	1.050842	0.166914	0.136818
O20	O	1.384175	0.500247	0.470151
O21	O	1.717509	0.833580	0.803485
Zn22	Zn	0.936641	0.165998	0.180175
Zn23	Zn	1.269974	0.499331	0.513508
Zn24	Zn	1.603307	0.832664	0.846841
Zn25	Zn	0.936650	0.166000	-0.179814
Zn26	Zn	1.269983	0.499333	0.153519
Zn27	Zn	1.603316	0.832667	0.486853
O28	O	0.937557	0.280198	0.136781
O29	O	1.270891	0.613531	0.470114
O30	O	1.604224	0.946865	0.803448
C31	C	0.793085	0.162727	0.000150
C32	C	1.126418	0.496061	0.333483
C33	C	1.459752	0.829394	0.666817
C34	C	0.705600	0.155699	0.000132
C35	C	1.038934	0.489032	0.333465
C36	C	1.372267	0.822365	0.666799
C37	C	0.659610	0.223517	0.000126
C38	C	0.992943	0.556850	0.333459
C39	C	1.326276	0.890183	0.666792
C40	C	0.577409	0.216908	0.000149
C41	C	0.910742	0.550241	0.333482
C42	C	1.244076	0.883574	0.666816
C43	C	0.541201	0.142480	0.000167
C44	C	0.874534	0.475813	0.333500
C45	C	1.207867	0.809147	0.666834
C46	C	0.587198	0.074657	0.000178
C47	C	0.920531	0.407990	0.333512
C48	C	1.253864	0.741324	0.666845
C49	C	0.669397	0.081267	0.000167
C50	C	1.002730	0.414600	0.333500
C51	C	1.336063	0.747933	0.666833
C52	C	0.295886	0.115086	0.000214
C53	C	0.629220	0.448419	0.333547
C54	C	0.962553	0.781752	0.666881
C55	C	0.213681	0.108481	0.000221
C56	C	0.547014	0.441814	0.333554
C57	C	0.880348	0.775148	0.666887
C58	C	0.203898	0.250732	0.000194
C59	C	0.537231	0.584066	0.333528
C60	C	0.870565	0.917399	0.666861
C61	C	0.286099	0.257336	0.000173
C62	C	0.619432	0.590669	0.333506
C63	C	0.952766	0.924002	0.666840
C64	C	0.332089	0.189512	0.000193
C65	C	0.665422	0.522846	0.333526
C66	C	0.998756	0.856179	0.666859
N67	N	0.457178	0.135723	0.000186
N68	N	0.790512	0.469056	0.333519
N69	N	1.123845	0.802390	0.666852
N70	N	0.416110	0.196270	0.000186
N71	N	0.749443	0.529604	0.333519
N72	N	1.082776	0.862937	0.666852
C73	C	0.933374	0.022439	0.000192
C74	C	1.266707	0.355772	0.333526
C75	C	1.600041	0.689105	0.666859
C76	C	0.926345	-0.065046	0.000191
C77	C	1.259678	0.268287	0.333524
C78	C	1.593012	0.601621	0.666857
C79	C	0.994163	-0.111037	0.000207
C80	C	1.327496	0.222296	0.333540
C81	C	1.660830	0.555630	0.666873
C82	C	0.987554	-0.193238	0.000190
C83	C	1.320887	0.140096	0.333523
C84	C	1.654221	0.473429	0.666856
C85	C	0.913127	-0.229446	0.000168
C86	C	1.246460	0.103887	0.333502
C87	C	1.579793	0.437221	0.666835
C88	C	0.845303	-0.183449	0.000147
C89	C	1.178637	0.149884	0.333481
C90	C	1.511970	0.483218	0.666814
C91	C	0.851913	-0.101250	0.000153
C92	C	1.185246	0.232084	0.333486
C93	C	1.518580	0.565417	0.666819
C94	C	0.885732	-0.474760	0.000140
C95	C	1.219065	-0.141427	0.333473
C96	C	1.552399	0.191906	0.666807
C97	C	0.879127	-0.556966	0.000140
C98	C	1.212461	-0.223632	0.333473
C99	C	1.545794	0.109701	0.666806
C100	C	1.021379	-0.566749	0.000179
C101	C	1.354712	-0.233415	0.333512
C102	C	1.688045	0.099918	0.666845
C103	C	1.027982	-0.484547	0.000194
C104	C	1.361315	-0.151214	0.333527
C105	C	1.694649	0.182119	0.666861
C106	C	0.960159	-0.438558	0.000164
C107	C	1.293492	-0.105224	0.333498
C108	C	1.626826	0.228109	0.666831
N109	N	0.906369	-0.313468	0.000156
N110	N	1.239703	0.019865	0.333489
N111	N	1.573036	0.353199	0.666823
N112	N	0.966917	-0.354537	0.000165
N113	N	1.300250	-0.021204	0.333498
N114	N	1.633583	0.312130	0.666831
C115	C	1.080205	0.169270	0.000207
C116	C	1.413539	0.502603	0.333540
C117	C	1.746872	0.835937	0.666874
C118	C	1.167690	0.176299	0.000214
C119	C	1.501023	0.509632	0.333548
C120	C	1.834357	0.842966	0.666881
C121	C	0.939917	0.309559	0.000164
C122	C	1.273250	0.642892	0.333498
C123	C	1.606583	0.976226	0.666831
C124	C	0.946945	0.397044	0.000156
C125	C	1.280279	0.730377	0.333489
C126	C	1.613612	1.063710	0.666822
N127	N	0.936640	0.165996	0.425857
N128	N	1.269974	0.499329	0.759190
N129	N	1.603307	0.832663	1.092524
N130	N	0.936656	0.165996	-0.425497
N131	N	1.269989	0.499329	-0.092163
N132	N	1.603323	0.832663	0.241170
H133	H	0.689084	0.284124	0.000110
H134	H	1.022417	0.617457	0.333443
H135	H	1.355751	0.950790	0.666776
H136	H	1.054770	-0.081563	0.000234
H137	H	1.388103	0.251771	0.333567
H138	H	1.721437	0.585104	0.666901
H139	H	0.830505	-0.437325	0.000116
H140	H	1.163839	-0.103992	0.333450
H141	H	1.497172	0.229342	0.666783
H142	H	0.184203	0.047870	0.000234
H143	H	0.517537	0.381203	0.333567
H144	H	0.850870	0.714537	0.666900
H145	H	1.042779	-0.230680	0.000206
H146	H	1.376112	0.102653	0.333540
H147	H	1.709446	0.435986	0.666873
O148	O	0.527803	0.290055	0.000149
O149	O	0.861137	0.623388	0.333482
O150	O	1.194470	0.956721	0.666816
H151	H	0.541220	0.325424	-0.111231
H152	H	0.874553	0.658757	0.222102
H153	H	1.207887	0.992090	0.555436
O154	O	0.719008	0.008122	0.000168
O155	O	1.052341	0.341455	0.333502
O156	O	1.385674	0.674788	0.666835
H157	H	0.680022	-0.044744	0.000168
H158	H	1.013355	0.288590	0.333501
H159	H	1.346688	0.621923	0.666835
O160	O	0.325153	0.337611	0.000195
O161	O	0.658487	0.670944	0.333529
O162	O	0.991820	1.004277	0.666862
H163	H	0.279362	0.383660	0.000220
H164	H	0.612695	0.716994	0.333553
H165	H	0.946029	1.050327	0.666887
H166	H	1.088589	-0.455073	0.000212
H167	H	1.421922	-0.121739	0.333545
H168	H	1.755255	0.211594	0.666878
O169	O	0.345486	0.041938	0.000235
O170	O	0.678819	0.375271	0.333568
O171	O	1.012152	0.708604	0.666901
H172	H	0.306495	-0.010925	0.000235
H173	H	0.639829	0.322409	0.333568
H174	H	0.973162	0.655742	0.666901
O175	O	1.094529	-0.616349	0.000200
O176	O	1.427862	-0.283016	0.333534
O177	O	1.761196	0.050317	0.666867
H178	H	1.077433	-0.679591	0.000182
H179	H	1.410766	-0.346258	0.333515
H180	H	1.744100	-0.012924	0.666849
O181	O	0.765028	-0.222502	0.000143
O182	O	1.098361	0.110832	0.333476
O183	O	1.431694	0.444165	0.666810
H184	H	0.758616	-0.259722	-0.111209
H185	H	1.091949	0.073611	0.222124
H186	H	1.425283	0.406945	0.555458
O187	O	0.798849	-0.596024	0.000098
O188	O	1.132182	-0.262691	0.333431
O189	O	1.465515	0.070643	0.666765
H190	H	0.752796	-0.550235	0.000060
H191	H	1.086130	-0.216902	0.333393
H192	H	1.419463	0.116431	0.666726
H193	H	0.166444	0.305950	0.000182
H194	H	0.499778	0.639283	0.333515
H195	H	0.833111	0.972616	0.666848
H196	H	0.557710	0.014056	0.000216
H197	H	0.891044	0.347390	0.333550
H198	H	1.224377	0.680723	0.666883
O199	O	0.778768	-0.051639	0.000153
O200	O	1.112101	0.281694	0.333486
O201	O	1.445435	0.615028	0.666819
H202	H	0.725903	-0.090625	0.000156
H203	H	1.059236	0.242709	0.333490
H204	H	1.392569	0.576042	0.666823
