data_functionalizedCrystal
_audit_creation_method	'MofGen! by Chris Wilmer'
_symmetry_space_group_name_H-M	'P1'
_symmetry_Int_Tables_number	1
_symmetry_cell_setting	triclinic
loop_
_symmetry_equiv_pos_as_xyz
  x,y,z
_cell_length_a	10.654550
_cell_length_b	13.596369
_cell_length_c	10.654551
_cell_angle_alpha	90.003147
_cell_angle_beta	84.485132
_cell_angle_gamma	90.008835
loop_
_atom_site_label
_atom_site_type_symbol
_atom_site_fract_x
_atom_site_fract_y
_atom_site_fract_z
O1	O	1.667843	0.081866	0.176401
O2	O	1.302365	0.081849	0.193207
O3	O	1.493506	0.081858	0.002065
O4	O	1.476702	0.081857	0.367543
O5	O	1.493487	-0.081725	0.002054
O6	O	1.302346	-0.081734	0.193196
O7	O	1.667824	-0.081717	0.176390
Zn8	Zn	1.485082	-0.107698	0.184792
Zn9	Zn	1.485107	0.107830	0.184805
O10	O	1.476682	-0.081726	0.367533
C11	C	1.255557	0.000056	0.191968
C12	C	1.116114	0.000050	0.188276
N13	N	1.485074	-0.254790	0.184782
C14	C	1.036629	0.000064	0.300817
C15	C	0.905608	0.000081	0.297341
C16	C	0.933570	0.000074	0.068771
C17	C	1.064589	0.000050	0.072249
C18	C	1.020484	0.000072	0.432780
C19	C	0.889463	0.000089	0.429304
C20	C	1.485105	-0.656081	0.184807
C21	C	1.485093	-0.544429	0.184804
C22	C	1.485090	-0.455439	0.184795
C23	C	1.485076	-0.343780	0.184791
C24	C	1.714632	0.000078	0.177629
C25	C	1.854075	0.000091	0.181321
C26	C	1.492263	0.000069	-0.044739
C27	C	1.488570	0.000075	-0.184182
N28	N	1.485125	0.254922	0.184806
C29	C	1.486848	0.089243	-0.249688
C30	C	1.483368	0.089238	-0.380708
C31	C	1.483337	-0.089109	-0.380705
C32	C	1.486808	-0.089103	-0.249686
C33	C	1.486872	0.192210	-0.249692
C34	C	1.483392	0.192205	-0.380712
C35	C	1.477926	0.000065	0.414336
C36	C	1.481619	0.000065	0.553779
H37	H	0.891602	0.000089	-0.025694
H38	H	1.049807	-0.068392	0.484386
H39	H	0.847738	0.068553	0.479029
C40	C	1.488677	-0.187184	-0.177624
H41	H	1.490982	-0.174411	-0.090210
H42	H	1.561202	-0.223836	-0.208030
H43	H	1.414975	-0.223811	-0.190159
C44	C	1.068674	0.095459	0.489588
H45	H	1.157696	0.092189	0.490060
H46	H	1.030866	0.102992	0.573473
H47	H	1.047207	0.150044	0.440263
C48	C	0.827743	-0.095311	0.483172
H49	H	0.890920	-0.137805	0.509574
H50	H	0.785258	-0.127009	0.419985
H51	H	0.768985	-0.079970	0.553209
C52	C	1.610628	0.235342	-0.209732
H53	H	1.608821	0.233857	-0.120430
H54	H	1.619620	0.301364	-0.238358
H55	H	1.679804	0.197385	-0.245743
H56	H	1.481900	-0.161715	-0.434055
C57	C	1.369635	0.245609	-0.187157
H58	H	1.319056	0.267558	-0.250348
H59	H	1.395319	0.300505	-0.140749
H60	H	1.322189	0.201693	-0.131807
H61	H	1.391799	0.224160	-0.410277
C62	C	1.600645	0.245602	-0.443260
H63	H	1.598270	0.245605	-0.532168
H64	H	1.674542	0.212674	-0.422582
H65	H	1.601440	0.311481	-0.413631
C66	C	1.152019	0.000024	-0.051546
H67	H	1.102564	0.000036	-0.121141
H68	H	1.203681	-0.057031	-0.054935
H69	H	1.203738	0.057066	-0.054946
