data_functionalizedCrystal
_audit_creation_method	'MofGen! by Chris Wilmer'
_symmetry_space_group_name_H-M	'P1'
_symmetry_Int_Tables_number	1
_symmetry_cell_setting	triclinic
loop_
_symmetry_equiv_pos_as_xyz
  x,y,z
_cell_length_a	16.120530
_cell_length_b	13.897448
_cell_length_c	16.120297
_cell_angle_alpha	87.126532
_cell_angle_beta	90.128140
_cell_angle_gamma	92.886725
loop_
_atom_site_label
_atom_site_type_symbol
_atom_site_fract_x
_atom_site_fract_y
_atom_site_fract_z
Zn1	Zn	1.247483	0.488690	-0.534571
Zn2	Zn	1.580816	0.822024	-0.201238
Zn3	Zn	1.914149	1.155357	0.132096
Zn4	Zn	1.254447	0.642247	-0.395515
Zn5	Zn	1.587780	0.975580	-0.062182
Zn6	Zn	1.921114	1.308913	0.271151
Zn7	Zn	1.115472	0.472390	-0.388489
Zn8	Zn	1.448805	0.805724	-0.055155
Zn9	Zn	1.782138	1.139057	0.278178
Zn10	Zn	1.108403	0.641358	-0.527485
Zn11	Zn	1.441737	0.974692	-0.194151
Zn12	Zn	1.775070	1.308025	0.139182
O13	O	1.181451	0.561171	-0.461515
O14	O	1.514784	0.894505	-0.128182
O15	O	1.848118	1.227838	0.205152
O16	O	1.364774	0.516253	-0.522031
O17	O	1.698107	0.849586	-0.188698
O18	O	2.031440	1.182920	0.144635
O19	O	1.241884	0.613265	-0.278218
O20	O	1.575218	0.946598	0.055116
O21	O	1.908551	1.279932	0.388449
O22	O	1.133027	0.339575	-0.407892
O23	O	1.466360	0.672908	-0.074559
O24	O	1.799694	1.006242	0.258775
O25	O	1.369890	0.629070	-0.419868
O26	O	1.703223	0.962404	-0.086534
O27	O	2.036557	1.295737	0.246799
O28	O	1.230015	0.351550	-0.515218
O29	O	1.563348	0.684884	-0.181885
O30	O	1.896682	1.018217	0.151449
O31	O	1.139780	0.488472	-0.273055
O32	O	1.473113	0.821806	0.060278
O33	O	1.806446	1.155139	0.393611
O34	O	0.998167	0.487611	-0.401021
O35	O	1.331501	0.820944	-0.067687
O36	O	1.664834	1.154278	0.265646
O37	O	1.120980	0.627556	-0.644790
O38	O	1.454313	0.960890	-0.311457
O39	O	1.787646	1.294223	0.021876
O40	O	0.992974	0.611751	-0.503140
O41	O	1.326307	0.945084	-0.169807
O42	O	1.659641	1.278418	0.163526
O43	O	1.223161	0.515392	-0.649997
O44	O	1.556494	0.848725	-0.316663
O45	O	1.889828	1.182058	0.016670
O46	O	1.235030	0.777106	-0.412996
O47	O	1.568364	1.110440	-0.079663
O48	O	1.901697	1.443773	0.253670
O49	O	1.127733	0.776454	-0.509954
O50	O	1.461066	1.109787	-0.176620
O51	O	1.794399	1.443120	0.156713
C52	C	0.965398	0.547817	-0.450550
C53	C	1.298731	0.881150	-0.117216
C54	C	1.632065	1.214483	0.216117
C55	C	0.872968	0.542128	-0.445878
C56	C	1.206302	0.875461	-0.112545
C57	C	1.539635	1.208794	0.220789
C58	C	1.181392	0.811781	-0.461488
C59	C	1.514725	1.145114	-0.128155
C60	C	1.848058	1.478447	0.205179
C61	C	1.181441	0.918999	-0.461508
C62	C	1.514774	1.252332	-0.128175
C63	C	1.848108	1.585665	0.205159
C64	C	1.170505	0.573193	-0.678409
C65	C	1.503838	0.906527	-0.345076
C66	C	1.837172	1.239860	-0.011743
C67	C	1.165840	0.578316	-0.770837
C68	C	1.499174	0.911650	-0.437503
C69	C	1.832507	1.244983	-0.104170
C70	C	0.703738	0.531719	-0.437357
C71	C	1.037071	0.865052	-0.104023
C72	C	1.370405	1.198386	0.229310
C73	C	0.660002	0.590698	-0.485734
C74	C	0.993335	0.924031	-0.152401
C75	C	1.326668	1.257365	0.180933
C76	C	0.565836	0.584907	-0.480993
C77	C	0.899170	0.918240	-0.147659
C78	C	1.232503	1.251573	0.185674
C79	C	0.797912	0.537509	-0.442097
C80	C	1.131245	0.870843	-0.108764
C81	C	1.464579	1.204176	0.224570
C82	C	1.398348	0.574579	-0.472524
C83	C	1.731681	0.907912	-0.139190
C84	C	2.065015	1.241246	0.194143
C85	C	1.490777	0.580293	-0.477215
C86	C	1.824110	0.913626	-0.143882
C87	C	2.157443	1.246959	0.189452
C88	C	1.181533	0.309586	-0.461562
C89	C	1.514866	0.642919	-0.128228
C90	C	1.848199	0.976253	0.205105
C91	C	1.181567	0.202375	-0.461581
C92	C	1.514901	0.535709	-0.128248
C93	C	1.848234	0.869042	0.205085
C94	C	1.181526	1.115302	-0.461564
C95	C	1.514859	1.448635	-0.128231
C96	C	1.848192	1.781969	0.205102
C97	C	1.181476	1.006065	-0.461535
C98	C	1.514809	1.339398	-0.128202
C99	C	1.848143	1.672732	0.205131
C100	C	1.157294	0.587646	-0.940062
C101	C	1.490627	0.920979	-0.606728
C102	C	1.823960	1.254313	-0.273395
C103	C	1.205773	0.534418	-0.983829
C104	C	1.539106	0.867751	-0.650495
C105	C	1.872439	1.201085	-0.317162
C106	C	1.201017	0.539609	-1.077991
C107	C	1.534350	0.872942	-0.744658
C108	C	1.867684	1.206276	-0.411324
C109	C	1.162048	0.582456	-0.845890
C110	C	1.495381	0.915789	-0.512557
C111	C	1.828715	1.249123	-0.179224
C112	C	1.192403	0.549130	-0.245467
C113	C	1.525736	0.882463	0.087866
C114	C	1.859069	1.215796	0.421200
C115	C	1.197228	0.543745	-0.153048
C116	C	1.530562	0.877078	0.180285
C117	C	1.863895	1.210412	0.513619
H118	H	0.693279	0.645540	-0.530713
H119	H	1.026612	0.978873	-0.197380
H120	H	1.359945	1.312207	0.135953
H121	H	1.250848	0.484948	-0.950580
H122	H	1.584181	0.818281	-0.617247
H123	H	1.917514	1.151615	-0.283914
H124	H	0.670463	0.476881	-0.392381
H125	H	1.003796	0.810215	-0.059048
H126	H	1.337130	1.143548	0.274285
C127	C	1.096411	0.654479	-0.984971
C128	C	1.429745	0.987812	-0.651638
C129	C	1.763078	1.321145	-0.318305
H130	H	1.101172	0.649249	-1.043285
H131	H	1.434506	0.982582	-0.709951
H132	H	1.767839	1.315916	-0.376618
H133	H	1.041243	0.636154	-0.967949
H134	H	1.374576	0.969487	-0.634616
H135	H	1.707909	1.302821	-0.301282
H136	H	1.109275	0.719276	-0.971403
H137	H	1.442608	1.052609	-0.638069
H138	H	1.775942	1.385942	-0.304736
