data_functionalizedCrystal
_audit_creation_method	'MofGen! by Chris Wilmer'
_symmetry_space_group_name_H-M	'P1'
_symmetry_Int_Tables_number	1
_symmetry_cell_setting	triclinic
loop_
_symmetry_equiv_pos_as_xyz
  x,y,z
_cell_length_a	23.532355
_cell_length_b	19.288859
_cell_length_c	17.766277
_cell_angle_alpha	89.993887
_cell_angle_beta	89.996455
_cell_angle_gamma	82.980612
loop_
_atom_site_label
_atom_site_type_symbol
_atom_site_fract_x
_atom_site_fract_y
_atom_site_fract_z
O1	O	0.755456	0.084148	-0.062492
O2	O	0.589613	0.096386	-0.062515
O3	O	0.677328	-0.010880	-0.062498
O4	O	0.667740	0.191413	-0.062509
O5	O	0.677313	-0.010885	0.062690
O6	O	0.589598	0.096380	0.062673
O7	O	0.755440	0.084142	0.062697
Cu8	Cu	0.672518	0.090261	0.074116
Cu9	Cu	0.672536	0.090267	-0.073934
O10	O	0.667725	0.191408	0.062680
C11	C	0.568388	0.096077	0.000076
C12	C	0.505168	0.095157	0.000067
C13	C	0.113134	0.089376	0.068339
C14	C	0.053732	0.088501	0.068342
O15	O	0.023006	0.088022	0.126377
N16	N	0.024031	0.088070	0.000102
C17	C	0.053735	0.088507	-0.068146
O18	O	0.023018	0.088059	-0.126189
C19	C	0.113136	0.089377	-0.068148
C20	C	0.142833	0.089815	0.000097
C21	C	0.142831	0.089813	0.136578
C22	C	0.202228	0.090689	0.136574
C23	C	0.231928	0.091128	0.068332
C24	C	0.202230	0.090691	0.000093
C25	C	0.142840	0.089809	-0.136394
C26	C	0.202244	0.090678	-0.136391
C27	C	0.231942	0.091116	-0.068146
C28	C	0.291327	0.092006	-0.068152
N29	N	0.321028	0.092437	0.000088
C30	C	0.291328	0.091998	0.068330
C31	C	-0.071010	0.086678	-0.068136
C32	C	-0.130410	0.085813	-0.068135
C33	C	-0.130409	0.085806	0.068353
C34	C	-0.071008	0.086676	0.068351
C35	C	-0.041309	0.087109	0.000104
C36	C	0.416066	0.093839	0.068318
C37	C	0.475468	0.094718	0.068309
C38	C	0.475462	0.094722	-0.068178
C39	C	0.416065	0.093846	-0.068169
C40	C	0.386369	0.093403	0.000085
O41	O	0.322092	0.092483	-0.126157
O42	O	0.322054	0.092437	0.126364
C43	C	0.677013	-0.036758	0.000095
C44	C	0.676088	-0.113859	0.000094
C45	C	0.776665	0.084451	0.000104
C46	C	0.839886	0.085371	0.000108
C47	C	0.721303	-0.678049	0.000081
C48	C	0.722176	-0.605605	0.000087
C49	C	0.670709	-0.560728	0.000080
C50	C	0.618364	-0.588300	0.000084
C51	C	0.617492	-0.660742	0.000085
C52	C	0.632330	-0.439326	-0.043784
C53	C	0.633204	-0.366885	-0.043789
C54	C	0.673396	-0.337291	0.000081
C55	C	0.712724	-0.380149	0.043946
C56	C	0.711852	-0.452592	0.043947
C57	C	0.671649	-0.482176	0.000079
C58	C	0.726685	-0.231176	0.000089
C59	C	0.727556	-0.158731	0.000100
C60	C	0.623743	-0.141427	0.000090
C61	C	0.622873	-0.213871	0.000086
C62	C	0.674346	-0.258741	0.000082
C63	C	0.668041	0.217286	0.000084
C64	C	0.668965	0.294387	0.000081
N65	N	0.672509	0.090256	0.178246
N66	N	0.672549	0.090267	-0.178065
C67	C	0.711362	0.042782	0.217640
C68	C	0.711365	0.042779	0.296442
C69	C	0.672521	0.090261	0.335847
C70	C	0.633661	0.137739	0.296443
C71	C	0.633655	0.137736	0.217642
C72	C	0.664895	0.153575	0.460681
C73	C	0.664905	0.153578	0.539480
C74	C	0.672536	0.090270	0.578893
C75	C	0.680169	0.026955	0.539498
C76	C	0.680163	0.026952	0.460698
C77	C	0.672523	0.090269	0.421292
C78	C	0.711395	0.042788	0.703733
C79	C	0.711394	0.042784	0.782537
C80	C	0.633693	0.137751	0.782535
C81	C	0.633691	0.137749	0.703734
C82	C	0.672545	0.090268	0.664337
H83	H	0.499654	0.095082	-0.123739
H84	H	-0.046833	0.087034	0.123922
H85	H	0.602063	0.176409	0.814618
H86	H	0.763216	-0.714579	0.000081
H87	H	0.581837	-0.104888	0.000090
C88	C	0.754129	-0.009447	0.660395
N89	N	0.786316	-0.048792	0.627754
C90	C	0.779754	-0.575278	0.000080
N91	N	0.823122	-0.552437	0.000072
H92	H	0.658694	0.205133	0.571549
C93	C	0.785135	-0.128412	0.000103
N94	N	0.828504	-0.105575	0.000104
C95	C	0.110170	0.089340	0.211656
N96	N	0.085572	0.088992	0.268210
H97	H	0.601185	-0.331996	-0.079511
H98	H	0.391894	0.093484	0.123897
C99	C	0.590990	0.190025	0.660398
N100	N	0.558838	0.229417	0.627758
H101	H	0.658671	0.205131	0.428597
C102	C	-0.163089	0.085316	0.143422
N103	N	-0.187705	0.084945	0.199959
H104	H	0.226402	0.091042	0.192146
H105	H	-0.154586	0.085468	-0.123706
H106	H	-0.046833	0.087038	-0.123714
C107	C	0.688562	-0.042690	0.582846
N108	N	0.694884	-0.095145	0.615500
H109	H	0.118671	0.089451	-0.191966
C110	C	0.590930	0.189967	0.339789
N111	N	0.558741	0.229305	0.372437
H112	H	0.602016	0.176396	0.185567
H113	H	0.743031	0.004121	0.814612
H114	H	0.391883	0.093501	-0.123740
C115	C	0.783305	-0.280537	0.000093
N116	N	0.825952	-0.317713	0.000098
H117	H	0.226422	0.091032	-0.191967
H118	H	0.599594	-0.463413	-0.079502
H119	H	0.743872	-0.487483	0.079665
H120	H	0.499644	0.095077	0.123884
C121	C	0.756938	-0.347602	0.092207
N122	N	0.790240	-0.323085	0.128555
H123	H	0.580254	-0.236313	0.000081
C124	C	0.561750	-0.538934	0.000073
N125	N	0.519107	-0.501751	0.000066
H126	H	0.574871	-0.683184	0.000087
C127	C	0.754097	-0.009455	0.174309
N128	N	0.786284	-0.048802	0.141671
H129	H	0.743005	0.004118	0.328523
C130	C	0.688552	-0.042693	0.417366
N131	N	0.694867	-0.095151	0.384729
