data_functionalizedCrystal
_audit_creation_method	'MofGen! by Chris Wilmer'
_symmetry_space_group_name_H-M	'P1'
_symmetry_Int_Tables_number	1
_symmetry_cell_setting	triclinic
loop_
_symmetry_equiv_pos_as_xyz
  x,y,z
_cell_length_a	11.026623
_cell_length_b	23.532407
_cell_length_c	10.065918
_cell_angle_alpha	80.127899
_cell_angle_beta	82.291612
_cell_angle_gamma	95.717686
loop_
_atom_site_label
_atom_site_type_symbol
_atom_site_fract_x
_atom_site_fract_y
_atom_site_fract_z
O1	O	-1.623116	-0.247248	0.113569
O2	O	-1.270136	-0.220125	0.113562
O3	O	-1.457266	-0.151872	0.113536
O4	O	-1.435986	-0.315501	0.113595
O5	O	-1.425619	-0.133762	-0.113459
O6	O	-1.238490	-0.202014	-0.113433
O7	O	-1.591469	-0.229138	-0.113426
Zn8	Zn	-1.409955	-0.212701	-0.149470
Zn9	Zn	-1.451651	-0.236562	0.149606
O10	O	-1.404339	-0.297391	-0.113400
C11	C	-1.209162	-0.206066	0.000063
C12	C	-1.074627	-0.191149	0.000060
C13	C	-1.000328	-0.232335	0.000075
C14	C	-0.861279	-0.216919	0.000071
C15	C	-1.440900	-0.121543	0.000034
C16	C	-1.439268	-0.058154	0.000020
C17	C	-1.539795	0.330373	0.000074
C18	C	-1.538282	0.389931	0.000081
O19	O	-1.631471	0.416871	0.000131
N20	N	-1.427030	0.424259	0.000077
C21	C	-1.317287	0.399024	0.000079
O22	O	-1.222520	0.433692	0.000077
C23	C	-1.318802	0.339466	0.000082
C24	C	-1.430059	0.305142	0.000072
C25	C	-1.651043	0.296049	0.000066
C26	C	-1.652555	0.236494	0.000057
C27	C	-1.542819	0.211263	0.000055
C28	C	-1.431571	0.245587	0.000063
C29	C	-1.209061	0.314231	0.000094
C30	C	-1.210587	0.254668	0.000098
C31	C	-1.321844	0.220344	0.000088
C32	C	-1.323348	0.160802	0.000052
N33	N	-1.434599	0.126474	0.000056
C34	C	-1.544335	0.151705	0.000058
C35	C	-1.314112	0.524101	0.000076
C36	C	-1.312594	0.583659	0.000063
C37	C	-1.533590	0.574562	0.000068
C38	C	-1.535106	0.515004	0.000070
C39	C	-1.425364	0.489773	0.000080
C40	C	-1.547502	0.026636	0.000037
C41	C	-1.549004	-0.032923	0.000021
C42	C	-1.328010	-0.023821	0.000024
C43	C	-1.326506	0.035733	0.000032
C44	C	-1.436263	0.060960	0.000043
O45	O	-1.230208	0.133822	0.000007
O46	O	-1.639089	0.117029	0.000078
C47	C	-0.652444	-0.243196	0.000075
C48	C	-0.786980	-0.258111	0.000087
C49	C	-1.420704	0.672282	0.000091
C50	C	-1.422331	0.608895	0.000072
N51	N	-1.381508	-0.196417	-0.353580
C52	C	-1.441745	-0.230895	-0.421348
C53	C	-1.419862	-0.218358	-0.578519
N54	N	-1.480108	-0.252842	0.353716
H55	H	-0.826303	-0.304787	0.000094
C56	C	-1.766098	0.011647	0.000021
C57	C	-1.668146	0.054360	0.000037
H58	H	-1.840574	0.028765	0.000006
H59	H	-1.773125	-0.017713	0.079174
H60	H	-1.751031	-0.005072	-0.079143
H61	H	-1.683209	0.071076	0.079207
H62	H	-1.661120	0.083730	-0.079124
C63	C	-0.864075	-0.136096	0.116728
C64	C	-0.808207	-0.153906	0.000050
H65	H	-0.831314	-0.097194	0.116709
H66	H	-0.848248	-0.160814	0.195877
H67	H	-0.950555	-0.138194	0.116715
H68	H	-0.721728	-0.151813	0.000069
H69	H	-0.824025	-0.129181	-0.079119
C70	C	-1.180882	-0.298420	0.000094
C71	C	-1.053409	-0.295345	0.000095
H72	H	-1.213648	-0.337321	0.000113
H73	H	-1.196688	-0.273702	-0.079066
H74	H	-1.218761	-0.286330	0.079251
H75	H	-1.015528	-0.307430	-0.079068
H76	H	-1.037593	-0.320071	0.079263
C77	C	-1.870842	0.233502	0.000076
C78	C	-1.774856	0.198769	0.000065
H79	H	-1.946349	0.210212	0.000092
H80	H	-1.854616	0.263239	-0.079079
H81	H	-1.876668	0.250603	0.079238
H82	H	-1.769024	0.181671	-0.079103
H83	H	-1.791085	0.169021	0.079228
H84	H	-1.509522	-0.269693	-0.363008
C85	C	-1.100341	0.183652	0.116795
C86	C	-1.089951	0.226936	0.000107
H87	H	-1.025863	0.166536	0.116799
H88	H	-1.166799	0.154687	0.116777
H89	H	-1.115388	0.200381	0.195945
H90	H	-1.074914	0.210205	-0.079044
H91	H	-1.023473	0.255906	0.000112
C92	C	-1.793854	0.348423	0.116754
C93	C	-1.771681	0.323774	0.000068
H94	H	-1.868340	0.365532	0.116749
H95	H	-1.727402	0.377395	0.116745
H96	H	-1.800877	0.319054	0.195905
H97	H	-1.764649	0.353144	-0.079084
H98	H	-1.838149	0.294799	0.000064
C99	C	-1.077419	-0.110329	0.116717
C100	C	-1.021550	-0.128139	0.000039
H101	H	-1.044657	-0.071427	0.116697
H102	H	-1.061591	-0.135047	0.195865
H103	H	-1.163898	-0.112427	0.116703
H104	H	-0.935071	-0.126046	0.000057
H105	H	-1.037368	-0.103414	-0.079130
C106	C	-1.575561	-0.307514	-0.427090
C107	C	-1.571595	-0.305230	-0.567549
H108	H	-1.632032	-0.339859	-0.378486
H109	H	-1.601572	-0.272729	-0.403751
H110	H	-1.495768	-0.311514	-0.403773
H111	H	-1.651386	-0.301226	-0.590868
H112	H	-1.545590	-0.340023	-0.590897
H113	H	-1.238665	-0.044374	0.000018
H114	H	-1.639606	-0.060867	0.000010
H115	H	-1.625701	0.487060	0.000064
H116	H	-1.622943	0.595115	0.000074
H117	H	-1.235907	0.063685	0.000002
C118	C	-1.095510	0.539087	0.000048
C119	C	-1.193468	0.496373	0.000060
H120	H	-1.021031	0.521970	0.000031
H121	H	-1.110553	0.555805	0.079203
H122	H	-1.088501	0.568449	-0.079114
H123	H	-1.200483	0.467013	0.079227
H124	H	-1.178423	0.479646	-0.079103
C125	C	-0.990784	0.317212	0.000130
C126	C	-1.086764	0.351949	0.000116
H127	H	-0.915281	0.340497	0.000155
H128	H	-0.984935	0.300117	-0.079027
H129	H	-1.007038	0.287468	0.079289
H130	H	-1.070515	0.381690	-0.079048
H131	H	-1.092612	0.369052	0.079282
C132	C	-1.285833	-0.141831	-0.572780
C133	C	-1.290012	-0.144037	-0.432321
H134	H	-1.229339	-0.109495	-0.621385
H135	H	-1.365570	-0.137868	-0.596262
H136	H	-1.259734	-0.176633	-0.595951
H137	H	-1.316119	-0.109236	-0.409148
H138	H	-1.210257	-0.147996	-0.408829
H139	H	-1.221994	0.611603	0.000047
H140	H	-1.352088	-0.179555	-0.636854
