data_functionalizedCrystal
_audit_creation_method	'MofGen! by Chris Wilmer'
_symmetry_space_group_name_H-M	'P1'
_symmetry_Int_Tables_number	1
_symmetry_cell_setting	triclinic
loop_
_symmetry_equiv_pos_as_xyz
  x,y,z
_cell_length_a	14.044220
_cell_length_b	10.540539
_cell_length_c	13.101039
_cell_angle_alpha	93.398267
_cell_angle_beta	86.340132
_cell_angle_gamma	88.857185
loop_
_atom_site_label
_atom_site_type_symbol
_atom_site_fract_x
_atom_site_fract_y
_atom_site_fract_z
O1	O	1.264944	0.299850	-0.085096
O2	O	1.764944	0.799850	0.414904
O3	O	0.988901	0.288796	-0.085123
O4	O	1.488901	0.788796	0.414877
O5	O	1.133220	0.110253	-0.085108
O6	O	1.633220	0.610253	0.414892
O7	O	1.120625	0.478393	-0.085111
O8	O	1.620625	0.978393	0.414889
O9	O	1.122866	0.123087	0.085321
O10	O	1.622866	0.623087	0.585321
O11	O	0.978547	0.301630	0.085306
O12	O	1.478547	0.801630	0.585306
O13	O	1.254589	0.312683	0.085332
O14	O	1.754589	0.812683	0.585332
Zn15	Zn	1.114924	0.309194	0.112379
Zn16	Zn	1.614924	0.809194	0.612379
Zn17	Zn	1.128566	0.292285	-0.112169
Zn18	Zn	1.628566	0.792285	0.387831
O19	O	1.110270	0.491226	0.085317
O20	O	1.610270	0.991226	0.585317
C21	C	0.948377	0.290375	0.000088
C22	C	1.448377	0.790375	0.500088
C23	C	0.843054	0.275945	0.000078
C24	C	1.343054	0.775945	0.500078
C25	C	1.127098	0.069271	0.000105
C26	C	1.627098	0.569271	0.500105
C27	C	1.124273	-0.071963	0.000099
C28	C	1.624273	0.428037	0.500099
C29	C	0.650213	0.249565	0.000099
C30	C	1.150213	0.749565	0.500099
C31	C	0.593272	0.351908	0.000102
C32	C	1.093272	0.851908	0.500102
C33	C	0.485969	0.337230	0.000114
C34	C	0.985969	0.837230	0.500114
C35	C	0.757526	0.264241	0.000087
C36	C	1.257526	0.764241	0.500087
C37	C	1.016007	-0.266367	-0.000294
C38	C	1.516007	0.233633	0.499706
C39	C	1.018849	-0.119430	0.000090
C40	C	1.518849	0.380570	0.500090
C41	C	1.169094	-0.121162	0.097427
C42	C	1.669094	0.378838	0.597427
C43	C	1.165492	-0.268064	0.097509
C44	C	1.665492	0.231936	0.597509
C45	C	1.179411	-0.282960	-0.096300
C46	C	1.679411	0.217040	0.403700
C47	C	1.180460	-0.135977	-0.097587
C48	C	1.680460	0.364023	0.402413
C49	C	1.295114	0.311104	0.000119
C50	C	1.795114	0.811104	0.500119
C51	C	1.400437	0.325534	0.000123
C52	C	1.900437	0.825534	0.500123
C53	C	1.116392	0.532208	0.000103
C54	C	1.616392	1.032208	0.500103
C55	C	1.119218	0.673442	0.000102
C56	C	1.619218	1.173442	0.500102
N57	N	1.105620	0.320734	0.265626
N58	N	1.605620	0.820734	0.765626
N59	N	1.137878	0.280737	-0.265416
N60	N	1.637878	0.780737	0.234584
C61	C	1.092962	0.336445	0.474667
C62	C	1.592962	0.836445	0.974667
C63	C	1.150533	0.265029	0.525549
C64	C	1.650533	0.765029	1.025549
C65	C	1.143490	0.273771	0.641867
C66	C	1.643490	0.773771	1.141867
C67	C	1.100004	0.327705	0.358339
C68	C	1.600004	0.827705	0.858339
H69	H	0.618376	0.150932	0.000105
H70	H	1.118376	0.650932	0.500105
H71	H	1.205111	0.197322	0.481752
H72	H	1.705111	0.697322	0.981752
C73	C	0.970633	-0.074418	-0.094150
C74	C	1.470633	0.425582	0.405850
H75	H	0.949125	-0.145975	-0.133012
H76	H	1.449125	0.354025	0.366988
H77	H	1.015223	-0.029863	-0.135325
H78	H	1.515223	0.470137	0.364675
H79	H	0.917781	-0.019661	-0.072244
H80	H	1.417781	0.480339	0.427756
C81	C	1.019246	0.427918	0.533825
C82	C	1.519246	0.927918	1.033825
H83	H	1.024133	0.421876	0.605375
H84	H	1.524133	0.921876	1.105375
H85	H	0.956856	0.405770	0.516312
H86	H	1.456856	0.905770	1.016312
H87	H	1.031288	0.512554	0.516303
H88	H	1.531288	1.012554	1.016303
C89	C	0.965465	-0.317801	-0.094571
C90	C	1.465465	0.182199	0.405429
H91	H	1.006850	-0.376452	-0.134535
H92	H	1.506850	0.123548	0.365465
H93	H	0.949323	-0.249282	-0.134652
H94	H	1.449323	0.250718	0.365348
H95	H	0.909043	-0.359436	-0.072683
H96	H	1.409043	0.140564	0.427317
H97	H	0.970315	-0.295542	0.069103
H98	H	1.470315	0.204458	0.569103
C99	C	0.636278	0.485164	0.000077
C100	C	1.136278	0.985164	0.500077
H101	H	0.703804	0.477678	0.000059
H102	H	1.203804	0.977678	0.500059
H103	H	0.612191	0.534500	0.059504
H104	H	1.112191	1.034500	0.559504
H105	H	0.619387	0.525511	-0.059368
H106	H	1.119387	1.025511	0.440632
C107	C	0.958820	-0.061394	0.094495
C108	C	1.458820	0.438606	0.594495
H109	H	0.932608	-0.127632	0.132767
H110	H	1.432608	0.372368	0.632767
H111	H	0.908627	-0.009780	0.072794
H112	H	1.408627	0.490220	0.572794
H113	H	0.998205	-0.010981	0.136184
H114	H	1.498205	0.489019	0.636184
H115	H	1.246295	-0.090708	0.101053
H116	H	1.746295	0.409292	0.601053
H117	H	1.123576	-0.294577	0.170256
H118	H	1.623576	0.205423	0.670256
C119	C	1.136297	-0.093060	-0.194859
C120	C	1.636297	0.406940	0.305141
H121	H	1.083838	-0.036361	-0.176028
H122	H	1.583838	0.463639	0.323972
H123	H	1.114869	-0.165181	-0.233076
H124	H	1.614869	0.334819	0.266924
H125	H	1.182939	-0.051131	-0.235476
H126	H	1.682939	0.448869	0.264524
C127	C	1.267544	-0.322072	0.103510
C128	C	1.767544	0.177928	0.603510
H129	H	1.266036	-0.412135	0.103598
H130	H	1.766036	0.087865	0.603598
H131	H	1.293220	-0.288974	0.164663
H132	H	1.793220	0.211026	0.664663
H133	H	1.306333	-0.298437	0.045962
H134	H	1.806333	0.201563	0.545962
C135	C	1.115534	-0.061084	0.195265
C136	C	1.615534	0.438916	0.695265
H137	H	1.065852	-0.006017	0.177007
H138	H	1.565852	0.493983	0.677007
H139	H	1.158707	-0.013939	0.234648
H140	H	1.658707	0.486061	0.734648
H141	H	1.088977	-0.126245	0.234488
H142	H	1.588977	0.373755	0.734488
H143	H	1.149772	-0.323517	-0.170068
H144	H	1.649772	0.176483	0.329932
C145	C	1.284786	-0.093397	-0.105509
C146	C	1.784786	0.406603	0.394491
H147	H	1.316987	-0.133522	-0.165179
H148	H	1.816987	0.366478	0.334821
H149	H	1.315572	-0.116640	-0.046647
H150	H	1.815572	0.383360	0.453353
H151	H	1.286164	-0.003761	-0.109596
H152	H	1.786164	0.496239	0.390404
C153	C	1.282328	-0.336433	-0.097186
C154	C	1.782328	0.163567	0.402814
H155	H	1.288625	-0.385098	-0.039126
H156	H	1.788625	0.114902	0.460874
H157	H	1.325482	-0.268211	-0.095047
H158	H	1.825482	0.231789	0.404953
H159	H	1.296359	-0.389010	-0.157925
H160	H	1.796359	0.110990	0.342075
