data_functionalizedCrystal
_audit_creation_method	'MofGen! by Chris Wilmer'
_symmetry_space_group_name_H-M	'P1'
_symmetry_Int_Tables_number	1
_symmetry_cell_setting	triclinic
loop_
_symmetry_equiv_pos_as_xyz
  x,y,z
_cell_length_a	18.050591
_cell_length_b	19.121063
_cell_length_c	18.050583
_cell_angle_alpha	92.401387
_cell_angle_beta	89.977979
_cell_angle_gamma	92.465257
loop_
_atom_site_label
_atom_site_type_symbol
_atom_site_fract_x
_atom_site_fract_y
_atom_site_fract_z
Zn1	Zn	1.122689	-0.279636	-0.432625
Zn2	Zn	1.117299	-0.397107	-0.313726
Zn3	Zn	0.998504	-0.279667	-0.308438
Zn4	Zn	0.993161	-0.397042	-0.437858
O5	O	1.057914	-0.338363	-0.373162
O6	O	1.225898	-0.295233	-0.416876
O7	O	1.101522	-0.381568	-0.209102
O8	O	1.019470	-0.181379	-0.320508
O9	O	1.221938	-0.381538	-0.329521
O10	O	1.110707	-0.181356	-0.411749
O11	O	1.014243	-0.295286	-0.205216
O12	O	0.893872	-0.295223	-0.325583
O13	O	1.010363	-0.381427	-0.541087
O14	O	0.889946	-0.381457	-0.420668
O15	O	1.105526	-0.295170	-0.537242
O16	O	1.096340	-0.495382	-0.334595
O17	O	1.005137	-0.495334	-0.425795
C18	C	0.864963	-0.338337	-0.373120
C19	C	0.782417	-0.338342	-0.373120
C20	C	0.585082	-0.291394	-0.321525
C21	C	0.532772	-0.355457	-0.306134
C22	C	0.631285	-0.338364	-0.373154
C23	C	0.536512	-0.274323	-0.388544
C24	C	0.485299	-0.338379	-0.373186
C25	C	0.580062	-0.402461	-0.357730
C26	C	0.583807	-0.321283	-0.440170
C27	C	0.531518	-0.385391	-0.424807
C28	C	0.715384	-0.338354	-0.373134
C29	C	0.401202	-0.338395	-0.373207
C30	C	1.049594	-0.520842	-0.381353
C31	C	1.046103	-0.598907	-0.384882
C32	C	1.091985	-0.635584	-0.339097
C33	C	1.088706	-0.708935	-0.342420
C34	C	1.039541	-0.745607	-0.391526
C35	C	0.993657	-0.708925	-0.437316
C36	C	0.996940	-0.635576	-0.433996
C37	C	1.027253	-0.967075	-0.403928
C38	C	1.023972	-1.040429	-0.407243
C39	C	1.119022	-1.040434	-0.312347
C40	C	1.122297	-0.967083	-0.309028
C41	C	1.076417	-0.930407	-0.354822
C42	C	1.036186	-0.820583	-0.394923
C43	C	1.079775	-0.855432	-0.351428
C44	C	1.251618	-0.338390	-0.373205
C45	C	1.334163	-0.338401	-0.373223
C46	C	1.057950	-0.338288	-0.566864
C47	C	1.057965	-0.338256	-0.649409
C48	C	1.066286	-0.155171	-0.364955
C49	C	1.069853	-0.077106	-0.361458
C50	C	1.109766	-0.291327	-0.846768
C51	C	1.042808	-0.274132	-0.895381
C52	C	1.057995	-0.338244	-0.800538
C53	C	1.124983	-0.355393	-0.899005
C54	C	1.058031	-0.338231	-0.946523
C55	C	0.991003	-0.321017	-0.848063
C56	C	1.073222	-0.402308	-0.851684
C57	C	1.006217	-0.385138	-0.900276
C58	C	1.057976	-0.338250	-0.716440
C59	C	1.058042	-0.338225	-1.030619
C60	C	1.057922	-0.338387	-0.180211
C61	C	1.058060	-0.338221	-0.097658
H62	H	0.510381	-0.369915	-0.249474
H63	H	0.599196	-0.456642	-0.344663
H64	H	1.181618	-0.369903	-0.921357
C65	C	0.510769	-0.202165	-0.405995
C66	C	0.467929	-0.207111	-0.470798
C67	C	0.444195	-0.140655	-0.486883
H68	H	0.552673	-0.171374	-0.412940
H69	H	0.481811	-0.184524	-0.366002
H70	H	0.496886	-0.224742	-0.510782
H71	H	0.426014	-0.237889	-0.463870
H72	H	0.415237	-0.123015	-0.446890
H73	H	0.486104	-0.109869	-0.493826
H74	H	0.415120	-0.144004	-0.530849
H75	H	0.953629	-0.738790	-0.477302
H76	H	0.962403	-0.424809	-0.923566
H77	H	0.508204	-0.425164	-0.468484
H78	H	0.606217	-0.306806	-0.496812
C79	C	0.915405	-0.301600	-0.818533
C80	C	0.868492	-0.289564	-0.877997
C81	C	0.798846	-0.271683	-0.850822
H82	H	0.920605	-0.260370	-0.787420
H83	H	0.894778	-0.338877	-0.790882
H84	H	0.889114	-0.252291	-0.905636
H85	H	0.863270	-0.330785	-0.909115
H86	H	0.778219	-0.308960	-0.823171
H87	H	0.804053	-0.230455	-0.819709
H88	H	0.767005	-0.263521	-0.891164
H89	H	1.029939	-0.219950	-0.914670
H90	H	0.959580	-0.605714	-0.471280
H91	H	1.086112	-0.456475	-0.832379
H92	H	0.608528	-0.251715	-0.277820
C93	C	1.145439	-0.595898	-0.285756
C94	C	1.184931	-0.643722	-0.246385
C95	C	1.234189	-0.607191	-0.197248
H96	H	1.118412	-0.567329	-0.252009
H97	H	1.179102	-0.567253	-0.312884
H98	H	1.151273	-0.672355	-0.219259
H99	H	1.211973	-0.672293	-0.280113
H100	H	1.267852	-0.578547	-0.224376
H101	H	1.207156	-0.578623	-0.163506
H102	H	1.260995	-0.639634	-0.170534
H103	H	1.162331	-0.937226	-0.269043
C104	C	1.138731	-0.748729	-0.292896
C105	C	1.184438	-0.790681	-0.336981
C106	C	1.230596	-0.827314	-0.291413
H107	H	1.109260	-0.777491	-0.261737
H108	H	1.168519	-0.716354	-0.263245
H109	H	1.154653	-0.823052	-0.366619
H110	H	1.213925	-0.761936	-0.368139
H111	H	1.260384	-0.794939	-0.261762
H112	H	1.201119	-0.856072	-0.260256
H113	H	1.261619	-0.855777	-0.321318
C114	C	1.168039	-0.238455	-0.815376
C115	C	1.167723	-0.239597	-0.737870
C116	C	1.221396	-0.190907	-0.708926
H117	H	1.157176	-0.192918	-0.830186
H118	H	1.215534	-0.250199	-0.833501
H119	H	1.120239	-0.227848	-0.719753
H120	H	1.178595	-0.285122	-0.723040
H121	H	1.268890	-0.202651	-0.727050
H122	H	1.210527	-0.145374	-0.723740
H123	H	1.221193	-0.191679	-0.656336
H124	H	0.983945	-1.070286	-0.447244
C125	C	1.168810	-1.080380	-0.262730
C126	C	1.155431	-1.152466	-0.276161
C127	C	1.201296	-1.189285	-0.230477
H128	H	1.158560	-1.068494	-0.212250
H129	H	1.219253	-1.068351	-0.273121
H130	H	1.105000	-1.164489	-0.265764
H131	H	1.165686	-1.164372	-0.326632
H132	H	1.251739	-1.177256	-0.240868
H133	H	1.191043	-1.177394	-0.179999
H134	H	1.192230	-1.238199	-0.239588
H135	H	0.989894	-0.937219	-0.441213
C136	C	0.982919	-0.860493	-0.448277
C137	C	1.023057	-0.902548	-0.497811
C138	C	0.974013	-0.939332	-0.546965
H139	H	0.956036	-0.828229	-0.475146
H140	H	0.949312	-0.889194	-0.421149
H141	H	1.056650	-0.873850	-0.524937
H142	H	1.049938	-0.934825	-0.470963
H143	H	0.940407	-0.968033	-0.519836
H144	H	0.947133	-0.907064	-0.573829
H145	H	1.001239	-0.967876	-0.580575
H146	H	1.119808	-0.825572	-0.311449
