data_functionalizedCrystal
_audit_creation_method	'MofGen! by Chris Wilmer'
_symmetry_space_group_name_H-M	'P1'
_symmetry_Int_Tables_number	1
_symmetry_cell_setting	triclinic
loop_
_symmetry_equiv_pos_as_xyz
  x,y,z
_cell_length_a	19.805405
_cell_length_b	16.959455
_cell_length_c	19.805399
_cell_angle_alpha	90.022224
_cell_angle_beta	89.970699
_cell_angle_gamma	89.975408
loop_
_atom_site_label
_atom_site_type_symbol
_atom_site_fract_x
_atom_site_fract_y
_atom_site_fract_z
Zn1	Zn	-0.269512	-1.208374	-0.382759
Zn2	Zn	0.230488	-0.708374	0.117241
Zn3	Zn	-0.382700	-1.208274	-0.269568
Zn4	Zn	0.117300	-0.708274	0.230432
Zn5	Zn	-0.269527	-1.076195	-0.269579
Zn6	Zn	0.230473	-0.576195	0.230421
Zn7	Zn	-0.382660	-1.076152	-0.382709
Zn8	Zn	0.117340	-0.576152	0.117291
O9	O	-0.326100	-1.142249	-0.326154
O10	O	0.173900	-0.642249	0.173846
O11	O	-0.284537	-1.318971	-0.367761
O12	O	0.215463	-0.818971	0.132239
O13	O	-0.367710	-1.190730	-0.174853
O14	O	0.132290	-0.690730	0.325147
O15	O	-0.174808	-1.093788	-0.284618
O16	O	0.325192	-0.593788	0.215382
O17	O	-0.367696	-1.318898	-0.284599
O18	O	0.132304	-0.818898	0.215401
O19	O	-0.174797	-1.190899	-0.367771
O20	O	0.325203	-0.690899	0.132229
O21	O	-0.284562	-1.093692	-0.174861
O22	O	0.215438	-0.593692	0.325139
O23	O	-0.284524	-0.965578	-0.284569
O24	O	0.215476	-0.465578	0.215431
O25	O	-0.367628	-1.093716	-0.477433
O26	O	0.132372	-0.593716	0.022567
O27	O	-0.367643	-0.965547	-0.367686
O28	O	0.132357	-0.465547	0.132314
O29	O	-0.284498	-1.190858	-0.477469
O30	O	0.215502	-0.690858	0.022531
O31	O	-0.477411	-1.190689	-0.284551
O32	O	0.022589	-0.690689	0.215449
O33	O	-0.477382	-1.093619	-0.367675
O34	O	0.022618	-0.593619	0.132325
C35	C	-0.326081	-0.936883	-0.326124
C36	C	0.173919	-0.436883	0.173876
C37	C	-0.326090	-0.849026	-0.326127
C38	C	0.173910	-0.349026	0.173873
C39	C	-0.501956	-1.142160	-0.326121
C40	C	-0.001956	-0.642160	0.173879
C41	C	-0.577188	-1.142194	-0.326130
C42	C	-0.077188	-0.642194	0.173870
C43	C	-0.282751	-0.807745	-0.282920
C44	C	0.217249	-0.307745	0.217080
C45	C	-0.369432	-0.807754	-0.369341
C46	C	0.130568	-0.307754	0.130659
C47	C	-0.369439	-0.725208	-0.369348
C48	C	0.130561	-0.225208	0.130652
C49	C	-0.326101	-0.683927	-0.326141
C50	C	0.173899	-0.183927	0.173859
C51	C	-0.282755	-0.725191	-0.282927
C52	C	0.217245	-0.225191	0.217073
C53	C	-0.412779	-0.683937	-0.412566
C54	C	0.087221	-0.183937	0.087434
C55	C	-0.412787	-0.601386	-0.412576
C56	C	0.087213	-0.101386	0.087424
C57	C	-0.369451	-0.560103	-0.369365
C58	C	0.130549	-0.060103	0.130635
C59	C	-0.326105	-0.601373	-0.326148
C60	C	0.173895	-0.101373	0.173852
C61	C	-0.282766	-0.560092	-0.282941
C62	C	0.217234	-0.060092	0.217059
C63	C	-0.239423	-0.601360	-0.239721
C64	C	0.260577	-0.101360	0.260279
C65	C	-0.239420	-0.683909	-0.239716
C66	C	0.260580	-0.183909	0.260284
C67	C	-0.369454	-0.477555	-0.369370
C68	C	0.130546	0.022445	0.130630
C69	C	-0.282770	-0.477538	-0.282949
C70	C	0.217230	0.022462	0.217051
C71	C	-0.612525	-1.192787	-0.282892
C72	C	-0.112525	-0.692787	0.217108
C73	C	-0.683213	-1.192821	-0.282907
C74	C	-0.183213	-0.692821	0.217093
C75	C	-0.718563	-1.142257	-0.326157
C76	C	-0.218563	-0.642257	0.173843
C77	C	-0.683222	-1.091661	-0.369399
C78	C	-0.183222	-0.591661	0.130601
C79	C	-0.612534	-1.091632	-0.369387
C80	C	-0.112534	-0.591632	0.130613
C81	C	-0.968295	-1.091778	-0.369449
C82	C	-0.468295	-0.591778	0.130551
C83	C	-1.038987	-1.091809	-0.369457
C84	C	-0.538987	-0.591809	0.130543
C85	C	-1.038973	-1.192966	-0.282969
C86	C	-0.538973	-0.692966	0.217031
C87	C	-0.968286	-1.192937	-0.282957
C88	C	-0.468286	-0.692937	0.217043
C89	C	-0.932951	-1.142345	-0.326202
C90	C	-0.432951	-0.642345	0.173798
C91	C	-0.856302	-1.142311	-0.326186
C92	C	-0.356302	-0.642311	0.173814
C93	C	-0.795210	-1.142287	-0.326170
C94	C	-0.295210	-0.642287	0.173830
C95	C	-0.149557	-1.142360	-0.326201
C96	C	0.350443	-0.642360	0.173799
C97	C	-0.074325	-1.142407	-0.326222
C98	C	0.425675	-0.642407	0.173778
C99	C	-0.326057	-1.142293	-0.502697
C100	C	0.173943	-0.642293	-0.002697
C101	C	-0.326039	-1.142312	-0.577929
C102	C	0.173961	-0.642312	-0.077929
C103	C	-0.326116	-0.348417	-0.326176
C104	C	0.173884	0.151583	0.173824
C105	C	-0.326116	-0.436274	-0.326163
C106	C	0.173884	0.063726	0.173837
C107	C	-0.282751	-1.192895	-0.613293
C108	C	0.217249	-0.692895	-0.113293
C109	C	-0.282731	-1.192903	-0.683982
C110	C	0.217269	-0.692903	-0.183982
C111	C	-0.326004	-1.142332	-0.719304
C112	C	0.173996	-0.642332	-0.219304
C113	C	-0.369293	-1.091743	-0.683935
C114	C	0.130707	-0.591743	-0.183935
C115	C	-0.369309	-1.091731	-0.613248
C116	C	0.130691	-0.591731	-0.113248
C117	C	-0.369230	-1.091787	-0.969008
C118	C	0.130770	-0.591787	-0.469008
C119	C	-0.369213	-1.091805	-1.039701
C120	C	0.130787	-0.591805	-0.539701
C121	C	-0.282653	-1.192960	-1.039742
C122	C	0.217347	-0.692960	-0.539742
C123	C	-0.282668	-1.192948	-0.969055
C124	C	0.217332	-0.692948	-0.469055
C125	C	-0.325955	-1.142357	-0.933692
C126	C	0.174045	-0.642357	-0.433692
C127	C	-0.325975	-1.142347	-0.857043
C128	C	0.174025	-0.642347	-0.357043
C129	C	-0.325988	-1.142344	-0.795951
C130	C	0.174012	-0.642344	-0.295951
C131	C	-0.326093	-1.142250	-0.150298
C132	C	0.173907	-0.642250	0.349702
C133	C	-0.325921	-1.142384	-0.075066
C134	C	0.174079	-0.642384	0.424934
H135	H	-0.247479	-0.443933	-0.247763
H136	H	0.252521	0.056067	0.252237
Cl137	Cl	-0.467269	-0.735836	-0.466867
Cl138	Cl	0.032731	-0.235836	0.033133
H139	H	-0.712009	-1.050495	-0.404617
H140	H	-0.212009	-0.550495	0.095383
Cl141	Cl	-0.923850	-1.256507	-0.228584
Cl142	Cl	-0.423850	-0.756507	0.271416
H143	H	-0.404487	-1.050604	-0.940224
H144	H	0.095513	-0.550604	-0.440224
Cl145	Cl	-0.228352	-1.256479	-0.568894
Cl146	Cl	0.271648	-0.756479	-0.068894
H147	H	-0.404739	-0.443958	-0.404563
H148	H	0.095261	0.056042	0.095437
Cl149	Cl	-0.228269	-1.256529	-0.924653
Cl150	Cl	0.271731	-0.756529	-0.424653
Cl151	Cl	-0.423616	-1.028223	-1.084105
Cl152	Cl	0.076384	-0.528223	-0.584105
H153	H	-0.404552	-1.050533	-0.584455
H154	H	0.095448	-0.550533	-0.084455
H155	H	-1.067752	-1.234164	-0.247760
H156	H	-0.567752	-0.734164	0.252240
H157	H	-0.939530	-1.050583	-0.404659
H158	H	-0.439530	-0.550583	0.095341
Cl159	Cl	-0.568091	-1.256353	-0.228513
Cl160	Cl	-0.068091	-0.756353	0.271487
Cl161	Cl	-0.228267	-0.859622	-0.228587
Cl162	Cl	0.271733	-0.359622	0.271413
H163	H	-0.448080	-0.567792	-0.447767
H164	H	0.051920	-0.067792	0.052233
H165	H	-1.067767	-1.050635	-0.404681
H166	H	-0.567767	-0.550635	0.095319
H167	H	-0.404524	-1.050564	-0.712700
H168	H	0.095476	-0.550564	-0.212700
H169	H	-0.204133	-0.567738	-0.204545
H170	H	0.295867	-0.067738	0.295455
H171	H	-0.404713	-0.841370	-0.404521
H172	H	0.095287	-0.341370	0.095479
Cl173	Cl	-0.568111	-1.028029	-0.423748
Cl174	Cl	-0.068111	-0.528029	0.076252
H175	H	-0.247404	-1.234151	-1.068543
H176	H	0.252596	-0.734151	-0.568543
Cl177	Cl	-0.184932	-0.735793	-0.185392
Cl178	Cl	0.315068	-0.235793	0.314608
H179	H	-0.247484	-1.234095	-0.712772
H180	H	0.252516	-0.734095	-0.212772
Cl181	Cl	-0.727634	-1.256429	-0.228551
Cl182	Cl	-0.227634	-0.756429	0.271449
