data_functionalizedCrystal
_audit_creation_method	'MofGen! by Chris Wilmer'
_symmetry_space_group_name_H-M	'P1'
_symmetry_Int_Tables_number	1
_symmetry_cell_setting	triclinic
loop_
_symmetry_equiv_pos_as_xyz
  x,y,z
_cell_length_a	13.185408
_cell_length_b	15.944493
_cell_length_c	11.804365
_cell_angle_alpha	101.834508
_cell_angle_beta	82.233045
_cell_angle_gamma	67.724272
loop_
_atom_site_label
_atom_site_type_symbol
_atom_site_fract_x
_atom_site_fract_y
_atom_site_fract_z
O1	O	1.469033	-0.240768	-0.098966
O2	O	1.151521	-0.155623	-0.098976
O3	O	1.318983	-0.322444	-0.098981
O4	O	1.301571	-0.073947	-0.098961
O5	O	1.274896	-0.278560	0.099076
O6	O	1.107435	-0.111739	0.099081
O7	O	1.424947	-0.196885	0.099091
Cu8	Cu	1.262165	-0.150305	0.117170
Cu9	Cu	1.314302	-0.202202	-0.117055
O10	O	1.257485	-0.030064	0.099096
C11	C	1.088848	-0.125049	0.000050
C12	C	0.967784	-0.099339	0.000045
C13	C	1.296229	-0.331637	0.000043
C14	C	1.294099	-0.424407	0.000027
C15	C	0.897895	-0.007794	0.000050
C16	C	0.784145	0.016369	0.000063
C17	C	0.740274	-0.051014	0.000061
C18	C	0.810166	-0.142563	0.000048
C19	C	0.923925	-0.166726	0.000045
C20	C	0.766304	-0.209947	0.000056
C21	C	0.836196	-0.301496	0.000043
C22	C	0.949944	-0.325655	0.000039
C23	C	0.993814	-0.258272	0.000040
C24	C	0.652545	-0.185784	0.000059
C25	C	0.678575	-0.344716	0.000054
C26	C	0.792325	-0.368879	0.000042
C27	C	1.392665	-0.682448	0.000053
C28	C	1.361246	-0.742635	-0.097600
C29	C	1.290144	-0.594231	0.000042
C30	C	1.317757	-0.699340	0.097668
C31	C	1.286330	-0.758275	0.000061
C32	C	1.258771	-0.653213	-0.097692
C33	C	1.215277	-0.609899	0.097664
C34	C	1.183788	-0.670041	-0.000013
C35	C	1.292345	-0.499731	0.000030
C36	C	1.284123	-0.852772	0.000065
C37	C	1.487620	-0.227459	0.000062
C38	C	1.608686	-0.253171	0.000059
C39	C	1.280239	-0.020871	0.000070
C40	C	1.282370	0.071897	0.000077
N41	N	1.225503	-0.113806	0.281912
N42	N	1.350973	-0.238710	-0.281797
C43	C	1.439013	-0.326375	0.655855
C44	C	1.466747	-0.353990	0.531193
C45	C	1.406438	-0.293946	0.468866
C46	C	1.318391	-0.206283	0.531214
C47	C	1.290660	-0.178662	0.655889
C48	C	1.258085	-0.146233	0.468900
C49	C	1.170038	-0.058570	0.531249
C50	C	1.142311	-0.030954	0.655911
C51	C	1.202620	-0.090997	0.718237
C52	C	1.285816	-0.173854	0.344226
C53	C	1.137463	-0.026141	0.344260
C54	C	1.109729	0.001474	0.468922
H55	H	0.647653	-0.031335	0.000073
H56	H	1.180037	-0.068516	0.819748
H57	H	1.070627	0.040431	0.706675
H58	H	1.357504	-0.245230	0.293473
H59	H	1.038039	0.072851	0.519702
C60	C	1.071114	0.039913	0.275714
C61	C	0.943116	0.070323	0.292874
C62	C	0.876776	0.136372	0.224319
C63	C	0.938435	0.172011	0.138603
C64	C	1.066439	0.141602	0.121438
C65	C	1.132779	0.075553	0.189993
H66	H	0.897467	0.043940	0.356330
H67	H	0.782019	0.158883	0.237026
H68	H	0.889326	0.220905	0.087854
H69	H	1.112089	0.167984	0.057982
H70	H	1.227537	0.053042	0.177286
C71	C	1.064415	-0.663966	-0.000088
C72	C	1.045551	-0.729389	-0.102467
C73	C	0.926182	-0.723319	-0.102550
C74	C	0.825676	-0.651827	-0.000253
C75	C	0.844537	-0.586399	0.102135
C76	C	0.963906	-0.592468	0.102217
H77	H	1.119955	-0.782317	-0.178201
H78	H	0.912221	-0.771754	-0.178344
H79	H	0.737312	-0.647333	-0.000314
H80	H	0.770134	-0.533471	0.177868
H81	H	0.977867	-0.544034	0.178012
C82	C	0.575675	-0.085087	0.000065
C83	C	0.603473	-0.045644	-0.102782
C84	C	0.526603	0.055058	-0.102780
C85	C	0.421936	0.116318	0.000068
C86	C	0.394133	0.076876	0.102922
C87	C	0.471003	-0.023827	0.102920
H88	H	0.680958	-0.090993	-0.178923
H89	H	0.547185	0.084256	-0.178920
H90	H	0.365033	0.190864	0.000070
H91	H	0.316648	0.122224	0.179064
H92	H	0.450421	-0.053024	0.179060
C93	C	1.225176	-0.625814	-0.209352
C94	C	1.195693	-0.691808	-0.300342
C95	C	1.162102	-0.664408	-0.412001
C96	C	1.157995	-0.571014	-0.432670
C97	C	1.187479	-0.505014	-0.341677
C98	C	1.221070	-0.532414	-0.230019
H99	H	1.198733	-0.760949	-0.285045
H100	H	1.140276	-0.713266	-0.479360
H101	H	1.133129	-0.550731	-0.515327
H102	H	1.184439	-0.435873	-0.356975
H103	H	1.242896	-0.483556	-0.162660
H104	H	1.488115	-0.375251	0.706609
H105	H	0.727247	0.090908	0.000073
H106	H	0.933624	0.047061	0.000060
C107	C	0.630333	-0.418847	0.000050
C108	C	0.532818	-0.401300	0.102895
C109	C	0.484567	-0.475424	0.102895
C110	C	0.533831	-0.567094	0.000050
C111	C	0.631352	-0.584645	-0.102802
C112	C	0.679603	-0.510521	-0.102803
H113	H	0.496345	-0.333437	0.179034
H114	H	0.412376	-0.462431	0.179034
H115	H	0.498113	-0.621964	0.000050
H116	H	0.667825	-0.652508	-0.178941
H117	H	0.751794	-0.523514	-0.178941
C118	C	1.563587	-0.450415	0.462608
C119	C	1.629929	-0.516469	0.531149
C120	C	1.726773	-0.612900	0.462560
C121	C	1.757274	-0.643276	0.325430
C122	C	1.690931	-0.577220	0.256882
C123	C	1.594087	-0.480790	0.325471
H124	H	1.607351	-0.493984	0.632667
H125	H	1.775884	-0.661799	0.513305
H126	H	1.828964	-0.714660	0.274657
H127	H	1.713509	-0.599706	0.155364
H128	H	1.544976	-0.431891	0.274726
C129	C	1.444556	-0.819677	-0.209130
C130	C	1.571101	-0.842197	-0.230584
C131	C	1.654416	-0.919236	-0.342111
C132	C	1.611187	-0.973755	-0.432183
C133	C	1.484636	-0.951237	-0.410732
C134	C	1.401320	-0.874198	-0.299206
H135	H	1.603107	-0.801838	-0.163905
H136	H	1.748098	-0.935905	-0.357990
H137	H	1.672862	-1.030784	-0.514742
H138	H	1.452629	-0.991596	-0.477411
H139	H	1.307639	-0.857528	-0.283326
H140	H	1.153640	-0.552864	0.180224
H141	H	1.086437	-0.277939	0.000034
H142	H	1.006844	-0.400197	0.000043
C143	C	1.351439	-0.726935	0.209201
C144	C	1.281849	-0.662278	0.334069
C145	C	1.315541	-0.689875	0.445595
C146	C	1.418823	-0.782130	0.432253
C147	C	1.488419	-0.846793	0.307379
C148	C	1.454727	-0.819196	0.195854
H149	H	1.205388	-0.593980	0.343951
H150	H	1.264021	-0.642006	0.538034
H151	H	1.443763	-0.802559	0.514810
H152	H	1.564880	-0.915091	0.297498
H153	H	1.506247	-0.867064	0.103414
H154	H	0.849246	-0.443419	0.000031
H155	H	1.480997	-0.686808	-0.000042
H156	H	1.429023	-0.316435	0.367360
