data_functionalizedCrystal
_audit_creation_method	'MofGen! by Chris Wilmer'
_symmetry_space_group_name_H-M	'P1'
_symmetry_Int_Tables_number	1
_symmetry_cell_setting	triclinic
loop_
_symmetry_equiv_pos_as_xyz
  x,y,z
_cell_length_a	11.169417
_cell_length_b	13.031981
_cell_length_c	11.169409
_cell_angle_alpha	82.780373
_cell_angle_beta	89.979436
_cell_angle_gamma	97.192872
loop_
_atom_site_label
_atom_site_type_symbol
_atom_site_fract_x
_atom_site_fract_y
_atom_site_fract_z
Zn1	Zn	1.774268	-0.416012	-0.617790
Zn2	Zn	1.748645	-0.590836	-0.391577
Zn3	Zn	1.573542	-0.416075	-0.417115
Zn4	Zn	1.548064	-0.590751	-0.592234
O5	O	1.661130	-0.503418	-0.504679
O6	O	1.938817	-0.439211	-0.587790
O7	O	1.725357	-0.567715	-0.227006
O8	O	1.621555	-0.269800	-0.465119
O9	O	1.919992	-0.567654	-0.421592
O10	O	1.769027	-0.269753	-0.612554
O11	O	1.596709	-0.439320	-0.245769
O12	O	1.402214	-0.439237	-0.440338
O13	O	1.578131	-0.567509	-0.763583
O14	O	1.383495	-0.567571	-0.568997
O15	O	1.744322	-0.439129	-0.782359
O16	O	1.700652	-0.737091	-0.396811
O17	O	1.553286	-0.737029	-0.544233
C18	C	1.349307	-0.503402	-0.504666
C19	C	1.215905	-0.503421	-0.504685
C20	C	1.621456	-0.774985	-0.465004
C21	C	1.604593	-0.891163	-0.448070
C22	C	1.669994	-0.942852	-0.513541
C23	C	1.652567	-1.062927	-0.496041
C24	C	1.974170	-0.503435	-0.504693
C25	C	2.107569	-0.503442	-0.504699
C26	C	1.661243	-0.503303	-0.817739
C27	C	1.661291	-0.503253	-0.951146
C28	C	1.700991	-0.230791	-0.544536
C29	C	1.717978	-0.114614	-0.561520
C30	C	1.661097	-0.503458	-0.192849
C31	C	1.661324	-0.503213	-0.059485
H32	H	1.738884	-0.898212	-0.582553
H33	H	1.786872	-1.069976	-0.630537
O34	O	1.570292	-1.116285	-0.413860
C35	C	1.483621	-1.179421	-0.472991
H36	H	1.523578	-1.195572	-0.561644
H37	H	1.400720	-1.137467	-0.492172
C38	C	1.397882	-1.263408	-0.283032
C39	C	1.446961	-1.283251	-0.391913
H40	H	1.375263	-1.327453	-0.233018
H41	H	1.456270	-1.220869	-0.243194
H42	H	1.328804	-1.228443	-0.299032
H43	H	1.516046	-1.318203	-0.375913
H44	H	1.388583	-1.325799	-0.431747
O45	O	1.522322	-0.944524	-0.365895
C46	C	1.435652	-1.007661	-0.425026
H47	H	1.475608	-1.023811	-0.513679
H48	H	1.352751	-0.965707	-0.444206
C49	C	1.349913	-1.091647	-0.235067
C50	C	1.398992	-1.111491	-0.343947
H51	H	1.327294	-1.155693	-0.185053
H52	H	1.408301	-1.049108	-0.195228
H53	H	1.280835	-1.056683	-0.251067
H54	H	1.468077	-1.146442	-0.327947
H55	H	1.340614	-1.154038	-0.383781
