data_functionalizedCrystal
_audit_creation_method	'MofGen! by Chris Wilmer'
_symmetry_space_group_name_H-M	'P1'
_symmetry_Int_Tables_number	1
_symmetry_cell_setting	triclinic
loop_
_symmetry_equiv_pos_as_xyz
  x,y,z
_cell_length_a	12.645330
_cell_length_b	12.645331
_cell_length_c	18.215399
_cell_angle_alpha	90.023586
_cell_angle_beta	89.976970
_cell_angle_gamma	89.988054
loop_
_atom_site_label
_atom_site_type_symbol
_atom_site_fract_x
_atom_site_fract_y
_atom_site_fract_z
Zn1	Zn	-0.422213	-1.620702	-0.416215
Zn2	Zn	0.077787	-1.120702	0.083785
Zn3	Zn	-0.599495	-1.620592	-0.293159
Zn4	Zn	-0.099495	-1.120592	0.206841
Zn5	Zn	-0.422228	-1.443425	-0.293154
Zn6	Zn	0.077772	-0.943425	0.206846
Zn7	Zn	-0.599417	-1.443398	-0.416176
Zn8	Zn	-0.099417	-0.943398	0.083824
O9	O	-0.510838	-1.532029	-0.354676
O10	O	-0.010838	-1.032029	0.145324
O11	O	-0.445756	-1.769035	-0.399909
O12	O	0.054244	-1.269035	0.100091
O13	O	-0.576019	-1.597056	-0.190174
O14	O	-0.076019	-1.097056	0.309826
O15	O	-0.273879	-1.466999	-0.309492
O16	O	0.226121	-0.966999	0.190508
O17	O	-0.576004	-1.768954	-0.309501
O18	O	-0.076004	-1.268954	0.190499
O19	O	-0.273867	-1.597243	-0.399905
O20	O	0.226133	-1.097243	0.100095
O21	O	-0.445782	-1.466892	-0.190170
O22	O	0.054218	-0.966892	0.309830
O23	O	-0.445706	-1.295074	-0.309455
O24	O	0.054294	-0.795074	0.190545
O25	O	-0.575871	-1.466953	-0.519165
O26	O	-0.075871	-0.966953	-0.019165
O27	O	-0.575886	-1.295055	-0.399838
O28	O	-0.075886	-0.795055	0.100162
O29	O	-0.445680	-1.597217	-0.519194
O30	O	0.054320	-1.097217	-0.019194
O31	O	-0.747832	-1.597030	-0.309463
O32	O	-0.247832	-1.097030	0.190537
O33	O	-0.747774	-1.466846	-0.399843
O34	O	-0.247774	-0.966846	0.100157
C35	C	-0.510790	-1.256600	-0.354642
C36	C	-0.010790	-0.756600	0.145358
C37	C	-0.510795	-1.138770	-0.354645
C38	C	-0.010795	-0.638770	0.145355
C39	C	-0.428509	-0.971183	-0.298091
C40	C	0.071491	-0.471183	0.201909
C41	C	-0.428732	-1.093742	-0.297847
C42	C	0.071268	-0.593742	0.202153
C43	C	-0.622465	-1.094251	-0.333460
C44	C	-0.122465	-0.594251	0.166540
C45	C	-0.622005	-0.971652	-0.333068
C46	C	-0.122005	-0.471652	0.166932
C47	C	-0.482444	-0.971615	-0.432587
C48	C	0.017556	-0.471615	0.067413
C49	C	-0.479959	-1.094221	-0.432159
C50	C	0.020041	-0.594221	0.067841
C51	C	-0.786268	-1.531952	-0.354666
C52	C	-0.286268	-1.031952	0.145334
C53	C	-0.904098	-1.532016	-0.354686
C54	C	-0.404098	-1.032016	0.145314
C55	C	-1.071670	-1.450455	-0.411719
C56	C	-0.571670	-0.950455	0.088281
C57	C	-0.949110	-1.450038	-0.411536
C58	C	-0.449110	-0.950038	0.088464
C59	C	-0.948685	-1.501776	-0.277126
C60	C	-0.448685	-1.001776	0.222874
C61	C	-1.071284	-1.501278	-0.277472
C62	C	-0.571284	-1.001278	0.222528
C63	C	-1.071199	-1.644316	-0.374583
C64	C	-0.571199	-1.144316	0.125417
C65	C	-0.948593	-1.643627	-0.376279
C66	C	-0.448593	-1.143627	0.123721
C67	C	-0.234333	-1.532136	-0.354702
C68	C	0.265667	-1.032136	0.145298
C69	C	-0.116503	-1.532181	-0.354714
C70	C	0.383497	-1.032181	0.145286
C71	C	-0.510765	-1.532094	-0.546629
C72	C	-0.010765	-1.032094	-0.046629
C73	C	-0.510734	-1.532122	-0.628428
C74	C	-0.010734	-1.032122	-0.128428
C75	C	-0.510866	-0.808535	-0.354699
C76	C	-0.010866	-0.308535	0.145301
C77	C	-0.510825	-0.926365	-0.354680
C78	C	-0.010825	-0.426365	0.145320
C79	C	-0.442880	-1.599975	-0.816638
C80	C	0.057120	-1.099975	-0.316638
C81	C	-0.442849	-1.599987	-0.893497
C82	C	0.057151	-1.099987	-0.393497
C83	C	-0.578424	-1.464344	-0.893456
C84	C	-0.078424	-0.964344	-0.393456
C85	C	-0.578449	-1.464326	-0.816598
C86	C	-0.078449	-0.964326	-0.316598
C87	C	-0.510678	-1.532148	-0.778191
C88	C	-0.010678	-1.032148	-0.278191
C89	C	-0.510623	-1.532178	-0.931908
C90	C	-0.010623	-1.032178	-0.431908
C91	C	-0.510590	-1.532191	-1.015241
C92	C	-0.010590	-1.032191	-0.515241
C93	C	-0.510710	-1.532134	-0.694852
C94	C	-0.010710	-1.032134	-0.194852
C95	C	-0.510834	-1.532026	-0.163470
C96	C	-0.010834	-1.032026	0.336530
C97	C	-0.510567	-1.532204	-0.081671
C98	C	-0.010567	-1.032204	0.418329
H99	H	-0.447059	-0.940339	-0.240699
H100	H	0.052941	-0.440339	0.259301
H101	H	-0.447495	-1.123024	-0.240118
H102	H	0.052505	-0.623024	0.259882
H103	H	-0.542400	-0.942633	-0.474750
H104	H	-0.042400	-0.442633	0.025250
Br105	Br	-0.662121	-0.923908	-0.238142
Br106	Br	-0.162121	-0.423908	0.261858
Br107	Br	-0.727692	-0.922231	-0.398764
Br108	Br	-0.227692	-0.422231	0.101236
Br109	Br	-0.663285	-1.145346	-0.239556
Br110	Br	-0.163285	-0.645346	0.260444
H111	H	-0.387639	-1.655217	-0.924796
H112	H	0.112361	-1.155217	-0.424796
Br113	Br	-0.290060	-0.922076	-0.319979
Br114	Br	0.209940	-0.422076	0.180021
Br115	Br	-0.349082	-0.920121	-0.464695
Br116	Br	0.150918	-0.420121	0.035305
H117	H	-0.633657	-1.409086	-0.785294
H118	H	-0.133657	-0.909086	-0.285294
Br119	Br	-0.350905	-1.692015	-0.764516
Br120	Br	0.149095	-1.192015	-0.264516
H121	H	-0.685441	-1.123418	-0.373385
H122	H	-0.185441	-0.623418	0.126615
H123	H	-0.345924	-1.123842	-0.311127
H124	H	0.154076	-0.623842	0.188873
H125	H	-0.397783	-1.123324	-0.448134
H126	H	0.102217	-0.623324	0.051866
H127	H	-1.100945	-1.558221	-0.233550
H128	H	-0.600945	-1.058221	0.266450
H129	H	-0.535547	-1.124875	-0.476580
H130	H	-0.035547	-0.624875	0.023420
H131	H	-0.919531	-1.559415	-0.233491
H132	H	-0.419531	-1.059415	0.266509
H133	H	-0.918961	-1.468957	-0.469046
H134	H	-0.418961	-0.968957	0.030954
Br135	Br	-0.670397	-1.372308	-0.945584
Br136	Br	-0.170397	-0.872308	-0.445584
Br137	Br	-1.122616	-1.690296	-0.467247
Br138	Br	-0.622616	-1.190296	0.032753
Br139	Br	-1.119542	-1.745806	-0.305394
Br140	Br	-0.619542	-1.245806	0.194606
Br141	Br	-1.120700	-1.481691	-0.507892
Br142	Br	-0.620700	-0.981691	-0.007892
Br143	Br	-1.123185	-1.312766	-0.390078
Br144	Br	-0.623185	-0.812766	0.109922
Br145	Br	-0.897658	-1.366575	-0.248562
Br146	Br	-0.397658	-0.866575	0.251438
Br147	Br	-0.900359	-1.311478	-0.389600
Br148	Br	-0.400359	-0.811478	0.110400
H149	H	-0.919447	-1.666432	-0.433359
H150	H	-0.419447	-1.166432	0.066641
Br151	Br	-1.119096	-1.364656	-0.249417
Br152	Br	-0.619096	-0.864656	0.250583
Br153	Br	-0.897506	-1.750468	-0.312124
Br154	Br	-0.397506	-1.250468	0.187876
