data_functionalizedCrystal
_audit_creation_method	'MofGen! by Chris Wilmer'
_symmetry_space_group_name_H-M	'P1'
_symmetry_Int_Tables_number	1
_symmetry_cell_setting	triclinic
loop_
_symmetry_equiv_pos_as_xyz
  x,y,z
_cell_length_a	19.188925
_cell_length_b	19.188930
_cell_length_c	9.798715
_cell_angle_alpha	89.991738
_cell_angle_beta	89.995370
_cell_angle_gamma	83.143665
loop_
_atom_site_label
_atom_site_type_symbol
_atom_site_fract_x
_atom_site_fract_y
_atom_site_fract_z
O1	O	0.926147	0.087148	-0.113536
O2	O	1.426147	0.587148	0.386464
O3	O	0.722835	0.098886	-0.113534
O4	O	1.222835	0.598886	0.386466
O5	O	0.830358	-0.008639	-0.113508
O6	O	1.330358	0.491361	0.386492
O7	O	0.818624	0.194673	-0.113561
O8	O	1.318624	0.694673	0.386439
O9	O	0.830350	-0.008639	0.113474
O10	O	1.330350	0.491361	0.613474
O11	O	0.722827	0.098886	0.113448
O12	O	1.222827	0.598886	0.613448
O13	O	0.926139	0.087148	0.113447
O14	O	1.426139	0.587148	0.613447
Zn15	Zn	0.824481	0.093017	0.149486
Zn16	Zn	1.324481	0.593017	0.649486
Zn17	Zn	0.824492	0.093017	-0.149573
Zn18	Zn	1.324492	0.593017	0.350427
O19	O	0.818616	0.194673	0.113421
O20	O	1.318616	0.694673	0.613421
C21	C	0.696820	0.098507	-0.000042
C22	C	1.196820	0.598507	0.499958
C23	C	0.619315	0.097367	-0.000040
C24	C	1.119315	0.597367	0.499960
C25	C	0.057545	0.152831	-0.000058
C26	C	0.557545	0.652831	0.499942
C27	C	0.130368	0.153908	-0.000066
C28	C	0.630368	0.653908	0.499934
C29	C	0.175302	0.090816	-0.000047
C30	C	0.675302	0.590816	0.499953
C31	C	0.147408	0.026642	-0.000055
C32	C	0.647408	0.526642	0.499945
C33	C	0.074586	0.025568	-0.000061
C34	C	0.574586	0.525568	0.499939
N35	N	0.295977	0.045140	0.077231
N36	N	0.795977	0.545140	0.577231
N37	N	0.365154	0.046165	0.077240
N38	N	0.865154	0.546165	0.577240
C39	C	0.394712	0.094050	-0.000032
C40	C	0.894712	0.594050	0.499968
N41	N	0.352477	0.140882	-0.077295
N42	N	0.852477	0.640882	0.422705
N43	N	0.283293	0.139858	-0.077298
N44	N	0.783293	0.639858	0.422702
C45	C	0.254267	0.091974	-0.000041
C46	C	0.754267	0.591974	0.499959
C47	C	0.501561	0.159386	-0.000041
C48	C	1.001561	0.659386	0.499959
C49	C	0.574385	0.160460	-0.000057
C50	C	1.074385	0.660460	0.499943
C51	C	0.591425	0.033193	-0.000033
C52	C	1.091425	0.533193	0.499967
C53	C	0.518601	0.032121	-0.000031
C54	C	1.018601	0.532121	0.499969
C55	C	0.473673	0.095220	-0.000028
C56	C	0.973673	0.595220	0.499972
C57	C	0.829974	-0.034650	-0.000013
C58	C	1.329974	0.465350	0.499987
C59	C	0.828833	-0.112154	-0.000001
C60	C	1.328833	0.387846	0.499999
C61	C	0.891924	-0.157079	0.000005
C62	C	1.391924	0.342921	0.500005
C63	C	0.890852	-0.229903	-0.000017
C64	C	1.390852	0.270097	0.499983
C65	C	0.826686	-0.257799	-0.000018
C66	C	1.326686	0.242201	0.499982
C67	C	0.763587	-0.212864	-0.000031
C68	C	1.263587	0.287136	0.499969
C69	C	0.764660	-0.140041	-0.000023
C70	C	1.264660	0.359959	0.499977
N71	N	0.777636	-0.365803	0.077229
N72	N	1.277636	0.134197	0.577229
N73	N	0.776621	-0.434981	0.077224
N74	N	1.276621	0.065019	0.577224
C75	C	0.823448	-0.477207	-0.000045
C76	C	1.323448	0.022793	0.499955
N77	N	0.871340	-0.447643	-0.077293
N78	N	1.371340	0.052357	0.422707
N79	N	0.872357	-0.378458	-0.077282
N80	N	1.372357	0.121542	0.422718
C81	C	0.825515	-0.336761	-0.000027
C82	C	1.325515	0.163239	0.499973
C83	C	0.885381	-0.601097	-0.000065
C84	C	1.385381	-0.101097	0.499935
C85	C	0.884307	-0.673922	-0.000095
C86	C	1.384307	-0.173922	0.499905
C87	C	0.757040	-0.656880	-0.000096
C88	C	1.257040	-0.156880	0.499904
C89	C	0.758116	-0.584057	-0.000079
C90	C	1.258116	-0.084057	0.499921
C91	C	0.822289	-0.556170	-0.000057
C92	C	1.322289	-0.056170	0.499943
C93	C	0.952154	0.087527	-0.000048
C94	C	1.452154	0.587527	0.499952
C95	C	1.029658	0.088666	-0.000059
C96	C	1.529658	0.588666	0.499941
C97	C	0.819000	0.220684	-0.000077
C98	C	1.319000	0.720684	0.499923
C99	C	0.820140	0.298188	-0.000098
C100	C	1.320140	0.798188	0.499902
N101	N	0.824479	0.093016	0.353585
N102	N	1.324479	0.593016	0.853585
N103	N	0.824500	0.093012	-0.353673
N104	N	1.324500	0.593012	0.146327
C105	C	0.869628	0.047673	0.421373
C106	C	1.369628	0.547673	0.921373
C107	C	0.869639	0.047670	0.578536
C108	C	1.369639	0.547670	1.078536
H109	H	0.495896	-0.020129	-0.000023
H110	H	0.995896	0.479871	0.499977
F111	F	0.604063	0.228757	-0.000070
F112	F	1.104063	0.728757	0.499930
H113	H	0.464978	0.210765	-0.000042
H114	H	0.964978	0.710765	0.499958
H115	H	0.183999	-0.024728	-0.000044
H116	H	0.683999	0.475272	0.499956
H117	H	0.051883	-0.026685	-0.000062
H118	H	0.551883	0.473315	0.499938
H119	H	0.944179	-0.134379	0.000018
H120	H	1.444179	0.365621	0.500018
F121	F	0.639242	-0.033955	-0.000030
F122	F	1.139242	0.466045	0.499970
F123	F	0.009733	0.219987	-0.000069
F124	F	0.509733	0.719987	0.499931
H125	H	0.908271	0.008851	0.363060
H126	H	1.408271	0.508851	0.863060
F127	F	0.695297	-0.242553	-0.000041
F128	F	1.195297	0.257447	0.499959
F129	F	0.920167	-0.003069	0.654728
F130	F	1.420167	0.496931	1.154728
H131	H	0.942230	-0.266488	-0.000018
H132	H	1.442230	0.233512	0.499982
H133	H	0.785847	0.131837	0.588041
H134	H	1.285847	0.631837	1.088041
H135	H	0.713282	-0.103462	-0.000028
H136	H	1.213282	0.396538	0.499972
F137	F	0.953679	-0.571415	-0.000035
F138	F	1.453679	-0.071415	0.499965
H139	H	0.785832	0.131832	0.411901
H140	H	1.285832	0.631832	0.911901
H141	H	0.935686	-0.710500	-0.000098
H142	H	1.435686	-0.210500	0.499902
H143	H	0.153078	0.206160	-0.000052
H144	H	0.653078	0.706160	0.499948
F145	F	0.688749	-0.686564	-0.000103
F146	F	1.188749	-0.186564	0.499897
H147	H	0.706740	-0.547478	-0.000076
H148	H	1.206740	-0.047478	0.499924
