data_functionalizedCrystal
_audit_creation_method	'MofGen! by Chris Wilmer'
_symmetry_space_group_name_H-M	'P1'
_symmetry_Int_Tables_number	1
_symmetry_cell_setting	triclinic
loop_
_symmetry_equiv_pos_as_xyz
  x,y,z
_cell_length_a	19.805407
_cell_length_b	12.645330
_cell_length_c	19.805399
_cell_angle_alpha	89.976872
_cell_angle_beta	89.983114
_cell_angle_gamma	90.017692
loop_
_atom_site_label
_atom_site_type_symbol
_atom_site_fract_x
_atom_site_fract_y
_atom_site_fract_z
Zn1	Zn	1.034759	-0.422049	-0.382747
Zn2	Zn	1.534759	0.077951	0.117253
Zn3	Zn	1.034696	-0.599332	-0.269571
Zn4	Zn	1.534696	-0.099332	0.230429
Zn5	Zn	0.921579	-0.422083	-0.269572
Zn6	Zn	1.421579	0.077917	0.230428
Zn7	Zn	0.921554	-0.599271	-0.382717
Zn8	Zn	1.421554	-0.099271	0.117283
O9	O	0.978147	-0.510684	-0.326152
O10	O	1.478147	-0.010684	0.173848
O11	O	1.129467	-0.445577	-0.367746
O12	O	1.629467	0.054423	0.132254
O13	O	1.019675	-0.575859	-0.174854
O14	O	1.519675	-0.075859	0.325146
O15	O	0.936629	-0.273731	-0.284598
O16	O	1.436629	0.226269	0.215402
O17	O	1.129421	-0.575826	-0.284596
O18	O	1.629421	-0.075826	0.215404
O19	O	1.019782	-0.273706	-0.367747
O20	O	1.519782	0.226294	0.132253
O21	O	0.936568	-0.445635	-0.174855
O22	O	1.436568	0.054365	0.325145
O23	O	0.826859	-0.445576	-0.284569
O24	O	1.326859	0.054424	0.215431
O25	O	0.936587	-0.575723	-0.477438
O26	O	1.436587	-0.075723	0.022562
O27	O	0.826841	-0.575755	-0.367696
O28	O	1.326841	-0.075755	0.132304
O29	O	1.019758	-0.445519	-0.477460
O30	O	1.519758	0.054481	0.022540
O31	O	1.019651	-0.747671	-0.284567
O32	O	1.519651	-0.247671	0.215433
O33	O	0.936526	-0.747626	-0.367695
O34	O	1.436526	-0.247626	0.132305
C35	C	0.802291	-0.510663	-0.326130
C36	C	1.302291	-0.010663	0.173870
C37	C	0.727059	-0.510680	-0.326137
C38	C	1.227059	-0.010680	0.173863
C39	C	0.691723	-0.578567	-0.369351
C40	C	1.191723	-0.078567	0.130649
C41	C	0.621035	-0.578569	-0.369361
C42	C	1.121035	-0.078569	0.130639
C43	C	0.585683	-0.510689	-0.326152
C44	C	1.085683	-0.010689	0.173848
C45	C	0.621024	-0.442795	-0.282935
C46	C	1.121024	0.057205	0.217065
C47	C	0.691711	-0.442788	-0.282930
C48	C	1.191711	0.057212	0.217070
C49	C	0.335951	-0.442818	-0.282958
C50	C	0.835951	0.057182	0.217042
C51	C	0.265259	-0.442832	-0.282965
C52	C	0.765259	0.057168	0.217035
C53	C	0.265274	-0.578598	-0.369388
C54	C	0.765274	-0.078598	0.130612
C55	C	0.335961	-0.578592	-0.369383
C56	C	0.835961	-0.078592	0.130617
C57	C	0.371296	-0.510695	-0.326169
C58	C	0.871296	-0.010695	0.173831
C59	C	0.447944	-0.510692	-0.326160
C60	C	0.947944	-0.010692	0.173840
C61	C	0.509036	-0.510696	-0.326157
C62	C	1.009036	-0.010696	0.173843
C63	C	0.978098	-0.786113	-0.326142
C64	C	1.478098	-0.286113	0.173858
C65	C	0.978138	-0.903943	-0.326161
C66	C	1.478138	-0.403943	0.173839
C67	C	0.926060	-1.071524	-0.378618
C68	C	1.426060	-0.571524	0.121382
C69	C	0.925794	-0.948964	-0.378450
C70	C	1.425794	-0.448964	0.121550
C71	C	0.958835	-0.948534	-0.254828
C72	C	1.458835	-0.448534	0.245172
C73	C	0.958518	-1.071133	-0.255147
C74	C	1.458518	-0.571133	0.244853
C75	C	1.049838	-1.071034	-0.344457
C76	C	1.549838	-0.571034	0.155543
C77	C	1.049399	-0.948427	-0.346017
C78	C	1.549399	-0.448427	0.153983
C79	C	1.154690	-0.510705	-0.326174
C80	C	1.654690	-0.010705	0.173826
C81	C	1.229922	-0.510714	-0.326184
C82	C	1.729922	-0.010714	0.173816
C83	C	0.978177	-0.510610	-0.502695
C84	C	1.478177	-0.010610	-0.002695
C85	C	0.978189	-0.510579	-0.577927
C86	C	1.478189	-0.010579	-0.077927
C87	C	0.978215	-0.234178	-0.326176
C88	C	1.478215	0.265822	0.173824
C89	C	0.978244	-0.116348	-0.326186
C90	C	1.478244	0.383652	0.173814
C91	C	0.934928	-0.442765	-0.613271
C92	C	1.434928	0.057235	-0.113271
C93	C	0.934937	-0.442744	-0.683959
C94	C	1.434937	0.057256	-0.183959
C95	C	0.978212	-0.510533	-0.719302
C96	C	1.478212	-0.010533	-0.219302
C97	C	1.021475	-0.578355	-0.683953
C98	C	1.521475	-0.078355	-0.183953
C99	C	1.021462	-0.578380	-0.613266
C100	C	1.521462	-0.078380	-0.113266
C101	C	1.021529	-0.578255	-0.969027
C102	C	1.521529	-0.078255	-0.469027
C103	C	1.021540	-0.578223	-1.039719
C104	C	1.521540	-0.078223	-0.539719
C105	C	0.935004	-0.442620	-1.039720
C106	C	1.435004	0.057380	-0.539720
C107	C	0.934991	-0.442645	-0.969033
C108	C	1.434991	0.057355	-0.469033
C109	C	0.978251	-0.510470	-0.933690
C110	C	1.478251	-0.010470	-0.433690
C111	C	0.978240	-0.510493	-0.857041
C112	C	1.478240	-0.010493	-0.357041
C113	C	0.978227	-0.510505	-0.795949
C114	C	1.478227	-0.010505	-0.295949
C115	C	0.978156	-0.510680	-0.150296
C116	C	1.478156	-0.010680	0.349704
C117	C	0.978275	-0.510413	-0.075064
C118	C	1.478275	-0.010413	0.424936
H119	H	0.364741	-0.633871	-0.404566
H120	H	0.864741	-0.133871	0.095434
N121	N	1.005010	-0.911954	-0.204486
N122	N	1.505010	-0.411954	0.295514
N123	N	1.052772	-0.852467	-0.220658
N124	N	1.552772	-0.352467	0.279342
H125	H	1.085385	-0.826631	-0.185105
H126	H	1.585385	-0.326631	0.314895
H127	H	0.907045	-0.917922	-0.239071
H128	H	1.407045	-0.417922	0.260929
H129	H	1.056707	-0.633555	-0.712735
H130	H	1.556707	-0.133555	-0.212735
H131	H	0.899755	-0.387440	-0.940260
H132	H	1.399755	0.112560	-0.440260
N133	N	0.229137	-0.373481	-0.238840
N134	N	0.729137	0.126519	0.261160
N135	N	0.166024	-0.373500	-0.238855
N136	N	0.666024	0.126500	0.261145
H137	H	0.140511	-0.324524	-0.207694
H138	H	0.640511	0.175476	0.292306
N139	N	0.890818	-0.373342	-1.075833
N140	N	1.390818	0.126658	-0.575833
N141	N	0.890832	-0.373323	-1.138946
N142	N	1.390832	0.126677	-0.638946
H143	H	0.859629	-0.324394	-1.164451
H144	H	1.359629	0.175606	-0.664451
H145	H	1.056781	-0.633429	-1.068493
H146	H	1.556781	-0.133429	-0.568493
H147	H	0.899707	-0.387527	-0.712733
H148	H	1.399707	0.112473	-0.212733
H149	H	0.720501	-0.633846	-0.404534
H150	H	1.220501	-0.133846	0.095466
H151	H	1.056747	-0.633494	-0.940259
H152	H	1.556747	-0.133494	-0.440259
N153	N	1.065656	-0.647632	-0.577150
N154	N	1.565656	-0.147632	-0.077150
N155	N	1.065639	-0.647645	-0.514037
N156	N	1.565639	-0.147645	-0.014037
H157	H	1.096851	-0.696558	-0.488529
H158	H	1.596851	-0.196558	0.011471
N159	N	0.229169	-0.647951	-0.413527
N160	N	0.729169	-0.147951	0.086473
N161	N	0.166056	-0.647953	-0.413529
N162	N	0.666056	-0.147953	0.086471
H163	H	0.140557	-0.696934	-0.444699
H164	H	0.640557	-0.196934	0.055301
N165	N	0.584955	-0.647935	-0.413501
N166	N	1.084955	-0.147935	0.086499
N167	N	0.592838	-0.745743	-0.408899
N168	N	1.092838	-0.245743	0.091101
H169	H	0.567359	-0.794738	-0.440076
H170	H	1.067359	-0.294738	0.059924
N171	N	0.372028	-0.373465	-0.238810
N172	N	0.872028	0.126535	0.261190
N173	N	0.340453	-0.312872	-0.200231
N174	N	0.840453	0.187128	0.299769
H175	H	0.365934	-0.263890	-0.169047
H176	H	0.865934	0.236110	0.330953
H177	H	1.067448	-1.101880	-0.395589
H178	H	1.567448	-0.601880	0.104411
H179	H	0.592235	-0.387521	-0.247757
H180	H	1.092235	0.112479	0.252243
H181	H	0.937870	-0.918813	-0.431342
H182	H	1.437870	-0.418813	0.068658
N183	N	1.100743	-0.909970	-0.301603
N184	N	1.600743	-0.409970	0.198397
N185	N	1.111278	-0.812799	-0.296779
N186	N	1.611278	-0.312799	0.203221
H187	H	1.147538	-0.785640	-0.265405
H188	H	1.647538	-0.285640	0.234595
N189	N	1.067655	-0.911857	-0.411874
N190	N	1.567655	-0.411857	0.088126
N191	N	1.028368	-0.853248	-0.444104
N192	N	1.528368	-0.353248	0.055896
H193	H	1.041258	-0.827415	-0.490617
H194	H	1.541258	-0.327415	0.009383
H195	H	0.720481	-0.387502	-0.247744
H196	H	1.220481	0.112498	0.252256
H197	H	0.873315	-1.102424	-0.366668
H198	H	1.373315	-0.602424	0.133332
N199	N	0.941110	-1.108354	-0.445196
N200	N	1.441110	-0.608354	0.054804
N201	N	0.990467	-1.168077	-0.454783
N202	N	1.490467	-0.668077	0.045217
H203	H	1.001110	-1.194069	-0.501808
H204	H	1.501110	-0.694069	-0.001808
H205	H	0.872717	-0.919729	-0.366345
H206	H	1.372717	-0.419729	0.133655
H207	H	0.906182	-1.099823	-0.239669
H208	H	1.406182	-0.599823	0.260331
H209	H	1.088716	-1.100020	-0.306269
H210	H	1.588716	-0.600020	0.193731
N211	N	1.004107	-1.108338	-0.204449
N212	N	1.504107	-0.608338	0.295551
N213	N	0.994842	-1.084183	-0.143959
N214	N	1.494842	-0.584183	0.356041
H215	H	1.027031	-1.110459	-0.108148
H216	H	1.527031	-0.610459	0.391852
N217	N	0.890727	-0.373499	-0.577182
N218	N	1.390727	0.126501	-0.077182
N219	N	0.852106	-0.312954	-0.608752
N220	N	1.352106	0.187046	-0.108752
H221	H	0.820887	-0.264031	-0.583266
H222	H	1.320887	0.235969	-0.083266
