data_functionalizedCrystal
_audit_creation_method	'MofGen! by Chris Wilmer'
_symmetry_space_group_name_H-M	'P1'
_symmetry_Int_Tables_number	1
_symmetry_cell_setting	triclinic
loop_
_symmetry_equiv_pos_as_xyz
  x,y,z
_cell_length_a	18.215407
_cell_length_b	16.120297
_cell_length_c	18.215405
_cell_angle_alpha	87.131114
_cell_angle_beta	89.977671
_cell_angle_gamma	92.880709
loop_
_atom_site_label
_atom_site_type_symbol
_atom_site_fract_x
_atom_site_fract_y
_atom_site_fract_z
Zn1	Zn	1.103975	-0.471315	0.314148
Zn2	Zn	1.110124	-0.331896	0.430976
Zn3	Zn	0.987147	-0.331924	0.307924
Zn4	Zn	0.980876	-0.471268	0.437170
O5	O	1.045531	-0.401601	0.372555
O6	O	1.207775	-0.452829	0.329659
O7	O	1.099009	-0.215237	0.409456
O8	O	1.002696	-0.350446	0.205767
O9	O	1.212292	-0.350399	0.415492
O10	O	1.088529	-0.452856	0.210340
O11	O	1.008658	-0.215258	0.319050
O12	O	0.883331	-0.350400	0.325056
O13	O	0.992007	-0.587937	0.426048
O14	O	0.878724	-0.452775	0.420013
O15	O	1.082448	-0.587971	0.335665
O16	O	1.092928	-0.350353	0.534781
O17	O	0.997970	-0.452748	0.539331
C18	C	0.854325	-0.401586	0.372531
C19	C	0.772526	-0.401600	0.372540
C20	C	0.581974	-0.455019	0.327948
C21	C	0.505116	-0.455022	0.327954
C22	C	0.509838	-0.348197	0.417183
C23	C	0.586696	-0.348190	0.417172
C24	C	0.622762	-0.401606	0.372556
C25	C	0.469045	-0.401616	0.372573
C26	C	0.385711	-0.401618	0.372580
C27	C	0.706101	-0.401603	0.372547
C28	C	1.035842	-0.619049	0.382242
C29	C	1.031714	-0.711713	0.386370
C30	C	1.024149	-0.881370	0.393890
C31	C	1.067058	-0.922683	0.350999
C32	C	1.062848	-1.017086	0.355183
C33	C	1.028357	-0.786958	0.389707
C34	C	1.237483	-0.401616	0.372579
C35	C	1.319281	-0.401622	0.372589
C36	C	1.045455	-0.401561	0.563759
C37	C	1.045488	-0.401571	0.645559
C38	C	1.055224	-0.184998	0.362852
C39	C	1.059495	-0.092335	0.358517
C40	C	1.045626	-0.401659	0.180604
C41	C	1.045667	-0.401684	0.098807
C42	C	1.095039	-0.348352	0.831363
C43	C	1.095071	-0.348372	0.908223
C44	C	0.996114	-0.454909	0.912997
C45	C	0.996086	-0.454893	0.836139
C46	C	1.045548	-0.401609	0.795324
C47	C	1.045607	-0.401646	0.949041
C48	C	1.045642	-0.401668	1.032376
C49	C	1.045514	-0.401588	0.711984
H50	H	0.619906	-0.304691	0.453498
N51	N	1.148389	-0.290894	0.787336
H52	H	1.139668	-0.231318	0.798091
H53	H	1.200362	-0.303976	0.801265
N54	N	1.148453	-0.290933	0.947094
H55	H	1.179780	-0.257178	0.909573
H56	H	1.120257	-0.252329	0.977304
H57	H	0.955842	-0.498289	0.946238
H58	H	0.984256	-0.916897	0.433751
H59	H	0.480464	-0.304708	0.453509
H60	H	1.106953	-0.887154	0.311135
N61	N	0.942705	-0.512339	0.797262
H62	H	0.911371	-0.546092	0.834779
H63	H	0.910177	-0.478360	0.763898
N64	N	0.461123	-0.512622	0.279832
H65	H	0.495636	-0.546454	0.251566
H66	H	0.427509	-0.551146	0.311554
N67	N	0.620876	-0.512628	0.279827
H68	H	0.583372	-0.546464	0.251569
H69	H	0.654279	-0.478759	0.244212
