data_functionalizedCrystal
_audit_creation_method	'MofGen! by Chris Wilmer'
_symmetry_space_group_name_H-M	'P1'
_symmetry_Int_Tables_number	1
_symmetry_cell_setting	triclinic
loop_
_symmetry_equiv_pos_as_xyz
  x,y,z
_cell_length_a	27.731988
_cell_length_b	19.288865
_cell_length_c	26.809956
_cell_angle_alpha	90.011357
_cell_angle_beta	90.012008
_cell_angle_gamma	82.877306
loop_
_atom_site_label
_atom_site_type_symbol
_atom_site_fract_x
_atom_site_fract_y
_atom_site_fract_z
O1	O	-0.641209	-0.082450	-0.041347
O2	O	-0.500449	-0.095060	-0.041379
O3	O	-0.574896	0.012402	-0.041352
O4	O	-0.566762	-0.189912	-0.041374
O5	O	-0.574863	0.012403	0.041607
O6	O	-0.500416	-0.095059	0.041580
O7	O	-0.641175	-0.082449	0.041612
Zn8	Zn	-0.570790	-0.088754	0.054768
Zn9	Zn	-0.570834	-0.088755	-0.054535
O10	O	-0.566728	-0.189911	0.041585
C11	C	-0.482424	-0.094801	0.000097
C12	C	-0.428765	-0.094024	0.000085
C13	C	-0.574618	0.038277	0.000129
C14	C	-0.573832	0.115375	0.000133
N15	N	-0.570763	-0.088752	0.129364
C16	C	-0.045606	-0.088386	-0.045114
C17	C	-0.247272	-0.091351	-0.045127
O18	O	-0.273362	-0.091707	-0.083586
N19	N	-0.272476	-0.091721	0.000094
C20	C	-0.247259	-0.091346	0.045320
O21	O	-0.273324	-0.091722	0.083782
C22	C	-0.045594	-0.088376	0.045332
C23	C	-0.020393	-0.088013	0.000109
C24	C	-0.020405	-0.088022	-0.090333
C25	C	0.030010	-0.087285	-0.090330
C26	C	0.055223	-0.086911	-0.045107
C27	C	0.030021	-0.087275	0.000113
C28	C	-0.020379	-0.087995	0.090558
C29	C	0.030041	-0.087251	0.090557
C30	C	0.055242	-0.086888	0.045334
C31	C	0.105648	-0.086164	0.045339
N32	N	0.130851	-0.085794	0.000119
C33	C	0.105639	-0.086167	-0.045104
C34	C	-0.353136	-0.092906	0.045311
C35	C	-0.403552	-0.093650	0.045308
C36	C	-0.403562	-0.093654	-0.045139
C37	C	-0.353145	-0.092915	-0.045136
C38	C	-0.327933	-0.092536	0.000090
C39	C	0.211512	-0.084619	-0.045093
C40	C	0.261931	-0.083885	-0.045085
C41	C	0.261936	-0.083877	0.045361
C42	C	0.211522	-0.084616	0.045354
C43	C	0.186311	-0.084984	0.000123
O44	O	0.131769	-0.085800	0.083779
O45	O	0.131711	-0.085776	-0.083560
C46	C	-0.096020	-0.089123	-0.045118
C47	C	-0.121221	-0.089487	0.000102
C48	C	-0.096008	-0.089114	0.045325
C49	C	-0.171637	-0.090231	0.000099
C50	C	-0.196850	-0.090604	-0.045124
C51	C	-0.171647	-0.090234	-0.090344
C52	C	-0.121233	-0.089497	-0.090341
C53	C	-0.121211	-0.089484	0.090545
C54	C	-0.171625	-0.090223	0.090538
C55	C	-0.196838	-0.090596	0.045315
C56	C	0.340800	-0.082714	0.000134
C57	C	0.287143	-0.083511	0.000138
C58	C	-0.567007	-0.215786	0.000103
C59	C	-0.567792	-0.292885	0.000096
C60	C	-0.617514	0.160358	0.000145
C61	C	-0.616776	0.232800	0.000137
C62	C	-0.572353	0.260257	0.000127
C63	C	-0.528665	0.215265	0.000112
C64	C	-0.529405	0.142824	0.000115
C65	C	-0.537420	0.368316	0.029178
C66	C	-0.536682	0.440756	0.029178
C67	C	-0.570071	0.483687	0.000115
C68	C	-0.604205	0.454172	-0.028941
C69	C	-0.604944	0.381731	-0.028938
C70	C	-0.571546	0.338805	0.000123
C71	C	-0.612956	0.607220	0.000118
C72	C	-0.612216	0.679663	0.000107
C73	C	-0.524104	0.662127	0.000086
C74	C	-0.524845	0.589685	0.000092
C75	C	-0.569272	0.562236	0.000111
N76	N	-0.570865	-0.088751	-0.129131
C77	C	-0.537836	-0.136317	0.526235
C78	C	-0.537811	-0.136317	0.317357
O79	O	-0.509754	-0.176752	0.290347
N80	N	-0.570780	-0.088750	0.291242
C81	C	-0.603756	-0.041176	0.317350
O82	O	-0.631794	-0.000713	0.290344
C83	C	-0.603778	-0.041173	0.526226
C84	C	-0.570810	-0.088748	0.552339
C85	C	-0.504870	-0.183888	0.552348
C86	C	-0.504879	-0.183890	0.604564
C87	C	-0.537853	-0.136321	0.630668
C88	C	-0.570819	-0.088750	0.604555
C89	C	-0.636751	0.006403	0.552333
C90	C	-0.636753	0.006401	0.604555
C91	C	-0.603785	-0.041174	0.630668
C92	C	-0.603801	-0.041184	0.682875
N93	N	-0.570832	-0.088751	0.708990
C94	C	-0.537858	-0.136320	0.682887
C95	C	-0.603742	-0.041182	0.207686
C96	C	-0.603737	-0.041184	0.155468
C97	C	-0.537792	-0.136324	0.155479
C98	C	-0.537799	-0.136325	0.207699
C99	C	-0.570773	-0.088750	0.233802
C100	C	-0.537878	-0.136321	0.792545
C101	C	-0.537891	-0.136320	0.844766
C102	C	-0.603835	-0.041178	0.844750
C103	C	-0.603824	-0.041180	0.792533
C104	C	-0.570842	-0.088754	0.766432
O105	O	-0.631840	-0.000765	0.709918
O106	O	-0.509816	-0.176767	0.709901
C107	C	-0.537828	-0.136315	0.474019
C108	C	-0.570793	-0.088744	0.447906
C109	C	-0.603768	-0.041176	0.474010
C110	C	-0.570788	-0.088746	0.395687
C111	C	-0.537814	-0.136315	0.369584
C112	C	-0.504845	-0.183882	0.395699
C113	C	-0.504853	-0.183884	0.447915
C114	C	-0.636737	0.006392	0.447895
C115	C	-0.636726	0.006389	0.395679
C116	C	-0.603752	-0.041180	0.369575
H117	H	0.282447	-0.083591	-0.081913
H118	H	-0.647788	0.716288	0.000114
H119	H	0.191003	-0.084925	0.082178
F120	F	-0.502801	-0.186959	0.872554
H121	H	-0.631393	0.489126	-0.052607
F122	F	-0.641269	0.350321	-0.059863
H123	H	0.190991	-0.084921	-0.081924
F124	F	-0.198440	-0.090615	0.138674
H125	H	-0.478008	-0.222624	0.469172
H126	H	-0.511020	-0.175059	0.771299
F127	F	-0.469787	-0.234522	0.632350
H128	H	0.050524	-0.086986	-0.127155
F129	F	-0.660238	0.578005	0.000140
F130	F	-0.476825	0.691343	0.000073
F131	F	-0.638918	0.009448	0.764743
H132	H	-0.652348	0.269431	0.000145
F133	F	-0.664798	0.131149	0.000154
H134	H	-0.663577	0.045129	0.374421
H135	H	-0.100718	-0.089201	-0.127166
F136	F	-0.500356	0.472161	0.060103
H137	H	-0.489274	0.553059	0.000085
H138	H	-0.332629	-0.092619	-0.081960
H139	H	-0.510230	0.333366	0.052847
H140	H	-0.478016	-0.222624	0.531099
F141	F	-0.481387	0.244487	0.000097
F142	F	-0.482910	0.094949	0.000101
H143	H	-0.040928	-0.088324	-0.127161
H144	H	-0.510954	-0.175065	0.228956
F145	F	-0.638928	0.009445	0.872539
F146	F	-0.430404	-0.094054	-0.093269
H147	H	-0.100688	-0.089177	0.127372
H148	H	-0.510943	-0.175058	0.134216
F149	F	-0.671849	0.057041	0.632333
F150	F	-0.198489	-0.090634	-0.138474
H151	H	-0.477998	-0.222617	0.374437
H152	H	-0.040889	-0.088289	0.127384
F153	F	-0.638832	0.009443	0.127682
H154	H	-0.332614	-0.092595	0.082141
H155	H	-0.630595	-0.002439	0.228936
F156	F	-0.671834	0.057023	0.475671
F157	F	-0.430367	-0.094050	0.093440
F158	F	0.056869	-0.086843	0.138695
H159	H	0.282473	-0.083576	0.082181
F160	F	-0.671840	0.057040	0.524552
