data_functionalizedCrystal
_audit_creation_method	'MofGen! by Chris Wilmer'
_symmetry_space_group_name_H-M	'P1'
_symmetry_Int_Tables_number	1
_symmetry_cell_setting	triclinic
loop_
_symmetry_equiv_pos_as_xyz
  x,y,z
_cell_length_a	8.559649
_cell_length_b	7.088929
_cell_length_c	8.559649
_cell_angle_alpha	95.344185
_cell_angle_beta	110.221336
_cell_angle_gamma	95.324331
loop_
_atom_site_label
_atom_site_type_symbol
_atom_site_fract_x
_atom_site_fract_y
_atom_site_fract_z
O1	O	-2.108181	0.158989	-0.036315
O2	O	-1.608181	0.658989	0.463685
O3	O	-1.632696	0.158989	0.047467
O4	O	-1.132696	0.658989	0.547467
O5	O	-1.912330	0.158987	-0.232167
O6	O	-1.412330	0.658987	0.267833
O7	O	-1.828548	0.158991	0.243319
O8	O	-1.328548	0.658991	0.743319
O9	O	-1.949709	-0.158988	-0.269612
O10	O	-1.449709	0.341012	0.230388
O11	O	-1.670076	-0.158986	0.010021
O12	O	-1.170076	0.341014	0.510021
O13	O	-2.145561	-0.158986	-0.073760
O14	O	-1.645561	0.341014	0.426240
Cu15	Cu	-1.911231	-0.188020	-0.035289
Cu16	Cu	-1.411231	0.311980	0.464711
Cu17	Cu	-1.867026	0.188023	0.008995
Cu18	Cu	-1.367026	0.688023	0.508995
O19	O	-1.865927	-0.158984	0.205873
O20	O	-1.365927	0.341016	0.705873
C21	C	-1.591077	0.000002	0.035093
C22	C	-1.091077	0.500002	0.535093
C23	C	-1.411378	0.000002	0.053992
C24	C	-0.911378	0.500002	0.553992
C25	C	-1.187180	0.000002	-0.061387
C26	C	-0.687180	0.500002	0.438613
C27	C	-1.366879	0.000003	-0.080286
C28	C	-0.866879	0.500003	0.419714
N29	N	-1.942335	-0.452508	-0.066438
N30	N	-1.442335	0.047492	0.433562
C31	C	-1.937368	0.000003	-0.311198
C32	C	-1.437368	0.500003	0.188802
C33	C	-1.956266	0.000014	-0.490896
C34	C	-1.456266	0.500014	0.009104
N35	N	-1.835937	0.452511	0.040130
N36	N	-1.335937	0.952511	0.540130
C37	C	-1.840888	0.000004	0.284905
C38	C	-1.340888	0.500004	0.784905
C39	C	-1.821989	0.000006	0.464604
C40	C	-1.321989	0.500006	0.964604
H41	H	-1.311988	0.000012	0.183421
H42	H	-0.811988	0.500012	0.683421
H43	H	-1.725668	-0.465842	0.150565
H44	H	-1.225668	0.034158	0.650565
Cl45	Cl	-2.112610	-0.578570	-0.236940
Cl46	Cl	-1.612610	-0.078570	0.263060
Cl47	Cl	-1.622168	0.000002	-0.381967
Cl48	Cl	-1.122168	0.500002	0.118033
Cl49	Cl	-2.156100	-0.000012	-0.644337
Cl50	Cl	-1.656100	0.499988	-0.144337
H51	H	-1.466256	0.000012	-0.209704
H52	H	-0.966256	0.500012	0.290296
