data_functionalizedCrystal
_audit_creation_method	'MofGen! by Chris Wilmer'
_symmetry_space_group_name_H-M	'P1'
_symmetry_Int_Tables_number	1
_symmetry_cell_setting	triclinic
loop_
_symmetry_equiv_pos_as_xyz
  x,y,z
_cell_length_a	10.654550
_cell_length_b	11.026607
_cell_length_c	9.130313
_cell_angle_alpha	89.997484
_cell_angle_beta	89.999724
_cell_angle_gamma	96.535474
loop_
_atom_site_label
_atom_site_type_symbol
_atom_site_fract_x
_atom_site_fract_y
_atom_site_fract_z
O1	O	1.704908	0.170768	-0.121683
O2	O	2.204908	0.670768	0.378317
O3	O	1.342961	0.187037	-0.121709
O4	O	1.842961	0.687037	0.378291
O5	O	1.493937	0.001997	-0.121693
O6	O	1.993937	0.501997	0.378307
O7	O	1.553932	0.355808	-0.121699
O8	O	2.053932	0.855808	0.378301
O9	O	1.493922	0.001991	0.121906
O10	O	1.993922	0.501991	0.621906
O11	O	1.342947	0.187032	0.121889
O12	O	1.842947	0.687032	0.621889
O13	O	1.704894	0.170762	0.121916
O14	O	2.204894	0.670762	0.621916
Cu15	Cu	1.523919	0.178896	0.144145
Cu16	Cu	2.023919	0.678896	0.644145
Cu17	Cu	1.523936	0.178903	-0.143939
Cu18	Cu	2.023936	0.678903	0.356061
O19	O	1.553918	0.355802	0.121899
O20	O	2.053918	0.855802	0.621899
C21	C	1.295897	0.185840	0.000087
C22	C	1.795897	0.685840	0.500087
C23	C	1.155678	0.182266	0.000076
C24	C	1.655678	0.682266	0.500076
C25	C	1.099841	0.291214	0.000079
C26	C	1.599841	0.791214	0.500079
C27	C	0.968090	0.287849	0.000104
C28	C	1.468090	0.787849	0.500104
C29	C	0.948022	0.066576	0.000119
C30	C	1.448022	0.566576	0.500119
C31	C	1.079771	0.069943	0.000104
C32	C	1.579771	0.569943	0.500104
C33	C	1.482861	-0.043310	0.000104
C34	C	1.982861	0.456690	0.500104
C35	C	1.449867	-0.178302	0.000096
C36	C	1.949867	0.321698	0.500096
C37	C	1.540970	-0.251341	0.000101
C38	C	2.040970	0.248659	0.500101
C39	C	1.506871	-0.390862	0.000093
C40	C	2.006871	0.109138	0.500093
C41	C	1.751958	0.171959	0.000116
C42	C	2.251958	0.671959	0.500116
C43	C	1.892177	0.175533	0.000117
C44	C	2.392177	0.675533	0.500117
C45	C	1.564993	0.401109	0.000099
C46	C	2.064993	0.901109	0.500099
C47	C	1.597988	0.536101	0.000097
C48	C	2.097988	1.036101	0.500097
N49	N	1.523916	0.178891	0.346768
N50	N	2.023916	0.678891	0.846768
N51	N	1.523947	0.178898	-0.346561
N52	N	2.023947	0.678898	0.153439
C53	C	1.590804	0.096990	0.423427
C54	C	2.090804	0.596990	0.923427
C55	C	1.590816	0.096990	0.576764
C56	C	2.090816	0.596990	1.076764
C57	C	1.457050	0.260803	0.576769
C58	C	1.957050	0.760803	1.076769
C59	C	1.457031	0.260796	0.423435
C60	C	1.957031	0.760796	0.923435
H61	H	0.886203	-0.024873	0.000151
H62	H	1.386203	0.475127	0.500151
H63	H	1.403623	-0.431617	0.000076
H64	H	1.903623	0.068383	0.500076
H65	H	1.701236	-0.423146	-0.000005
H66	H	2.201236	0.076854	0.499995
Br67	Br	1.713053	-0.183418	0.000098
Br68	Br	2.213053	0.316582	0.500098
Br69	Br	1.366284	0.371959	0.680822
Br70	Br	1.866284	0.871959	1.180822
H71	H	1.125232	-0.018782	0.000106
H72	H	1.625232	0.481218	0.500106
Br73	Br	1.681573	-0.014169	0.319384
Br74	Br	2.181573	0.485831	0.819384
H75	H	1.346625	-0.219062	0.000079
H76	H	1.846625	0.280938	0.500079
H77	H	1.645281	0.030298	0.639175
H78	H	2.145281	0.530298	1.139175
H79	H	1.402557	0.327490	0.361015
H80	H	1.902557	0.827490	0.861015
H81	H	0.922635	0.376566	0.000109
H82	H	1.422635	0.876566	0.500109
Br83	Br	1.202854	0.443651	0.000046
Br84	Br	1.702854	0.943651	0.500046
