data_functionalizedCrystal
_audit_creation_method	'MofGen! by Chris Wilmer'
_symmetry_space_group_name_H-M	'P1'
_symmetry_Int_Tables_number	1
_symmetry_cell_setting	triclinic
loop_
_symmetry_equiv_pos_as_xyz
  x,y,z
_cell_length_a	16.120566
_cell_length_b	21.395363
_cell_length_c	21.395063
_cell_angle_alpha	89.654501
_cell_angle_beta	92.984036
_cell_angle_gamma	92.901067
loop_
_atom_site_label
_atom_site_type_symbol
_atom_site_fract_x
_atom_site_fract_y
_atom_site_fract_z
Zn1	Zn	-1.275140	-0.295768	-0.402935
Zn2	Zn	-1.274976	-0.401146	-0.298174
Zn3	Zn	-1.135599	-0.291099	-0.292850
Zn4	Zn	-1.135731	-0.395223	-0.397611
O5	O	-1.205361	-0.345809	-0.347893
O6	O	-1.391791	-0.314178	-0.393495
O7	O	-1.256363	-0.387072	-0.209783
O8	O	-1.154122	-0.204041	-0.307453
O9	O	-1.391670	-0.391599	-0.316527
O10	O	-1.256643	-0.207471	-0.388332
O11	O	-1.153963	-0.306222	-0.205871
O12	O	-1.018943	-0.300479	-0.302290
O13	O	-1.154348	-0.381505	-0.486003
O14	O	-1.019041	-0.376979	-0.379258
O15	O	-1.256771	-0.308436	-0.489914
O16	O	-1.256491	-0.488037	-0.311365
O17	O	-1.154189	-0.483686	-0.384421
C18	C	-0.988740	-0.337580	-0.339619
C19	C	-0.896068	-0.334075	-0.336094
C20	C	-0.726396	-0.327660	-0.329665
C21	C	-0.685167	-0.364011	-0.366125
C22	C	-0.590755	-0.360442	-0.362548
C23	C	-0.820816	-0.331229	-0.333242
C24	C	-1.205359	-0.508596	-0.347908
C25	C	-1.205435	-0.578240	-0.347938
C26	C	-0.422829	-0.354072	-0.356189
C27	C	-0.515500	-0.357599	-0.359698
C28	C	-1.205593	-0.344831	-0.511330
C29	C	-1.205692	-0.344414	-0.580977
C30	C	-1.205386	-0.182387	-0.347892
C31	C	-1.205397	-0.112746	-0.347892
C32	C	-1.152029	-0.078246	-0.305784
C33	C	-1.152028	-0.012811	-0.305791
C34	C	-1.205410	0.018122	-0.347901
C35	C	-1.258781	-0.016385	-0.390017
C36	C	-1.258774	-0.081819	-0.390012
C37	C	-1.280544	0.118967	-0.355722
C38	C	-1.280552	0.184400	-0.355722
C39	C	-1.205429	0.219942	-0.347918
C40	C	-1.130296	0.190044	-0.340100
C41	C	-1.130289	0.124610	-0.340096
C42	C	-1.205422	0.089074	-0.347910
C43	C	-1.152056	0.325395	-0.305816
C44	C	-1.152054	0.390831	-0.305827
C45	C	-1.258814	0.387255	-0.390050
C46	C	-1.258808	0.321820	-0.390041
C47	C	-1.205431	0.290894	-0.347921
C48	C	-1.205179	-0.346740	-0.185093
C49	C	-1.205241	-0.346986	-0.115452
C50	C	-1.258198	-0.308477	-0.085269
C51	C	-1.258259	-0.308165	-0.019838
C52	C	-1.205348	-0.346354	0.015409
C53	C	-1.152388	-0.384870	-0.014782
C54	C	-1.152334	-0.385187	-0.080212
C55	C	-1.130364	-0.348357	0.122090
C56	C	-1.130416	-0.348037	0.187519
C57	C	-1.205513	-0.345382	0.217218
C58	C	-1.280560	-0.343035	0.181479
C59	C	-1.280507	-0.343351	0.116048
C60	C	-1.205400	-0.346015	0.086357
C61	C	-1.258540	-0.306532	0.318348
C62	C	-1.258602	-0.306224	0.383781
C63	C	-1.152723	-0.382926	0.388836
C64	C	-1.152669	-0.383238	0.323404
C65	C	-1.205576	-0.345037	0.288164
H66	H	-1.108564	-0.103422	-0.271487
H67	H	-0.720774	-0.397812	-0.400028
H68	H	-0.690791	-0.293862	-0.295766
H69	H	-1.302271	0.293730	-0.424327
Br70	Br	-1.028329	0.084036	-0.329490
Br71	Br	-1.080926	-0.434765	0.436663
H72	H	-1.108569	0.015284	-0.271501
Br73	Br	-1.028337	0.238272	-0.329498
Br74	Br	-1.079616	0.283419	-0.248655
H75	H	-1.341613	-0.341442	0.086952
Br76	Br	-1.079607	0.437655	-0.248685
Br77	Br	-1.028567	-0.351213	0.236015
H78	H	-1.302274	0.412440	-0.424338
Br79	Br	-1.080795	-0.435503	0.282439
H80	H	-1.341728	0.208740	-0.362084
Br81	Br	-1.382506	0.070737	-0.366317
H82	H	-1.302243	0.008804	-0.424304
H83	H	-1.302232	-0.109909	-0.424304
Br84	Br	-1.330036	-0.256662	-0.133093
H85	H	-1.301382	-0.276804	0.004742
Br86	Br	-1.080461	-0.437454	-0.121178
H87	H	-1.341711	-0.340871	0.205657
Br88	Br	-1.330321	-0.254675	0.270520
Br89	Br	-1.330486	-0.253963	0.424744
H90	H	-1.069207	-0.350520	0.097915
H91	H	-1.109309	-0.415965	0.013920
