data_functionalizedCrystal
_audit_creation_method	'MofGen! by Chris Wilmer'
_symmetry_space_group_name_H-M	'P1'
_symmetry_Int_Tables_number	1
_symmetry_cell_setting	triclinic
loop_
_symmetry_equiv_pos_as_xyz
  x,y,z
_cell_length_a	13.033293
_cell_length_b	17.637651
_cell_length_c	13.032268
_cell_angle_alpha	95.517745
_cell_angle_beta	90.920818
_cell_angle_gamma	106.685376
loop_
_atom_site_label
_atom_site_type_symbol
_atom_site_fract_x
_atom_site_fract_y
_atom_site_fract_z
Zn1	Zn	1.442373	-0.244398	0.708953
Zn2	Zn	1.438207	-0.357287	0.503479
Zn3	Zn	1.293185	-0.240249	0.516360
Zn4	Zn	1.236942	-0.390034	0.643800
O5	O	1.352677	-0.307992	0.593148
O6	O	1.588486	-0.247404	0.703572
O7	O	1.440764	-0.326320	0.365861
O8	O	1.338256	-0.130870	0.574566
O9	O	1.585425	-0.330343	0.552611
O10	O	1.447863	-0.133917	0.716063
O11	O	1.334217	-0.240334	0.375325
O12	O	1.139059	-0.272087	0.511389
O13	O	1.242399	-0.386156	0.791769
O14	O	1.097738	-0.382133	0.605019
O15	O	1.393327	-0.279157	0.839637
O16	O	1.386228	-0.471560	0.489435
O17	O	1.238360	-0.495620	0.592529
C18	C	1.080369	-0.330214	0.552533
C19	C	0.963867	-0.339743	0.535175
C20	C	0.913408	-0.303039	0.602201
C21	C	0.792997	-0.312886	0.584263
C22	C	1.305764	-0.512094	0.532540
C23	C	1.285785	-0.599405	0.506659
C24	C	1.505086	-0.894260	0.790177
C25	C	1.486282	-0.976303	0.765836
C26	C	1.372256	-0.973216	0.618385
C27	C	1.391055	-0.891170	0.642711
C28	C	1.457469	-0.851699	0.728609
C29	C	1.343438	-0.848609	0.581143
C30	C	1.362231	-0.766571	0.605470
C31	C	1.428640	-0.727094	0.691366
C32	C	1.476262	-0.769661	0.752936
C33	C	1.277018	-0.888083	0.495249
C34	C	1.229401	-0.845522	0.433681
C35	C	1.248200	-0.763481	0.458004
C36	C	1.314609	-0.724004	0.543900
C37	C	1.200578	-0.720915	0.396433
C38	C	1.219370	-0.638877	0.420761
C39	C	1.333402	-0.641966	0.568227
C40	C	1.626048	-0.285683	0.633922
C41	C	1.742542	-0.276177	0.651298
C42	C	1.312054	-0.336772	0.852839
C43	C	1.294743	-0.349037	0.963503
C44	C	1.399798	-0.103093	0.654019
C45	C	1.419878	-0.015777	0.679958
C46	C	1.393215	-0.279262	0.334493
C47	C	1.410780	-0.266759	0.223925
C48	C	1.361702	-0.301564	1.036525
C49	C	1.343812	-0.314239	1.150903
H50	H	0.788483	-0.237455	0.721963
H51	H	1.273231	-0.364264	1.173059
C52	C	1.457039	-0.233976	1.006593
N53	N	1.528850	-0.183068	0.984050
C54	C	1.578144	-0.850837	0.884671
N55	N	1.633165	-0.818132	0.955844
C56	C	0.901802	-0.392044	0.439709
N57	N	0.855056	-0.431440	0.367802
H58	H	1.481351	-0.216725	1.201772
C59	C	1.299278	-1.016632	0.523847
N60	N	1.244339	-1.049327	0.452619
H61	H	1.387492	-0.609826	0.638168
H62	H	1.525045	-1.010957	0.815991
H63	H	0.747057	-0.351600	0.513593
C64	C	1.167001	-0.592055	0.353025
N65	N	1.127556	-0.556788	0.302004
H66	H	0.959355	-0.264322	0.672862
C67	C	1.449314	-0.636849	0.718126
N68	N	1.464887	-0.568876	0.738280
H69	H	1.530353	-0.737521	0.822877
C70	C	1.199400	-0.416620	0.993436
N71	N	1.127585	-0.467525	1.015980
H72	H	1.261708	-0.954885	0.475453
C73	C	1.156423	-0.888937	0.339143
N74	N	1.101484	-0.921632	0.267915
C75	C	1.127585	-0.764334	0.301906
N76	N	1.072632	-0.797034	0.230689
