data_functionalizedCrystal
_audit_creation_method	'MofGen! by Chris Wilmer'
_symmetry_space_group_name_H-M	'P1'
_symmetry_Int_Tables_number	1
_symmetry_cell_setting	triclinic
loop_
_symmetry_equiv_pos_as_xyz
  x,y,z
_cell_length_a	19.188930
_cell_length_b	27.732048
_cell_length_c	18.266242
_cell_angle_alpha	89.988683
_cell_angle_beta	89.977082
_cell_angle_gamma	82.893716
loop_
_atom_site_label
_atom_site_type_symbol
_atom_site_fract_x
_atom_site_fract_y
_atom_site_fract_z
O1	O	0.925764	0.060348	-0.061124
O2	O	0.722401	0.068472	-0.061075
O3	O	0.830399	-0.005968	-0.061087
O4	O	0.817767	0.134787	-0.061112
O5	O	0.830381	-0.005971	0.060675
O6	O	0.722383	0.068468	0.060687
O7	O	0.925746	0.060344	0.060638
Zn8	Zn	0.824062	0.064405	0.079995
Zn9	Zn	0.824086	0.064410	-0.080432
O10	O	0.817749	0.134783	0.060650
C11	C	0.696383	0.068207	-0.000187
C12	C	0.618883	0.067417	-0.000168
C13	C	0.573681	0.111096	-0.000187
C14	C	0.500862	0.110354	-0.000195
C15	C	0.473249	0.065931	-0.000199
C16	C	0.518461	0.022246	-0.000175
C17	C	0.591278	0.022990	-0.000160
N18	N	0.365491	0.031976	-0.041663
N19	N	0.296317	0.031273	-0.041679
C20	C	0.253854	0.063689	-0.000243
N21	N	0.283177	0.096842	0.041201
N22	N	0.352358	0.097546	0.041213
C23	C	0.394291	0.065120	-0.000215
C24	C	0.129692	0.106566	-0.000270
C25	C	0.056872	0.105822	-0.000273
C26	C	0.074473	0.017714	-0.000261
C27	C	0.147292	0.018459	-0.000250
C28	C	0.174897	0.062886	-0.000258
C29	C	0.830125	-0.023977	-0.000204
C30	C	0.829326	-0.077635	-0.000198
C31	C	0.888119	-0.416270	-0.000250
C32	C	0.885157	-0.617939	-0.000259
O33	O	0.938918	-0.649030	-0.000304
N34	N	0.821118	-0.637258	-0.000243
C35	C	0.757816	-0.606157	-0.000229
O36	O	0.703280	-0.627217	-0.000223
C37	C	0.760780	-0.404489	-0.000225
C38	C	0.824822	-0.385173	-0.000234
C39	C	0.952156	-0.396953	-0.000259
C40	C	0.952896	-0.346539	-0.000253
C41	C	0.889599	-0.315441	-0.000237
C42	C	0.825562	-0.334759	-0.000227
C43	C	0.697478	-0.373389	-0.000216
C44	C	0.698225	-0.322969	-0.000217
C45	C	0.762267	-0.303653	-0.000226
C46	C	0.763005	-0.253247	-0.000205
N47	N	0.827043	-0.233928	-0.000221
C48	C	0.890340	-0.265025	-0.000237
C49	C	0.756265	-0.712036	-0.000230
C50	C	0.755524	-0.762452	-0.000230
C51	C	0.882865	-0.774231	-0.000261
C52	C	0.883605	-0.723813	-0.000256
C53	C	0.820303	-0.692716	-0.000246
C54	C	0.891889	-0.159151	-0.000223
C55	C	0.892623	-0.108732	-0.000214
C56	C	0.765283	-0.096958	-0.000186
C57	C	0.764549	-0.147373	-0.000192
C58	C	0.827857	-0.178468	-0.000213
O59	O	0.709272	-0.222127	-0.000168
O60	O	0.944868	-0.243956	-0.000259
C61	C	0.887379	-0.466684	-0.000256
C62	C	0.823342	-0.486001	-0.000246
C63	C	0.760045	-0.454904	-0.000230
C64	C	0.822601	-0.536418	-0.000246
C65	C	0.885898	-0.567515	-0.000262
C66	C	0.949936	-0.548195	-0.000278
C67	C	0.950676	-0.497781	-0.000272
C68	C	0.696007	-0.474223	-0.000214
C69	C	0.695272	-0.524638	-0.000220
C70	C	0.758569	-0.555735	-0.000236
C71	C	0.951765	0.060609	-0.000251
C72	C	1.029264	0.061399	-0.000275
C73	C	0.818023	0.152793	-0.000235
C74	C	0.818821	0.206450	-0.000246
N75	N	0.824051	0.064402	0.189482
N76	N	0.824103	0.064410	-0.189919
C77	C	0.871887	0.031456	0.227785
C78	C	0.871892	0.031454	0.304430
C79	C	0.824066	0.064406	0.342769
C80	C	0.776220	0.097354	0.304456
C81	C	0.776213	0.097352	0.227813
N82	N	0.814718	0.107196	0.463095
N83	N	0.814729	0.107196	0.535903
C84	C	0.824086	0.064413	0.573691
N85	N	0.833444	0.021627	0.535921
N86	N	0.833436	0.021628	0.463106
C87	C	0.824069	0.064411	0.425876
C88	C	0.871930	0.031462	0.695102
C89	C	0.871929	0.031459	0.771748
C90	C	0.776261	0.097363	0.771772
C91	C	0.776258	0.097362	0.695127
C92	C	0.824096	0.064412	0.656797
H93	H	0.464051	0.145923	-0.000209
H94	H	0.944776	-0.093007	-0.000219
H95	H	1.005046	-0.330816	-0.000263
H96	H	0.934404	-0.799559	-0.000274
O97	O	0.634470	-0.444069	-0.000292
C98	C	0.595571	-0.452789	-0.063352
H99	H	0.613149	-0.491064	-0.084390
H100	H	0.604809	-0.425219	-0.107508
C101	C	0.495267	-0.400844	-0.018332
C102	C	0.516852	-0.447856	-0.044167
H103	H	0.446709	-0.397799	-0.006500
H104	H	0.521475	-0.394968	0.024151
H105	H	0.502971	-0.377875	-0.055133
H106	H	0.509156	-0.470824	-0.007363
H107	H	0.490641	-0.453736	-0.086645
O108	O	0.491607	-0.020894	-0.000311
C109	C	0.450037	-0.023953	-0.063373
H110	H	0.467015	0.001271	-0.107449
H111	H	0.392478	-0.012681	-0.049132
C112	C	0.438595	-0.107574	-0.037825
C113	C	0.459452	-0.076597	-0.091961
H114	H	0.444399	-0.140048	-0.055458
H115	H	0.466599	-0.105513	0.004663
H116	H	0.390630	-0.098175	-0.025962
H117	H	0.507418	-0.085993	-0.103816
H118	H	0.431456	-0.078661	-0.134452
O119	O	0.156397	0.149763	-0.000237
C120	C	0.100880	0.188157	-0.000267
H121	H	0.051541	0.174712	0.022779
H122	H	0.090460	0.201626	-0.058685
C123	C	0.181561	0.246579	0.019177
C124	C	0.120964	0.230066	0.047489
H125	H	0.193950	0.272431	0.048632
H126	H	0.218965	0.220712	0.019194
H127	H	0.172870	0.257799	-0.029504
H128	H	0.129659	0.218840	0.096166
H129	H	0.083562	0.255932	0.047481
O130	O	1.013712	-0.427088	-0.000240
C131	C	1.070382	-0.399216	-0.000268
H132	H	1.052228	-0.361554	0.022784
H133	H	1.090051	-0.395658	-0.058686
C134	C	1.152540	-0.470710	0.019165
C135	C	1.130243	-0.424454	0.047483
H136	H	1.189466	-0.486278	0.048616
H137	H	1.114360	-0.489488	0.019181
H138	H	1.168925	-0.467738	-0.029517
H139	H	1.113850	-0.427426	0.096159
H140	H	1.168421	-0.405677	0.047476
H141	H	0.737279	0.124183	0.335675
O142	O	0.729869	0.129353	0.809118
C143	C	0.740118	0.122281	0.884981
H144	H	0.795823	0.104121	0.895427
H145	H	0.700867	0.098103	0.906757
C146	C	0.660668	0.194051	0.911489
C147	C	0.729088	0.171751	0.924320
H148	H	0.653861	0.224566	0.935757
H149	H	0.653760	0.198815	0.860379
H150	H	0.627966	0.173898	0.929636
H151	H	0.761787	0.191901	0.906165
H152	H	0.736000	0.166991	0.975428
H153	H	0.910838	0.004625	0.196579
O154	O	0.047743	-0.025470	-0.000361
C155	C	0.070910	-0.052081	-0.063424
H156	H	0.121289	-0.039013	-0.084441
H157	H	0.028731	-0.046392	-0.107590
C158	C	0.023265	-0.122535	-0.018445
C159	C	0.085144	-0.106488	-0.044255
H160	H	0.032043	-0.156097	-0.006622
H161	H	0.007654	-0.104607	0.024041
H162	H	-0.011878	-0.117791	-0.055254
H163	H	0.120283	-0.111228	-0.007442
H164	H	0.100761	-0.124419	-0.086734
O165	O	0.729863	0.129437	0.657950
C166	C	0.740686	0.177268	0.676672
H167	H	0.796583	0.177407	0.697710
H168	H	0.701839	0.191532	0.721177
C169	C	0.660820	0.209887	0.582743
C170	C	0.729476	0.210059	0.608577
H171	H	0.653903	0.230115	0.540740
H172	H	0.653526	0.177663	0.570131
H173	H	0.628455	0.221773	0.619837
H174	H	0.761839	0.198168	0.571487
H175	H	0.736775	0.242282	0.621181
O176	O	1.011406	-0.578428	-0.000425
C177	C	1.014777	-0.607940	-0.063483
H178	H	0.978878	-0.589392	-0.107546
H179	H	0.997101	-0.644567	-0.049225
C180	C	1.134927	-0.638537	-0.037981
C181	C	1.090839	-0.615753	-0.092103
H182	H	1.181846	-0.643358	-0.055635
H183	H	1.132655	-0.618655	0.004503
H184	H	1.120188	-0.669057	-0.026105
H185	H	1.105573	-0.585232	-0.103972
H186	H	1.093115	-0.635630	-0.134591
H187	H	0.704714	-0.686720	-0.000222
H188	H	0.703375	-0.778175	-0.000210
H189	H	0.628083	-0.012580	-0.000145
H190	H	0.910847	0.004625	0.335623
H191	H	0.184097	-0.017109	-0.000238
H192	H	0.020068	0.141392	-0.000285
H193	H	0.737257	0.124181	0.196625
H194	H	0.910882	0.004628	0.802935
O195	O	0.918418	-0.000595	0.657975
C196	C	0.960650	-0.029670	0.708223
H197	H	0.932035	-0.030167	0.762871
H198	H	1.012345	-0.014065	0.716344
C199	C	1.010748	-0.081231	0.611199
C200	C	0.975600	-0.081844	0.678318
H201	H	1.019973	-0.113414	0.592752
H202	H	0.982298	-0.061641	0.577346
H203	H	1.053823	-0.068224	0.617976
H204	H	0.932521	-0.094846	0.671539
H205	H	1.004043	-0.101438	0.712169
O206	O	0.953340	-0.189401	-0.000142
C207	C	0.956724	-0.218918	0.062926
H208	H	0.901331	-0.221367	0.083958
H209	H	0.988415	-0.202396	0.107080
C210	C	1.060474	-0.267162	0.017928
C211	C	0.992439	-0.270174	0.043757
H212	H	1.082507	-0.298779	0.006105
H213	H	1.058196	-0.247276	-0.024561
H214	H	1.086874	-0.253392	0.054728
H215	H	0.966038	-0.283938	0.006954
H216	H	0.994713	-0.290064	0.086239
H217	H	0.646676	-0.297652	-0.000210
O218	O	0.633100	-0.543456	-0.000309
C219	C	0.628866	-0.572242	-0.063387
H220	H	0.684038	-0.584910	-0.084418
H221	H	0.597748	-0.549893	-0.107537
C222	C	0.523982	-0.601206	-0.018408
C223	C	0.591746	-0.616768	-0.044235
H224	H	0.501082	-0.628671	-0.006597
H225	H	0.526832	-0.581811	0.024087
H226	H	0.498059	-0.582581	-0.055205
H227	H	0.617670	-0.635387	-0.007436
H228	H	0.588899	-0.636168	-0.086724
H229	H	0.596152	0.147272	-0.000195
H230	H	0.935754	-0.708089	-0.000264
O231	O	0.702278	-0.166059	-0.000213
C232	C	0.646570	-0.127798	-0.000176
H233	H	0.665770	-0.093581	-0.023219
H234	H	0.627058	-0.120640	0.058244
C235	C	0.562556	-0.183922	-0.019623
C236	C	0.586137	-0.141897	-0.047931
H237	H	0.525276	-0.192619	-0.049077
H238	H	0.600087	-0.209700	-0.019645
H239	H	0.546301	-0.177951	0.029060
H240	H	0.602399	-0.147871	-0.096609
H241	H	0.548607	-0.116121	-0.047918
H242	H	0.645328	-0.389107	-0.000214
H243	H	0.713749	-0.071630	-0.000171
H244	H	1.002826	-0.482059	-0.000279
