data_functionalizedCrystal
_audit_creation_method	'MofGen! by Chris Wilmer'
_symmetry_space_group_name_H-M	'P1'
_symmetry_Int_Tables_number	1
_symmetry_cell_setting	triclinic
loop_
_symmetry_equiv_pos_as_xyz
  x,y,z
_cell_length_a	19.188905
_cell_length_b	14.044220
_cell_length_c	17.666332
_cell_angle_alpha	90.010611
_cell_angle_beta	89.998485
_cell_angle_gamma	88.161716
loop_
_atom_site_label
_atom_site_type_symbol
_atom_site_fract_x
_atom_site_fract_y
_atom_site_fract_z
O1	O	0.933770	0.118202	0.063076
O2	O	1.183770	0.368202	0.313076
O3	O	1.433770	0.618202	0.563076
O4	O	1.683770	0.868202	0.813076
O5	O	0.731485	0.134153	0.063051
O6	O	0.981485	0.384153	0.313051
O7	O	1.231485	0.634153	0.563051
O8	O	1.481485	0.884153	0.813051
O9	O	0.829591	-0.011794	0.063056
O10	O	1.079591	0.238206	0.313056
O11	O	1.329591	0.488206	0.563056
O12	O	1.579591	0.738206	0.813056
O13	O	0.835664	0.264149	0.063071
O14	O	1.085664	0.514149	0.313071
O15	O	1.335664	0.764149	0.563071
O16	O	1.585664	1.014149	0.813071
O17	O	0.829609	-0.011814	-0.062841
O18	O	1.079609	0.238186	0.187159
O19	O	1.329609	0.488186	0.437159
O20	O	1.579609	0.738186	0.687159
O21	O	0.731503	0.134133	-0.062846
O22	O	0.981503	0.384133	0.187154
O23	O	1.231503	0.634133	0.437154
O24	O	1.481503	0.884133	0.687154
O25	O	0.933787	0.118182	-0.062821
O26	O	1.183787	0.368182	0.187179
O27	O	1.433787	0.618182	0.437179
O28	O	1.683787	0.868182	0.687179
Cu29	Cu	0.832646	0.126156	-0.074329
Cu30	Cu	1.082646	0.376156	0.175671
Cu31	Cu	1.332646	0.626156	0.425671
Cu32	Cu	1.582646	0.876156	0.675671
Cu33	Cu	0.832626	0.126179	0.074559
Cu34	Cu	1.082626	0.376179	0.324559
Cu35	Cu	1.332626	0.626179	0.574559
Cu36	Cu	1.582626	0.876179	0.824559
O37	O	0.835681	0.264130	-0.062825
O38	O	1.085681	0.514130	0.187175
O39	O	1.335681	0.764130	0.437175
O40	O	1.585681	1.014130	0.687175
C41	C	0.705450	0.133630	0.000099
C42	C	0.955450	0.383630	0.250099
C43	C	1.205450	0.633630	0.500099
C44	C	1.455450	0.883630	0.750099
C45	C	0.627845	0.132092	0.000089
C46	C	0.877845	0.382092	0.250089
C47	C	1.127845	0.632092	0.500089
C48	C	1.377845	0.882092	0.750089
C49	C	0.826942	-0.047107	0.000107
C50	C	1.076942	0.202893	0.250107
C51	C	1.326942	0.452893	0.500107
C52	C	1.576942	0.702893	0.750107
C53	C	0.819013	-0.152299	0.000105
C54	C	1.069013	0.097701	0.250105
C55	C	1.319013	0.347701	0.500105
C56	C	1.569013	0.597701	0.750105
C57	C	0.804517	-0.344899	0.000114
C58	C	1.054517	-0.094899	0.250114
C59	C	1.304517	0.155101	0.500114
C60	C	1.554517	0.405101	0.750114
C61	C	0.860752	-0.402772	0.000123
C62	C	1.110752	-0.152772	0.250123
C63	C	1.360752	0.097228	0.500123
C64	C	1.610752	0.347228	0.750123
C65	C	0.852686	-0.509941	0.000128
C66	C	1.102686	-0.259941	0.250128
C67	C	1.352686	-0.009941	0.500128
C68	C	1.602686	0.240059	0.750128
C69	C	0.812582	-0.237720	0.000109
C70	C	1.062582	0.012280	0.250109
C71	C	1.312582	0.262280	0.500109
C72	C	1.562582	0.512280	0.750109
C73	C	0.591396	0.131363	0.068717
C74	C	0.841396	0.381363	0.318717
C75	C	1.091396	0.631363	0.568717
C76	C	1.341396	0.881363	0.818717
C77	C	0.518478	0.129907	0.068727
C78	C	0.768478	0.379907	0.318727
C79	C	1.018478	0.629907	0.568727
C80	C	1.268478	0.879907	0.818727
C81	C	0.482013	0.129160	0.000104
C82	C	0.732013	0.379160	0.250104
C83	C	0.982013	0.629160	0.500104
C84	C	1.232013	0.879160	0.750104
C85	C	0.518471	0.129894	-0.068534
C86	C	0.768471	0.379894	0.181466
C87	C	1.018471	0.629894	0.431466
C88	C	1.268471	0.879894	0.681466
C89	C	0.591387	0.131360	-0.068541
C90	C	0.841387	0.381360	0.181459
C91	C	1.091387	0.631360	0.431459
C92	C	1.341387	0.881360	0.681459
N93	N	0.369371	0.072924	-0.050969
N94	N	0.619371	0.322924	0.199031
N95	N	0.869371	0.572924	0.449031
N96	N	1.119371	0.822924	0.699031
N97	N	0.300104	0.071529	-0.050957
N98	N	0.550104	0.321529	0.199043
N99	N	0.800104	0.571529	0.449043
N100	N	1.050104	0.821529	0.699043
C101	C	0.262322	0.124745	0.000122
C102	C	0.512322	0.374745	0.250122
C103	C	0.762322	0.624745	0.500122
C104	C	1.012322	0.874745	0.750122
N105	N	0.296423	0.179397	0.051200
N106	N	0.546423	0.429397	0.301200
N107	N	0.796423	0.679397	0.551200
N108	N	1.046423	0.929397	0.801200
N109	N	0.365696	0.180787	0.051191
N110	N	0.615696	0.430787	0.301191
N111	N	0.865696	0.680787	0.551191
N112	N	1.115696	0.930787	0.801191
C113	C	0.402948	0.127571	0.000104
C114	C	0.652948	0.377571	0.250104
C115	C	0.902948	0.627571	0.500104
C116	C	1.152948	0.877571	0.750104
C117	C	0.146807	0.122439	0.068765
C118	C	0.396807	0.372439	0.318765
C119	C	0.646807	0.622439	0.568765
C120	C	0.896807	0.872439	0.818765
C121	C	0.073888	0.120989	0.068771
C122	C	0.323888	0.370989	0.318771
C123	C	0.573888	0.620989	0.568771
C124	C	0.823888	0.870989	0.818771
C125	C	0.073882	0.120966	-0.068491
C126	C	0.323882	0.370966	0.181509
C127	C	0.573882	0.620966	0.431509
C128	C	0.823882	0.870966	0.681509
C129	C	0.146799	0.122426	-0.068495
C130	C	0.396799	0.372426	0.181505
C131	C	0.646799	0.622426	0.431505
C132	C	0.896799	0.872426	0.681505
C133	C	0.183258	0.123158	0.000135
C134	C	0.433258	0.373158	0.250135
C135	C	0.683258	0.623158	0.500135
C136	C	0.933258	0.873158	0.750135
C137	C	0.959823	0.118705	0.000133
C138	C	1.209823	0.368705	0.250133
C139	C	1.459823	0.618705	0.500133
C140	C	1.709823	0.868705	0.750133
C141	C	1.037428	0.120243	0.000148
C142	C	1.287428	0.370243	0.250148
C143	C	1.537428	0.620243	0.500148
C144	C	1.787428	0.870243	0.750148
C145	C	0.838331	0.299442	0.000125
C146	C	1.088331	0.549442	0.250125
C147	C	1.338331	0.799442	0.500125
C148	C	1.588331	1.049442	0.750125
C149	C	0.846259	0.404634	0.000132
C150	C	1.096259	0.654634	0.250132
C151	C	1.346259	0.904634	0.500132
C152	C	1.596259	1.154634	0.750132
N153	N	0.832611	0.126188	0.179278
N154	N	1.082611	0.376188	0.429278
N155	N	1.332611	0.626188	0.679278
N156	N	1.582611	0.876188	0.929278
N157	N	0.832666	0.126139	-0.179048
N158	N	1.082666	0.376139	0.070952
N159	N	1.332666	0.626139	0.320952
N160	N	1.582666	0.876139	0.570952
C161	C	0.878447	0.183626	0.218901
C162	C	1.128447	0.433626	0.468901
C163	C	1.378447	0.683626	0.718901
C164	C	1.628447	0.933626	0.968901
C165	C	0.878452	0.183627	0.298149
C166	C	1.128452	0.433627	0.548149
C167	C	1.378452	0.683627	0.798149
C168	C	1.628452	0.933627	1.048149
C169	C	0.832628	0.126172	0.337770
C170	C	1.082628	0.376172	0.587770
C171	C	1.332628	0.626172	0.837770
C172	C	1.582628	0.876172	1.087770
C173	C	0.786783	0.068730	0.298138
C174	C	1.036783	0.318730	0.548138
C175	C	1.286783	0.568730	0.798138
C176	C	1.536783	0.818730	1.048138
C177	C	0.786775	0.068738	0.218892
C178	C	1.036775	0.318738	0.468892
C179	C	1.286775	0.568738	0.718892
C180	C	1.536775	0.818738	0.968892
N181	N	0.825715	0.043126	0.462178
N182	N	1.075715	0.293126	0.712178
N183	N	1.325715	0.543126	0.962178
N184	N	1.575715	0.793126	1.212178
N185	N	0.825727	0.043121	0.537458
N186	N	1.075727	0.293121	0.787458
N187	N	1.325727	0.543121	1.037458
N188	N	1.575727	0.793121	1.287458
C189	C	0.832648	0.126147	0.576534
C190	C	1.082648	0.376147	0.826534
C191	C	1.332648	0.626147	1.076534
C192	C	1.582648	0.876147	1.326534
N193	N	0.839571	0.209178	0.537486
N194	N	1.089571	0.459178	0.787486
N195	N	1.339571	0.709178	1.037486
N196	N	1.589571	0.959178	1.287486
N197	N	0.839563	0.209182	0.462199
N198	N	1.089563	0.459182	0.712199
N199	N	1.339563	0.709182	0.962199
N200	N	1.589563	0.959182	1.212199
C201	C	0.832631	0.126158	0.423700
C202	C	1.082631	0.376158	0.673700
C203	C	1.332631	0.626158	0.923700
C204	C	1.582631	0.876158	1.173700
C205	C	0.878492	0.183591	0.702087
C206	C	1.128492	0.433591	0.952087
C207	C	1.378492	0.683591	1.202087
C208	C	1.628492	0.933591	1.452087
C209	C	0.878491	0.183594	0.781336
C210	C	1.128491	0.433594	1.031336
C211	C	1.378491	0.683594	1.281336
C212	C	1.628491	0.933594	1.531336
C213	C	0.786826	0.068688	0.781323
C214	C	1.036826	0.318688	1.031323
C215	C	1.286826	0.568688	1.281323
C216	C	1.536826	0.818688	1.531323
C217	C	0.786823	0.068694	0.702076
C218	C	1.036823	0.318694	0.952076
C219	C	1.286823	0.568694	1.202076
C220	C	1.536823	0.818694	1.452076
C221	C	0.832659	0.126144	0.662462
C222	C	1.082659	0.376144	0.912462
C223	C	1.332659	0.626144	1.162462
C224	C	1.582659	0.876144	1.412462
H225	H	0.914954	-0.371832	0.000181
H226	H	1.164954	-0.121832	0.250181
H227	H	1.414954	0.128168	0.500181
H228	H	1.664954	0.378168	0.750181
H229	H	0.488796	0.129315	0.124614
H230	H	0.738796	0.379315	0.374614
H231	H	0.988796	0.629315	0.624614
H232	H	1.238796	0.879315	0.874614
F233	F	0.927246	0.244752	0.340327
F234	F	1.177246	0.494752	0.590327
F235	F	1.427246	0.744752	0.840327
F236	F	1.677246	0.994752	1.090327
H237	H	0.750320	-0.375837	0.000109
H238	H	1.000320	-0.125837	0.250109
H239	H	1.250320	0.124163	0.500109
H240	H	1.500320	0.374163	0.750109
H241	H	0.176477	0.123013	-0.124380
H242	H	0.426477	0.373013	0.125620
H243	H	0.676477	0.623013	0.375620
H244	H	0.926477	0.873013	0.625620
H245	H	0.749512	0.021913	0.813582
H246	H	0.999512	0.271913	1.063582
H247	H	1.249512	0.521913	1.313582
H248	H	1.499512	0.771913	1.563582
H249	H	0.621076	0.131959	0.124601
H250	H	0.871076	0.381959	0.374601
H251	H	1.121076	0.631959	0.624601
H252	H	1.371076	0.881959	0.874601
F253	F	0.479661	0.129104	-0.141567
F254	F	0.729661	0.379104	0.108433
F255	F	0.979661	0.629104	0.358433
F256	F	1.229661	0.879104	0.608433
H257	H	0.621063	0.131954	-0.124428
H258	H	0.871063	0.381954	0.125572
H259	H	1.121063	0.631954	0.375572
H260	H	1.371063	0.881954	0.625572
F261	F	0.738012	0.007587	0.340307
F262	F	0.988012	0.257587	0.590307
F263	F	1.238012	0.507587	0.840307
F264	F	1.488012	0.757587	1.090307
H265	H	0.915769	0.230408	0.186653
H266	H	1.165769	0.480408	0.436653
H267	H	1.415769	0.730408	0.686653
H268	H	1.665769	0.980408	0.936653
H269	H	0.176492	0.123045	0.124647
H270	H	0.426492	0.373045	0.374647
H271	H	0.676492	0.623045	0.624647
H272	H	0.926492	0.873045	0.874647
F273	F	0.738040	0.007556	0.659904
F274	F	0.988040	0.257556	0.909904
F275	F	1.238040	0.507556	1.159904
F276	F	1.488040	0.757556	1.409904
F277	F	0.035077	0.120179	-0.141525
F278	F	0.285077	0.370179	0.108475
F279	F	0.535077	0.620179	0.358475
F280	F	0.785077	0.870179	0.608475
F281	F	0.035096	0.120221	0.141819
F282	F	0.285096	0.370221	0.391819
F283	F	0.535096	0.620221	0.641819
F284	F	0.785096	0.870221	0.891819
F285	F	0.737988	0.007602	0.176721
F286	F	0.987988	0.257602	0.426721
F287	F	1.237988	0.507602	0.676721
F288	F	1.487988	0.757602	0.926721
F289	F	0.927272	0.244736	0.659924
F290	F	1.177272	0.494736	0.909924
F291	F	1.427272	0.744736	1.159924
F292	F	1.677272	0.994736	1.409924
F293	F	0.927267	0.244749	0.823505
F294	F	1.177267	0.494749	1.073505
F295	F	1.427267	0.744749	1.323505
F296	F	1.677267	0.994749	1.573505
