data_functionalizedCrystal
_audit_creation_method	'MofGen! by Chris Wilmer'
_symmetry_space_group_name_H-M	'P1'
_symmetry_Int_Tables_number	1
_symmetry_cell_setting	triclinic
loop_
_symmetry_equiv_pos_as_xyz
  x,y,z
_cell_length_a	14.853558
_cell_length_b	15.500227
_cell_length_c	14.853567
_cell_angle_alpha	87.164088
_cell_angle_beta	83.633032
_cell_angle_gamma	92.847835
loop_
_atom_site_label
_atom_site_type_symbol
_atom_site_fract_x
_atom_site_fract_y
_atom_site_fract_z
O1	O	1.200557	0.071926	0.113485
O2	O	0.938097	0.071929	0.127515
O3	O	1.076338	0.071930	-0.010730
O4	O	1.062316	0.071925	0.251730
O5	O	1.067949	-0.071958	-0.002374
O6	O	0.929708	-0.071959	0.135871
O7	O	1.192168	-0.071962	0.121841
Cu8	Cu	1.060172	-0.085099	0.129619
Cu9	Cu	1.070093	0.085066	0.119737
O10	O	1.053927	-0.071963	0.260086
C11	C	0.900314	-0.000014	0.131059
C12	C	0.800230	-0.000013	0.129158
C13	C	0.757782	0.078424	0.123712
C14	C	0.748635	-0.078449	0.132811
C15	C	0.654601	-0.078450	0.131021
C16	C	0.612154	-0.000013	0.125575
C17	C	0.663740	0.078425	0.121919
C18	C	0.603009	-0.156887	0.134668
C19	C	0.508969	-0.156892	0.132876
C20	C	0.466520	-0.078454	0.127436
C21	C	0.518112	-0.000012	0.123781
C22	C	0.475665	0.078425	0.118335
C23	C	0.527255	0.156867	0.114686
C24	C	0.621291	0.156863	0.116479
C25	C	0.372483	-0.078450	0.125644
C26	C	0.381623	0.078426	0.116542
N27	N	1.053201	-0.204784	0.136569
C28	C	1.111799	-0.250060	0.078011
C29	C	1.106535	-0.340633	0.083276
C30	C	1.042677	-0.385928	0.147103
C31	C	0.984073	-0.340646	0.205663
C32	C	0.989333	-0.250074	0.200394
C33	C	1.023727	-0.659395	0.166071
C34	C	1.018473	-0.749973	0.171338
C35	C	1.140935	-0.749954	0.048949
C36	C	1.146193	-0.659381	0.043688
C37	C	1.087586	-0.614106	0.102245
C38	C	1.037297	-0.478508	0.152488
C39	C	1.092963	-0.521528	0.096856
C40	C	1.229952	-0.000017	0.118297
C41	C	1.330036	-0.000013	0.120198
C42	C	1.071508	-0.000011	-0.040141
C43	C	1.069605	-0.000004	-0.140225
N44	N	1.077071	0.204751	0.112780
C45	C	0.979438	-0.000019	-0.552755
C46	C	1.143671	-0.000021	-0.574041
C47	C	1.145462	-0.000016	-0.480008
C48	C	1.064239	-0.000014	-0.422343
C49	C	0.981226	-0.000017	-0.458712
C50	C	1.228473	-0.000022	-0.443631
C51	C	1.230267	-0.000018	-0.349592
C52	C	1.149043	-0.000010	-0.291926
C53	C	1.066027	-0.000011	-0.328301
C54	C	0.984804	-0.000009	-0.270636
C55	C	0.901787	-0.000005	-0.307009
C56	C	0.900002	-0.000008	-0.401046
C57	C	1.150828	-0.000006	-0.197889
C58	C	0.986592	-0.000007	-0.176594
C59	C	1.058757	-0.000020	0.289497
C60	C	1.060661	-0.000022	0.389581
H61	H	0.492682	0.220731	0.110247
Cl62	Cl	1.245773	-0.000038	-0.646533
H63	H	0.932073	-0.377530	0.257630
Cl64	Cl	0.801998	-0.177050	0.139656
H65	H	1.218419	-0.000015	-0.168278
Cl66	Cl	1.192087	-0.193128	-0.002229
H67	H	1.198192	-0.622504	-0.008285
Cl68	Cl	0.957021	-0.535454	0.232729
H69	H	0.966470	-0.786848	0.223317
Cl70	Cl	0.884477	0.000003	-0.104108
H71	H	0.835655	-0.000009	-0.260046
Cl72	Cl	0.950055	-0.602484	0.239687
H73	H	0.832414	-0.000006	-0.430670
H74	H	1.188650	-0.786825	0.001273
H75	H	0.347069	0.142300	0.112112
Cl76	Cl	0.915660	-0.193156	0.274010
H77	H	1.294600	-0.000032	-0.490587
Cl78	Cl	1.173236	-0.464585	0.016616
Cl79	Cl	0.875080	-0.000006	-0.598479
H80	H	1.154250	-0.377497	0.035593
H81	H	0.637578	-0.220746	0.139094
H82	H	0.663303	0.220727	0.113507
Cl83	Cl	0.822634	0.177032	0.119126
Cl84	Cl	0.444121	-0.255503	0.137476
Cl85	Cl	1.334629	-0.000009	-0.303876
H86	H	0.330482	-0.142316	0.128623
