data_functionalizedCrystal
_audit_creation_method	'MofGen! by Chris Wilmer'
_symmetry_space_group_name_H-M	'P1'
_symmetry_Int_Tables_number	1
_symmetry_cell_setting	triclinic
loop_
_symmetry_equiv_pos_as_xyz
  x,y,z
_cell_length_a	10.654562
_cell_length_b	10.723024
_cell_length_c	9.730223
_cell_angle_alpha	89.999810
_cell_angle_beta	89.996961
_cell_angle_gamma	84.478987
loop_
_atom_site_label
_atom_site_type_symbol
_atom_site_fract_x
_atom_site_fract_y
_atom_site_fract_z
O1	O	1.667798	0.175345	-0.114377
O2	O	2.167798	0.675345	0.385623
O3	O	1.302319	0.192027	-0.114359
O4	O	1.802319	0.692027	0.385641
O5	O	1.493489	0.002112	-0.114363
O6	O	1.993489	0.502112	0.385637
O7	O	1.476629	0.365261	-0.114373
O8	O	1.976629	0.865261	0.385627
O9	O	1.493487	0.002116	0.114217
O10	O	1.993487	0.502116	0.614217
O11	O	1.302317	0.192032	0.114221
O12	O	1.802317	0.692032	0.614221
O13	O	1.667796	0.175350	0.114203
O14	O	2.167796	0.675350	0.614203
Zn15	Zn	1.485056	0.183692	0.150504
Zn16	Zn	1.985056	0.683692	0.650504
Zn17	Zn	1.485059	0.183685	-0.150660
Zn18	Zn	1.985059	0.683685	0.349340
O19	O	1.476626	0.365265	0.114207
O20	O	1.976626	0.865265	0.614207
C21	C	1.255521	0.190802	-0.000067
C22	C	1.755521	0.690802	0.499933
C23	C	1.116079	0.187127	-0.000060
C24	C	1.616079	0.687127	0.499940
C25	C	1.050547	0.185415	0.124528
C26	C	1.550547	0.685415	0.624528
C27	C	0.919525	0.181973	0.124505
C28	C	1.419525	0.681973	0.624505
C29	C	0.919578	0.181958	-0.124705
C30	C	1.419578	0.681958	0.375295
C31	C	1.050598	0.185392	-0.124681
C32	C	1.550598	0.685392	0.375319
C33	C	1.050515	0.185429	0.268408
C34	C	1.550515	0.685429	0.768408
C35	C	0.919493	0.181986	0.268385
C36	C	1.419493	0.681986	0.768385
C37	C	1.492261	-0.044386	-0.000075
C38	C	1.992261	0.455614	0.499925
C39	C	1.488590	-0.182941	-0.000079
C40	C	1.988590	0.317059	0.499921
C41	C	1.595559	-0.257903	-0.000086
C42	C	2.095559	0.242097	0.499914
C43	C	1.591767	-0.401107	-0.000091
C44	C	2.091767	0.098893	0.499909
C45	C	1.714595	0.176575	-0.000092
C46	C	2.214595	0.676575	0.499908
C47	C	1.854037	0.180250	-0.000107
C48	C	2.354037	0.680250	0.499893
C49	C	1.477854	0.411763	-0.000084
C50	C	1.977854	0.911763	0.499916
C51	C	1.481525	0.550318	-0.000088
C52	C	1.981525	1.050318	0.499912
N53	N	1.485063	0.183695	0.356040
N54	N	1.985063	0.683695	0.856040
N55	N	1.485062	0.183672	-0.356196
N56	N	1.985062	0.683672	0.143804
C57	C	1.569735	0.099629	0.427965
C58	C	2.069735	0.599629	0.927965
C59	C	1.569732	0.099614	0.571848
C60	C	2.069732	0.599614	1.071848
C61	C	1.400381	0.267742	0.571869
C62	C	1.900381	0.767742	1.071869
C63	C	1.400379	0.267750	0.427989
C64	C	1.900379	0.767750	0.927989
C65	C	1.667513	0.002566	0.427953
C66	C	2.167513	0.502566	0.927953
C67	C	1.667509	0.002550	0.571836
C68	C	2.167509	0.502550	1.071836
H69	H	0.866248	0.180546	-0.226167
H70	H	1.366248	0.680546	0.273833
Cl71	Cl	1.733157	-0.500552	-0.000090
Cl72	Cl	2.233157	-0.000552	0.499910
Cl73	Cl	1.342856	-0.247528	-0.000086
Cl74	Cl	1.842856	0.252472	0.499914
H75	H	1.080075	0.276442	0.313049
H76	H	1.580075	0.776442	0.813049
Cl77	Cl	0.873805	0.041602	0.337612
Cl78	Cl	1.373805	0.541602	0.837612
H79	H	1.389947	-0.385275	-0.000073
H80	H	1.889947	0.114725	0.499927
H81	H	1.331422	0.336192	0.369430
H82	H	1.831422	0.836192	0.869430
Cl83	Cl	1.121965	0.052287	0.353715
Cl84	Cl	1.621965	0.552287	0.853715
H85	H	1.103952	0.186766	-0.226133
H86	H	1.603952	0.686766	0.273867
Cl87	Cl	0.848001	0.315136	0.353657
Cl88	Cl	1.348001	0.815136	0.853657
Cl89	Cl	1.293926	0.373405	0.662328
Cl90	Cl	1.793926	0.873405	1.162328
Cl91	Cl	1.620411	-0.137385	0.640737
Cl92	Cl	2.120411	0.362615	1.140737
H93	H	1.689945	-0.216062	-0.000082
H94	H	2.189945	0.283938	0.499918
Cl95	Cl	1.634428	-0.145519	0.367652
Cl96	Cl	2.134428	0.354481	0.867652
Cl97	Cl	1.816507	0.035557	0.632130
Cl98	Cl	2.316507	0.535557	1.132130
H99	H	1.758691	0.032963	0.383322
H100	H	2.258691	0.532963	0.883322
