data_functionalizedCrystal
_audit_creation_method	'MofGen! by Chris Wilmer'
_symmetry_space_group_name_H-M	'P1'
_symmetry_Int_Tables_number	1
_symmetry_cell_setting	triclinic
loop_
_symmetry_equiv_pos_as_xyz
  x,y,z
_cell_length_a	10.654546
_cell_length_b	27.732048
_cell_length_c	9.730223
_cell_angle_alpha	89.993758
_cell_angle_beta	89.998853
_cell_angle_gamma	83.563069
loop_
_atom_site_label
_atom_site_type_symbol
_atom_site_fract_x
_atom_site_fract_y
_atom_site_fract_z
O1	O	1.664983	0.067876	-0.114337
O2	O	1.299232	0.074345	-0.114334
O3	O	1.493467	0.000784	-0.114309
O4	O	1.470748	0.141437	-0.114362
O5	O	1.493465	0.000786	0.114271
O6	O	1.299230	0.074347	0.114246
O7	O	1.664981	0.067878	0.114243
Zn8	Zn	1.482105	0.071113	0.150536
Zn9	Zn	1.482108	0.071110	-0.150627
O10	O	1.470746	0.141438	0.114218
C11	C	1.252453	0.073872	-0.000044
C12	C	1.113069	0.072451	-0.000042
C13	C	1.492989	-0.017224	-0.000016
C14	C	1.491553	-0.070888	-0.000004
C15	C	1.047604	0.071778	-0.124647
C16	C	0.916639	0.070440	-0.124657
C17	C	0.916618	0.070446	0.124553
C18	C	1.047579	0.071788	0.124562
C19	C	1.047616	0.071773	-0.268527
C20	C	0.916652	0.070435	-0.268537
C21	C	1.597293	-0.409045	-0.000076
C22	C	1.591965	-0.610738	-0.000095
O23	O	1.688656	-0.641392	-0.000155
N24	N	1.476791	-0.630579	-0.000093
C25	C	1.362942	-0.599992	-0.000095
O26	O	1.264858	-0.621496	-0.000108
C27	C	1.368271	-0.398301	-0.000086
C28	C	1.483452	-0.378463	-0.000074
C29	C	1.712464	-0.389207	-0.000065
C30	C	1.713795	-0.338787	-0.000053
C31	C	1.599954	-0.308205	-0.000051
C32	C	1.484783	-0.328043	-0.000061
C33	C	1.254423	-0.367715	-0.000098
C34	C	1.255766	-0.317290	-0.000099
C35	C	1.370947	-0.297452	-0.000087
C36	C	1.372273	-0.247040	-0.000047
N37	N	1.487446	-0.227200	-0.000049
C38	C	1.601287	-0.257782	-0.000051
C39	C	1.360152	-0.705884	-0.000097
C40	C	1.358819	-0.756307	-0.000097
C41	C	1.587843	-0.767049	-0.000099
C42	C	1.589174	-0.716625	-0.000090
C43	C	1.475325	-0.686043	-0.000099
C44	C	1.604073	-0.151896	-0.000024
C45	C	1.605394	-0.101471	-0.000006
C46	C	1.376371	-0.090733	-0.000011
C47	C	1.375050	-0.141153	-0.000022
C48	C	1.488911	-0.171734	-0.000033
O49	O	1.275633	-0.216358	-0.000002
O50	O	1.699357	-0.236269	-0.000069
C51	C	1.595962	-0.459466	-0.000088
C52	C	1.480790	-0.479304	-0.000098
C53	C	1.366950	-0.448721	-0.000096
C54	C	1.479458	-0.529726	-0.000098
C55	C	1.593298	-0.560309	-0.000100
C56	C	1.708472	-0.540468	-0.000102
C57	C	1.709802	-0.490048	-0.000090
C58	C	1.251777	-0.468562	-0.000094
C59	C	1.250455	-0.518982	-0.000105
C60	C	1.364296	-0.549565	-0.000107
C61	C	1.711760	0.068351	-0.000050
C62	C	1.851144	0.069771	-0.000061
C63	C	1.471224	0.159447	-0.000078
C64	C	1.472660	0.213111	-0.000099
N65	N	1.482112	0.071114	0.356073
N66	N	1.482111	0.071105	-0.356164
C67	C	1.568141	0.038552	0.428010
C68	C	1.568138	0.038547	0.571893
C69	C	1.396073	0.103668	0.571889
C70	C	1.396071	0.103671	0.428009
C71	C	1.667485	0.000956	0.428013
C72	C	1.667482	0.000951	0.571896
H73	H	1.100874	0.072341	0.226028
O74	O	1.782303	0.010768	0.618331
C75	C	1.876464	-0.024977	0.569944
H76	H	1.841159	-0.042631	0.473701
H77	H	1.965403	-0.007454	0.544291
H78	H	1.898973	-0.053749	0.652709
H79	H	0.863279	0.069906	0.226001
H80	H	1.071001	0.105900	-0.323782
O81	O	1.312380	0.135233	0.358062
C82	C	1.235449	0.109071	0.274810
H83	H	1.234077	0.070944	0.318176
H84	H	1.135256	0.128432	0.273170
H85	H	1.274802	0.106681	0.165768
H86	H	1.100786	0.037351	-0.313148
H87	H	0.863493	0.104855	-0.313208
O88	O	1.825716	-0.319545	-0.000299
C89	C	1.895053	-0.335145	-0.118670
H90	H	1.827674	-0.345853	-0.201409
H91	H	1.947888	-0.304426	-0.158410
H92	H	1.965664	-0.367770	-0.091910
O93	O	1.249436	-0.676249	-0.000033
C94	C	1.147510	-0.704580	-0.000061
H95	H	1.180150	-0.742099	0.043208
H96	H	1.067806	-0.686262	0.066310
H97	H	1.112155	-0.708287	-0.109720
H98	H	0.893272	0.036305	-0.323766
O99	O	1.312377	0.135311	0.641557
C100	C	1.236467	0.164060	0.547205
H101	H	1.235444	0.144242	0.444641
H102	H	1.136042	0.171071	0.588773
H103	H	1.276529	0.200114	0.531905
H104	H	1.699192	-0.085322	0.000007
O105	O	1.643532	-0.043342	0.381501
C106	C	1.524592	-0.053516	0.429953
H107	H	1.464232	-0.018079	0.455511
H108	H	1.475657	-0.073743	0.347259
H109	H	1.537705	-0.076953	0.526265
O110	O	1.714791	-0.181528	0.000031
C111	C	1.816716	-0.153197	0.000009
H112	H	1.784076	-0.115683	0.043287
H113	H	1.896421	-0.171521	0.066375
H114	H	1.852072	-0.149478	-0.109649
O115	O	1.823027	-0.418930	-0.000308
C116	C	1.829123	-0.448424	-0.118670
H117	H	1.764541	-0.430184	-0.201421
H118	H	1.930389	-0.453738	-0.158399
H119	H	1.797372	-0.485200	-0.091904
O120	O	1.775663	0.015071	0.374941
C121	C	1.789755	0.062505	0.419810
H122	H	1.733799	0.070437	0.518660
H123	H	1.893892	0.065771	0.439797
H124	H	1.752974	0.089663	0.337259
O125	O	1.632648	-0.040890	0.625199
C126	C	1.523661	-0.030268	0.706736
H127	H	1.471237	0.005905	0.673128
H128	H	1.459401	-0.060169	0.693756
H129	H	1.552213	-0.027953	0.819253
H130	H	1.682964	-0.700477	-0.000081
O131	O	1.698315	-0.796831	-0.000174
C132	C	1.672424	-0.845587	-0.000144
H133	H	1.573821	-0.847847	-0.043400
H134	H	1.745030	-0.868181	-0.066526
H135	H	1.677487	-0.860158	0.109513
H136	H	1.265028	-0.772453	-0.000083
H137	H	1.160631	-0.383858	-0.000116
H138	H	1.163054	-0.292392	-0.000109
H139	H	1.281260	-0.157306	0.000007
H140	H	1.283685	-0.065824	-0.000005
O141	O	1.821801	-0.470861	-0.000149
C142	C	1.921979	-0.508674	-0.000119
H143	H	1.887443	-0.543037	-0.043396
H144	H	2.002457	-0.497866	-0.066483
H145	H	1.957046	-0.515696	0.109541
O146	O	1.819025	-0.570201	-0.000351
C147	C	1.825074	-0.599688	-0.118725
H148	H	1.760496	-0.581434	-0.201460
H149	H	1.926333	-0.605016	-0.158470
H150	H	1.793285	-0.636459	-0.091968
H151	H	1.156654	-0.535129	-0.000103
H152	H	1.159072	-0.443666	-0.000096
