data_functionalizedCrystal
_audit_creation_method	'MofGen! by Chris Wilmer'
_symmetry_space_group_name_H-M	'P1'
_symmetry_Int_Tables_number	1
_symmetry_cell_setting	triclinic
loop_
_symmetry_equiv_pos_as_xyz
  x,y,z
_cell_length_a	14.853567
_cell_length_b	15.995292
_cell_length_c	13.930277
_cell_angle_alpha	89.998637
_cell_angle_beta	89.995755
_cell_angle_gamma	83.551773
loop_
_atom_site_label
_atom_site_type_symbol
_atom_site_fract_x
_atom_site_fract_y
_atom_site_fract_z
O1	O	1.196196	0.109320	-0.079758
O2	O	0.933716	0.122342	-0.079773
O3	O	1.072159	-0.006051	-0.079767
O4	O	1.057754	0.237714	-0.079764
O5	O	1.072140	-0.006054	0.079895
O6	O	0.933697	0.122340	0.079889
O7	O	1.196177	0.109317	0.079904
Zn8	Zn	1.064934	0.115828	0.105246
Zn9	Zn	1.064960	0.115832	-0.105115
O10	O	1.057735	0.237711	0.079897
C11	C	0.900119	0.121751	0.000056
C12	C	0.800038	0.119983	0.000049
C13	C	1.071563	-0.037249	0.000062
C14	C	1.069805	-0.130204	0.000055
C15	C	0.387636	0.036239	0.000070
C16	C	0.366115	0.188774	0.000070
C17	C	0.460146	0.190437	0.000067
C18	C	0.517927	0.115000	0.000064
C19	C	0.481676	0.037900	0.000064
C20	C	0.496404	0.267535	0.000058
C21	C	0.590441	0.269201	0.000054
C22	C	0.648223	0.193763	0.000057
C23	C	0.611967	0.116660	0.000058
C24	C	0.669747	0.041223	0.000055
C25	C	0.633493	-0.035881	0.000063
C26	C	0.539459	-0.037539	0.000068
C27	C	0.742258	0.195420	0.000052
C28	C	0.763788	0.042883	0.000049
C29	C	1.063344	-0.467950	0.000063
C30	C	1.163268	-0.444522	0.000426
C31	C	1.165167	-0.347844	0.000062
C32	C	1.066550	-0.300390	0.000059
C33	C	1.016604	-0.329548	-0.091115
C34	C	1.015401	-0.426340	-0.091188
C35	C	1.013338	-0.426202	0.090377
C36	C	1.017041	-0.329706	0.091579
C37	C	1.068357	-0.205692	0.000054
C38	C	1.061534	-0.562648	0.000062
C39	C	1.229775	0.109908	0.000073
C40	C	1.329856	0.111677	0.000073
C41	C	1.058331	0.268909	0.000067
C42	C	1.060088	0.361864	0.000068
N43	N	1.064924	0.115825	0.248812
N44	N	1.064977	0.115828	-0.248681
C45	C	1.003655	0.172662	0.701078
C46	C	1.126289	0.058995	0.701054
C47	C	1.126278	0.058992	0.600558
C48	C	1.064956	0.115826	0.550318
C49	C	1.003644	0.172663	0.600573
C50	C	1.187595	0.002162	0.550295
C51	C	1.187587	0.002158	0.449793
C52	C	1.126260	0.058988	0.399551
C53	C	1.064945	0.115827	0.449813
C54	C	1.003623	0.172661	0.399573
C55	C	0.942303	0.229496	0.449833
C56	C	0.942317	0.229494	0.550331
C57	C	1.126246	0.058991	0.299052
C58	C	1.003612	0.172662	0.299068
H59	H	0.680550	-0.097302	0.000054
C60	C	1.255039	-0.060356	0.605554
H61	H	1.291560	-0.094200	0.561230
H62	H	1.222617	-0.095266	0.644761
H63	H	1.292563	-0.030169	0.644756
H64	H	0.810827	-0.018548	0.000050
H65	H	1.237516	-0.044121	0.408878
C66	C	0.782139	0.280221	0.000041
H67	H	0.846418	0.270406	0.000032
H68	H	0.762304	0.311291	0.055714
H69	H	0.762310	0.311279	-0.055648
H70	H	1.176176	0.012720	0.258135
H71	H	0.942136	-0.440975	-0.095321
H72	H	0.319065	0.250192	0.000065
C73	C	0.499577	-0.122343	0.000066
H74	H	0.435298	-0.112525	0.000058
H75	H	0.519404	-0.153413	0.055741
H76	H	0.519412	-0.153403	-0.055621
H77	H	1.053410	-0.311099	0.159029
C78	C	1.218021	-0.322079	0.088343
H79	H	1.238526	-0.370740	0.124750
H80	H	1.179550	-0.284330	0.126920
H81	H	1.268616	-0.295286	0.067816
C82	C	0.874854	0.292011	0.394562
H83	H	0.883633	0.283866	0.327511
H84	H	0.884624	0.347912	0.411029
H85	H	0.814688	0.282808	0.411035
H86	H	0.892393	0.275767	0.591259
C87	C	0.347762	-0.048568	0.000075
H88	H	0.283483	-0.038757	0.000074
H89	H	0.367598	-0.079635	0.055749
H90	H	0.367595	-0.079628	-0.055613
H91	H	0.449353	0.328952	0.000050
H92	H	0.619950	0.331984	0.000047
H93	H	0.944035	-0.297765	-0.094507
H94	H	1.201775	-0.472475	0.065811
H95	H	1.201577	-0.473494	-0.064588
H96	H	1.050007	-0.453115	-0.159341
H97	H	1.176220	0.012726	0.741963
C98	C	1.218333	-0.322910	-0.088383
H99	H	1.238846	-0.371895	-0.124236
H100	H	1.268920	-0.296023	-0.068056
H101	H	1.180020	-0.285438	-0.127437
H102	H	0.953727	0.218934	0.742003
H103	H	1.044798	-0.454256	0.159487
C104	C	1.063476	-0.302403	-0.182779
H105	H	1.032753	-0.320334	-0.237571
H106	H	1.124641	-0.327248	-0.183596
H107	H	1.061939	-0.242872	-0.183725
C108	C	0.919804	-0.285277	0.099025
H109	H	0.908072	-0.248108	0.046175
H110	H	0.913324	-0.254225	0.157217
H111	H	0.878021	-0.326092	0.098254
H112	H	0.939787	-0.440279	0.090989
C113	C	0.936160	0.235182	0.243806
H114	H	0.944932	0.227043	0.176754
H115	H	0.945935	0.291081	0.260278
H116	H	0.875996	0.225979	0.260285
