data_functionalizedCrystal
_audit_creation_method	'MofGen! by Chris Wilmer'
_symmetry_space_group_name_H-M	'P1'
_symmetry_Int_Tables_number	1
_symmetry_cell_setting	triclinic
loop_
_symmetry_equiv_pos_as_xyz
  x,y,z
_cell_length_a	13.032721
_cell_length_b	19.077241
_cell_length_c	19.076919
_cell_angle_alpha	90.113904
_cell_angle_beta	99.138159
_cell_angle_gamma	80.235812
loop_
_atom_site_label
_atom_site_type_symbol
_atom_site_fract_x
_atom_site_fract_y
_atom_site_fract_z
Zn1	Zn	-0.383275	-1.024257	-0.471971
Zn2	Zn	-0.552470	-1.013873	-0.368328
Zn3	Zn	-0.382719	-0.911522	-0.349703
Zn4	Zn	-0.566552	-0.890442	-0.482218
O5	O	-0.471254	-0.960024	-0.418055
O6	O	-0.400058	-1.121716	-0.461729
O7	O	-0.523826	-1.004773	-0.267025
O8	O	-0.235048	-0.939645	-0.353839
O9	O	-0.524366	-1.114087	-0.385583
O10	O	-0.235457	-1.022470	-0.443669
O11	O	-0.399110	-0.929576	-0.253341
O12	O	-0.412765	-0.809890	-0.363775
O13	O	-0.548367	-0.903717	-0.579691
O14	O	-0.547827	-0.794402	-0.461133
O15	O	-0.413713	-1.002030	-0.572163
O16	O	-0.702082	-0.984332	-0.395519
O17	O	-0.712428	-0.893648	-0.479193
C18	C	-0.481765	-0.776519	-0.411545
C19	C	-0.486288	-0.698012	-0.408779
C20	C	-0.745564	-0.935594	-0.440505
C21	C	-0.862912	-0.925207	-0.450135
C22	C	-0.423804	-0.665089	-0.447202
C23	C	-0.428048	-0.591323	-0.444596
C24	C	-0.494783	-0.550482	-0.403571
C25	C	-0.557269	-0.583410	-0.365143
C26	C	-0.553018	-0.657174	-0.367745
C27	C	-0.514418	-0.329445	-0.391526
C28	C	-0.518666	-0.255675	-0.388928
C29	C	-0.389444	-0.263594	-0.468381
C30	C	-0.385204	-0.337359	-0.470983
C31	C	-0.447686	-0.370281	-0.432552
N32	N	-0.499125	-0.475082	-0.400909
N33	N	-0.443337	-0.445681	-0.435211
C34	C	-0.910076	-0.965481	-0.413062
C35	C	-1.031362	-0.954746	-0.423014
C36	C	-0.195873	-0.984567	-0.395533
C37	C	-0.078522	-0.995026	-0.385936
C38	C	-0.482673	-0.951680	-0.602270
C39	C	-0.487539	-0.948125	-0.680771
C40	C	-0.460697	-0.144246	-0.424585
C41	C	-0.456183	-0.222753	-0.427352
C42	C	-0.419721	-0.997638	-0.713733
C43	C	-0.424290	-0.994289	-0.787493
C44	C	-0.496682	-0.941429	-0.828290
C45	C	-0.564502	-0.891911	-0.795323
C46	C	-0.559928	-0.895257	-0.721564
C47	C	-0.517876	-0.925929	-1.049305
C48	C	-0.522447	-0.922588	-1.123070
C49	C	-0.382233	-1.024966	-1.115234
C50	C	-0.377669	-1.028310	-1.041475
C51	C	-0.445486	-0.978789	-1.008514
N52	N	-0.501356	-0.938006	-0.903684
N53	N	-0.440806	-0.982210	-0.933120
C54	C	-0.459801	-0.968382	-0.234552
C55	C	-0.454630	-0.972101	-0.156031
H56	H	-0.369464	-0.698337	-0.480611
C57	C	-0.320706	-0.227379	-0.510643
C58	C	-0.372929	-0.170083	-0.568008
C59	C	-0.304183	-0.133868	-0.610268
C60	C	-0.183214	-0.154948	-0.595164
C61	C	-0.130985	-0.212247	-0.537797
C62	C	-0.199731	-0.248462	-0.495536
H63	H	-0.462483	-0.154475	-0.579191
H64	H	-0.342847	-0.091452	-0.652735
H65	H	-0.132324	-0.128140	-0.626448
H66	H	-0.041431	-0.227855	-0.526614
H67	H	-0.161067	-0.290878	-0.453069
C68	C	-0.583161	-0.365648	-0.349261
C69	C	-0.569980	-0.359902	-0.267904
C70	C	-0.638732	-0.396106	-0.225638
C71	C	-0.720664	-0.438057	-0.264730
C72	C	-0.733849	-0.443805	-0.346092
C73	C	-0.665098	-0.407601	-0.388357
H74	H	-0.509326	-0.328846	-0.238962
H75	H	-0.628971	-0.391851	-0.165409
H76	H	-0.771558	-0.464858	-0.233442
H77	H	-0.794504	-0.474862	-0.375034
H78	H	-0.674858	-0.411856	-0.448586
C79	C	-0.349687	-1.048757	-0.823747
C80	C	-0.353081	-1.128740	-0.817166
C81	C	-0.278470	-1.183209	-0.853418
C82	C	-0.200465	-1.157695	-0.896251
C83	C	-0.197068	-1.077708	-0.902834
C84	C	-0.271679	-1.023239	-0.866582
H85	H	-0.410827	-1.147630	-0.785456
H86	H	-0.280985	-1.242421	-0.848544
H87	H	-0.145234	-1.198017	-0.923087
H88	H	-0.139322	-1.058817	-0.934543
H89	H	-0.269164	-0.964027	-0.871456
H90	H	-0.377170	-0.564521	-0.475886
H91	H	-0.318723	-1.071356	-1.008262
H92	H	-0.603898	-0.683979	-0.336457
H93	H	-0.912325	-0.882782	-0.489246
H94	H	-0.573112	-0.885615	-1.022479
H95	H	-0.611600	-0.550151	-0.331736
H96	H	-0.623442	-0.848869	-0.828545
C97	C	-0.634530	-0.840795	-0.685300
C98	C	-0.631144	-0.760811	-0.691881
C99	C	-0.705745	-0.706346	-0.655617
C100	C	-0.783731	-0.731866	-0.612772
C101	C	-0.787120	-0.811854	-0.606189
C102	C	-0.712520	-0.866319	-0.642453
H103	H	-0.573411	-0.741916	-0.723599
H104	H	-0.703235	-0.647133	-0.660490
H105	H	-0.838955	-0.691548	-0.585927
H106	H	-0.844853	-0.830749	-0.574471
H107	H	-0.715029	-0.925532	-0.637580
H108	H	-0.581400	-0.879540	-1.156285
H109	H	-0.330866	-0.370608	-0.504393
H110	H	-0.360775	-1.040684	-0.680521
C111	C	-0.592070	-0.210745	-0.343794
C112	C	-0.577695	-0.225283	-0.263149
C113	C	-0.651094	-0.180351	-0.218018
C114	C	-0.738868	-0.120882	-0.253532
C115	C	-0.753248	-0.106342	-0.334181
C116	C	-0.679848	-0.151274	-0.379312
H117	H	-0.512715	-0.269308	-0.236855
H118	H	-0.640449	-0.191115	-0.158316
H119	H	-0.793203	-0.087621	-0.220123
H120	H	-0.818227	-0.062317	-0.360475
H121	H	-0.690493	-0.140510	-0.439014
H122	H	-0.860666	-1.007912	-0.373956
H123	H	-1.080771	-0.912318	-0.462128
C124	C	-1.011789	-1.052349	-0.333097
C125	C	-1.022255	-1.048959	-0.253833
C126	C	-0.955523	-1.106281	-0.200995
C127	C	-0.878326	-1.166993	-0.227421
C128	C	-0.867857	-1.170387	-0.306689
C129	C	-0.934588	-1.113064	-0.359527
H130	H	-1.079404	-1.004013	-0.234268
H131	H	-0.963273	-1.103769	-0.142316
H132	H	-0.828927	-1.209427	-0.188307
H133	H	-0.810708	-1.215332	-0.326254
H134	H	-0.926838	-1.115577	-0.418206
H135	H	-0.327019	-1.065282	-1.142079
