data_functionalizedCrystal
_audit_creation_method	'MofGen! by Chris Wilmer'
_symmetry_space_group_name_H-M	'P1'
_symmetry_Int_Tables_number	1
_symmetry_cell_setting	triclinic
loop_
_symmetry_equiv_pos_as_xyz
  x,y,z
_cell_length_a	17.640112
_cell_length_b	13.897448
_cell_length_c	13.897441
_cell_angle_alpha	90.030599
_cell_angle_beta	78.825410
_cell_angle_gamma	101.242525
loop_
_atom_site_label
_atom_site_type_symbol
_atom_site_fract_x
_atom_site_fract_y
_atom_site_fract_z
Zn1	Zn	1.208346	-0.085573	0.247765
Zn2	Zn	1.541679	0.247760	0.581098
Zn3	Zn	1.875013	0.581094	0.914432
Zn4	Zn	1.208259	-0.246916	0.086488
Zn5	Zn	1.541592	0.086417	0.419821
Zn6	Zn	1.874926	0.419751	0.753154
Zn7	Zn	1.076171	-0.118257	0.119038
Zn8	Zn	1.409504	0.215076	0.452372
Zn9	Zn	1.742837	0.548410	0.785705
Zn10	Zn	1.076156	-0.279473	0.280278
Zn11	Zn	1.409489	0.053860	0.613611
Zn12	Zn	1.742822	0.387194	0.946944
O13	O	1.142233	-0.182555	0.183392
O14	O	1.475566	0.150779	0.516725
O15	O	1.808900	0.484112	0.850059
O16	O	1.318936	-0.079672	0.199142
O17	O	1.652269	0.253662	0.532476
O18	O	1.985603	0.586995	0.865809
O19	O	1.190707	-0.229902	-0.044169
O20	O	1.524041	0.103431	0.289165
O21	O	1.857374	0.436764	0.622498
O22	O	1.093747	0.021071	0.136130
O23	O	1.427080	0.354404	0.469463
O24	O	1.760413	0.687737	0.802797
O25	O	1.318872	-0.198210	0.080652
O26	O	1.652206	0.135124	0.413986
O27	O	1.985539	0.468457	0.747319
O28	O	1.190855	0.045084	0.230705
O29	O	1.524189	0.378417	0.564038
O30	O	1.857522	0.711750	0.897372
O31	O	1.093662	-0.135377	-0.020254
O32	O	1.426996	0.197956	0.313079
O33	O	1.760329	0.531290	0.646413
O34	O	0.965567	-0.166946	0.167656
O35	O	1.298900	0.166387	0.500989
O36	O	1.632234	0.499720	0.834323
O37	O	1.093721	-0.253699	0.410939
O38	O	1.427054	0.079635	0.744272
O39	O	1.760388	0.412968	1.077606
O40	O	0.965556	-0.285391	0.286118
O41	O	1.298889	0.047942	0.619451
O42	O	1.632223	0.381276	0.952785
O43	O	1.190841	-0.111241	0.387052
O44	O	1.524174	0.222092	0.720386
O45	O	1.857507	0.555426	1.053719
O46	O	1.190693	-0.386227	0.112179
O47	O	1.524026	-0.052894	0.445512
O48	O	1.857359	0.280440	0.778845
O49	O	1.093637	-0.410146	0.254555
O50	O	1.426970	-0.076813	0.587888
O51	O	1.760304	0.256520	0.921222
C52	C	0.936884	-0.233249	0.233948
C53	C	1.270217	0.100084	0.567281
C54	C	1.603550	0.433418	0.900614
C55	C	0.849035	-0.254959	0.255599
C56	C	1.182368	0.078374	0.588932
C57	C	1.515701	0.411707	0.922265
C58	C	1.142175	-0.433183	0.183378
C59	C	1.475508	-0.099850	0.516712
C60	C	1.808842	0.233483	0.850045
C61	C	1.142223	-0.540385	0.183387
C62	C	1.475556	-0.207052	0.516720
C63	C	1.808889	0.126281	0.850054
C64	C	0.560028	-0.017606	0.018922
C65	C	0.893362	0.315727	0.352255
C66	C	1.226695	0.649061	0.685588
C67	C	0.477481	-0.038026	0.039279
C68	C	0.810814	0.295307	0.372612
C69	C	1.144147	0.628641	0.705945
C70	C	0.477524	-0.161532	0.162420
C71	C	0.810857	0.171801	0.495754
C72	C	1.144190	0.505134	0.829087
C73	C	0.560073	-0.141119	0.142077
C74	C	0.893406	0.192214	0.475410
C75	C	1.226740	0.525547	0.808743
C76	C	0.601319	-0.069156	0.070326
C77	C	0.934652	0.264177	0.403659
C78	C	1.267986	0.597511	0.736992
C79	C	0.601363	-0.192670	0.193481
C80	C	0.934697	0.140664	0.526814
C81	C	1.268030	0.473997	0.860147
C82	C	0.683906	-0.172262	0.173135
C83	C	1.017239	0.161072	0.506468
C84	C	1.350572	0.494405	0.839802
C85	C	0.725157	-0.100304	0.101385
C86	C	1.058491	0.233030	0.434718
C87	C	1.391824	0.566363	0.768052
C88	C	0.683861	-0.048748	0.049980
C89	C	1.017194	0.284585	0.383313
C90	C	1.350528	0.617918	0.716646
C91	C	0.560116	-0.264637	0.265227
C92	C	0.893449	0.068696	0.598560
C93	C	1.226783	0.402029	0.931893
C94	C	0.601406	-0.316187	0.316631
C95	C	0.934740	0.017146	0.649964
C96	C	1.268073	0.350479	0.983298
C97	C	0.683950	-0.295775	0.296290
C98	C	1.017283	0.037558	0.629624
C99	C	1.350617	0.370892	0.962957
C100	C	0.725202	-0.223817	0.224540
C101	C	1.058535	0.109516	0.557874
C102	C	1.391869	0.442850	0.891207
C103	C	0.725246	-0.347331	0.347696
C104	C	1.058580	-0.013997	0.681029
C105	C	1.391913	0.319336	1.014362
C106	C	0.807789	-0.326923	0.327350
C107	C	1.141122	0.006411	0.660683
C108	C	1.474455	0.339744	0.994016
C109	C	0.807744	-0.203409	0.204194
C110	C	1.141077	0.129924	0.537528
C111	C	1.474411	0.463257	0.870861
C112	C	1.142306	-0.736660	0.183427
C113	C	1.475639	-0.403327	0.516760
C114	C	1.808972	-0.069993	0.850094
C115	C	1.142257	-0.627440	0.183408
C116	C	1.475591	-0.294106	0.516742
C117	C	1.808924	0.039227	0.850075
C118	C	1.348384	-0.131663	0.132640
C119	C	1.681717	0.201670	0.465973
C120	C	2.015050	0.535003	0.799306
C121	C	1.436233	-0.109976	0.111012
C122	C	1.769566	0.223357	0.444345
C123	C	2.102900	0.556690	0.777679
C124	C	1.142289	-0.182456	0.434971
C125	C	1.475622	0.150878	0.768305
C126	C	1.808956	0.484211	1.101638
C127	C	1.142313	-0.182413	0.542180
C128	C	1.475646	0.150920	0.875513
C129	C	1.808979	0.484253	1.208846
C130	C	1.142312	0.069058	0.183422
C131	C	1.475646	0.402391	0.516755
C132	C	1.808979	0.735725	0.850088
C133	C	1.142346	0.176280	0.183434
C134	C	1.475679	0.509614	0.516768
C135	C	1.809013	0.842947	0.850101
C136	C	1.142222	-0.182573	-0.067220
C137	C	1.475556	0.150761	0.266114
C138	C	1.808889	0.484094	0.599447
C139	C	1.142352	-0.182305	-0.174465
C140	C	1.475685	0.151028	0.158868
C141	C	1.809018	0.484361	0.492202
C142	C	1.142334	-0.182343	0.738470
C143	C	1.475668	0.150990	1.071803
C144	C	1.809001	0.484324	1.405136
C145	C	1.142320	-0.182385	0.629241
C146	C	1.475653	0.150948	0.962574
C147	C	1.808987	0.484281	1.295907
H148	H	0.841329	-0.144795	0.145782
H149	H	1.174662	0.188538	0.479115
H150	H	1.507996	0.521871	0.812448
H151	H	0.841408	-0.368899	0.369209
H152	H	1.174741	-0.035566	0.702542
H153	H	1.508075	0.297768	1.035876
H154	H	0.792369	-0.083691	0.084819
H155	H	1.125702	0.249642	0.418152
H156	H	1.459035	0.582976	0.751486
H157	H	0.443930	-0.220127	0.220837
H158	H	0.777263	0.113206	0.554171
H159	H	1.110597	0.446539	0.887504
H160	H	0.443865	0.003965	-0.002579
H161	H	0.777198	0.337298	0.330754
H162	H	1.110532	0.670631	0.664087
H163	H	0.717446	0.009866	-0.008433
H164	H	1.050779	0.343199	0.324900
H165	H	1.384113	0.676532	0.658234
H166	H	0.691652	-0.405930	0.406108
H167	H	1.024985	-0.072596	0.739442
H168	H	1.358318	0.260737	1.072775
H169	H	0.492905	-0.281251	0.281790
H170	H	0.826238	0.052082	0.615123
H171	H	1.159571	0.385416	0.948456
H172	H	0.593613	0.041008	-0.039491
H173	H	0.926947	0.374341	0.293842
H174	H	1.260280	0.707675	0.627176
H175	H	0.567813	-0.374783	0.375048
H176	H	0.901146	-0.041449	0.708381
H177	H	1.234479	0.291884	1.041715
