data_functionalizedCrystal
_audit_creation_method	'MofGen! by Chris Wilmer'
_symmetry_space_group_name_H-M	'P1'
_symmetry_Int_Tables_number	1
_symmetry_cell_setting	triclinic
loop_
_symmetry_equiv_pos_as_xyz
  x,y,z
_cell_length_a	13.897448
_cell_length_b	11.169417
_cell_length_c	11.169409
_cell_angle_alpha	90.021683
_cell_angle_beta	89.964424
_cell_angle_gamma	89.983370
loop_
_atom_site_label
_atom_site_type_symbol
_atom_site_fract_x
_atom_site_fract_y
_atom_site_fract_z
Zn1	Zn	-0.383964	-1.834901	-0.678575
Zn2	Zn	-0.050631	-1.501568	-0.345242
Zn3	Zn	0.282703	-1.168234	-0.011909
Zn4	Zn	-0.545300	-1.834765	-0.477881
Zn5	Zn	-0.211966	-1.501431	-0.144547
Zn6	Zn	0.121367	-1.168098	0.188786
Zn7	Zn	-0.384017	-1.634187	-0.477903
Zn8	Zn	-0.050684	-1.300854	-0.144570
Zn9	Zn	0.282649	-0.967520	0.188764
Zn10	Zn	-0.545216	-1.634169	-0.678519
Zn11	Zn	-0.211882	-1.300835	-0.345186
Zn12	Zn	0.121451	-0.967502	-0.011852
O13	O	-0.464624	-1.734505	-0.578220
O14	O	-0.131291	-1.401172	-0.244886
O15	O	0.202042	-1.067839	0.088447
O16	O	-0.405378	-2.002833	-0.651967
O17	O	-0.072045	-1.669499	-0.318633
O18	O	0.261288	-1.336166	0.014700
O19	O	-0.523963	-1.808108	-0.309934
O20	O	-0.190629	-1.474775	0.023399
O21	O	0.142704	-1.141441	0.356733
O22	O	-0.249029	-1.660877	-0.504555
O23	O	0.084305	-1.327543	-0.171222
O24	O	0.417638	-0.994210	0.162111
O25	O	-0.523911	-2.002732	-0.504517
O26	O	-0.190578	-1.669399	-0.171184
O27	O	0.142756	-1.336066	0.162149
O28	O	-0.248990	-1.808341	-0.651988
O29	O	0.084344	-1.475007	-0.318655
O30	O	0.417677	-1.141674	0.014678
O31	O	-0.405469	-1.660745	-0.309950
O32	O	-0.072136	-1.327411	0.023383
O33	O	0.261197	-0.994078	0.356716
O34	O	-0.405388	-1.466235	-0.504501
O35	O	-0.072055	-1.132901	-0.171168
O36	O	0.261279	-0.799568	0.162166
O37	O	-0.523768	-1.660846	-0.846476
O38	O	-0.190435	-1.327512	-0.513143
O39	O	0.142899	-0.994179	-0.179810
O40	O	-0.523820	-1.466221	-0.651893
O41	O	-0.190486	-1.132888	-0.318560
O42	O	0.142847	-0.799555	0.014774
O43	O	-0.405297	-1.808323	-0.846518
O44	O	-0.071964	-1.474990	-0.513184
O45	O	0.261370	-1.141656	-0.179851
O46	O	-0.680270	-1.808090	-0.504463
O47	O	-0.346937	-1.474757	-0.171130
O48	O	-0.013604	-1.141424	0.162204
O49	O	-0.680209	-1.660713	-0.651871
O50	O	-0.346875	-1.327380	-0.318538
O51	O	-0.013542	-0.994047	0.014795
C52	C	-0.464601	-1.422681	-0.578194
C53	C	-0.131268	-1.089347	-0.244861
C54	C	0.202065	-0.756014	0.088473
C55	C	-0.464615	-1.289281	-0.578212
C56	C	-0.131281	-0.955947	-0.244878
C57	C	0.202052	-0.622614	0.088455
C58	C	-0.715239	-1.734418	-0.578185
C59	C	-0.381905	-1.401084	-0.244851
C60	C	-0.048572	-1.067751	0.088482
C61	C	-0.822453	-1.734490	-0.578210
C62	C	-0.489119	-1.401157	-0.244877
C63	C	-0.155786	-1.067823	0.088457
C64	C	-1.018748	-1.734616	-0.578285
C65	C	-0.685414	-1.401283	-0.244952
C66	C	-0.352081	-1.067949	0.088381
C67	C	-0.909515	-1.734543	-0.578247
C68	C	-0.576182	-1.401209	-0.244914
C69	C	-0.242848	-1.067876	0.088420
C70	C	-0.213031	-1.734626	-0.578281
C71	C	0.120302	-1.401293	-0.244947
C72	C	0.453635	-1.067959	0.088386
C73	C	-0.105817	-1.734677	-0.578307
C74	C	0.227516	-1.401344	-0.244973
C75	C	0.560849	-1.068011	0.088360
C76	C	-0.464517	-1.734597	-0.891262
C77	C	-0.131184	-1.401264	-0.557929
C78	C	0.202149	-1.067931	-0.224595
C79	C	-0.464472	-1.734637	-1.024662
C80	C	-0.131138	-1.401303	-0.691329
C81	C	0.202195	-1.067970	-0.357996
C82	C	-0.464640	-1.047548	-0.578236
C83	C	-0.131307	-0.714214	-0.244903
C84	C	0.202027	-0.380881	0.088430
C85	C	-0.464626	-1.180948	-0.578219
C86	C	-0.131293	-0.847614	-0.244886
C87	C	0.202041	-0.514281	0.088447
C88	C	-0.464661	-1.734483	-0.266395
C89	C	-0.131328	-1.401149	0.066939
C90	C	0.202005	-1.067816	0.400272
C91	C	-0.464435	-1.734676	-0.132995
C92	C	-0.131102	-1.401342	0.200338
C93	C	0.202231	-1.068009	0.533671
