data_functionalizedCrystal
_audit_creation_method	'MofGen! by Chris Wilmer'
_symmetry_space_group_name_H-M	'P1'
_symmetry_Int_Tables_number	1
_symmetry_cell_setting	triclinic
loop_
_symmetry_equiv_pos_as_xyz
  x,y,z
_cell_length_a	15.944480
_cell_length_b	15.944551
_cell_length_c	15.021413
_cell_angle_alpha	89.996935
_cell_angle_beta	90.006395
_cell_angle_gamma	83.484293
loop_
_atom_site_label
_atom_site_type_symbol
_atom_site_fract_x
_atom_site_fract_y
_atom_site_fract_z
O1	O	-1.114566	-0.108038	-0.074015
O2	O	-0.870008	-0.121456	-0.074021
O3	O	-0.998965	0.007529	-0.074010
O4	O	-0.985609	-0.237024	-0.074026
O5	O	-0.998945	0.007511	0.074054
O6	O	-0.869988	-0.121475	0.074043
O7	O	-1.114545	-0.108056	0.074049
Zn8	Zn	-0.992263	-0.114769	0.097555
Zn9	Zn	-0.992290	-0.114744	-0.097526
O10	O	-0.985588	-0.237042	0.074038
C11	C	-0.838703	-0.120919	0.000010
C12	C	-0.745454	-0.119280	0.000008
C13	C	-0.509692	-0.195212	0.000001
C14	C	-0.459124	-0.154282	0.073011
C15	C	-0.574732	-0.116244	0.000009
C16	C	-0.459148	-0.154245	-0.072969
C17	C	-0.409821	-0.113317	0.000006
C18	C	-0.525391	-0.075336	0.073079
C19	C	-0.525419	-0.075311	-0.072966
C20	C	-0.474883	-0.034323	0.000061
C21	C	-0.669732	-0.117933	0.000012
C22	C	-0.314823	-0.111622	0.000010
C23	C	-0.998401	0.038814	0.000022
C24	C	-0.996738	0.132060	0.000023
C25	C	-0.145849	-0.108605	0.000014
C26	C	-0.239094	-0.110278	0.000006
C27	C	-0.986153	-0.268327	0.000004
C28	C	-0.987815	-0.361572	-0.000002
N29	N	-0.992251	-0.114785	0.230692
C30	C	-0.912831	0.346895	0.000009
C31	C	-0.951785	0.407913	0.073014
C32	C	-0.993731	0.302785	0.000016
C33	C	-0.951824	0.407915	-0.072966
C34	C	-0.990820	0.467697	0.000005
C35	C	-1.032707	0.362575	0.073082
C36	C	-1.032735	0.362570	-0.072963
C37	C	-1.071747	0.423570	0.000060
C38	C	-0.995405	0.207783	0.000023
C39	C	-0.989152	0.562697	0.000005
N40	N	-0.992309	-0.114722	-0.230664
C41	C	-0.932612	-0.174399	0.470370
C42	C	-1.008515	-0.190687	0.529705
C43	C	-0.992272	-0.114764	0.412299
C44	C	-0.916390	-0.098495	0.529706
C45	C	-0.992286	-0.114745	0.587723
C46	C	-1.068214	-0.131089	0.470328
C47	C	-0.976039	-0.038863	0.470323
C48	C	-1.051997	-0.055119	0.529631
C49	C	-0.992263	-0.114776	0.311242
C50	C	-0.992304	-0.114732	0.688778
H51	H	-0.430218	-0.187603	-0.134685
H52	H	-0.845681	0.313570	0.000080
C53	C	-0.497163	-0.328202	0.076635
C54	C	-0.530803	-0.287027	0.000089
H55	H	-0.510203	-0.384881	0.076693
H56	H	-0.437645	-0.327775	0.077160
H57	H	-0.520841	-0.299879	0.127965
H58	H	-0.507120	-0.315347	-0.051242
H59	H	-0.590333	-0.287459	-0.000444
H60	H	-0.917605	0.427991	-0.134690
H61	H	-0.882210	-0.224873	0.444350
C62	C	-1.105725	0.406924	0.207811
C63	C	-1.078849	0.335599	0.156497
H64	H	-1.134214	0.390267	0.259303
H65	H	-1.058187	0.433901	0.225253
H66	H	-1.143015	0.444968	0.173678
H67	H	-1.041554	0.297557	0.190627
H68	H	-1.126394	0.308608	0.139056
C69	C	-0.959447	-0.312239	0.617549
C70	C	-1.027066	-0.277323	0.564928
H71	H	-0.970899	-0.365723	0.639296
H72	H	-0.909390	-0.318897	0.582767
H73	H	-0.952206	-0.275780	0.666283
H74	H	-1.034303	-0.313778	0.516191
H75	H	-1.077137	-0.270669	0.599712
C76	C	-0.822383	0.395957	0.156197
C77	C	-0.905585	0.435045	0.156330
H78	H	-0.793858	0.412709	0.207629
H79	H	-0.822659	0.336419	0.156526
H80	H	-0.794203	0.412245	0.104352
H81	H	-0.933767	0.418751	0.208173
H82	H	-0.905313	0.494595	0.156011
C83	C	-1.154034	-0.149739	0.342062
C84	C	-1.154850	-0.149831	0.435274
H85	H	-1.207510	-0.161336	0.320423
H86	H	-1.142456	-0.095999	0.321224
H87	H	-1.111591	-0.191830	0.321326
H88	H	-1.197289	-0.107735	0.456011
H89	H	-1.166438	-0.203579	0.456121
C90	C	-1.036422	0.358026	-0.232662
C91	C	-1.078897	0.335405	-0.156283
H92	H	-1.064914	0.341247	-0.284103
H93	H	-1.035260	0.417447	-0.233557
H94	H	-0.980286	0.330710	-0.232129
H95	H	-1.135032	0.362725	-0.156812
H96	H	-1.080068	0.275972	-0.155388
H97	H	-1.138956	0.456746	0.000103
H98	H	-0.554211	-0.042014	0.134864
C99	C	-1.199551	-0.004258	0.534411
C100	C	-1.120184	0.012975	0.564550
H101	H	-1.241646	0.037775	0.555976
H102	H	-1.200215	-0.004202	0.471184
H103	H	-1.210621	-0.058032	0.555649
H104	H	-1.109110	0.066747	0.543306
H105	H	-1.119518	0.012928	0.627790
H106	H	-0.962272	0.025295	0.444219
H107	H	-0.852212	-0.084743	0.555790
H108	H	-0.554374	-0.041979	-0.134688
H109	H	-0.430177	-0.187639	0.134729
H110	H	-0.459417	0.033747	0.000108
