data_functionalizedCrystal
_audit_creation_method	'MofGen! by Chris Wilmer'
_symmetry_space_group_name_H-M	'P1'
_symmetry_Int_Tables_number	1
_symmetry_cell_setting	triclinic
loop_
_symmetry_equiv_pos_as_xyz
  x,y,z
_cell_length_a	23.532407
_cell_length_b	27.731996
_cell_length_c	22.010155
_cell_angle_alpha	89.998256
_cell_angle_beta	89.996931
_cell_angle_gamma	82.735033
loop_
_atom_site_label
_atom_site_type_symbol
_atom_site_fract_x
_atom_site_fract_y
_atom_site_fract_z
O1	O	0.755125	0.058673	-0.050457
O2	O	1.255125	0.558673	0.449543
O3	O	0.589242	0.067164	-0.050476
O4	O	1.089242	0.567164	0.449524
O5	O	0.677351	-0.007472	-0.050453
O6	O	1.177351	0.492528	0.449547
O7	O	0.667016	0.133309	-0.050480
O8	O	1.167016	0.633309	0.449520
O9	O	0.677335	-0.007461	0.050597
O10	O	1.177335	0.492539	0.550597
O11	O	0.589226	0.067175	0.050574
O12	O	1.089226	0.567175	0.550574
O13	O	0.755109	0.058685	0.050593
O14	O	1.255109	0.558685	0.550593
Cu15	Cu	0.672166	0.062931	0.059810
Cu16	Cu	1.172166	0.562931	0.559810
Cu17	Cu	0.672185	0.062918	-0.059693
Cu18	Cu	1.172185	0.562918	0.440307
O19	O	0.667000	0.133320	0.050570
O20	O	1.167000	0.633320	0.550570
C21	C	0.568019	0.066953	0.000047
C22	C	1.068019	0.566953	0.500047
C23	C	0.504803	0.066303	0.000040
C24	C	1.004803	0.566303	0.500040
C25	C	0.677131	-0.025474	0.000074
C26	C	1.177131	0.474526	0.500074
C27	C	0.676491	-0.079131	0.000080
C28	C	1.176491	0.420869	0.500080
C29	C	0.105606	0.106394	0.000060
C30	C	0.605606	0.606394	0.500060
C31	C	0.046207	0.105790	0.000064
C32	C	0.546207	0.605790	0.500064
O33	O	0.009375	0.142955	0.000079
O34	O	0.509375	0.642955	0.500079
N35	N	0.023685	0.061419	0.000071
N36	N	0.523685	0.561419	0.500071
C37	C	0.060566	0.017649	0.000081
C38	C	0.560566	0.517649	0.500081
O39	O	0.035955	-0.020147	0.000089
O40	O	0.535955	0.479853	0.500089
C41	C	0.119963	0.018253	0.000082
C42	C	0.619963	0.518253	0.500082
C43	C	0.142482	0.062627	0.000068
C44	C	0.642482	0.562627	0.500068
C45	C	0.128124	0.150764	0.000047
C46	C	0.628124	0.650764	0.500047
C47	C	0.187519	0.151368	0.000042
C48	C	0.687519	0.651368	0.500042
C49	C	0.224395	0.107601	0.000050
C50	C	0.724395	0.607601	0.500050
C51	C	0.201876	0.063231	0.000063
C52	C	0.701876	0.563231	0.500063
C53	C	0.156843	-0.025516	0.000096
C54	C	0.656843	0.474484	0.500096
C55	C	0.216244	-0.024908	0.000097
C56	C	0.716244	0.475092	0.500097
C57	C	0.238762	0.019466	0.000083
C58	C	0.738762	0.519466	0.500083
C59	C	0.298147	0.020068	0.000066
C60	C	0.798147	0.520068	0.500066
N61	N	0.320669	0.064439	0.000059
N62	N	0.820669	0.564439	0.500059
C63	C	0.283793	0.108206	0.000051
C64	C	0.783793	0.608206	0.500051
C65	C	-0.064174	0.016383	0.000081
C66	C	0.435826	0.516383	0.500081
C67	C	-0.123570	0.015778	0.000077
C68	C	0.376430	0.515778	0.500077
C69	C	-0.137925	0.103920	0.000060
C70	C	0.362075	0.603920	0.500060
C71	C	-0.078528	0.104524	0.000061
C72	C	0.421472	0.604524	0.500061
C73	C	-0.041652	0.060754	0.000074
C74	C	0.458348	0.560754	0.500074
C75	C	0.408526	0.109470	0.000040
C76	C	0.908526	0.609470	0.500040
C77	C	0.467927	0.110070	0.000032
C78	C	0.967927	0.610070	0.500032
C79	C	0.482277	0.021929	0.000052
C80	C	0.982277	0.521929	0.500052
C81	C	0.422881	0.021329	0.000056
C82	C	0.922881	0.521329	0.500056
C83	C	0.386007	0.065103	0.000052
C84	C	0.886007	0.565103	0.500052
O85	O	0.335014	-0.017077	0.000054
O86	O	0.835014	0.482923	0.500054
O87	O	0.308412	0.145996	0.000051
O88	O	0.808412	0.645996	0.500051
C89	C	0.672477	-0.411860	-0.055032
C90	C	1.172477	0.088140	0.444968
C91	C	0.670049	-0.613522	-0.055043
C92	C	1.170049	-0.113522	0.444957
O93	O	0.669718	-0.639598	-0.101889
O94	O	1.169718	-0.139598	0.398111
N95	N	0.669738	-0.638733	0.000039
N96	N	1.169738	-0.138733	0.500039
C97	C	0.670031	-0.613526	0.055127
C98	C	1.170031	-0.113526	0.555127
O99	O	0.669706	-0.639596	0.101978
O100	O	1.169706	-0.139596	0.601978
C101	C	0.672456	-0.411864	0.055138
C102	C	1.172456	0.088136	0.555138
C103	C	0.672772	-0.386656	0.000052
C104	C	1.172772	0.113344	0.500052
C105	C	0.672792	-0.386652	-0.110113
C106	C	1.172792	0.113348	0.389887
C107	C	0.673403	-0.336239	-0.110110
C108	C	1.173403	0.163761	0.389890
C109	C	0.673697	-0.311036	-0.055026
C110	C	1.173697	0.188964	0.444974
C111	C	0.673382	-0.336244	0.000055
C112	C	1.173382	0.163756	0.500055
C113	C	0.672745	-0.386657	0.110226
C114	C	1.172745	0.113343	0.610226
C115	C	0.673349	-0.336239	0.110223
C116	C	1.173349	0.163761	0.610223
C117	C	0.673665	-0.311030	0.055138
C118	C	1.173665	0.188970	0.555138
C119	C	0.674287	-0.260628	0.055143
C120	C	1.174287	0.239372	0.555143
N121	N	0.674597	-0.235417	0.000061
N122	N	1.174597	0.264583	0.500061
C123	C	0.674302	-0.260620	-0.055023
C124	C	1.174302	0.239380	0.444977
C125	C	0.668760	-0.719401	0.055118
C126	C	1.168760	-0.219401	0.555118
C127	C	0.668155	-0.769816	0.055116
C128	C	1.168155	-0.269816	0.555116
C129	C	0.668171	-0.769809	-0.055055
C130	C	1.168171	-0.269809	0.444945
C131	C	0.668780	-0.719393	-0.055052
C132	C	1.168780	-0.219393	0.444948
C133	C	0.669070	-0.694190	0.000036
C134	C	1.169070	-0.194190	0.500036
C135	C	0.675584	-0.154751	-0.055012
C136	C	1.175584	0.345249	0.444988
C137	C	0.676197	-0.104335	-0.055004
C138	C	1.176197	0.395665	0.444996
C139	C	0.676177	-0.104347	0.055167
C140	C	1.176177	0.395653	0.555167
C141	C	0.675568	-0.154759	0.055159
C142	C	1.175568	0.345241	0.555159
C143	C	0.675269	-0.179960	0.000064
C144	C	1.175269	0.320040	0.500064
O145	O	0.674612	-0.234520	0.101965
O146	O	1.174612	0.265480	0.601965
O147	O	0.674615	-0.234540	-0.101867
O148	O	1.174615	0.265460	0.398133
C149	C	0.671867	-0.462272	-0.055036
C150	C	1.171867	0.037728	0.444964
C151	C	0.671551	-0.487480	0.000046
C152	C	1.171551	0.012520	0.500046
C153	C	0.671846	-0.462277	0.055130
C154	C	1.171846	0.037723	0.555130
C155	C	0.670946	-0.537896	0.000043
C156	C	1.170946	-0.037896	0.500043
C157	C	0.670652	-0.563099	-0.055041
C158	C	1.170652	-0.063099	0.444959
C159	C	0.670962	-0.537888	-0.110123
C160	C	1.170962	-0.037888	0.389877
C161	C	0.671572	-0.487476	-0.110120
C162	C	1.171572	0.012524	0.389880
C163	C	0.671536	-0.487488	0.110212
C164	C	1.171536	0.012512	0.610212
C165	C	0.670926	-0.537900	0.110204
C166	C	1.170926	-0.037900	0.610204
C167	C	0.670632	-0.563104	0.055120
C168	C	1.170632	-0.063104	0.555120
C169	C	0.776333	0.058895	0.000069
C170	C	1.276333	0.558895	0.500069
C171	C	0.839549	0.059545	0.000072
C172	C	1.339549	0.559545	0.500072
C173	C	0.667221	0.151323	0.000041
C174	C	1.167221	0.651323	0.500041
C175	C	0.667860	0.204980	0.000031
C176	C	1.167860	0.704980	0.500031
N177	N	0.672157	0.062940	0.143863
N178	N	1.172157	0.562940	0.643863
N179	N	0.672199	0.062905	-0.143746
N180	N	1.172199	0.562905	0.356254
C181	C	0.711202	0.029874	0.563653
C182	C	1.211202	0.529874	1.063653
C183	C	0.711205	0.029870	0.627260
C184	C	1.211205	0.529870	1.127260
O185	O	0.744379	0.001762	0.660160
O186	O	1.244379	0.501762	1.160160
N187	N	0.672185	0.062907	0.659070
N188	N	1.172185	0.562907	1.159070
C189	C	0.633156	0.095947	0.627269
C190	C	1.133156	0.595947	1.127269
O191	O	0.599967	0.124047	0.660166
O192	O	1.099967	0.624047	1.160166
C193	C	0.633151	0.095948	0.563663
C194	C	1.133151	0.595948	1.063663
C195	C	0.672177	0.062911	0.531856
C196	C	1.172177	0.562911	1.031856
C197	C	0.750225	-0.003160	0.531846
C198	C	1.250225	0.496840	1.031846
C199	C	0.750223	-0.003156	0.468243
C200	C	1.250223	0.496844	0.968243
C201	C	0.711198	0.029882	0.436446
C202	C	1.211198	0.529882	0.936446
C203	C	0.672175	0.062916	0.468253
C204	C	1.172175	0.562916	0.968253
C205	C	0.594120	0.128984	0.531863
C206	C	1.094120	0.628984	1.031863
C207	C	0.594118	0.128982	0.468252
C208	C	1.094118	0.628982	0.968252
C209	C	0.633144	0.095946	0.436445
C210	C	1.133144	0.595946	0.936445
C211	C	0.633148	0.095958	0.372853
C212	C	1.133148	0.595958	0.872853
N213	N	0.672168	0.062920	0.341043
N214	N	1.172168	0.562920	0.841043
C215	C	0.711193	0.029882	0.372840
C216	C	1.211193	0.529882	0.872840
C217	C	0.633169	0.095943	0.760847
C218	C	1.133169	0.595943	1.260847
C219	C	0.633176	0.095945	0.824452
C220	C	1.133176	0.595945	1.324452
C221	C	0.711224	0.029867	0.824439
C222	C	1.211224	0.529867	1.324439
C223	C	0.711219	0.029868	0.760832
C224	C	1.211219	0.529868	1.260832
C225	C	0.672189	0.062905	0.729037
C226	C	1.172189	0.562905	1.229037
C227	C	0.711186	0.029894	0.239268
C228	C	1.211186	0.529894	0.739268
C229	C	0.711182	0.029902	0.175660
C230	C	1.211182	0.529902	0.675660
C231	C	0.633132	0.095978	0.175678
C232	C	1.133132	0.595978	0.675678
C233	C	0.633138	0.095971	0.239282
C234	C	1.133138	0.595971	0.739282
C235	C	0.672167	0.062925	0.271075
C236	C	1.172167	0.562925	0.771075
O237	O	0.599989	0.124050	0.339912
O238	O	1.099989	0.624050	0.839912
O239	O	0.744372	0.001783	0.339935
O240	O	1.244372	0.501783	0.839935
H241	H	0.378510	0.145116	0.000038
H242	H	0.878510	0.645116	0.500038
H243	H	0.673658	-0.315719	-0.154966
H244	H	1.173658	0.184281	0.345034
H245	H	0.486258	0.146206	0.000020
H246	H	0.986258	0.646206	0.500020
N247	N	0.753304	-0.005764	0.726522
N248	N	1.253304	0.494236	1.226522
H249	H	0.793674	-0.000373	0.737583
H250	H	1.293674	0.499627	1.237583
H251	H	0.747007	-0.040029	0.737608
H252	H	1.247007	0.459971	1.237608
N253	N	-0.054239	0.152382	0.000054
N254	N	0.445761	0.652382	0.500054
H255	H	-0.029912	0.154595	-0.037405
H256	H	0.470088	0.654595	0.462595
H257	H	-0.086648	0.179987	0.000071
H258	H	0.413352	0.679987	0.500071
N259	N	0.672514	-0.413835	-0.169531
N260	N	1.172514	0.086165	0.330469
H261	H	0.672819	-0.390210	-0.204418
H262	H	1.172819	0.109790	0.295582
H263	H	0.707597	-0.438829	-0.171899
H264	H	1.207597	0.061171	0.328101
N265	N	0.211794	0.199232	0.000036
N266	N	0.711794	0.699232	0.500036
H267	H	0.236114	0.201454	0.037496
H268	H	0.736114	0.701454	0.537496
H269	H	0.236090	0.201423	-0.037448
H270	H	0.736090	0.701423	0.462552
H271	H	0.601360	0.122878	0.149780
H272	H	1.101360	0.622878	0.649780
H273	H	0.676455	-0.083813	-0.099863
H274	H	1.176455	0.416187	0.400137
H275	H	0.098105	0.186406	0.000042
H276	H	0.598105	0.686406	0.500042
H277	H	0.742964	0.003000	0.149765
H278	H	1.242964	0.503000	0.649765
H279	H	0.601365	0.122877	0.265179
H280	H	1.101365	0.622877	0.765179
H281	H	0.562341	0.155885	0.557751
H282	H	1.062341	0.655885	1.057751
N283	N	0.256015	-0.072119	0.000105
N284	N	0.756015	0.427881	0.500105
H285	H	0.297062	-0.065007	0.000101
H286	H	0.797062	0.434993	0.500101
H287	H	0.248765	-0.091462	0.037572
H288	H	0.748765	0.408538	0.537572
N289	N	0.753317	-0.005768	0.858740
N290	N	1.253317	0.494232	1.358740
H291	H	0.747393	-0.000754	0.903860
H292	H	1.247393	0.499246	1.403860
H293	H	0.747048	-0.040033	0.847625
H294	H	1.247048	0.459967	1.347625
H295	H	0.512312	-0.013705	0.000056
H296	H	1.012312	0.486295	0.500056
N297	N	-0.177690	0.151135	0.000064
N298	N	0.322310	0.651135	0.500064
H299	H	-0.202659	0.152856	-0.037391
H300	H	0.297341	0.652856	0.462609
H301	H	-0.202613	0.152823	0.037553
H302	H	0.297387	0.652823	0.537553
N303	N	-0.147854	-0.032082	0.000080
N304	N	0.352146	0.467918	0.500080
H305	H	-0.115476	-0.059713	0.000084
H306	H	0.384524	0.440287	0.500084
H307	H	-0.172186	-0.034251	0.037543
H308	H	0.327814	0.465749	0.537543
N309	N	0.675242	-0.181954	0.114570
N310	N	1.175242	0.318046	0.614570
H311	H	0.639672	-0.198780	0.117025
H312	H	1.139672	0.301220	0.617025
H313	H	0.710332	-0.206937	0.116984
H314	H	1.210332	0.293063	0.616984
N315	N	0.792329	-0.038791	0.566132
N316	N	1.292329	0.461209	1.066132
H317	H	0.786091	-0.073073	0.555063
H318	H	1.286091	0.426927	1.055063
H319	H	0.832670	-0.033342	0.555029
H320	H	1.332670	0.466658	1.055029
H321	H	-0.034152	-0.019262	0.000087
H322	H	0.465848	0.480738	0.500087
N323	N	0.132565	-0.073377	0.000114
N324	N	0.632565	0.426623	0.500114
H325	H	0.164947	-0.101006	0.000124
H326	H	0.664947	0.398994	0.500124
H327	H	0.108235	-0.075542	0.037578
H328	H	0.608235	0.424458	0.537578
H329	H	0.671777	-0.466972	0.155069
H330	H	1.171777	0.033028	0.655069
H331	H	0.404547	-0.014804	0.000058
H332	H	0.904547	0.485196	0.500058
N333	N	0.675278	-0.181930	-0.114433
N334	N	1.175278	0.318070	0.385567
H335	H	0.675577	-0.158305	-0.149322
H336	H	1.175577	0.341695	0.350678
H337	H	0.710351	-0.206934	-0.116820
H338	H	1.210351	0.293066	0.383180
N339	N	0.669121	-0.692206	-0.114465
N340	N	1.169121	-0.192206	0.385535
H341	H	0.668844	-0.715827	-0.149358
H342	H	1.168844	-0.215827	0.350642
H343	H	0.634053	-0.667199	-0.116872
H344	H	1.134053	-0.167199	0.383128
N345	N	0.676501	-0.077158	0.114577
N346	N	1.176501	0.422842	0.614577
H347	H	0.676933	-0.041396	0.106215
H348	H	1.176933	0.458604	0.606215
H349	H	0.641070	-0.081877	0.138626
H350	H	1.141070	0.418123	0.638626
N351	N	0.667854	-0.796998	-0.114469
N352	N	1.167854	-0.296998	0.385531
H353	H	0.667423	-0.832760	-0.106107
H354	H	1.167423	-0.332760	0.393893
H355	H	0.632642	-0.784096	-0.138524
H356	H	1.132642	-0.284096	0.361476
N357	N	0.753284	-0.005745	0.273554
N358	N	1.253284	0.494255	0.773554
H359	H	0.778003	-0.026667	0.243746
H360	H	1.278003	0.473333	0.743746
H361	H	0.778293	0.012655	0.299940
H362	H	1.278293	0.512655	0.799940
H363	H	0.667906	-0.790338	0.099972
H364	H	1.167906	-0.290338	0.599972
H365	H	0.601387	0.122850	0.734962
H366	H	1.101387	0.622850	1.234962
N367	N	0.792313	-0.038790	0.433942
N368	N	1.292313	0.461210	0.933942
H369	H	0.817031	-0.059718	0.463744
H370	H	1.317031	0.440282	0.963744
H371	H	0.770704	-0.060068	0.407555
H372	H	1.270704	0.439932	0.907555
H373	H	0.668999	-0.698885	0.099980
H374	H	1.168999	-0.198885	0.599980
H375	H	0.562333	0.155885	0.442367
H376	H	1.062333	0.655885	0.942367
N377	N	0.672405	-0.413838	0.169640
N378	N	1.172405	0.086162	0.669640
H379	H	0.672680	-0.390214	0.204531
H380	H	1.172680	0.109786	0.704531
H381	H	0.636832	-0.430663	0.172036
H382	H	1.136832	0.069337	0.672036
H383	H	0.601403	0.122851	0.850345
H384	H	1.101403	0.622851	1.350345
H385	H	0.673577	-0.315719	0.155084
H386	H	1.173577	0.184281	0.655084
H387	H	0.671829	-0.466956	-0.154976
H388	H	1.171829	0.033044	0.345024
H389	H	0.670725	-0.558418	-0.154975
H390	H	1.170725	-0.058418	0.345025
H391	H	0.670673	-0.558421	0.155065
H392	H	1.170673	-0.058421	0.655065
