data_functionalizedCrystal
_audit_creation_method	'MofGen! by Chris Wilmer'
_symmetry_space_group_name_H-M	'P1'
_symmetry_Int_Tables_number	1
_symmetry_cell_setting	triclinic
loop_
_symmetry_equiv_pos_as_xyz
  x,y,z
_cell_length_a	18.215407
_cell_length_b	19.121063
_cell_length_c	18.215399
_cell_angle_alpha	92.409843
_cell_angle_beta	89.980167
_cell_angle_gamma	92.469446
loop_
_atom_site_label
_atom_site_type_symbol
_atom_site_fract_x
_atom_site_fract_y
_atom_site_fract_z
Zn1	Zn	1.112559	-0.279613	-0.428596
Zn2	Zn	1.107212	-0.397068	-0.310772
Zn3	Zn	0.989491	-0.279636	-0.305544
Zn4	Zn	0.984203	-0.397029	-0.433795
O5	O	1.048366	-0.338336	-0.369677
O6	O	1.214834	-0.295200	-0.412978
O7	O	1.091570	-0.381516	-0.207095
O8	O	1.010267	-0.181348	-0.317504
O9	O	1.210905	-0.381494	-0.326414
O10	O	1.100685	-0.181331	-0.407909
O11	O	1.005081	-0.295240	-0.203255
O12	O	0.885805	-0.295202	-0.322545
O13	O	1.001255	-0.381427	-0.536089
O14	O	0.881921	-0.381450	-0.416771
O15	O	1.095558	-0.295162	-0.532269
O16	O	1.086443	-0.495348	-0.331455
O17	O	0.996070	-0.495319	-0.421840
C18	C	0.857160	-0.338324	-0.369655
C19	C	0.775361	-0.338336	-0.369664
C20	C	1.040122	-0.520817	-0.377795
C21	C	1.036663	-0.598883	-0.381293
C22	C	0.585160	-0.383316	-0.418671
C23	C	0.508302	-0.383318	-0.418681
C24	C	0.512323	-0.293369	-0.320699
C25	C	0.589181	-0.293364	-0.320694
C26	C	0.625597	-0.338342	-0.369679
C27	C	0.471881	-0.338349	-0.369694
C28	C	0.388547	-0.338351	-0.369703
C29	C	0.708936	-0.338339	-0.369671
C30	C	1.082127	-0.635551	-0.335916
C31	C	1.078878	-0.708902	-0.339210
C32	C	1.030161	-0.745585	-0.387877
C33	C	0.984695	-0.708912	-0.433258
C34	C	0.987948	-0.635562	-0.429968
C35	C	1.017985	-0.967055	-0.400168
C36	C	1.014733	-1.040410	-0.403454
C37	C	1.108918	-1.040394	-0.309406
C38	C	1.112164	-0.967043	-0.306117
C39	C	1.066701	-0.930377	-0.351501
C40	C	1.026837	-0.820561	-0.391243
C41	C	1.070029	-0.855401	-0.348138
C42	C	1.240319	-0.338349	-0.369699
C43	C	1.322117	-0.338354	-0.369709
C44	C	1.048413	-0.338288	-0.561628
C45	C	1.048433	-0.338267	-0.643426
C46	C	1.056662	-0.155143	-0.361543
C47	C	1.060197	-0.077077	-0.358077
C48	C	1.097555	-0.293307	-0.829630
C49	C	1.097565	-0.293287	-0.906488
C50	C	0.999368	-0.383119	-0.910455
C51	C	0.999355	-0.383135	-0.833598
C52	C	1.048453	-0.338231	-0.793188
C53	C	1.048476	-0.338194	-0.946902
C54	C	1.048486	-0.338172	-1.030235
C55	C	1.048442	-0.338251	-0.709850
C56	C	1.048364	-0.338334	-0.178471
C57	C	1.048495	-0.338157	-0.096664
H58	H	0.614808	-0.419938	-0.458560
Br59	Br	0.956285	-0.917303	-0.461761
H60	H	0.475381	-0.419940	-0.458576
Br61	Br	1.178293	-0.917264	-0.240076
Br62	Br	0.462897	-0.232332	-0.254222
H63	H	1.137532	-0.256741	-0.796730
H64	H	0.622106	-0.256736	-0.280798
H65	H	0.959365	-0.419717	-0.803926
H66	H	1.115899	-0.738753	-0.302259
Br67	Br	1.148240	-0.585774	-0.269858
H68	H	1.145933	-1.070256	-0.272458
Br69	Br	0.948600	-1.090194	-0.469493
Br70	Br	0.918583	-0.758695	-0.499313
Br71	Br	0.926249	-0.585798	-0.491557
Br72	Br	1.136148	-0.805617	-0.282096
H73	H	0.987169	-0.850437	-0.430866
Br74	Br	1.164212	-0.232322	-0.955943
H75	H	0.959396	-0.419680	-0.943366
