data_functionalizedCrystal
_audit_creation_method	'MofGen! by Chris Wilmer'
_symmetry_space_group_name_H-M	'P1'
_symmetry_Int_Tables_number	1
_symmetry_cell_setting	triclinic
loop_
_symmetry_equiv_pos_as_xyz
  x,y,z
_cell_length_a	17.077404
_cell_length_b	10.686285
_cell_length_c	17.077396
_cell_angle_alpha	85.608118
_cell_angle_beta	89.980499
_cell_angle_gamma	85.631810
loop_
_atom_site_label
_atom_site_type_symbol
_atom_site_fract_x
_atom_site_fract_y
_atom_site_fract_z
Zn1	Zn	1.224115	-0.502339	-0.419935
Zn2	Zn	1.234129	-0.713359	-0.278625
Zn3	Zn	1.092848	-0.502383	-0.288680
Zn4	Zn	1.102918	-0.713284	-0.409853
O5	O	1.163502	-0.607841	-0.349273
O6	O	1.335290	-0.530344	-0.401201
O7	O	1.215364	-0.685422	-0.170110
O8	O	1.101856	-0.325802	-0.314519
O9	O	1.342648	-0.685379	-0.297382
O10	O	1.198297	-0.325769	-0.410951
O11	O	1.111566	-0.530419	-0.177497
O12	O	0.984337	-0.530347	-0.304743
O13	O	1.119018	-0.685252	-0.521039
O14	O	0.991734	-0.685295	-0.393768
O15	O	1.208061	-0.530271	-0.528447
O16	O	1.225128	-0.889924	-0.287606
O17	O	1.128728	-0.889869	-0.384018
C18	C	0.959553	-0.607818	-0.349253
C19	C	0.872305	-0.607839	-0.349261
C20	C	0.835193	-0.688642	-0.395530
C21	C	0.753212	-0.688645	-0.395542
C22	C	0.708346	-0.607850	-0.349281
C23	C	0.745463	-0.527038	-0.303011
C24	C	0.827441	-0.527030	-0.303003
C25	C	0.574594	-0.527063	-0.303028
C26	C	0.492610	-0.527072	-0.303035
C27	C	0.500365	-0.688678	-0.395568
C28	C	0.582344	-0.688670	-0.395560
C29	C	0.619455	-0.607859	-0.349288
C30	C	1.179129	-0.935681	-0.333644
C31	C	1.185885	-1.075932	-0.326983
C32	C	1.368248	-0.607865	-0.349294
C33	C	1.455498	-0.607875	-0.349303
C34	C	1.163545	-0.607748	-0.554022
C35	C	1.163564	-0.607709	-0.641274
C36	C	1.147836	-0.278722	-0.364981
C37	C	1.141160	-0.138470	-0.371675
C38	C	1.209930	-0.527004	-0.686123
C39	C	1.209937	-0.526962	-0.768105
C40	C	1.163582	-0.607632	-0.805237
C41	C	1.117211	-0.688341	-0.760382
C42	C	1.117200	-0.688375	-0.678402
C43	C	1.117239	-0.688265	-0.931256
C44	C	1.117251	-0.688232	-1.013242
C45	C	1.209976	-0.526851	-1.020959
C46	C	1.209965	-0.526886	-0.938979
C47	C	1.163595	-0.607596	-0.894130
C48	C	1.163500	-0.607843	-0.145325
C49	C	1.163617	-0.607527	-0.058091
H50	H	0.857656	-0.461225	-0.265331
H51	H	0.604807	-0.461247	-0.265356
C52	C	1.212741	-0.357315	-0.602034
C53	C	1.260883	-0.438323	-0.645311
H54	H	1.244199	-0.302568	-0.576837
H55	H	1.176253	-0.309040	-0.636314
H56	H	1.185133	-0.405400	-0.563589
H57	H	1.288487	-0.390237	-0.683759
H58	H	1.297385	-0.486602	-0.611027
H59	H	1.229342	-1.129693	-0.283617
H60	H	0.723000	-0.754444	-0.433218
H61	H	0.618873	-0.754467	-0.433225
C62	C	0.746037	-0.367293	-0.211549
C63	C	0.696148	-0.438223	-0.252159
H64	H	0.715591	-0.312458	-0.180158
H65	H	0.780616	-0.422203	-0.178848
H66	H	0.775729	-0.319096	-0.248103
H67	H	0.666460	-0.486427	-0.215605
H68	H	0.661555	-0.383305	-0.284863
H69	H	1.097701	-1.084717	-0.415034
H70	H	1.079435	-0.754081	-0.641887
H71	H	0.456080	-0.461267	-0.265375
H72	H	0.871718	-0.754439	-0.433198
C73	C	1.314690	-0.509381	-0.847618
C74	C	1.260903	-0.438200	-0.898153
H75	H	1.346132	-0.454621	-0.822416
H76	H	1.287072	-0.557455	-0.809188
H77	H	1.347352	-0.564326	-0.876984
H78	H	1.228236	-0.383260	-0.868786
H79	H	1.288523	-0.390103	-0.936589
C80	C	1.251147	-0.455095	-1.150055
C81	C	1.260934	-0.438109	-1.070256
H82	H	1.282601	-0.400304	-1.180489
H83	H	1.266679	-0.539856	-1.159449
H84	H	1.197523	-0.436623	-1.164347
H85	H	1.314557	-0.456591	-1.055962
H86	H	1.245406	-0.353329	-1.060857
C87	C	1.025580	-0.847734	-0.997385
C88	C	1.066291	-0.776896	-1.054060
H89	H	0.994116	-0.902465	-1.022587
H90	H	1.062068	-0.896025	-0.963112
H91	H	0.992935	-0.792750	-0.968029
H92	H	1.098940	-0.831881	-1.083413
H93	H	1.029799	-0.728601	-1.088347
H94	H	1.247695	-0.461247	-0.804617
C95	C	1.114415	-0.858019	-0.830950
C96	C	1.066277	-0.776984	-0.881946
H97	H	1.082957	-0.912785	-0.800503
H98	H	1.150908	-0.906271	-0.860638
H99	H	1.142018	-0.809954	-0.797116
H100	H	1.038678	-0.825049	-0.915784
H101	H	1.029770	-0.728728	-0.852256
H102	H	1.079465	-0.754019	-0.790622
H103	H	0.470145	-0.754473	-0.433246
