data_functionalizedCrystal
_audit_creation_method	'MofGen! by Chris Wilmer'
_symmetry_space_group_name_H-M	'P1'
_symmetry_Int_Tables_number	1
_symmetry_cell_setting	triclinic
loop_
_symmetry_equiv_pos_as_xyz
  x,y,z
_cell_length_a	11.792241
_cell_length_b	11.026607
_cell_length_c	9.482900
_cell_angle_alpha	101.400185
_cell_angle_beta	80.650163
_cell_angle_gamma	96.389716
loop_
_atom_site_label
_atom_site_type_symbol
_atom_site_fract_x
_atom_site_fract_y
_atom_site_fract_z
O1	O	1.553789	0.147664	-0.120746
O2	O	2.053789	0.647664	0.379254
O3	O	1.226860	0.164824	-0.120779
O4	O	1.726860	0.664824	0.379221
O5	O	1.363228	-0.020587	-0.120760
O6	O	1.863228	0.479413	0.379240
O7	O	1.417420	0.333075	-0.120765
O8	O	1.917420	0.833075	0.379235
O9	O	1.335560	0.017226	0.121029
O10	O	1.835560	0.517226	0.621029
O11	O	1.199191	0.202637	0.121010
O12	O	1.699191	0.702637	0.621010
O13	O	1.526120	0.185478	0.121043
O14	O	2.026120	0.685478	0.621043
Cu15	Cu	1.360130	0.197510	0.143104
Cu16	Cu	1.860130	0.697510	0.643104
Cu17	Cu	1.392851	0.152792	-0.142839
Cu18	Cu	1.892851	0.652792	0.357161
O19	O	1.389752	0.370888	0.121024
O20	O	1.889752	0.870888	0.621024
C21	C	1.339397	-0.046957	0.000132
C22	C	1.839397	0.453043	0.500132
C23	C	1.309595	-0.181869	0.000124
C24	C	1.809595	0.318131	0.500124
C25	C	1.170521	0.182652	0.000111
C26	C	1.670521	0.682652	0.500111
C27	C	1.043868	0.179423	0.000098
C28	C	1.543868	0.679423	0.500098
C29	C	1.391885	-0.255132	0.000130
C30	C	1.891885	0.244868	0.500130
C31	C	1.361085	-0.394570	0.000121
C32	C	1.861085	0.105430	0.500121
C33	C	0.811973	0.173495	0.000140
C34	C	1.311973	0.673495	0.500140
C35	C	0.941015	0.176788	0.000117
C36	C	1.441015	0.676788	0.500117
C37	C	1.582459	0.167649	0.000150
C38	C	2.082459	0.667649	0.500150
C39	C	1.709114	0.170877	0.000153
C40	C	2.209114	0.670877	0.500153
C41	C	1.413584	0.397258	0.000129
C42	C	1.913584	0.897258	0.500129
C43	C	1.443387	0.532168	0.000128
C44	C	1.943387	1.032168	0.500128
N45	N	1.337123	0.228962	0.344221
N46	N	1.837123	0.728962	0.844221
N47	N	1.415864	0.121330	-0.343956
N48	N	1.915864	0.621330	0.156044
C49	C	1.386056	0.162062	0.416427
C50	C	1.886056	0.662062	0.916427
C51	C	1.366924	0.188240	0.583841
C52	C	1.866924	0.688240	1.083841
H53	H	1.485136	-0.214624	0.000148
H54	H	1.985136	0.285376	0.500148
Cl55	Cl	1.217101	-0.457094	0.000092
Cl56	Cl	1.717101	0.042906	0.500092
Cl57	Cl	1.502712	0.003231	0.560152
Cl58	Cl	2.002712	0.503231	1.060152
Cl59	Cl	1.587374	-0.405314	0.000136
Cl60	Cl	2.087374	0.094686	0.500136
Cl61	Cl	1.165617	-0.244398	0.000094
Cl62	Cl	1.665617	0.255602	0.500094
Cl63	Cl	1.250567	0.347310	0.440122
Cl64	Cl	1.750567	0.847310	0.940122
H65	H	1.442107	0.085401	0.354306
H66	H	1.942107	0.585401	0.854306
H67	H	1.310859	0.264896	0.645958
H68	H	1.810859	0.764896	1.145958
