data_functionalizedCrystal
_audit_creation_method	'MofGen! by Chris Wilmer'
_symmetry_space_group_name_H-M	'P1'
_symmetry_Int_Tables_number	1
_symmetry_cell_setting	triclinic
loop_
_symmetry_equiv_pos_as_xyz
  x,y,z
_cell_length_a	16.959455
_cell_length_b	16.959454
_cell_length_c	16.959434
_cell_angle_alpha	89.913723
_cell_angle_beta	89.940565
_cell_angle_gamma	90.017022
loop_
_atom_site_label
_atom_site_type_symbol
_atom_site_fract_x
_atom_site_fract_y
_atom_site_fract_z
Zn1	Zn	1.208736	-0.314266	-0.446929
Zn2	Zn	1.208554	-0.446596	-0.314759
Zn3	Zn	1.076460	-0.314428	-0.314767
Zn4	Zn	1.076529	-0.446399	-0.446898
O5	O	1.142570	-0.380422	-0.380838
O6	O	1.319323	-0.331834	-0.429407
O7	O	1.190927	-0.429213	-0.204149
O8	O	1.094054	-0.203796	-0.332315
O9	O	1.319189	-0.429056	-0.332302
O10	O	1.191236	-0.203676	-0.429414
O11	O	1.093878	-0.332110	-0.204154
O12	O	0.965858	-0.331920	-0.332284
O13	O	1.094171	-0.428721	-0.557513
O14	O	0.965909	-0.428879	-0.429360
O15	O	1.191303	-0.331643	-0.557536
O16	O	1.190994	-0.557180	-0.332271
O17	O	1.093995	-0.557036	-0.429353
C18	C	0.937203	-0.380396	-0.380820
C19	C	0.849347	-0.380404	-0.380831
C20	C	1.142504	-0.585788	-0.380825
C21	C	1.142548	-0.673645	-0.380845
C22	C	0.477821	-0.329894	-0.330396
C23	C	0.477922	-0.431015	-0.431325
C24	C	0.560468	-0.431004	-0.431321
C25	C	0.601694	-0.380438	-0.380852
C26	C	0.560374	-0.329883	-0.330388
C27	C	0.601794	-0.481563	-0.481778
C28	C	0.684345	-0.481554	-0.481774
C29	C	0.725572	-0.430984	-0.431309
C30	C	0.684247	-0.380426	-0.380844
C31	C	0.725474	-0.329860	-0.330375
C32	C	0.684150	-0.279299	-0.279913
C33	C	0.601602	-0.279312	-0.279923
C34	C	0.808121	-0.430970	-0.431300
C35	C	0.808027	-0.329849	-0.330367
C36	C	1.092136	-1.045075	-0.431383
C37	C	1.193224	-1.045166	-0.330374
C38	C	1.193196	-0.962620	-0.330366
C39	C	1.142637	-0.921298	-0.380867
C40	C	1.092105	-0.962522	-0.431376
C41	C	1.243721	-0.921390	-0.279853
C42	C	1.243695	-0.838839	-0.279843
C43	C	1.193139	-0.797515	-0.330349
C44	C	1.142606	-0.838744	-0.380860
C45	C	1.092047	-0.797422	-0.431361
C46	C	1.041517	-0.838650	-0.481877
C47	C	1.041549	-0.921198	-0.481882
C48	C	1.193107	-0.714967	-0.330344
C49	C	1.092016	-0.714869	-0.431354
C50	C	1.348738	-0.380449	-0.380857
C51	C	1.436595	-0.380460	-0.380865
C52	C	1.142765	-0.380142	-0.587007
C53	C	1.142848	-0.380023	-0.674864
C54	C	1.142658	-0.174254	-0.380869
C55	C	1.142695	-0.086397	-0.380882
C56	C	1.142421	-0.380644	-0.175471
C57	C	1.142491	-0.380540	-0.087615
C58	C	1.193707	-0.430264	0.283903
C59	C	1.091918	-0.329887	0.283816
C60	C	1.091846	-0.329988	0.201270
C61	C	1.142705	-0.380229	0.160037
C62	C	1.193636	-0.430369	0.201350
C63	C	1.040911	-0.279855	0.159951
C64	C	1.040837	-0.279955	0.077400
C65	C	1.091700	-0.330193	0.036166
C66	C	1.142634	-0.380334	0.077484
C67	C	1.193493	-0.430575	0.036251
C68	C	1.244430	-0.480713	0.077568
C69	C	1.244499	-0.480607	0.160116
C70	C	1.091632	-0.330299	-0.046382
C71	C	1.193421	-0.430680	-0.046302
H72	H	0.841588	-0.288667	-0.289274
F73	F	1.247029	-1.089145	-0.276629
F74	F	0.434044	-0.484842	-0.485020
H75	H	0.568221	-0.522737	-0.522861
H76	H	0.841763	-0.472139	-0.472382
F77	F	0.986811	-0.226365	0.203837
F78	F	1.037805	-0.276408	0.327700
F79	F	0.986615	-0.226606	0.033436
H80	H	1.285837	-0.521622	0.043985
F81	F	0.728036	-0.225489	-0.226198
F82	F	1.037429	-0.276938	-0.090350
F83	F	0.987776	-0.965081	-0.535638
H84	H	0.567949	-0.238149	-0.238839
H85	H	1.284878	-0.955040	-0.238732
F86	F	1.297477	-0.794969	-0.226086
H87	H	1.050998	-1.078646	-0.472514
F88	F	1.246873	-0.671093	-0.276578
F89	F	1.298707	-0.533960	0.204093
H90	H	1.234841	-0.471590	-0.079868
F91	F	0.433842	-0.276082	-0.276697
H92	H	1.235182	-0.471083	0.317547
H93	H	0.717983	-0.522725	-0.522864
H94	H	1.000348	-0.804996	-0.522992
F95	F	1.038206	-0.670898	-0.485109
