data_functionalizedCrystal
_audit_creation_method	'MofGen! by Chris Wilmer'
_symmetry_space_group_name_H-M	'P1'
_symmetry_Int_Tables_number	1
_symmetry_cell_setting	triclinic
loop_
_symmetry_equiv_pos_as_xyz
  x,y,z
_cell_length_a	12.837943
_cell_length_b	15.995350
_cell_length_c	11.892095
_cell_angle_alpha	93.891441
_cell_angle_beta	85.689438
_cell_angle_gamma	89.160657
loop_
_atom_site_label
_atom_site_type_symbol
_atom_site_fract_x
_atom_site_fract_y
_atom_site_fract_z
O1	O	1.382080	0.212847	-0.093972
O2	O	1.080275	0.202094	-0.093979
O3	O	1.239427	0.086241	-0.093975
O4	O	1.222927	0.328700	-0.093977
O5	O	1.226157	0.095884	0.094032
O6	O	1.067005	0.211737	0.094028
O7	O	1.368810	0.222490	0.094035
Zn8	Zn	1.215800	0.218644	0.123881
Zn9	Zn	1.233284	0.205939	-0.123826
O10	O	1.209657	0.338343	0.094030
C11	C	1.035019	0.203283	0.000023
C12	C	0.919942	0.192449	0.000020
C13	C	0.678983	0.322688	0.000035
C14	C	0.570857	0.312513	0.000033
C15	C	0.595563	0.161925	0.000023
C16	C	0.703688	0.172100	0.000025
C17	C	0.745394	0.252484	0.000029
C18	C	0.853523	0.262658	0.000023
C19	C	0.878225	0.112072	0.000020
C20	C	0.770100	0.101896	0.000018
C21	C	1.232110	0.059813	0.000027
C22	C	1.230066	-0.033301	0.000020
C23	C	1.222721	-0.371634	0.000024
C24	C	1.109405	-0.333265	-0.000400
C25	C	1.111421	-0.236390	0.000023
C26	C	1.226364	-0.203783	0.000021
C27	C	1.274693	-0.234893	0.107382
C28	C	1.271839	-0.331752	0.107472
C29	C	1.289271	-0.342889	-0.106327
C30	C	1.289344	-0.246018	-0.107746
C31	C	1.228429	-0.108921	0.000024
C32	C	1.220659	-0.466496	0.000029
C33	C	1.414066	0.221301	0.000030
C34	C	1.529143	0.232134	0.000025
C35	C	1.216974	0.364770	0.000026
C36	C	1.219020	0.457884	0.000025
N37	N	1.203876	0.227315	0.292935
N38	N	1.245217	0.197262	-0.292880
C39	C	1.328193	0.136877	0.529587
C40	C	1.319865	0.142945	0.647928
C41	C	1.178889	0.245514	0.647962
C42	C	1.187216	0.239446	0.529621
C43	C	1.261872	0.185127	0.470437
C44	C	1.270204	0.179064	0.352093
C45	C	1.129223	0.281628	0.352129
C46	C	1.120896	0.287696	0.470471
H47	H	1.072907	-0.215422	-0.076937
H48	H	0.932310	0.054906	0.000008
H49	H	1.230224	-0.205512	0.187277
H50	H	1.388987	0.092654	0.481399
C51	C	1.055534	-0.368512	-0.104403
H52	H	0.987254	-0.344571	-0.103081
H53	H	1.051094	-0.427664	-0.102983
H54	H	1.095017	-0.355032	-0.171318
C55	C	1.038786	0.347445	0.535578
H56	H	1.043328	0.344154	0.614531
H57	H	0.970967	0.331816	0.516199
H58	H	1.051422	0.403238	0.516183
C59	C	1.402233	-0.376836	-0.107316
H60	H	1.442065	-0.359255	-0.171766
H61	H	1.402036	-0.436325	-0.110073
H62	H	1.432291	-0.355858	-0.040714
H63	H	0.736126	0.036451	0.000028
C64	C	1.056279	0.334715	0.287062
H65	H	1.071929	0.323324	0.208105
H66	H	1.066183	0.392491	0.306467
H67	H	0.985724	0.321071	0.306461
H68	H	0.887477	0.328111	0.000028
C69	C	0.497809	0.389736	0.000030
H70	H	0.538138	0.439063	0.000024
H71	H	0.450485	0.392260	0.065589
H72	H	0.459748	0.385534	-0.065544
H73	H	0.712940	0.388139	0.000037
H74	H	1.330995	0.134837	0.303907
H75	H	0.561579	0.096485	0.000112
H76	H	1.058900	-0.352531	0.076159
C77	C	1.392816	0.089873	0.712995
H78	H	1.377161	0.101259	0.791952
H79	H	1.463363	0.103516	0.693586
H80	H	1.382913	0.032090	0.693601
C81	C	1.044320	-0.198168	0.104172
H82	H	1.015729	-0.241855	0.146393
H83	H	0.989280	-0.164950	0.080238
H84	H	1.086567	-0.164127	0.150156
H85	H	1.225408	-0.349189	0.187727
C86	C	1.096775	0.305256	0.713077
H87	H	1.101320	0.301958	0.792028
H88	H	1.028957	0.289622	0.693697
H89	H	1.109403	0.361052	0.693689
H90	H	1.354712	-0.357110	0.112342
C91	C	1.388391	-0.206440	0.112785
H92	H	1.416099	-0.225925	0.178326
H93	H	1.390151	-0.146979	0.116001
H94	H	1.429075	-0.228879	0.047359
C95	C	1.246966	-0.380261	-0.216256
H96	H	1.188314	-0.413747	-0.198316
H97	H	1.299939	-0.413895	-0.258178
H98	H	1.226519	-0.336188	-0.260081
H99	H	1.254075	-0.226105	-0.187169
H100	H	1.373623	-0.224301	-0.114230
