data_functionalizedCrystal
_audit_creation_method	'MofGen! by Chris Wilmer'
_symmetry_space_group_name_H-M	'P1'
_symmetry_Int_Tables_number	1
_symmetry_cell_setting	triclinic
loop_
_symmetry_equiv_pos_as_xyz
  x,y,z
_cell_length_a	19.805407
_cell_length_b	19.076808
_cell_length_c	19.805399
_cell_angle_alpha	87.672943
_cell_angle_beta	89.980427
_cell_angle_gamma	92.323385
loop_
_atom_site_label
_atom_site_type_symbol
_atom_site_fract_x
_atom_site_fract_y
_atom_site_fract_z
Zn1	Zn	1.023914	-0.280233	-0.371886
Zn2	Zn	1.019283	-0.397938	-0.254147
Zn3	Zn	0.910727	-0.280252	-0.258710
Zn4	Zn	0.906148	-0.397901	-0.367295
O5	O	0.965018	-0.339081	-0.313009
O6	O	1.118016	-0.295854	-0.356279
O7	O	1.004861	-0.382351	-0.160035
O8	O	0.929597	-0.181753	-0.277553
O9	O	1.114613	-0.382332	-0.269777
O10	O	1.012754	-0.181739	-0.360703
O11	O	0.925106	-0.295887	-0.163387
O12	O	0.815404	-0.295851	-0.273102
O13	O	0.921791	-0.382268	-0.462622
O14	O	0.812039	-0.382287	-0.352879
O15	O	1.008313	-0.295818	-0.465994
O16	O	1.000421	-0.496429	-0.265326
O17	O	0.917301	-0.496402	-0.348455
C18	C	0.789162	-0.339067	-0.312988
C19	C	0.713930	-0.339079	-0.312994
C20	C	0.676849	-0.384154	-0.354462
C21	C	0.606160	-0.384155	-0.354471
C22	C	0.572554	-0.339084	-0.313009
C23	C	0.609640	-0.294004	-0.271540
C24	C	0.680328	-0.294000	-0.271535
C25	C	0.324567	-0.294020	-0.271562
C26	C	0.253874	-0.294029	-0.271569
C27	C	0.250399	-0.384175	-0.354498
C28	C	0.321086	-0.384170	-0.354493
C29	C	0.358167	-0.339088	-0.313027
C30	C	0.434815	-0.339086	-0.313018
C31	C	0.495907	-0.339089	-0.313014
C32	C	0.957879	-0.521955	-0.305912
C33	C	0.954888	-0.600189	-0.302898
C34	C	0.996745	-0.636876	-0.344809
C35	C	0.993931	-0.710385	-0.341979
C36	C	0.949263	-0.747206	-0.297233
C37	C	0.907400	-0.710515	-0.255321
C38	C	0.910211	-0.637007	-0.258155
C39	C	0.936213	-0.967059	-0.284114
C40	C	0.933407	-1.040572	-0.281281
C41	C	1.019937	-1.040437	-0.367940
C42	C	1.022747	-0.966928	-0.370768
C43	C	0.980882	-0.930243	-0.328858
N44	N	0.946387	-0.822345	-0.294338
N45	N	0.983755	-0.855106	-0.331757
C46	C	1.141560	-0.339095	-0.313031
C47	C	1.216792	-0.339101	-0.313041
C48	C	0.965058	-0.339037	-0.489554
C49	C	0.965074	-0.339018	-0.564787
C50	C	0.972203	-0.155493	-0.320149
C51	C	0.975264	-0.077259	-0.323192
C52	C	1.010128	-0.294001	-0.601888
C53	C	1.010135	-0.293980	-0.672577
C54	C	0.965093	-0.338981	-0.706164
C55	C	0.920035	-0.384000	-0.669057
C56	C	0.920024	-0.384016	-0.598369
C57	C	0.920075	-0.383934	-0.954133
C58	C	0.920091	-0.383916	-1.024826
C59	C	1.010187	-0.293899	-1.028341
C60	C	1.010176	-0.293915	-0.957653
C61	C	0.965116	-0.338931	-0.920553
C62	C	0.965107	-0.338951	-0.843904
C63	C	0.965104	-0.338964	-0.782812
C64	C	0.965019	-0.339074	-0.137154
C65	C	0.965141	-0.338895	-0.061929
H66	H	0.220200	-0.420880	-0.388265
C67	C	0.817938	-1.063348	-0.247333
C68	C	0.884302	-1.081053	-0.232098
H69	H	0.787627	-1.088344	-0.216973
H70	H	0.813618	-1.014326	-0.243017
H71	H	0.807559	-1.075377	-0.292341
H72	H	0.894682	-1.069018	-0.187092
H73	H	0.888624	-1.130085	-0.236409
H74	H	0.883331	-0.420666	-0.568162
C75	C	0.822148	-0.703259	-0.169952
C76	C	0.858297	-0.750986	-0.206137
H77	H	0.791831	-0.728245	-0.139590
H78	H	0.852749	-0.674579	-0.145195
H79	H	0.797338	-0.674592	-0.200531
H80	H	0.883111	-0.779650	-0.175557
H81	H	0.827692	-0.779678	-0.230895
H82	H	0.575972	-0.420860	-0.388237
C83	C	0.830972	-0.472980	-0.658477
C84	C	0.870521	-0.433465	-0.705973
H85	H	0.800403	-0.503516	-0.681268
H86	H	0.859403	-0.499910	-0.629865
H87	H	0.806279	-0.442308	-0.632095
H88	H	0.895218	-0.464137	-0.732352
H89	H	0.842086	-0.406533	-0.734596
C90	C	0.822329	-0.554431	-0.251855
C91	C	0.864200	-0.596677	-0.212086
H92	H	0.793919	-0.529538	-0.223414
H93	H	0.849335	-0.521987	-0.278903
H94	H	0.795328	-0.583122	-0.280212
H95	H	0.891205	-0.567985	-0.183732
H96	H	0.837191	-0.629125	-0.185027
H97	H	0.704206	-0.420858	-0.388223
H98	H	0.354749	-0.257317	-0.237792
H99	H	0.883394	-0.420599	-0.923934
H100	H	0.348445	-0.420874	-0.388253
C101	C	0.264406	-0.204903	-0.189602
C102	C	0.216933	-0.244478	-0.225996
H103	H	0.241598	-0.174312	-0.161472
H104	H	0.290771	-0.235527	-0.162469
H105	H	0.293038	-0.178021	-0.220185
H106	H	0.188304	-0.271364	-0.195413
H107	H	0.190557	-0.213850	-0.253132
H108	H	0.582273	-0.257304	-0.237784
C109	C	0.763505	-0.199301	-0.265947
C110	C	0.721088	-0.244453	-0.225950
H111	H	0.788664	-0.168708	-0.237804
H112	H	0.793634	-0.226141	-0.290632
H113	H	0.736982	-0.172423	-0.296523
H114	H	0.747611	-0.271334	-0.195377
H115	H	0.690956	-0.217609	-0.201254
H116	H	1.033122	-0.606900	-0.381243
C117	C	0.848319	-0.884499	-0.277800
C118	C	0.890199	-0.926745	-0.238040
H119	H	0.819908	-0.859614	-0.249352
H120	H	0.875319	-0.852047	-0.304845
H121	H	0.821319	-0.913189	-0.306159
H122	H	0.917202	-0.898055	-0.209685
H123	H	0.863195	-0.959200	-0.210983
H124	H	1.028021	-0.740252	-0.376102
H125	H	1.059120	-0.936950	-0.407203
C126	C	1.054046	-1.153060	-0.402081
C127	C	1.065946	-1.080764	-0.414012
H128	H	1.082448	-1.177954	-0.430530
H129	H	1.063523	-1.165123	-0.356154
H130	H	1.008099	-1.165134	-0.411477
H131	H	1.111892	-1.068689	-0.404611
H132	H	1.056475	-1.068695	-0.459949
C133	C	1.099182	-0.205013	-0.612471
C134	C	1.059639	-0.244532	-0.564974
H135	H	1.129745	-0.174468	-0.589681
H136	H	1.123876	-0.235675	-0.638851
H137	H	1.070741	-0.178084	-0.641085
H138	H	1.088080	-0.271465	-0.536362
H139	H	1.034944	-0.213867	-0.538582
C140	C	1.023251	-0.199270	-0.755738
C141	C	1.059656	-0.244487	-0.713353
H142	H	1.053824	-0.168708	-0.780905
H143	H	0.996438	-0.226064	-0.785859
H144	H	0.994810	-0.172362	-0.729190
H145	H	1.088094	-0.271399	-0.739901
H146	H	1.086481	-0.217690	-0.683228
H147	H	1.046857	-0.257273	-0.930311
H148	H	1.046874	-0.257242	-1.058557
C149	C	0.831014	-0.472891	-1.014255
C150	C	0.870571	-0.433379	-1.061746
H151	H	0.800443	-0.503422	-1.037050
H152	H	0.859441	-0.499827	-0.985643
H153	H	0.806324	-0.442219	-0.987872
H154	H	0.895266	-0.464051	-1.088126
H155	H	0.842141	-0.406440	-1.090370
