data_functionalizedCrystal
_audit_creation_method	'MofGen! by Chris Wilmer'
_symmetry_space_group_name_H-M	'P1'
_symmetry_Int_Tables_number	1
_symmetry_cell_setting	triclinic
loop_
_symmetry_equiv_pos_as_xyz
  x,y,z
_cell_length_a	25.639242
_cell_length_b	25.639239
_cell_length_c	25.639233
_cell_angle_alpha	89.981253
_cell_angle_beta	90.022166
_cell_angle_gamma	89.965787
loop_
_atom_site_label
_atom_site_type_symbol
_atom_site_fract_x
_atom_site_fract_y
_atom_site_fract_z
Zn1	Zn	0.799225	0.208277	0.295742
Zn2	Zn	1.299225	0.708277	0.795742
Zn3	Zn	0.799149	0.295696	0.208307
Zn4	Zn	1.299149	0.795696	0.708307
Zn5	Zn	0.711801	0.208269	0.208306
Zn6	Zn	1.211801	0.708269	0.708306
Zn7	Zn	0.711746	0.295676	0.295696
Zn8	Zn	1.211746	0.795676	0.795696
O9	O	0.755480	0.251979	0.252013
O10	O	1.255480	0.751979	0.752013
O11	O	0.872380	0.219884	0.284163
O12	O	1.372380	0.719884	0.784163
O13	O	0.787553	0.284103	0.135141
O14	O	1.287553	0.784103	0.635141
O15	O	0.723453	0.135105	0.219924
O16	O	1.223453	0.635105	0.719924
O17	O	0.872324	0.284111	0.219924
O18	O	1.372324	0.784111	0.719924
O19	O	0.787683	0.135111	0.284163
O20	O	1.287683	0.635111	0.784163
O21	O	0.723379	0.219871	0.135141
O22	O	1.223379	0.719871	0.635141
O23	O	0.638629	0.219853	0.219880
O24	O	1.138629	0.719853	0.719880
O25	O	0.723360	0.284078	0.368868
O26	O	1.223360	0.784078	0.868868
O27	O	0.638589	0.284070	0.284085
O28	O	1.138589	0.784070	0.784085
O29	O	0.787630	0.219866	0.368901
O30	O	1.287630	0.719866	0.868901
O31	O	0.787499	0.368858	0.219880
O32	O	1.287499	0.868858	0.719880
O33	O	0.723286	0.368844	0.284085
O34	O	1.223286	0.868844	0.784085
C35	C	0.619638	0.251959	0.251977
C36	C	1.119638	0.751959	0.751977
C37	C	0.561524	0.251963	0.251975
C38	C	1.061524	0.751963	0.751975
C39	C	0.755392	0.387822	0.251989
C40	C	1.255392	0.887822	0.751989
C41	C	0.755403	0.445936	0.251996
C42	C	1.255403	0.945936	0.751996
C43	C	0.201149	0.285473	0.285413
C44	C	0.701149	0.785473	0.785413
C45	C	0.146544	0.285477	0.285421
C46	C	0.646544	0.785477	0.785421
O47	O	0.118297	0.313943	0.313821
O48	O	0.618297	0.813943	0.813821
N49	N	0.119241	0.251994	0.252047
N50	N	0.619241	0.751994	0.752047
C51	C	0.146545	0.218502	0.218666
C52	C	0.646545	0.718502	0.718666
O53	O	0.118308	0.190022	0.190280
O54	O	0.618308	0.690022	0.690280
C55	C	0.201149	0.218496	0.218661
C56	C	0.701149	0.718496	0.718661
C57	C	0.228449	0.251985	0.252034
C58	C	0.728449	0.751985	0.752034
C59	C	0.228449	0.318959	0.318783
C60	C	0.728449	0.818959	0.818783
C61	C	0.283049	0.318956	0.318774
C62	C	0.783049	0.818956	0.818774
C63	C	0.310350	0.285468	0.285395
C64	C	0.810350	0.785468	0.785395
C65	C	0.283049	0.251983	0.252024
C66	C	0.783049	0.751983	0.752024
C67	C	0.228452	0.185002	0.185283
C68	C	0.728452	0.685002	0.685283
C69	C	0.283059	0.185000	0.185281
C70	C	0.783059	0.685000	0.685281
C71	C	0.310359	0.218488	0.218654
C72	C	0.810359	0.718488	0.718654
C73	C	0.364950	0.218492	0.218636
C74	C	0.864950	0.718492	0.718636
N75	N	0.392253	0.251974	0.252010
N76	N	0.892253	0.751974	0.752010
C77	C	0.364953	0.285463	0.285389
C78	C	0.864953	0.785463	0.785389
C79	C	0.031875	0.218515	0.218680
C80	C	0.531875	0.718515	0.718680
C81	C	-0.022728	0.218523	0.218683
C82	C	0.477272	0.718523	0.718683
C83	C	-0.022725	0.285497	0.285438
C84	C	0.477275	0.785497	0.785438
C85	C	0.031878	0.285492	0.285433
C86	C	0.531878	0.785492	0.785433
C87	C	0.059178	0.251998	0.252054
C88	C	0.559178	0.751998	0.752054
C89	C	0.479618	0.285455	0.285368
C90	C	0.979618	0.785455	0.785368
C91	C	0.534223	0.285451	0.285354
C92	C	1.034223	0.785451	0.785354
C93	C	0.534216	0.218475	0.218601
C94	C	1.034216	0.718475	0.718601
C95	C	0.479615	0.218481	0.218612
C96	C	0.979615	0.718481	0.718612
C97	C	0.452318	0.251972	0.252000
C98	C	0.952318	0.751972	0.752000
O99	O	0.393232	0.190038	0.190252
O100	O	0.893232	0.690038	0.690252
O101	O	0.393197	0.313933	0.313776
O102	O	0.893197	0.813933	0.813776
C103	C	0.755497	0.251970	0.388386
C104	C	1.255497	0.751970	0.888386
C105	C	0.755504	0.251966	0.446500
C106	C	1.255504	0.751966	0.946500
C107	C	0.891853	0.252000	0.252049
C108	C	1.391853	0.752000	0.752049
C109	C	0.949967	0.252009	0.252064
C110	C	1.449967	0.752009	0.752064
C111	C	0.755583	0.115606	0.252048
C112	C	1.255583	0.615606	0.752048
C113	C	0.755627	0.057492	0.252064
C114	C	1.255627	0.557492	0.752064
C115	C	0.789004	0.806294	0.218638
C116	C	1.289004	1.306294	0.718638
C117	C	0.789024	0.860898	0.218645
C118	C	1.289024	1.360898	0.718645
O119	O	0.817502	0.889131	0.190257
O120	O	1.317502	1.389131	0.690257
N121	N	0.755572	0.888218	0.252048
N122	N	1.255572	1.388218	0.752048
C123	C	0.722102	0.860932	0.285449
C124	C	1.222102	1.360932	0.785449
O125	O	0.693651	0.889184	0.313861
O126	O	1.193651	1.389184	0.813861
C127	C	0.722085	0.806328	0.285444
C128	C	1.222085	1.306328	0.785444
C129	C	0.755535	0.779011	0.252036
C130	C	1.255535	1.279011	0.752036
C131	C	0.822452	0.778976	0.185233
C132	C	1.322452	1.278976	0.685233
C133	C	0.822431	0.724376	0.185226
C134	C	1.322431	1.224376	0.685226
C135	C	0.788962	0.697093	0.218623
C136	C	1.288962	1.197093	0.718623
C137	C	0.755514	0.724410	0.252028
C138	C	1.255514	1.224410	0.752028
C139	C	0.688617	0.779042	0.318847
C140	C	1.188617	1.279042	0.818847
C141	C	0.688603	0.724435	0.318840
C142	C	1.188603	1.224435	0.818840
C143	C	0.722053	0.697118	0.285432
C144	C	1.222053	1.197118	0.785432
C145	C	0.722024	0.642527	0.285418
C146	C	1.222024	1.142527	0.785418
N147	N	0.755475	0.615206	0.252016
N148	N	1.255475	1.115206	0.752016
C149	C	0.788944	0.642490	0.218618
C150	C	1.288944	1.142490	0.718618
C151	C	0.722141	0.975602	0.285457
C152	C	1.222141	1.475602	0.785457
C153	C	0.722155	1.030204	0.285459
C154	C	1.222155	1.530204	0.785459
C155	C	0.789078	1.030167	0.218656
C156	C	1.289078	1.530167	0.718656
C157	C	0.789061	0.975564	0.218652
C158	C	1.289061	1.475564	0.718652
C159	C	0.755593	0.948282	0.252055
C160	C	1.255593	1.448282	0.752055
C161	C	0.788897	0.527824	0.218605
C162	C	1.288897	1.027824	0.718605
C163	C	0.788872	0.473219	0.218599
C164	C	1.288872	0.973219	0.718599
C165	C	0.721951	0.473261	0.285403
C166	C	1.221951	0.973261	0.785403
C167	C	0.721974	0.527862	0.285408
C168	C	1.221974	1.027862	0.785408
C169	C	0.755452	0.555142	0.252007
C170	C	1.255452	1.055142	0.752007
O171	O	0.693562	0.614260	0.313793
O172	O	1.193562	1.114260	0.813793
O173	O	0.817396	0.614231	0.190216
O174	O	1.317396	1.114231	0.690216
C175	C	0.755494	0.251951	0.116170
C176	C	1.255494	0.751951	0.616170
C177	C	0.755588	0.251807	0.058057
C178	C	1.255588	0.751807	0.558057
C179	C	0.789012	0.218432	0.806886
C180	C	1.289012	0.718432	1.306886
C181	C	0.789019	0.218417	0.861491
C182	C	1.289019	0.718417	1.361491
O183	O	0.817466	0.189967	0.889747
O184	O	1.317466	0.689967	1.389747
N185	N	0.755562	0.251844	0.888783
N186	N	1.255562	0.751844	1.388783
C187	C	0.722093	0.285283	0.861468
C188	C	1.222093	0.785283	1.361468
O189	O	0.693636	0.313713	0.889695
O190	O	1.193636	0.813713	1.389695
C191	C	0.722084	0.285294	0.806864
C192	C	1.222084	0.785294	1.306864
C193	C	0.755547	0.251870	0.779575
C194	C	1.255547	0.751870	1.279575
C195	C	0.822472	0.185009	0.779597
C196	C	1.322472	0.685009	1.279597
C197	C	0.822466	0.185025	0.724997
C198	C	1.322466	0.685025	1.224997
C199	C	0.789000	0.218462	0.697685
C200	C	1.289000	0.718462	1.197685
C201	C	0.755541	0.251885	0.724974
C202	C	1.255541	0.751885	1.224974
C203	C	0.688613	0.318731	0.779550
C204	C	1.188613	0.818731	1.279550
C205	C	0.688607	0.318739	0.724943
C206	C	1.188607	0.818739	1.224943
C207	C	0.722069	0.285314	0.697654
C208	C	1.222069	0.785314	1.197654
C209	C	0.722070	0.285338	0.643063
C210	C	1.222070	0.785338	1.143063
N211	N	0.755526	0.251912	0.615771
N212	N	1.255526	0.751912	1.115771
C213	C	0.788992	0.218474	0.643082
C214	C	1.288992	0.718474	1.143082
C215	C	0.722113	0.285256	0.976138
C216	C	1.222113	0.785256	1.476138
C217	C	0.722124	0.285247	1.030741
C218	C	1.222124	0.785247	1.530741
C219	C	0.789049	0.218381	1.030760
C220	C	1.289049	0.718381	1.530760
C221	C	0.789041	0.218392	0.976157
C222	C	1.289041	0.718392	1.476157
C223	C	0.755570	0.251829	0.948846
C224	C	1.255570	0.751829	1.448846
C225	C	0.788977	0.218509	0.528417
C226	C	1.288977	0.718509	1.028417
C227	C	0.788970	0.218529	0.473811
C228	C	1.288970	0.718529	0.973811
C229	C	0.722043	0.285393	0.473797
C230	C	1.222043	0.785393	0.973797
C231	C	0.722052	0.285375	0.528397
C232	C	1.222052	0.785375	1.028397
C233	C	0.755521	0.251929	0.555706
C234	C	1.255521	0.751929	1.055706
O235	O	0.693635	0.313773	0.614771
O236	O	1.193635	0.813773	1.114771
O237	O	0.817439	0.190044	0.614847
O238	O	1.317439	0.690044	1.114847
H239	H	0.457399	0.312726	0.312556
H240	H	0.957399	0.812726	0.812556
H241	H	0.305272	0.346225	0.345950
H242	H	0.805272	0.846225	0.845950
N243	N	0.685950	0.321423	0.557823
N244	N	1.185950	0.821423	1.057823
H245	H	0.661738	0.300157	0.580464
H246	H	1.161738	0.800157	1.080464
H247	H	0.707203	0.345650	0.580460
H248	H	1.207203	0.845650	1.080460
H249	H	0.849709	0.801185	0.158037
H250	H	1.349709	1.301185	0.658037
N251	N	0.825001	0.557237	0.182573
N252	N	1.325001	1.057237	0.682573
H253	H	0.803777	0.579922	0.158322
H254	H	1.303777	1.079922	0.658322
H255	H	0.849224	0.579830	0.203877
H256	H	1.349224	1.079830	0.703877
N257	N	0.685948	0.321457	0.444337
N258	N	1.185948	0.821457	0.944337
H259	H	0.707173	0.345695	0.421684
H260	H	1.207173	0.845695	0.921684
H261	H	0.661741	0.300169	0.421708
H262	H	1.161741	0.800169	0.921708
H263	H	0.556454	0.191211	0.191422
H264	H	1.056454	0.691211	0.691422
H265	H	0.694699	0.451039	0.312594
H266	H	1.194699	0.951039	0.812594
H267	H	0.816300	0.953325	0.191448
H268	H	1.316300	1.453325	0.691448
H269	H	-0.044951	0.191258	0.191502
H270	H	0.455049	0.691258	0.691502
N271	N	0.450161	0.182380	0.182605
N272	N	0.950161	0.682380	0.682605
H273	H	0.427526	0.158182	0.203891
H274	H	0.927526	0.658182	0.703891
H275	H	0.427516	0.203646	0.158356
H276	H	0.927516	0.703646	0.658356
N277	N	0.858569	0.148935	0.809043
N278	N	1.358569	0.648935	1.309043
H279	H	0.895916	0.157065	0.799542
H280	H	1.395916	0.657065	1.299542
H281	H	0.853462	0.154006	0.847768
H282	H	1.353462	0.654006	1.347768
H283	H	0.661350	0.702225	0.346042
H284	H	1.161350	1.202225	0.846042
H285	H	0.206233	0.157734	0.158106
H286	H	0.706233	0.657734	0.658106
H287	H	0.694883	0.953392	0.312656
H288	H	1.194883	1.453392	0.812656
H289	H	0.694881	0.312471	1.052955
H290	H	1.194881	0.812471	1.552955
H291	H	0.816221	0.191310	0.451595
H292	H	1.316221	0.691310	0.951595
N293	N	0.825072	0.182433	0.557866
N294	N	1.325072	0.682433	1.057866
H295	H	0.846265	0.161265	0.532287
H296	H	1.346265	0.661265	1.032287
H297	H	0.849257	0.203711	0.580527
H298	H	1.349257	0.703711	1.080527
H299	H	0.816298	0.191153	1.053007
H300	H	1.316298	0.691153	1.553007
N301	N	0.563665	0.321575	0.321350
N302	N	1.063665	0.821575	0.821350
H303	H	0.554186	0.313510	0.358723
H304	H	1.054186	0.813510	0.858723
H305	H	0.602390	0.316480	0.316237
H306	H	1.102390	0.816480	0.816237
H307	H	0.849714	0.157806	0.702783
H308	H	1.349714	0.657806	1.202783
N309	N	0.685895	0.557330	0.321437
N310	N	1.185895	1.057330	0.821437
H311	H	0.661689	0.580020	0.300168
H312	H	1.161689	1.080020	0.800168
H313	H	0.664723	0.531726	0.342584
H314	H	1.164723	1.031726	0.842584
N315	N	0.652535	0.808497	0.354878
N316	N	1.152535	1.308497	0.854878
H317	H	0.631335	0.782920	0.376032
H318	H	1.131335	1.282920	0.876032
H319	H	0.673807	0.831122	0.379102
H320	H	1.173807	1.331122	0.879102
H321	H	0.206227	0.346229	0.345967
H322	H	0.706227	0.846229	0.845967
H323	H	0.054103	0.312760	0.312609
H324	H	0.554103	0.812760	0.812609
H325	H	-0.044963	0.312763	0.312619
H326	H	0.455037	0.812763	0.812619
H327	H	0.816288	0.191174	0.953941
H328	H	1.316288	0.691174	1.453941
H329	H	0.054099	0.191241	0.191496
H330	H	0.554099	0.691241	0.691496
H331	H	0.305283	0.157721	0.158103
H332	H	0.805283	0.657721	0.658103
N333	N	0.824953	0.443755	0.182566
N334	N	1.324953	0.943755	0.682566
H335	H	0.846159	0.469328	0.161413
H336	H	1.346159	0.969328	0.661413
H337	H	0.849125	0.421068	0.203873
H338	H	1.349125	0.921068	0.703873
N339	N	0.858517	0.694916	0.149200
N340	N	1.358517	1.194916	0.649200
H341	H	0.879723	0.720492	0.128050
H342	H	1.379723	1.220492	0.628050
H343	H	0.882690	0.672233	0.170512
H344	H	1.382690	1.172233	0.670512
H345	H	0.694857	0.312487	0.953905
H346	H	1.194857	0.812487	1.453905
H347	H	0.661345	0.345963	0.702710
H348	H	1.161345	0.845963	1.202710
N349	N	0.825178	1.059599	0.182633
N350	N	1.325178	1.559599	0.682633
H351	H	0.820112	1.098335	0.187709
H352	H	1.320112	1.598335	0.687709
H353	H	0.862511	1.050019	0.190810
H354	H	1.362511	1.550019	0.690810
H355	H	0.694912	1.052442	0.312659
H356	H	1.194912	1.552442	0.812659
N357	N	0.652520	0.354782	0.808975
N358	N	1.152520	0.854782	1.308975
H359	H	0.631320	0.375960	0.783380
H360	H	1.131320	0.875960	1.283380
H361	H	0.628342	0.333489	0.831624
H362	H	1.128342	0.833489	1.331624
