data_functionalizedCrystal
_audit_creation_method	'MofGen! by Chris Wilmer'
_symmetry_space_group_name_H-M	'P1'
_symmetry_Int_Tables_number	1
_symmetry_cell_setting	triclinic
loop_
_symmetry_equiv_pos_as_xyz
  x,y,z
_cell_length_a	10.654550
_cell_length_b	14.971486
_cell_length_c	14.048226
_cell_angle_alpha	90.006640
_cell_angle_beta	89.993856
_cell_angle_gamma	95.950484
loop_
_atom_site_label
_atom_site_type_symbol
_atom_site_fract_x
_atom_site_fract_y
_atom_site_fract_z
O1	O	1.666497	-0.125633	-0.079155
O2	O	1.300890	-0.137602	-0.079158
O3	O	1.493493	-0.001471	-0.079150
O4	O	1.473894	-0.261764	-0.079164
O5	O	1.493469	-0.001463	0.079171
O6	O	1.300867	-0.137594	0.079163
O7	O	1.666474	-0.125625	0.079166
Zn8	Zn	1.483666	-0.131608	0.104302
Zn9	Zn	1.483697	-0.131619	-0.104294
O10	O	1.473871	-0.261756	0.079158
C11	C	1.492605	0.031863	0.000010
C12	C	1.489978	0.131174	0.000010
C13	C	1.254090	-0.136719	0.000002
C14	C	1.114675	-0.134090	0.000001
C15	C	1.713274	-0.126508	0.000004
C16	C	1.852689	-0.129137	-0.000001
C17	C	1.933034	-0.048985	-0.000001
C18	C	2.064029	-0.051461	0.000004
C19	C	2.034319	-0.214248	0.000003
C20	C	1.903327	-0.211771	0.000005
C21	C	1.950188	0.044999	-0.000004
C22	C	2.081182	0.042523	-0.000000
C23	C	1.474759	-0.295090	-0.000005
C24	C	1.477386	-0.394401	-0.000010
N25	N	1.483655	-0.131600	0.246662
C26	C	1.603127	0.187784	0.000011
C27	C	1.600651	0.281097	0.000002
C28	C	1.485026	0.317798	-0.000003
C29	C	1.371868	0.261181	-0.000007
C30	C	1.374345	0.167870	-0.000005
C31	C	1.366714	0.455672	-0.000011
C32	C	1.364237	0.548989	-0.000012
C33	C	1.593020	0.568898	-0.000005
C34	C	1.595497	0.475587	-0.000002
C35	C	1.482339	0.418977	-0.000005
N36	N	1.483719	-0.131620	-0.246654
C37	C	1.568966	-0.071346	0.296484
C38	C	1.568975	-0.071346	0.396142
C39	C	1.483677	-0.131604	0.445976
C40	C	1.398356	-0.191861	0.396147
C41	C	1.398343	-0.191856	0.296491
C42	C	1.398393	-0.191868	0.603861
C43	C	1.398407	-0.191873	0.703524
C44	C	1.569024	-0.071357	0.703512
C45	C	1.569011	-0.071353	0.603856
C46	C	1.483692	-0.131611	0.554034
H47	H	2.075565	-0.281526	0.000010
H48	H	1.274568	0.409581	-0.000016
C49	C	1.662797	-0.005060	0.241672
C50	C	1.756632	0.061222	0.296480
C51	C	1.850462	0.127513	0.241672
C52	C	1.850459	0.127523	0.132054
C53	C	1.756620	0.061239	0.077239
C54	C	1.662790	-0.005052	0.132048
H55	H	1.756638	0.061217	0.377631
H56	H	1.919928	0.176581	0.282250
H57	H	1.919918	0.176595	0.091481
H58	H	1.756614	0.061244	-0.003912
H59	H	1.593324	-0.054120	0.091470
C60	C	1.662837	-0.005071	0.549033
C61	C	1.758908	-0.040661	0.480498
C62	C	1.852732	0.025623	0.425674
C63	C	1.850485	0.127496	0.439385
C64	C	1.754410	0.163091	0.507923
C65	C	1.660586	0.096807	0.562748
H66	H	1.760575	-0.116078	0.470345
H67	H	1.923853	-0.000727	0.374937
H68	H	1.919939	0.176563	0.398801
H69	H	1.752743	0.238508	0.518076
H70	H	1.589465	0.123157	0.613484
C71	C	2.138132	0.090342	-0.089507
C72	C	2.236307	0.172830	-0.079449
C73	C	2.293258	0.220643	-0.168954
C74	C	2.252034	0.185969	-0.268516
C75	C	2.153854	0.103477	-0.278578
C76	C	2.096903	0.055663	-0.189074
H77	H	2.266828	0.198502	-0.005743
H78	H	2.365938	0.281709	-0.161504
H79	H	2.294193	0.221363	-0.334773
H80	H	2.123333	0.077805	-0.352284
H81	H	2.024224	-0.005403	-0.196523
C82	C	1.902489	0.085424	-0.092348
C83	C	1.950495	0.182218	-0.121117
C84	C	1.902796	0.222640	-0.213463
C85	C	1.807091	0.166268	-0.277041
C86	C	1.759079	0.069468	-0.248274
C87	C	1.806779	0.029046	-0.155928
H88	H	2.021346	0.223954	-0.074052
H89	H	1.938337	0.294298	-0.234758
H90	H	1.771781	0.196190	-0.345401
H91	H	1.688228	0.027733	-0.295339
H92	H	1.771237	-0.042611	-0.134633
C93	C	1.304570	-0.258153	0.758339
C94	C	1.210714	-0.324423	0.703534
C95	C	1.116873	-0.390704	0.758346
C96	C	1.116887	-0.390715	0.867964
C97	C	1.210746	-0.324443	0.922775
C98	C	1.304587	-0.258162	0.867962
H99	H	1.210701	-0.324417	0.622383
H100	H	1.047393	-0.439763	0.717771
H101	H	1.047421	-0.439780	0.908539
H102	H	1.210760	-0.324449	1.003926
H103	H	1.374067	-0.209103	0.908538
C104	C	1.244680	0.301553	-0.000018
C105	C	1.211498	0.362974	0.082190
C106	C	1.084307	0.403344	0.082179
C107	C	0.990298	0.382295	-0.000040
C108	C	1.023477	0.320872	-0.082254
C109	C	1.150668	0.280501	-0.082244
H110	H	1.281092	0.378558	0.143059
H111	H	1.059747	0.448814	0.143040
H112	H	0.896144	0.412180	-0.000048
H113	H	0.953884	0.305287	-0.143123
H114	H	1.175228	0.235031	-0.143105
H115	H	1.837913	-0.277039	0.000016
C116	C	2.143262	0.080895	0.092345
C117	C	2.287107	0.083830	0.105563
C118	C	2.349188	0.122197	0.197907
C119	C	2.267424	0.157629	0.277033
C120	C	2.123570	0.154695	0.263818
C121	C	2.061489	0.116328	0.171474
H122	H	2.347641	0.057601	0.046987
H123	H	2.455679	0.124369	0.207690
H124	H	2.313380	0.186030	0.345392
H125	H	2.063036	0.180924	0.322394
H126	H	1.954999	0.114156	0.161691
H127	H	1.921219	0.081762	0.066251
C128	C	1.725121	0.343364	0.000012
C129	C	1.754861	0.410262	0.082224
C130	C	1.879338	0.472527	0.082235
C131	C	1.974075	0.467895	0.000034
C132	C	1.944337	0.400994	-0.082183
C133	C	1.819860	0.338729	-0.082194
H134	H	1.684729	0.413693	0.143079
H135	H	1.901351	0.522052	0.143098
H136	H	2.066220	0.513988	0.000043
H137	H	2.014469	0.397563	-0.143038
H138	H	1.797847	0.289205	-0.143058
H139	H	1.697282	0.157909	0.000021
H140	H	1.328912	-0.240933	0.563299
H141	H	1.282207	0.121779	-0.000006
H142	H	1.685158	0.614995	-0.000005
H143	H	1.689650	0.445708	0.000009
H144	H	1.638493	-0.022293	0.744083
H145	H	1.270084	0.578868	-0.000000
H146	H	1.638440	-0.022282	0.436706
H147	H	1.328899	-0.240921	0.436727
H148	H	1.328872	-0.240920	0.255927
