data_functionalizedCrystal
_audit_creation_method	'MofGen! by Chris Wilmer'
_symmetry_space_group_name_H-M	'P1'
_symmetry_Int_Tables_number	1
_symmetry_cell_setting	triclinic
loop_
_symmetry_equiv_pos_as_xyz
  x,y,z
_cell_length_a	19.121063
_cell_length_b	19.121274
_cell_length_c	19.120915
_cell_angle_alpha	94.963843
_cell_angle_beta	85.261346
_cell_angle_gamma	90.075254
loop_
_atom_site_label
_atom_site_type_symbol
_atom_site_fract_x
_atom_site_fract_y
_atom_site_fract_z
Zn1	Zn	-0.339806	-1.043481	0.367080
Zn2	Zn	0.160194	-0.543481	0.867080
Zn3	Zn	-0.452456	-1.043398	0.254435
Zn4	Zn	0.047544	-0.543398	0.754435
Zn5	Zn	-0.330220	-0.931277	0.254024
Zn6	Zn	0.169780	-0.431277	0.754024
Zn7	Zn	-0.452410	-0.920766	0.377072
Zn8	Zn	0.047590	-0.420766	0.877072
O9	O	-0.393723	-0.984730	0.313152
O10	O	0.106277	-0.484730	0.813152
O11	O	-0.358781	-1.141750	0.348128
O12	O	0.141219	-0.641750	0.848128
O13	O	-0.432248	-1.032889	0.155742
O14	O	0.067752	-0.532889	0.655742
O15	O	-0.233210	-0.950594	0.264667
O16	O	0.266790	-0.450594	0.764667
O17	O	-0.441544	-1.141689	0.265368
O18	O	0.058456	-0.641689	0.765368
O19	O	-0.240254	-1.033030	0.347729
O20	O	0.259746	-0.533030	0.847729
O21	O	-0.342442	-0.950514	0.155440
O22	O	0.157558	-0.450514	0.655440
O23	O	-0.342397	-0.831603	0.274356
O24	O	0.157603	-0.331603	0.774356
O25	O	-0.441465	-0.932680	0.474385
O26	O	0.058535	-0.432680	0.974385
O27	O	-0.432170	-0.823881	0.364758
O28	O	0.067830	-0.323881	0.864758
O29	O	-0.358736	-1.022838	0.467044
O30	O	0.141264	-0.522838	0.967044
O31	O	-0.550731	-1.022697	0.275056
O32	O	-0.050731	-0.522697	0.775056
O33	O	-0.550697	-0.932600	0.365157
O34	O	-0.050697	-0.432600	0.865157
C35	C	-0.386239	-0.802259	0.320597
C36	C	0.113761	-0.302259	0.820597
C37	C	-0.383055	-0.724195	0.323799
C38	C	0.116945	-0.224195	0.823799
C39	C	-0.576198	-0.976517	0.321250
C40	C	-0.076198	-0.476517	0.821250
C41	C	-0.654266	-0.973067	0.324735
C42	C	-0.154266	-0.473067	0.824735
C43	C	-0.424573	-0.687492	0.282145
C44	C	0.075427	-0.187492	0.782145
C45	C	-0.421582	-0.614143	0.285163
C46	C	0.078418	-0.114143	0.785163
C47	C	-0.377068	-0.577498	0.329833
C48	C	0.122932	-0.077498	0.829833
C49	C	-0.335548	-0.614206	0.371492
C50	C	0.164452	-0.114206	0.871492
C51	C	-0.338543	-0.687553	0.368477
C52	C	0.161457	-0.187553	0.868477
C53	C	-0.365875	-0.356036	0.341099
C54	C	0.134125	0.143964	0.841099
C55	C	-0.362882	-0.282683	0.344109
C56	C	0.137118	0.217317	0.844109
C57	C	-0.448917	-0.282625	0.257781
C58	C	0.051083	0.217375	0.757781
C59	C	-0.451905	-0.355975	0.254766
C60	C	0.048095	0.144025	0.754766
C61	C	-0.410388	-0.392676	0.296428
C62	C	0.089612	0.107324	0.796428
C63	C	-0.374008	-0.502523	0.332917
C64	C	0.125992	-0.002523	0.832917
C65	C	-0.413452	-0.467649	0.293347
C66	C	0.086548	0.032351	0.793347
C67	C	-0.690939	-1.018388	0.279498
C68	C	-0.190939	-0.518388	0.779498
C69	C	-0.764292	-1.015147	0.282779
C70	C	-0.264292	-0.515147	0.782779
C71	C	-0.800970	-0.966581	0.331296
C72	C	-0.300970	-0.466581	0.831296
C73	C	-0.764291	-0.921258	0.376538
C74	C	-0.264291	-0.421258	0.876538
C75	C	-0.690940	-0.924503	0.373259
C76	C	-0.190940	-0.424503	0.873259
C77	C	-1.022444	-0.954438	0.343544
C78	C	-0.522444	-0.454438	0.843544
C79	C	-1.095800	-0.951195	0.346818
C80	C	-0.595800	-0.451195	0.846818
C81	C	-1.095795	-1.045085	0.253059
C82	C	-0.595795	-0.545085	0.753059
C83	C	-1.022442	-1.048323	0.249782
C84	C	-0.522442	-0.548323	0.749782
C85	C	-0.985771	-1.003002	0.295027
C86	C	-0.485771	-0.503002	0.795027
C87	C	-0.875948	-0.963265	0.334650
C88	C	-0.375948	-0.463265	0.834650
C89	C	-0.910794	-1.006322	0.291676
C90	C	-0.410794	-0.506322	0.791676
C91	C	-0.210536	-0.992994	0.305038
C92	C	0.289464	-0.492994	0.805038
C93	C	-0.132473	-0.996516	0.301580
C94	C	0.367527	-0.496516	0.801580
C95	C	-0.401165	-0.976596	0.497005
C96	C	0.098835	-0.476596	0.997005
C97	C	-0.404337	-0.973130	0.575353
C98	C	0.095663	-0.473130	1.075353
C99	C	-0.401227	-0.167915	0.305669
C100	C	0.098773	0.332085	0.805669
C101	C	-0.404400	-0.245980	0.302454
C102	C	0.095600	0.254020	0.802454
C103	C	-0.386261	-0.992876	0.130011
C104	C	0.113739	-0.492876	0.630011
C105	C	-0.382897	-0.996487	0.051650
C106	C	0.117103	-0.496487	0.551650
C107	C	-0.424473	-0.951175	1.018662
C108	C	0.075527	-0.451175	1.518662
C109	C	-0.421483	-0.954430	0.945046
C110	C	0.078517	-0.454430	1.445046
C111	C	-0.376919	-1.003001	0.904419
C112	C	0.123081	-0.503001	1.404419
C113	C	-0.335338	-1.048315	0.937413
C114	C	0.164662	-0.548315	1.437413
C115	C	-0.338325	-1.045056	1.011027
C116	C	0.161675	-0.545056	1.511027
C117	C	-0.365742	-1.015185	0.681960
C118	C	0.134258	-0.515185	1.181960
C119	C	-0.362760	-1.018442	0.608341
C120	C	0.137240	-0.518442	1.108341
C121	C	-0.448904	-0.924555	0.615979
C122	C	0.051096	-0.424555	1.115979
C123	C	-0.451891	-0.921304	0.689595
C124	C	0.048109	-0.421304	1.189595
C125	C	-0.410307	-0.966615	0.722581
C126	C	0.089693	-0.466615	1.222581
C127	C	-0.373863	-1.006330	0.829172
C128	C	0.126137	-0.506330	1.329172
C129	C	-0.413359	-0.963282	0.797827
C130	C	0.086641	-0.463282	1.297827
H131	H	-0.455391	-0.584263	0.251243
H132	H	0.044609	-0.084263	0.751243
N133	N	-0.461428	-0.910902	0.841644
N134	N	0.038572	-0.410902	1.341644
H135	H	-0.487319	-0.882689	0.809578
H136	H	0.012681	-0.382689	1.309578
H137	H	-0.432745	-0.878339	0.872249
H138	H	0.067255	-0.378339	1.372249
N139	N	-1.135360	-0.898813	0.399153
N140	N	-0.635360	-0.398813	0.899153
H141	H	-1.187392	-0.903633	0.394359
H142	H	-0.687392	-0.403633	0.894359
H143	H	-1.120084	-0.849715	0.389618
H144	H	-0.620084	-0.349715	0.889618
H145	H	-0.460819	-0.717324	0.245767
H146	H	0.039181	-0.217324	0.745767
N147	N	-0.293769	-0.727145	0.413409
N148	N	0.206231	-0.227145	0.913409
H149	H	-0.242607	-0.717121	0.400846
H150	H	0.257393	-0.217121	0.900846
H151	H	-0.302485	-0.779155	0.404702
H152	H	0.197515	-0.279155	0.904702
N153	N	-0.287535	-0.574689	0.419674
N154	N	0.212465	-0.074689	0.919674
H155	H	-0.316204	-0.541536	0.454811
H156	H	0.183796	-0.041536	0.954811
H157	H	-0.252550	-0.547023	0.390836
H158	H	0.247450	-0.047023	0.890836
N159	N	-0.314717	-1.070847	0.564510
N160	N	0.185283	-0.570847	1.064510
H161	H	-0.279763	-1.045142	0.533674
H162	H	0.220237	-0.545142	1.033674
H163	H	-0.343439	-1.103427	0.533962
H164	H	0.156561	-0.603427	1.033962
H165	H	-0.455347	-0.917538	0.918190
H166	H	0.044653	-0.417538	1.418190
N167	N	-0.499956	-0.868917	0.733412
N168	N	0.000044	-0.368917	1.233412
H169	H	-0.525842	-0.840704	0.701343
H170	H	-0.025842	-0.340704	1.201343
H171	H	-0.471272	-0.836355	0.764017
H172	H	0.028728	-0.336355	1.264017
H173	H	-0.304466	-1.081952	1.037885
H174	H	0.195534	-0.581952	1.537885
H175	H	-0.337581	-1.045879	0.796086
H176	H	0.162419	-0.545879	1.296086
N177	N	-0.651383	-0.875613	0.422044
N178	N	-0.151383	-0.375613	0.922044
H179	H	-0.599351	-0.885038	0.412607
H180	H	-0.099351	-0.385038	0.912607
H181	H	-0.666658	-0.883708	0.472523
H182	H	-0.166658	-0.383708	0.972523
N183	N	-1.135347	-1.093961	0.204259
N184	N	-0.635347	-0.593961	0.704259
H185	H	-1.187380	-1.084537	0.213695
H186	H	-0.687380	-0.584537	0.713695
H187	H	-1.124980	-1.144194	0.212647
H188	H	-0.624980	-0.644194	0.712647
H189	H	-0.449699	-0.497488	0.256981
H190	H	0.050301	0.002512	0.756981
N191	N	-0.321074	-0.395603	0.386020
N192	N	0.178926	0.104397	0.886020
H193	H	-0.288568	-0.428751	0.354726
H194	H	0.211432	0.071249	0.854726
H195	H	-0.352261	-0.423278	0.418662
H196	H	0.147739	0.076722	0.918662
N197	N	-0.314870	-0.243156	0.392293
N198	N	0.185130	0.256844	0.892293
H199	H	-0.289025	-0.277535	0.418230
H200	H	0.210975	0.222465	0.918230
H201	H	-0.343591	-0.210003	0.427381
H202	H	0.156409	0.289997	0.927381
N203	N	-0.493752	-0.875684	0.580401
N204	N	0.006248	-0.375684	1.080401
H205	H	-0.485100	-0.885116	0.527602
H206	H	0.014900	-0.385116	1.027602
H207	H	-0.481282	-0.825451	0.594832
H208	H	0.018718	-0.325451	1.094832
N209	N	-0.287283	-1.100709	0.893591
N210	N	0.212717	-0.600709	1.393591
H211	H	-0.237170	-1.091508	0.904617
H212	H	0.262830	-0.591508	1.404617
H213	H	-0.291769	-1.095870	0.841969
H214	H	0.208231	-0.595870	1.341969
H215	H	-0.488152	-0.385806	0.218391
H216	H	0.011848	0.114194	0.718391
H217	H	-0.460765	-0.911625	1.051735
H218	H	0.039235	-0.411625	1.551735
N219	N	-0.915505	-0.910878	0.386973
N220	N	-0.415505	-0.410878	0.886973
H221	H	-0.948393	-0.936601	0.419856
H222	H	-0.448393	-0.436601	0.919856
H223	H	-0.943444	-0.878294	0.360932
H224	H	-0.443444	-0.378294	0.860932
H225	H	-0.482719	-0.252735	0.223863
H226	H	0.017281	0.247265	0.723863
N227	N	-0.651381	-1.070768	0.227167
N228	N	-0.151381	-0.570768	0.727167
H229	H	-0.685748	-1.098988	0.199009
H230	H	-0.185748	-0.598988	0.699009
H231	H	-0.623401	-1.103323	0.253199
H232	H	-0.123401	-0.603323	0.753199
N233	N	-0.325994	-0.462993	0.381089
N234	N	0.174006	0.037007	0.881089
H235	H	-0.275876	-0.478488	0.367470
H236	H	0.224124	0.021512	0.867470
H237	H	-0.339595	-0.473063	0.431381
H238	H	0.160405	0.026937	0.931381
N239	N	-0.803848	-1.064028	0.233988
N240	N	-0.303848	-0.564028	0.733988
H241	H	-0.769482	-1.095283	0.202752
H242	H	-0.269482	-0.595283	0.702752
H243	H	-0.831830	-1.035561	0.203875
H244	H	-0.331830	-0.535561	0.703875
N245	N	-0.982885	-1.100714	0.197464
N246	N	-0.482885	-0.600714	0.697464
H247	H	-1.017249	-1.128938	0.169307
H248	H	-0.517249	-0.628938	0.669307
H249	H	-0.954910	-1.133265	0.223508
H250	H	-0.454910	-0.633265	0.723508
H251	H	-0.880929	-1.045867	0.252176
H252	H	-0.380929	-0.545867	0.752176
H253	H	-0.331886	-1.052085	0.708809
H254	H	0.168114	-0.552085	1.208809
N255	N	-0.803844	-0.868873	0.428868
N256	N	-0.303844	-0.368873	0.928868
H257	H	-0.836733	-0.894595	0.461751
H258	H	-0.336733	-0.394595	0.961751
H259	H	-0.831779	-0.836282	0.402832
H260	H	-0.331779	-0.336282	0.902832
N261	N	-0.982894	-0.905552	0.392333
N262	N	-0.482894	-0.405552	0.892333
H263	H	-0.998116	-0.913622	0.442832
H264	H	-0.498116	-0.413622	0.942832
H265	H	-0.993223	-0.855323	0.383898
H266	H	-0.493223	-0.355323	0.883898
