data_functionalizedCrystal
_audit_creation_method	'MofGen! by Chris Wilmer'
_symmetry_space_group_name_H-M	'P1'
_symmetry_Int_Tables_number	1
_symmetry_cell_setting	triclinic
loop_
_symmetry_equiv_pos_as_xyz
  x,y,z
_cell_length_a	15.995350
_cell_length_b	15.995350
_cell_length_c	15.072220
_cell_angle_alpha	90.001101
_cell_angle_beta	89.991149
_cell_angle_gamma	83.492375
loop_
_atom_site_label
_atom_site_type_symbol
_atom_site_fract_x
_atom_site_fract_y
_atom_site_fract_z
O1	O	-1.110996	-0.107921	0.073703
O2	O	-0.867221	-0.121249	0.073721
O3	O	-0.995772	0.007303	0.073710
O4	O	-0.982444	-0.236472	0.073713
O5	O	-0.995740	0.007296	-0.073855
O6	O	-0.867189	-0.121256	-0.073844
O7	O	-1.110964	-0.107928	-0.073862
Zn8	Zn	-0.989071	-0.114593	-0.097283
Zn9	Zn	-0.989113	-0.114584	0.097141
O10	O	-0.982413	-0.236480	-0.073852
C11	C	-0.836010	-0.120701	-0.000060
C12	C	-0.743060	-0.119049	-0.000053
C13	C	-0.995205	0.038494	-0.000070
C14	C	-0.993553	0.131444	-0.000065
N15	N	-0.989049	-0.114599	-0.229971
C16	C	-1.142175	-0.108476	-0.000080
C17	C	-1.235125	-0.110127	-0.000081
C18	C	-0.405312	-0.113117	-0.000071
C19	C	-0.452746	-0.021565	-0.000401
C20	C	-0.549436	-0.023217	-0.000063
C21	C	-0.572873	-0.116060	-0.000063
C22	C	-0.531804	-0.161212	0.084201
C23	C	-0.435168	-0.158912	0.084266
C24	C	-0.434793	-0.160812	-0.083543
C25	C	-0.531738	-0.160790	-0.084651
C26	C	-0.667570	-0.117727	-0.000055
C27	C	-0.310614	-0.111452	-0.000073
C28	C	-0.982980	-0.267671	-0.000069
C29	C	-0.984631	-0.360621	-0.000069
C30	C	-0.987621	0.469192	-0.000068
C31	C	-0.896069	0.421758	0.000270
C32	C	-0.897721	0.325068	-0.000063
C33	C	-0.990564	0.301631	-0.000066
C34	C	-1.035702	0.342705	-0.084335
C35	C	-1.033402	0.439341	-0.084405
C36	C	-1.035330	0.439707	0.083404
C37	C	-1.035308	0.342761	0.084518
C38	C	-0.992231	0.206934	-0.000068
C39	C	-0.985956	0.563890	-0.000072
C40	C	-0.989112	-0.114580	-0.589173
C41	C	-0.920095	-0.183135	-0.551560
C42	C	-0.920254	-0.183385	-0.448735
C43	C	-0.989080	-0.114590	-0.410969
C44	C	-1.076445	-0.133671	-0.448266
C45	C	-1.076058	-0.134159	-0.551124
C46	C	-0.971542	-0.026741	-0.551272
C47	C	-0.969537	-0.027327	-0.448409
C48	C	-0.989067	-0.114593	-0.310255
C49	C	-0.989130	-0.114579	-0.689886
N50	N	-0.989142	-0.114571	0.229830
H51	H	-0.577852	0.012275	-0.060467
C52	C	-0.990766	0.305906	0.168739
N53	N	-0.957209	0.278149	0.232174
C54	C	-0.832081	-0.168045	-0.585026
N55	N	-0.765787	-0.156682	-0.610244
H56	H	-1.100617	0.471588	-0.088231
H57	H	-0.414244	-0.130885	-0.147414
C58	C	-0.849431	0.287416	-0.081805
N59	N	-0.813057	0.259058	-0.143378
C60	C	-0.994907	0.467455	0.169691
N61	N	-0.964452	0.488353	0.234677
H62	H	-0.560191	-0.129845	0.146912
C63	C	-1.096957	-0.220707	-0.583525
N64	N	-1.112693	-0.285901	-0.607925
C65	C	-0.587092	0.025060	0.081685
N66	N	-0.615453	0.061423	0.143261
H67	H	-1.129019	-0.086195	-0.576003
C68	C	-0.552508	-0.252251	-0.091538
N69	N	-0.568156	-0.321141	-0.096724
H70	H	-1.004325	0.314320	-0.147042
C71	C	-0.846645	0.446806	0.081903
N72	N	-0.809416	0.465681	0.143390
H73	H	-1.000460	0.457639	-0.147395
C74	C	-0.935415	-0.271446	-0.415479
N75	N	-0.946840	-0.337775	-0.390432
H76	H	-0.909219	-0.008392	-0.577258
C77	C	-1.127843	0.323605	-0.088586
N78	N	-1.197242	0.309212	-0.091790
C79	C	-0.568592	-0.116236	-0.168868
N80	N	-0.596348	-0.082671	-0.232299
H81	H	-0.403031	-0.228312	-0.084113
H82	H	-1.103014	0.327400	0.089603
H83	H	-1.129029	-0.085068	-0.423801
H84	H	-0.545929	-0.229421	0.087335
C85	C	-1.097856	-0.219234	-0.413467
N86	N	-1.113977	-0.283685	-0.387261
C87	C	-1.126518	0.482619	0.084170
N88	N	-1.195198	0.514946	0.084742
C89	C	-0.426282	0.027658	0.080774
N90	N	-0.406345	0.064732	0.141915
C91	C	-0.846845	0.448198	-0.080926
N92	N	-0.809775	0.468106	-0.142091
C93	C	-0.882713	-0.007764	-0.415483
N94	N	-0.817315	0.006967	-0.390680
H95	H	-0.855314	-0.172016	-0.423519
C96	C	-0.849778	0.286672	0.081541
N97	N	-0.813661	0.257755	0.143005
C98	C	-0.935041	-0.270702	-0.586466
N99	N	-0.946301	-0.336657	-0.612758
H100	H	-0.434211	0.015027	-0.060830
H101	H	-0.416873	-0.125979	0.147255
H102	H	-0.402920	-0.226128	0.088090
C103	C	-1.033049	0.044821	-0.413702
N104	N	-1.080899	0.099161	-0.387569
C105	C	-1.039531	0.042181	-0.584137
N106	N	-1.090742	0.094087	-0.608897
