data_functionalizedCrystal
_audit_creation_method	'MofGen! by Chris Wilmer'
_symmetry_space_group_name_H-M	'P1'
_symmetry_Int_Tables_number	1
_symmetry_cell_setting	triclinic
loop_
_symmetry_equiv_pos_as_xyz
  x,y,z
_cell_length_a	29.839134
_cell_length_b	29.839131
_cell_length_c	15.298259
_cell_angle_alpha	80.280107
_cell_angle_beta	99.645663
_cell_angle_gamma	90.034165
loop_
_atom_site_label
_atom_site_type_symbol
_atom_site_fract_x
_atom_site_fract_y
_atom_site_fract_z
Zn1	Zn	0.642796	-0.134932	-0.510362
Zn2	Zn	0.655712	-0.223072	-0.359494
Zn3	Zn	0.580664	-0.147948	-0.359487
Zn4	Zn	0.567634	-0.210034	-0.510273
O5	O	0.611702	-0.178996	-0.434904
O6	O	0.707373	-0.146633	-0.490390
O7	O	0.656615	-0.224010	-0.233250
O8	O	0.588953	-0.083351	-0.379536
O9	O	0.716863	-0.211389	-0.379548
O10	O	0.634601	-0.073788	-0.490383
O11	O	0.601477	-0.168817	-0.233245
O12	O	0.516072	-0.156174	-0.379449
O13	O	0.566746	-0.189168	-0.636527
O14	O	0.506499	-0.201789	-0.490230
O15	O	0.621967	-0.133991	-0.636593
O16	O	0.643981	-0.284212	-0.379461
O17	O	0.579271	-0.274633	-0.490237
C18	C	0.494985	-0.178979	-0.434830
C19	C	0.445052	-0.178981	-0.434819
C20	C	0.093419	-0.155192	-0.377338
C21	C	0.281097	-0.155184	-0.377283
O22	O	0.309581	-0.134927	-0.328327
N23	N	0.299603	-0.178984	-0.434864
C24	C	0.271186	-0.202786	-0.492467
O25	O	0.291232	-0.223025	-0.541449
C26	C	0.083508	-0.202791	-0.492526
C27	C	0.065006	-0.178993	-0.434935
C28	C	0.074916	-0.131396	-0.319752
C29	C	0.028000	-0.131400	-0.319763
C30	C	-0.000414	-0.155201	-0.377360
C31	C	0.018090	-0.178997	-0.434946
C32	C	0.055092	-0.226589	-0.550133
C33	C	0.008170	-0.226588	-0.550144
C34	C	-0.010333	-0.202790	-0.492553
C35	C	-0.057240	-0.202802	-0.492553
N36	N	-0.075746	-0.179002	-0.434972
C37	C	-0.047333	-0.155201	-0.377375
C38	C	0.369719	-0.202782	-0.492431
C39	C	0.416639	-0.202782	-0.492416
C40	C	0.426547	-0.155179	-0.377233
C41	C	0.379627	-0.155183	-0.377244
C42	C	0.351214	-0.178982	-0.434850
C43	C	-0.145861	-0.155212	-0.377402
C44	C	-0.192782	-0.155220	-0.377415
C45	C	-0.202686	-0.202820	-0.492601
C46	C	-0.155769	-0.202815	-0.492585
C47	C	-0.127357	-0.179007	-0.434982
O48	O	-0.085752	-0.223044	-0.541491
O49	O	-0.067389	-0.134957	-0.328415
C50	C	0.140336	-0.155188	-0.377327
C51	C	0.158839	-0.178984	-0.434913
C52	C	0.130425	-0.202785	-0.492510
C53	C	0.205758	-0.178984	-0.434898
C54	C	0.234171	-0.155183	-0.377301
C55	C	0.215665	-0.131383	-0.319720
C56	C	0.168749	-0.131387	-0.319731
C57	C	0.148931	-0.226585	-0.550091
C58	C	0.195848	-0.226579	-0.550075
C59	C	0.224261	-0.202779	-0.492478
C60	C	0.611624	-0.295723	-0.434859
C61	C	0.611630	-0.345656	-0.434870
C62	C	0.645441	-0.660264	-0.377307
C63	C	0.645494	-0.847935	-0.377342
O64	O	0.674180	-0.876424	-0.328366
N65	N	0.611789	-0.866432	-0.434972
C66	C	0.578070	-0.838009	-0.492602
O67	O	0.549406	-0.858048	-0.541627
C68	C	0.578020	-0.650340	-0.492570
C69	C	0.611724	-0.631845	-0.434930
C70	C	0.679143	-0.641769	-0.319673
C71	C	0.679129	-0.594855	-0.319661
C72	C	0.645412	-0.566436	-0.377284
C73	C	0.611710	-0.584931	-0.434919
C74	C	0.544304	-0.621917	-0.550204
C75	C	0.544295	-0.574997	-0.550192
C76	C	0.577999	-0.556502	-0.492552
C77	C	0.577978	-0.509597	-0.492530
N78	N	0.611683	-0.491099	-0.434900
C79	C	0.645400	-0.519518	-0.377277
C80	C	0.578098	-0.936539	-0.492613
C81	C	0.578110	-0.983456	-0.492619
C82	C	0.645535	-0.993378	-0.377361
C83	C	0.645520	-0.946460	-0.377350
C84	C	0.611803	-0.918041	-0.434983
C85	C	0.645366	-0.420994	-0.377257
C86	C	0.645347	-0.374076	-0.377247
C87	C	0.577924	-0.364157	-0.492509
C88	C	0.577941	-0.411072	-0.492515
C89	C	0.611666	-0.439490	-0.434886
O90	O	0.549309	-0.481080	-0.541488
O91	O	0.674065	-0.499469	-0.328274
C92	C	0.645456	-0.707179	-0.377319
C93	C	0.611754	-0.725674	-0.434954
C94	C	0.578037	-0.697255	-0.492577
C95	C	0.611766	-0.772591	-0.434960
C96	C	0.645483	-0.801011	-0.377337
C97	C	0.679188	-0.782513	-0.319708
C98	C	0.679173	-0.735598	-0.319696
C99	C	0.544332	-0.715753	-0.550207
C100	C	0.544350	-0.762668	-0.550213
C101	C	0.578067	-0.791087	-0.492590
C102	C	0.728873	-0.179014	-0.434980
C103	C	0.778805	-0.179021	-0.435012
C104	C	0.591463	-0.158673	-0.670209
C105	C	0.582838	-0.150012	-0.770482
C106	C	0.611790	-0.061812	-0.434969
C107	C	0.611827	-0.011875	-0.434996
C108	C	0.673358	-0.240549	-1.053138
C109	C	0.681459	-0.248689	-0.958926
C110	C	0.656805	-0.224020	-0.911810
C111	C	0.624048	-0.191211	-0.958915
C112	C	0.615943	-0.183072	-1.053136
C113	C	0.599390	-0.166544	-0.911809
C114	C	0.566633	-0.133734	-0.958914
C115	C	0.558530	-0.125597	-1.053125
C116	C	0.583185	-0.150266	-1.100241
C117	C	0.607494	-0.174682	-0.817588
C118	C	0.550079	-0.117206	-0.817587
C119	C	0.541978	-0.109066	-0.911798
C120	C	0.631888	-0.199208	-0.200515
C121	C	0.640599	-0.207742	-0.100242
H122	H	0.012940	-0.112021	-0.272867
C123	C	0.507786	-0.684869	-0.612881
C124	C	0.528204	-0.652905	-0.670781
C125	C	0.494547	-0.624454	-0.728537
H126	H	0.491172	-0.669532	-0.578428
H127	H	0.487721	-0.702591	-0.647253
H128	H	0.548261	-0.635185	-0.636413
H129	H	0.544815	-0.668230	-0.705254
H130	H	0.474482	-0.642176	-0.762909
H131	H	0.477935	-0.609120	-0.694076
H132	H	0.508395	-0.602766	-0.767834
H133	H	0.706575	-0.579800	-0.272728
H134	H	0.706602	-0.664904	-0.272749
H135	H	0.672966	-0.931405	-0.330416
H136	H	0.663402	-0.230650	-0.835099
H137	H	0.516838	-0.551859	-0.597127
C138	C	0.717061	-0.284307	-0.907949
C139	C	0.736928	-0.304159	-0.969372
C140	C	0.769733	-0.336968	-0.922445
H141	H	0.703075	-0.307095	-0.871169
H142	H	0.739830	-0.270305	-0.871239
H143	H	0.714162	-0.318161	-1.006067
H144	H	0.750922	-0.281382	-1.006155
H145	H	0.792503	-0.322966	-0.885734
H146	H	0.755744	-0.359753	-0.885666
H147	H	0.783220	-0.350439	-0.964113
H148	H	0.516856	-0.636967	-0.597136
C149	C	0.506415	-0.073482	-0.963109
C150	C	0.504589	-0.071646	-1.055701
C151	C	0.471829	-0.038876	-1.102996
H152	H	0.514301	-0.044602	-0.947800
H153	H	0.477539	-0.081386	-0.947701
H154	H	0.533458	-0.063739	-1.071102
H155	H	0.496697	-0.100517	-1.071036
H156	H	0.442954	-0.046780	-1.087588
H157	H	0.479719	-0.009999	-1.087680
H158	H	0.470583	-0.037629	-1.165824
C159	C	0.682144	-1.024306	-0.314962
C160	C	0.674954	-1.069347	-0.327356
C161	C	0.708684	-1.097848	-0.269935
H162	H	0.680875	-1.021949	-0.254269
H163	H	0.711172	-1.015446	-0.328308
H164	H	0.645933	-1.078203	-0.314004
H165	H	0.676227	-1.071718	-0.388037
H166	H	0.737712	-1.088988	-0.283281
H167	H	0.707413	-1.095487	-0.209246
H168	H	0.703813	-1.128410	-0.278343
C169	C	0.700088	-0.267269	-1.104454
C170	C	0.685985	-0.253113	-1.197044
C171	C	0.710603	-0.277716	-1.244345
H172	H	0.694835	-0.298796	-1.089100
H173	H	0.731611	-0.262026	-1.089096
H174	H	0.654469	-0.258359	-1.212396
H175	H	0.691238	-0.221589	-1.212425
H176	H	0.742126	-0.272474	-1.228987
H177	H	0.705348	-0.309243	-1.228984
H178	H	0.701040	-0.268112	-1.307172
C179	C	-0.022713	-0.252344	-0.612800
C180	C	-0.054597	-0.221947	-0.670734
C181	C	-0.083049	-0.245655	-0.728469
H182	H	-0.038106	-0.274881	-0.578333
H183	H	-0.004991	-0.266503	-0.647148
H184	H	-0.072317	-0.207795	-0.636390
H185	H	-0.039217	-0.199408	-0.705220
H186	H	-0.065326	-0.259815	-0.762817
H187	H	-0.098438	-0.268192	-0.693995
H188	H	-0.104683	-0.225034	-0.767790
H189	H	0.364565	-0.135803	-0.330352
H190	H	0.530003	-0.097119	-0.779226
C191	C	0.541488	-1.003444	-0.555292
C192	C	0.511968	-0.968506	-0.605768
C193	C	0.478230	-0.986899	-0.663526
H194	H	0.524854	-1.024747	-0.520847
H195	H	0.555263	-1.018311	-0.594693
H196	H	0.498193	-0.953646	-0.566373
H197	H	0.528588	-0.947201	-0.640232
H198	H	0.492005	-1.001766	-0.702927
H199	H	0.461599	-1.008202	-0.629073
H200	H	0.458199	-0.963196	-0.697787
C201	C	0.541473	-0.905642	-0.555037
C202	C	0.517097	-0.883150	-0.503889
C203	C	0.483357	-0.854682	-0.561360
H204	H	0.521358	-0.923328	-0.589375
H205	H	0.555238	-0.883894	-0.594372
H206	H	0.503332	-0.904895	-0.464569
H207	H	0.537199	-0.865455	-0.469553
H208	H	0.497122	-0.832934	-0.600695
H209	H	0.463246	-0.872372	-0.595695
H210	H	0.466817	-0.839415	-0.526665
C211	C	0.681914	-0.451909	-0.314648
C212	C	0.661493	-0.483889	-0.256785
C213	C	0.695145	-0.512380	-0.199110
H214	H	0.702002	-0.434231	-0.280238
H215	H	0.698501	-0.467226	-0.349191
H216	H	0.644913	-0.468573	-0.222246
H217	H	0.641407	-0.501577	-0.291170
H218	H	0.711732	-0.527698	-0.233653
H219	H	0.715232	-0.494699	-0.164707
H220	H	0.681294	-0.534085	-0.159849
C221	C	0.541322	-0.431066	-0.555191
C222	C	0.511797	-0.396132	-0.605665
C223	C	0.478065	-0.414527	-0.663429
H224	H	0.524690	-0.452373	-0.520749
H225	H	0.555102	-0.445928	-0.594592
H226	H	0.498019	-0.381276	-0.566269
H227	H	0.528416	-0.374822	-0.640125
H228	H	0.491844	-0.429390	-0.702830
H229	H	0.461436	-0.435835	-0.628980
H230	H	0.458031	-0.390827	-0.697688
H231	H	0.449689	-0.135800	-0.330334
C232	C	0.574339	-0.141345	-1.202532
C233	C	0.540381	-0.107328	-1.233704
C234	C	0.532226	-0.099095	-1.327929
H235	H	0.564691	-0.168459	-1.223941
H236	H	0.601492	-0.131714	-1.223895
H237	H	0.513233	-0.116961	-1.212350
H238	H	0.550020	-0.080208	-1.212319
H239	H	0.559379	-0.089464	-1.349292
H240	H	0.522579	-0.126210	-1.349330
H241	H	0.509188	-0.076010	-1.349091
C242	C	0.715870	-0.813305	-0.257199
C243	C	0.758607	-0.800129	-0.276941
C244	C	0.792412	-0.828479	-0.219378
H245	H	0.711121	-0.843908	-0.265402
H246	H	0.714565	-0.810863	-0.196550
H247	H	0.759911	-0.802575	-0.337575
H248	H	0.763371	-0.769530	-0.268734
H249	H	0.791107	-0.826037	-0.158729
H250	H	0.787658	-0.859080	-0.227585
H251	H	0.821412	-0.819540	-0.232759
C252	C	0.338842	-0.228543	-0.555086
C253	C	0.306959	-0.198152	-0.613036
C254	C	0.278514	-0.221868	-0.670770
H255	H	0.323449	-0.251080	-0.520619
H256	H	0.356570	-0.242704	-0.589422
H257	H	0.289233	-0.183999	-0.578704
H258	H	0.322339	-0.175615	-0.647523
H259	H	0.296242	-0.236029	-0.705106
H260	H	0.263124	-0.244404	-0.636296
H261	H	0.256881	-0.201251	-0.710101
H262	H	0.550471	-0.341011	-0.539422
H263	H	-0.207843	-0.135841	-0.330515
H264	H	-0.140703	-0.222197	-0.539473
C265	C	-0.115090	-0.129361	-0.314756
C266	C	-0.141344	-0.108536	-0.264314
C267	C	-0.113013	-0.084727	-0.206581
H268	H	-0.099731	-0.106790	-0.349218
H269	H	-0.093426	-0.149912	-0.275332
H270	H	-0.163000	-0.087987	-0.303732
H271	H	-0.156702	-0.131096	-0.229833
H272	H	-0.091348	-0.105278	-0.167158
H273	H	-0.097655	-0.062159	-0.241050
H274	H	-0.130821	-0.070598	-0.172343
C275	C	-0.233618	-0.228613	-0.555101
C276	C	-0.278668	-0.223508	-0.542797
C277	C	-0.307178	-0.247253	-0.600370
H278	H	-0.224866	-0.259951	-0.541854
H279	H	-0.231156	-0.216837	-0.615756
H280	H	-0.281128	-0.235286	-0.482156
H281	H	-0.287434	-0.192175	-0.556050
H282	H	-0.304716	-0.235477	-0.661025
H283	H	-0.298421	-0.278590	-0.587118
H284	H	-0.337748	-0.243789	-0.592036
H285	H	0.531853	-0.098886	-1.091476
H286	H	0.098046	-0.112012	-0.272850
H287	H	0.431700	-0.222166	-0.539302
H288	H	0.706619	-0.720544	-0.272760
H289	H	0.516900	-0.777721	-0.597149
H290	H	0.153689	-0.112008	-0.272835
C291	C	0.075082	-0.252434	-0.612766
C292	C	0.040146	-0.273262	-0.663222
C293	C	0.058542	-0.297069	-0.720942
H294	H	0.096334	-0.275003	-0.578293
H295	H	0.090001	-0.231882	-0.652180
H296	H	0.025234	-0.293812	-0.623813
H297	H	0.018892	-0.250703	-0.697713
H298	H	0.073461	-0.276517	-0.760357
H299	H	0.079794	-0.319636	-0.686463
H300	H	0.034840	-0.311201	-0.755190
H301	H	0.634168	-0.201393	-0.779245
H302	H	0.672793	-0.359019	-0.330307
C303	C	0.246592	-0.105550	-0.257285
C304	C	0.291639	-0.110635	-0.269626
C305	C	0.320142	-0.086838	-0.212143
H306	H	0.244163	-0.117289	-0.196610
H307	H	0.237804	-0.074214	-0.270609
H308	H	0.300425	-0.141964	-0.256296
H309	H	0.294083	-0.098893	-0.330290
H310	H	0.311353	-0.055503	-0.225468
H311	H	0.317709	-0.098579	-0.151472
H312	H	0.350708	-0.090281	-0.220515
C313	C	0.215843	-0.252428	-0.612706
C314	C	0.180911	-0.273260	-0.663163
C315	C	0.199310	-0.297066	-0.720881
H316	H	0.237098	-0.274995	-0.578232
H317	H	0.230761	-0.231874	-0.652121
H318	H	0.166000	-0.293812	-0.623753
H319	H	0.159654	-0.250704	-0.697655
H320	H	0.214228	-0.276512	-0.760295
H321	H	0.220564	-0.319630	-0.686400
H322	H	0.175611	-0.311200	-0.755128
H323	H	0.125801	-0.245967	-0.596995
