data_functionalizedCrystal
_audit_creation_method	'MofGen! by Chris Wilmer'
_symmetry_space_group_name_H-M	'P1'
_symmetry_Int_Tables_number	1
_symmetry_cell_setting	triclinic
loop_
_symmetry_equiv_pos_as_xyz
  x,y,z
_cell_length_a	10.723023
_cell_length_b	10.723023
_cell_length_c	16.176319
_cell_angle_alpha	89.994236
_cell_angle_beta	89.993069
_cell_angle_gamma	84.467548
loop_
_atom_site_label
_atom_site_type_symbol
_atom_site_fract_x
_atom_site_fract_y
_atom_site_fract_z
O1	O	1.657194	0.175026	-0.068736
O2	O	1.294041	0.191780	-0.068739
O3	O	1.483994	0.001827	-0.068734
O4	O	1.467240	0.364979	-0.068741
O5	O	1.483968	0.001814	0.068759
O6	O	1.294015	0.191768	0.068754
O7	O	1.657167	0.175013	0.068757
Cu8	Cu	1.475588	0.183389	0.081310
Cu9	Cu	1.475620	0.183404	-0.081292
O10	O	1.467214	0.364967	0.068752
C11	C	1.247528	0.190555	0.000007
C12	C	1.108974	0.186908	0.000005
C13	C	0.904020	0.181518	-0.071220
C14	C	1.047223	0.185288	-0.071220
C15	C	1.482762	-0.044679	0.000011
C16	C	1.479115	-0.183233	0.000009
C17	C	1.477503	-0.244993	-0.071218
C18	C	1.473733	-0.388196	-0.071222
C19	C	1.703680	0.176239	0.000009
C20	C	1.842234	0.179886	0.000005
C21	C	1.468446	0.411473	0.000004
C22	C	1.472093	0.550027	0.000002
N23	N	1.475575	0.183378	0.195675
N24	N	1.475642	0.183405	-0.195657
C25	C	1.559713	0.099302	0.238941
C26	C	1.559719	0.099301	0.325488
C27	C	1.475593	0.183383	0.368767
C28	C	1.391447	0.267463	0.325495
C29	C	1.391435	0.267457	0.238949
C30	C	1.391490	0.267487	0.674523
C31	C	1.391510	0.267489	0.761075
C32	C	1.559773	0.099330	0.761062
C33	C	1.559762	0.099324	0.674517
C34	C	1.475612	0.183400	0.631252
C35	C	1.475604	0.183399	0.537407
C36	C	1.475606	0.183391	0.462610
H37	H	1.055847	0.185511	0.060987
O38	O	0.912580	0.181753	0.080784
H39	H	0.898062	0.096191	0.116752
H40	H	1.323000	0.335961	0.796311
O41	O	1.300675	0.358120	0.192273
H42	H	1.353699	0.419245	0.152815
O43	O	1.479367	-0.174617	-0.151996
H44	H	1.482041	-0.073184	-0.139316
O45	O	1.471870	-0.458539	-0.152001
H46	H	1.473643	-0.391494	-0.204173
O47	O	1.300744	0.358175	0.627863
H48	H	1.242263	0.416652	0.672500
O49	O	1.300712	0.358161	0.372168
H50	H	1.314864	0.344053	0.439618
H51	H	1.473486	-0.396870	0.060985
O52	O	1.477264	-0.253621	0.080783
H53	H	1.390804	-0.302559	0.084316
H54	H	1.628269	0.030861	0.639281
H55	H	1.628223	0.030838	0.203709
O56	O	1.650489	0.008642	0.372158
H57	H	1.709003	-0.049808	0.327523
O58	O	1.650530	0.008631	0.807725
H59	H	1.636400	0.022745	0.875176
H60	H	0.850901	0.180117	-0.132198
H61	H	1.100356	0.186700	-0.132199
