data_functionalizedCrystal
_audit_creation_method	'MofGen! by Chris Wilmer'
_symmetry_space_group_name_H-M	'P1'
_symmetry_Int_Tables_number	1
_symmetry_cell_setting	triclinic
loop_
_symmetry_equiv_pos_as_xyz
  x,y,z
_cell_length_a	13.635800
_cell_length_b	27.923497
_cell_length_c	11.102300
_cell_angle_alpha	84.482684
_cell_angle_beta	108.605850
_cell_angle_gamma	81.035752
loop_
_atom_site_label
_atom_site_type_symbol
_atom_site_fract_x
_atom_site_fract_y
_atom_site_fract_z
V1	V	2.031724	-0.067127	0.397094
O2	O	2.036437	0.003226	0.388673
O3	O	1.996483	-0.133102	0.395206
O4	O	2.020484	-0.066095	0.569902
O5	O	2.012270	-0.064246	0.212768
V6	V	2.273289	-0.058712	0.374946
O7	O	2.162784	-0.085586	0.445676
O8	O	2.367328	-0.040253	0.326364
O9	O	2.196926	0.007263	0.376833
O10	O	2.327274	-0.129066	0.383367
O11	O	2.351441	-0.061594	0.559271
O12	O	2.172925	-0.059745	0.202138
V13	V	2.531724	-0.067127	0.397094
O14	O	2.536437	0.003226	0.388673
O15	O	2.496483	-0.133102	0.395206
O16	O	2.520484	-0.066095	0.569902
O17	O	2.512270	-0.064246	0.212768
V18	V	2.773289	-0.058712	0.374946
O19	O	2.662784	-0.085586	0.445676
O20	O	2.867328	-0.040253	0.326364
O21	O	2.696926	0.007263	0.376833
O22	O	2.827274	-0.129066	0.383367
O23	O	2.851441	-0.061594	0.559271
O24	O	2.672925	-0.059745	0.202138
C25	C	1.915879	-0.149186	0.389156
C26	C	1.927795	-0.203121	0.388764
C27	C	1.974158	-0.530644	0.269729
C28	C	2.018974	-0.733351	0.268190
O29	O	2.001336	-0.753671	0.168941
N30	N	2.052178	-0.765625	0.384471
C31	C	2.074186	-0.747220	0.501146
O32	O	2.103466	-0.779322	0.600016
C33	C	2.029377	-0.544513	0.502684
C34	C	1.996161	-0.512241	0.386395
C35	C	1.940946	-0.498372	0.153449
C36	C	1.929737	-0.447698	0.153835
C37	C	1.951741	-0.429296	0.270500
C38	C	1.984953	-0.461567	0.386780
C39	C	2.051392	-0.526109	0.619358
C40	C	2.040189	-0.475429	0.619733
C41	C	2.006974	-0.443157	0.503443
C42	C	1.995748	-0.392491	0.503832
N43	N	1.962544	-0.360217	0.387550
C44	C	1.940541	-0.378620	0.270885
C45	C	2.097707	-0.853643	0.500330
C46	C	2.108907	-0.904319	0.499946
C47	C	2.053696	-0.890447	0.266989
C48	C	2.042489	-0.839770	0.267374
C49	C	2.064503	-0.821369	0.384049
C50	C	1.917003	-0.272201	0.271703
C51	C	1.905792	-0.221524	0.272099
C52	C	1.961009	-0.235400	0.505055
C53	C	1.972214	-0.286073	0.504660
C54	C	1.950212	-0.304472	0.387974
O55	O	2.013377	-0.372137	0.603030
O56	O	1.911284	-0.346510	0.172031
C57	C	1.985366	-0.581318	0.269344
C58	C	2.018578	-0.613589	0.385624
C59	C	2.040582	-0.595187	0.502289
C60	C	2.029779	-0.664265	0.385239
C61	C	2.007775	-0.682668	0.268574
C62	C	1.974571	-0.650394	0.152292
C63	C	1.963363	-0.599720	0.152678
C64	C	2.073786	-0.627461	0.618571
C65	C	2.084991	-0.678134	0.618175
C66	C	2.062987	-0.696536	0.501510
C67	C	1.946493	-0.063710	0.611996
C68	C	1.977872	-0.063302	0.753273
C69	C	2.109201	0.023343	0.382881
C70	C	2.086904	0.077278	0.383280
C71	C	2.078586	-0.062131	0.160037
C72	C	2.036827	-0.062536	0.018759
C73	C	2.415879	-0.149186	0.389156
C74	C	2.427795	-0.203121	0.388764
C75	C	2.446493	-0.063710	0.611996
C76	C	2.477872	-0.063302	0.753273
C77	C	2.083752	-0.065534	0.826149
C78	C	2.113229	-0.065149	0.958893
C79	C	1.930938	-0.060303	0.945872
C80	C	1.901461	-0.060684	0.813129
C81	C	2.609201	0.023343	0.382881
C82	C	2.586904	0.077278	0.383280
C83	C	2.578586	-0.062131	0.160037
C84	C	2.536827	-0.062536	0.018759
C85	C	2.524523	-0.230924	0.394961
C86	C	2.535739	-0.281603	0.394613
C87	C	2.450223	-0.304479	0.388059
C88	C	2.353489	-0.276673	0.381865
C89	C	2.342277	-0.225995	0.382223
C90	C	2.662670	0.105081	0.377086
C91	C	2.641727	0.155760	0.377441
C92	C	2.545019	0.178635	0.383998
C93	C	2.469246	0.150830	0.390188
C94	C	2.490187	0.100152	0.389825
C95	C	2.583752	-0.065534	0.826149
C96	C	2.613229	-0.065149	0.958893
C97	C	2.430938	-0.060303	0.945872
C98	C	2.401461	-0.060684	0.813129
H99	H	1.878741	-0.195249	0.177397
H100	H	2.145973	-0.067665	0.777418
H101	H	2.645973	-0.067665	0.777418
H102	H	1.902698	-0.421426	0.059140
H103	H	2.699444	-0.066966	1.018224
N104	N	2.287253	-0.058272	0.734513
H105	H	2.243320	-0.056559	0.792573
H106	H	2.280685	-0.088540	0.691866
N107	N	2.348522	-0.057484	1.010426
H108	H	2.347052	-0.027003	1.052496
H109	H	2.366372	-0.087456	1.077865
N110	N	1.893274	-0.292042	0.145853
H111	H	1.870533	-0.263903	0.072258
H112	H	1.834750	-0.311089	0.136279
N113	N	2.640075	-0.311587	0.401291
H114	H	2.692537	-0.289402	0.405483
H115	H	2.629923	-0.328013	0.322211
H116	H	1.815236	-0.058863	0.753789
N117	N	1.927540	-0.564925	0.027235
H118	H	1.983620	-0.545265	0.026512
H119	H	1.859671	-0.541946	0.017922
H120	H	2.078438	-0.552377	0.714054
H121	H	1.923028	-0.513349	0.058441
N122	N	2.723466	0.185743	0.370789
H123	H	2.739444	0.182709	0.288743
H124	H	2.790133	0.173268	0.447220
N125	N	2.063937	-0.455583	0.745578
H126	H	2.086678	-0.483719	0.819179
H127	H	1.998524	-0.433183	0.746486
H128	H	2.015442	-0.813497	0.172681
H129	H	2.459367	-0.345744	0.387769
N130	N	2.029983	-0.910300	0.141155
H131	H	2.042129	-0.947300	0.158569
H132	H	2.077957	-0.900092	0.094720
H133	H	2.390506	0.169463	0.395525
N134	N	2.767164	0.080382	0.370588
H135	H	2.769010	0.044047	0.371493
H136	H	2.826268	0.085679	0.447291
N137	N	1.950888	-0.670248	0.026461
H138	H	1.963049	-0.707249	0.043877
H139	H	1.998872	-0.660034	-0.019951
H140	H	2.199444	-0.066966	1.018224
N141	N	2.121448	-0.833800	0.626179
H142	H	2.144177	-0.861939	0.699773
H143	H	2.056033	-0.811399	0.627081
N144	N	2.144719	-0.939127	0.625365
H145	H	2.092873	-0.931661	0.672022
H146	H	2.216821	-0.935000	0.680584
N147	N	2.008020	-0.320884	0.630080
H148	H	2.020253	-0.301534	0.704044
H149	H	2.075846	-0.343886	0.639332
H150	H	1.978917	-0.220407	0.600041
H151	H	2.112031	-0.704407	0.712879
H152	H	2.283867	-0.295306	0.376529
H153	H	2.263507	-0.203361	0.377170
N154	N	2.522440	0.233294	0.384403
H155	H	2.525871	0.251182	0.302785
H156	H	2.576663	0.241709	0.461255
N157	N	2.097519	-0.607617	0.744409
H158	H	2.120252	-0.635755	0.818004
H159	H	2.032100	-0.585219	0.745309
N160	N	1.848526	-0.057481	1.010433
H161	H	1.883265	-0.057579	1.105584
H162	H	1.813208	-0.086706	0.997103
H163	H	2.428488	0.077518	0.394879
H164	H	2.594163	-0.212305	0.400291
