data_functionalizedCrystal
_audit_creation_method	'MofGen! by Chris Wilmer'
_symmetry_space_group_name_H-M	'P1'
_symmetry_Int_Tables_number	1
_symmetry_cell_setting	triclinic
loop_
_symmetry_equiv_pos_as_xyz
  x,y,z
_cell_length_a	10.065875
_cell_length_b	9.065218
_cell_length_c	9.065218
_cell_angle_alpha	85.015885
_cell_angle_beta	98.921783
_cell_angle_gamma	81.121528
loop_
_atom_site_label
_atom_site_type_symbol
_atom_site_fract_x
_atom_site_fract_y
_atom_site_fract_z
O1	O	0.113491	-1.981701	-0.194956
O2	O	0.613491	-1.481701	0.305044
O3	O	0.113493	-1.552416	-0.212703
O4	O	0.613493	-1.052416	0.287297
O5	O	0.113489	-1.775931	0.010812
O6	O	0.613489	-1.275931	0.510812
O7	O	0.113495	-1.758186	-0.418471
O8	O	0.613495	-1.258186	0.081529
O9	O	-0.113499	-1.733312	-0.031982
O10	O	0.386501	-1.233312	0.468018
O11	O	-0.113495	-1.509797	-0.255497
O12	O	0.386505	-1.009797	0.244503
O13	O	-0.113497	-1.939082	-0.237751
O14	O	0.386503	-1.439082	0.262249
Zn15	Zn	-0.149535	-1.717673	-0.253419
Zn16	Zn	0.350465	-1.217673	0.246581
Zn17	Zn	0.149531	-1.773825	-0.197035
Zn18	Zn	0.649531	-1.273825	0.302965
O19	O	-0.113493	-1.715567	-0.461266
O20	O	0.386507	-1.215567	0.038734
C21	C	-0.000001	-1.476120	-0.232394
C22	C	0.499999	-0.976120	0.267606
C23	C	-0.000000	-1.312277	-0.227295
C24	C	0.500000	-0.812277	0.272705
N25	N	-0.353640	-1.679361	-0.291898
N26	N	0.146360	-1.179361	0.208102
C27	C	-0.000003	-1.752917	0.044402
C28	C	0.499997	-1.252917	0.544402
C29	C	0.000004	-1.747818	0.208246
C30	C	0.500004	-1.247818	0.708246
C31	C	-0.421420	-1.760486	-0.210414
C32	C	0.078580	-1.260486	0.289586
C33	C	-0.578587	-1.731012	-0.240040
C34	C	-0.078587	-1.231012	0.259960
N35	N	0.353636	-1.812148	-0.158544
N36	N	0.853636	-1.312148	0.341456
C37	C	0.000000	-2.015378	-0.218059
C38	C	0.500000	-1.515378	0.281941
C39	C	0.000008	-2.179223	-0.223157
C40	C	0.500008	-1.679223	0.276843
C41	C	0.000002	-1.738582	-0.494855
C42	C	0.500002	-1.238582	0.005145
C43	C	0.000004	-1.743682	-0.658698
C44	C	0.500004	-1.243682	-0.158698
H45	H	-0.363097	-1.851756	-0.118712
H46	H	0.136903	-1.351756	0.381288
C47	C	-0.657371	-1.607690	-0.363920
C48	C	-0.157371	-1.107690	0.136080
N49	N	-0.716714	-1.514805	-0.457225
N50	N	-0.216714	-1.014805	0.042775
H51	H	-0.411965	-1.588081	-0.383588
H52	H	0.088035	-1.088081	0.116412
H53	H	-0.588044	-1.903424	-0.066837
H54	H	-0.088044	-1.403424	0.433163
