data_functionalizedCrystal
_audit_creation_method	'MofGen! by Chris Wilmer'
_symmetry_space_group_name_H-M	'P1'
_symmetry_Int_Tables_number	1
_symmetry_cell_setting	triclinic
loop_
_symmetry_equiv_pos_as_xyz
  x,y,z
_cell_length_a	10.723024
_cell_length_b	11.792241
_cell_length_c	9.198806
_cell_angle_alpha	89.996670
_cell_angle_beta	89.996352
_cell_angle_gamma	84.330643
loop_
_atom_site_label
_atom_site_type_symbol
_atom_site_fract_x
_atom_site_fract_y
_atom_site_fract_z
O1	O	1.656767	0.159192	-0.120884
O2	O	1.293574	0.174430	-0.120889
O3	O	1.483984	0.001660	-0.120876
O4	O	1.466357	0.331962	-0.120897
O5	O	1.483969	0.001659	0.120909
O6	O	1.293559	0.174430	0.120896
O7	O	1.656751	0.159192	0.120901
Cu8	Cu	1.475154	0.166811	0.142976
Cu9	Cu	1.475172	0.166811	-0.142963
O10	O	1.466341	0.331962	0.120889
C11	C	1.247070	0.173321	0.000003
C12	C	1.108524	0.170003	0.000002
C13	C	1.033286	0.266676	-0.000005
C14	C	0.890091	0.263249	-0.000007
C15	C	1.482869	-0.040634	0.000016
C16	C	1.479555	-0.166655	0.000015
C17	C	1.473461	-0.397380	-0.000010
C18	C	1.476847	-0.268988	0.000004
C19	C	1.703256	0.160301	0.000006
C20	C	1.841801	0.163619	-0.000002
C21	C	1.467456	0.374255	-0.000007
C22	C	1.470770	0.500276	-0.000015
N23	N	1.475150	0.166810	0.344090
N24	N	1.475185	0.166803	-0.344077
C25	C	1.555099	0.093948	0.416292
C26	C	1.555118	0.093944	0.583704
H27	H	0.906445	0.080854	-0.000005
O28	O	0.813151	0.362094	-0.000079
C29	C	0.885864	0.455395	-0.000045
H30	H	0.982845	0.427447	-0.045814
H31	H	0.895294	0.487498	0.115950
C32	C	0.702436	0.586025	-0.038658
C33	C	0.821546	0.551701	-0.094884
H34	H	0.662760	0.645434	-0.097152
H35	H	0.653446	0.523167	-0.038675
H36	H	0.710311	0.612770	0.058004
H37	H	0.813668	0.524943	-0.191536
H38	H	0.870533	0.614556	-0.094884
O39	O	1.059060	0.068163	-0.000188
C40	C	1.099390	0.006065	-0.125427
H41	H	1.189935	0.037586	-0.167177
H42	H	1.024173	0.018718	-0.213113
C43	C	1.011531	-0.160153	-0.036107
C44	C	1.122746	-0.121445	-0.087377
H45	H	1.025933	-0.238808	-0.012640
H46	H	0.984355	-0.118316	0.048267
H47	H	0.948861	-0.149599	-0.109187
H48	H	1.185408	-0.131986	-0.014291
H49	H	1.149933	-0.163287	-0.171738
H50	H	1.406713	0.229182	0.406213
H51	H	1.623528	0.031567	0.354171
H52	H	1.623570	0.031569	0.645795
O53	O	1.393645	0.241387	0.581935
C54	C	1.414988	0.353857	0.619043
H55	H	1.514899	0.355017	0.660958
H56	H	1.346068	0.386847	0.707294
C57	C	1.273730	0.429154	0.432266
C58	C	1.396445	0.430581	0.483735
H59	H	1.262286	0.476483	0.348804
H60	H	1.259346	0.353381	0.407268
H61	H	1.216310	0.456643	0.505821
H62	H	1.453862	0.403078	0.410187
H63	H	1.410838	0.506351	0.508717
O64	O	1.083103	0.368349	-0.000069
C65	C	1.214986	0.349136	-0.000023
H66	H	1.244829	0.260775	-0.045796
H67	H	1.251256	0.354868	0.115976
C68	C	1.233084	0.548293	-0.038618
C69	C	1.269738	0.439770	-0.094849
H70	H	1.266860	0.604203	-0.097106
H71	H	1.144233	0.561240	-0.038644
H72	H	1.263312	0.553054	0.058047
H73	H	1.239498	0.435007	-0.191505
H74	H	1.358587	0.426825	-0.094842
