data_functionalizedCrystal
_audit_creation_method	'MofGen! by Chris Wilmer'
_symmetry_space_group_name_H-M	'P1'
_symmetry_Int_Tables_number	1
_symmetry_cell_setting	triclinic
loop_
_symmetry_equiv_pos_as_xyz
  x,y,z
_cell_length_a	25.639242
_cell_length_b	25.639239
_cell_length_c	18.215399
_cell_angle_alpha	89.967555
_cell_angle_beta	89.982369
_cell_angle_gamma	90.030990
loop_
_atom_site_label
_atom_site_type_symbol
_atom_site_fract_x
_atom_site_fract_y
_atom_site_fract_z
Zn1	Zn	0.799242	-0.208251	-0.416121
Zn2	Zn	0.799160	-0.295691	-0.293050
Zn3	Zn	0.711813	-0.208259	-0.293067
Zn4	Zn	0.711763	-0.295646	-0.416073
O5	O	0.755495	-0.251962	-0.354578
O6	O	0.872396	-0.219866	-0.399808
O7	O	0.787560	-0.284115	-0.190068
O8	O	0.723466	-0.135093	-0.309417
O9	O	0.872336	-0.284107	-0.309389
O10	O	0.787699	-0.135087	-0.399824
O11	O	0.723387	-0.219880	-0.190080
O12	O	0.638641	-0.219836	-0.309371
O13	O	0.723381	-0.284030	-0.519064
O14	O	0.638605	-0.284038	-0.399743
O15	O	0.787651	-0.219822	-0.519099
O16	O	0.787512	-0.368850	-0.309343
O17	O	0.723302	-0.368817	-0.399727
C18	C	0.619652	-0.251933	-0.354554
C19	C	0.561538	-0.251934	-0.354561
C20	C	0.310384	-0.218571	-0.401745
C21	C	0.364988	-0.218565	-0.401741
O22	O	0.393258	-0.190176	-0.441853
N23	N	0.392264	-0.251956	-0.354586
C24	C	0.364933	-0.285357	-0.307438
O25	O	0.393147	-0.313758	-0.267329
C26	C	0.310330	-0.285364	-0.307446
C27	C	0.283057	-0.251968	-0.354599
C28	C	0.283111	-0.185177	-0.448894
C29	C	0.228510	-0.185182	-0.448897
C30	C	0.201183	-0.218580	-0.401751
C31	C	0.228456	-0.251973	-0.354602
C32	C	0.283000	-0.318768	-0.260302
C33	C	0.228393	-0.318773	-0.260315
C34	C	0.201119	-0.285377	-0.307468
C35	C	0.146528	-0.285375	-0.307459
N36	N	0.119252	-0.251985	-0.354613
C37	C	0.146580	-0.218587	-0.401760
C38	C	0.479604	-0.285340	-0.307425
C39	C	0.534206	-0.285330	-0.307412
C40	C	0.534257	-0.218539	-0.401716
C41	C	0.479654	-0.218546	-0.401725
C42	C	0.452328	-0.251949	-0.354579
C43	C	0.031914	-0.218599	-0.401762
C44	C	-0.022691	-0.218605	-0.401759
C45	C	-0.022738	-0.285398	-0.307458
C46	C	0.031863	-0.285390	-0.307458
C47	C	0.059188	-0.251989	-0.354616
O48	O	0.118224	-0.313752	-0.267369
O49	O	0.118359	-0.190196	-0.441868
C50	C	0.755407	-0.387804	-0.354544
C51	C	0.755417	-0.445918	-0.354554
C52	C	0.789016	-0.806286	-0.307595
C53	C	0.789037	-0.860890	-0.307605
O54	O	0.817513	-0.889131	-0.267641
N55	N	0.755587	-0.888201	-0.354627
C56	C	0.722118	-0.860904	-0.401647
O57	O	0.693669	-0.889148	-0.441644
C58	C	0.722101	-0.806301	-0.401640
C59	C	0.755549	-0.778993	-0.354610
C60	C	0.822462	-0.778978	-0.260569
C61	C	0.822441	-0.724378	-0.260558
C62	C	0.788974	-0.697085	-0.307573
C63	C	0.755528	-0.724393	-0.354599
C64	C	0.688635	-0.779005	-0.448664
C65	C	0.688621	-0.724398	-0.448654
C66	C	0.722070	-0.697090	-0.401623
C67	C	0.722040	-0.642499	-0.401604
N68	N	0.755490	-0.615189	-0.354582
C69	C	0.788957	-0.642482	-0.307567
C70	C	0.722157	-0.975575	-0.401658
C71	C	0.722172	-1.030177	-0.401662
C72	C	0.789091	-1.030160	-0.307620
C73	C	0.789074	-0.975556	-0.307613
C74	C	0.755607	-0.948264	-0.354636
C75	C	0.788910	-0.527817	-0.307548
C76	C	0.788884	-0.473211	-0.307539
C77	C	0.721967	-0.473233	-0.401583
C78	C	0.721990	-0.527834	-0.401589
C79	C	0.755466	-0.555124	-0.354569
O80	O	0.693580	-0.614224	-0.441549
O81	O	0.817406	-0.614231	-0.267583
C82	C	0.891868	-0.251990	-0.354602
C83	C	0.949982	-0.252003	-0.354612
C84	C	0.755519	-0.251920	-0.546531
C85	C	0.755530	-0.251902	-0.628330
C86	C	0.755597	-0.115589	-0.354628
C87	C	0.755641	-0.057475	-0.354649
C88	C	0.722143	-0.218432	-0.816531
C89	C	0.722152	-0.218422	-0.893390
C90	C	0.788979	-0.285310	-0.893366
C91	C	0.788967	-0.285323	-0.816509
C92	C	0.755550	-0.251881	-0.778093
C93	C	0.755571	-0.251857	-0.931809
C94	C	0.755581	-0.251846	-1.015143
C95	C	0.755539	-0.251893	-0.694754
C96	C	0.755500	-0.251966	-0.163372
C97	C	0.755591	-0.251836	-0.081573
H98	H	0.457358	-0.312539	-0.269027
N99	N	0.685876	-0.443785	-0.452291
H100	H	0.693979	-0.453252	-0.504885
H101	H	0.648540	-0.453332	-0.440758
H102	H	0.816122	-0.450979	-0.269239
N103	N	0.686120	-0.182343	-0.934843
H104	H	0.707388	-0.158113	-0.966749
H105	H	0.661885	-0.203619	-0.966672
H106	H	0.694930	-1.052406	-0.439952
H107	H	0.849679	-0.702147	-0.222264
N108	N	0.450240	-0.182525	-0.452578
H109	H	0.475842	-0.161366	-0.482439
H110	H	0.427586	-0.203836	-0.486589
H111	H	0.816187	-0.312536	-0.924654
N112	N	0.825191	-1.059607	-0.256917
H113	H	0.862540	-1.050068	-0.268396
H114	H	0.817050	-1.050130	-0.204340
N115	N	0.061280	-0.321405	-0.256594
H116	H	0.083930	-0.345661	-0.286438
H117	H	0.083908	-0.300088	-0.222554
H118	H	0.816173	-0.312562	-0.785212
N119	N	0.686100	-0.182363	-0.775102
H120	H	0.648739	-0.190475	-0.788469
H121	H	0.691204	-0.187459	-0.720592
N122	N	0.652525	-0.694958	-0.499369
H123	H	0.660626	-0.704428	-0.551963
H124	H	0.615191	-0.704513	-0.487830
N125	N	0.686054	-0.946137	-0.452368
H126	H	0.694151	-0.955610	-0.504962
H127	H	0.648721	-0.955693	-0.440822
N128	N	-0.052107	-0.182578	-0.452610
H129	H	-0.026506	-0.161421	-0.482475
H130	H	-0.074766	-0.203888	-0.486618
N131	N	0.563742	-0.182522	-0.452573
H132	H	0.554251	-0.190693	-0.505135
H133	H	0.554246	-0.145168	-0.441184
N134	N	0.061381	-0.182575	-0.452625
H135	H	0.035812	-0.161424	-0.482490
H136	H	0.084039	-0.158349	-0.422731
N137	N	0.563615	-0.321344	-0.256542
H138	H	0.554096	-0.358711	-0.267877
H139	H	0.602345	-0.316233	-0.263708
H140	H	0.849718	-0.801195	-0.222283
H141	H	0.206309	-0.157990	-0.487297
H142	H	0.305355	-0.157981	-0.487290
H143	H	0.661396	-0.801229	-0.486958
N144	N	0.312407	-0.354787	-0.209442
H145	H	0.286802	-0.375944	-0.179583
H146	H	0.335059	-0.379009	-0.239332
H147	H	-0.044997	-0.312587	-0.269069
H148	H	0.694756	-0.550069	-0.439887
H149	H	0.206146	-0.345976	-0.221925
H150	H	0.816170	-0.550030	-0.269261
H151	H	0.816310	-0.953326	-0.269318
