data_functionalizedCrystal
_audit_creation_method	'MofGen! by Chris Wilmer'
_symmetry_space_group_name_H-M	'P1'
_symmetry_Int_Tables_number	1
_symmetry_cell_setting	triclinic
loop_
_symmetry_equiv_pos_as_xyz
  x,y,z
_cell_length_a	11.169417
_cell_length_b	12.645330
_cell_length_c	11.169409
_cell_angle_alpha	90.034413
_cell_angle_beta	90.019513
_cell_angle_gamma	90.013895
loop_
_atom_site_label
_atom_site_type_symbol
_atom_site_fract_x
_atom_site_fract_y
_atom_site_fract_z
Zn1	Zn	1.834943	-0.421918	0.678515
Zn2	Zn	2.334943	0.078082	1.178515
Zn3	Zn	1.834824	-0.599229	0.477825
Zn4	Zn	2.334824	-0.099229	0.977825
Zn5	Zn	1.634229	-0.421984	0.477851
Zn6	Zn	2.134229	0.078016	0.977851
Zn7	Zn	1.634228	-0.599144	0.678471
Zn8	Zn	2.134228	-0.099144	1.178471
O9	O	1.734556	-0.510569	0.578166
O10	O	2.234556	-0.010569	1.078166
O11	O	2.002877	-0.445447	0.651901
O12	O	2.502877	0.054553	1.151901
O13	O	1.808166	-0.575780	0.309879
O14	O	2.308166	-0.075780	0.809879
O15	O	1.660904	-0.273628	0.504499
O16	O	2.160904	0.226372	1.004499
O17	O	2.002790	-0.575716	0.504455
O18	O	2.502790	-0.075716	1.004455
O19	O	1.808368	-0.273580	0.651926
O20	O	2.308368	0.226420	1.151926
O21	O	1.660789	-0.445559	0.309898
O22	O	2.160789	0.054441	0.809898
O23	O	1.466279	-0.445476	0.504456
O24	O	1.966279	0.054524	1.004456
O25	O	1.660903	-0.575571	0.846427
O26	O	2.160903	-0.075571	1.346427
O27	O	1.466279	-0.575635	0.651851
O28	O	1.966279	-0.075635	1.151851
O29	O	1.808367	-0.445364	0.846459
O30	O	2.308367	0.054636	1.346459
O31	O	1.808165	-0.747565	0.504412
O32	O	2.308165	-0.247565	1.004412
O33	O	1.660788	-0.747502	0.651826
O34	O	2.160788	-0.247502	1.151826
C35	C	1.422731	-0.510554	0.578152
C36	C	1.922731	-0.010554	1.078152
C37	C	1.289332	-0.510574	0.578174
C38	C	1.789332	-0.010574	1.078174
C39	C	1.734496	-0.785999	0.578137
C40	C	2.234496	-0.285999	1.078137
C41	C	1.734580	-0.903829	0.578165
C42	C	2.234580	-0.403829	1.078165
C43	C	1.827146	-1.071388	0.485239
C44	C	2.327146	-0.571388	0.985239
C45	C	1.827448	-0.948827	0.485467
C46	C	2.327448	-0.448827	0.985467
C47	C	1.768886	-0.948196	0.704674
C48	C	2.268886	-0.448196	1.204674
C49	C	1.769620	-1.070794	0.704181
C50	C	2.269620	-0.570794	1.204181
C51	C	1.607672	-1.071162	0.545830
C52	C	2.107672	-0.571162	1.045830
C53	C	1.608281	-0.948558	0.542993
C54	C	2.108281	-0.448558	1.042993
C55	C	2.047598	-0.510584	0.578180
C56	C	2.547598	-0.010584	1.078180
C57	C	2.180998	-0.510590	0.578186
C58	C	2.680998	-0.010590	1.078186
C59	C	1.734648	-0.510451	0.891208
C60	C	2.234648	-0.010451	1.391208
C61	C	1.734688	-0.510401	1.024608
C62	C	2.234688	-0.010401	1.524608
C63	C	1.734649	-0.234063	0.578220
C64	C	2.234649	0.265937	1.078220
C65	C	1.734689	-0.116233	0.578244
C66	C	2.234689	0.383767	1.078244
C67	C	1.734533	-0.510610	0.266341
C68	C	2.234533	-0.010610	0.766341
C69	C	1.734727	-0.510361	0.132941
C70	C	2.234727	-0.010361	0.632941
H71	H	1.805984	-0.918835	0.391662
H72	H	2.305984	-0.418835	0.891662
Br73	Br	1.791829	-1.120666	0.328428
Br74	Br	2.291829	-0.620666	0.828428
Br75	Br	1.565157	-0.900243	0.387823
Br76	Br	2.065157	-0.400243	0.887823
H77	H	1.535676	-0.917938	0.605766
H78	H	2.035676	-0.417938	1.105766
H79	H	1.538784	-1.100163	0.613569
H80	H	2.038784	-0.600163	1.113569
H81	H	1.862463	-1.099301	0.731638
H82	H	2.362463	-0.599301	1.231638
H83	H	1.920718	-1.102114	0.506438
H84	H	2.420718	-0.602114	1.006438
H85	H	1.705228	-1.100454	0.775863
H86	H	2.205228	-0.600454	1.275863
Br87	Br	1.984248	-0.899795	0.521205
Br88	Br	2.484248	-0.399795	1.021205
Br89	Br	1.660054	-0.899627	0.823269
Br90	Br	2.160054	-0.399627	1.323269
H91	H	1.860680	-0.917402	0.732589
H92	H	2.360680	-0.417402	1.232589
H93	H	1.576477	-1.102182	0.455187
H94	H	2.076477	-0.602182	0.955187
