data_functionalizedCrystal
_audit_creation_method	'MofGen! by Chris Wilmer'
_symmetry_space_group_name_H-M	'P1'
_symmetry_Int_Tables_number	1
_symmetry_cell_setting	triclinic
loop_
_symmetry_equiv_pos_as_xyz
  x,y,z
_cell_length_a	29.839134
_cell_length_b	29.839131
_cell_length_c	29.839125
_cell_angle_alpha	90.025363
_cell_angle_beta	90.024313
_cell_angle_gamma	90.027971
loop_
_atom_site_label
_atom_site_type_symbol
_atom_site_fract_x
_atom_site_fract_y
_atom_site_fract_z
Zn1	Zn	0.686739	-0.179003	0.254129
Zn2	Zn	1.186739	0.320997	0.754129
Zn3	Zn	0.686679	-0.254115	0.178989
Zn4	Zn	1.186679	0.245885	0.678989
Zn5	Zn	0.611622	-0.178991	0.178996
Zn6	Zn	1.111622	0.321009	0.678996
Zn7	Zn	0.611578	-0.254097	0.254074
Zn8	Zn	1.111578	0.245903	0.754074
O9	O	0.649154	-0.216552	0.216547
O10	O	1.149154	0.283448	0.716547
O11	O	0.749598	-0.188980	0.244182
O12	O	1.249598	0.311020	0.744182
O13	O	0.676716	-0.244152	0.116123
O14	O	1.176716	0.255848	0.616123
O15	O	0.621630	-0.116125	0.188988
O16	O	1.121630	0.383875	0.688988
O17	O	0.749554	-0.244164	0.188977
O18	O	1.249554	0.255836	0.688977
O19	O	0.676818	-0.116134	0.244188
O20	O	1.176818	0.383866	0.744188
O21	O	0.621572	-0.188958	0.116128
O22	O	1.121572	0.311042	0.616128
O23	O	0.548749	-0.188941	0.188935
O24	O	1.048749	0.311059	0.688935
O25	O	0.621554	-0.244134	0.316949
O26	O	1.121554	0.255866	0.816949
O27	O	0.548716	-0.244122	0.244095
O28	O	1.048716	0.255878	0.744095
O29	O	0.676775	-0.188962	0.316989
O30	O	1.176775	0.311038	0.816989
O31	O	0.676673	-0.316980	0.188924
O32	O	1.176673	0.183020	0.688924
O33	O	0.621497	-0.316967	0.244088
O34	O	1.121497	0.183033	0.744088
C35	C	0.532432	-0.216528	0.216510
C36	C	1.032432	0.283472	0.716510
C37	C	0.482497	-0.216529	0.216505
C38	C	0.982497	0.283471	0.716505
C39	C	0.125915	-0.187777	0.187884
C40	C	0.625915	0.312223	0.687884
C41	C	0.313588	-0.187764	0.187857
C42	C	0.813588	0.312236	0.687857
O43	O	0.337856	-0.163279	0.163480
O44	O	0.837856	0.336721	0.663480
N45	N	0.337052	-0.216536	0.216527
N46	N	0.837052	0.283464	0.716527
C47	C	0.313596	-0.245312	0.245209
C48	C	0.813596	0.254688	0.745209
O49	O	0.337860	-0.269781	0.269598
O50	O	0.837860	0.230219	0.769598
C51	C	0.125923	-0.245322	0.245238
C52	C	0.625923	0.254678	0.745238
C53	C	0.102461	-0.216551	0.216562
C54	C	0.602461	0.283449	0.716562
C55	C	0.102452	-0.159007	0.159211
C56	C	0.602452	0.340993	0.659211
C57	C	0.055537	-0.159013	0.159216
C58	C	0.555537	0.340987	0.659216
C59	C	0.032084	-0.187787	0.187895
C60	C	0.532084	0.312213	0.687895
C61	C	0.055546	-0.216556	0.216568
C62	C	0.555546	0.283444	0.716568
C63	C	0.102468	-0.274095	0.273922
C64	C	0.602468	0.225905	0.773922
C65	C	0.055547	-0.274094	0.273927
C66	C	0.555547	0.225906	0.773927
C67	C	0.032085	-0.245323	0.245251
C68	C	0.532085	0.254677	0.745251
C69	C	-0.014823	-0.245336	0.245251
C70	C	0.485177	0.254664	0.745251
N71	N	-0.038287	-0.216563	0.216581
N72	N	0.461713	0.283437	0.716581
C73	C	-0.014834	-0.187789	0.187902
C74	C	0.485166	0.312211	0.687902
C75	C	0.412126	-0.245305	0.245191
C76	C	0.912126	0.254695	0.745191
C77	C	0.459044	-0.245303	0.245183
C78	C	0.959044	0.254697	0.745183
C79	C	0.459033	-0.187755	0.187831
C80	C	0.959033	0.312245	0.687831
C81	C	0.412114	-0.187759	0.187837
C82	C	0.912114	0.312241	0.687837
C83	C	0.388662	-0.216533	0.216520
C84	C	0.888662	0.283467	0.716520
C85	C	-0.113360	-0.187802	0.187916
C86	C	0.386640	0.312198	0.687916
C87	C	-0.160280	-0.187811	0.187922
C88	C	0.339720	0.312189	0.687922
C89	C	-0.160264	-0.245358	0.245275
C90	C	0.339736	0.254642	0.745275
C91	C	-0.113349	-0.245351	0.245267
C92	C	0.386651	0.254649	0.745267
C93	C	-0.089898	-0.216569	0.216586
C94	C	0.410102	0.283431	0.716586
O95	O	-0.039120	-0.269804	0.269618
O96	O	0.460880	0.230196	0.769618
O97	O	-0.039107	-0.163316	0.163524
O98	O	0.460893	0.336684	0.663524
C99	C	0.172830	-0.187771	0.187878
C100	C	0.672830	0.312229	0.687878
C101	C	0.196292	-0.216541	0.216552
C102	C	0.696292	0.283459	0.716552
C103	C	0.172839	-0.245315	0.245230
C104	C	0.672839	0.254685	0.745230
C105	C	0.243210	-0.216539	0.216544
C106	C	0.743210	0.283461	0.716544
C107	C	0.266663	-0.187764	0.187865
C108	C	0.766663	0.312236	0.687865
C109	C	0.243199	-0.158992	0.159195
C110	C	0.743199	0.341008	0.659195
C111	C	0.196283	-0.158997	0.159200
C112	C	0.696283	0.341003	0.659200
C113	C	0.196304	-0.274087	0.273901
C114	C	0.696304	0.225913	0.773901
C115	C	0.243219	-0.274080	0.273892
C116	C	0.743219	0.225920	0.773892
C117	C	0.266672	-0.245306	0.245214
C118	C	0.766672	0.254694	0.745214
C119	C	0.649086	-0.333274	0.216509
C120	C	1.149086	0.166726	0.716509
C121	C	0.649098	-0.383209	0.216508
C122	C	1.149098	0.116791	0.716508
C123	C	0.677885	-0.692822	0.245331
C124	C	1.177885	-0.192822	0.745331
C125	C	0.677933	-0.880495	0.245358
C126	C	1.177933	-0.380495	0.745358
O127	O	0.702342	-0.904734	0.269836
O128	O	1.202342	-0.404734	0.769836
N129	N	0.649231	-0.903994	0.216597
N130	N	1.149231	-0.403994	0.716597
C131	C	0.620512	-0.880571	0.187829
C132	C	1.120512	-0.380571	0.687829
O133	O	0.596096	-0.904865	0.163370
O134	O	1.096096	-0.404865	0.663370
C135	C	0.620461	-0.692899	0.187805
C136	C	1.120461	-0.192899	0.687805
C137	C	0.649169	-0.669403	0.216564
C138	C	1.149169	-0.169403	0.716564
C139	C	0.706590	-0.669326	0.274088
C140	C	1.206590	-0.169326	0.774088
C141	C	0.706579	-0.622410	0.274079
C142	C	1.206579	-0.122410	0.774079
C143	C	0.677863	-0.598991	0.245313
C144	C	1.177863	-0.098991	0.745313
C145	C	0.649158	-0.622487	0.216556
C146	C	1.149158	-0.122487	0.716556
C147	C	0.591740	-0.669477	0.159040
C148	C	1.091740	-0.169477	0.659040
C149	C	0.591729	-0.622556	0.159037
C150	C	1.091729	-0.122556	0.659037
C151	C	0.620437	-0.599060	0.187797
C152	C	1.120437	-0.099060	0.687797
C153	C	0.620431	-0.552153	0.187781
C154	C	1.120431	-0.052153	0.687781
N155	N	0.649134	-0.528654	0.216541
N156	N	1.149134	-0.028654	0.716541
C157	C	0.677850	-0.552073	0.245308
C158	C	1.177850	-0.052073	0.745308
C159	C	0.620541	-0.979102	0.187844
C160	C	1.120541	-0.479102	0.687844
C161	C	0.620554	-1.026020	0.187849
C162	C	1.120554	-0.526020	0.687849
C163	C	0.677975	-1.025940	0.245378
C164	C	1.177975	-0.525940	0.745378
C165	C	0.677964	-0.979022	0.245370
C166	C	1.177964	-0.479022	0.745370
C167	C	0.649244	-0.955603	0.216604
C168	C	1.149244	-0.455603	0.716604
C169	C	0.677826	-0.453547	0.245287
C170	C	1.177826	0.046453	0.745287
C171	C	0.677814	-0.406628	0.245274
C172	C	1.177814	0.093372	0.745274
C173	C	0.620391	-0.406711	0.187747
C174	C	1.120391	0.093289	0.687747
C175	C	0.620404	-0.453627	0.187758
C176	C	1.120404	0.046373	0.687758
C177	C	0.649123	-0.477044	0.216531
C178	C	1.149123	0.022956	0.716531
O179	O	0.596032	-0.527885	0.163319
O180	O	1.096032	-0.027885	0.663319
O181	O	0.702255	-0.527772	0.269770
O182	O	1.202255	-0.027772	0.769770
C183	C	0.677895	-0.739737	0.245339
C184	C	1.177895	-0.239737	0.745339
C185	C	0.649190	-0.763234	0.216582
C186	C	1.149190	-0.263234	0.716582
C187	C	0.620474	-0.739815	0.187816
C188	C	1.120474	-0.239815	0.687816
C189	C	0.649203	-0.810152	0.216587
C190	C	1.149203	-0.310152	0.716587
C191	C	0.677919	-0.833571	0.245354
C192	C	1.177919	-0.333571	0.745354
C193	C	0.706622	-0.810072	0.274115
C194	C	1.206622	-0.310072	0.774115
C195	C	0.706611	-0.763157	0.274106
C196	C	1.206611	-0.263157	0.774106
C197	C	0.591772	-0.763313	0.159055
C198	C	1.091772	-0.263313	0.659055
C199	C	0.591785	-0.810229	0.159066
C200	C	1.091785	-0.310229	0.659066
C201	C	0.620501	-0.833648	0.187832
C202	C	1.120501	-0.333648	0.687832
C203	C	0.766333	-0.216575	0.216585
C204	C	1.266333	0.283425	0.716585
C205	C	0.816267	-0.216586	0.216601
C206	C	1.316267	0.283414	0.716601
C207	C	0.649167	-0.216548	0.333725
C208	C	1.149167	0.283452	0.833725
C209	C	0.649172	-0.216546	0.383660
C210	C	1.149172	0.283454	0.883660
C211	C	0.649235	-0.099373	0.216595
C212	C	1.149235	0.400627	0.716595
C213	C	0.649270	-0.049439	0.216615
C214	C	1.149270	0.450561	0.716615
C215	C	0.649168	-0.216523	0.099825
C216	C	1.149168	0.283477	0.599825
C217	C	0.649250	-0.216398	0.049890
C218	C	1.149250	0.283602	0.549890
C219	C	0.677955	-0.187743	0.693327
C220	C	1.177955	0.312257	1.193327
C221	C	0.677978	-0.187705	0.881000
C222	C	1.177978	0.312295	1.381000
O223	O	0.702417	-0.163258	0.905286
O224	O	1.202417	0.336742	1.405286
N225	N	0.649231	-0.216426	0.904445
N226	N	1.149231	0.283574	1.404445
C227	C	0.620475	-0.245156	0.880969
C228	C	1.120475	0.254844	1.380969
O229	O	0.596022	-0.269581	0.905216
O230	O	1.096022	0.230419	1.405216
C231	C	0.620451	-0.245192	0.693296
C232	C	1.120451	0.254808	1.193296
C233	C	0.649202	-0.216472	0.669854
C234	C	1.149202	0.283528	1.169854
C235	C	0.706704	-0.159025	0.669885
C236	C	1.206704	0.340975	1.169885
C237	C	0.706700	-0.159037	0.622970
C238	C	1.206700	0.340963	1.122970
C239	C	0.677947	-0.187766	0.599496
C240	C	1.177947	0.312234	1.099496
C241	C	0.649198	-0.216484	0.622939
C242	C	1.149198	0.283516	1.122939
C243	C	0.591693	-0.273920	0.669821
C244	C	1.091693	0.226080	1.169821
C245	C	0.591689	-0.273925	0.622900
C246	C	1.091689	0.226075	1.122900
C247	C	0.620440	-0.245206	0.599458
C248	C	1.120440	0.254794	1.099458
C249	C	0.620441	-0.245225	0.552550
C250	C	1.120441	0.254775	1.052550
N251	N	0.649188	-0.216504	0.529105
N252	N	1.149188	0.283496	1.029105
C253	C	0.677941	-0.187774	0.552578
C254	C	1.177941	0.312226	1.052578
C255	C	0.620491	-0.245136	0.979499
C256	C	1.120491	0.254864	1.479499
C257	C	0.620497	-0.245128	1.026417
C258	C	1.120497	0.254872	1.526417
C259	C	0.677999	-0.187675	1.026446
C260	C	1.177999	0.312325	1.526446
C261	C	0.677994	-0.187686	0.979527
C262	C	1.177994	0.312314	1.479527
C263	C	0.649237	-0.216415	0.956055
C264	C	1.149237	0.283585	1.456055
C265	C	0.677930	-0.187801	0.454053
C266	C	1.177930	0.312199	0.954053
C267	C	0.677925	-0.187817	0.407133
C268	C	1.177925	0.312183	0.907133
C269	C	0.620421	-0.245267	0.407109
C270	C	1.120421	0.254733	0.907109
C271	C	0.620428	-0.245253	0.454024
C272	C	1.120428	0.254747	0.954024
C273	C	0.649184	-0.216517	0.477495
C274	C	1.149184	0.283483	0.977495
O275	O	0.596011	-0.269655	0.528236
O276	O	1.096011	0.230345	1.028236
O277	O	0.702383	-0.163346	0.528323
O278	O	1.202383	0.336654	1.028323
C279	C	0.677959	-0.187731	0.740243
C280	C	1.177959	0.312269	1.240243
C281	C	0.649211	-0.216449	0.763685
C282	C	1.149211	0.283551	1.263685
C283	C	0.620458	-0.245178	0.740212
C284	C	1.120458	0.254822	1.240212
C285	C	0.649217	-0.216441	0.810603
C286	C	1.149217	0.283559	1.310603
C287	C	0.677970	-0.187711	0.834076
C288	C	1.177970	0.312289	1.334076
C289	C	0.706717	-0.158990	0.810631
C290	C	1.206717	0.341010	1.310631
C291	C	0.706712	-0.159002	0.763716
C292	C	1.206712	0.340998	1.263716
C293	C	0.591711	-0.273899	0.763657
C294	C	1.091711	0.226101	1.263657
C295	C	0.591718	-0.273886	0.810572
C296	C	1.091718	0.226114	1.310572
C297	C	0.620471	-0.245156	0.834045
C298	C	1.120471	0.254844	1.334045
H299	H	0.478143	-0.268737	0.268529
H300	H	0.978143	0.231263	0.768529
H301	H	0.730125	-0.135615	0.744633
H302	H	1.230125	0.364385	1.244633
H303	H	0.729988	-0.744029	0.297525
H304	H	1.229988	-0.244029	0.797525
H305	H	0.597032	-0.472758	0.164336
H306	H	1.097032	0.027242	0.664336
O307	O	0.705863	-0.159715	1.049271
O308	O	1.205863	0.340285	1.549271
C309	C	0.680300	-0.130703	1.076416
C310	C	1.180300	0.369297	1.576416
H311	H	0.644918	-0.127931	1.062263
H312	H	1.144918	0.372069	1.562263
H313	H	0.678746	-0.144587	1.111969
H314	H	1.178746	0.355413	1.611969
C315	C	0.745726	-0.087404	1.094542
C316	C	1.245726	0.412596	1.594542
C317	C	0.702271	-0.083996	1.077156
C318	C	1.202271	0.416004	1.577156
H319	H	0.759279	-0.058594	1.095001
H320	H	1.259279	0.441406	1.595001
H321	H	0.762949	-0.106951	1.076255
H322	H	1.262949	0.393049	1.576255
H323	H	0.744425	-0.098976	1.124168
H324	H	1.244425	0.401024	1.624168
H325	H	0.703572	-0.072430	1.047529
H326	H	1.203572	0.427570	1.547529
H327	H	0.685048	-0.064446	1.095438
H328	H	1.185048	0.435554	1.595438
O329	O	-0.090603	-0.159895	0.159988
O330	O	0.409397	0.340105	0.659988
C331	C	-0.102111	-0.169648	0.115198
C332	C	0.397889	0.330352	0.615198
H333	H	-0.115022	-0.205537	0.112870
H334	H	0.384978	0.294463	0.612870
H335	H	-0.129345	-0.145550	0.103506
H336	H	0.370655	0.354450	0.603506
C337	C	-0.044594	-0.120294	0.088075
C338	C	0.455406	0.379706	0.588075
C339	C	-0.060448	-0.164374	0.085214
C340	C	0.439552	0.335626	0.585214
H341	H	-0.018895	-0.117039	0.069578
H342	H	0.481105	0.382961	0.569578
H343	H	-0.036842	-0.113722	0.118250
H344	H	0.463158	0.386278	0.618250
H345	H	-0.067293	-0.100217	0.078331
H346	H	0.432707	0.399783	0.578331
H347	H	-0.037751	-0.184449	0.094962
H348	H	0.462249	0.315551	0.594962
H349	H	-0.068195	-0.170949	0.055039
H350	H	0.431805	0.329051	0.555039
O351	O	0.592529	-0.273044	1.049117
O352	O	1.092529	0.226956	1.549117
C353	C	0.567159	-0.298408	1.018332
C354	C	1.067159	0.201592	1.518332
H355	H	0.565616	-0.280010	0.984893
H356	H	1.065616	0.219990	1.484893
H357	H	0.583587	-0.332532	1.013337
H358	H	1.083587	0.167468	1.513337
C359	C	0.521238	-0.327467	1.077693
C360	C	1.021238	0.172533	1.577693
C361	C	0.519339	-0.304869	1.036623
C362	C	1.019339	0.195131	1.536623
H363	H	0.491740	-0.331454	1.088976
H364	H	0.991740	0.168546	1.588976
H365	H	0.538331	-0.310380	1.098434
H366	H	1.038331	0.189620	1.598434
H367	H	0.534929	-0.355901	1.073525
H368	H	1.034929	0.144099	1.573525
H369	H	0.505653	-0.276433	1.040793
H370	H	1.005653	0.223567	1.540793
H371	H	0.502242	-0.321951	1.015884
H372	H	1.002242	0.178049	1.515884
O373	O	0.592617	-0.273070	0.956654
O374	O	1.092617	0.226930	1.456654
C375	C	0.618169	-0.302107	0.929523
C376	C	1.118169	0.197893	1.429523
H377	H	0.652223	-0.286270	0.922500
H378	H	1.152223	0.213730	1.422500
H379	H	0.623089	-0.335394	0.947603
H380	H	1.123089	0.164606	1.447603
C381	C	0.551607	-0.329705	0.893578
C382	C	1.051607	0.170295	1.393578
C383	C	0.593431	-0.310252	0.884949
C384	C	1.093431	0.189748	1.384949
H385	H	0.536347	-0.334731	0.866084
H386	H	1.036347	0.165269	1.366084
H387	H	0.534392	-0.310143	0.911857
H388	H	1.034392	0.189857	1.411857
H389	H	0.555713	-0.357442	0.908646
H390	H	1.055713	0.142558	1.408646
H391	H	0.589324	-0.282513	0.869887
H392	H	1.089324	0.217487	1.369887
H393	H	0.610645	-0.329809	0.866666
H394	H	1.110645	0.170191	1.366666
O395	O	0.563843	-0.301832	0.740810
O396	O	1.063843	0.198168	1.240810
C397	C	0.589397	-0.330870	0.713684
C398	C	1.089397	0.169130	1.213684
H399	H	0.623451	-0.315033	0.706663
H400	H	1.123451	0.184967	1.206663
H401	H	0.594316	-0.364156	0.731766
H402	H	1.094316	0.135844	1.231766
C403	C	0.522838	-0.358472	0.677735
C404	C	1.022838	0.141528	1.177735
C405	C	0.564663	-0.339018	0.669108
C406	C	1.064663	0.160982	1.169108
H407	H	0.507581	-0.363500	0.650239
H408	H	1.007581	0.136500	1.150239
H409	H	0.505622	-0.338909	0.696011
H410	H	1.005622	0.161091	1.196011
H411	H	0.526944	-0.386208	0.692804
H412	H	1.026944	0.113792	1.192804
H413	H	0.560557	-0.311280	0.654044
H414	H	1.060557	0.188720	1.154044
H415	H	0.581879	-0.358576	0.650828
H416	H	1.081879	0.141424	1.150828
H417	H	0.036454	-0.297524	0.297286
H418	H	0.536454	0.202476	0.797286
H419	H	0.121563	-0.297524	0.297272
H420	H	0.621563	0.202476	0.797272
H421	H	0.262303	-0.135564	0.135842
H422	H	0.762303	0.364436	0.635842
O423	O	0.734451	-0.832848	0.302107
O424	O	1.234451	-0.332848	0.802107
C425	C	0.708852	-0.859995	0.331085
C426	C	1.208852	-0.359995	0.831085
H427	H	0.673466	-0.845874	0.333816
H428	H	1.173466	-0.345874	0.833816
H429	H	0.707318	-0.895561	0.317194
H430	H	1.207318	-0.395561	0.817194
C431	C	0.774225	-0.878026	0.374460
C432	C	1.274225	-0.378026	0.874460
C433	C	0.730764	-0.860680	0.377818
C434	C	1.230764	-0.360680	0.877818
H435	H	0.787741	-0.878450	0.403287
H436	H	1.287741	-0.378450	0.903287
H437	H	0.791472	-0.859738	0.354936
H438	H	1.291472	-0.359738	0.854936
H439	H	0.772940	-0.907662	0.362883
H440	H	1.272940	-0.407662	0.862883
H441	H	0.732050	-0.831042	0.389390
H442	H	1.232050	-0.331042	0.889390
H443	H	0.713518	-0.878964	0.397345
H444	H	1.213518	-0.378964	0.897345
H445	H	-0.094245	-0.268782	0.268614
H446	H	0.405755	0.231218	0.768614
H447	H	-0.179368	-0.268787	0.268623
H448	H	0.320632	0.231213	0.768623
H449	H	0.597013	-0.268659	0.387988
H450	H	1.097013	0.231341	0.887988
O451	O	0.173565	-0.131004	0.131332
O452	O	0.673565	0.368996	0.631332
C453	C	0.204334	-0.105617	0.106014
C454	C	0.704334	0.394383	0.606014
H455	H	0.237788	-0.104092	0.124418
H456	H	0.737788	0.395908	0.624418
H457	H	0.209300	-0.122018	0.071862
H458	H	0.709300	0.377982	0.571862
C459	C	0.144958	-0.059667	0.077029
C460	C	0.644958	0.440333	0.577029
C461	C	0.186046	-0.057790	0.099635
C462	C	0.686046	0.442210	0.599635
H463	H	0.133677	-0.030165	0.073092
H464	H	0.633677	0.469835	0.573092
H465	H	0.124228	-0.076771	0.094085
H466	H	0.624228	0.423229	0.594085
H467	H	0.149102	-0.073336	0.048572
H468	H	0.649102	0.426664	0.548572
H469	H	0.181901	-0.044126	0.128093
H470	H	0.681901	0.455874	0.628093
H471	H	0.206775	-0.040682	0.082584
H472	H	0.706775	0.459318	0.582584
O473	O	0.032819	-0.131018	0.131350
O474	O	0.532819	0.368982	0.631350
C475	C	0.063588	-0.105630	0.106033
C476	C	0.563588	0.394370	0.606033
H477	H	0.097042	-0.104107	0.124436
H478	H	0.597042	0.395893	0.624436
H479	H	0.068552	-0.122029	0.071880
H480	H	0.568552	0.377971	0.571880
C481	C	0.004212	-0.059676	0.077053
C482	C	0.504212	0.440324	0.577053
C483	C	0.045301	-0.057801	0.099657
C484	C	0.545301	0.442199	0.599657
H485	H	-0.007068	-0.030173	0.073118
H486	H	0.492932	0.469827	0.573118
H487	H	-0.016518	-0.076781	0.094108
H488	H	0.483482	0.423219	0.594108
H489	H	0.008355	-0.073343	0.048595
H490	H	0.508355	0.426657	0.548595
H491	H	0.041157	-0.044140	0.128117
H492	H	0.541157	0.455860	0.628117
H493	H	0.066030	-0.040693	0.082607
H494	H	0.566030	0.459307	0.582607
H495	H	0.568363	-0.688600	0.135621
H496	H	1.068363	-0.188600	0.635621
H497	H	0.393036	-0.268738	0.268549
H498	H	0.893036	0.231262	0.768549
H499	H	0.262318	-0.297513	0.297243
H500	H	0.762318	0.202487	0.797243
H501	H	0.121543	-0.135573	0.135857
H502	H	0.621543	0.364427	0.635857
H503	H	0.730118	-0.135628	0.688992
H504	H	1.230118	0.364372	1.188992
O505	O	0.563706	-0.301772	0.600082
O506	O	1.063706	0.198228	1.100082
C507	C	0.534709	-0.276200	0.572929
C508	C	1.034709	0.223800	1.072929
H509	H	0.531961	-0.240811	0.587069
H510	H	1.031961	0.259189	1.087069
H511	H	0.548594	-0.274669	0.537374
H512	H	1.048594	0.225331	1.037374
C513	C	0.491367	-0.341605	0.554829
C514	C	0.991367	0.158395	1.054829
C515	C	0.487989	-0.298141	0.572198
C516	C	0.987989	0.201859	1.072198
H517	H	0.462548	-0.355140	0.554376
H518	H	0.962548	0.144860	1.054376
H519	H	0.510904	-0.358834	0.573121
H520	H	1.010904	0.141166	1.073121
H521	H	0.502939	-0.340324	0.525201
H522	H	1.002939	0.159676	1.025201
H523	H	0.476422	-0.299424	0.601827
H524	H	0.976422	0.200576	1.101827
H525	H	0.468449	-0.280913	0.553911
H526	H	0.968449	0.219087	1.053911
H527	H	0.597020	-0.268643	0.473112
H528	H	1.097020	0.231357	0.973112
O529	O	0.563854	-0.832981	0.131111
O530	O	1.063854	-0.332981	0.631111
C531	C	0.538516	-0.802244	0.105715
C532	C	1.038516	-0.302244	0.605715
H533	H	0.536946	-0.768789	0.124110
H534	H	1.036946	-0.268789	0.624110
H535	H	0.554988	-0.797264	0.071611
H536	H	1.054988	-0.297264	0.571611
C537	C	0.492636	-0.861675	0.076600
C538	C	0.992636	-0.361675	0.576600
C539	C	0.490705	-0.820587	0.099195
C540	C	0.990705	-0.320587	0.599195
H541	H	0.463144	-0.872991	0.072576
H542	H	0.963144	-0.372991	0.572576
H543	H	0.509707	-0.882384	0.093709
H544	H	1.009707	-0.382384	0.593709
H545	H	0.506364	-0.857520	0.048183
H546	H	1.006364	-0.357520	0.548183
H547	H	0.476982	-0.824744	0.127614
H548	H	0.976982	-0.324744	0.627614
H549	H	0.473629	-0.799879	0.082091
H550	H	0.973629	-0.299879	0.582091
O551	O	0.592734	-1.048862	0.159862
O552	O	1.092734	-0.548862	0.659862
C553	C	0.618334	-1.076008	0.130883
C554	C	1.118334	-0.576008	0.630883
H555	H	0.653716	-1.061847	0.128144
H556	H	1.153716	-0.561847	0.628144
H557	H	0.619879	-1.111558	0.144779
H558	H	1.119879	-0.611558	0.644779
C559	C	0.552958	-1.094162	0.087522
C560	C	1.052958	-0.594162	0.587522
C561	C	0.596414	-1.076767	0.084155
C562	C	1.096414	-0.576767	0.584155
H563	H	0.539436	-1.094632	0.058698
H564	H	1.039436	-0.594632	0.558698
H565	H	0.535710	-1.075875	0.107047
H566	H	1.035710	-0.575875	0.607047
H567	H	0.554251	-1.123785	0.099104
H568	H	1.054251	-0.623785	0.599104
H569	H	0.595119	-1.047143	0.072579
H570	H	1.095119	-0.547143	0.572579
H571	H	0.613661	-1.095050	0.064627
H572	H	1.113661	-0.595050	0.564627
H573	H	0.177213	-0.297519	0.297255
H574	H	0.677213	0.202481	0.797255
H575	H	0.568280	-0.297306	0.688899
H576	H	1.068280	0.202694	1.188899
H577	H	0.568340	-0.603491	0.135613
H578	H	1.068340	-0.103491	0.635613
H579	H	0.568387	-0.744249	0.135630
H580	H	1.068387	-0.244249	0.635630
O581	O	0.734582	-0.131033	0.833457
O582	O	1.234582	0.368967	1.333457
C583	C	0.709022	-0.102018	0.860602
C584	C	1.209022	0.397982	1.360602
H585	H	0.673641	-0.099241	0.846447
H586	H	1.173641	0.400759	1.346447
H587	H	0.707465	-0.115903	0.896155
H588	H	1.207465	0.384097	1.396155
C589	C	0.774453	-0.058728	0.878732
C590	C	1.274453	0.441272	1.378732
C591	C	0.730999	-0.055314	0.861345
C592	C	1.230999	0.444686	1.361345
H593	H	0.788010	-0.029920	0.879192
H594	H	1.288010	0.470080	1.379192
H595	H	0.791675	-0.078277	0.860445
H596	H	1.291675	0.421723	1.360445
H597	H	0.773150	-0.070300	0.908358
H598	H	1.273150	0.429700	1.408358
H599	H	0.732303	-0.043747	0.831717
H600	H	1.232303	0.456253	1.331717
H601	H	0.713778	-0.035762	0.879626
H602	H	1.213778	0.464238	1.379626
O603	O	0.705715	-0.383874	0.273256
O604	O	1.205715	0.116126	0.773256
C605	C	0.731068	-0.414609	0.298640
C606	C	1.231068	0.085391	0.798640
H607	H	0.712672	-0.448065	0.300179
H608	H	1.212672	0.051935	0.800179
H609	H	0.765201	-0.419585	0.282229
H610	H	1.265201	0.080415	0.782229
C611	C	0.760098	-0.355175	0.344570
C612	C	1.260098	0.144825	0.844570
C613	C	0.737502	-0.396265	0.346463
C614	C	1.237502	0.103735	0.846463
H615	H	0.764070	-0.343859	0.374069
H616	H	1.264070	0.156141	0.874069
H617	H	0.743019	-0.334467	0.327468
H618	H	1.243019	0.165533	0.827468
H619	H	0.788540	-0.359327	0.330892
H620	H	1.288540	0.140673	0.830892
H621	H	0.709059	-0.392111	0.360135
H622	H	1.209059	0.107889	0.860135
H623	H	0.754577	-0.416972	0.363569
H624	H	1.254577	0.083028	0.863569
H625	H	0.701339	-0.164429	0.388048
H626	H	1.201339	0.335571	0.888048
O627	O	0.389394	-0.159767	0.159970
O628	O	0.889394	0.340233	0.659970
C629	C	0.420162	-0.134381	0.134649
C630	C	0.920162	0.365619	0.634649
H631	H	0.453617	-0.132855	0.153049
H632	H	0.953617	0.367145	0.653049
H633	H	0.425124	-0.150783	0.100497
H634	H	0.925124	0.349217	0.600497
C635	C	0.360783	-0.088431	0.105668
C636	C	0.860783	0.411569	0.605668
C637	C	0.401873	-0.086553	0.128269
C638	C	0.901873	0.413447	0.628269
H639	H	0.349502	-0.058929	0.101730
H640	H	0.849502	0.441071	0.601730
H641	H	0.340055	-0.105534	0.122725
H642	H	0.840055	0.394466	0.622725
H643	H	0.364924	-0.102101	0.077210
H644	H	0.864924	0.397899	0.577210
H645	H	0.397731	-0.072888	0.156728
H646	H	0.897731	0.427112	0.656728
H647	H	0.422601	-0.069446	0.111216
H648	H	0.922601	0.430554	0.611216
H649	H	0.701406	-0.164299	0.960443
H650	H	1.201406	0.335701	1.460443
O651	O	0.705907	-0.159874	0.476778
O652	O	1.205907	0.340126	0.976778
C653	C	0.731269	-0.134525	0.446019
C654	C	1.231269	0.365475	0.946019
H655	H	0.732803	-0.152939	0.412573
H656	H	1.232803	0.347061	0.912573
H657	H	0.714843	-0.100403	0.441030
H658	H	1.214843	0.399597	0.941030
C659	C	0.777209	-0.105442	0.505419
C660	C	1.277209	0.394558	1.005419
C661	C	0.779096	-0.128059	0.464341
C662	C	1.279096	0.371941	0.964341
H663	H	0.806710	-0.101451	0.516721
H664	H	1.306710	0.398549	1.016721
H665	H	0.760121	-0.122518	0.526143
H666	H	1.260121	0.377482	1.026143
H667	H	0.763518	-0.077009	0.501255
H668	H	1.263518	0.422991	1.001255
H669	H	0.792781	-0.156494	0.468506
H670	H	1.292781	0.343506	0.968506
H671	H	0.796187	-0.110987	0.443618
H672	H	1.296187	0.389013	0.943618
O673	O	0.734509	-0.599568	0.301956
O674	O	1.234509	-0.099568	0.801956
C675	C	0.763534	-0.572412	0.276415
C676	C	1.263534	-0.072412	0.776415
H677	H	0.766341	-0.586565	0.241036
H678	H	1.266341	-0.086565	0.741036
H679	H	0.749637	-0.536864	0.274850
H680	H	1.249637	-0.036864	0.774850
C681	C	0.806770	-0.554266	0.341876
C682	C	1.306770	-0.054266	0.841876
C683	C	0.810221	-0.571651	0.298423
C684	C	1.310221	-0.071651	0.798423
H685	H	0.835569	-0.553794	0.355451
H686	H	1.335569	-0.053794	0.855451
H687	H	0.787215	-0.572560	0.359084
H688	H	1.287215	-0.072560	0.859084
H689	H	0.795188	-0.524644	0.340565
H690	H	1.295188	-0.024644	0.840565
H691	H	0.821798	-0.601274	0.299734
H692	H	1.321798	-0.101274	0.799734
H693	H	0.829779	-0.553362	0.281216
H694	H	1.329779	-0.053362	0.781216
O695	O	0.734530	-0.692001	0.302048
O696	O	1.234530	-0.192001	0.802048
C697	C	0.759850	-0.661193	0.327433
C698	C	1.259850	-0.161193	0.827433
H699	H	0.761401	-0.627759	0.309025
H700	H	1.261401	-0.127759	0.809025
H701	H	0.743376	-0.656196	0.361534
H702	H	1.243376	-0.156196	0.861534
C703	C	0.805764	-0.720517	0.356571
C704	C	1.305764	-0.220517	0.856571
C705	C	0.807672	-0.679454	0.333960
C706	C	1.307672	-0.179454	0.833960
H707	H	0.835263	-0.731781	0.360599
H708	H	1.335263	-0.231781	0.860599
H709	H	0.788705	-0.741273	0.339470
H710	H	1.288705	-0.241273	0.839470
H711	H	0.792033	-0.716347	0.384986
H712	H	1.292033	-0.216347	0.884986
H713	H	0.821398	-0.683625	0.305543
H714	H	1.321398	-0.183625	0.805543
H715	H	0.824735	-0.658698	0.351057
H716	H	1.324735	-0.158698	0.851057
H717	H	-0.179380	-0.164382	0.164570
H718	H	0.320620	0.335618	0.664570
H719	H	0.568306	-0.297277	0.829655
H720	H	1.068306	0.202723	1.329655
H721	H	0.478136	-0.164326	0.164480
H722	H	0.978136	0.335674	0.664480
H723	H	0.701208	-0.472608	0.268720
H724	H	1.201208	0.027392	0.768720
H725	H	0.701340	-0.959894	0.268789
H726	H	1.201340	-0.459894	0.768789
O727	O	0.705846	-1.048645	0.273387
O728	O	1.205846	-0.548645	0.773387
C729	C	0.695980	-1.037173	0.318149
C730	C	1.195980	-0.537173	0.818149
H731	H	0.678704	-1.003118	0.319057
H732	H	1.178704	-0.503118	0.819057
H733	H	0.672873	-1.063586	0.333252
H734	H	1.172873	-0.563586	0.833252
C735	C	0.760970	-1.076791	0.344305
C736	C	1.260970	-0.576791	0.844305
C737	C	0.739756	-1.034963	0.345420
C738	C	1.239756	-0.534963	0.845420
H739	H	0.787972	-1.075430	0.361128
H740	H	1.287972	-0.575430	0.861128
H741	H	0.767617	-1.084522	0.314148
H742	H	1.267617	-0.584522	0.814148
H743	H	0.741710	-1.098798	0.356890
H744	H	1.241710	-0.598798	0.856890
H745	H	0.759014	-1.012958	0.332830
H746	H	1.259014	-0.512958	0.832830
H747	H	0.733113	-1.027228	0.375575
H748	H	1.233113	-0.527228	0.875575
O749	O	0.592629	-0.956426	0.159853
O750	O	1.092629	-0.456426	0.659853
C751	C	0.567295	-0.987233	0.134479
C752	C	1.067295	-0.487233	0.634479
H753	H	0.585710	-1.020663	0.132956
H754	H	1.085710	-0.520663	0.632956
H755	H	0.533163	-0.992241	0.150890
H756	H	1.033163	-0.492241	0.650890
C757	C	0.538234	-0.927903	0.088524
C758	C	1.038234	-0.427903	0.588524
C759	C	0.560854	-0.968961	0.086649
C760	C	1.060854	-0.468961	0.586649
H761	H	0.534258	-0.916631	0.059020
H762	H	1.034258	-0.416631	0.559020
H763	H	0.555300	-0.907147	0.105619
H764	H	1.055300	-0.407147	0.605619
H765	H	0.509793	-0.932081	0.102201
H766	H	1.009793	-0.432081	0.602201
H767	H	0.589295	-0.964781	0.072977
H768	H	1.089295	-0.464781	0.572977
H769	H	0.543792	-0.989715	0.069550
H770	H	1.043792	-0.489715	0.569550
O771	O	0.734640	-0.131092	0.600270
O772	O	1.234640	0.368908	1.100270
C773	C	0.760022	-0.105743	0.631057
C774	C	1.260022	0.394257	1.131057
H775	H	0.741623	-0.104184	0.664495
H776	H	1.241623	0.395816	1.164495
H777	H	0.794132	-0.122199	0.636054
H778	H	1.294132	0.377801	1.136054
C779	C	0.789124	-0.059846	0.571699
C780	C	1.289124	0.440154	1.071699
C781	C	0.766524	-0.057928	0.612767
C782	C	1.266524	0.442072	1.112767
H783	H	0.793137	-0.030352	0.560416
H784	H	1.293137	0.469648	1.060416
H785	H	0.772025	-0.076925	0.550957
H786	H	1.272025	0.423075	1.050957
H787	H	0.817547	-0.073561	0.575869
H788	H	1.317547	0.426439	1.075869
H789	H	0.738100	-0.044219	0.608596
H790	H	1.238100	0.455781	1.108596
H791	H	0.783619	-0.040845	0.633508
H792	H	1.283619	0.459155	1.133508
H793	H	0.597012	-0.387636	0.164324
H794	H	1.097012	0.112364	0.664324
