data_functionalizedCrystal
_audit_creation_method	'MofGen! by Chris Wilmer'
_symmetry_space_group_name_H-M	'P1'
_symmetry_Int_Tables_number	1
_symmetry_cell_setting	triclinic
loop_
_symmetry_equiv_pos_as_xyz
  x,y,z
_cell_length_a	23.532355
_cell_length_b	22.610064
_cell_length_c	23.532407
_cell_angle_alpha	89.996958
_cell_angle_beta	82.838087
_cell_angle_gamma	90.009453
loop_
_atom_site_label
_atom_site_type_symbol
_atom_site_fract_x
_atom_site_fract_y
_atom_site_fract_z
O1	O	0.755288	0.049095	0.068993
O2	O	1.255288	0.549095	0.568993
O3	O	0.589420	0.049112	0.079027
O4	O	1.089420	0.549112	0.579027
O5	O	0.677356	0.049110	-0.008923
O6	O	1.177356	0.549110	0.491077
O7	O	0.667352	0.049097	0.156942
O8	O	1.167352	0.549097	0.656942
O9	O	0.677330	-0.049259	-0.008923
O10	O	1.177330	0.450741	0.491077
O11	O	0.589394	-0.049257	0.079027
O12	O	1.089394	0.450743	0.579027
O13	O	0.755262	-0.049274	0.068993
O14	O	1.255262	0.450726	0.568993
Zn15	Zn	0.672324	-0.064884	0.074010
Zn16	Zn	1.172324	0.435116	0.574010
Zn17	Zn	0.672358	0.064722	0.074010
Zn18	Zn	1.172358	0.564722	0.574010
O19	O	0.667327	-0.049273	0.156942
O20	O	1.167327	0.450727	0.656942
C21	C	0.568191	-0.000070	0.078776
C22	C	1.068191	0.499930	0.578776
C23	C	0.504972	-0.000063	0.078022
C24	C	1.004972	0.499937	0.578022
N25	N	0.672305	-0.153336	0.074009
N26	N	1.172305	0.346664	0.574009
C27	C	0.112944	-0.053708	0.073284
C28	C	0.612944	0.446292	0.573284
C29	C	0.053545	-0.053710	0.072566
C30	C	0.553545	0.446290	0.572566
O31	O	0.022814	-0.099312	0.072176
O32	O	0.522814	0.400688	0.572176
N33	N	0.023850	-0.000090	0.072211
N34	N	0.523850	0.499910	0.572211
C35	C	0.053559	0.053537	0.072567
C36	C	0.553559	0.553537	0.572567
O37	O	0.022847	0.099146	0.072198
O38	O	0.522847	0.599146	0.572198
C39	C	0.112958	0.053539	0.073280
C40	C	0.612958	0.553539	0.573280
C41	C	0.142649	-0.000086	0.073641
C42	C	0.642649	0.499914	0.573641
C43	C	0.142635	-0.107328	0.073645
C44	C	0.642635	0.392672	0.573645
C45	C	0.202030	-0.107326	0.074363
C46	C	0.702030	0.392674	0.574363
C47	C	0.231735	-0.053703	0.074721
C48	C	0.731735	0.446297	0.574721
C49	C	0.202044	-0.000083	0.074360
C50	C	0.702044	0.499917	0.574360
C51	C	0.142666	0.107165	0.073632
C52	C	0.642666	0.607165	0.573632
C53	C	0.202069	0.107162	0.074345
C54	C	0.702069	0.607162	0.574345
C55	C	0.231760	0.053537	0.074706
C56	C	0.731760	0.553537	0.574706
C57	C	0.291143	0.053542	0.075436
C58	C	0.791143	0.553542	0.575436
N59	N	0.320838	-0.000079	0.075792
N60	N	0.820838	0.499921	0.575792
C61	C	0.291134	-0.053702	0.075434
C62	C	0.791134	0.446298	0.575434
C63	C	-0.071182	0.053530	0.071068
C64	C	0.428818	0.553530	0.571068
C65	C	-0.130581	0.053529	0.070358
C66	C	0.369419	0.553529	0.570358
C67	C	-0.130591	-0.053719	0.070357
C68	C	0.369409	0.446281	0.570357
C69	C	-0.071192	-0.053717	0.071070
C70	C	0.428808	0.446283	0.571070
C71	C	-0.041488	-0.000091	0.071423
C72	C	0.458512	0.499909	0.571423
C73	C	0.415868	-0.053692	0.076944
C74	C	0.915868	0.446308	0.576944
C75	C	0.475268	-0.053685	0.077664
C76	C	0.975268	0.446315	0.577664
C77	C	0.475273	0.053562	0.077663
C78	C	0.975273	0.553562	0.577663
C79	C	0.415878	0.053555	0.076945
C80	C	0.915878	0.553555	0.576945
C81	C	0.386177	-0.000077	0.076583
C82	C	0.886177	0.499923	0.576583
O83	O	0.321912	0.099120	0.075825
O84	O	0.821912	0.599120	0.575825
O85	O	0.321853	-0.099303	0.075796
O86	O	0.821853	0.400697	0.575796
C87	C	0.706704	-0.561985	0.108364
C88	C	1.206704	-0.061985	0.608364
C89	C	0.706711	-0.623905	0.108362
C90	C	1.206711	-0.123905	0.608362
O91	O	0.735935	-0.655929	0.137568
O92	O	1.235935	-0.155929	0.637568
N93	N	0.672369	-0.654874	0.074003
N94	N	1.172369	-0.154874	0.574003
C95	C	0.638022	-0.623919	0.039639
C96	C	1.138022	-0.123919	0.539639
O97	O	0.608813	-0.655946	0.010413
O98	O	1.108813	-0.155946	0.510413
C99	C	0.638019	-0.562000	0.039638
C100	C	1.138019	-0.062000	0.539638
C101	C	0.672358	-0.531035	0.074003
C102	C	1.172358	-0.031035	0.574003
C103	C	0.741041	-0.531019	0.142726
C104	C	1.241041	-0.031019	0.642726
C105	C	0.741033	-0.469103	0.142728
C106	C	1.241033	0.030897	0.642728
C107	C	0.706687	-0.438153	0.108368
C108	C	1.206687	0.061847	0.608368
C109	C	0.672350	-0.469119	0.074006
C110	C	1.172350	0.030881	0.574006
C111	C	0.603675	-0.531047	0.005271
C112	C	1.103675	-0.031047	0.505271
C113	C	0.603675	-0.469124	0.005272
C114	C	1.103675	0.030876	0.505272
C115	C	0.638014	-0.438159	0.039638
C116	C	1.138014	0.061841	0.539638
C117	C	0.637997	-0.376254	0.039647
C118	C	1.137997	0.123746	0.539647
N119	N	0.672338	-0.345285	0.074006
N120	N	1.172338	0.154715	0.574006
C121	C	0.706684	-0.376235	0.108367
C122	C	1.206684	0.123765	0.608367
C123	C	0.638033	-0.753953	0.039643
C124	C	1.138033	-0.253953	0.539643
C125	C	0.638034	-0.815870	0.039647
C126	C	1.138034	-0.315870	0.539647
C127	C	0.706723	-0.815852	0.108370
C128	C	1.206723	-0.315852	0.608370
C129	C	0.706719	-0.753933	0.108369
C130	C	1.206719	-0.253933	0.608369
C131	C	0.672375	-0.722984	0.074003
C132	C	1.172375	-0.222984	0.574003
C133	C	0.706664	-0.246207	0.108369
C134	C	1.206664	0.253793	0.608369
C135	C	0.706651	-0.184286	0.108370
C136	C	1.206651	0.315714	0.608370
C137	C	0.637964	-0.184311	0.039645
C138	C	1.137964	0.315689	0.539645
C139	C	0.637974	-0.246226	0.039646
C140	C	1.137974	0.253774	0.539646
C141	C	0.672329	-0.277173	0.074010
C142	C	1.172329	0.222827	0.574010
O143	O	0.608789	-0.344190	0.010455
O144	O	1.108789	0.155810	0.510455
O145	O	0.735894	-0.344200	0.137582
O146	O	1.235894	0.155800	0.637582
C147	C	0.776491	-0.000091	0.069244
C148	C	1.276491	0.499909	0.569244
C149	C	0.839710	-0.000094	0.069998
C150	C	1.339710	0.499906	0.569998
C151	C	0.677088	-0.000071	-0.030139
C152	C	1.177088	0.499929	0.469861
C153	C	0.676322	-0.000061	-0.093356
C154	C	1.176322	0.499939	0.406644
N155	N	0.672381	0.153174	0.074006
N156	N	1.172381	0.653174	0.574006
C157	C	0.667594	-0.000090	0.178158
C158	C	1.167594	0.499910	0.678158
C159	C	0.668360	-0.000096	0.241375
C160	C	1.168360	0.499904	0.741375
C161	C	0.621125	-0.000060	0.640487
C162	C	1.121125	0.499940	1.140487
C163	C	0.621837	-0.000056	0.699887
C164	C	1.121837	0.499944	1.199887
O165	O	0.578050	-0.000030	0.736640
O166	O	1.078050	0.499970	1.236640
N167	N	0.674114	-0.000063	0.722504
N168	N	1.174114	0.499937	1.222504
C169	C	0.725684	-0.000067	0.685717
C170	C	1.225684	0.499933	1.185717
O171	O	0.770216	-0.000071	0.710408
O172	O	1.270216	0.499929	1.210408
C173	C	0.724972	-0.000067	0.626318
C174	C	1.224972	0.499933	1.126318
C175	C	0.672691	-0.000066	0.603705
C176	C	1.172691	0.499934	1.103705
C177	C	0.568849	-0.000059	0.617874
C178	C	1.068849	0.499941	1.117874
C179	C	0.568137	-0.000065	0.558478
C180	C	1.068137	0.499935	1.058478
C181	C	0.619703	-0.000071	0.521695
C182	C	1.119703	0.499929	1.021695
C183	C	0.671980	-0.000072	0.544309
C184	C	1.171980	0.499928	1.044309
C185	C	0.776541	-0.000067	0.589532
C186	C	1.276541	0.499933	1.089532
C187	C	0.775824	-0.000066	0.530129
C188	C	1.275824	0.499934	1.030129
C189	C	0.723543	-0.000066	0.507516
C190	C	1.223543	0.499934	1.007516
C191	C	0.722834	-0.000083	0.448130
C192	C	1.222834	0.499917	0.948130
N193	N	0.670556	-0.000077	0.425514
N194	N	1.170556	0.499923	0.925514
C195	C	0.618991	-0.000071	0.462296
C196	C	1.118991	0.499929	0.962296
C197	C	0.727175	-0.000066	0.810459
C198	C	1.227175	0.499934	1.310459
C199	C	0.727888	-0.000071	0.869857
C200	C	1.227888	0.499929	1.369857
C201	C	0.624041	-0.000059	0.884023
C202	C	1.124041	0.499941	1.384023
C203	C	0.623329	-0.000059	0.824624
C204	C	1.123329	0.499941	1.324624
C205	C	0.674898	-0.000060	0.787842
C206	C	1.174898	0.499940	1.287842
C207	C	0.617501	-0.000082	0.337560
C208	C	1.117501	0.499918	0.837560
C209	C	0.616794	-0.000090	0.278158
C210	C	1.116794	0.499910	0.778158
C211	C	0.720642	-0.000098	0.263996
C212	C	1.220642	0.499902	0.763996
C213	C	0.721349	-0.000094	0.323393
C214	C	1.221349	0.499906	0.823393
C215	C	0.669774	-0.000083	0.360174
C216	C	1.169774	0.499917	0.860174
O217	O	0.766598	-0.000107	0.411343
O218	O	1.266598	0.499893	0.911343
O219	O	0.574467	-0.000058	0.437597
O220	O	1.074467	0.499942	0.937597
H221	H	0.391691	-0.097365	0.076654
H222	H	0.891691	0.402635	0.576654
O223	O	0.110544	-0.165137	0.073302
O224	O	0.610544	0.334863	0.573302
H225	H	0.127191	-0.190899	0.034635
H226	H	0.627191	0.309101	0.534635
O227	O	0.777737	-0.000095	0.347784
O228	O	1.277737	0.499905	0.847784
H229	H	0.780541	-0.040185	0.374514
H230	H	1.280541	0.459815	0.874514
H231	H	-0.154751	0.097195	0.070073
H232	H	0.345249	0.597195	0.570073
H233	H	0.582053	-0.000054	0.913983
H234	H	1.082053	0.499946	1.413983
O235	O	0.566940	-0.000059	0.800237
O236	O	1.066940	0.499941	1.300237
H237	H	0.564139	0.040032	0.773508
H238	H	1.064139	0.540032	1.273508
H239	H	0.499439	-0.097355	0.077961
H240	H	0.999439	0.402645	0.577961
O241	O	0.234049	-0.165163	0.074765
O242	O	0.734049	0.334837	0.574765
H243	H	0.203407	-0.202446	0.074397
H244	H	0.703407	0.297554	0.574397
H245	H	0.734614	-0.159077	0.136357
H246	H	1.234614	0.340923	0.636357
O247	O	0.600988	-0.720588	0.002564
O248	O	1.100988	-0.220588	0.502564
H249	H	0.628468	-0.692382	-0.028197
H250	H	1.128468	-0.192382	0.471803
O251	O	-0.039170	-0.111555	0.071457
O252	O	0.460830	0.388445	0.571457
H253	H	-0.017411	-0.114124	0.110607
H254	H	0.482589	0.385876	0.610607
O255	O	0.778076	-0.435712	0.179792
O256	O	1.278076	0.064288	0.679792
H257	H	0.772305	-0.387455	0.174029
H258	H	1.272305	0.112545	0.674029
H259	H	0.574219	-0.000092	0.259750
H260	H	1.074219	0.499908	0.759750
O261	O	0.561876	-0.000080	0.377227
O262	O	1.061876	0.499920	0.877227
H263	H	0.525410	-0.000088	0.351515
H264	H	1.025410	0.499912	0.851515
H265	H	0.226251	0.150832	0.074632
H266	H	0.726251	0.650832	0.574632
O267	O	0.743777	-0.849242	0.145423
O268	O	1.243777	-0.349242	0.645423
H269	H	0.716305	-0.877468	0.176171
H270	H	1.216305	-0.377468	0.676171
H271	H	0.391701	0.097221	0.076660
H272	H	0.891701	0.597221	0.576660
H273	H	0.762625	-0.000106	0.234037
H274	H	1.262625	0.499894	0.734037
H275	H	0.525565	-0.000059	0.540072
H276	H	1.025565	0.499941	1.040072
H277	H	0.770461	-0.000080	0.888262
H278	H	1.270461	0.499920	1.388262
H279	H	0.769172	-0.000071	0.780513
H280	H	1.269172	0.499929	1.280513
H281	H	-0.154787	-0.097382	0.070065
H282	H	0.345213	0.402618	0.570065
H283	H	0.819114	-0.000067	0.607932
H284	H	1.319114	0.499933	1.107932
H285	H	0.610064	-0.841078	0.011670
H286	H	1.110064	-0.341078	0.511670
O287	O	0.831446	-0.000074	0.490456
O288	O	1.331446	0.499926	0.990456
H289	H	0.867916	-0.000080	0.516164
H290	H	1.367916	0.499920	1.016164
H291	H	0.118502	0.150832	0.073337
H292	H	0.618502	0.650832	0.573337
O293	O	-0.039146	0.111373	0.071459
O294	O	0.460854	0.611373	0.571459
H295	H	-0.069779	0.148654	0.071098
H296	H	0.430221	0.648654	0.571098
H297	H	0.575713	-0.556249	-0.022714
H298	H	1.075713	-0.056249	0.477286
O299	O	0.566628	-0.435742	-0.031791
O300	O	1.066628	0.064258	0.468209
H301	H	0.542749	-0.467681	-0.055681
H302	H	1.042749	0.032319	0.444319
H303	H	0.609999	-0.159100	0.011671
H304	H	1.109999	0.340900	0.511671
O305	O	0.513225	-0.000063	0.657539
O306	O	1.013225	0.499937	1.157539
H307	H	0.488194	0.040027	0.649527
H308	H	0.988194	0.540027	1.149527
H309	H	0.734639	-0.271397	0.136351
H310	H	1.234639	0.228603	0.636351
O311	O	0.507318	0.111397	0.078035
O312	O	1.007318	0.611397	0.578035
H313	H	0.553610	0.102384	0.078584
H314	H	1.053610	0.602384	0.578584
O315	O	0.778085	-0.564397	0.179793
O316	O	1.278085	-0.064397	0.679793
H317	H	0.801954	-0.532452	0.203686
H318	H	1.301954	-0.032452	0.703686
O319	O	0.743759	-0.720535	0.145431
O320	O	1.243759	-0.220535	0.645431
H321	H	0.767642	-0.752465	0.169320
H322	H	1.267642	-0.252465	0.669320
H323	H	0.610005	-0.271440	0.011670
H324	H	1.110005	0.228560	0.511670
