data_functionalizedCrystal
_audit_creation_method	'MofGen! by Chris Wilmer'
_symmetry_space_group_name_H-M	'P1'
_symmetry_Int_Tables_number	1
_symmetry_cell_setting	triclinic
loop_
_symmetry_equiv_pos_as_xyz
  x,y,z
_cell_length_a	15.995350
_cell_length_b	17.038272
_cell_length_c	15.072220
_cell_angle_alpha	89.999202
_cell_angle_beta	89.991149
_cell_angle_gamma	87.301966
loop_
_atom_site_label
_atom_site_type_symbol
_atom_site_fract_x
_atom_site_fract_y
_atom_site_fract_z
O1	O	1.118174	0.100774	-0.073708
O2	O	1.618174	0.600774	0.426292
O3	O	0.875285	0.113219	-0.073726
O4	O	1.375285	0.613219	0.426274
O5	O	0.995286	-0.006819	-0.073710
O6	O	1.495286	0.493181	0.426290
O7	O	0.998173	0.220812	-0.073724
O8	O	1.498173	0.720812	0.426276
O9	O	0.995255	-0.006813	0.073855
O10	O	1.495255	0.493187	0.573855
O11	O	0.875254	0.113226	0.073839
O12	O	1.375254	0.613226	0.573839
O13	O	1.118143	0.100781	0.073857
O14	O	1.618143	0.600781	0.573857
Zn15	Zn	0.996694	0.107004	0.097277
Zn16	Zn	1.496694	0.607004	0.597277
Zn17	Zn	0.996735	0.106995	-0.097146
Zn18	Zn	1.496735	0.606995	0.402854
O19	O	0.998142	0.220819	0.073841
O20	O	1.498142	0.720819	0.573841
C21	C	0.844038	0.112708	0.000054
C22	C	1.344038	0.612708	0.500054
C23	C	0.750978	0.111165	0.000047
C24	C	1.250978	0.611165	0.500047
C25	C	0.412836	0.105626	0.000066
C26	C	0.912836	0.605626	0.500066
C27	C	0.454180	0.020137	0.000400
C28	C	0.954180	0.520137	0.500400
C29	C	0.550981	0.021680	0.000062
C30	C	1.050981	0.521680	0.500062
C31	C	0.580592	0.108374	0.000057
C32	C	1.080592	0.608374	0.500057
C33	C	0.542527	0.150536	-0.084209
C34	C	1.042527	0.650536	0.415791
C35	C	0.445738	0.148388	-0.084273
C36	C	0.945738	0.648388	0.415727
C37	C	0.445489	0.150162	0.083536
C38	C	0.945489	0.650162	0.583536
C39	C	0.542433	0.150142	0.084644
C40	C	1.042433	0.650142	0.584644
C41	C	0.675401	0.109931	0.000049
C42	C	1.175401	0.609931	0.500049
C43	C	0.318027	0.104071	0.000068
C44	C	0.818027	0.604071	0.500068
C45	C	0.992645	-0.035945	0.000072
C46	C	1.492645	0.464055	0.500072
C47	C	0.984810	-0.122740	0.000071
C48	C	1.484810	0.377260	0.500071
C49	C	1.056739	-0.172836	0.000078
C50	C	1.556739	0.327164	0.500078
C51	C	1.049373	-0.254389	0.000069
C52	C	1.549373	0.245611	0.500069
C53	C	0.970077	-0.285843	0.000060
C54	C	1.470077	0.214157	0.500060
C55	C	0.898143	-0.235740	0.000051
C56	C	1.398143	0.264260	0.500051
C57	C	0.905510	-0.154189	0.000053
C58	C	1.405510	0.345811	0.500053
C59	C	0.944051	-0.531607	0.000046
C60	C	1.444051	-0.031607	0.500046
C61	C	0.936689	-0.613164	0.000046
C62	C	1.436689	-0.113164	0.500046
C63	C	1.087920	-0.631807	0.000062
C64	C	1.587920	-0.131807	0.500062
C65	C	1.095280	-0.550254	0.000070
C66	C	1.595280	-0.050254	0.500070
C67	C	1.023346	-0.500158	0.000056
C68	C	1.523346	-0.000158	0.500056
C69	C	0.962546	-0.369202	0.000053
C70	C	1.462546	0.130798	0.500053
C71	C	1.030878	-0.416801	0.000056
C72	C	1.530878	0.083199	0.500056
C73	C	1.149390	0.101292	0.000075
C74	C	1.649390	0.601292	0.500075
C75	C	1.242450	0.102834	0.000076
C76	C	1.742450	0.602834	0.500076
C77	C	1.000784	0.249944	0.000057
C78	C	1.500784	0.749944	0.500057
C79	C	1.008618	0.336739	0.000052
C80	C	1.508618	0.836739	0.500052
N81	N	0.996671	0.107010	0.229966
N82	N	1.496671	0.607010	0.729966
N83	N	0.996763	0.106984	-0.229835
N84	N	1.496763	0.606984	0.270165
C85	C	0.996733	0.106992	0.589168
C86	C	1.496733	0.606992	1.089168
C87	C	0.932276	0.171007	0.551552
C88	C	1.432276	0.671007	1.051552
C89	C	0.932451	0.171241	0.448726
C90	C	1.432451	0.671241	0.948726
C91	C	0.996702	0.107001	0.410963
C92	C	1.496702	0.607001	0.910963
C93	C	1.085336	0.124819	0.448260
C94	C	1.585336	0.624819	0.948260
C95	C	1.084981	0.125274	0.551118
C96	C	1.584981	0.625274	1.051118
C97	C	0.973321	0.024970	0.551271
C98	C	1.473321	0.524970	1.051271
C99	C	0.971355	0.025517	0.448408
C100	C	1.471355	0.525517	0.948408
C101	C	0.996689	0.107004	0.310250
C102	C	1.496689	0.607004	0.810250
C103	C	0.996751	0.106991	0.689881
C104	C	1.496751	0.606991	1.189881
H105	H	0.422949	0.122217	0.147408
H106	H	0.922949	0.622217	0.647408
N107	N	0.411262	0.229227	0.084248
N108	N	0.911262	0.729227	0.584248
N109	N	0.333744	0.242245	0.086987
N110	N	0.833744	0.742245	0.586987
H111	H	0.309565	0.298082	0.087484
H112	H	0.809565	0.798082	0.587484
N113	N	0.567358	0.229448	0.091072
N114	N	1.067358	0.729448	0.591072
N115	N	0.513290	0.284859	0.091332
N116	N	1.013290	0.784859	0.591332
H117	H	0.530900	0.340869	0.095886
H118	H	1.030900	0.840869	0.595886
H119	H	1.095440	-0.391187	0.000044
H120	H	1.595440	0.108813	0.500044
H121	H	0.897983	-0.394821	0.000048
H122	H	1.397983	0.105179	0.500048
N123	N	0.849615	0.157902	0.582612
N124	N	1.349615	0.657902	1.082612
N125	N	0.837240	0.101234	0.632838
N126	N	1.337240	0.601234	1.132838
H127	H	0.778858	0.091976	0.654780
H128	H	1.278858	0.591976	1.154780
N129	N	1.109735	0.200323	0.581189
N130	N	1.609735	0.700323	1.081189
N131	N	1.067758	0.261170	0.559969
N132	N	1.567758	0.761170	1.059969
H133	H	1.085239	0.314177	0.581201
H134	H	1.585239	0.814177	1.081201
H135	H	0.417961	0.211153	-0.088100
H136	H	0.917961	0.711153	0.411900
N137	N	0.427872	-0.022747	0.076196
N138	N	0.927872	0.477253	0.576196
N139	N	0.454407	-0.092169	0.087771
N140	N	0.954407	0.407831	0.587771
H141	H	0.435822	-0.122459	0.141302
H142	H	0.935822	0.377541	0.641302
H143	H	0.425253	0.117636	-0.147261
H144	H	0.925253	0.617636	0.352739
H145	H	1.159850	-0.524651	0.000077
H146	H	1.659850	-0.024651	0.500077
H147	H	0.561189	0.214228	-0.087345
H148	H	1.061189	0.714228	0.412655
N149	N	1.161385	-0.682990	0.000078
N150	N	1.661385	-0.182990	0.500078
N151	N	1.154802	-0.755802	0.000077
N152	N	1.654802	-0.255802	0.500077
H153	H	1.206689	-0.791951	0.000086
H154	H	1.706689	-0.291951	0.500086
H155	H	0.568828	0.121246	-0.146918
H156	H	1.068828	0.621246	0.353082
H157	H	1.014806	-0.024351	0.422706
H158	H	1.514806	0.475649	0.922706
H159	H	0.567544	0.119364	0.146983
H160	H	1.067544	0.619364	0.646983
H161	H	1.121310	-0.147233	0.000090
H162	H	1.621310	0.352767	0.500090
H163	H	0.866755	0.160625	0.423511
H164	H	1.366755	0.660625	0.923511
N165	N	0.583660	-0.019905	0.075837
N166	N	1.083660	0.480095	0.575837
N167	N	0.534967	-0.050274	0.129342
N168	N	1.034967	0.449726	0.629342
H169	H	0.558043	-0.079650	0.182859
H170	H	1.058043	0.420350	0.682859
H171	H	0.947652	0.231532	0.577388
H172	H	1.447652	0.731532	1.077388
H173	H	0.909778	0.007836	0.577258
H174	H	1.409778	0.507836	1.077258
H175	H	1.134752	0.080487	0.575999
H176	H	1.634752	0.580487	1.075999
H177	H	0.576474	-0.011692	-0.060445
H178	H	1.076474	0.488308	0.439555
H179	H	0.872114	-0.638770	0.000053
H180	H	1.372114	-0.138770	0.500053
N181	N	0.951920	0.247613	0.417851
N182	N	1.451920	0.747613	0.917851
N183	N	0.965428	0.300905	0.472269
N184	N	1.465428	0.800905	0.972269
H185	H	0.979165	0.354851	0.450465
H186	H	1.479165	0.854851	0.950465
H187	H	1.107945	-0.295174	0.000076
H188	H	1.607945	0.204826	0.500076
H189	H	0.885477	-0.490828	0.000035
H190	H	1.385477	0.009172	0.500035
N191	N	1.147241	0.067880	0.417572
N192	N	1.647241	0.567880	0.917572
N193	N	1.126676	0.013404	0.367750
N194	N	1.626676	0.513404	0.867750
H195	H	1.170395	-0.026812	0.346075
H196	H	1.670395	0.473188	0.846075
N197	N	0.817150	-0.267880	0.000031
N198	N	1.317150	0.232120	0.500031
N199	N	0.810582	-0.340693	0.000028
N200	N	1.310582	0.159307	0.500028
H201	H	0.753379	-0.363392	0.000016
H202	H	1.253379	0.136608	0.500016
H203	H	0.846938	-0.113400	0.000048
H204	H	1.346938	0.386600	0.500048
N205	N	0.426563	-0.022536	-0.074980
N206	N	0.926563	0.477464	0.425020
N207	N	0.376563	0.009739	-0.128947
N208	N	0.876563	0.509739	0.371053
H209	H	0.357056	-0.020397	-0.182187
H210	H	0.857056	0.479603	0.317813
H211	H	1.105400	0.183956	0.422489
H212	H	1.605400	0.683956	0.922489
H213	H	0.906125	0.011995	0.424032
H214	H	1.406125	0.511995	0.924032
N215	N	1.032205	-0.034785	0.581792
N216	N	1.532205	0.465215	1.081792
N217	N	1.091179	-0.017149	0.631237
N218	N	1.591179	0.482851	1.131237
H219	H	1.132769	-0.059346	0.652798
H220	H	1.632769	0.440654	1.152798
