data_functionalizedCrystal
_audit_creation_method	'MofGen! by Chris Wilmer'
_symmetry_space_group_name_H-M	'P1'
_symmetry_Int_Tables_number	1
_symmetry_cell_setting	triclinic
loop_
_symmetry_equiv_pos_as_xyz
  x,y,z
_cell_length_a	10.654550
_cell_length_b	14.472310
_cell_length_c	10.654550
_cell_angle_alpha	90.000834
_cell_angle_beta	84.484931
_cell_angle_gamma	90.009818
loop_
_atom_site_label
_atom_site_type_symbol
_atom_site_fract_x
_atom_site_fract_y
_atom_site_fract_z
O1	O	1.667858	0.076772	0.176391
O2	O	1.302379	0.076789	0.193197
O3	O	1.493521	0.076774	0.002054
O4	O	1.476715	0.076786	0.367533
O5	O	1.493472	-0.076908	0.002065
O6	O	1.302330	-0.076893	0.193207
O7	O	1.667808	-0.076910	0.176401
Cu8	Cu	1.485064	-0.090934	0.184805
Cu9	Cu	1.485123	0.090813	0.184793
O10	O	1.476666	-0.076896	0.367544
C11	C	1.255556	-0.000050	0.191968
C12	C	1.116113	-0.000044	0.188276
N13	N	1.485032	-0.218765	0.184814
C14	C	1.036628	-0.000043	0.300818
C15	C	0.905607	-0.000059	0.297341
C16	C	0.933570	-0.000074	0.068772
C17	C	1.064588	-0.000064	0.072250
C18	C	1.485121	-0.592856	0.184788
C19	C	1.382496	-0.553683	0.286715
C20	C	1.382738	-0.446595	0.287092
C21	C	1.485076	-0.407265	0.184801
C22	C	1.616368	-0.446107	0.214564
C23	C	1.615793	-0.553229	0.215290
C24	C	1.457621	-0.553389	0.052802
C25	C	1.454623	-0.446261	0.053655
C26	C	1.485059	-0.302377	0.184805
C27	C	1.485147	-0.697744	0.184785
C28	C	1.714631	-0.000069	0.177630
C29	C	1.854074	-0.000070	0.181322
C30	C	1.492263	-0.000066	-0.044738
C31	C	1.488571	-0.000065	-0.184181
N32	N	1.485165	0.218643	0.184775
C33	C	1.601112	-0.000070	-0.263667
C34	C	1.597636	-0.000058	-0.394688
C35	C	1.369066	-0.000041	-0.366725
C36	C	1.372544	-0.000046	-0.235706
C37	C	1.477925	-0.000053	0.414336
C38	C	1.481616	-0.000049	0.553779
H39	H	1.078574	-0.000033	0.395294
H40	H	1.129309	-0.000068	-0.019401
H41	H	1.695588	-0.000083	-0.221720
H42	H	1.280893	-0.000039	-0.170985
H43	H	0.840894	-0.000060	0.388984
H44	H	1.639853	-0.578202	0.311580
H45	H	0.891602	-0.000096	-0.025693
H46	H	1.363899	-0.580453	0.024466
H47	H	1.400418	-0.420958	0.385012
H48	H	1.274601	-0.000027	-0.408693
H49	H	1.285183	-0.420335	0.269191
H50	H	1.358037	-0.420875	0.031094
H51	H	1.399939	-0.580590	0.384083
H52	H	1.284627	-0.579467	0.269091
H53	H	1.532447	-0.578721	-0.023062
H54	H	1.694606	-0.579141	0.144039
H55	H	1.689279	-0.000060	-0.459401
H56	H	1.694608	-0.420630	0.142348
H57	H	1.640973	-0.419268	0.309764
H58	H	1.524428	-0.419493	-0.025837
